Measured thermophysical data. Structural and interactional behaviour of aqueous mixture of room temperature ionic liquid; 2-hydroxyethyl-trimethylammonium L-lactate
Source: J. Chem. Thermodyn., 2014, 10.1016/j.jct.2014.03.021
Compound 1: 2-hydroxy-N,N,N-trimethylethanaminium (S)-2-hydroxypropanoate, C8H19NO4, InChI=1S/C5H14NO.C3H6O3/c1-6(2,3)4-5-7;1-2(4)3(5)6/h7H,4-5H2,1-3H3;2,4H,1H3,(H,5,6)/q+1;/p-1/t;2-/m.0/s1, purity 95%
Compound 2: water, H2O, InChI=1S/H2O/h1H2

System: 2-hydroxy-N,N,N-trimethylethanaminium (S)-2-hydroxypropanoate; phases: Liquid
Fixed: Pressure, kPa = 101.325
Property: Mass density, kg/m3 (Liquid); method: Vibrating tube method
Temperature, K	Mass density, kg/m3	uncertainty
293.15	1143.463	7.102
298.15	1140.295	7.062
303.15	1137.157	7.022
308.15	1134.042	6.983
313.15	1130.944	6.944
318.15	1127.862	6.906
323.15	1124.793	6.868

System: 2-hydroxy-N,N,N-trimethylethanaminium (S)-2-hydroxypropanoate; phases: Liquid
Fixed: Pressure, kPa = 101.325
Property: Speed of sound, m/s (Liquid); method: Sing-around technique in a fixed-path interferometer
Temperature, K	Speed of sound, m/s	uncertainty
293.15	1935.58	5.17
298.15	1911.79	5.16
303.15	1892.05	5.16
308.15	1874.78	5.16
313.15	1859.14	5.16
318.15	1844.75	5.16
323.15	1831.07	5.16

System: 2-hydroxy-N,N,N-trimethylethanaminium (S)-2-hydroxypropanoate; phases: Liquid
Fixed: Pressure, kPa = 101.325
Property: Electrical conductivity, S/m (Liquid); method: Alternating current cell with electrodes
Temperature, K	Electrical conductivity, S/m	uncertainty
293.15	0.01375	0.00083
298.15	0.02193	0.00132
303.15	0.03267	0.00196
308.15	0.04548	0.00273
313.15	0.06474	0.00388
318.15	0.08975	0.00539
323.15	0.1094	0.00656

System: 2-hydroxy-N,N,N-trimethylethanaminium (S)-2-hydroxypropanoate; phases: Liquid
Fixed: Pressure, kPa = 101.325
Property: Refractive index (Na D-line) (Liquid); method: Standard Abbe refractometry
Temperature, K	Refractive index (Na D-line)	uncertainty
293.15	1.48146	0.001047
298.15	1.480564	0.001047
303.15	1.479314	0.001047
308.15	1.478084	0.001047
313.15	1.476757	0.001047
318.15	1.475442	0.001047
323.15	1.474178	0.001047

System: water; phases: Liquid
Fixed: Pressure, kPa = 101.325
Property: Mass density, kg/m3 (Liquid); method: Vibrating tube method
Temperature, K	Mass density, kg/m3	uncertainty
293.15	998.738	0.106
298.15	997.576	0.106
303.15	996.181	0.107
308.15	994.563	0.107
313.15	992.744	0.107
318.15	990.737	0.108
323.15	988.556	0.108

System: water; phases: Liquid
Fixed: Pressure, kPa = 101.325
Property: Speed of sound, m/s (Liquid); method: Sing-around technique in a fixed-path interferometer
Temperature, K	Speed of sound, m/s	uncertainty
293.15	1482.59	1.22
298.15	1496.8	1.22
303.15	1509.14	1.22
308.15	1519.76	1.23
313.15	1528.76	1.23
318.15	1536.25	1.23
323.15	1542.35	1.23

System: water; phases: Liquid
Fixed: Pressure, kPa = 101.325
Property: Refractive index (Na D-line) (Liquid); method: Standard Abbe refractometry
Temperature, K	Refractive index (Na D-line)	uncertainty
293.15	1.332991	0.000312
298.15	1.332514	0.000312
303.15	1.331974	0.000312
308.15	1.331349	0.000313
313.15	1.330652	0.000313
318.15	1.329902	0.000313
323.15	1.329107	0.000313

System: water + 2-hydroxy-N,N,N-trimethylethanaminium (S)-2-hydroxypropanoate; phases: Liquid
Fixed: Pressure, kPa = 101
Property: Mass density, kg/m3 (Liquid); method: Vibrating tube method
Temperature, K	Mole fraction of 2-hydroxy-N,N,N-trimethylethanaminium (S)-2-hydroxypropanoate	Mass density, kg/m3	uncertainty
293.15	0.0258	1036.965	0.429
293.15	0.0511	1063.089	0.408
293.15	0.074	1083.322	0.315
293.15	0.1027	1098.552	0.252
293.15	0.1443	1111.856	0.288
293.15	0.1965	1122.773	0.41
293.15	0.2705	1132.073	0.659
293.15	0.2957	1133.958	0.758
293.15	0.3897	1138.609	1.208
293.15	0.5347	1140.947	2.127
293.15	0.6044	1141.683	2.672
293.15	0.6931	1141.391	3.458
293.15	0.7565	1141.842	4.094
293.15	0.8375	1142.387	4.993
293.15	0.8996	1142.965	5.751
293.15	0.94	1143.248	6.276
293.15	0.9611	1143.374	6.56
298.15	0.0258	1035.087	0.423
298.15	0.0511	1060.725	0.402
298.15	0.074	1080.599	0.309
298.15	0.1027	1095.581	0.249
298.15	0.1443	1108.706	0.285
298.15	0.1965	1119.529	0.407
298.15	0.2705	1128.804	0.654
298.15	0.2957	1130.702	0.753
298.15	0.3897	1135.353	1.2
298.15	0.5347	1137.679	2.114
298.15	0.6044	1138.432	2.656
298.15	0.6931	1138.126	3.438
298.15	0.7565	1138.58	4.069
298.15	0.8375	1139.154	4.964
298.15	0.8996	1139.754	5.718
298.15	0.94	1140.054	6.24
298.15	0.9611	1140.189	6.523
303.15	0.0258	1033.067	0.416
303.15	0.0511	1058.279	0.396
303.15	0.074	1077.818	0.305
303.15	0.1027	1092.581	0.246
303.15	0.1443	1105.56	0.283
303.15	0.1965	1116.275	0.404
303.15	0.2705	1125.54	0.65
303.15	0.2957	1127.448	0.748
303.15	0.3897	1132.154	1.192
303.15	0.5347	1134.457	2.101
303.15	0.6044	1135.19	2.64
303.15	0.6931	1134.84	3.417
303.15	0.7565	1135.303	4.045
303.15	0.8375	1135.916	4.935
303.15	0.8996	1136.567	5.686
303.15	0.94	1136.899	6.205
303.15	0.9611	1137.044	6.486
308.15	0.0258	1030.915	0.41
308.15	0.0511	1055.743	0.39
308.15	0.074	1074.986	0.301
308.15	0.1027	1089.546	0.244
308.15	0.1443	1102.306	0.28
308.15	0.1965	1113.016	0.401
308.15	0.2705	1122.286	0.645
308.15	0.2957	1124.197	0.743
308.15	0.3897	1129.044	1.185
308.15	0.5347	1131.338	2.089
308.15	0.6044	1132.013	2.624
308.15	0.6931	1131.568	3.396
308.15	0.7565	1132.023	4.021
308.15	0.8375	1132.674	4.906
308.15	0.8996	1133.393	5.653
308.15	0.94	1133.763	6.17
308.15	0.9611	1133.926	6.45
313.15	0.0258	1028.623	0.405
313.15	0.0511	1053.12	0.385
313.15	0.074	1072.092	0.298
313.15	0.1027	1086.478	0.242
313.15	0.1443	1099.078	0.278
313.15	0.1965	1109.75	0.398
313.15	0.2705	1118.947	0.64
313.15	0.2957	1120.946	0.738
313.15	0.3897	1125.945	1.178
313.15	0.5347	1128.211	2.077
313.15	0.6044	1128.914	2.609
313.15	0.6931	1128.313	3.376
313.15	0.7565	1128.768	3.997
313.15	0.8375	1129.437	4.877
313.15	0.8996	1130.226	5.621
313.15	0.94	1130.634	6.135
313.15	0.9611	1130.813	6.414
318.15	0.0258	1026.218	0.4
318.15	0.0511	1050.416	0.381
318.15	0.074	1069.151	0.294
318.15	0.1027	1083.377	0.237
318.15	0.1443	1095.335	0.275
318.15	0.1965	1106.477	0.395
318.15	0.2705	1115.258	0.635
318.15	0.2957	1117.03	0.732
318.15	0.3897	1122.526	1.17
318.15	0.5347	1125.08	2.064
318.15	0.6044	1125.811	2.594
318.15	0.6931	1124.999	3.355
318.15	0.7565	1125.552	3.974
318.15	0.8375	1126.277	4.849
318.15	0.8996	1127.068	5.589
318.15	0.94	1127.56	6.101
318.15	0.9611	1127.752	6.379
323.15	0.0258	1023.683	0.396
323.15	0.0511	1047.633	0.377
323.15	0.074	1066.157	0.294
323.15	0.1027	1080.241	0.239
323.15	0.1443	1092.473	0.273
323.15	0.1965	1103.202	0.392
323.15	0.2705	1112.517	0.631
323.15	0.2957	1114.459	0.728
323.15	0.3897	1119.797	1.164
323.15	0.5347	1121.951	2.052
323.15	0.6044	1122.709	2.579
323.15	0.6931	1121.702	3.335
323.15	0.7565	1122.21	3.949
323.15	0.8375	1123.015	4.82
323.15	0.8996	1123.984	5.557
323.15	0.94	1124.478	6.067
323.15	0.9611	1124.686	6.343

System: water + 2-hydroxy-N,N,N-trimethylethanaminium (S)-2-hydroxypropanoate; phases: Liquid
Fixed: Pressure, kPa = 101
Fixed: Frequency, MHz = 3
Property: Speed of sound, m/s (Liquid); method: Sing-around technique in a fixed-path interferometer
Temperature, K	Mole fraction of 2-hydroxy-N,N,N-trimethylethanaminium (S)-2-hydroxypropanoate	Speed of sound, m/s	uncertainty
293.15	0.0258	1660.46	2.33
293.15	0.0511	1783.37	2.22
293.15	0.074	1872.77	1.8
293.15	0.1027	1930.56	1.61
293.15	0.1443	1988.41	1.6
293.15	0.1965	1987.82	1.74
293.15	0.2705	1989.43	1.99
293.15	0.2957	1985.18	2.08
293.15	0.3897	1975.3	2.45
293.15	0.5347	1955.87	3.06
293.15	0.6044	1952.07	3.36
293.15	0.6931	1942.55	3.76
293.15	0.7565	1943.32	4.05
293.15	0.8375	1942.56	4.42
293.15	0.8996	1938.82	4.7
293.15	0.94	1945.25	4.89
293.15	0.9611	1944.77	4.99
298.15	0.0258	1665.31	2.24
298.15	0.0511	1781.53	2.14
298.15	0.074	1866	1.75
298.15	0.1027	1920.57	1.57
298.15	0.1443	1968.18	1.6
298.15	0.1965	1974.64	1.74
298.15	0.2705	1970.86	1.99
298.15	0.2957	1971.47	2.08
298.15	0.3897	1957.17	2.45
298.15	0.5347	1941.58	3.06
298.15	0.6044	1937.43	3.36
298.15	0.6931	1927.3	3.76
298.15	0.7565	1923.33	4.04
298.15	0.8375	1922.54	4.41
298.15	0.8996	1922.91	4.7
298.15	0.94	1921.67	4.89
298.15	0.9611	1919.59	4.98
303.15	0.0258	1669.04	2.16
303.15	0.0511	1779.09	2.07
303.15	0.074	1858.92	1.71
303.15	0.1027	1910.5	1.56
303.15	0.1443	1954.08	1.59
303.15	0.1965	1961.53	1.73
303.15	0.2705	1957.99	1.99
303.15	0.2957	1957.93	2.08
303.15	0.3897	1944.62	2.45
303.15	0.5347	1927.79	3.06
303.15	0.6044	1923.47	3.36
303.15	0.6931	1912.88	3.76
303.15	0.7565	1909.5	4.04
303.15	0.8375	1908.61	4.41
303.15	0.8996	1908.07	4.7
303.15	0.94	1905.37	4.89
303.15	0.9611	1902.3	4.98
308.15	0.0258	1671.7	2.09
308.15	0.0511	1776.02	2.01
308.15	0.074	1851.58	1.68
308.15	0.1027	1900.35	1.54
308.15	0.1443	1940.57	1.59
308.15	0.1965	1948.59	1.73
308.15	0.2705	1945.17	1.98
308.15	0.2957	1944.58	2.08
308.15	0.3897	1931.99	2.44
308.15	0.5347	1914.26	3.05
308.15	0.6044	1909.86	3.36
308.15	0.6931	1899.01	3.76
308.15	0.7565	1896.11	4.04
308.15	0.8375	1895.21	4.41
308.15	0.8996	1894.02	4.7
308.15	0.94	1890.34	4.89
308.15	0.9611	1886.58	4.98
313.15	0.0258	1673.36	2.03
313.15	0.0511	1772.34	1.95
313.15	0.074	1843.85	1.65
313.15	0.1027	1890.13	1.53
313.15	0.1443	1927.41	1.58
313.15	0.1965	1935.67	1.73
313.15	0.2705	1932.47	1.98
313.15	0.2957	1931.39	2.08
313.15	0.3897	1919.3	2.44
313.15	0.5347	1901.03	3.05
313.15	0.6044	1896.55	3.36
313.15	0.6931	1885.62	3.75
313.15	0.7565	1883.05	4.04
313.15	0.8375	1882.11	4.41
313.15	0.8996	1880.47	4.7
313.15	0.94	1876.13	4.88
313.15	0.9611	1871.95	4.98
318.15	0.0258	1674.05	1.97
318.15	0.0511	1768.06	1.9
318.15	0.074	1835.89	1.63
318.15	0.1027	1879.77	1.52
318.15	0.1443	1914.82	1.58
318.15	0.1965	1922.85	1.73
318.15	0.2705	1919.76	1.98
318.15	0.2957	1918.32	2.07
318.15	0.3897	1906.78	2.44
318.15	0.5347	1887.96	3.05
318.15	0.6044	1883.51	3.36
318.15	0.6931	1872.46	3.75
318.15	0.7565	1870.14	4.04
318.15	0.8375	1869.12	4.41
318.15	0.8996	1867.3	4.7
318.15	0.94	1862.44	4.88
318.15	0.9611	1858.02	4.98
323.15	0.0258	1673.76	1.91
323.15	0.0511	1763.17	1.85
323.15	0.074	1827.58	1.61
323.15	0.1027	1869.2	1.53
323.15	0.1443	1906.96	1.58
323.15	0.1965	1910.04	1.73
323.15	0.2705	1911.63	1.98
323.15	0.2957	1905.24	2.07
323.15	0.3897	1898.71	2.44
323.15	0.5347	1875.05	3.05
323.15	0.6044	1870.57	3.36
323.15	0.6931	1859.56	3.75
323.15	0.7565	1862.97	4.04
323.15	0.8375	1861.8	4.41
323.15	0.8996	1854.36	4.7
323.15	0.94	1854.28	4.88
323.15	0.9611	1849.66	4.98

System: water + 2-hydroxy-N,N,N-trimethylethanaminium (S)-2-hydroxypropanoate; phases: Liquid
Fixed: Pressure, kPa = 101
Property: Electrical conductivity, S/m (Liquid); method: Alternating current cell with electrodes
Temperature, K	Mole fraction of 2-hydroxy-N,N,N-trimethylethanaminium (S)-2-hydroxypropanoate	Electrical conductivity, S/m	uncertainty
293.15	0.0258	3.002	0.18
293.15	0.0511	2.991	0.179
293.15	0.074	2.546	0.153
293.15	0.1027	1.911	0.115
293.15	0.1965	0.806	0.048
293.15	0.2957	0.344	0.021
293.15	0.5347	0.079	0.005
293.15	0.6044	0.059	0.004
293.15	0.6931	0.037	0.002
293.15	0.798	0.018	0.001
293.15	0.8996	0.01	0.001
298.15	0.0258	3.349	0.201
298.15	0.0511	3.419	0.205
298.15	0.074	2.855	0.172
298.15	0.1027	2.289	0.137
298.15	0.1965	1.012	0.061
298.15	0.2957	0.405	0.024
298.15	0.5347	0.108	0.007
298.15	0.6044	0.089	0.005
298.15	0.6931	0.046	0.003
298.15	0.798	0.029	0.002
298.15	0.8996	0.017	0.001
303.15	0.0258	3.679	0.221
303.15	0.0511	3.858	0.232
303.15	0.074	3.227	0.194
303.15	0.1027	2.566	0.154
303.15	0.1965	1.188	0.071
303.15	0.2957	0.497	0.03
303.15	0.5347	0.145	0.009
303.15	0.6044	0.106	0.006
303.15	0.6931	0.059	0.004
303.15	0.798	0.047	0.003
303.15	0.8996	0.042	0.003
308.15	0.0258	3.998	0.24
308.15	0.0511	4.217	0.253
308.15	0.074	3.666	0.22
308.15	0.1027	2.948	0.177
308.15	0.1965	1.441	0.087
308.15	0.2957	0.622	0.037
308.15	0.5347	0.194	0.012
308.15	0.6044	0.138	0.008
308.15	0.6931	0.073	0.004
308.15	0.798	0.053	0.003
308.15	0.8996	0.056	0.003
313.15	0.0258	4.378	0.263
313.15	0.0511	4.666	0.28
313.15	0.074	4.095	0.246
313.15	0.1027	3.313	0.199
313.15	0.1965	1.647	0.099
313.15	0.2957	0.735	0.044
313.15	0.5347	0.234	0.014
313.15	0.6044	0.169	0.01
313.15	0.6931	0.103	0.006
313.15	0.798	0.069	0.004
313.15	0.8996	0.071	0.004
318.15	0.0258	4.987	0.299
318.15	0.0511	5.065	0.304
318.15	0.074	4.553	0.273
318.15	0.1027	3.83	0.23
318.15	0.1965	1.923	0.116
318.15	0.2957	0.898	0.054
318.15	0.5347	0.262	0.016
318.15	0.6044	0.197	0.012
318.15	0.6931	0.118	0.007
318.15	0.798	0.103	0.006
318.15	0.8996	0.084	0.005
323.15	0.0258	5.227	0.314
323.15	0.0511	5.474	0.328
323.15	0.074	5.091	0.306
323.15	0.1027	4.258	0.256
323.15	0.1965	2.176	0.131
323.15	0.2957	1.015	0.061
323.15	0.5347	0.318	0.019
323.15	0.6044	0.235	0.014
323.15	0.6931	0.151	0.009
323.15	0.798	0.134	0.008
323.15	0.8996	0.144	0.009

System: water + 2-hydroxy-N,N,N-trimethylethanaminium (S)-2-hydroxypropanoate; phases: Liquid
Fixed: Pressure, kPa = 101
Property: Refractive index (Na D-line) (Liquid); method: Standard Abbe refractometry
Temperature, K	Mole fraction of 2-hydroxy-N,N,N-trimethylethanaminium (S)-2-hydroxypropanoate	Refractive index (Na D-line)	uncertainty
293.15	0.0258	1.369033	0.000469
293.15	0.0511	1.39091	0.000476
293.15	0.074	1.411206	0.000398
293.15	0.1027	1.41982	0.000351
293.15	0.1965	1.439011	0.000391
293.15	0.2957	1.451937	0.00045
293.15	0.416	1.460754	0.000539
293.15	0.5184	1.469157	0.000621
293.15	0.5347	1.469741	0.000635
293.15	0.6044	1.470134	0.000694
293.15	0.6931	1.473548	0.00077
293.15	0.7801	1.472512	0.000848
293.15	0.8279	1.474808	0.000891
293.15	0.8996	1.480142	0.000956
298.15	0.0258	1.368279	0.000467
298.15	0.0511	1.389976	0.000474
298.15	0.074	1.410097	0.000393
298.15	0.1027	1.418684	0.000351
298.15	0.1965	1.43773	0.000391
298.15	0.2957	1.450656	0.00045
298.15	0.416	1.459403	0.000539
298.15	0.5184	1.467863	0.000621
298.15	0.5347	1.468426	0.000635
298.15	0.6044	1.468873	0.000694
298.15	0.6931	1.472301	0.000771
298.15	0.7801	1.471208	0.000848
298.15	0.8279	1.473685	0.000891
298.15	0.8996	1.478981	0.000956
303.15	0.0258	1.367484	0.000462
303.15	0.0511	1.388991	0.000472
303.15	0.074	1.408968	0.000392
303.15	0.1027	1.417491	0.00035
303.15	0.1965	1.436453	0.000391
303.15	0.2957	1.449335	0.00045
303.15	0.416	1.458167	0.000539
303.15	0.5184	1.466555	0.000621
303.15	0.5347	1.467088	0.000634
303.15	0.6044	1.467543	0.000694
303.15	0.6931	1.470985	0.000771
303.15	0.7801	1.470014	0.000848
303.15	0.8279	1.472257	0.000891
303.15	0.8996	1.477581	0.000956
308.15	0.0258	1.36732	0.000457
308.15	0.0511	1.387991	0.000466
308.15	0.074	1.407803	0.000392
308.15	0.1027	1.4163	0.00035
308.15	0.1965	1.435157	0.000391
308.15	0.2957	1.448001	0.00045
308.15	0.416	1.456791	0.000539
308.15	0.5184	1.465316	0.000621
308.15	0.5347	1.465766	0.000634
308.15	0.6044	1.4662	0.000694
308.15	0.6931	1.469659	0.000771
308.15	0.7801	1.468417	0.000848
308.15	0.8279	1.470731	0.000891
308.15	0.8996	1.476066	0.000956
313.15	0.0258	1.366644	0.000452
313.15	0.0511	1.387187	0.000463
313.15	0.074	1.406731	0.00039
313.15	0.1027	1.415099	0.00035
313.15	0.1965	1.433865	0.000391
313.15	0.2957	1.446691	0.00045
313.15	0.416	1.455432	0.000539
313.15	0.5184	1.463993	0.000621
313.15	0.5347	1.464437	0.000634
313.15	0.6044	1.464889	0.000694
313.15	0.6931	1.468353	0.000771
313.15	0.7801	1.467029	0.000848
313.15	0.8279	1.469312	0.000891
313.15	0.8996	1.474669	0.000956
318.15	0.0258	1.366486	0.000447
318.15	0.0511	1.386578	0.00046
318.15	0.074	1.406014	0.000387
318.15	0.1027	1.413895	0.00035
318.15	0.1965	1.432527	0.000391
318.15	0.2957	1.445349	0.00045
318.15	0.416	1.454147	0.000539
318.15	0.5184	1.46255	0.000621
318.15	0.5347	1.463105	0.000635
318.15	0.6044	1.463456	0.000694
318.15	0.6931	1.467041	0.000771
318.15	0.7801	1.465538	0.000848
318.15	0.8279	1.467895	0.000891
318.15	0.8996	1.473309	0.000956
323.15	0.0258	1.366649	0.000458
323.15	0.0511	1.387559	0.000456
323.15	0.074	1.405468	0.000387
323.15	0.1027	1.41332	0.00035
323.15	0.1965	1.431168	0.000392
323.15	0.2957	1.444007	0.000452
323.15	0.416	1.452657	0.000539
323.15	0.5184	1.461512	0.000621
323.15	0.5347	1.461798	0.000634
323.15	0.6044	1.462065	0.000693
323.15	0.6931	1.465737	0.000771
323.15	0.7801	1.463877	0.000848
323.15	0.8279	1.466311	0.000891
323.15	0.8996	1.471992	0.000956
