Measured thermophysical data. Vapour pressures and enthalpies of vaporization of a series of d-lactones
Source: J. Chem. Thermodyn., 2007, 10.1016/j.jct.2006.06.010
Compound 1: 1-oxacyclohexan-2-one, C5H8O2, InChI=1S/C5H8O2/c6-5-3-1-2-4-7-5/h1-4H2, purity 99.7%
Compound 2: 2H-pyran-2-one, tetrahydro-6-methyl-, C6H10O2, InChI=1S/C6H10O2/c1-5-3-2-4-6(7)8-5/h5H,2-4H2,1H3, purity 99.7%
Compound 3: 2H-pyran-2-one, tetrahydro-6-propyl-, C8H14O2, InChI=1S/C8H14O2/c1-2-4-7-5-3-6-8(9)10-7/h7H,2-6H2,1H3, purity 99.7%
Compound 4: .delta.-nonanolactone, C9H16O2, InChI=1S/C9H16O2/c1-2-3-5-8-6-4-7-9(10)11-8/h8H,2-7H2,1H3, purity 99.7%
Compound 5: 2H-pyran-2-one, tetrahydro-6-pentyl-, C10H18O2, InChI=1S/C10H18O2/c1-2-3-4-6-9-7-5-8-10(11)12-9/h9H,2-8H2,1H3, purity 99.7%

System: 1-oxacyclohexan-2-one; phases: Liquid, Gas
Property: Vapor or sublimation pressure, kPa (Liquid); method: Transpiration method
Temperature, K	Vapor or sublimation pressure, kPa	uncertainty
278.4	0.00283	0.00021
283.2	0.00419	0.0003
283.2	0.00403	0.00029
283.3	0.00441	0.00032
288.2	0.00685	0.00049
288.3	0.0068	0.00048
288.3	0.00656	0.00047
288.3	0.00654	0.00047
290.3	0.00783	0.00056
293.1	0.00987	0.00071
293.3	0.01024	0.00073
294.2	0.01121	0.00081
297.9	0.01494	0.00119
298.2	0.01582	0.00112
299.2	0.0163	0.00118
303.1	0.02307	0.00164
303.2	0.0216	0.00153
304.3	0.02384	0.00172
307.1	0.03058	0.00218
307.1	0.03066	0.00218
308.1	0.03248	0.0023
309.3	0.03504	0.0025
313.1	0.0459	0.00327
313.1	0.0465	0.00331
313.2	0.04993	0.00354
313.2	0.04928	0.0035
313.2	0.04998	0.00355
318.1	0.06482	0.00463
318.1	0.06141	0.00439
318.1	0.07006	0.00498
323.1	0.09981	0.00704
323.2	0.091	0.00643
323.2	0.08753	0.00619
328.1	0.1196	0.0087
328.3	0.1367	0.0096
328.4	0.1233	0.0089
333	0.1568	0.0111
333.2	0.1751	0.0124
333.2	0.1847	0.0131
338.1	0.2309	0.0164
338.2	0.2223	0.0158
338.2	0.2413	0.0171
343.1	0.3233	0.0228
343.2	0.3044	0.0215
343.2	0.2961	0.021
348.2	0.4122	0.0291
349.2	0.4368	0.0308
350.2	0.4633	0.0324
351.1	0.4635	0.0324
352.1	0.4875	0.0343
353.2	0.5129	0.036

System: 2H-pyran-2-one, tetrahydro-6-methyl-; phases: Liquid, Gas
Property: Vapor or sublimation pressure, kPa (Liquid); method: Transpiration method
Temperature, K	Vapor or sublimation pressure, kPa	uncertainty
283.2	0.0038	0.00027
283.2	0.00358	0.00026
285.3	0.00449	0.00032
288.2	0.00552	0.0004
288.2	0.00581	0.00042
288.4	0.00557	0.0004
293.2	0.00861	0.00062
293.3	0.00893	0.00064
298.2	0.01282	0.00092
298.2	0.01346	0.00097
303	0.02045	0.00148
303.3	0.01983	0.00144
308.2	0.02955	0.00211
308.2	0.02937	0.00209
313.2	0.042	0.00298
313.3	0.04231	0.003
318.1	0.05813	0.00415
323.2	0.08644	0.00615
328.2	0.1219	0.0086
328.2	0.1227	0.0087
333.2	0.1679	0.0119
335.2	0.1937	0.0138
338.2	0.2429	0.0172
338.3	0.2278	0.0161
343.2	0.3117	0.022
348.2	0.4187	0.0296
348.2	0.4161	0.0294
352.2	0.53	0.0376
353.1	0.5615	0.0397

System: 2H-pyran-2-one, tetrahydro-6-propyl-; phases: Liquid, Gas
Property: Vapor or sublimation pressure, kPa (Liquid); method: Transpiration method
Temperature, K	Vapor or sublimation pressure, kPa	uncertainty
288.3	0.00088	6e-05
293.2	0.00137	0.0001
298.2	0.00224	0.00016
303.2	0.00344	0.00025
306.3	0.00441	0.00032
308	0.00524	0.00038
309.8	0.00597	0.00043
313	0.00769	0.00055
314.1	0.00876	0.00063
318.1	0.01172	0.00084
323.2	0.01753	0.00125
328.4	0.02563	0.00182
333.4	0.03536	0.0025
335.7	0.0413	0.00295
338.2	0.05096	0.00363
343.1	0.06926	0.00491
348.1	0.09558	0.00677
353.1	0.1323	0.0093

System: .delta.-nonanolactone; phases: Liquid, Gas
Property: Vapor or sublimation pressure, kPa (Liquid); method: Transpiration method
Temperature, K	Vapor or sublimation pressure, kPa	uncertainty
293.2	0.00054	4e-05
298.2	0.00086	6e-05
303.2	0.00141	0.0001
308.2	0.00214	0.00015
313.3	0.00342	0.00025
318.1	0.00509	0.00037
323.2	0.00797	0.00057
328.2	0.01104	0.00079
333.2	0.0166	0.00118
338.1	0.02342	0.00167
343.2	0.03353	0.00238
348.2	0.0456	0.00321

System: 2H-pyran-2-one, tetrahydro-6-pentyl-; phases: Liquid, Gas
Property: Vapor or sublimation pressure, kPa (Liquid); method: Transpiration method
Temperature, K	Vapor or sublimation pressure, kPa	uncertainty
309.2	0.00067	5e-05
313.2	0.00096	7e-05
316	0.00123	9e-05
318	0.0015	0.00011
320.6	0.00181	0.00013
322.1	0.00207	0.00015
323	0.00226	0.00016
325.2	0.00257	0.00018
328	0.00338	0.00024
330.1	0.0039	0.00028
333	0.00492	0.00035
335.2	0.00598	0.00043
337.8	0.00721	0.00051
340.2	0.00854	0.00061
343.1	0.0107	0.00076
345.4	0.01217	0.00086
348	0.01446	0.00103
348.2	0.01505	0.00107
350.5	0.01718	0.00122
353.1	0.0209	0.00148
353.2	0.02172	0.00154
355.4	0.02425	0.00171
358.2	0.0291	0.00206
