Measured thermophysical data. Equilibrium solubility determination, modelling and thermodynamic aspects of 6-chloroguanine in aqueous co-solvent mixtures of N,N-dimethylformamide, isopropanol, 1,4-dioxane and dimethyl sulfoxide
Source: J. Chem. Thermodyn., 2019, 10.1016/j.jct.2019.03.004
Compound 1: 2-amino-6-chloropurine, C5H4ClN5, InChI=1S/C5H4ClN5/c6-3-2-4(9-1-8-2)11-5(7)10-3/h1H,(H3,7,8,9,10,11), purity 98.2%
Compound 2: dimethylformamide, C3H7NO, InChI=1S/C3H7NO/c1-4(2)3-5/h3H,1-2H3
Compound 3: dimethyl sulfoxide, C2H6OS, InChI=1S/C2H6OS/c1-4(2)3/h1-2H3
Compound 4: propan-2-ol, C3H8O, InChI=1S/C3H8O/c1-3(2)4/h3-4H,1-2H3
Compound 5: 1,4-dioxane, C4H8O2, InChI=1S/C4H8O2/c1-2-6-4-3-5-1/h1-4H2
Compound 6: water, H2O, InChI=1S/H2O/h1H2

System: 2-amino-6-chloropurine + dimethylformamide + water; phases: Liquid, Crystal
Fixed: Pressure, kPa = 101.2
Property: Mole fraction of 2-amino-6-chloropurine (Liquid); method: Chromatography
Solvent: Mass fraction of dimethylformamide	Temperature, K	Mole fraction of 2-amino-6-chloropurine	uncertainty
0	278.15	3.283e-06	1.313e-06
0	283.15	4.657e-06	1.863e-06
0	288.15	6.526e-06	2.61e-06
0	293.15	9.04e-06	3.616e-06
0	298.15	1.239e-05	4.96e-06
0	303.15	1.68e-05	6.72e-06
0	308.15	2.256e-05	9.02e-06
0	313.15	3.001e-05	1.2e-05
0	318.15	3.956e-05	1.582e-05
0	323.15	5.171e-05	2.068e-05
0	328.15	6.704e-05	2.682e-05
0	333.15	8.625e-05	3.45e-05
0.1	278.15	5.801e-05	2.32e-05
0.1	283.15	7.759e-05	3.104e-05
0.1	288.15	0.0001028	4.11e-05
0.1	293.15	0.0001349	5.4e-05
0.1	298.15	0.0001756	7.02e-05
0.1	303.15	0.0002266	9.06e-05
0.1	308.15	0.0002901	0.000116
0.1	313.15	0.0003686	0.0001474
0.1	318.15	0.0004651	0.000186
0.1	323.15	0.0006279	0.0002512
0.1	328.15	0.0008332	0.0003333
0.1	333.15	0.00111	0.000444
0.2	278.15	0.0002219	8.88e-05
0.2	283.15	0.0002875	0.000115
0.2	288.15	0.0003696	0.0001478
0.2	293.15	0.0004714	0.0001886
0.2	298.15	0.0005969	0.0002388
0.2	303.15	0.0007505	0.0003002
0.2	308.15	0.0009374	0.000375
0.2	313.15	0.001071	0.000428
0.2	318.15	0.00134	0.000536
0.2	323.15	0.001562	0.000625
0.2	328.15	0.001854	0.000742
0.2	333.15	0.002221	0.000888
0.3	278.15	0.0003747	0.0001499
0.3	283.15	0.0004772	0.0001909
0.3	288.15	0.0006035	0.0002414
0.3	293.15	0.0007582	0.0003033
0.3	298.15	0.0009464	0.0003786
0.3	303.15	0.00114	0.000456
0.3	308.15	0.001352	0.000541
0.3	313.15	0.001641	0.000656
0.3	318.15	0.002064	0.000826
0.3	323.15	0.002501	0.001
0.3	328.15	0.002812	0.001125
0.3	333.15	0.003231	0.001292
0.4	278.15	0.0004754	0.0001902
0.4	283.15	0.000623	0.0002492
0.4	288.15	0.0007951	0.000318
0.4	293.15	0.00102	0.000408
0.4	298.15	0.001191	0.000476
0.4	303.15	0.001517	0.000607
0.4	308.15	0.001785	0.000714
0.4	313.15	0.002124	0.00085
0.4	318.15	0.002643	0.001057
0.4	323.15	0.003162	0.001265
0.4	328.15	0.00357	0.001428
0.4	333.15	0.004111	0.001644
0.5	278.15	0.0006959	0.0002784
0.5	283.15	0.0008628	0.0003451
0.5	288.15	0.001062	0.000425
0.5	293.15	0.001311	0.000524
0.5	298.15	0.001607	0.000643
0.5	303.15	0.001942	0.000777
0.5	308.15	0.002351	0.00094
0.5	313.15	0.002835	0.001134
0.5	318.15	0.003404	0.001362
0.5	323.15	0.004062	0.001625
0.5	328.15	0.004841	0.001936
0.5	333.15	0.005542	0.002217
0.6	278.15	0.001077	0.000431
0.6	283.15	0.001318	0.000527
0.6	288.15	0.001598	0.000639
0.6	293.15	0.001937	0.000775
0.6	298.15	0.002327	0.000931
0.6	303.15	0.002794	0.001118
0.6	308.15	0.003342	0.001337
0.6	313.15	0.003997	0.001599
0.6	318.15	0.004745	0.001898
0.6	323.15	0.005621	0.002248
0.6	328.15	0.006634	0.002654
0.6	333.15	0.007812	0.003125
0.7	278.15	0.002095	0.000838
0.7	283.15	0.002506	0.001002
0.7	288.15	0.002994	0.001198
0.7	293.15	0.003551	0.00142
0.7	298.15	0.004212	0.001685
0.7	303.15	0.004987	0.001995
0.7	308.15	0.005886	0.002354
0.7	313.15	0.006917	0.002767
0.7	318.15	0.008114	0.003246
0.7	323.15	0.009491	0.003796
0.7	328.15	0.01102	0.00441
0.7	333.15	0.01303	0.00521
0.8	278.15	0.003627	0.001451
0.8	283.15	0.004215	0.001686
0.8	288.15	0.004854	0.001942
0.8	293.15	0.005695	0.002278
0.8	298.15	0.006504	0.002602
0.8	303.15	0.007561	0.003024
0.8	308.15	0.008611	0.003444
0.8	313.15	0.01014	0.00406
0.8	318.15	0.01197	0.00479
0.8	323.15	0.01411	0.00564
0.8	328.15	0.01643	0.00657
0.8	333.15	0.01865	0.00746
0.9	278.15	0.005255	0.002102
0.9	283.15	0.006084	0.002434
0.9	288.15	0.007047	0.002819
0.9	293.15	0.008148	0.003259
0.9	298.15	0.009401	0.00376
0.9	303.15	0.01102	0.00441
0.9	308.15	0.01254	0.00502
0.9	313.15	0.01439	0.00576
0.9	318.15	0.01668	0.00667
0.9	323.15	0.01902	0.00761
0.9	328.15	0.02204	0.00882
0.9	333.15	0.02502	0.01001
1	278.15	0.002259	0.000904
1	283.15	0.002662	0.001065
1	288.15	0.003127	0.001251
1	293.15	0.003661	0.001464
1	298.15	0.004274	0.00171
1	303.15	0.004974	0.00199
1	308.15	0.005773	0.002309
1	313.15	0.006683	0.002673
1	318.15	0.007715	0.003086
1	323.15	0.008884	0.003554
1	328.15	0.01001	0.004
1	333.15	0.01207	0.00483

System: 2-amino-6-chloropurine + dimethyl sulfoxide + water; phases: Liquid, Crystal
Fixed: Pressure, kPa = 101.2
Property: Mole fraction of 2-amino-6-chloropurine (Liquid); method: Chromatography
Solvent: Mass fraction of dimethyl sulfoxide	Temperature, K	Mole fraction of 2-amino-6-chloropurine	uncertainty
0	298.15	1.239e-05	1.09e-06
0	303.15	1.68e-05	1.48e-06
0	308.15	2.256e-05	1.99e-06
0	313.15	3.001e-05	2.64e-06
0	318.15	3.956e-05	3.48e-06
0	323.15	5.171e-05	4.55e-06
0	328.15	6.704e-05	5.9e-06
0	333.15	8.625e-05	7.59e-06
0.1	298.15	2.288e-05	2.02e-06
0.1	303.15	3.135e-05	2.76e-06
0.1	308.15	3.901e-05	3.43e-06
0.1	313.15	5.067e-05	4.46e-06
0.1	318.15	6.408e-05	5.64e-06
0.1	323.15	8.147e-05	7.17e-06
0.1	328.15	0.0001044	9.2e-06
0.1	333.15	0.0001255	1.1e-05
0.2	298.15	3.387e-05	2.98e-06
0.2	303.15	4.399e-05	3.87e-06
0.2	308.15	5.653e-05	4.98e-06
0.2	313.15	7.323e-05	6.45e-06
0.2	318.15	9.137e-05	8.04e-06
0.2	323.15	0.0001137	1e-05
0.2	328.15	0.0001477	1.3e-05
0.2	333.15	0.0001838	1.62e-05
0.3	298.15	5.963e-05	5.25e-06
0.3	303.15	7.581e-05	6.68e-06
0.3	308.15	9.638e-05	8.49e-06
0.3	313.15	0.0001229	1.08e-05
0.3	318.15	0.0001566	1.38e-05
0.3	323.15	0.0001934	1.7e-05
0.3	328.15	0.0002306	2.03e-05
0.3	333.15	0.0002847	2.51e-05
0.4	298.15	0.0001072	9.4e-06
0.4	303.15	0.0001335	1.18e-05
0.4	308.15	0.0001715	1.51e-05
0.4	313.15	0.0002056	1.81e-05
0.4	318.15	0.0002545	2.24e-05
0.4	323.15	0.0003151	2.77e-05
0.4	328.15	0.0003757	3.31e-05
0.4	333.15	0.0004469	3.94e-05
0.5	298.15	0.0001747	1.54e-05
0.5	303.15	0.0002288	2.01e-05
0.5	308.15	0.0002772	2.44e-05
0.5	313.15	0.0003341	2.94e-05
0.5	318.15	0.0004158	3.66e-05
0.5	323.15	0.0004972	4.38e-05
0.5	328.15	0.0006122	5.39e-05
0.5	333.15	0.0007518	6.62e-05
0.6	298.15	0.0002916	2.57e-05
0.6	303.15	0.0003718	3.27e-05
0.6	308.15	0.0004553	4.01e-05
0.6	313.15	0.0005517	4.86e-05
0.6	318.15	0.000665	5.86e-05
0.6	323.15	0.0008232	7.25e-05
0.6	328.15	0.0009432	8.3e-05
0.6	333.15	0.001149	0.000101
0.7	298.15	0.0006057	5.33e-05
0.7	303.15	0.0007301	6.43e-05
0.7	308.15	0.000873	7.69e-05
0.7	313.15	0.001036	9.1e-05
0.7	318.15	0.001275	0.000112
0.7	323.15	0.001508	0.000133
0.7	328.15	0.001737	0.000153
0.7	333.15	0.002045	0.00018
0.8	298.15	0.00131	0.000115
0.8	303.15	0.001553	0.000137
0.8	308.15	0.001794	0.000158
0.8	313.15	0.002221	0.000196
0.8	318.15	0.002531	0.000223
0.8	323.15	0.00297	0.000261
0.8	328.15	0.003458	0.000304
0.8	333.15	0.003899	0.000344
0.9	298.15	0.003205	0.000282
0.9	303.15	0.003828	0.000337
0.9	308.15	0.004594	0.000404
0.9	313.15	0.005287	0.000465
0.9	318.15	0.006193	0.000545
0.9	323.15	0.007326	0.000645
0.9	328.15	0.008349	0.000735
0.9	333.15	0.009624	0.000849
1	298.15	0.01081	0.00095
1	303.15	0.01269	0.00112
1	308.15	0.01501	0.00132
1	313.15	0.01718	0.00151
1	318.15	0.02035	0.00179
1	323.15	0.024	0.00211
1	328.15	0.02842	0.0025
1	333.15	0.03313	0.00292

System: 2-amino-6-chloropurine + propan-2-ol + water; phases: Liquid, Crystal
Fixed: Pressure, kPa = 101.2
Property: Mole fraction of 2-amino-6-chloropurine (Liquid); method: Chromatography
Solvent: Mass fraction of propan-2-ol	Temperature, K	Mole fraction of 2-amino-6-chloropurine	uncertainty
0	278.15	3.283e-06	1.313e-06
0	283.15	4.657e-06	1.863e-06
0	288.15	6.526e-06	2.61e-06
0	293.15	9.04e-06	3.616e-06
0	298.15	1.239e-05	4.96e-06
0	303.15	1.68e-05	6.72e-06
0	308.15	2.256e-05	9.02e-06
0	313.15	3.001e-05	1.2e-05
0	318.15	3.956e-05	1.582e-05
0	323.15	5.171e-05	2.068e-05
0	328.15	6.704e-05	2.682e-05
0	333.15	8.625e-05	3.45e-05
0.1	278.15	1.071e-05	4.28e-06
0.1	283.15	1.472e-05	5.89e-06
0.1	288.15	2.003e-05	8.01e-06
0.1	293.15	2.697e-05	1.079e-05
0.1	298.15	3.596e-05	1.438e-05
0.1	303.15	4.748e-05	1.899e-05
0.1	308.15	6.215e-05	2.486e-05
0.1	313.15	8.065e-05	3.226e-05
0.1	318.15	0.0001038	4.15e-05
0.1	323.15	0.0001326	5.3e-05
0.1	328.15	0.0001681	6.72e-05
0.1	333.15	0.0002116	8.46e-05
0.2	278.15	2.392e-05	9.57e-06
0.2	283.15	3.212e-05	1.285e-05
0.2	288.15	4.273e-05	1.709e-05
0.2	293.15	5.629e-05	2.252e-05
0.2	298.15	7.348e-05	2.939e-05
0.2	303.15	9.509e-05	3.804e-05
0.2	308.15	0.000122	4.88e-05
0.2	313.15	0.0001554	6.22e-05
0.2	318.15	0.0001907	7.63e-05
0.2	323.15	0.0002347	9.39e-05
0.2	328.15	0.0002779	0.0001112
0.2	333.15	0.0003336	0.0001334
0.3	278.15	4.019e-05	1.608e-05
0.3	283.15	5.501e-05	2.2e-05
0.3	288.15	7.209e-05	2.884e-05
0.3	293.15	9.41e-05	3.764e-05
0.3	298.15	0.0001175	4.7e-05
0.3	303.15	0.0001516	6.06e-05
0.3	308.15	0.0001835	7.34e-05
0.3	313.15	0.0002284	9.14e-05
0.3	318.15	0.0002698	0.0001079
0.3	323.15	0.0003277	0.0001311
0.3	328.15	0.0003983	0.0001593
0.3	333.15	0.0004652	0.0001861
0.4	278.15	5.277e-05	2.111e-05
0.4	283.15	7.433e-05	2.973e-05
0.4	288.15	9.635e-05	3.854e-05
0.4	293.15	0.0001269	5.08e-05
0.4	298.15	0.0001619	6.48e-05
0.4	303.15	0.0002114	8.46e-05
0.4	308.15	0.0002514	0.0001006
0.4	313.15	0.0003012	0.0001205
0.4	318.15	0.0003668	0.0001467
0.4	323.15	0.0004392	0.0001757
0.4	328.15	0.0005322	0.0002129
0.4	333.15	0.0006261	0.0002504
0.5	278.15	7.164e-05	2.866e-05
0.5	283.15	9.635e-05	3.854e-05
0.5	288.15	0.0001206	4.82e-05
0.5	293.15	0.0001579	6.32e-05
0.5	298.15	0.0002082	8.33e-05
0.5	303.15	0.000268	0.0001072
0.5	308.15	0.0003206	0.0001282
0.5	313.15	0.0003745	0.0001498
0.5	318.15	0.0004576	0.000183
0.5	323.15	0.0005515	0.0002206
0.5	328.15	0.0006634	0.0002654
0.5	333.15	0.0007775	0.000311
0.6	278.15	0.0001008	4.03e-05
0.6	283.15	0.0001251	5e-05
0.6	288.15	0.0001561	6.24e-05
0.6	293.15	0.0002069	8.28e-05
0.6	298.15	0.0002599	0.000104
0.6	303.15	0.0003291	0.0001316
0.6	308.15	0.0003978	0.0001591
0.6	313.15	0.0004616	0.0001846
0.6	318.15	0.0005641	0.0002256
0.6	323.15	0.0006827	0.0002731
0.6	328.15	0.0007968	0.0003187
0.6	333.15	0.0009316	0.0003726
0.7	278.15	0.0001318	5.27e-05
0.7	283.15	0.0001611	6.44e-05
0.7	288.15	0.000197	7.88e-05
0.7	293.15	0.0002523	0.0001009
0.7	298.15	0.0003238	0.0001295
0.7	303.15	0.0003972	0.0001589
0.7	308.15	0.0004837	0.0001935
0.7	313.15	0.0005596	0.0002238
0.7	318.15	0.0006737	0.0002695
0.7	323.15	0.0008099	0.000324
0.7	328.15	0.0009464	0.0003786
0.7	333.15	0.00111	0.000444
0.8	278.15	0.0001738	6.95e-05
0.8	283.15	0.0002136	8.54e-05
0.8	288.15	0.000268	0.0001072
0.8	293.15	0.0003306	0.0001322
0.8	298.15	0.0004008	0.0001603
0.8	303.15	0.0004751	0.00019
0.8	308.15	0.0005727	0.0002291
0.8	313.15	0.0006808	0.0002723
0.8	318.15	0.0008142	0.0003257
0.8	323.15	0.0009632	0.0003853
0.8	328.15	0.00113	0.000452
0.8	333.15	0.0013	0.00052
0.9	278.15	0.0001173	4.69e-05
0.9	283.15	0.0001472	5.89e-05
0.9	288.15	0.0001803	7.21e-05
0.9	293.15	0.0002214	8.86e-05
0.9	298.15	0.0002692	0.0001077
0.9	303.15	0.0003258	0.0001303
0.9	308.15	0.0003865	0.0001546
0.9	313.15	0.0004622	0.0001849
0.9	318.15	0.0005528	0.0002211
0.9	323.15	0.0006533	0.0002613
0.9	328.15	0.0007646	0.0003058
0.9	333.15	0.0008983	0.0003593
1	278.15	5.988e-05	2.395e-05
1	283.15	7.43e-05	2.972e-05
1	288.15	9.383e-05	3.753e-05
1	293.15	0.0001137	4.55e-05
1	298.15	0.0001367	5.47e-05
1	303.15	0.000165	6.6e-05
1	308.15	0.000195	7.8e-05
1	313.15	0.0002304	9.22e-05
1	318.15	0.000266	0.0001064
1	323.15	0.0003141	0.0001256
1	328.15	0.0003629	0.0001452
1	333.15	0.0004313	0.0001725

System: 2-amino-6-chloropurine + 1,4-dioxane + water; phases: Liquid, Crystal
Fixed: Pressure, kPa = 101.2
Property: Mole fraction of 2-amino-6-chloropurine (Liquid); method: Chromatography
Solvent: Mass fraction of 1,4-dioxane	Temperature, K	Mole fraction of 2-amino-6-chloropurine	uncertainty
0	288.15	6.526e-06	2.611e-06
0	293.15	9.04e-06	3.616e-06
0	298.15	1.239e-05	4.96e-06
0	303.15	1.68e-05	6.72e-06
0	308.15	2.256e-05	9.02e-06
0	313.15	3.001e-05	1.2e-05
0	318.15	3.956e-05	1.582e-05
0	323.15	5.171e-05	2.068e-05
0	328.15	6.704e-05	2.682e-05
0	333.15	8.625e-05	3.45e-05
0.1	288.15	2.142e-05	8.57e-06
0.1	293.15	2.883e-05	1.153e-05
0.1	298.15	3.841e-05	1.536e-05
0.1	303.15	5.072e-05	2.029e-05
0.1	308.15	6.638e-05	2.655e-05
0.1	313.15	8.615e-05	3.446e-05
0.1	318.15	0.0001109	4.44e-05
0.1	323.15	0.0001418	5.67e-05
0.1	328.15	0.0001798	7.19e-05
0.1	333.15	0.0002266	9.06e-05
0.2	288.15	4.421e-05	1.768e-05
0.2	293.15	5.828e-05	2.331e-05
0.2	298.15	7.616e-05	3.046e-05
0.2	303.15	9.87e-05	3.95e-05
0.2	308.15	0.0001269	5.08e-05
0.2	313.15	0.0001619	6.48e-05
0.2	318.15	0.0002051	8.2e-05
0.2	323.15	0.0002581	0.0001032
0.2	328.15	0.0003226	0.000129
0.2	333.15	0.0004007	0.0001603
0.3	288.15	7.234e-05	2.894e-05
0.3	293.15	0.0001072	4.29e-05
0.3	298.15	0.0001375	5.5e-05
0.3	303.15	0.0001751	7e-05
0.3	308.15	0.0002109	8.44e-05
0.3	313.15	0.0002777	0.0001111
0.3	318.15	0.0003464	0.0001386
0.3	323.15	0.0004294	0.0001718
0.3	328.15	0.0005291	0.0002116
0.3	333.15	0.0006484	0.0002594
0.4	288.15	0.0001283	5.13e-05
0.4	293.15	0.0001767	7.07e-05
0.4	298.15	0.0002229	8.92e-05
0.4	303.15	0.0002793	0.0001117
0.4	308.15	0.0003478	0.0001391
0.4	313.15	0.0004186	0.0001674
0.4	318.15	0.0005297	0.0002119
0.4	323.15	0.0006482	0.0002593
0.4	328.15	0.0007891	0.0003156
0.4	333.15	0.0009248	0.0003699
0.5	288.15	0.0002004	8.02e-05
0.5	293.15	0.000251	0.0001004
0.5	298.15	0.0003124	0.000125
0.5	303.15	0.0003865	0.0001546
0.5	308.15	0.0004959	0.0001984
0.5	313.15	0.0005817	0.0002327
0.5	318.15	0.0007411	0.0002964
0.5	323.15	0.0008902	0.0003561
0.5	328.15	0.00107	0.000428
0.5	333.15	0.001241	0.000496
0.6	288.15	0.0003191	0.0001276
0.6	293.15	0.0003931	0.0001572
0.6	298.15	0.0004817	0.0001927
0.6	303.15	0.0005871	0.0002348
0.6	308.15	0.0007121	0.0002848
0.6	313.15	0.0008596	0.0003438
0.6	318.15	0.001031	0.000412
0.6	323.15	0.001253	0.000501
0.6	328.15	0.001432	0.000573
0.6	333.15	0.001671	0.000668
0.7	288.15	0.0004525	0.000181
0.7	293.15	0.0005496	0.0002198
0.7	298.15	0.0006642	0.0002657
0.7	303.15	0.0007992	0.0003197
0.7	308.15	0.0009574	0.000383
0.7	313.15	0.001143	0.000457
0.7	318.15	0.001362	0.000545
0.7	323.15	0.001601	0.00064
0.7	328.15	0.001861	0.000744
0.7	333.15	0.002151	0.00086
0.8	288.15	0.0006078	0.0002431
0.8	293.15	0.000725	0.00029
0.8	298.15	0.0008822	0.0003529
0.8	303.15	0.001024	0.00041
0.8	308.15	0.001242	0.000497
0.8	313.15	0.001432	0.000573
0.8	318.15	0.001714	0.000686
0.8	323.15	0.002012	0.000805
0.8	328.15	0.002341	0.000936
0.8	333.15	0.002642	0.001057
0.9	288.15	0.0002941	0.0001176
0.9	293.15	0.0003537	0.0001415
0.9	298.15	0.0004237	0.0001695
0.9	303.15	0.0005058	0.0002023
0.9	308.15	0.0006015	0.0002406
0.9	313.15	0.0007129	0.0002852
0.9	318.15	0.0008422	0.0003369
0.9	323.15	0.0009916	0.0003966
0.9	328.15	0.001164	0.000466
0.9	333.15	0.001361	0.000544
1	288.15	7.484e-05	2.994e-05
1	293.15	9.156e-05	3.662e-05
1	298.15	0.0001124	4.5e-05
1	303.15	0.0001349	5.4e-05
1	308.15	0.0001621	6.48e-05
1	313.15	0.0001949	7.8e-05
1	318.15	0.0002359	9.44e-05
1	323.15	0.0002768	0.0001107
1	328.15	0.0003253	0.0001301
1	333.15	0.000396	0.0001584
