Measured thermophysical data. Experimental study on the thermochemistry of 2-thiouracil,  5-methyl-2-thiouracil and 6-methyl-2-thiouracil
Source: J. Chem. Thermodyn., 2013, 10.1016/j.jct.2012.08.004
Compound 1: sulfuric acid, H2O4S, InChI=1S/H2O4S/c1-5(2,3)4/h(H2,1,2,3,4)
Compound 2: carbon dioxide, CO2, InChI=1S/CO2/c2-1-3
Compound 3: nitrogen, N2, InChI=1S/N2/c1-2
Compound 4: water, H2O, InChI=1S/H2O/h1H2
Compound 5: oxygen, O2, InChI=1S/O2/c1-2
Compound 6: 2-thiouracil, C4H4N2OS, InChI=1S/C4H4N2OS/c7-3-1-2-5-4(8)6-3/h1-2H,(H2,5,6,7,8), purity 99%
Compound 7: 5-methyl-2-thiouracil, C5H6N2OS, InChI=1S/C5H6N2OS/c1-3-2-6-5(9)7-4(3)8/h2H,1H3,(H2,6,7,8,9), purity 98%
Compound 8: 6-methyl-2-thiouracil, C5H6N2OS, InChI=1S/C5H6N2OS/c1-3-2-4(8)7-5(9)6-3/h2H,1H3,(H2,6,7,8,9), purity 98%

System: 2-thiouracil; phases: Crystal, Gas
Property: Vapor or sublimation pressure, kPa (Crystal); method: Calculated from knudsen effusion weight loss
Temperature, K	Vapor or sublimation pressure, kPa	uncertainty
421.148	0.0001325	1.41e-05
423.215	0.0001548	1.64e-05
425.222	0.0001835	1.95e-05
427.152	0.0002223	2.36e-05
429.199	0.0002569	2.73e-05
431.232	0.0003042	3.23e-05
433.159	0.0003803	4.03e-05
435.205	0.0004406	4.67e-05
437.241	0.0005328	5.65e-05
439.162	0.0006221	6.6e-05
441.224	0.000693	7.35e-05
443.261	0.000834	8.85e-05
421.148	0.000123	1.31e-05
423.215	0.0001553	1.65e-05
425.222	0.0001891	2.01e-05
427.152	0.0002128	2.26e-05
429.199	0.0002611	2.77e-05
431.232	0.0003061	3.25e-05
433.159	0.0003652	3.87e-05
435.205	0.0004422	4.69e-05
437.241	0.0005206	5.52e-05
439.162	0.0005912	6.27e-05
441.224	0.000706	7.49e-05
443.261	0.0008404	8.92e-05
421.148	0.0001236	1.31e-05
423.215	0.0001474	1.56e-05
425.222	0.000178	1.89e-05
427.152	0.0002092	2.22e-05
429.199	0.0002488	2.64e-05
431.232	0.0002978	3.16e-05
433.159	0.0003584	3.8e-05
435.205	0.0004176	4.43e-05
437.241	0.0005016	5.32e-05
439.162	0.0005684	6.03e-05
441.224	0.0006718	7.13e-05
443.261	0.0008041	8.53e-05

System: 5-methyl-2-thiouracil; phases: Crystal, Gas
Property: Vapor or sublimation pressure, kPa (Crystal); method: Calculated from knudsen effusion weight loss
Temperature, K	Vapor or sublimation pressure, kPa	uncertainty
413.15	0.0001771	1.88e-05
415.249	0.000217	2.3e-05
419.232	0.0003131	3.32e-05
421.236	0.0003744	3.97e-05
423.157	0.0004419	4.69e-05
425.199	0.0005103	5.41e-05
427.219	0.0006259	6.64e-05
429.152	0.0007522	7.98e-05
431.216	0.000852	9.04e-05
433.244	0.001053	0.0001295
413.15	0.0001698	1.8e-05
415.249	0.0002113	2.24e-05
417.146	0.0002538	2.69e-05
419.232	0.0003129	3.32e-05
423.157	0.0004363	4.63e-05
425.199	0.0005302	5.62e-05
427.219	0.0006121	6.49e-05
429.152	0.0007317	7.76e-05
431.216	0.0008692	9.22e-05
433.244	0.0010324	0.0001268
415.249	0.0002102	2.23e-05
417.24	0.0002506	2.66e-05
417.146	0.0002498	2.65e-05
419.232	0.0003018	3.2e-05
421.236	0.0003606	3.83e-05
423.157	0.0004213	4.47e-05
425.199	0.000505	5.36e-05
427.219	0.000601	6.38e-05
429.152	0.0007071	7.5e-05
431.216	0.0008414	8.93e-05
433.244	0.0010179	0.0001248

System: 6-methyl-2-thiouracil; phases: Crystal, Gas
Property: Vapor or sublimation pressure, kPa (Crystal); method: Calculated from knudsen effusion weight loss
Temperature, K	Vapor or sublimation pressure, kPa	uncertainty
421.16	0.000106	1.12e-05
423.152	0.0001238	1.31e-05
425.173	0.000136	1.44e-05
427.157	0.0001818	1.93e-05
429.17	0.0002154	2.29e-05
431.189	0.0002473	2.62e-05
431.158	0.0002471	2.62e-05
433.204	0.0002913	3.09e-05
435.223	0.0003423	3.63e-05
437.169	0.0004048	4.29e-05
439.219	0.0004689	4.97e-05
441.23	0.0005616	5.96e-05
437.171	0.0004182	4.44e-05
439.204	0.0005278	5.6e-05
443.164	0.0006925	7.35e-05
445.212	0.000813	8.62e-05
447.238	0.0009504	0.0001008
443.17	0.0006889	7.31e-05
447.238	0.0009521	0.000101
423.152	0.0001239	1.31e-05
425.173	0.000145	1.54e-05
427.157	0.0001623	1.72e-05
429.17	0.0002135	2.26e-05
431.189	0.0002525	2.7e-05
433.204	0.0002894	3.07e-05
435.223	0.0003418	3.63e-05
437.169	0.0003975	4.22e-05
439.219	0.000478	5.07e-05
441.23	0.0005644	5.99e-05
439.204	0.0004968	5.27e-05
441.23	0.0005886	6.24e-05
445.212	0.0008056	8.55e-05
447.238	0.0009409	9.98e-05
445.203	0.0007983	8.47e-05
447.238	0.0009485	0.0001006
421.16	9.78e-05	1.04e-05
423.152	0.0001199	1.27e-05
425.173	0.0001411	1.5e-05
427.157	0.0001711	1.82e-05
429.17	0.0002	2.12e-05
431.189	0.0002434	2.59e-05
431.158	0.0002301	2.68e-05
433.204	0.0002713	2.88e-05
435.223	0.0003333	3.54e-05
437.169	0.0003848	4.08e-05
439.219	0.0004523	4.8e-05
441.23	0.0005425	5.76e-05
437.171	0.0004046	4.29e-05
439.204	0.0004799	5.09e-05
441.23	0.0005727	6.08e-05
443.164	0.0006452	6.84e-05
445.212	0.0007574	8.03e-05
447.238	0.0009094	9.65e-05
443.17	0.0006567	6.97e-05
445.203	0.0007787	8.26e-05
447.238	0.0009228	9.79e-05

Reaction: -1 2-thiouracil + 1 sulfuric acid + 4 carbon dioxide + 1 nitrogen + 1 water + -6 oxygen
Property: Specific internal energy of reaction at constant volume, J/g
-19984.9

Reaction: -1 5-methyl-2-thiouracil + 1 sulfuric acid + 5 carbon dioxide + 1 nitrogen + 2 water + -7.5 oxygen
Property: Specific internal energy of reaction at constant volume, J/g
-22524.1

Reaction: -1 6-methyl-2-thiouracil + 1 sulfuric acid + 5 carbon dioxide + 1 nitrogen + 2 water + -7.5 oxygen
Property: Specific internal energy of reaction at constant volume, J/g
-22420.4
