Measured thermophysical data. Measurement and correlation of the solubility of rivaroxaban (form I) in binary mixtures of ethyl acetate with tetrahydrofuran, N,N-dimethylformamide, and N,N-dimethylacetamide from T = (278.15 to 318.15) K
Source: J. Chem. Thermodyn., 2016, 10.1016/j.jct.2015.10.016
Compound 1: Rivaroxaban, C19H18ClN3O5S, InChI=1S/C19H18ClN3O5S/c20-16-6-5-15(29-16)18(25)21-9-14-10-23(19(26)28-14)13-3-1-12(2-4-13)22-7-8-27-11-17(22)24/h1-6,14H,7-11H2,(H,21,25)/t14-/m0/s1, purity 99.5%
Compound 2: ethyl acetate, C4H8O2, InChI=1S/C4H8O2/c1-3-6-4(2)5/h3H2,1-2H3, purity 99.5%
Compound 3: tetrahydrofuran, C4H8O, InChI=1S/C4H8O/c1-2-4-5-3-1/h1-4H2, purity 99%
Compound 4: dimethylformamide, C3H7NO, InChI=1S/C3H7NO/c1-4(2)3-5/h3H,1-2H3, purity 99.5%
Compound 5: N,N-dimethylethanamide, C4H9NO, InChI=1S/C4H9NO/c1-4(6)5(2)3/h1-3H3, purity 99%

System: Rivaroxaban; phases: Crystal, Liquid, Air at 1 atmosphere
Property: Normal melting temperature, K (Crystal); method: DTA
Normal melting temperature, K	uncertainty
508.55	1.06

System: Rivaroxaban; phases: Crystal, Liquid, Air at 1 atmosphere
Property: Molar enthalpy of transition or fusion, kJ/mol (Crystal); method: DSC
Molar enthalpy of transition or fusion, kJ/mol	uncertainty
46.85	2.07

System: dimethylformamide + ethyl acetate + Rivaroxaban; phases: Liquid, Crystal
Fixed: Pressure, kPa = 101.3
Property: Mole fraction of Rivaroxaban (Liquid); method: Gravimetric method
Temperature, K	Solvent: Mole fraction of ethyl acetate	Mole fraction of Rivaroxaban	uncertainty
278.15	0	0.005862	0.000295
283.15	0	0.006624	0.000333
288.15	0	0.007469	0.000375
293.15	0	0.008402	0.000422
298.15	0	0.009432	0.000474
303.15	0	0.01057	0.00053
308.15	0	0.01181	0.00059
313.15	0	0.01318	0.00066
318.15	0	0.01469	0.00074
278.15	0.2	0.003136	0.000157
283.15	0.2	0.003612	0.000182
288.15	0.2	0.004151	0.000209
293.15	0.2	0.004757	0.00024
298.15	0.2	0.00544	0.000274
303.15	0.2	0.006206	0.000312
308.15	0.2	0.007063	0.000355
313.15	0.2	0.008022	0.000404
318.15	0.2	0.009092	0.000461
278.15	0.4	0.001699	8.5e-05
283.15	0.4	0.001994	0.000101
288.15	0.4	0.002335	0.000118
293.15	0.4	0.002726	0.000138
298.15	0.4	0.003174	0.00016
303.15	0.4	0.003687	0.000186
308.15	0.4	0.004271	0.000215
313.15	0.4	0.004936	0.000249
318.15	0.4	0.005692	0.000288
278.15	0.6	0.000832	4.19e-05
283.15	0.6	0.0009974	5.07e-05
288.15	0.6	0.001192	6.1e-05
293.15	0.6	0.00142	7.2e-05
298.15	0.6	0.001686	8.5e-05
303.15	0.6	0.001997	0.000101
308.15	0.6	0.002358	0.000119
313.15	0.6	0.002778	0.000141
318.15	0.6	0.003263	0.000166
278.15	0.8	0.0003122	1.59e-05
283.15	0.8	0.0003839	1.98e-05
288.15	0.8	0.0004703	2.43e-05
293.15	0.8	0.0005742	2.96e-05
298.15	0.8	0.0006986	3.6e-05
303.15	0.8	0.0008471	4.36e-05
308.15	0.8	0.001024	5.3e-05
313.15	0.8	0.001234	6.3e-05
318.15	0.8	0.001482	7.7e-05
278.15	1	5.165e-05	2.6e-06
283.15	1	5.93e-05	2.99e-06
288.15	1	6.788e-05	3.42e-06
293.15	1	7.745e-05	3.9e-06
298.15	1	8.811e-05	4.43e-06
303.15	1	9.996e-05	5.03e-06
308.15	1	0.0001131	5.7e-06
313.15	1	0.0001276	6.4e-06
318.15	1	0.0001437	7.2e-06

System: N,N-dimethylethanamide + ethyl acetate + Rivaroxaban; phases: Liquid, Crystal
Fixed: Pressure, kPa = 101.3
Property: Mole fraction of Rivaroxaban (Liquid); method: Gravimetric method
Temperature, K	Solvent: Mole fraction of ethyl acetate	Mole fraction of Rivaroxaban	uncertainty
278.15	0	0.009781	0.000491
283.15	0	0.0108	0.00054
288.15	0	0.0119	0.0006
293.15	0	0.01309	0.00066
298.15	0	0.01438	0.00072
303.15	0	0.01577	0.00079
308.15	0	0.01728	0.00087
313.15	0	0.0189	0.00095
318.15	0	0.02064	0.00104
278.15	0.2	0.006092	0.000305
283.15	0.2	0.006709	0.000337
288.15	0.2	0.007377	0.00037
293.15	0.2	0.008099	0.000407
298.15	0.2	0.008878	0.000446
303.15	0.2	0.009718	0.000488
308.15	0.2	0.01062	0.00053
313.15	0.2	0.0116	0.00058
318.15	0.2	0.01264	0.00064
278.15	0.4	0.003039	0.000152
283.15	0.4	0.003353	0.000169
288.15	0.4	0.003692	0.000186
293.15	0.4	0.004059	0.000204
298.15	0.4	0.004456	0.000224
303.15	0.4	0.004883	0.000246
308.15	0.4	0.005344	0.000269
313.15	0.4	0.005841	0.000294
318.15	0.4	0.006374	0.000324
278.15	0.6	0.001147	5.9e-05
283.15	0.6	0.001273	6.5e-05
288.15	0.6	0.001411	7.2e-05
293.15	0.6	0.001561	7.9e-05
298.15	0.6	0.001723	8.7e-05
303.15	0.6	0.001899	9.6e-05
308.15	0.6	0.00209	0.000106
313.15	0.6	0.002296	0.000116
318.15	0.6	0.002518	0.000132
278.15	0.8	0.0003039	1.71e-05
283.15	0.8	0.0003418	1.79e-05
288.15	0.8	0.0003834	2e-05
293.15	0.8	0.0004292	2.24e-05
298.15	0.8	0.0004793	2.5e-05
303.15	0.8	0.0005341	2.78e-05
308.15	0.8	0.000594	3.09e-05
313.15	0.8	0.0006593	3.42e-05
318.15	0.8	0.0007302	4.22e-05
278.15	1	5.165e-05	2.6e-06
283.15	1	5.93e-05	2.99e-06
288.15	1	6.788e-05	3.42e-06
293.15	1	7.745e-05	3.9e-06
298.15	1	8.811e-05	4.43e-06
303.15	1	9.996e-05	5.03e-06
308.15	1	0.0001131	5.7e-06
313.15	1	0.0001276	6.4e-06
318.15	1	0.0001437	7.2e-06

System: tetrahydrofuran + ethyl acetate + Rivaroxaban; phases: Liquid, Crystal
Fixed: Pressure, kPa = 101.3
Property: Mole fraction of Rivaroxaban (Liquid); method: Gravimetric method
Temperature, K	Solvent: Mole fraction of ethyl acetate	Mole fraction of Rivaroxaban	uncertainty
278.15	0	0.0002053	1.03e-05
283.15	0	0.0002304	1.16e-05
288.15	0	0.000263	1.32e-05
293.15	0	0.0002897	1.46e-05
298.15	0	0.0003284	1.65e-05
303.15	0	0.0003594	1.8e-05
308.15	0	0.0004011	2.02e-05
313.15	0	0.0004503	2.26e-05
318.15	0	0.0005113	2.57e-05
278.15	0.2	0.0001266	6.3e-06
283.15	0.2	0.0001403	7.1e-06
288.15	0.2	0.0001603	8.1e-06
293.15	0.2	0.0001799	9.1e-06
298.15	0.2	0.0002093	1.05e-05
303.15	0.2	0.000235	1.18e-05
308.15	0.2	0.0002681	1.35e-05
313.15	0.2	0.0002987	1.5e-05
318.15	0.2	0.0003465	1.75e-05
278.15	0.4	7.899e-05	3.96e-06
283.15	0.4	8.989e-05	4.53e-06
288.15	0.4	0.0001031	5.2e-06
293.15	0.4	0.000117	5.9e-06
298.15	0.4	0.0001382	7e-06
303.15	0.4	0.0001587	8e-06
308.15	0.4	0.0001801	9.1e-06
313.15	0.4	0.0002013	1.01e-05
318.15	0.4	0.0002324	1.18e-05
278.15	0.6	6.158e-05	3.09e-06
283.15	0.6	7e-05	3.53e-06
288.15	0.6	8.088e-05	4.07e-06
293.15	0.6	8.988e-05	4.52e-06
298.15	0.6	0.0001046	5.3e-06
303.15	0.6	0.0001187	6e-06
308.15	0.6	0.0001357	6.8e-06
313.15	0.6	0.00015	7.6e-06
318.15	0.6	0.0001747	8.9e-06
278.15	0.8	5.411e-05	2.72e-06
283.15	0.8	6.102e-05	3.07e-06
288.15	0.8	7.135e-05	3.59e-06
293.15	0.8	8.011e-05	4.03e-06
298.15	0.8	9.263e-05	4.65e-06
303.15	0.8	0.0001006	5.1e-06
308.15	0.8	0.0001147	5.8e-06
313.15	0.8	0.000129	6.5e-06
318.15	0.8	0.0001488	7.5e-06
278.15	1	5.165e-05	2.6e-06
283.15	1	5.93e-05	2.99e-06
288.15	1	6.788e-05	3.42e-06
293.15	1	7.745e-05	3.9e-06
298.15	1	8.811e-05	4.43e-06
303.15	1	9.996e-05	5.03e-06
308.15	1	0.0001131	5.7e-06
313.15	1	0.0001276	6.4e-06
318.15	1	0.0001437	7.2e-06

System: dimethylformamide + Rivaroxaban; phases: Liquid, Crystal
Fixed: Pressure, kPa = 101.3
Property: Mole fraction of Rivaroxaban (Liquid); method: Gravimetric method
Temperature, K	Mole fraction of Rivaroxaban	uncertainty
278.15	0.005862	0.000295
283.15	0.006624	0.000333
288.15	0.007469	0.000375
293.15	0.008402	0.000422
298.15	0.009432	0.000474
303.15	0.01057	0.00053
308.15	0.01181	0.00059
313.15	0.01318	0.00066
318.15	0.01469	0.00074

System: ethyl acetate + Rivaroxaban; phases: Liquid, Crystal
Fixed: Pressure, kPa = 101.3
Property: Mole fraction of Rivaroxaban (Liquid); method: Gravimetric method
Temperature, K	Mole fraction of Rivaroxaban	uncertainty
278.15	5.165e-05	2.6e-06
283.15	5.93e-05	2.99e-06
288.15	6.788e-05	3.42e-06
293.15	7.745e-05	3.9e-06
298.15	8.811e-05	4.43e-06
303.15	9.996e-05	5.03e-06
308.15	0.0001131	5.7e-06
313.15	0.0001276	6.4e-06
318.15	0.0001437	7.2e-06

System: N,N-dimethylethanamide + Rivaroxaban; phases: Liquid, Crystal
Fixed: Pressure, kPa = 101.3
Property: Mole fraction of Rivaroxaban (Liquid); method: Gravimetric method
Temperature, K	Mole fraction of Rivaroxaban	uncertainty
278.15	0.009781	0.000491
283.15	0.0108	0.00054
288.15	0.0119	0.0006
293.15	0.01309	0.00066
298.15	0.01438	0.00072
303.15	0.01577	0.00079
308.15	0.01728	0.00087
313.15	0.0189	0.00095
318.15	0.02064	0.00104

System: tetrahydrofuran + Rivaroxaban; phases: Liquid, Crystal
Fixed: Pressure, kPa = 101.3
Property: Mole fraction of Rivaroxaban (Liquid); method: Gravimetric method
Temperature, K	Mole fraction of Rivaroxaban	uncertainty
278.15	0.0002053	1.03e-05
283.15	0.0002304	1.16e-05
288.15	0.000263	1.32e-05
293.15	0.0002897	1.46e-05
298.15	0.0003284	1.65e-05
303.15	0.0003594	1.8e-05
308.15	0.0004011	2.02e-05
313.15	0.0004503	2.26e-05
318.15	0.0005113	2.57e-05
