Measured thermophysical data. Densities, speeds of sound, and refractive indices for binary mixtures of  1-butyl-3-methylimidazolium methyl sulphate ionic liquid with alcohols  at T = (298.15, 303.15, 308.15, and 313.15) K
Source: J. Chem. Thermodyn., 2013, 10.1016/j.jct.2012.08.030
Compound 1: methanol, CH4O, InChI=1S/CH4O/c1-2/h2H,1H3, purity 99.9%
Compound 2: propan-1-ol, C3H8O, InChI=1S/C3H8O/c1-2-3-4/h4H,2-3H2,1H3, purity 99.5%
Compound 3: propan-2-ol, C3H8O, InChI=1S/C3H8O/c1-3(2)4/h3-4H,1-2H3, purity 99.5%
Compound 4: butan-1-ol, C4H10O, InChI=1S/C4H10O/c1-2-3-4-5/h5H,2-4H2,1H3, purity 99%
Compound 5: 1-butyl-3-methylimidazolium methyl sulfate, C9H18N2O4S, InChI=1S/C8H15N2.CH4O4S/c1-3-4-5-10-7-6-9(2)8-10;1-5-6(2,3)4/h6-8H,3-5H2,1-2H3;1H3,(H,2,3,4)/q+1;/p-1, purity 97%

System: methanol; phases: Liquid
Fixed: Pressure, kPa = 101.325
Property: Refractive index (Na D-line) (Liquid); method: Standard Abbe refractometry
Temperature, K	Refractive index (Na D-line)	uncertainty
298.15	1.327198	0.000311
303.15	1.32552	0.000311
308.15	1.323624	0.000311
313.15	1.321707	0.000311

System: methanol; phases: Liquid
Fixed: Pressure, kPa = 101.3
Property: Mass density, kg/m3 (Liquid); method: Vibrating tube method
Temperature, K	Mass density, kg/m3	uncertainty
303.15	782.688	0.119
308.15	777.941	0.121
313.15	773.168	0.122
298.15	787.405	0.117

System: methanol; phases: Liquid
Fixed: Pressure, kPa = 101.3
Property: Speed of sound, m/s (Liquid); method: Sing-around technique in a fixed-path interferometer
Temperature, K	Speed of sound, m/s	uncertainty
303.15	1088.26	0.59
308.15	1072.04	0.58
313.15	1055.91	0.58
298.15	1104.3	0.59

System: propan-1-ol; phases: Liquid
Fixed: Pressure, kPa = 101.325
Property: Refractive index (Na D-line) (Liquid); method: Standard Abbe refractometry
Temperature, K	Refractive index (Na D-line)	uncertainty
298.15	1.383336	0.000326
303.15	1.381308	0.000326
308.15	1.379257	0.000326
313.15	1.377217	0.000326

System: propan-1-ol; phases: Liquid
Fixed: Pressure, kPa = 101.3
Property: Mass density, kg/m3 (Liquid); method: Vibrating tube method
Temperature, K	Mass density, kg/m3	uncertainty
303.15	795.97	0.143
308.15	791.892	0.144
313.15	787.772	0.145
298.15	800.008	0.141

System: propan-1-ol; phases: Liquid
Fixed: Pressure, kPa = 101.3
Property: Speed of sound, m/s (Liquid); method: Sing-around technique in a fixed-path interferometer
Temperature, K	Speed of sound, m/s	uncertainty
303.15	1189.26	0.8
308.15	1172.37	0.79
313.15	1155.53	0.79
298.15	1205.93	0.8

System: propan-2-ol; phases: Liquid
Fixed: Pressure, kPa = 101.325
Property: Refractive index (Na D-line) (Liquid); method: Standard Abbe refractometry
Temperature, K	Refractive index (Na D-line)	uncertainty
298.15	1.375271	0.000326
303.15	1.373142	0.000326
308.15	1.370929	0.000326
313.15	1.368704	0.000326

System: propan-2-ol; phases: Liquid
Fixed: Pressure, kPa = 101.3
Property: Mass density, kg/m3 (Liquid); method: Vibrating tube method
Temperature, K	Mass density, kg/m3	uncertainty
303.15	776.845	0.149
308.15	772.487	0.15
313.15	768.053	0.152
298.15	781.123	0.147

System: propan-2-ol; phases: Liquid
Fixed: Pressure, kPa = 101.3
Property: Speed of sound, m/s (Liquid); method: Sing-around technique in a fixed-path interferometer
Temperature, K	Speed of sound, m/s	uncertainty
303.15	1121.43	0.78
308.15	1103.94	0.77
313.15	1086.62	0.77
298.15	1138.71	0.78

System: butan-1-ol; phases: Liquid
Fixed: Pressure, kPa = 101.325
Property: Refractive index (Na D-line) (Liquid); method: Standard Abbe refractometry
Temperature, K	Refractive index (Na D-line)	uncertainty
298.15	1.397467	0.000369
303.15	1.395487	0.000369
308.15	1.393417	0.000369
313.15	1.391377	0.000369

System: butan-1-ol; phases: Liquid
Fixed: Pressure, kPa = 101.3
Property: Mass density, kg/m3 (Liquid); method: Vibrating tube method
Temperature, K	Mass density, kg/m3	uncertainty
303.15	802.088	0.236
308.15	798.214	0.236
313.15	794.301	0.237
298.15	805.93	0.236

System: butan-1-ol; phases: Liquid
Fixed: Pressure, kPa = 101.3
Property: Speed of sound, m/s (Liquid); method: Sing-around technique in a fixed-path interferometer
Temperature, K	Speed of sound, m/s	uncertainty
303.15	1222.88	1.18
308.15	1206.26	1.18
313.15	1189.68	1.18
298.15	1239.28	1.19

System: 1-butyl-3-methylimidazolium methyl sulfate; phases: Liquid
Fixed: Pressure, kPa = 101.325
Property: Refractive index (Na D-line) (Liquid); method: Standard Abbe refractometry
Temperature, K	Refractive index (Na D-line)	uncertainty
298.15	1.478238	0.000675
303.15	1.477044	0.000675
308.15	1.475766	0.000675
313.15	1.474429	0.000675

System: 1-butyl-3-methylimidazolium methyl sulfate; phases: Liquid
Fixed: Pressure, kPa = 101.3
Property: Mass density, kg/m3 (Liquid); method: Vibrating tube method
Temperature, K	Mass density, kg/m3	uncertainty
303.15	1208.702	2.819
308.15	1205.348	2.803
313.15	1202.01	2.786
298.15	1212.06	2.835

System: 1-butyl-3-methylimidazolium methyl sulfate; phases: Liquid
Fixed: Pressure, kPa = 101.3
Property: Speed of sound, m/s (Liquid); method: Sing-around technique in a fixed-path interferometer
Temperature, K	Speed of sound, m/s	uncertainty
303.15	1642.21	3.1
308.15	1629.95	3.1
313.15	1617.92	3.1
298.15	1654.61	3.1

System: methanol + 1-butyl-3-methylimidazolium methyl sulfate; phases: Liquid
Fixed: Pressure, kPa = 101.3
Property: Mass density, kg/m3 (Liquid); method: Vibrating tube method
Temperature, K	Mole fraction of 1-butyl-3-methylimidazolium methyl sulfate	Mass density, kg/m3	uncertainty
298.15	0	787.405	0.117
298.15	0.0422	871.193	0.34
298.15	0.094	942.4	0.229
298.15	0.1857	1027.844	0.197
298.15	0.2858	1084.793	0.282
298.15	0.3729	1118.298	0.428
298.15	0.4772	1146.383	0.667
298.15	0.5769	1166.116	0.955
298.15	0.6775	1181.289	1.303
298.15	0.7947	1194.937	1.786
298.15	0.8923	1204.145	2.253
298.15	0.9526	1208.978	2.571
298.15	1	1212.06	2.835
303.15	0	782.688	0.119
303.15	0.0422	866.765	0.34
303.15	0.094	938.21	0.227
303.15	0.1857	1023.914	0.194
303.15	0.2858	1081.037	0.28
303.15	0.3729	1114.645	0.425
303.15	0.4772	1142.818	0.662
303.15	0.5769	1162.612	0.948
303.15	0.6775	1177.826	1.295
303.15	0.7947	1191.497	1.775
303.15	0.8923	1200.73	2.239
303.15	0.9526	1205.597	2.556
303.15	1	1208.702	2.819
308.15	0	777.941	0.121
308.15	0.0422	862.332	0.341
308.15	0.094	934.013	0.228
308.15	0.1857	1019.987	0.193
308.15	0.2858	1077.285	0.277
308.15	0.3729	1111	0.421
308.15	0.4772	1139.262	0.658
308.15	0.5769	1159.118	0.942
308.15	0.6775	1174.376	1.287
308.15	0.7947	1188.069	1.764
308.15	0.8923	1197.325	2.226
308.15	0.9526	1202.226	2.541
308.15	1	1205.348	2.803
313.15	0	773.168	0.122
313.15	0.0422	857.888	0.349
313.15	0.094	929.815	0.238
313.15	0.1857	1016.064	0.201
313.15	0.2858	1073.541	0.277
313.15	0.3729	1107.365	0.418
313.15	0.4772	1135.718	0.653
313.15	0.5769	1155.636	0.935
313.15	0.6775	1170.939	1.278
313.15	0.7947	1184.65	1.753
313.15	0.8923	1193.931	2.213
313.15	0.9526	1198.869	2.526
313.15	1	1202.01	2.786

System: methanol + 1-butyl-3-methylimidazolium methyl sulfate; phases: Liquid
Fixed: Pressure, kPa = 101.3
Property: Speed of sound, m/s (Liquid); method: Sing-around technique in a fixed-path interferometer
Temperature, K	Mole fraction of 1-butyl-3-methylimidazolium methyl sulfate	Speed of sound, m/s	uncertainty
298.15	0	1104.3	0.59
298.15	0.0422	1191.81	0.66
298.15	0.094	1273.89	0.75
298.15	0.1857	1384.66	0.94
298.15	0.2858	1464	1.18
298.15	0.3729	1512.17	1.39
298.15	0.4772	1553.49	1.67
298.15	0.5769	1583.14	1.93
298.15	0.6775	1606.06	2.21
298.15	0.7947	1626.97	2.53
298.15	0.8923	1641.67	2.8
298.15	0.9526	1649.37	2.97
298.15	1	1654.61	3.1
303.15	0	1088.26	0.59
303.15	0.0422	1176.54	0.65
303.15	0.094	1259.58	0.75
303.15	0.1857	1371.13	0.94
303.15	0.2858	1450.93	1.17
303.15	0.3729	1499.35	1.39
303.15	0.4772	1540.92	1.66
303.15	0.5769	1570.73	1.93
303.15	0.6775	1593.78	2.2
303.15	0.7947	1614.73	2.53
303.15	0.8923	1629.45	2.8
303.15	0.9526	1637.17	2.97
303.15	1	1642.21	3.1
308.15	0	1072.04	0.58
308.15	0.0422	1161.33	0.65
308.15	0.094	1245.14	0.74
308.15	0.1857	1357.46	0.94
308.15	0.2858	1437.72	1.17
308.15	0.3729	1486.43	1.39
308.15	0.4772	1528.25	1.66
308.15	0.5769	1558.24	1.93
308.15	0.6775	1581.43	2.2
308.15	0.7947	1602.42	2.53
308.15	0.8923	1617.21	2.8
308.15	0.9526	1624.94	2.97
308.15	1	1629.95	3.1
313.15	0	1055.91	0.58
313.15	0.0422	1146.2	0.65
313.15	0.094	1230.79	0.74
313.15	0.1857	1343.88	0.94
313.15	0.2858	1424.63	1.17
313.15	0.3729	1473.6	1.39
313.15	0.4772	1515.68	1.66
313.15	0.5769	1545.87	1.93
313.15	0.6775	1569.17	2.2
313.15	0.7947	1590.28	2.53
313.15	0.8923	1605.1	2.8
313.15	0.9526	1612.88	2.97
313.15	1	1617.92	3.1

System: methanol + 1-butyl-3-methylimidazolium methyl sulfate; phases: Liquid
Fixed: Pressure, kPa = 101.3
Property: Refractive index (Na D-line) (Liquid); method: Standard Abbe refractometry
Temperature, K	Mole fraction of 1-butyl-3-methylimidazolium methyl sulfate	Refractive index (Na D-line)	uncertainty
298.15	0	1.327198	0.000311
298.15	0.0422	1.357079	0.000313
298.15	0.094	1.382715	0.000319
298.15	0.1857	1.413207	0.000335
298.15	0.2858	1.43348	0.000361
298.15	0.3729	1.445366	0.00039
298.15	0.4772	1.455309	0.000429
298.15	0.5769	1.462256	0.000471
298.15	0.6775	1.467612	0.000516
298.15	0.7947	1.472483	0.000572
298.15	0.8923	1.475758	0.00062
298.15	0.9526	1.477437	0.000651
298.15	1	1.478238	0.000675
303.15	0	1.32552	0.000311
303.15	0.0422	1.355227	0.000313
303.15	0.094	1.380936	0.000319
303.15	0.1857	1.411558	0.000335
303.15	0.2858	1.43193	0.000361
303.15	0.3729	1.443876	0.00039
303.15	0.4772	1.453874	0.000429
303.15	0.5769	1.460873	0.000471
303.15	0.6775	1.46624	0.000516
303.15	0.7947	1.471105	0.000572
303.15	0.8923	1.474405	0.00062
303.15	0.9526	1.476079	0.000651
303.15	1	1.477044	0.000675
308.15	0	1.323624	0.000311
308.15	0.0422	1.35331	0.000313
308.15	0.094	1.37913	0.000319
308.15	0.1857	1.409901	0.000335
308.15	0.2858	1.43036	0.000361
308.15	0.3729	1.442386	0.00039
308.15	0.4772	1.452421	0.000429
308.15	0.5769	1.459453	0.000471
308.15	0.6775	1.464848	0.000516
308.15	0.7947	1.469718	0.000572
308.15	0.8923	1.473027	0.00062
308.15	0.9526	1.474747	0.000651
308.15	1	1.475766	0.000675
313.15	0	1.321707	0.000311
313.15	0.0422	1.351412	0.000314
313.15	0.094	1.377352	0.000319
313.15	0.1857	1.408267	0.000336
313.15	0.2858	1.428804	0.000362
313.15	0.3729	1.440895	0.00039
313.15	0.4772	1.450973	0.000429
313.15	0.5769	1.45804	0.000471
313.15	0.6775	1.463479	0.000516
313.15	0.7947	1.468361	0.000572
313.15	0.8923	1.471684	0.00062
313.15	0.9526	1.473377	0.000651
313.15	1	1.474429	0.000675

System: propan-1-ol + 1-butyl-3-methylimidazolium methyl sulfate; phases: Liquid
Fixed: Pressure, kPa = 101.3
Property: Mass density, kg/m3 (Liquid); method: Vibrating tube method
Temperature, K	Mole fraction of 1-butyl-3-methylimidazolium methyl sulfate	Mass density, kg/m3	uncertainty
298.15	0	800.008	0.141
298.15	0.0482	852.432	0.246
298.15	0.0965	896.455	0.223
298.15	0.1937	967.583	0.258
298.15	0.2929	1023.105	0.37
298.15	0.3903	1066.531	0.557
298.15	0.4958	1104.303	0.815
298.15	0.59	1132.041	1.091
298.15	0.6907	1156.895	1.437
298.15	0.7981	1179.338	1.865
298.15	0.8932	1196.475	2.297
298.15	0.951	1205.244	2.581
298.15	1	1212.06	2.835
303.15	0	795.97	0.143
303.15	0.0482	848.503	0.248
303.15	0.0965	892.596	0.223
303.15	0.1937	963.817	0.258
303.15	0.2929	1019.429	0.366
303.15	0.3903	1062.932	0.552
303.15	0.4958	1100.773	0.809
303.15	0.59	1128.555	1.084
303.15	0.6907	1153.444	1.428
303.15	0.7981	1175.92	1.854
303.15	0.8932	1192.93	2.282
303.15	0.951	1201.867	2.566
303.15	1	1208.702	2.819
308.15	0	791.892	0.144
308.15	0.0482	844.545	0.248
308.15	0.0965	888.716	0.224
308.15	0.1937	960.044	0.258
308.15	0.2929	1015.753	0.363
308.15	0.3903	1059.34	0.548
308.15	0.4958	1097.251	0.803
308.15	0.59	1125.081	1.076
308.15	0.6907	1150.004	1.419
308.15	0.7981	1172.517	1.842
308.15	0.8932	1189.332	2.268
308.15	0.951	1198.503	2.551
308.15	1	1205.348	2.803
313.15	0	787.772	0.145
313.15	0.0482	840.564	0.25
313.15	0.0965	884.815	0.227
313.15	0.1937	956.26	0.261
313.15	0.2929	1012.078	0.36
313.15	0.3903	1055.752	0.544
313.15	0.4958	1093.743	0.797
313.15	0.59	1121.622	1.069
313.15	0.6907	1146.582	1.41
313.15	0.7981	1169.129	1.831
313.15	0.8932	1185.781	2.254
313.15	0.951	1195.152	2.536
313.15	1	1202.01	2.786

System: propan-1-ol + 1-butyl-3-methylimidazolium methyl sulfate; phases: Liquid
Fixed: Pressure, kPa = 101.3
Property: Speed of sound, m/s (Liquid); method: Sing-around technique in a fixed-path interferometer
Temperature, K	Mole fraction of 1-butyl-3-methylimidazolium methyl sulfate	Speed of sound, m/s	uncertainty
298.15	0	1205.93	0.8
298.15	0.0482	1242.81	0.89
298.15	0.0965	1275.95	0.99
298.15	0.1937	1338.07	1.19
298.15	0.2929	1394.22	1.42
298.15	0.3903	1443.88	1.64
298.15	0.4958	1491.65	1.89
298.15	0.59	1529.79	2.11
298.15	0.6907	1566.3	2.35
298.15	0.7981	1601.14	2.61
298.15	0.8932	1629.04	2.84
298.15	0.951	1643.09	2.98
298.15	1	1654.61	3.1
303.15	0	1189.26	0.8
303.15	0.0482	1227.05	0.89
303.15	0.1937	1323.77	1.19
303.15	0.2929	1380.5	1.41
303.15	0.3903	1430.64	1.64
303.15	0.4958	1478.81	1.89
303.15	0.59	1517.2	2.11
303.15	0.6907	1553.91	2.35
303.15	0.7981	1588.88	2.61
303.15	0.8932	1616.93	2.84
303.15	0.951	1630.88	2.98
303.15	1	1642.21	3.1
308.15	0	1172.37	0.79
308.15	0.0482	1211.06	0.88
308.15	0.0965	1245.51	0.98
308.15	0.1937	1309.32	1.19
308.15	0.2929	1366.64	1.41
308.15	0.3903	1417.27	1.64
308.15	0.4958	1465.84	1.88
308.15	0.59	1504.52	2.11
308.15	0.6907	1541.44	2.35
308.15	0.7981	1576.55	2.61
308.15	0.8932	1604.66	2.84
308.15	0.951	1618.67	2.98
308.15	1	1629.95	3.1
313.15	0	1155.53	0.79
313.15	0.0482	1195.15	0.88
313.15	0.0965	1230.23	0.98
313.15	0.1937	1294.9	1.19
313.15	0.2929	1352.8	1.41
313.15	0.3903	1403.96	1.63
313.15	0.4958	1453	1.88
313.15	0.59	1491.96	2.11
313.15	0.6907	1529.09	2.35
313.15	0.7981	1564.37	2.61
313.15	0.8932	1592.51	2.84
313.15	0.951	1606.61	2.98
313.15	1	1617.92	3.1

System: propan-1-ol + 1-butyl-3-methylimidazolium methyl sulfate; phases: Liquid
Fixed: Pressure, kPa = 101.3
Property: Refractive index (Na D-line) (Liquid); method: Standard Abbe refractometry
Temperature, K	Mole fraction of 1-butyl-3-methylimidazolium methyl sulfate	Refractive index (Na D-line)	uncertainty
298.15	0	1.383336	0.000326
298.15	0.0482	1.395914	0.000334
298.15	0.0965	1.406318	0.000344
298.15	0.1937	1.422978	0.000367
298.15	0.2929	1.435882	0.000396
298.15	0.3903	1.445834	0.000428
298.15	0.4958	1.454482	0.000466
298.15	0.59	1.460783	0.000502
298.15	0.6907	1.466356	0.000543
298.15	0.7981	1.471338	0.000587
298.15	0.8932	1.475146	0.000628
298.15	0.951	1.477599	0.000654
298.15	1	1.478238	0.000675
303.15	0	1.381308	0.000326
303.15	0.0482	1.394067	0.000334
303.15	0.0965	1.404592	0.000344
303.15	0.1937	1.421375	0.000367
303.15	0.2929	1.434332	0.000396
303.15	0.3903	1.444326	0.000428
303.15	0.4958	1.453016	0.000466
303.15	0.59	1.45937	0.000502
303.15	0.6907	1.464992	0.000543
303.15	0.7981	1.46997	0.000587
303.15	0.8932	1.473775	0.000628
303.15	0.951	1.476278	0.000654
303.15	1	1.477044	0.000675
308.15	0	1.379257	0.000326
308.15	0.0482	1.392118	0.000334
308.15	0.0965	1.402762	0.000344
308.15	0.1937	1.419663	0.000367
308.15	0.2929	1.432726	0.000396
308.15	0.3903	1.442802	0.000428
308.15	0.4958	1.451536	0.000466
308.15	0.59	1.457927	0.000502
308.15	0.6907	1.463578	0.000543
308.15	0.7981	1.468561	0.000587
308.15	0.8932	1.472379	0.000628
308.15	0.951	1.474914	0.000654
308.15	1	1.475766	0.000675
313.15	0	1.377217	0.000326
313.15	0.0482	1.39019	0.000334
313.15	0.0965	1.4009	0.000344
313.15	0.1937	1.417936	0.000367
313.15	0.2929	1.431106	0.000396
313.15	0.3903	1.441263	0.000428
313.15	0.4958	1.450081	0.000466
313.15	0.59	1.456486	0.000502
313.15	0.6907	1.462154	0.000543
313.15	0.7981	1.467155	0.000587
313.15	0.8932	1.470899	0.000628
313.15	0.951	1.473542	0.000654
313.15	1	1.474429	0.000675

System: propan-2-ol + 1-butyl-3-methylimidazolium methyl sulfate; phases: Liquid
Fixed: Pressure, kPa = 101.3
Property: Mass density, kg/m3 (Liquid); method: Vibrating tube method
Temperature, K	Mole fraction of 1-butyl-3-methylimidazolium methyl sulfate	Mass density, kg/m3	uncertainty
298.15	0	781.123	0.147
298.15	0.0482	835.17	0.254
298.15	0.0965	880.673	0.23
298.15	0.1938	955.343	0.261
298.15	0.2928	1013.505	0.362
298.15	0.3902	1059.047	0.548
298.15	0.496	1099.287	0.807
298.15	0.5903	1128.612	1.085
298.15	0.6902	1154.499	1.429
298.15	0.7978	1177.965	1.86
298.15	0.9531	1205.601	2.592
298.15	1	1212.06	2.835
303.15	0	776.845	0.149
303.15	0.0482	831.096	0.256
303.15	0.0965	876.702	0.23
303.15	0.1938	951.52	0.262
303.15	0.2928	1009.805	0.358
303.15	0.3902	1055.418	0.543
303.15	0.496	1095.738	0.801
303.15	0.5903	1125.132	1.077
303.15	0.6902	1151.046	1.42
303.15	0.7978	1174.518	1.848
303.15	0.9531	1202.217	2.576
303.15	1	1208.702	2.819
308.15	0	772.487	0.15
308.15	0.0482	826.964	0.257
308.15	0.0965	872.696	0.231
308.15	0.1938	947.68	0.262
308.15	0.2928	1006.092	0.355
308.15	0.3902	1051.777	0.539
308.15	0.496	1092.198	0.795
308.15	0.5903	1121.711	1.07
308.15	0.6902	1147.607	1.411
308.15	0.7978	1171.149	1.837
308.15	0.9531	1198.845	2.561
308.15	1	1205.348	2.803
313.15	0	768.053	0.152
313.15	0.0482	822.774	0.259
313.15	0.0965	868.646	0.234
313.15	0.1938	943.827	0.265
313.15	0.2928	1002.391	0.352
313.15	0.3902	1048.127	0.534
313.15	0.496	1088.679	0.789
313.15	0.5903	1118.313	1.063
313.15	0.6902	1144.227	1.402
313.15	0.7978	1167.773	1.826
313.15	0.9531	1195.489	2.546
313.15	1	1202.01	2.786

System: propan-2-ol + 1-butyl-3-methylimidazolium methyl sulfate; phases: Liquid
Fixed: Pressure, kPa = 101.3
Property: Speed of sound, m/s (Liquid); method: Sing-around technique in a fixed-path interferometer
Temperature, K	Mole fraction of 1-butyl-3-methylimidazolium methyl sulfate	Speed of sound, m/s	uncertainty
298.15	0	1138.71	0.78
298.15	0.0482	1181.25	0.87
298.15	0.0965	1219.69	0.97
298.15	0.1938	1292.46	1.18
298.15	0.2928	1358.22	1.41
298.15	0.3902	1415	1.64
298.15	0.496	1470.42	1.89
298.15	0.5903	1514.69	2.11
298.15	0.6902	1556.55	2.35
298.15	0.7978	1596.44	2.61
298.15	0.9531	1642.87	2.99
298.15	1	1654.61	3.1
303.15	0	1121.43	0.78
303.15	0.0482	1165.27	0.87
303.15	0.0965	1204.44	0.97
303.15	0.1938	1278.18	1.18
303.15	0.2928	1344.28	1.41
303.15	0.3902	1401.74	1.63
303.15	0.496	1457.59	1.88
303.15	0.5903	1502.12	2.11
303.15	0.6902	1544.18	2.35
303.15	0.7978	1584.19	2.61
303.15	0.9531	1630.69	2.99
303.15	1	1642.21	3.1
308.15	0	1103.94	0.77
308.15	0.0482	1148.92	0.87
308.15	0.0965	1188.89	0.97
308.15	0.1938	1263.66	1.18
308.15	0.2928	1330.36	1.4
308.15	0.3902	1388.34	1.63
308.15	0.496	1444.62	1.88
308.15	0.5903	1489.45	2.11
308.15	0.6902	1531.69	2.35
308.15	0.7978	1571.88	2.61
308.15	0.9531	1618.48	2.99
308.15	1	1629.95	3.1
313.15	0	1086.62	0.77
313.15	0.0482	1132.51	0.86
313.15	0.0965	1173.3	0.96
313.15	0.1938	1249.14	1.18
313.15	0.2928	1316.53	1.4
313.15	0.3902	1374.99	1.63
313.15	0.496	1431.75	1.88
313.15	0.5903	1476.89	2.11
313.15	0.6902	1519.38	2.35
313.15	0.7978	1559.73	2.61
313.15	0.9531	1606.41	2.99
313.15	1	1617.92	3.1

System: propan-2-ol + 1-butyl-3-methylimidazolium methyl sulfate; phases: Liquid
Fixed: Pressure, kPa = 101.3
Property: Refractive index (Na D-line) (Liquid); method: Standard Abbe refractometry
Temperature, K	Mole fraction of 1-butyl-3-methylimidazolium methyl sulfate	Refractive index (Na D-line)	uncertainty
298.15	0	1.375271	0.000326
298.15	0.0482	1.388863	0.000334
298.15	0.0965	1.400045	0.000344
298.15	0.1938	1.418194	0.000367
298.15	0.2928	1.432265	0.000396
298.15	0.3902	1.443044	0.000428
298.15	0.496	1.452517	0.000466
298.15	0.5903	1.459417	0.000502
298.15	0.6902	1.465465	0.000542
298.15	0.7978	1.470858	0.000587
298.15	0.9531	1.47709	0.000655
298.15	1	1.478238	0.000675
303.15	0	1.373142	0.000326
303.15	0.0482	1.386957	0.000334
303.15	0.0965	1.398309	0.000344
303.15	0.1938	1.416657	0.000367
303.15	0.2928	1.430665	0.000396
303.15	0.3902	1.441576	0.000428
303.15	0.496	1.451083	0.000466
303.15	0.5903	1.458005	0.000502
303.15	0.6902	1.464088	0.000542
303.15	0.7978	1.469483	0.000587
303.15	0.9531	1.475764	0.000655
303.15	1	1.477044	0.000675
308.15	0	1.370929	0.000326
308.15	0.0482	1.384946	0.000334
308.15	0.0965	1.396429	0.000344
308.15	0.1938	1.414918	0.000367
308.15	0.2928	1.429022	0.000396
308.15	0.3902	1.440013	0.000428
308.15	0.496	1.449576	0.000466
308.15	0.5903	1.456553	0.000502
308.15	0.6902	1.462677	0.000542
308.15	0.7978	1.468101	0.000587
308.15	0.9531	1.474419	0.000655
308.15	1	1.475766	0.000675
313.15	0	1.368704	0.000326
313.15	0.0482	1.382884	0.000334
313.15	0.0965	1.394498	0.000344
313.15	0.1938	1.41317	0.000367
313.15	0.2928	1.4274	0.000396
313.15	0.3902	1.438454	0.000428
313.15	0.496	1.448075	0.000466
313.15	0.5903	1.455099	0.000502
313.15	0.6902	1.46125	0.000542
313.15	0.7978	1.466745	0.000587
313.15	0.9531	1.473056	0.000655
313.15	1	1.474429	0.000675

System: butan-1-ol + 1-butyl-3-methylimidazolium methyl sulfate; phases: Liquid
Fixed: Pressure, kPa = 101.3
Property: Mass density, kg/m3 (Liquid); method: Vibrating tube method
Temperature, K	Mole fraction of 1-butyl-3-methylimidazolium methyl sulfate	Mass density, kg/m3	uncertainty
298.15	0	805.93	0.236
298.15	0.0425	843.506	0.307
298.15	0.0922	882.293	0.325
298.15	0.1929	948.953	0.413
298.15	0.2926	1002.757	0.546
298.15	0.3915	1047.198	0.754
298.15	0.4981	1087.51	1.018
298.15	0.5997	1120.122	1.308
298.15	0.7996	1172.029	1.993
298.15	1	1212.06	2.835
303.15	0	802.088	0.236
303.15	0.0425	839.735	0.307
303.15	0.0922	878.554	0.325
303.15	0.1929	945.272	0.412
303.15	0.2926	999.143	0.542
303.15	0.3915	1043.643	0.748
303.15	0.4981	1084.009	1.01
303.15	0.5997	1116.66	1.299
303.15	0.7996	1168.585	1.981
303.15	1	1208.702	2.819
308.15	0	798.214	0.236
308.15	0.0425	835.931	0.307
308.15	0.0922	874.794	0.324
308.15	0.1929	941.58	0.411
308.15	0.2926	995.525	0.54
308.15	0.3915	1040.085	0.742
308.15	0.4981	1080.519	1.003
308.15	0.5997	1113.212	1.29
308.15	0.7996	1165.143	1.968
308.15	1	1205.348	2.803
313.15	0	794.301	0.237
313.15	0.0425	832.1	0.308
313.15	0.0922	871.02	0.325
313.15	0.1929	937.88	0.411
313.15	0.2926	991.896	0.538
313.15	0.3915	1036.544	0.736
313.15	0.4981	1077.034	0.996
313.15	0.5997	1109.776	1.282
313.15	0.7996	1161.713	1.956
313.15	1	1202.01	2.786

System: butan-1-ol + 1-butyl-3-methylimidazolium methyl sulfate; phases: Liquid
Fixed: Pressure, kPa = 101.3
Property: Speed of sound, m/s (Liquid); method: Sing-around technique in a fixed-path interferometer
Temperature, K	Mole fraction of 1-butyl-3-methylimidazolium methyl sulfate	Speed of sound, m/s	uncertainty
298.15	0	1239.28	1.19
298.15	0.0425	1261.43	1.26
298.15	0.0922	1285.14	1.35
298.15	0.1929	1333.18	1.54
298.15	0.2926	1379.55	1.73
298.15	0.3915	1424.25	1.92
298.15	0.4981	1470.95	2.12
298.15	0.5997	1513.46	2.32
298.15	0.7996	1589.42	2.71
298.15	1	1654.61	3.1
303.15	0	1222.88	1.18
303.15	0.0425	1245.59	1.26
303.15	0.0922	1269.97	1.35
303.15	0.1929	1318.83	1.54
303.15	0.2926	1365.79	1.73
303.15	0.3915	1410.95	1.92
303.15	0.4981	1458.11	2.12
303.15	0.5997	1500.88	2.32
303.15	0.7996	1577.07	2.71
303.15	1	1642.21	3.1
308.15	0	1206.26	1.18
308.15	0.0425	1229.6	1.26
308.15	0.0922	1254.58	1.35
308.15	0.1929	1304.27	1.54
308.15	0.2926	1351.82	1.73
308.15	0.3915	1397.52	1.91
308.15	0.4981	1445.13	2.12
308.15	0.5997	1488.23	2.32
308.15	0.7996	1564.73	2.71
308.15	1	1629.95	3.1
313.15	0	1189.68	1.18
313.15	0.0425	1213.69	1.25
313.15	0.0922	1239.27	1.35
313.15	0.1929	1289.79	1.53
313.15	0.2926	1337.95	1.72
313.15	0.3915	1384.16	1.91
313.15	0.4981	1432.26	2.12
313.15	0.5997	1475.69	2.32
313.15	0.7996	1552.58	2.71
313.15	1	1617.92	3.1

System: butan-1-ol + 1-butyl-3-methylimidazolium methyl sulfate; phases: Liquid
Fixed: Pressure, kPa = 101.3
Property: Refractive index (Na D-line) (Liquid); method: Standard Abbe refractometry
Temperature, K	Mole fraction of 1-butyl-3-methylimidazolium methyl sulfate	Refractive index (Na D-line)	uncertainty
298.15	0	1.397467	0.000369
298.15	0.0425	1.405245	0.000378
298.15	0.0922	1.413066	0.00039
298.15	0.1929	1.426524	0.000416
298.15	0.2926	1.437358	0.000443
298.15	0.3915	1.44629	0.000472
298.15	0.4981	1.454331	0.000505
298.15	0.5997	1.460797	0.000538
298.15	0.7996	1.470952	0.000605
298.15	1	1.478238	0.000675
303.15	0	1.395487	0.000369
303.15	0.0425	1.403354	0.000378
303.15	0.0922	1.411326	0.00039
303.15	0.1929	1.424889	0.000416
303.15	0.2926	1.43578	0.000443
303.15	0.3915	1.444765	0.000472
303.15	0.4981	1.452859	0.000505
303.15	0.5997	1.459369	0.000538
303.15	0.7996	1.469588	0.000605
303.15	1	1.477044	0.000675
308.15	0	1.393417	0.000369
308.15	0.0425	1.401408	0.000378
308.15	0.0922	1.409464	0.00039
308.15	0.1929	1.423154	0.000416
308.15	0.2926	1.434154	0.000443
308.15	0.3915	1.443214	0.000472
308.15	0.4981	1.451361	0.000505
308.15	0.5997	1.457919	0.000538
308.15	0.7996	1.468206	0.000605
308.15	1	1.475766	0.000675
313.15	0	1.391377	0.000369
313.15	0.0425	1.399458	0.000378
313.15	0.0922	1.407619	0.00039
313.15	0.1929	1.421436	0.000416
313.15	0.2926	1.43253	0.000443
313.15	0.3915	1.441665	0.000472
313.15	0.4981	1.449871	0.000505
313.15	0.5997	1.456459	0.000538
313.15	0.7996	1.466822	0.000605
313.15	1	1.474429	0.000675
