Measured thermophysical data. Partial molar volumes of organic solutes in water. XVII: 3-Pentanone(aq) and 2,4-pentanedione(aq) at T = (298 to 573) K and at pressures up to 30 MPa
Source: J. Chem. Thermodyn., 2007, 10.1016/j.jct.2007.01.016
Compound 1: pentan-3-one, C5H10O, InChI=1S/C5H10O/c1-3-5(6)4-2/h3-4H2,1-2H3, purity 99.5%
Compound 2: 2,4-pentanedione, C5H8O2, InChI=1S/C5H8O2/c1-4(6)3-5(2)7/h3H2,1-2H3, purity 99.5%
Compound 3: water, H2O, InChI=1S/H2O/h1H2

System: pentan-3-one + water; phases: Liquid
Property: Mass density, kg/m3 (Liquid); method: VIBTUB:UFactor:0.5
Temperature, K	Pressure, kPa	Molality, mol/kg of pentan-3-one	Mass density, kg/m3	uncertainty
298.15	770	0.10037	-1.1293	0.0161
298.15	770	0.15204	-1.7324	0.0164
298.15	770	0.19363	-2.1731	0.0167
298.15	770	0.2426	-2.6949	0.0171
298.15	770	0.30076	-3.285	0.0176
298.15	770	0.3997	-4.2585	0.0184
298.15	15420	0.15204	-1.8028	0.0184
298.15	15420	0.19363	-2.2717	0.0192
298.15	15420	0.2426	-2.809	0.0202
298.15	15420	0.30076	-3.4344	0.0213
298.15	15420	0.3997	-4.4386	0.0231
298.15	30210	0.15204	-1.8608	0.0206
298.15	30210	0.19363	-2.3461	0.022
298.15	30210	0.2426	-2.9055	0.0236
298.15	30210	0.30076	-3.5517	0.0254
298.15	30210	0.3997	-4.5957	0.0284
298.15	770	0.10037	-1.1322	0.0161
298.15	770	0.15204	-1.735	0.0164
298.15	770	0.19363	-2.1731	0.0167
298.15	770	0.2426	-2.6991	0.0171
298.15	770	0.30076	-3.2888	0.0176
298.15	770	0.3997	-4.265	0.0184
298.15	15420	0.15204	-1.8075	0.0184
298.15	15420	0.19363	-2.2717	0.0192
298.15	15420	0.2426	-2.8122	0.0202
298.15	15420	0.30076	-3.4384	0.0213
298.15	15420	0.3997	-4.4402	0.0231
298.15	30210	0.15204	-1.8705	0.0207
298.15	30210	0.19363	-2.3438	0.022
298.15	30210	0.2426	-2.9105	0.0236
298.15	30210	0.30076	-3.5461	0.0254
298.15	30210	0.3997	-4.6028	0.0284
318.15	780	0.0946	-1.2202	0.05
318.15	780	0.15204	-1.9371	0.0165
318.15	780	0.19363	-2.4499	0.0168
318.15	780	0.2426	-3.0432	0.0172
318.15	780	0.30076	-3.7421	0.0178
318.15	780	0.3997	-4.8715	0.0187
318.15	15160	0.15204	-1.9804	0.0187
318.15	15160	0.19363	-2.4987	0.0195
318.15	15160	0.2426	-3.1096	0.0206
318.15	15160	0.30076	-3.8089	0.0218
318.15	15160	0.3997	-4.962	0.0238
318.15	30150	0.15204	-2.0156	0.021
318.15	30150	0.19363	-2.5458	0.0225
318.15	30150	0.2426	-3.1662	0.0242
318.15	30150	0.30076	-3.8741	0.0262
318.15	30150	0.3997	-5.0481	0.0296
318.15	780	0.0946	-1.2183	0.05
318.15	780	0.15204	-1.9409	0.0165
318.15	780	0.19363	-2.4517	0.0168
318.15	780	0.2426	-3.0477	0.0172
318.15	780	0.30076	-3.7439	0.0178
318.15	780	0.3997	-4.8764	0.0187
318.15	15160	0.15204	-1.9851	0.0187
318.15	15160	0.19363	-2.4995	0.0195
318.15	15160	0.2426	-3.1089	0.0206
318.15	15160	0.30076	-3.8097	0.0218
318.15	15160	0.3997	-4.9601	0.0238
318.15	30150	0.15204	-2.0213	0.0211
318.15	30150	0.19363	-2.5447	0.0225
318.15	30150	0.2426	-3.168	0.0243
318.15	30150	0.30076	-3.8737	0.0262
318.15	30150	0.3997	-5.0451	0.0296
338.17	770	0.0946	-1.3564	0.0162
338.17	770	0.0979	-1.3992	0.0162
338.17	770	0.15204	-2.1542	0.0166
338.17	770	0.19363	-2.7259	0.0169
338.17	770	0.2426	-3.3997	0.0174
338.17	770	0.30076	-4.1844	0.0179
338.17	770	0.3997	-5.4817	0.019
338.17	15110	0.0946	-1.3606	0.0177
338.17	15110	0.0979	-1.4021	0.0177
338.17	15110	0.15204	-2.1538	0.019
338.17	15110	0.19363	-2.7283	0.0199
338.17	15110	0.2426	-3.397	0.021
338.17	15110	0.30076	-4.1852	0.0224
338.17	15110	0.3997	-5.4767	0.0246
338.17	30130	0.0946	-1.3603	0.0193
338.17	30130	0.0979	-1.4042	0.0194
338.17	30130	0.15204	-2.1566	0.0214
338.17	30130	0.19363	-2.735	0.0231
338.17	30130	0.2426	-3.4096	0.0249
338.17	30130	0.30076	-4.1892	0.0271
338.17	30130	0.3997	-5.4781	0.0307
338.17	770	0.0946	-1.3583	0.0162
338.17	770	0.0979	-1.3979	0.0162
338.17	770	0.15204	-2.1566	0.0166
338.17	770	0.19363	-2.727	0.017
338.17	770	0.2426	-3.3998	0.0174
338.17	770	0.30076	-4.1848	0.0179
338.17	770	0.3997	-5.4838	0.019
338.17	15110	0.0946	-1.3577	0.0177
338.17	15110	0.0979	-1.401	0.0177
338.17	15110	0.15204	-2.1602	0.019
338.17	15110	0.19363	-2.7297	0.0199
338.17	15110	0.2426	-3.3994	0.021
338.17	15110	0.30076	-4.186	0.0224
338.17	15110	0.3997	-5.4672	0.0246
338.17	30130	0.0946	-1.362	0.0193
338.17	30130	0.0979	-1.405	0.0194
338.17	30130	0.15204	-2.1647	0.0215
338.17	30130	0.19363	-2.7364	0.0231
338.17	30130	0.2426	-3.4024	0.0249
338.17	30130	0.30076	-4.1902	0.0271
338.17	30130	0.3997	-5.4885	0.0308
373.14	1940	0.0979	-1.6271	0.0167
373.14	1940	0.10175	-1.6876	0.0168
373.14	1940	0.15204	-2.5092	0.0173
373.14	1940	0.19363	-3.1838	0.0177
373.14	1940	0.19573	-3.2123	0.0177
373.14	1940	0.2426	-3.9582	0.0182
373.14	1940	0.29578	-4.819	0.0188
373.14	1940	0.30076	-4.8904	0.0189
373.14	1940	0.37037	-5.991	0.0196
373.14	15210	0.10175	-1.658	0.0184
373.14	15210	0.15204	-2.4753	0.0198
373.14	15210	0.19363	-3.1428	0.0209
373.14	15210	0.19573	-3.1674	0.0209
373.14	15210	0.2426	-3.9107	0.0221
373.14	15210	0.29578	-4.7422	0.0235
373.14	15210	0.30076	-4.8381	0.0237
373.14	15210	0.37037	-5.8909	0.0254
373.14	15210	0.3997	-6.3404	0.0261
373.14	30100	0.10175	-1.6364	0.0203
373.14	30100	0.19573	-3.118	0.0244
373.14	30100	0.29578	-4.6707	0.0287
373.14	30100	0.37037	-5.803	0.0318
373.14	1940	0.0979	-1.6264	0.0167
373.14	1940	0.10175	-1.689	0.0168
373.14	1940	0.15204	-2.5167	0.0173
373.14	1940	0.19363	-3.1834	0.0177
373.14	1940	0.19573	-3.219	0.0177
373.14	1940	0.2426	-3.9634	0.0182
373.14	1940	0.29578	-4.8241	0.0188
373.14	1940	0.30076	-4.9074	0.0189
373.14	1940	0.37037	-5.994	0.0196
373.14	15210	0.10175	-1.6611	0.0184
373.14	15210	0.19363	-3.1441	0.0209
373.14	15210	0.19573	-3.1692	0.0209
373.14	15210	0.2426	-3.9203	0.0221
373.14	15210	0.29578	-4.7461	0.0235
373.14	15210	0.30076	-4.8397	0.0237
373.14	15210	0.37037	-5.8918	0.0254
373.14	15210	0.3997	-6.344	0.0261
373.14	30100	0.10175	-1.6398	0.0203
373.14	30100	0.19573	-3.1245	0.0244
373.14	30100	0.29578	-4.6766	0.0287
373.14	30100	0.37037	-5.7961	0.0318
373.14	30100	0.10175	-1.643	0.0203
373.14	30100	0.19573	-3.1231	0.0244
373.14	30100	0.29578	-4.6788	0.0287
373.14	30100	0.37037	-5.802	0.0318
408.15	2000	0.0979	-1.856	0.018
408.15	2000	0.10175	-1.9277	0.018
408.15	2000	0.19363	-3.6412	0.0191
408.15	2000	0.19573	-3.6787	0.0191
408.15	2000	0.29578	-5.5124	0.0203
408.15	2000	0.30076	-5.605	0.0204
408.15	2000	0.37037	-6.8412	0.0212
408.15	2000	0.0979	-1.8558	0.018
408.15	2000	0.10175	-1.9305	0.018
408.15	2000	0.19363	-3.6437	0.0191
408.15	2000	0.19573	-3.6831	0.0191
408.15	2000	0.29578	-5.5163	0.0203
408.15	2000	0.30076	-5.6141	0.0204
408.15	2000	0.37037	-6.8466	0.0212
408.15	2000	0.10175	-1.9333	0.018
408.15	2000	0.19363	-3.6369	0.0191
408.15	2000	0.19573	-3.6851	0.0191
408.15	2000	0.29578	-5.5212	0.0203
408.15	2000	0.30076	-5.6081	0.0204
408.15	2000	0.37037	-6.8514	0.0212
408.16	15100	0.10175	-1.8783	0.0199
408.16	15100	0.19573	-3.5809	0.0226
408.16	15100	0.29578	-5.3626	0.0255
408.16	15100	0.37037	-6.6646	0.0276
408.16	30050	0.10175	-1.8325	0.0219
408.16	30050	0.19573	-3.4854	0.0265
408.16	30050	0.29578	-5.2208	0.0312
408.16	30050	0.37037	-6.4781	0.0347
408.16	15100	0.10175	-1.8799	0.0199
408.16	15100	0.19573	-3.5804	0.0226
408.16	15100	0.29578	-5.3663	0.0255
408.16	15100	0.37037	-6.6603	0.0276
408.16	30050	0.10175	-1.8325	0.0219
408.16	30050	0.19573	-3.4863	0.0265
408.16	30050	0.29578	-5.223	0.0313
408.16	30050	0.37037	-6.48	0.0347
408.16	15100	0.10175	-1.8803	0.0199
408.16	15100	0.19573	-3.5815	0.0226
408.16	15100	0.29578	-5.3691	0.0255
408.16	15100	0.37037	-6.653	0.0276
408.16	30050	0.10175	-1.8323	0.0219
408.16	30050	0.19573	-3.4869	0.0265
408.16	30050	0.29578	-5.2234	0.0313
408.16	30050	0.37037	-6.476	0.0347
443.16	2050	0.10034	-2.1526	0.021
443.16	2050	0.20025	-4.2507	0.0222
443.16	2050	0.30052	-6.3164	0.0235
443.16	2050	0.40093	-8.2831	0.0249
443.16	16900	0.10034	-2.0654	0.0233
443.16	16900	0.20025	-4.0857	0.0268
443.16	16900	0.30052	-6.0626	0.0302
443.16	16900	0.40093	-7.9424	0.0335
443.16	30070	0.10034	-1.9971	0.0252
443.16	30070	0.20025	-3.9478	0.0305
443.16	30070	0.30052	-5.8537	0.0358
443.16	30070	0.40093	-7.6475	0.0407
443.16	2050	0.10034	-2.1496	0.021
443.16	2050	0.20025	-4.2486	0.0222
443.16	2050	0.30052	-6.3156	0.0235
443.16	2050	0.40093	-8.2797	0.0249
443.16	16900	0.10034	-2.0626	0.0233
443.16	16900	0.20025	-4.0817	0.0268
443.16	16900	0.30052	-6.0547	0.0302
443.16	16900	0.40093	-7.9496	0.0335
443.16	30070	0.10034	-1.996	0.0252
443.16	30070	0.20025	-3.9456	0.0305
443.16	30070	0.30052	-5.8533	0.0358
443.16	30070	0.40093	-7.6494	0.0408
443.16	2050	0.20025	-4.2455	0.0222
443.16	16900	0.10034	-2.0647	0.0233
443.16	16900	0.20025	-4.0833	0.0268
443.16	16900	0.30052	-6.0566	0.0302
443.16	16900	0.40093	-7.947	0.0335
443.16	30070	0.20025	-3.9404	0.0305
443.16	30070	0.40093	-7.6546	0.0408
443.16	2050	0.20025	-4.2404	0.0222
443.16	16900	0.10034	-2.0653	0.0233
443.16	16900	0.20025	-4.0816	0.0268
443.16	16900	0.30052	-6.0583	0.0302
443.16	16900	0.40093	-7.9518	0.0335
443.16	30070	0.20025	-3.9411	0.0305
443.16	30070	0.40093	-7.6524	0.0408
443.16	16900	0.10034	-2.0647	0.0233
443.16	16900	0.30052	-6.0531	0.0302
443.16	16900	0.40093	-7.9556	0.0335
443.16	30070	0.20025	-3.9382	0.0305
443.16	30070	0.40093	-7.6808	0.0408
443.16	30070	0.20025	-3.9384	0.0305
443.16	30070	0.40093	-7.6792	0.0408
473.13	2920	0.10034	-2.3612	0.026
473.13	2920	0.20025	-4.6525	0.0275
473.13	2920	0.30052	-6.928	0.0292
473.13	2920	0.40093	-9.0768	0.0306
473.13	2920	0.20025	-4.6507	0.0275
473.13	2920	0.30052	-6.9468	0.0292
473.13	2920	0.40093	-9.0902	0.0306
473.14	16940	0.10034	-2.236	0.0283
473.14	16940	0.20025	-4.4075	0.0321
473.14	16940	0.30052	-6.5485	0.0358
473.14	16940	0.40093	-8.579	0.0393
473.14	16940	0.20025	-4.3987	0.0321
473.14	16940	0.30052	-6.5672	0.0358
473.14	16940	0.40093	-8.5873	0.0394
473.16	30250	0.10034	-2.1394	0.0304
473.16	30250	0.20025	-4.2058	0.036
473.16	30250	0.30052	-6.2777	0.0417
473.16	30250	0.40093	-8.1912	0.047
473.16	30250	0.20025	-4.2157	0.0361
473.16	30250	0.30052	-6.2587	0.0417
473.16	30250	0.40093	-8.202	0.0471
498.17	3810	0.10034	-2.5545	0.0326
498.17	3810	0.19499	-4.9756	0.0344
498.17	3810	0.2772	-6.9571	0.036
498.17	3810	0.30052	-7.5032	0.0363
498.17	3810	0.3702	-9.1879	0.0375
498.17	17030	0.09009	-2.1611	0.0346
498.17	17030	0.19499	-4.6143	0.0388
498.17	17030	0.2772	-6.4998	0.0421
498.17	17030	0.3702	-8.5595	0.0457
498.17	30300	0.09009	-2.0454	0.0365
498.17	30300	0.19499	-4.3654	0.0429
498.17	30300	0.2772	-6.142	0.0478
498.17	30300	0.3702	-8.0872	0.0531
498.17	3810	0.10034	-2.57	0.0327
498.17	3810	0.19499	-4.9408	0.0344
498.17	3810	0.2772	-6.995	0.036
498.17	3810	0.30052	-7.5188	0.0363
498.17	3810	0.3702	-9.2002	0.0375
498.17	17030	0.09009	-2.1683	0.0346
498.17	17030	0.19499	-4.6179	0.0388
498.17	17030	0.2772	-6.5024	0.0421
498.17	17030	0.3702	-8.5671	0.0457
498.17	30300	0.19499	-4.3652	0.0429
498.17	30300	0.2772	-6.1408	0.0478
498.17	30300	0.3702	-8.0853	0.0531
523.17	5550	0.09009	-2.5148	0.0422
523.17	5550	0.19499	-5.3709	0.0446
523.17	5550	0.2772	-7.5637	0.0466
523.17	5550	0.3702	-9.9644	0.0488
523.17	18050	0.09009	-2.3072	0.0442
523.17	18050	0.19499	-4.9184	0.049
523.17	18050	0.2772	-6.9218	0.0527
523.17	18050	0.3702	-9.1093	0.0567
523.17	5550	0.09009	-2.5147	0.0422
523.17	5550	0.19499	-5.3676	0.0446
523.17	5550	0.2772	-7.5628	0.0466
523.17	5550	0.3702	-9.9613	0.0488
523.17	18050	0.09009	-2.3079	0.0442
523.17	18050	0.19499	-4.9187	0.049
523.17	18050	0.2772	-6.9241	0.0527
523.17	18050	0.3702	-9.1129	0.0567
523.18	30060	0.09009	-2.1637	0.046
523.18	30060	0.19499	-4.6005	0.0526
523.18	30060	0.2772	-6.4743	0.0578
523.18	30060	0.3702	-8.509	0.0634
523.18	30060	0.09009	-2.1616	0.046
523.18	30060	0.19499	-4.606	0.0527
523.18	30060	0.2772	-6.4711	0.0578
523.18	30060	0.3702	-8.5066	0.0634
548.17	19040	0.09009	-2.4809	0.0576
548.17	19040	0.19499	-5.2861	0.0629
548.17	19040	0.2772	-7.4358	0.067
548.17	19040	0.3702	-9.7838	0.0716
548.17	19040	0.09009	-2.4794	0.0576
548.17	19040	0.19499	-5.2798	0.0629
548.17	19040	0.2772	-7.4323	0.067
548.17	19040	0.3702	-9.7794	0.0716
548.18	30120	0.09009	-2.2868	0.0592
548.18	30120	0.19499	-4.8665	0.0663
548.18	30120	0.2772	-6.8478	0.0717
548.18	30120	0.3702	-9.0024	0.0777
548.18	30120	0.09009	-2.2829	0.0592
548.18	30120	0.19499	-4.8645	0.0663
548.18	30120	0.2772	-6.844	0.0717
548.18	30120	0.3702	-9.0002	0.0777
548.2	8070	0.09009	-2.7504	0.0559
548.2	8070	0.19499	-5.8705	0.0594
548.2	8070	0.2772	-8.2757	0.0623
548.2	8070	0.3702	-10.9012	0.0656
548.2	8070	0.09009	-2.7481	0.0559
548.2	8070	0.19499	-5.8727	0.0594
548.2	8070	0.2772	-8.2773	0.0623
548.2	8070	0.3702	-10.9058	0.0656
573.15	10060	0.09009	-3.1411	0.0741
573.15	10060	0.19499	-6.7046	0.0786
573.15	10060	0.2772	-9.4576	0.0822
573.15	10060	0.3702	-12.4622	0.0863
573.15	30020	0.09009	-2.4411	0.077
573.15	30020	0.19499	-5.1956	0.0845
573.15	30020	0.2772	-7.2949	0.0903
573.15	30020	0.3702	-9.5864	0.0966
573.15	10060	0.09009	-3.1411	0.0741
573.15	10060	0.19499	-6.6973	0.0786
573.15	10060	0.2772	-9.4511	0.0822
573.15	10060	0.3702	-12.4557	0.0863
573.15	30020	0.09009	-2.4417	0.077
573.15	30020	0.19499	-5.1831	0.0845
573.15	30020	0.2772	-7.2963	0.0903
573.15	30020	0.3702	-9.5849	0.0966
573.16	20050	0.09009	-2.7063	0.0756
573.16	20050	0.19499	-5.7617	0.0817
573.16	20050	0.2772	-8.1081	0.0864
573.16	20050	0.3702	-10.6516	0.0917
573.16	20050	0.09009	-2.7039	0.0756
573.16	20050	0.19499	-5.7544	0.0817
573.16	20050	0.2772	-8.1058	0.0864
573.16	20050	0.3702	-10.6532	0.0917

System: 2,4-pentanedione + water; phases: Liquid
Property: Mass density, kg/m3 (Liquid); method: VIBTUB:UFactor:0.5
Temperature, K	Pressure, kPa	Molality, mol/kg of 2,4-pentanedione	Mass density, kg/m3	uncertainty
298.15	780	0.09855	0.4334	0.0158
298.15	780	0.19752	0.8671	0.0163
298.15	780	0.29576	1.284	0.0169
298.15	780	0.40283	1.7392	0.0178
298.15	15430	0.09855	0.3921	0.0162
298.15	15430	0.19752	0.7986	0.017
298.15	15430	0.29576	1.1862	0.018
298.15	15430	0.40283	1.6087	0.0191
298.15	30190	0.09855	0.3601	0.0165
298.15	30190	0.19752	0.7295	0.0177
298.15	30190	0.29576	1.0862	0.0189
298.15	30190	0.40283	1.4727	0.0203
298.15	780	0.19752	0.8665	0.0163
298.15	780	0.29576	1.2838	0.0169
298.15	780	0.40283	1.7432	0.0178
298.15	15430	0.09855	0.3968	0.0162
298.15	15430	0.19752	0.7964	0.017
298.15	15430	0.29576	1.1845	0.018
298.15	15430	0.40283	1.6051	0.0191
298.15	30190	0.09855	0.3606	0.0165
298.15	30190	0.19752	0.7284	0.0177
298.15	30190	0.29576	1.0852	0.0189
298.15	30190	0.40283	1.4722	0.0203
298.15	780	0.29576	1.2863	0.0169
298.15	780	0.40283	1.7376	0.0178
318.15	780	0.09855	0.2595	0.0157
318.15	780	0.0995	0.2611	0.0157
318.15	780	0.19752	0.5149	0.016
318.15	780	0.29576	0.76	0.0165
318.15	780	0.40283	1.0223	0.0172
318.15	15140	0.09855	0.241	0.0159
318.15	15140	0.19752	0.4873	0.0165
318.15	15140	0.29576	0.7247	0.0172
318.15	15140	0.40283	0.9728	0.018
318.15	30170	0.09855	0.2277	0.0162
318.15	30170	0.19752	0.4569	0.0169
318.15	30170	0.29576	0.678	0.0177
318.15	30170	0.40283	0.9179	0.0187
318.15	780	0.0995	0.2602	0.0157
318.15	780	0.19752	0.5192	0.0161
318.15	780	0.29576	0.7653	0.0165
318.15	780	0.40283	1.0202	0.0172
318.15	15140	0.09855	0.2444	0.0159
318.15	15140	0.19752	0.4908	0.0165
318.15	15140	0.29576	0.7225	0.0172
318.15	15140	0.40283	0.9731	0.018
318.15	30170	0.19752	0.4596	0.0169
318.15	30170	0.29576	0.6818	0.0177
318.15	30170	0.40283	0.9168	0.0187
338.17	770	0.09855	0.1114	0.0156
338.17	770	0.19451	0.2234	0.0158
338.17	770	0.19752	0.2253	0.0158
338.17	770	0.29576	0.3276	0.016
338.17	770	0.40283	0.4312	0.0164
338.17	15090	0.09855	0.1168	0.0157
338.17	15090	0.19451	0.2233	0.016
338.17	15090	0.19752	0.2345	0.016
338.17	15090	0.29576	0.3365	0.0164
338.17	15090	0.40283	0.4511	0.0169
338.17	30140	0.09855	0.1131	0.0159
338.17	30140	0.19451	0.2259	0.0163
338.17	30140	0.19752	0.2294	0.0163
338.17	30140	0.29576	0.338	0.0167
338.17	30140	0.40283	0.4499	0.0173
338.17	770	0.09855	0.1139	0.0156
338.17	770	0.19451	0.2213	0.0158
338.17	770	0.19752	0.2278	0.0158
338.17	770	0.29576	0.3299	0.016
338.17	770	0.40283	0.4337	0.0164
338.17	15090	0.09855	0.1183	0.0157
338.17	15090	0.19451	0.2257	0.016
338.17	15090	0.19752	0.2335	0.016
338.17	15090	0.29576	0.3402	0.0164
338.17	15090	0.40283	0.4489	0.0169
338.17	30140	0.09855	0.1193	0.0159
338.17	30140	0.19451	0.2258	0.0163
338.17	30140	0.19752	0.2308	0.0163
338.17	30140	0.29576	0.3386	0.0167
338.17	30140	0.40283	0.4508	0.0173
373.14	1980	0.09855	-0.0954	0.0159
373.14	1980	0.19451	-0.1864	0.016
373.14	1980	0.19752	-0.1917	0.016
373.14	1980	0.29576	-0.2902	0.0162
373.14	1980	0.40283	-0.4056	0.0165
373.14	15230	0.09855	-0.076	0.0159
373.14	15230	0.19451	-0.1478	0.0161
373.14	15230	0.19752	-0.1532	0.0162
373.14	15230	0.29576	-0.2336	0.0164
373.14	15230	0.40283	-0.3257	0.0168
373.14	30110	0.09855	-0.0585	0.016
373.14	30110	0.19451	-0.1221	0.0162
373.14	30110	0.19752	-0.1187	0.0162
373.14	30110	0.29576	-0.1799	0.0165
373.14	30110	0.40283	-0.2514	0.0169
373.14	1980	0.09855	-0.0925	0.0159
373.14	1980	0.19451	-0.1861	0.016
373.14	1980	0.19752	-0.1885	0.016
373.14	1980	0.29576	-0.2879	0.0162
373.14	1980	0.40283	-0.4029	0.0165
373.14	15230	0.09855	-0.074	0.0159
373.14	15230	0.19451	-0.148	0.0162
373.14	15230	0.19752	-0.153	0.0162
373.14	15230	0.29576	-0.2337	0.0164
373.14	15230	0.40283	-0.3262	0.0168
373.14	30110	0.09855	-0.0577	0.016
373.14	30110	0.19451	-0.1161	0.0162
373.14	30110	0.19752	-0.1163	0.0162
373.14	30110	0.29576	-0.1792	0.0165
373.14	30110	0.40283	-0.2498	0.0169
408.13	29690	0.10214	-0.2098	0.0175
408.13	29690	0.19451	-0.3945	0.018
408.13	29690	0.20015	-0.4135	0.0181
408.13	29690	0.30009	-0.6223	0.0187
408.13	29690	0.39893	-0.8191	0.0193
408.13	29690	0.10214	-0.21	0.0175
408.13	29690	0.19451	-0.396	0.018
408.13	29690	0.20015	-0.4056	0.0181
408.13	29690	0.30009	-0.6227	0.0187
408.13	29690	0.39893	-0.8246	0.0194
408.13	29690	0.19451	-0.3986	0.018
408.13	29690	0.20015	-0.4139	0.0181
408.13	29690	0.30009	-0.6223	0.0187
408.13	29690	0.39893	-0.8225	0.0194
408.13	29690	0.19451	-0.4015	0.018
408.14	1790	0.10214	-0.2811	0.0171
408.14	1790	0.19451	-0.5392	0.0173
408.14	1790	0.20015	-0.5536	0.0173
408.14	1790	0.30009	-0.8293	0.0176
408.14	1790	0.39893	-1.1072	0.0179
408.14	15020	0.10214	-0.2439	0.0173
408.14	15020	0.19451	-0.465	0.0177
408.14	15020	0.20015	-0.4794	0.0177
408.14	15020	0.30009	-0.7242	0.0182
408.14	15020	0.39893	-0.9591	0.0187
408.14	1790	0.10214	-0.282	0.0171
408.14	1790	0.19451	-0.5396	0.0173
408.14	1790	0.20015	-0.5528	0.0173
408.14	1790	0.30009	-0.8265	0.0176
408.14	1790	0.39893	-1.1058	0.0179
408.14	15020	0.10214	-0.2441	0.0173
408.14	15020	0.19451	-0.4651	0.0177
408.14	15020	0.20015	-0.4793	0.0177
408.14	15020	0.30009	-0.7248	0.0182
408.14	15020	0.39893	-0.9594	0.0187
408.14	15020	0.10214	-0.2439	0.0173
408.14	15020	0.19451	-0.4638	0.0177
408.14	15020	0.20015	-0.4808	0.0177
408.14	15020	0.30009	-0.725	0.0182
408.14	15020	0.39893	-0.959	0.0187
408.14	15020	0.19451	-0.4627	0.0177
443.01	1940	0.10214	-0.4502	0.02
443.01	1940	0.20015	-0.8797	0.0203
443.01	1940	0.30009	-1.3169	0.0206
443.01	1940	0.39893	-1.7433	0.021
443.01	15240	0.10214	-0.3938	0.0204
443.01	15240	0.20015	-0.7734	0.021
443.01	15240	0.30009	-1.1478	0.0217
443.01	15240	0.39893	-1.5207	0.0223
443.01	29870	0.09812	-0.3345	0.0206
443.01	29870	0.10214	-0.3472	0.0207
443.01	29870	0.20015	-0.6545	0.0215
443.01	29870	0.20313	-0.6824	0.0216
443.01	29870	0.30009	-0.9834	0.0225
443.01	29870	0.39893	-1.3035	0.0234
443.01	1940	0.10214	-0.4515	0.02
443.01	1940	0.20015	-0.8798	0.0203
443.01	1940	0.30009	-1.3164	0.0206
443.01	1940	0.39893	-1.7431	0.021
443.01	15240	0.10214	-0.3947	0.0204
443.01	15240	0.20015	-0.7667	0.021
443.01	15240	0.30009	-1.1476	0.0217
443.01	15240	0.39893	-1.5196	0.0223
443.01	29870	0.09812	-0.3392	0.0207
443.01	29870	0.10214	-0.3448	0.0207
443.01	29870	0.20015	-0.6667	0.0216
443.01	29870	0.20313	-0.6792	0.0216
443.01	29870	0.30009	-0.9937	0.0225
443.01	29870	0.39893	-1.3144	0.0234
443.01	15240	0.10214	-0.3992	0.0204
443.01	15240	0.20015	-0.768	0.021
443.01	15240	0.30009	-1.1436	0.0217
443.01	15240	0.39893	-1.5186	0.0223
443.01	29870	0.20015	-0.6704	0.0216
443.01	29870	0.30009	-0.9986	0.0225
443.01	29870	0.39893	-1.3144	0.0234
473.22	3260	0.09812	-0.5747	0.0249
473.22	3260	0.10214	-0.5941	0.0249
473.22	3260	0.20015	-1.1573	0.0253
473.22	3260	0.20313	-1.1772	0.0254
473.22	3260	0.30009	-1.7175	0.0258
473.22	3260	0.39893	-2.2727	0.0263
473.22	15190	0.09812	-0.5029	0.0253
473.22	15190	0.10214	-0.5185	0.0253
473.22	15190	0.20015	-1.0133	0.0261
473.22	15190	0.20313	-1.0357	0.0262
473.22	15190	0.30009	-1.5083	0.027
473.22	15190	0.39893	-1.9934	0.0278
473.22	30320	0.09812	-0.4309	0.0257
473.22	30320	0.10214	-0.4364	0.0257
473.22	30320	0.20015	-0.8665	0.0269
473.22	30320	0.20313	-0.8858	0.027
473.22	30320	0.30009	-1.2905	0.0281
473.22	30320	0.39893	-1.7065	0.0293
473.22	3260	0.09812	-0.5735	0.0249
473.22	3260	0.10214	-0.5954	0.0249
473.22	3260	0.20015	-1.1574	0.0253
473.22	3260	0.20313	-1.1767	0.0254
473.22	3260	0.30009	-1.7164	0.0258
473.22	3260	0.39893	-2.2718	0.0263
473.22	15190	0.09812	-0.5041	0.0253
473.22	15190	0.10214	-0.5236	0.0253
473.22	15190	0.20015	-1.0164	0.0262
473.22	15190	0.20313	-1.0346	0.0262
473.22	15190	0.30009	-1.5063	0.027
473.22	15190	0.39893	-1.9909	0.0278
473.22	30320	0.09812	-0.4342	0.0257
473.22	30320	0.10214	-0.4487	0.0257
473.22	30320	0.20015	-0.8723	0.0269
473.22	30320	0.20313	-0.8879	0.027
473.22	30320	0.30009	-1.2927	0.0281
473.22	30320	0.39893	-1.7101	0.0293
473.22	3260	0.20313	-1.1765	0.0254
498.18	30260	0.10214	-0.5211	0.0323
498.18	30260	0.20015	-1.0343	0.0337
498.18	30260	0.20313	-1.0306	0.0337
498.18	30260	0.30009	-1.5333	0.0351
498.18	30260	0.30713	-1.5672	0.0352
498.18	30260	0.39893	-2.0321	0.0365
498.18	30260	0.40737	-2.068	0.0366
498.18	30260	0.10214	-0.5357	0.0323
498.18	30260	0.20015	-1.0487	0.0338
498.18	30260	0.20313	-1.0604	0.0338
498.18	30260	0.30009	-1.5487	0.0352
498.18	30260	0.30713	-1.5986	0.0353
498.18	30260	0.39893	-2.0433	0.0366
498.18	30260	0.40737	-2.0924	0.0367
498.19	3910	0.10214	-0.7228	0.0314
498.19	3910	0.20015	-1.4166	0.0319
498.19	3910	0.30009	-2.1	0.0325
498.19	3910	0.39893	-2.7831	0.0331
498.19	15140	0.10214	-0.6363	0.0319
498.19	15140	0.20015	-1.2404	0.0328
498.19	15140	0.30009	-1.8338	0.0338
498.19	15140	0.39893	-2.4257	0.0348
498.19	3910	0.10214	-0.7285	0.0314
498.19	3910	0.20015	-1.4188	0.0319
498.19	3910	0.30009	-2.1013	0.0325
498.19	3910	0.39893	-2.7845	0.0331
498.19	15140	0.10214	-0.6367	0.0319
498.19	15140	0.20015	-1.2402	0.0328
498.19	15140	0.30009	-1.8356	0.0338
498.19	15140	0.39893	-2.4268	0.0348
