Measured thermophysical data. Measurements of activity coefficients at infinite dilution of organic solutes and water in 1-propyl-1-methylpiperidinium bis{(trifluoromethyl)sulfonyl}imide ionic liquid using g.l.c.
Source: J. Chem. Thermodyn., 2010, 10.1016/j.jct.2010.05.017
Compound 1: 1-methyl-1-propylpiperidinium bis(trifluoromethylsulfonyl)imide, C11H20F6N2O4S2, InChI=1S/C9H20N.C2F6NO4S2/c1-3-7-10(2)8-5-4-6-9-10;3-1(4,5)14(10,11)9-15(12,13)2(6,7)8/h3-9H2,1-2H3;/q+1;-1, purity 99%
Compound 2: hexane, C6H14, InChI=1S/C6H14/c1-3-5-6-4-2/h3-6H2,1-2H3, purity 99%
Compound 3: heptane, C7H16, InChI=1S/C7H16/c1-3-5-7-6-4-2/h3-7H2,1-2H3, purity 99%
Compound 4: octane, C8H18, InChI=1S/C8H18/c1-3-5-7-8-6-4-2/h3-8H2,1-2H3, purity 99%
Compound 5: nonane, C9H20, InChI=1S/C9H20/c1-3-5-7-9-8-6-4-2/h3-9H2,1-2H3, purity 99%
Compound 6: decane, C10H22, InChI=1S/C10H22/c1-3-5-7-9-10-8-6-4-2/h3-10H2,1-2H3, purity 99%
Compound 7: cyclopentane, C5H10, InChI=1S/C5H10/c1-2-4-5-3-1/h1-5H2, purity 99%
Compound 8: cyclohexane, C6H12, InChI=1S/C6H12/c1-2-4-6-5-3-1/h1-6H2, purity 99%
Compound 9: cycloheptane, C7H14, InChI=1S/C7H14/c1-2-4-6-7-5-3-1/h1-7H2, purity 99%
Compound 10: cyclooctane, C8H16, InChI=1S/C8H16/c1-2-4-6-8-7-5-3-1/h1-8H2, purity 99%
Compound 11: hex-1-ene, C6H12, InChI=1S/C6H12/c1-3-5-6-4-2/h3H,1,4-6H2,2H3, purity 99%
Compound 12: 1-heptene, C7H14, InChI=1S/C7H14/c1-3-5-7-6-4-2/h3H,1,4-7H2,2H3, purity 99%
Compound 13: oct-1-ene, C8H16, InChI=1S/C8H16/c1-3-5-7-8-6-4-2/h3H,1,4-8H2,2H3, purity 99%
Compound 14: 1-hexyne, C6H10, InChI=1S/C6H10/c1-3-5-6-4-2/h1H,4-6H2,2H3, purity 99%
Compound 15: 1-heptyne, C7H12, InChI=1S/C7H12/c1-3-5-7-6-4-2/h1H,4-7H2,2H3, purity 99%
Compound 16: 1-octyne, C8H14, InChI=1S/C8H14/c1-3-5-7-8-6-4-2/h1H,4-8H2,2H3, purity 99%
Compound 17: benzene, C6H6, InChI=1S/C6H6/c1-2-4-6-5-3-1/h1-6H, purity 99%
Compound 18: toluene, C7H8, InChI=1S/C7H8/c1-7-5-3-2-4-6-7/h2-6H,1H3, purity 99%
Compound 19: ethylbenzene, C8H10, InChI=1S/C8H10/c1-2-8-6-4-3-5-7-8/h3-7H,2H2,1H3, purity 99%
Compound 20: 1,2-dimethylbenzene, C8H10, InChI=1S/C8H10/c1-7-5-3-4-6-8(7)2/h3-6H,1-2H3, purity 99%
Compound 21: 1,3-dimethylbenzene, C8H10, InChI=1S/C8H10/c1-7-4-3-5-8(2)6-7/h3-6H,1-2H3, purity 99%
Compound 22: 1,4-dimethylbenzene, C8H10, InChI=1S/C8H10/c1-7-3-5-8(2)6-4-7/h3-6H,1-2H3, purity 99%
Compound 23: methanol, CH4O, InChI=1S/CH4O/c1-2/h2H,1H3, purity 99%
Compound 24: ethanol, C2H6O, InChI=1S/C2H6O/c1-2-3/h3H,2H2,1H3, purity 99%
Compound 25: propan-1-ol, C3H8O, InChI=1S/C3H8O/c1-2-3-4/h4H,2-3H2,1H3, purity 99%
Compound 26: butan-1-ol, C4H10O, InChI=1S/C4H10O/c1-2-3-4-5/h5H,2-4H2,1H3, purity 99%
Compound 27: pentan-1-ol, C5H12O, InChI=1S/C5H12O/c1-2-3-4-5-6/h6H,2-5H2,1H3, purity 99%
Compound 28: water, H2O, InChI=1S/H2O/h1H2, purity 99.8%
Compound 29: thiophene, C4H4S, InChI=1S/C4H4S/c1-2-4-5-3-1/h1-4H, purity 99%
Compound 30: tetrahydrofuran, C4H8O, InChI=1S/C4H8O/c1-2-4-5-3-1/h1-4H2, purity 99%
Compound 31: 2-methoxy-2-methylpropane, C5H12O, InChI=1S/C5H12O/c1-5(2,3)6-4/h1-4H3, purity 99%
Compound 32: diethyl ether, C4H10O, InChI=1S/C4H10O/c1-3-5-4-2/h3-4H2,1-2H3, purity 99%
Compound 33: dipropyl ether, C6H14O, InChI=1S/C6H14O/c1-3-5-7-6-4-2/h3-6H2,1-2H3, purity 99%
Compound 34: dibutyl ether, C8H18O, InChI=1S/C8H18O/c1-3-5-7-9-8-6-4-2/h3-8H2,1-2H3, purity 99%
Compound 35: acetone, C3H6O, InChI=1S/C3H6O/c1-3(2)4/h1-2H3, purity 99%
Compound 36: pentan-2-one, C5H10O, InChI=1S/C5H10O/c1-3-4-5(2)6/h3-4H2,1-2H3, purity 99%
Compound 37: pentan-3-one, C5H10O, InChI=1S/C5H10O/c1-3-5(6)4-2/h3-4H2,1-2H3, purity 99%
Compound 38: 2-hexanone, C6H12O, InChI=1S/C6H12O/c1-3-4-5-6(2)7/h3-5H2,1-2H3, purity 99%
Compound 39: 3-hexanone, C6H12O, InChI=1S/C6H12O/c1-3-5-6(7)4-2/h3-5H2,1-2H3, purity 99%

System: hexane + 1-methyl-1-propylpiperidinium bis(trifluoromethylsulfonyl)imide; phases: Liquid
Fixed: Pressure, kPa = 101
Fixed: Mole fraction of hexane = 0
Property: (Relative) activity of hexane (Liquid); method: Chromatography
Temperature, K	(Relative) activity of hexane	uncertainty
308.15	23.2	1.6
318.15	19.1	1.3
328.15	18	1.2
338.15	16.7	1.1
348.15	15.1	1
358.15	14.8	1

System: heptane + 1-methyl-1-propylpiperidinium bis(trifluoromethylsulfonyl)imide; phases: Liquid
Fixed: Pressure, kPa = 101
Fixed: Mole fraction of heptane = 0
Property: (Relative) activity of heptane (Liquid); method: Chromatography
Temperature, K	(Relative) activity of heptane	uncertainty
308.15	29.5	2
318.15	25.6	1.8
328.15	23.5	1.6
338.15	22.1	1.5
348.15	20.1	1.4
358.15	19.2	1.3

System: octane + 1-methyl-1-propylpiperidinium bis(trifluoromethylsulfonyl)imide; phases: Liquid
Fixed: Pressure, kPa = 101
Fixed: Mole fraction of octane = 0
Property: (Relative) activity of octane (Liquid); method: Chromatography
Temperature, K	(Relative) activity of octane	uncertainty
308.15	38.7	2.6
318.15	34.9	2.4
328.15	31.6	2.2
338.15	29.7	2
348.15	26.9	1.8
358.15	25.4	1.7

System: nonane + 1-methyl-1-propylpiperidinium bis(trifluoromethylsulfonyl)imide; phases: Liquid
Fixed: Pressure, kPa = 101
Fixed: Mole fraction of nonane = 0
Property: (Relative) activity of nonane (Liquid); method: Chromatography
Temperature, K	(Relative) activity of nonane	uncertainty
308.15	53	3.6
318.15	48.1	3.3
328.15	43.4	3
338.15	40.2	2.8
348.15	36.5	2.5
358.15	33.9	2.3

System: decane + 1-methyl-1-propylpiperidinium bis(trifluoromethylsulfonyl)imide; phases: Liquid
Fixed: Pressure, kPa = 101
Fixed: Mole fraction of decane = 0
Property: (Relative) activity of decane (Liquid); method: Chromatography
Temperature, K	(Relative) activity of decane	uncertainty
308.15	73.7	5.1
318.15	67.9	4.7
328.15	60.5	4.1
338.15	55.2	3.8
348.15	50.2	3.4
358.15	46.2	3.2

System: cyclopentane + 1-methyl-1-propylpiperidinium bis(trifluoromethylsulfonyl)imide; phases: Liquid
Fixed: Pressure, kPa = 101
Fixed: Mole fraction of cyclopentane = 0
Property: (Relative) activity of cyclopentane (Liquid); method: Chromatography
Temperature, K	(Relative) activity of cyclopentane	uncertainty
308.15	9.55	0.65
318.15	7.89	0.54
328.15	7.54	0.51
338.15	6.96	0.47
348.15	6.39	0.44
358.15	6.24	0.43

System: cyclohexane + 1-methyl-1-propylpiperidinium bis(trifluoromethylsulfonyl)imide; phases: Liquid
Fixed: Pressure, kPa = 101
Fixed: Mole fraction of cyclohexane = 0
Property: (Relative) activity of cyclohexane (Liquid); method: Chromatography
Temperature, K	(Relative) activity of cyclohexane	uncertainty
308.15	12.9	0.9
318.15	11.1	0.8
328.15	10.4	0.7
338.15	9.57	0.65
348.15	8.66	0.59
358.15	8.42	0.57

System: cycloheptane + 1-methyl-1-propylpiperidinium bis(trifluoromethylsulfonyl)imide; phases: Liquid
Fixed: Pressure, kPa = 101
Fixed: Mole fraction of cycloheptane = 0
Property: (Relative) activity of cycloheptane (Liquid); method: Chromatography
Temperature, K	(Relative) activity of cycloheptane	uncertainty
308.15	15.5	1.1
318.15	13.9	1
328.15	12.9	0.9
338.15	12	0.8
348.15	11.1	0.8
358.15	10.5	0.7

System: cyclooctane + 1-methyl-1-propylpiperidinium bis(trifluoromethylsulfonyl)imide; phases: Liquid
Fixed: Pressure, kPa = 101
Fixed: Mole fraction of cyclooctane = 0
Property: (Relative) activity of cyclooctane (Liquid); method: Chromatography
Temperature, K	(Relative) activity of cyclooctane	uncertainty
308.15	19.8	1.4
318.15	18.2	1.2
328.15	16.5	1.1
338.15	15.4	1.1
348.15	14.2	1
358.15	13.3	0.9

System: hex-1-ene + 1-methyl-1-propylpiperidinium bis(trifluoromethylsulfonyl)imide; phases: Liquid
Fixed: Pressure, kPa = 101
Fixed: Mole fraction of hex-1-ene = 0
Property: (Relative) activity of hex-1-ene (Liquid); method: Chromatography
Temperature, K	(Relative) activity of hex-1-ene	uncertainty
308.15	10.3	0.7
318.15	9.28	0.63
328.15	9.03	0.62
338.15	8.51	0.58
348.15	7.99	0.54
358.15	7.86	0.54

System: 1-heptene + 1-methyl-1-propylpiperidinium bis(trifluoromethylsulfonyl)imide; phases: Liquid
Fixed: Pressure, kPa = 101
Fixed: Mole fraction of 1-heptene = 0
Property: (Relative) activity of 1-heptene (Liquid); method: Chromatography
Temperature, K	(Relative) activity of 1-heptene	uncertainty
308.15	13.7	0.9
318.15	12.7	0.9
328.15	12.2	0.8
338.15	11.6	0.8
348.15	10.9	0.7
358.15	10.6	0.7

System: oct-1-ene + 1-methyl-1-propylpiperidinium bis(trifluoromethylsulfonyl)imide; phases: Liquid
Fixed: Pressure, kPa = 101
Fixed: Mole fraction of oct-1-ene = 0
Property: (Relative) activity of oct-1-ene (Liquid); method: Chromatography
Temperature, K	(Relative) activity of oct-1-ene	uncertainty
308.15	18.7	1.3
318.15	17.5	1.2
328.15	16.3	1.1
338.15	15.7	1.1
348.15	14.8	1
358.15	14.2	1

System: 1-hexyne + 1-methyl-1-propylpiperidinium bis(trifluoromethylsulfonyl)imide; phases: Liquid
Fixed: Pressure, kPa = 101
Fixed: Mole fraction of 1-hexyne = 0
Property: (Relative) activity of 1-hexyne (Liquid); method: Chromatography
Temperature, K	(Relative) activity of 1-hexyne	uncertainty
308.15	3.11	0.21
318.15	3.08	0.21
328.15	3.08	0.21
338.15	3.11	0.21
348.15	3.08	0.21
358.15	3.09	0.21

System: 1-heptyne + 1-methyl-1-propylpiperidinium bis(trifluoromethylsulfonyl)imide; phases: Liquid
Fixed: Pressure, kPa = 101
Fixed: Mole fraction of 1-heptyne = 0
Property: (Relative) activity of 1-heptyne (Liquid); method: Chromatography
Temperature, K	(Relative) activity of 1-heptyne	uncertainty
308.15	4.29	0.29
318.15	4.26	0.29
328.15	4.2	0.29
338.15	4.25	0.29
348.15	4.19	0.29
358.15	4.2	0.29

System: 1-octyne + 1-methyl-1-propylpiperidinium bis(trifluoromethylsulfonyl)imide; phases: Liquid
Fixed: Pressure, kPa = 101
Fixed: Mole fraction of 1-octyne = 0
Property: (Relative) activity of 1-octyne (Liquid); method: Chromatography
Temperature, K	(Relative) activity of 1-octyne	uncertainty
308.15	5.94	0.4
318.15	5.95	0.41
328.15	5.79	0.39
338.15	5.79	0.39
348.15	5.86	0.4
358.15	5.64	0.38

System: benzene + 1-methyl-1-propylpiperidinium bis(trifluoromethylsulfonyl)imide; phases: Liquid
Fixed: Pressure, kPa = 101
Fixed: Mole fraction of benzene = 0
Property: (Relative) activity of benzene (Liquid); method: Chromatography
Temperature, K	(Relative) activity of benzene	uncertainty
308.15	0.92	0.058
318.15	0.932	0.059
328.15	0.94	0.059
338.15	0.948	0.06
348.15	0.964	0.061
358.15	0.981	0.062

System: toluene + 1-methyl-1-propylpiperidinium bis(trifluoromethylsulfonyl)imide; phases: Liquid
Fixed: Pressure, kPa = 101
Fixed: Mole fraction of toluene = 0
Property: (Relative) activity of toluene (Liquid); method: Chromatography
Temperature, K	(Relative) activity of toluene	uncertainty
308.15	1.26	0.08
318.15	1.27	0.08
328.15	1.29	0.08
338.15	1.3	0.08
348.15	1.33	0.09
358.15	1.35	0.09

System: ethylbenzene + 1-methyl-1-propylpiperidinium bis(trifluoromethylsulfonyl)imide; phases: Liquid
Fixed: Pressure, kPa = 101
Fixed: Mole fraction of ethylbenzene = 0
Property: (Relative) activity of ethylbenzene (Liquid); method: Chromatography
Temperature, K	(Relative) activity of ethylbenzene	uncertainty
308.15	1.85	0.12
318.15	1.86	0.13
328.15	1.89	0.13
338.15	1.89	0.13
348.15	1.91	0.13
358.15	1.93	0.13

System: 1,2-dimethylbenzene + 1-methyl-1-propylpiperidinium bis(trifluoromethylsulfonyl)imide; phases: Liquid
Fixed: Pressure, kPa = 101
Fixed: Mole fraction of 1,2-dimethylbenzene = 0
Property: (Relative) activity of 1,2-dimethylbenzene (Liquid); method: Chromatography
Temperature, K	(Relative) activity of 1,2-dimethylbenzene	uncertainty
308.15	1.56	0.1
318.15	1.59	0.11
328.15	1.6	0.11
338.15	1.62	0.11
348.15	1.64	0.11
358.15	1.67	0.11

System: 1,3-dimethylbenzene + 1-methyl-1-propylpiperidinium bis(trifluoromethylsulfonyl)imide; phases: Liquid
Fixed: Pressure, kPa = 101
Fixed: Mole fraction of 1,3-dimethylbenzene = 0
Property: (Relative) activity of 1,3-dimethylbenzene (Liquid); method: Chromatography
Temperature, K	(Relative) activity of 1,3-dimethylbenzene	uncertainty
308.15	1.69	0.11
318.15	1.74	0.12
328.15	1.74	0.12
338.15	1.77	0.12
348.15	1.8	0.12
358.15	1.83	0.12

System: 1,4-dimethylbenzene + 1-methyl-1-propylpiperidinium bis(trifluoromethylsulfonyl)imide; phases: Liquid
Fixed: Pressure, kPa = 101
Fixed: Mole fraction of 1,4-dimethylbenzene = 0
Property: (Relative) activity of 1,4-dimethylbenzene (Liquid); method: Chromatography
Temperature, K	(Relative) activity of 1,4-dimethylbenzene	uncertainty
308.15	1.67	0.11
318.15	1.73	0.12
328.15	1.75	0.12
338.15	1.78	0.12
348.15	1.8	0.12
358.15	1.84	0.12

System: methanol + 1-methyl-1-propylpiperidinium bis(trifluoromethylsulfonyl)imide; phases: Liquid
Fixed: Pressure, kPa = 101
Fixed: Mole fraction of methanol = 0
Property: (Relative) activity of methanol (Liquid); method: Chromatography
Temperature, K	(Relative) activity of methanol	uncertainty
308.15	1.61	0.11
318.15	1.49	0.1
328.15	1.36	0.09
338.15	1.26	0.08
348.15	1.16	0.07
358.15	1.08	0.07

System: ethanol + 1-methyl-1-propylpiperidinium bis(trifluoromethylsulfonyl)imide; phases: Liquid
Fixed: Pressure, kPa = 101
Fixed: Mole fraction of ethanol = 0
Property: (Relative) activity of ethanol (Liquid); method: Chromatography
Temperature, K	(Relative) activity of ethanol	uncertainty
308.15	2.02	0.14
318.15	1.86	0.13
328.15	1.69	0.11
338.15	1.55	0.1
348.15	1.43	0.09
358.15	1.32	0.09

System: propan-1-ol + 1-methyl-1-propylpiperidinium bis(trifluoromethylsulfonyl)imide; phases: Liquid
Fixed: Pressure, kPa = 101
Fixed: Mole fraction of propan-1-ol = 0
Property: (Relative) activity of propan-1-ol (Liquid); method: Chromatography
Temperature, K	(Relative) activity of propan-1-ol	uncertainty
308.15	2.47	0.17
318.15	2.28	0.16
328.15	2.04	0.14
338.15	1.86	0.13
348.15	1.71	0.11
358.15	1.59	0.11

System: butan-1-ol + 1-methyl-1-propylpiperidinium bis(trifluoromethylsulfonyl)imide; phases: Liquid
Fixed: Pressure, kPa = 101
Fixed: Mole fraction of butan-1-ol = 0
Property: (Relative) activity of butan-1-ol (Liquid); method: Chromatography
Temperature, K	(Relative) activity of butan-1-ol	uncertainty
318.15	2.94	0.2
328.15	2.56	0.17
338.15	2.31	0.16
348.15	2.12	0.14
358.15	1.96	0.13

System: pentan-1-ol + 1-methyl-1-propylpiperidinium bis(trifluoromethylsulfonyl)imide; phases: Liquid
Fixed: Pressure, kPa = 101
Fixed: Mole fraction of pentan-1-ol = 0
Property: (Relative) activity of pentan-1-ol (Liquid); method: Chromatography
Temperature, K	(Relative) activity of pentan-1-ol	uncertainty
338.15	2.69	0.18
348.15	2.47	0.17
358.15	2.32	0.16

System: water + 1-methyl-1-propylpiperidinium bis(trifluoromethylsulfonyl)imide; phases: Liquid
Fixed: Pressure, kPa = 101
Fixed: Mole fraction of water = 0
Property: (Relative) activity of water (Liquid); method: Chromatography
Temperature, K	(Relative) activity of water	uncertainty
308.15	4.43	0.3
318.15	4.05	0.28
328.15	3.53	0.24
338.15	3.18	0.22
348.15	2.76	0.19
358.15	2.45	0.17

System: thiophene + 1-methyl-1-propylpiperidinium bis(trifluoromethylsulfonyl)imide; phases: Liquid
Fixed: Pressure, kPa = 101
Fixed: Mole fraction of thiophene = 0
Property: (Relative) activity of thiophene (Liquid); method: Chromatography
Temperature, K	(Relative) activity of thiophene	uncertainty
308.15	0.809	0.052
318.15	0.819	0.053
328.15	0.825	0.053
338.15	0.838	0.054
348.15	0.844	0.054
358.15	0.858	0.055

System: tetrahydrofuran + 1-methyl-1-propylpiperidinium bis(trifluoromethylsulfonyl)imide; phases: Liquid
Fixed: Pressure, kPa = 101
Fixed: Mole fraction of tetrahydrofuran = 0
Property: (Relative) activity of tetrahydrofuran (Liquid); method: Chromatography
Temperature, K	(Relative) activity of tetrahydrofuran	uncertainty
308.15	0.81	0.052
318.15	0.82	0.053
328.15	0.83	0.053
338.15	0.847	0.054
348.15	0.851	0.055
358.15	0.869	0.056

System: 2-methoxy-2-methylpropane + 1-methyl-1-propylpiperidinium bis(trifluoromethylsulfonyl)imide; phases: Liquid
Fixed: Pressure, kPa = 101
Fixed: Mole fraction of 2-methoxy-2-methylpropane = 0
Property: (Relative) activity of 2-methoxy-2-methylpropane (Liquid); method: Chromatography
Temperature, K	(Relative) activity of 2-methoxy-2-methylpropane	uncertainty
308.15	2.9	0.2
318.15	2.88	0.2
328.15	2.87	0.2
338.15	2.86	0.19
348.15	2.85	0.19
358.15	2.84	0.19

System: diethyl ether + 1-methyl-1-propylpiperidinium bis(trifluoromethylsulfonyl)imide; phases: Liquid
Fixed: Pressure, kPa = 101
Fixed: Mole fraction of diethyl ether = 0
Property: (Relative) activity of diethyl ether (Liquid); method: Chromatography
Temperature, K	(Relative) activity of diethyl ether	uncertainty
308.15	2.92	0.2
318.15	2.77	0.19
328.15	2.79	0.19
338.15	2.76	0.19
348.15	2.69	0.18
358.15	2.73	0.19

System: dipropyl ether + 1-methyl-1-propylpiperidinium bis(trifluoromethylsulfonyl)imide; phases: Liquid
Fixed: Pressure, kPa = 101
Fixed: Mole fraction of dipropyl ether = 0
Property: (Relative) activity of dipropyl ether (Liquid); method: Chromatography
Temperature, K	(Relative) activity of dipropyl ether	uncertainty
308.15	6.87	0.47
318.15	6.59	0.45
328.15	6.47	0.44
338.15	6.32	0.43
348.15	6.05	0.41
358.15	5.99	0.41

System: dibutyl ether + 1-methyl-1-propylpiperidinium bis(trifluoromethylsulfonyl)imide; phases: Liquid
Fixed: Pressure, kPa = 101
Fixed: Mole fraction of dibutyl ether = 0
Property: (Relative) activity of dibutyl ether (Liquid); method: Chromatography
Temperature, K	(Relative) activity of dibutyl ether	uncertainty
308.15	14.1	1
318.15	13.3	0.9
328.15	12.8	0.9
338.15	12.2	0.8
348.15	11.6	0.8
358.15	11.2	0.8

System: acetone + 1-methyl-1-propylpiperidinium bis(trifluoromethylsulfonyl)imide; phases: Liquid
Fixed: Pressure, kPa = 101
Fixed: Mole fraction of acetone = 0
Property: (Relative) activity of acetone (Liquid); method: Chromatography
Temperature, K	(Relative) activity of acetone	uncertainty
308.15	0.5	0.038
318.15	0.508	0.038
328.15	0.513	0.038
338.15	0.524	0.039
348.15	0.524	0.039
358.15	0.532	0.039

System: pentan-2-one + 1-methyl-1-propylpiperidinium bis(trifluoromethylsulfonyl)imide; phases: Liquid
Fixed: Pressure, kPa = 101
Fixed: Mole fraction of pentan-2-one = 0
Property: (Relative) activity of pentan-2-one (Liquid); method: Chromatography
Temperature, K	(Relative) activity of pentan-2-one	uncertainty
308.15	0.814	0.053
318.15	0.832	0.054
328.15	0.842	0.054
338.15	0.857	0.055
348.15	0.863	0.055
358.15	0.879	0.056

System: pentan-3-one + 1-methyl-1-propylpiperidinium bis(trifluoromethylsulfonyl)imide; phases: Liquid
Fixed: Pressure, kPa = 101
Fixed: Mole fraction of pentan-3-one = 0
Property: (Relative) activity of pentan-3-one (Liquid); method: Chromatography
Temperature, K	(Relative) activity of pentan-3-one	uncertainty
308.15	0.794	0.052
318.15	0.811	0.052
328.15	0.838	0.054
338.15	0.856	0.055
348.15	0.868	0.055
358.15	0.889	0.057

System: 2-hexanone + 1-methyl-1-propylpiperidinium bis(trifluoromethylsulfonyl)imide; phases: Liquid
Fixed: Pressure, kPa = 101
Fixed: Mole fraction of 2-hexanone = 0
Property: (Relative) activity of 2-hexanone (Liquid); method: Chromatography
Temperature, K	(Relative) activity of 2-hexanone	uncertainty
338.15	1.11	0.07
348.15	1.12	0.07
358.15	1.14	0.07

System: 3-hexanone + 1-methyl-1-propylpiperidinium bis(trifluoromethylsulfonyl)imide; phases: Liquid
Fixed: Pressure, kPa = 101
Fixed: Mole fraction of 3-hexanone = 0
Property: (Relative) activity of 3-hexanone (Liquid); method: Chromatography
Temperature, K	(Relative) activity of 3-hexanone	uncertainty
338.15	1.14	0.07
348.15	1.15	0.07
358.15	1.18	0.08
