Measured thermophysical data. Thermochemical study of the 2,5-dibromonitrobenzene isomer: An approach of the energetic study for the other dibromonitrobenzene isomers
Source: J. Chem. Thermodyn., 2009, 10.1016/j.jct.2009.05.010
Compound 1: hydrogen bromide, BrH, InChI=1S/BrH/h1H
Compound 2: carbon dioxide, CO2, InChI=1S/CO2/c2-1-3
Compound 3: nitrogen, N2, InChI=1S/N2/c1-2
Compound 4: water, H2O, InChI=1S/H2O/h1H2
Compound 5: oxygen, O2, InChI=1S/O2/c1-2
Compound 6: 1,4-dibromo-2-nitrobenzene, C6H3Br2NO2, InChI=1S/C6H3Br2NO2/c7-4-1-2-5(8)6(3-4)9(10)11/h1-3H, purity 99.6%

System: 1,4-dibromo-2-nitrobenzene; phases: Crystal, Gas
Property: Vapor or sublimation pressure, kPa (Crystal); method: Calculated from knudsen effusion weight loss
Temperature, K	Vapor or sublimation pressure, kPa	uncertainty
302.14	9.9e-05	5e-06
302.14	9.7e-05	5e-06
302.14	9.7e-05	5e-06
304.16	0.000121	6e-06
304.16	0.000125	6e-06
304.16	0.000123	6e-06
306.15	0.000167	8e-06
306.15	0.000166	8e-06
306.15	0.000163	8e-06
308.15	0.000203	1e-05
308.15	0.000204	1e-05
308.15	0.000205	1e-05
310.14	0.00026	1.3e-05
310.14	0.000264	1.3e-05
310.14	0.000261	1.3e-05
312.14	0.000327	1.6e-05
312.14	0.000332	1.7e-05
312.14	0.000329	1.6e-05
314.14	0.000418	2.1e-05
314.14	0.000419	2.1e-05
314.14	0.000418	2.1e-05
316.14	0.000522	2.6e-05
316.14	0.000527	2.6e-05
316.14	0.000524	2.6e-05
318.15	0.000666	3.3e-05
318.15	0.000675	3.4e-05
318.15	0.000673	3.4e-05
320.15	0.000884	4.4e-05
320.15	0.000858	4.3e-05
320.15	0.000838	4.2e-05
322.14	0.001072	0.000109
322.14	0.001068	0.000108
322.14	0.001063	0.000108

Reaction: -1 1,4-dibromo-2-nitrobenzene + 2 hydrogen bromide + 6 carbon dioxide + .5 nitrogen + .5 water + -5.25 oxygen
Property: Specific internal energy of reaction at constant volume, J/g
-9040.1
