Measured thermophysical data. Partial molar volumes of organic solutes in water. XVIII: Selected polyethers(aq) and 3,6-dioxa-1-heptanol(aq) at T = (298 to 573) K and at pressures up to 30 MPa
Source: J. Chem. Thermodyn., 2007, 10.1016/j.jct.2007.01.015
Compound 1: diethoxymethane, C5H12O2, InChI=1S/C5H12O2/c1-3-6-5-7-4-2/h3-5H2,1-2H3, purity 99%
Compound 2: 1,2-diethoxyethane, C6H14O2, InChI=1S/C6H14O2/c1-3-7-5-6-8-4-2/h3-6H2,1-2H3, purity 99%
Compound 3: 2,5,8-trioxanonane, C6H14O3, InChI=1S/C6H14O3/c1-7-3-5-9-6-4-8-2/h3-6H2,1-2H3, purity 99.5%
Compound 4: 2-(2-methoxyethoxy)ethanol, C5H12O3, InChI=1S/C5H12O3/c1-7-4-5-8-3-2-6/h6H,2-5H2,1H3, purity 99.6%
Compound 5: water, H2O, InChI=1S/H2O/h1H2
Compound 6: 1,2-dimethoxyethane, C4H10O2, InChI=1S/C4H10O2/c1-5-3-4-6-2/h3-4H2,1-2H3, purity 99.5%

System: diethoxymethane + water; phases: Liquid
Property: Mass density, kg/m3 (Liquid); method: VIBTUB:UFactor:0.5
Temperature, K	Pressure, kPa	Molality, mol/kg of diethoxymethane	Mass density, kg/m3	uncertainty
298.15	15200	0.08549	-0.8528	0.0194
298.15	15200	0.13381	-1.3091	0.0199
298.15	15200	0.16328	-1.592	0.0686
298.15	15200	0.33216	-3.0975	0.0227
298.15	15200	0.08549	-0.8544	0.0194
298.15	15200	0.13381	-1.3107	0.0199
298.15	15200	0.16328	-1.5923	0.0688
298.15	15200	0.33216	-3.0948	0.0227
298.15	15200	0.08549	-0.8539	0.0194
298.15	15200	0.13381	-1.3092	0.0199
298.15	15200	0.16328	-1.5924	0.0689
298.15	15200	0.33216	-3.0965	0.0227
298.16	240	0.08549	-0.8129	0.0188
298.16	1240	0.08549	-0.8117	0.04
298.16	2240	0.08549	-0.8078	0.04
298.16	3240	0.08549	-0.8094	0.0189
298.16	4240	0.08549	-0.8013	0.0186
298.16	5240	0.08549	-0.804	0.0186
298.16	6240	0.08549	-0.804	0.0186
298.16	7240	0.08549	-0.8068	0.04
298.16	8240	0.13381	-1.2475	0.04
298.16	9240	0.13381	-1.2484	0.0193
298.16	10240	0.13381	-1.2377	0.0196
298.16	11240	0.13381	-1.2391	0.0192
298.16	12240	0.16328	-1.5211	0.04
298.16	13240	0.16328	-1.5193	0.0196
298.16	14240	0.16328	-1.5095	0.02
298.16	15240	0.16328	-1.5058	0.0689
298.16	16240	0.2106	-1.9082	0.021
298.16	17240	0.2106	-1.9065	0.0211
298.16	18240	0.2106	-1.8981	0.0209
298.16	19240	0.2106	-1.8967	0.04
298.16	20240	0.33216	-2.9445	0.04
298.16	21240	0.33216	-2.942	0.0234
298.16	22240	0.33216	-2.9302	0.0235
298.16	23240	0.33216	-2.9295	0.0237
298.16	30060	0.08549	-0.8954	0.0205
298.16	30060	0.13381	-1.3747	0.0217
298.16	30060	0.16328	-1.6703	0.0224
298.16	30060	0.30847	-3.0467	0.0258
298.16	30060	0.08549	-0.896	0.0205
298.16	30060	0.13381	-1.3731	0.0217
298.16	30060	0.16328	-1.6697	0.0224
298.16	30060	0.30847	-3.0439	0.0258
298.16	30060	0.08549	-0.8955	0.0205
298.16	30060	0.13381	-1.3726	0.0217
298.16	30060	0.16328	-1.6695	0.0224
298.16	30060	0.30847	-3.0445	0.0258
318.17	170	0.08549	-0.8944	0.0187
318.17	170	0.13381	-1.3764	0.019
318.17	170	0.16328	-1.6811	0.0191
318.17	170	0.24786	-2.5161	0.0195
318.17	170	0.30847	-3.1159	0.0198
318.17	15060	0.08549	-0.9082	0.0197
318.17	15060	0.13381	-1.3997	0.0205
318.17	15060	0.16328	-1.71	0.0213
318.17	15060	0.18055	-1.9021	0.021
318.17	15060	0.24786	-2.5608	0.022
318.17	15060	0.30847	-3.1702	0.023
318.17	30070	0.08167	-0.8893	0.0207
318.17	30070	0.16328	-1.7446	0.0225
318.17	30070	0.18055	-1.938	0.0231
318.17	30070	0.24786	-2.6032	0.0248
318.17	30070	0.30847	-3.23	0.0265
318.17	170	0.08549	-0.8915	0.0187
318.17	170	0.13381	-1.3739	0.019
318.17	170	0.16328	-1.6775	0.0191
318.17	170	0.24786	-2.5132	0.0195
318.17	170	0.30847	-3.1138	0.0198
318.17	15060	0.08549	-0.9069	0.0197
318.17	15060	0.13381	-1.3988	0.0205
318.17	15060	0.16328	-1.7055	0.0213
318.17	15060	0.18055	-1.9013	0.021
318.17	15060	0.24786	-2.5562	0.022
318.17	15060	0.30847	-3.1766	0.023
318.17	30070	0.08167	-0.8883	0.0207
318.17	30070	0.16328	-1.7391	0.0226
318.17	30070	0.18055	-1.9363	0.0231
318.17	30070	0.24786	-2.6047	0.0248
318.17	30070	0.30847	-3.2259	0.0265
318.17	170	0.08549	-0.8908	0.0187
318.17	170	0.13381	-1.3705	0.019
318.17	170	0.16328	-1.6752	0.0191
318.17	170	0.24786	-2.5105	0.0195
318.17	170	0.30847	-3.1108	0.0198
318.17	15060	0.08549	-0.9056	0.0197
318.17	15060	0.13381	-1.3967	0.0205
318.17	15060	0.16328	-1.7119	0.0213
318.17	15060	0.18055	-1.8996	0.021
318.17	15060	0.24786	-2.5595	0.022
318.17	15060	0.30847	-3.1733	0.023
318.17	30070	0.08167	-0.8899	0.0207
318.17	30070	0.16328	-1.7368	0.0226
318.17	30070	0.18055	-1.9255	0.0231
318.17	30070	0.24786	-2.6009	0.0248
318.17	30070	0.30847	-3.2315	0.0265
338.21	30080	0.08167	-0.9452	0.0213
338.21	30080	0.12179	-1.4031	0.0224
338.21	30080	0.18055	-2.0613	0.024
338.21	30080	0.24295	-2.7682	0.0258
338.21	30080	0.27316	-3.1088	0.0263
338.21	30080	0.30847	-3.4527	0.0268
338.21	30080	0.08167	-0.9439	0.0213
338.21	30080	0.12179	-1.4012	0.0224
338.21	30080	0.18055	-2.0604	0.024
338.21	30080	0.24295	-2.7707	0.0258
338.21	30080	0.27316	-3.1083	0.0263
338.21	30080	0.30847	-3.4556	0.0269
338.21	30080	0.08167	-0.944	0.0213
338.21	30080	0.12179	-1.4021	0.0224
338.21	30080	0.18055	-2.0605	0.024
338.21	30080	0.24295	-2.7694	0.0258
338.21	30080	0.27316	-3.1087	0.0263
338.21	30080	0.30847	-3.4544	0.0269
338.22	410	0.08167	-0.9473	0.0196
338.22	410	0.12179	-1.4083	0.0198
338.22	410	0.18055	-2.0695	0.02
338.22	410	0.24295	-2.7776	0.0202
338.22	410	0.30847	-3.4819	0.0204
338.22	15060	0.08167	-0.9426	0.0204
338.22	15060	0.12179	-1.4022	0.021
338.22	15060	0.18055	-2.0614	0.0219
338.22	15060	0.24295	-2.7692	0.023
338.22	15060	0.27316	-3.1099	0.0231
338.22	15060	0.30847	-3.4602	0.0234
338.22	410	0.08167	-0.9456	0.0196
338.22	410	0.12179	-1.4068	0.0198
338.22	410	0.18055	-2.0689	0.02
338.22	410	0.24295	-2.7768	0.0202
338.22	410	0.30847	-3.4803	0.0204
338.22	15060	0.08167	-0.9426	0.0204
338.22	15060	0.12179	-1.4008	0.021
338.22	15060	0.18055	-2.0601	0.0219
338.22	15060	0.24295	-2.7682	0.023
338.22	15060	0.27316	-3.1085	0.0231
338.22	15060	0.30847	-3.4576	0.0234
338.22	410	0.08167	-0.9451	0.0196
338.22	410	0.12179	-1.4044	0.0198
338.22	410	0.18055	-2.0656	0.02
338.22	410	0.24295	-2.7745	0.0202
338.22	410	0.30847	-3.4766	0.0204
338.22	15060	0.08167	-0.9416	0.0204
338.22	15060	0.12179	-1.3994	0.021
338.22	15060	0.18055	-2.0596	0.0219
338.22	15060	0.24295	-2.7668	0.023
338.22	15060	0.27316	-3.106	0.0231
338.22	15060	0.30847	-3.4558	0.0234
373.14	1960	0.08167	-1.1209	0.0213
373.14	1960	0.12179	-1.6659	0.0216
373.14	1960	0.24295	-3.3135	0.0225
373.14	15190	0.08167	-1.0994	0.022
373.14	15190	0.12179	-1.6368	0.0228
373.14	15190	0.18002	-2.4173	0.0238
373.14	15190	0.24295	-3.2463	0.0248
373.14	15190	0.26028	-3.4806	0.0255
373.14	30100	0.08167	-1.0831	0.0229
373.14	1960	0.08167	-1.1187	0.0214
373.14	1960	0.12179	-1.6684	0.0216
373.14	1960	0.24295	-3.3171	0.0225
373.14	15190	0.08167	-1.1008	0.022
373.14	15190	0.12179	-1.6365	0.0228
373.14	15190	0.18002	-2.4199	0.0238
373.14	15190	0.24295	-3.2466	0.0248
373.14	15190	0.26028	-3.4795	0.0255
374.14	30100	0.08167	-1.0834	0.0229
375.14	30100	0.08167	-1.0883	0.0229
376.14	30100	0.12179	-1.6134	0.0241
377.14	30100	0.18002	-2.3848	0.026
378.14	30100	0.18002	-2.3841	0.0259
379.14	30100	0.18002	-2.3849	0.0259
380.14	30100	0.26028	-3.4379	0.0285
381.14	30100	0.26028	-3.4403	0.0285
382.14	30100	0.26028	-3.4451	0.0285
408.16	2030	0.08226	-1.3305	0.0238
408.16	2030	0.12228	-1.9716	0.0241
408.16	2030	0.18002	-2.8935	0.0245
408.16	2030	0.26028	-4.1664	0.0251
408.16	15100	0.08226	-1.2876	0.0244
408.16	15100	0.12228	-1.904	0.0252
408.16	15100	0.18002	-2.7959	0.0262
408.16	15100	0.26028	-4.0082	0.0279
408.16	30050	0.08226	-1.2461	0.0251
408.16	30050	0.12228	-1.8392	0.0265
408.16	30050	0.18002	-2.7016	0.0284
408.16	30050	0.26028	-3.8628	0.0311
408.16	2030	0.08226	-1.3279	0.0239
408.16	2030	0.12228	-1.9743	0.0241
408.16	2030	0.18002	-2.897	0.0245
408.16	2030	0.26028	-4.169	0.0251
408.16	15100	0.08226	-1.2882	0.0244
408.16	15100	0.12228	-1.9034	0.0252
408.16	15100	0.18002	-2.7968	0.0262
408.16	15100	0.26028	-4.0033	0.0279
408.16	30050	0.08226	-1.2466	0.0251
408.16	30050	0.12228	-1.8402	0.0265
408.16	30050	0.18002	-2.7035	0.0284
408.16	30050	0.26028	-3.863	0.0311
408.16	2030	0.08226	-1.3299	0.0239
408.16	2030	0.12228	-1.9757	0.0241
408.16	2030	0.18002	-2.8986	0.0245
408.16	2030	0.26028	-4.1679	0.0251
408.16	15100	0.08226	-1.2897	0.0244
408.16	15100	0.12228	-1.9034	0.0252
408.16	15100	0.18002	-2.7961	0.0262
408.16	15100	0.26028	-4.0014	0.0279
408.16	30050	0.08226	-1.2446	0.0252
408.16	30050	0.12228	-1.84	0.0265
408.16	30050	0.18002	-2.7027	0.0284
408.16	30050	0.26028	-3.8642	0.0312
443.16	2060	0.04963	-0.9278	0.0274
443.16	2060	0.10107	-1.8722	0.0281
443.16	2060	0.1106	-2.0398	0.0273
443.16	2060	0.15082	-2.7688	0.0279
443.16	2060	0.20087	-3.6713	0.0281
443.16	2060	0.25867	-4.6617	0.0283
443.16	16900	0.10107	-1.7894	0.0288
443.16	16900	0.15094	-2.6635	0.0298
443.16	16900	0.20087	-3.5166	0.0309
443.16	16900	0.30018	-5.1532	0.033
443.16	30060	0.10107	-1.703	0.0299
443.16	30060	0.1106	-1.8468	0.029
443.16	30060	0.15082	-2.5326	0.0312
443.16	30060	0.15094	-2.5359	0.0312
443.16	30060	0.20087	-3.334	0.0329
443.16	30060	0.30018	-4.8379	0.0363
443.16	2060	0.04963	-0.9213	0.0274
443.16	2060	0.10107	-1.8666	0.0285
443.16	2060	0.1106	-2.0421	0.0275
443.16	2060	0.15082	-2.7619	0.0279
443.16	2060	0.20087	-3.669	0.0281
443.16	2060	0.25867	-4.6755	0.0284
443.16	16900	0.10107	-1.7841	0.0288
443.16	16900	0.15094	-2.6618	0.0298
443.16	16900	0.20087	-3.5035	0.0309
443.16	16900	0.30018	-5.1462	0.033
443.16	30060	0.10107	-1.7029	0.0299
443.16	30060	0.1106	-1.8521	0.0293
443.16	30060	0.15082	-2.5284	0.0312
443.16	30060	0.15094	-2.5142	0.0312
443.16	30060	0.20087	-3.3297	0.0329
443.16	30060	0.30018	-4.8327	0.0363
443.16	2060	0.1106	-2.0527	0.0282
443.16	2060	0.20087	-3.6445	0.0281
443.16	16900	0.10107	-1.7836	0.0288
443.16	16900	0.15094	-2.6507	0.0298
443.16	16900	0.20087	-3.4996	0.0309
443.16	16900	0.30018	-5.162	0.0331
443.16	30060	0.10107	-1.701	0.03
443.16	30060	0.1106	-1.856	0.0296
443.16	30060	0.15082	-2.5249	0.0312
443.16	30060	0.15094	-2.5089	0.0312
443.16	30060	0.20087	-3.3304	0.0329
443.16	30060	0.30018	-4.8592	0.0365
443.16	2060	0.1106	-2.0525	0.0282
443.16	2060	0.20087	-3.6347	0.0281
443.16	16900	0.10107	-1.7807	0.0288
443.16	16900	0.15094	-2.6609	0.0298
443.16	16900	0.20087	-3.4947	0.0309
443.16	16900	0.30018	-5.16	0.0331
443.16	30060	0.10107	-1.698	0.0302
443.16	30060	0.1106	-1.8655	0.0301
443.16	30060	0.15082	-2.512	0.0312
443.16	30060	0.20087	-3.3151	0.0329
443.16	30060	0.30018	-4.8934	0.0367
443.16	16900	0.10107	-1.7808	0.0288
443.16	16900	0.20087	-3.4938	0.0309
443.16	16900	0.30018	-5.1793	0.0332
443.16	30060	0.10107	-1.6971	0.0302
443.16	30060	0.1106	-1.8647	0.0301
443.16	30060	0.15082	-2.5078	0.0312
443.16	30060	0.20087	-3.3067	0.0329
443.16	30060	0.30018	-4.8921	0.0367
443.16	16900	0.10107	-1.7774	0.0288
443.16	16900	0.20087	-3.4862	0.0309
443.16	16900	0.30018	-5.2086	0.0334
443.16	30060	0.10107	-1.6953	0.0303
443.16	30060	0.1106	-1.8676	0.0303
443.16	30060	0.15082	-2.5028	0.0312
443.16	30060	0.20087	-3.3037	0.0329
443.16	30060	0.30018	-4.9052	0.0368

System: 1,2-diethoxyethane + water; phases: Liquid
Property: Mass density, kg/m3 (Liquid); method: VIBTUB:UFactor:0.5
Temperature, K	Pressure, kPa	Molality, mol/kg of 1,2-diethoxyethane	Mass density, kg/m3	uncertainty
298.15	15200	0.05154	-0.4842	0.0182
298.15	15200	0.07723	-0.699	0.0188
298.15	15200	0.10138	-0.9192	0.019
298.15	15200	0.12344	-1.0994	0.0203
298.15	15200	0.12828	-1.1466	0.0212
298.15	15200	0.15633	-1.3568	0.0192
298.15	15200	0.05154	-0.4834	0.0182
298.15	15200	0.07723	-0.697	0.0188
298.15	15200	0.10138	-0.9188	0.019
298.15	15200	0.12344	-1.097	0.0205
298.15	15200	0.12828	-1.1473	0.0213
298.15	15200	0.15633	-1.3642	0.0193
298.15	15200	0.05154	-0.4796	0.0183
298.15	15200	0.07723	-0.6979	0.0188
298.15	15200	0.10138	-0.9206	0.019
298.15	15200	0.12344	-1.0962	0.0206
298.15	15200	0.12828	-1.1484	0.0214
298.15	15200	0.15633	-1.3645	0.0193
298.16	240	0.05154	-0.4371	0.0175
298.16	240	0.07723	-0.6349	0.0177
298.16	240	0.10138	-0.8323	0.0177
298.16	240	0.12344	-1.0051	0.018
298.16	240	0.12828	-1.0454	0.0183
298.16	240	0.15633	-1.2352	0.0175
298.16	30060	0.05154	-0.5194	0.0193
298.16	30060	0.08111	-0.7946	0.0201
298.16	30060	0.10138	-0.9946	0.0204
298.16	30060	0.12344	-1.1889	0.0214
298.16	30060	0.12828	-1.2374	0.0214
298.16	30060	0.15633	-1.4746	0.0213
298.16	240	0.05154	-0.4311	0.0176
298.16	240	0.07723	-0.6385	0.0177
298.16	240	0.10138	-0.8349	0.0177
298.16	240	0.12344	-1.0028	0.0183
298.16	240	0.12828	-1.0457	0.0183
298.16	240	0.15633	-1.2371	0.0175
298.16	30060	0.05154	-0.5226	0.0193
298.16	30060	0.08111	-0.7981	0.0201
298.16	30060	0.10138	-0.9915	0.0204
298.16	30060	0.12344	-1.1881	0.0215
298.16	30060	0.12828	-1.239	0.0215
298.16	30060	0.15633	-1.4766	0.0213
298.16	240	0.05154	-0.431	0.0176
298.16	240	0.07723	-0.6371	0.0177
298.16	240	0.12344	-1.0009	0.0184
298.16	240	0.15633	-1.2386	0.0176
298.16	30060	0.10138	-0.994	0.0204
298.16	30060	0.12344	-1.1861	0.0217
298.16	30060	0.12828	-1.2397	0.0216
298.16	30060	0.15633	-1.4741	0.0213
298.16	240	0.05154	-0.4343	0.0176
298.16	240	0.07723	-0.6351	0.0177
298.16	240	0.12344	-1.0015	0.0184
298.16	240	0.15633	-1.2389	0.0176
298.16	240	0.05154	-0.4303	0.0177
298.16	240	0.07723	-0.6361	0.0177
298.16	240	0.12344	-0.9979	0.0188
298.16	240	0.15633	-1.2486	0.0177
298.16	240	0.07723	-0.6334	0.0177
298.16	240	0.12344	-0.9958	0.019
298.16	240	0.15633	-1.2467	0.0177
298.16	240	0.15633	-1.2563	0.0178
298.16	240	0.15633	-1.2545	0.0178
318.17	170	0.05154	-0.4945	0.0177
318.17	1170	0.05154	-0.4968	0.0183
318.17	2170	0.05154	-0.4956	0.04
318.17	3170	0.08111	-0.7733	0.04
318.17	4170	0.08111	-0.772	0.0188
318.17	5170	0.08111	-0.7706	0.04
318.17	6170	0.10138	-0.9652	0.04
318.17	7170	0.10138	-0.9636	0.0187
318.17	8170	0.10138	-0.9629	0.04
318.17	9170	0.12344	-1.1559	0.04
318.17	10170	0.12344	-1.1547	0.0191
318.17	11170	0.12344	-1.1549	0.0186
318.17	12170	0.12828	-1.2105	0.04
318.17	13170	0.12828	-1.2095	0.0188
318.17	14170	0.12828	-1.2076	0.0197
318.17	15060	0.05154	-0.5206	0.0189
318.17	15060	0.08111	-0.8041	0.0194
318.17	15060	0.10138	-1.0077	0.0196
318.17	15060	0.12344	-1.2104	0.0229
318.17	15060	0.12828	-1.2605	0.0212
318.17	15060	0.15633	-1.5119	0.0257
318.17	15170	0.15633	-1.4526	0.0259
318.17	16170	0.15633	-1.4517	0.0202
318.17	17170	0.15633	-1.4497	0.0194
318.17	30070	0.05154	-0.5446	0.0196
318.17	30070	0.08111	-0.8368	0.0204
318.17	30070	0.10138	-1.0472	0.0209
318.17	30070	0.12344	-1.2586	0.0218
318.17	30070	0.12828	-1.3096	0.0234
318.17	30070	0.1608	-1.6282	0.0222
318.17	15060	0.05154	-0.5225	0.0189
318.17	15060	0.08111	-0.8039	0.0194
318.17	15060	0.10138	-1.0064	0.0196
318.17	15060	0.12344	-1.2102	0.0229
318.17	15060	0.12828	-1.2627	0.0212
318.17	15060	0.15633	-1.5126	0.0259
318.17	30070	0.05154	-0.5456	0.0196
318.17	30070	0.08111	-0.8373	0.0204
318.17	30070	0.10138	-1.0455	0.0209
318.17	30070	0.12344	-1.2557	0.0221
318.17	30070	0.12828	-1.3103	0.0235
318.17	30070	0.1608	-1.6268	0.0222
318.17	15060	0.05154	-0.5217	0.0189
318.17	15060	0.08111	-0.8032	0.0194
318.17	15060	0.10138	-1.0045	0.0196
318.17	15060	0.12344	-1.2075	0.0231
318.17	15060	0.12828	-1.2622	0.0212
318.17	15060	0.15633	-1.5127	0.0259
318.17	30070	0.05154	-0.5436	0.0196
318.17	30070	0.08111	-0.8353	0.0204
318.17	30070	0.10138	-1.0518	0.0209
318.17	30070	0.12344	-1.2534	0.0224
318.17	30070	0.12828	-1.3114	0.0235
318.17	30070	0.1608	-1.6256	0.0222
338.21	30080	0.051	-0.5696	0.0201
338.21	30080	0.08111	-0.9033	0.0211
338.21	30080	0.09164	-1.0179	0.0215
338.21	30080	0.11864	-1.3221	0.0227
338.21	30080	0.12933	-1.4339	0.0222
338.21	30080	0.1608	-1.7759	0.0234
338.21	30080	0.051	-0.5701	0.0201
338.21	30080	0.08111	-0.9052	0.0211
338.21	30080	0.09164	-1.019	0.0215
338.21	30080	0.11864	-1.3209	0.0227
338.21	30080	0.12933	-1.4339	0.0222
338.21	30080	0.1608	-1.773	0.0234
338.21	30080	0.051	-0.5687	0.0201
338.21	30080	0.08111	-0.9024	0.0211
338.21	30080	0.09164	-1.0184	0.0215
338.21	30080	0.11864	-1.3209	0.0227
338.21	30080	0.12933	-1.4378	0.0222
338.21	30080	0.1608	-1.7712	0.0234
338.22	410	0.05154	-0.5606	0.0191
338.22	410	0.08111	-0.8814	0.0193
338.22	410	0.10138	-1.1024	0.0193
338.22	410	0.12828	-1.3864	0.0194
338.22	410	0.1608	-1.7325	0.0195
338.22	15060	0.051	-0.5607	0.0196
338.22	15060	0.08111	-0.8882	0.0201
338.22	15060	0.10138	-1.1105	0.04
338.22	15060	0.11864	-1.3003	0.021
338.22	15060	0.12828	-1.4025	0.0207
338.22	15060	0.1608	-1.7505	0.0213
338.22	410	0.05154	-0.5632	0.0191
338.22	410	0.08111	-0.8806	0.0193
338.22	410	0.10138	-1.1011	0.0193
338.22	410	0.12828	-1.3855	0.0194
338.22	410	0.1608	-1.7302	0.0195
338.22	15060	0.051	-0.5614	0.0196
338.22	15060	0.08111	-0.89	0.0202
338.22	15060	0.10138	-1.1115	0.04
338.22	15060	0.11864	-1.2996	0.021
338.22	15060	0.12828	-1.4012	0.0207
338.22	15060	0.1608	-1.749	0.0213
338.22	410	0.05154	-0.562	0.0191
338.22	410	0.08111	-0.8789	0.0193
338.22	410	0.10138	-1.0997	0.0193
338.22	410	0.12828	-1.3838	0.0194
338.22	410	0.1608	-1.7291	0.0195
338.22	15060	0.051	-0.5615	0.0196
338.22	15060	0.08111	-0.8897	0.0202
338.22	15060	0.10138	-1.1126	0.04
338.22	15060	0.11864	-1.2984	0.021
338.22	15060	0.12828	-1.4013	0.0207
338.22	15060	0.1608	-1.747	0.0213
373.14	1970	0.051	-0.6905	0.021
373.14	1970	0.09164	-1.2396	0.0214
373.14	1970	0.11864	-1.6066	0.0215
373.14	1970	0.12933	-1.7473	0.0214
373.14	1970	0.1608	-2.1618	0.0216
373.14	15190	0.051	-0.6808	0.0215
373.14	15190	0.09164	-1.2265	0.0222
373.14	15190	0.12933	-1.7252	0.0227
373.14	15190	0.1608	-2.1293	0.0234
373.14	30100	0.051	-0.6769	0.022
373.14	30100	0.09164	-1.2109	0.0232
373.14	30100	0.12933	-1.7017	0.0243
373.14	30100	0.1608	-2.1129	0.0253
373.14	1970	0.051	-0.6904	0.021
373.14	1970	0.11864	-1.6079	0.0215
373.14	1970	0.12933	-1.7463	0.0214
373.14	1970	0.1608	-2.1627	0.0217
373.14	15190	0.051	-0.6807	0.0215
373.14	15190	0.09164	-1.2275	0.0222
373.14	15190	0.12933	-1.7278	0.0227
373.14	15190	0.1608	-2.1343	0.0235
373.14	30100	0.051	-0.6761	0.022
373.14	30100	0.09164	-1.2137	0.0232
373.14	30100	0.12933	-1.7051	0.0243
373.14	30100	0.1608	-2.1063	0.0253
373.14	30100	0.051	-0.6785	0.022
373.14	30100	0.12933	-1.7021	0.0243
373.14	30100	0.1608	-2.1104	0.0253
408.16	2040	0.051	-0.8355	0.0239
408.16	2040	0.09164	-1.5029	0.0241
408.16	2040	0.12933	-2.1138	0.0243
408.16	2040	0.1608	-2.6214	0.0246
408.16	15100	0.051	-0.8127	0.0241
408.16	15100	0.09164	-1.4591	0.0249
408.16	15100	0.12933	-2.0476	0.0256
408.16	15100	0.1582	-2.5043	0.0263
408.16	30040	0.051	-0.7885	0.0245
408.16	30040	0.09164	-1.4175	0.0258
408.16	30040	0.12933	-1.9885	0.027
408.16	30040	0.1582	-2.4303	0.0281
408.16	2040	0.051	-0.8379	0.0239
408.16	2040	0.09164	-1.5051	0.0241
408.16	2040	0.12933	-2.1156	0.0243
408.16	2040	0.1608	-2.6229	0.0246
408.16	15100	0.051	-0.8129	0.0241
408.16	15100	0.09164	-1.4598	0.0249
408.16	15100	0.12933	-2.049	0.0256
408.16	15100	0.1582	-2.5051	0.0263
408.16	30040	0.051	-0.7907	0.0245
408.16	30040	0.09164	-1.4192	0.0258
408.16	30040	0.12933	-1.991	0.0271
408.16	30040	0.1582	-2.4307	0.0281
408.16	2040	0.051	-0.8386	0.0239
408.16	2040	0.09164	-1.5073	0.0241
408.16	2040	0.12933	-2.1172	0.0243
408.16	2040	0.1608	-2.6248	0.0246
408.16	15100	0.051	-0.8141	0.0241
408.16	15100	0.09164	-1.4607	0.0249
408.16	15100	0.12933	-2.0488	0.0256
408.16	15100	0.1582	-2.5052	0.0263
408.16	30040	0.051	-0.7917	0.0245
408.16	30040	0.09164	-1.4174	0.0258
408.16	30040	0.12933	-1.9919	0.0271
408.16	30040	0.1582	-2.4313	0.0281
443.16	2050	0.04036	-0.7899	0.04
443.16	2050	0.08045	-1.5686	0.0283
443.16	2050	0.1206	-2.3438	0.0286
443.16	2050	0.15207	-2.9525	0.0289
443.16	16900	0.08045	-1.4891	0.0288
443.16	16900	0.1206	-2.2225	0.0298
443.16	16900	0.15207	-2.7979	0.0308
443.16	30070	0.04036	-0.7189	0.028
443.16	30070	0.08045	-1.4289	0.0295
443.16	30070	0.1206	-2.1389	0.0311
443.16	30070	0.15207	-2.692	0.0323
443.16	2050	0.04036	-0.7908	0.04
443.16	2050	0.08045	-1.5678	0.0283
443.16	2050	0.1206	-2.3424	0.0286
443.16	2050	0.15207	-2.9517	0.0289
443.16	16900	0.08045	-1.4883	0.0288
443.16	16900	0.1206	-2.2253	0.0298
443.16	16900	0.15207	-2.7968	0.0308
443.16	30070	0.04036	-0.7191	0.028
443.16	30070	0.08045	-1.428	0.0295
443.16	30070	0.1206	-2.1369	0.0311
443.16	30070	0.15207	-2.6913	0.0323
443.16	2050	0.04036	-0.7876	0.04
443.16	2050	0.08045	-1.5658	0.0283
443.16	2050	0.1206	-2.3409	0.0286
443.16	2050	0.15207	-2.9499	0.0289
443.16	16900	0.08045	-1.489	0.0288
443.16	16900	0.1206	-2.2236	0.0298
443.16	16900	0.15207	-2.7982	0.0308
443.16	30070	0.04036	-0.7197	0.028
443.16	30070	0.08045	-1.4293	0.0295
443.16	30070	0.1206	-2.1351	0.0311
443.16	30070	0.15207	-2.6898	0.0323
443.16	2050	0.04036	-0.7878	0.04
443.16	2050	0.08045	-1.5667	0.0283
443.16	2050	0.1206	-2.3423	0.0286
443.16	2050	0.15207	-2.9499	0.0289
443.16	16900	0.08045	-1.4868	0.0288
443.16	16900	0.1206	-2.2222	0.0298
443.16	16900	0.15207	-2.798	0.0308
443.16	30070	0.04036	-0.7194	0.028
443.16	30070	0.08045	-1.4305	0.0295
443.16	30070	0.1206	-2.1358	0.0311
443.16	30070	0.15207	-2.6912	0.0323
443.16	16900	0.08045	-1.4881	0.0288
443.16	16900	0.1206	-2.2223	0.0298
443.16	16900	0.15207	-2.8002	0.0309
443.16	30070	0.04036	-0.7207	0.028
443.16	30070	0.08045	-1.4315	0.0295
443.16	30070	0.1206	-2.1374	0.0311
443.16	30070	0.15207	-2.693	0.0323
443.16	16900	0.08045	-1.4876	0.0288
443.16	30070	0.04036	-0.7208	0.028
443.16	30070	0.08045	-1.4303	0.0295
443.16	30070	0.1206	-2.1371	0.0311
473.14	2930	0.04036	-0.8938	0.0334
473.14	2930	0.08045	-1.7772	0.0338
473.14	2930	0.1206	-2.6595	0.0341
473.14	2930	0.15207	-3.3402	0.0343
473.14	16940	0.04036	-0.8377	0.033
473.14	16940	0.08045	-1.6623	0.0342
473.14	16940	0.1206	-2.4885	0.0353
473.14	16940	0.15207	-3.126	0.0364
473.14	2930	0.04036	-0.8943	0.0334
473.14	2930	0.08045	-1.7775	0.0338
473.14	2930	0.1206	-2.6587	0.0341
473.14	2930	0.15207	-3.3405	0.0344
473.14	16940	0.04036	-0.8366	0.033
473.14	16940	0.08045	-1.6623	0.0342
473.14	16940	0.1206	-2.4872	0.0353
473.14	16940	0.15207	-3.1238	0.0364
473.16	30270	0.04036	-0.7959	0.0331
473.16	30270	0.08045	-1.578	0.0348
473.16	30270	0.1206	-2.3594	0.0365
473.16	30270	0.15207	-2.964	0.0386
473.16	30270	0.04036	-0.7944	0.0331
473.16	30270	0.08045	-1.5773	0.0348
473.16	30270	0.15207	-2.9635	0.0386
498.17	3850	0.04036	-0.9971	0.04
498.17	3850	0.07169	-1.7698	0.0404
498.17	3850	0.10863	-2.6746	0.0409
498.17	3850	0.16089	-3.9499	0.0409
498.17	17030	0.03864	-0.8858	0.0394
498.17	17030	0.07169	-1.6314	0.0405
498.17	17030	0.10863	-2.466	0.0417
498.17	17030	0.16089	-3.6363	0.0426
498.17	30290	0.03864	-0.8232	0.0393
498.17	30290	0.07169	-1.5253	0.0409
498.17	30290	0.10863	-2.3015	0.0427
498.17	30290	0.16089	-3.3944	0.0445
498.17	3850	0.04036	-0.9959	0.0401
498.17	3850	0.07169	-1.7698	0.0404
498.17	3850	0.10863	-2.6766	0.0409
498.17	3850	0.16089	-3.9508	0.0409
498.17	17030	0.03864	-0.8864	0.0394
498.17	17030	0.07169	-1.6324	0.0405
498.17	17030	0.10863	-2.4672	0.0417
498.17	17030	0.16089	-3.6379	0.0426
498.17	30290	0.03864	-0.8277	0.0393
498.17	30290	0.07169	-1.5244	0.0409
498.17	30290	0.10863	-2.3048	0.0427
498.17	30290	0.16089	-3.3978	0.0446
523.18	5550	0.03864	-1.0697	0.0493
523.18	5550	0.07169	-1.977	0.0499
523.18	5550	0.10863	-2.9883	0.0506
523.18	5550	0.16089	-4.4095	0.0516
523.18	18060	0.03864	-0.9704	0.0485
523.18	18060	0.07169	-1.7831	0.0498
523.18	18060	0.10863	-2.6941	0.0512
523.18	18060	0.16089	-3.9722	0.0533
523.18	30070	0.03864	-0.8909	0.0482
523.18	30070	0.07169	-1.6463	0.05
523.18	30070	0.10863	-2.4854	0.052
523.18	30070	0.16089	-3.6644	0.0551
523.18	5550	0.03864	-1.07	0.0493
523.18	5550	0.07169	-1.977	0.0499
523.18	5550	0.16089	-4.4097	0.0516
523.18	18060	0.03864	-0.9676	0.0486
523.18	18060	0.07169	-1.7842	0.0498
523.18	18060	0.10863	-2.6944	0.0512
523.18	18060	0.16089	-3.9731	0.0533
523.18	30070	0.03864	-0.8925	0.0482
523.18	30070	0.07169	-1.6476	0.0501
523.18	30070	0.10863	-2.4874	0.052
523.18	30070	0.16089	-3.6659	0.0551
548.17	19030	0.03864	-1.0686	0.0611
548.17	19030	0.07169	-1.9669	0.0628
548.17	19030	0.10863	-2.9725	0.0645
548.17	19030	0.16089	-4.3804	0.0674
548.17	19030	0.03864	-1.0693	0.0611
548.17	19030	0.07169	-1.9681	0.0628
548.17	19030	0.10863	-2.973	0.0645
548.17	19030	0.16089	-4.3787	0.0674
548.18	30120	0.03864	-0.9688	0.0608
548.18	30120	0.07169	-1.7886	0.0629
548.18	30120	0.10863	-2.6949	0.0651
548.18	30120	0.16089	-3.975	0.0684
548.18	30120	0.03864	-0.9678	0.0608
548.18	30120	0.07169	-1.7876	0.0629
548.18	30120	0.10863	-2.6972	0.0651
548.18	30120	0.16089	-3.9707	0.0684
548.2	8070	0.03864	-1.2062	0.0624
548.2	8070	0.07169	-2.2282	0.0634
548.2	8070	0.10863	-3.3673	0.0644
548.2	8070	0.16089	-4.9696	0.0661
548.2	8070	0.03864	-1.2081	0.0624
548.2	8070	0.07169	-2.2297	0.0634
548.2	8070	0.10863	-3.3676	0.0644
548.2	8070	0.16089	-4.9699	0.0661
573.16	10060	0.03864	-1.4389	0.0806
573.16	10060	0.07169	-2.6354	0.082
573.16	10060	0.10863	-3.9808	0.0835
573.16	10060	0.16089	-5.8775	0.0857
573.16	20050	0.03864	-1.2077	0.0785
573.16	20050	0.07788	-2.4059	0.081
573.16	20050	0.10863	-3.3473	0.0826
573.16	20050	0.15633	-4.7892	0.0865
573.16	30020	0.03864	-1.0753	0.078
573.16	30020	0.07304	-1.9981	0.0804
573.16	30020	0.10863	-2.9623	0.0829
573.16	30020	0.15633	-4.2389	0.0862
573.16	10060	0.03864	-1.4344	0.0807
573.16	10060	0.07169	-2.638	0.082
573.16	10060	0.10863	-3.9846	0.0835
573.16	10060	0.16089	-5.8752	0.0857
573.16	20050	0.03864	-1.2098	0.0785
573.16	20050	0.07788	-2.4059	0.081
573.16	20050	0.10863	-3.3472	0.0826
573.16	20050	0.15633	-4.789	0.0865
573.16	30020	0.03864	-1.0727	0.078
573.16	30020	0.07304	-2.0005	0.0804
573.16	30020	0.10863	-2.963	0.0829
573.16	30020	0.15633	-4.2388	0.0862

System: 2,5,8-trioxanonane + water; phases: Liquid
Property: Mass density, kg/m3 (Liquid); method: VIBTUB:UFactor:0.5
Temperature, K	Pressure, kPa	Molality, mol/kg of 2,5,8-trioxanonane	Mass density, kg/m3	uncertainty
298.14	15400	0.10108	0.123	0.0158
298.14	15400	0.20174	0.2792	0.0162
298.14	15400	0.29029	0.4474	0.0167
298.14	15400	0.40739	0.6986	0.0175
298.14	15400	0.10108	0.1203	0.0158
298.14	15400	0.20174	0.2785	0.0162
298.14	15400	0.29029	0.4477	0.0167
298.14	15400	0.40739	0.6981	0.0175
298.15	790	0.10108	0.196	0.0158
298.15	790	0.20174	0.4165	0.0161
298.15	790	0.29029	0.641	0.0166
298.15	790	0.40739	0.9533	0.0173
298.15	30230	0.10108	0.0555	0.0157
298.15	30230	0.20174	0.1544	0.0161
298.15	30230	0.29029	0.2699	0.0165
298.15	30230	0.40739	0.4525	0.0173
298.15	790	0.10108	0.1949	0.0158
298.15	790	0.20174	0.4171	0.0161
298.15	790	0.29029	0.6422	0.0166
298.15	790	0.40739	0.9526	0.0173
298.15	30230	0.10108	0.0554	0.0157
298.15	30230	0.20174	0.1544	0.0161
298.15	30230	0.29029	0.271	0.0165
298.15	30230	0.40739	0.4558	0.0173
318.15	780	0.10108	0.0579	0.0156
318.15	780	0.20174	0.1304	0.0158
318.15	780	0.29029	0.2116	0.0161
318.15	780	0.40739	0.3373	0.0167
318.15	15160	0.10108	0.0176	0.0156
318.15	15160	0.20174	0.054	0.0157
318.15	15160	0.29029	0.1085	0.016
318.15	15160	0.40739	0.1997	0.0166
318.15	30170	0.10108	-0.0211	0.0156
318.15	30170	0.20174	-0.0196	0.0156
318.15	30170	0.29029	0.0086	0.0157
318.15	30170	0.40739	0.0606	0.0161
318.15	780	0.10108	0.0554	0.0156
318.15	780	0.20174	0.1304	0.0158
318.15	780	0.29029	0.2134	0.0161
318.15	780	0.40739	0.3371	0.0167
318.15	15160	0.10108	0.0151	0.0156
318.15	15160	0.29029	0.1088	0.016
318.15	15160	0.40739	0.2009	0.0166
318.15	30170	0.10108	-0.0211	0.0156
318.15	30170	0.20174	-0.0192	0.0156
318.15	30170	0.29029	0.008	0.0157
318.15	30170	0.40739	0.0629	0.0162
338.17	770	0.10108	-0.0707	0.0156
338.17	770	0.20174	-0.1304	0.0158
338.17	770	0.29029	-0.1716	0.016
338.17	770	0.40739	-0.2138	0.0164
338.17	15100	0.10108	-0.0877	0.0157
338.17	15100	0.20174	-0.1602	0.0159
338.17	15100	0.29029	-0.2121	0.0162
338.17	15100	0.40739	-0.266	0.0166
338.17	30150	0.10108	-0.1057	0.0158
338.17	30150	0.20174	-0.187	0.0162
338.17	30150	0.29029	-0.2543	0.0165
338.17	30150	0.40739	-0.3211	0.0169
338.17	770	0.10108	-0.0716	0.0156
338.17	770	0.20174	-0.1318	0.0158
338.17	770	0.29029	-0.1714	0.016
338.17	770	0.40739	-0.2141	0.0164
338.17	15100	0.10108	-0.0857	0.0157
338.17	15100	0.20174	-0.1592	0.0159
338.17	15100	0.29029	-0.2114	0.0162
338.17	15100	0.40739	-0.2629	0.0166
338.17	30150	0.10108	-0.1099	0.0159
338.17	30150	0.20174	-0.1919	0.0162
338.17	30150	0.29029	-0.2552	0.0165
338.17	30150	0.40739	-0.3204	0.0169
373.14	1930	0.10108	-0.2864	0.0162
373.14	1930	0.20174	-0.5685	0.0165
373.14	1930	0.29029	-0.8074	0.0168
373.14	1930	0.40739	-1.1162	0.0174
373.14	15250	0.10108	-0.2725	0.0165
373.14	15250	0.20174	-0.5399	0.017
373.14	15250	0.29029	-0.767	0.0175
373.14	15250	0.40739	-1.058	0.0182
373.14	30120	0.10108	-0.2683	0.0167
373.14	30120	0.20174	-0.5221	0.0175
373.14	30120	0.29029	-0.7368	0.0182
373.14	30120	0.40739	-1.01	0.0191
373.14	1930	0.10108	-0.2889	0.0162
373.14	1930	0.29029	-0.8079	0.0168
373.14	1930	0.40739	-1.1175	0.0174
373.14	15250	0.10108	-0.2755	0.0165
373.14	15250	0.20174	-0.5426	0.017
373.14	15250	0.29029	-0.7679	0.0175
373.14	15250	0.40739	-1.0587	0.0182
373.14	30120	0.10108	-0.2668	0.0167
373.14	30120	0.20174	-0.5214	0.0175
373.14	30120	0.29029	-0.7361	0.0182
373.14	30120	0.40739	-1.0114	0.0191
408.13	1930	0.10108	-0.5068	0.0179
408.13	1930	0.20174	-1.0017	0.0183
408.13	1930	0.29029	-1.4333	0.0187
408.13	1930	0.40739	-1.9981	0.0193
408.13	1930	0.10108	-0.508	0.0179
408.13	1930	0.20174	-1.0019	0.0183
408.13	1930	0.29029	-1.4337	0.0187
408.13	1930	0.40739	-2.0005	0.0193
408.13	1930	0.20174	-1.0012	0.0183
408.13	1930	0.29029	-1.4346	0.0187
408.13	1930	0.40739	-1.9997	0.0193
408.14	15010	0.10079	-0.4529	0.0182
408.14	15010	0.19765	-0.881	0.0189
408.14	15010	0.28976	-1.3082	0.0197
408.14	15010	0.39647	-1.7853	0.0207
408.14	29640	0.10079	-0.4191	0.0185
408.14	29640	0.19765	-0.8171	0.0196
408.14	29640	0.28976	-1.2088	0.0208
408.14	29640	0.39647	-1.6432	0.022
408.14	15010	0.10079	-0.454	0.0182
408.14	15010	0.19765	-0.8838	0.0189
408.14	15010	0.28976	-1.3114	0.0197
408.14	15010	0.39647	-1.7865	0.0207
408.14	29640	0.10079	-0.4176	0.0185
408.14	29640	0.19765	-0.8166	0.0196
408.14	29640	0.28976	-1.2092	0.0208
408.14	29640	0.39647	-1.6457	0.022
443.01	1930	0.10079	-0.7239	0.0214
443.01	1930	0.19765	-1.4173	0.0218
443.01	1930	0.28976	-2.0757	0.0223
443.01	1930	0.39647	-2.8314	0.023
443.01	15220	0.10079	-0.6593	0.0218
443.01	15220	0.19765	-1.2835	0.0228
443.01	15220	0.28976	-1.8811	0.0238
443.01	15220	0.39647	-2.5649	0.025
443.01	29870	0.10079	-0.5929	0.0221
443.01	29870	0.19765	-1.1562	0.0237
443.01	29870	0.28976	-1.6933	0.0251
443.01	29870	0.39647	-2.3017	0.0268
443.01	1930	0.10079	-0.7276	0.0214
443.01	1930	0.19765	-1.4195	0.0218
443.01	1930	0.28976	-2.0785	0.0223
443.01	1930	0.39647	-2.8325	0.023
443.01	15220	0.10079	-0.6552	0.0218
443.01	15220	0.19765	-1.2823	0.0228
443.01	15220	0.28976	-1.8848	0.0238
443.01	15220	0.39647	-2.5609	0.025
443.01	29870	0.10079	-0.5949	0.0221
443.01	29870	0.19765	-1.1595	0.0237
443.01	29870	0.28976	-1.6995	0.0251
443.01	29870	0.39647	-2.3012	0.0268
443.01	15220	0.10079	-0.6541	0.0218
443.01	15220	0.19765	-1.2801	0.0228
443.01	15220	0.28976	-1.8779	0.0238
443.01	15220	0.39647	-2.5599	0.025
443.01	29870	0.19765	-1.157	0.0237
443.01	29870	0.28976	-1.694	0.0251
443.01	29870	0.39647	-2.3087	0.0268
443.01	15220	0.10079	-0.6554	0.0218
443.01	15220	0.19765	-1.2855	0.0228
443.01	15220	0.28976	-1.8797	0.0238
443.01	15220	0.39647	-2.5638	0.025
443.01	15220	0.19765	-1.2898	0.0228
443.01	15220	0.28976	-1.8808	0.0238
443.01	15220	0.39647	-2.5658	0.025
473.21	3260	0.10079	-0.9284	0.0268
473.21	3260	0.19765	-1.8139	0.0274
473.21	3260	0.28976	-2.658	0.0281
473.21	3260	0.39647	-3.6159	0.0289
473.21	15180	0.10079	-0.8333	0.0271
473.21	15180	0.19765	-1.6213	0.0284
473.21	15180	0.28976	-2.3825	0.0296
473.21	15180	0.39647	-3.2352	0.031
473.21	3260	0.10079	-0.9308	0.0268
473.21	3260	0.19765	-1.8138	0.0274
473.21	3260	0.28976	-2.6576	0.0281
473.21	3260	0.39647	-3.6153	0.0289
473.21	15180	0.10079	-0.8355	0.0271
473.21	15180	0.19765	-1.6224	0.0284
473.21	15180	0.28976	-2.3836	0.0296
473.21	15180	0.39647	-3.2365	0.031
473.23	30340	0.10079	-0.7293	0.0275
473.23	30340	0.19765	-1.4282	0.0294
473.23	30340	0.28976	-2.0947	0.0312
473.23	30340	0.39647	-2.8456	0.0333
473.23	30340	0.10079	-0.7329	0.0275
473.23	30340	0.19765	-1.4296	0.0294
473.23	30340	0.28976	-2.0979	0.0312
473.23	30340	0.39647	-2.8481	0.0333
498.18	15160	0.10079	-0.9917	0.0338
498.18	15160	0.19765	-1.9267	0.0353
498.18	15160	0.28976	-2.8306	0.0367
498.18	15160	0.39647	-3.8395	0.0385
498.18	15160	0.10079	-0.9955	0.0338
498.18	15160	0.19765	-1.9311	0.0353
498.18	15160	0.28976	-2.833	0.0368
498.18	15160	0.39647	-3.842	0.0385
498.19	3990	0.10079	-1.1197	0.0335
498.19	3990	0.19765	-2.1812	0.0343
498.19	3990	0.28976	-3.2062	0.0351
498.19	3990	0.39647	-4.3542	0.0361
498.19	3990	0.10079	-1.1238	0.0335
498.19	3990	0.19765	-2.1852	0.0343
498.19	3990	0.28976	-3.2092	0.0351
498.19	3990	0.39647	-4.3565	0.0361
498.2	30050	0.09944	-0.8477	0.0342
498.2	30050	0.19809	-1.675	0.0364
498.2	30050	0.29621	-2.4776	0.0386
498.2	30050	0.3975	-3.2938	0.0408
498.2	30050	0.09944	-0.8519	0.0342
498.2	30050	0.19809	-1.6805	0.0364
498.2	30050	0.29621	-2.4837	0.0386
498.2	30050	0.3975	-3.2993	0.0408
523.17	30100	0.08008	-0.7771	0.0433
523.17	30100	0.15298	-1.4819	0.0452
523.17	30100	0.226	-2.1759	0.0471
523.17	30100	0.32363	-3.0897	0.0496
523.17	30100	0.08008	-0.7787	0.0433
523.17	30100	0.15298	-1.479	0.0452
523.17	30100	0.226	-2.1723	0.0471
523.17	30100	0.32363	-3.09	0.0496
523.18	5830	0.08008	-1.0548	0.043
523.18	5830	0.15298	-2.0083	0.0439
523.18	5830	0.226	-2.9547	0.0448
523.18	5830	0.32363	-4.2059	0.0457
523.18	16180	0.08008	-0.9163	0.0431
523.18	16180	0.15298	-1.7427	0.0445
523.18	16180	0.226	-2.5614	0.0457
523.18	16180	0.32363	-3.6416	0.0477
523.18	5830	0.08008	-1.0539	0.043
523.18	5830	0.15298	-2.0074	0.0439
523.18	5830	0.226	-2.9537	0.0448
523.18	5830	0.32363	-4.2041	0.0457
523.18	16180	0.08008	-0.9162	0.0431
523.18	16180	0.15298	-1.7439	0.0445
523.18	16180	0.226	-2.5614	0.0457
523.18	16180	0.32363	-3.6434	0.0477
548.17	30060	0.08008	-0.8942	0.0565
548.17	30060	0.15298	-1.6923	0.0586
548.17	30060	0.226	-2.4791	0.0607
548.17	30060	0.32363	-3.5128	0.0636
548.17	30060	0.08008	-0.8936	0.0565
548.17	30060	0.15298	-1.6911	0.0586
548.17	30060	0.226	-2.4792	0.0607
548.17	30060	0.32363	-3.5146	0.0636
548.18	19040	0.08008	-1.0433	0.0563
548.18	19040	0.15298	-1.9788	0.0581
548.18	19040	0.226	-2.9033	0.0599
548.18	19040	0.32363	-4.1228	0.0624
548.18	19040	0.08008	-1.0428	0.0563
548.18	19040	0.15298	-1.9783	0.0581
548.18	19040	0.226	-2.9037	0.0599
548.18	19040	0.32363	-4.1219	0.0624
548.2	8020	0.08008	-1.2601	0.0565
548.2	8020	0.15298	-2.3952	0.0578
548.2	8020	0.226	-3.5224	0.0591
548.2	8020	0.32363	-5.0084	0.061
548.2	8020	0.08008	-1.2599	0.0565
548.2	8020	0.15298	-2.3955	0.0578
548.2	8020	0.226	-3.5227	0.0591
548.2	8020	0.32363	-5.0062	0.061
573.16	10060	0.08008	-1.5706	0.0747
573.16	10060	0.15298	-2.9765	0.0765
573.16	10060	0.226	-4.3766	0.0782
573.16	10060	0.32363	-6.2181	0.0808
573.16	20020	0.08008	-1.2333	0.0742
573.16	20020	0.15298	-2.3384	0.0764
573.16	20020	0.226	-3.4207	0.0785
573.16	20020	0.32363	-4.8466	0.0819
573.16	30030	0.08008	-1.0248	0.0742
573.16	30030	0.15298	-1.9334	0.0766
573.16	30030	0.226	-2.8253	0.079
573.16	30030	0.32363	-3.9992	0.0823
573.16	10060	0.08008	-1.5682	0.0747
573.16	10060	0.15298	-2.9796	0.0765
573.16	10060	0.226	-4.377	0.0782
573.16	10060	0.32363	-6.2177	0.0808
573.16	20020	0.08008	-1.2342	0.0742
573.16	20020	0.15298	-2.3344	0.0764
573.16	20020	0.226	-3.4107	0.0785
573.16	20020	0.32363	-4.853	0.0819
573.16	30030	0.08008	-1.0223	0.0742
573.16	30030	0.15298	-1.9319	0.0766
573.16	30030	0.226	-2.8259	0.079
573.16	30030	0.32363	-4.0044	0.0823

System: 2-(2-methoxyethoxy)ethanol + water; phases: Liquid
Property: Mass density, kg/m3 (Liquid); method: VIBTUB:UFactor:0.5
Temperature, K	Pressure, kPa	Molality, mol/kg of 2-(2-methoxyethoxy)ethanol	Mass density, kg/m3	uncertainty
298.15	780	0.10167	0.7991	0.017
298.15	780	0.31222	2.4548	0.0187
298.15	780	0.39738	3.1256	0.0192
298.15	15400	0.10167	0.7367	0.0176
298.15	15400	0.31222	2.2865	0.0207
298.15	15400	0.39738	2.9134	0.0217
298.15	30240	0.10167	0.6786	0.0182
298.15	30240	0.31222	2.1219	0.0225
298.15	30240	0.39738	2.7111	0.0241
298.15	780	0.31222	2.4491	0.0187
298.15	780	0.39738	3.1217	0.0192
298.15	15400	0.10167	0.7358	0.0176
298.15	15400	0.31222	2.2878	0.0207
298.15	15400	0.39738	2.9136	0.0217
298.15	30240	0.10167	0.6797	0.0182
298.15	30240	0.31222	2.1192	0.0225
298.15	30240	0.39738	2.7088	0.0241
318.15	770	0.09785	0.6653	0.0175
318.15	770	0.10167	0.694	0.018
318.15	770	0.31222	2.1137	0.018
318.15	770	0.39738	2.6839	0.0185
318.15	15160	0.10167	0.6573	0.0175
318.15	15160	0.31222	2.0181	0.0199
318.15	15160	0.39738	2.5641	0.0208
318.15	30170	0.10167	0.6211	0.018
318.15	30170	0.31222	1.9193	0.0217
318.15	30170	0.39738	2.4432	0.0231
318.15	770	0.09785	0.6646	0.0176
318.15	770	0.10167	0.6927	0.018
318.15	770	0.31222	2.113	0.018
318.15	770	0.39738	2.6835	0.0185
318.15	15160	0.10167	0.6566	0.0175
318.15	15160	0.31222	2.0172	0.0199
318.15	15160	0.39738	2.5636	0.0208
318.15	30170	0.10167	0.6246	0.0181
318.15	30170	0.31222	1.9222	0.0217
318.15	30170	0.39738	2.4448	0.0232
338.17	770	0.09785	0.5724	0.0172
338.17	770	0.10167	0.6014	0.0181
338.17	770	0.1975	1.1627	0.0171
338.17	770	0.31222	1.8227	0.0175
338.17	770	0.39738	2.3086	0.0179
338.17	15110	0.09785	0.5584	0.0179
338.17	15110	0.10167	0.5853	0.0179
338.17	15110	0.1975	1.1265	0.0182
338.17	15110	0.31222	1.7765	0.0193
338.17	15110	0.39738	2.25	0.0201
338.17	30130	0.09785	0.541	0.0181
338.17	30130	0.10167	0.5656	0.0182
338.17	30130	0.1975	1.0911	0.0193
338.17	30130	0.31222	1.7174	0.021
338.17	30130	0.39738	2.1864	0.0223
338.17	770	0.09785	0.5721	0.0172
338.17	770	0.10167	0.6015	0.0181
338.17	770	0.1975	1.1581	0.0171
338.17	770	0.31222	1.8234	0.0175
338.17	770	0.39738	2.309	0.0179
338.17	15110	0.09785	0.5574	0.018
338.17	15110	0.10167	0.5861	0.0179
338.17	15110	0.1975	1.1258	0.0182
338.17	15110	0.31222	1.7777	0.0193
338.17	15110	0.39738	2.2524	0.0201
338.17	30130	0.09785	0.5404	0.0181
338.17	30130	0.10167	0.5668	0.0182
338.17	30130	0.1975	1.0916	0.0193
338.17	30130	0.31222	1.7258	0.021
338.17	30130	0.39738	2.1854	0.0223
373.14	1900	0.10167	0.4542	0.0167
373.14	1900	0.19445	0.8715	0.0169
373.14	1900	0.31222	1.3635	0.0172
373.14	1900	0.39738	1.7163	0.0175
373.14	15250	0.10167	0.4586	0.0171
373.14	15250	0.19445	0.8791	0.0178
373.14	15250	0.31222	1.3753	0.0186
373.14	15250	0.39738	1.7358	0.0192
373.14	30120	0.10167	0.4583	0.0176
373.14	30120	0.19445	0.8777	0.0187
373.14	30120	0.31222	1.3784	0.0201
373.14	30120	0.39738	1.7422	0.0211
373.14	1900	0.10167	0.4526	0.0167
373.14	1900	0.19445	0.8681	0.0169
373.14	1900	0.31222	1.3612	0.0172
373.14	1900	0.39738	1.7141	0.0175
373.14	15250	0.10167	0.4579	0.0171
373.14	15250	0.19445	0.8788	0.0178
373.14	15250	0.31222	1.3747	0.0186
373.14	15250	0.39738	1.7348	0.0192
373.14	30120	0.10167	0.4574	0.0176
373.14	30120	0.19445	0.8811	0.0187
373.14	30120	0.31222	1.38	0.0201
373.14	30120	0.39738	1.7414	0.0211
408.13	1940	0.10167	0.3121	0.0173
408.13	1940	0.19445	0.5898	0.0175
408.13	1940	0.31222	0.9323	0.0178
408.13	1940	0.39738	1.1702	0.018
408.13	1940	0.10167	0.3113	0.0173
408.13	1940	0.19445	0.5888	0.0175
408.13	1940	0.31222	0.9328	0.0178
408.13	1940	0.39738	1.1694	0.018
408.13	1940	0.10167	0.3115	0.0173
408.13	1940	0.19445	0.589	0.0175
408.13	1940	0.31222	0.9326	0.0178
408.13	1940	0.39738	1.17	0.018
408.14	15010	0.10349	0.3433	0.0177
408.14	15010	0.20035	0.6519	0.0182
408.14	15010	0.29983	0.9588	0.0187
408.14	15010	0.3996	1.2522	0.0193
408.14	29640	0.10349	0.3576	0.0182
408.14	29640	0.20035	0.6831	0.0191
408.14	29640	0.29983	1.0049	0.0199
408.14	29640	0.3996	1.3227	0.0208
408.14	15010	0.10349	0.3414	0.0177
408.14	15010	0.20035	0.6494	0.0182
408.14	15010	0.29983	0.9577	0.0187
408.14	15010	0.3996	1.2507	0.0193
408.14	29640	0.10349	0.3589	0.0182
408.14	29640	0.20035	0.684	0.0191
408.14	29640	0.29983	1.0039	0.0199
408.14	29640	0.3996	1.3226	0.0208
443.01	1940	0.10349	0.18	0.0199
443.01	1940	0.1975	0.33	0.02
443.01	1940	0.20035	0.3329	0.02
443.01	1940	0.29983	0.4883	0.0202
443.01	1940	0.3996	0.6383	0.0204
443.01	15240	0.09785	0.2071	0.0201
443.01	15240	0.10349	0.2153	0.0202
443.01	15240	0.1975	0.4102	0.0208
443.01	15240	0.20035	0.4091	0.0204
443.01	15240	0.29983	0.6016	0.0208
443.01	15240	0.3996	0.7953	0.0212
443.01	29850	0.09403	0.233	0.0205
443.01	29850	0.10349	0.2487	0.0205
443.01	29850	0.20035	0.4823	0.0211
443.01	29850	0.20563	0.4935	0.0212
443.01	29850	0.29983	0.7079	0.0218
443.01	29850	0.3996	0.9357	0.0225
443.01	1940	0.10349	0.18	0.0199
443.01	1940	0.1975	0.3299	0.02
443.01	1940	0.20035	0.3328	0.02
443.01	1940	0.29983	0.4898	0.0202
443.01	1940	0.3996	0.6365	0.0204
443.01	15240	0.09785	0.2088	0.0201
443.01	15240	0.10349	0.2234	0.0202
443.01	15240	0.1975	0.41	0.0208
443.01	15240	0.20035	0.4132	0.0204
443.01	15240	0.29983	0.6051	0.0209
443.01	15240	0.3996	0.7964	0.0212
443.01	29850	0.09403	0.2373	0.0205
443.01	29850	0.10349	0.2559	0.0206
443.01	29850	0.20035	0.4791	0.0211
443.01	29850	0.20563	0.4925	0.0212
443.01	29850	0.29983	0.7084	0.0218
443.01	29850	0.3996	0.931	0.0225
443.01	15240	0.09785	0.2074	0.0201
443.01	15240	0.10349	0.2205	0.0202
443.01	15240	0.20035	0.4155	0.0204
443.01	15240	0.29983	0.6066	0.0209
443.01	15240	0.3996	0.7964	0.0212
443.01	29850	0.10349	0.2543	0.0206
443.01	29850	0.20035	0.4872	0.0211
443.01	29850	0.29983	0.7029	0.0218
443.01	29850	0.3996	0.9394	0.0225
443.01	15240	0.10349	0.2224	0.0202
443.01	15240	0.20035	0.4135	0.0204
443.01	15240	0.29983	0.6069	0.0209
443.01	15240	0.3996	0.8007	0.0212
443.01	15240	0.10349	0.2179	0.0202
443.01	15240	0.29983	0.6044	0.0209
443.01	15240	0.3996	0.7943	0.0212
473.21	3260	0.09403	0.0545	0.0246
473.21	3260	0.10349	0.0636	0.0246
473.21	3260	0.20035	0.1154	0.0246
473.21	3260	0.20563	0.1128	0.0246
473.21	3260	0.29983	0.1579	0.0247
473.21	3260	0.3996	0.1917	0.0248
473.21	3260	0.09403	0.0553	0.0246
473.21	3260	0.10349	0.0651	0.0246
473.21	3260	0.20035	0.1081	0.0247
473.21	3260	0.20563	0.1139	0.0247
473.21	3260	0.29983	0.1582	0.0247
473.21	3260	0.3996	0.1979	0.0249
473.21	3260	0.09403	0.0547	0.0246
473.21	3260	0.20563	0.1146	0.0247
473.22	15180	0.09403	0.1076	0.0247
473.22	15180	0.10349	0.1175	0.0247
473.22	15180	0.20035	0.2206	0.025
473.22	15180	0.20563	0.2258	0.0249
473.22	15180	0.29983	0.321	0.0251
473.22	15180	0.3996	0.4127	0.0253
473.22	30350	0.09403	0.1613	0.025
473.22	30350	0.10349	0.174	0.0251
473.22	30350	0.20035	0.3315	0.0255
473.22	30350	0.20563	0.3396	0.0256
473.22	30350	0.29983	0.484	0.0259
473.22	30350	0.3996	0.6301	0.0264
473.22	15180	0.09403	0.1073	0.0247
473.22	15180	0.10349	0.1185	0.0247
473.22	15180	0.20035	0.2213	0.025
473.22	15180	0.20563	0.2247	0.0249
473.22	15180	0.29983	0.32	0.0251
473.22	15180	0.3996	0.4123	0.0253
473.22	30350	0.09403	0.1593	0.025
473.22	30350	0.10349	0.1731	0.0251
473.22	30350	0.20035	0.3326	0.0255
473.22	30350	0.20563	0.3387	0.0256
473.22	30350	0.29983	0.4825	0.0259
473.22	30350	0.3996	0.6285	0.0264
498.19	15160	0.09403	0.0271	0.031
498.19	15160	0.10349	0.0412	0.031
498.19	15160	0.20035	0.0529	0.031
498.19	15160	0.29983	0.076	0.031
498.19	15160	0.3996	0.0867	0.0311
498.19	15160	0.09403	0.0266	0.031
498.19	15160	0.10349	0.0434	0.031
498.19	15160	0.20035	0.0529	0.031
498.19	15160	0.29983	0.0746	0.031
498.19	15160	0.3996	0.0849	0.0311
498.2	3960	0.09403	-0.0438	0.0309
498.2	3960	0.10349	-0.0301	0.0309
498.2	3960	0.20035	-0.094	0.031
498.2	3960	0.29983	-0.1417	0.0311
498.2	3960	0.3996	-0.2033	0.0312
498.2	30150	0.09403	0.1101	0.0317
498.2	30150	0.09779	0.1245	0.0317
498.2	30150	0.20563	0.2185	0.0315
498.2	30150	0.30393	0.3065	0.0317
498.2	30150	0.39703	0.4039	0.032
498.2	3960	0.09403	-0.0421	0.0309
498.2	3960	0.10349	-0.033	0.0309
498.2	3960	0.20035	-0.0908	0.031
498.2	3960	0.3996	-0.2045	0.0312
498.2	30150	0.09403	0.1041	0.0318
498.2	30150	0.09779	0.1282	0.0319
498.2	30150	0.20563	0.2221	0.0315
498.2	30150	0.30393	0.3088	0.0318
498.2	30150	0.39703	0.3938	0.032
498.2	30150	0.09403	0.1065	0.0318
498.2	30150	0.09403	0.1065	0.0318
523.17	30100	0.09295	0.0416	0.0402
523.17	30100	0.17472	0.0769	0.0403
523.17	30100	0.28273	0.1288	0.0405
523.17	30100	0.36882	0.1643	0.0406
523.17	30100	0.09295	0.042	0.0402
523.17	30100	0.17472	0.0788	0.0403
523.17	30100	0.28273	0.1283	0.0405
523.18	5830	0.09295	-0.131	0.0402
523.18	5830	0.17472	-0.2517	0.0404
523.18	5830	0.28273	-0.4096	0.0405
523.18	5830	0.36882	-0.5314	0.0407
523.18	16180	0.09295	-0.0454	0.0402
523.18	16180	0.17472	-0.082	0.0402
523.18	16180	0.28273	-0.1402	0.0404
523.18	16180	0.36882	-0.1826	0.0405
523.18	5830	0.09295	-0.1306	0.0402
523.18	5830	0.17472	-0.2501	0.0404
523.18	5830	0.28273	-0.4088	0.0405
523.18	5830	0.36882	-0.5326	0.0407
523.18	16180	0.09295	-0.0463	0.0402
523.18	16180	0.17472	-0.0819	0.0402
523.18	16180	0.28273	-0.1402	0.0404
523.18	16180	0.36882	-0.1836	0.0405
548.17	30050	0.09295	-0.021	0.053
548.17	30050	0.17472	-0.0173	0.053
548.17	30050	0.28273	-0.0265	0.0531
548.17	30050	0.36882	-0.0307	0.0531
548.17	30050	0.09295	-0.0137	0.053
548.17	30050	0.17472	-0.0208	0.053
548.17	30050	0.28273	-0.0258	0.0531
548.17	30050	0.36882	-0.0289	0.0531
548.18	19040	0.09295	-0.1069	0.0532
548.18	19040	0.17472	-0.1957	0.0533
548.18	19040	0.28273	-0.3106	0.0536
548.18	19040	0.36882	-0.3973	0.0538
548.18	19040	0.09295	-0.106	0.0532
548.18	19040	0.17472	-0.196	0.0534
548.18	19040	0.28273	-0.3108	0.0536
548.18	19040	0.36882	-0.3996	0.0538
548.2	8020	0.09295	-0.2418	0.0533
548.2	8020	0.17472	-0.4513	0.0535
548.2	8020	0.28273	-0.7215	0.0539
548.2	8020	0.36882	-0.9331	0.0542
548.2	8020	0.17472	-0.4505	0.0535
548.2	8020	0.28273	-0.7219	0.0539
548.2	8020	0.36882	-0.9337	0.0542
573.16	10070	0.09295	-0.3925	0.0709
573.16	10070	0.17472	-0.7179	0.0713
573.16	10070	0.28273	-1.1431	0.0719
573.16	10070	0.36882	-1.4728	0.0724
573.16	20030	0.09295	-0.1929	0.0707
573.16	20030	0.17472	-0.3467	0.071
573.16	20030	0.28273	-0.5446	0.0715
573.16	20030	0.36882	-0.6965	0.0719
573.16	30040	0.09295	-0.0612	0.0705
573.16	30040	0.17472	-0.1114	0.0706
573.16	30040	0.28273	-0.165	0.0708
573.16	30040	0.36882	-0.2026	0.0709
573.16	10070	0.17472	-0.7179	0.0713
573.16	10070	0.28273	-1.1448	0.0719
573.16	10070	0.36882	-1.4727	0.0724
573.16	20030	0.09295	-0.196	0.0707
573.16	20030	0.17472	-0.3464	0.071
573.16	20030	0.28273	-0.5431	0.0715
573.16	20030	0.36882	-0.6948	0.0719
573.16	30040	0.09295	-0.0649	0.0705
573.16	30040	0.17472	-0.1112	0.0706
573.16	30040	0.28273	-0.163	0.0708
573.16	30040	0.36882	-0.2068	0.0709

System: 1,2-dimethoxyethane + water; phases: Liquid
Property: Mass density, kg/m3 (Liquid); method: VIBTUB:UFactor:0.5
Temperature, K	Pressure, kPa	Molality, mol/kg of 1,2-dimethoxyethane	Mass density, kg/m3	uncertainty
298.15	780	0.09831	-0.5322	0.0165
298.15	780	0.19694	-1.0202	0.0167
298.15	780	0.29327	-1.4707	0.017
298.15	780	0.39681	-1.941	0.0173
298.15	15430	0.09831	-0.5739	0.0173
298.15	15430	0.19694	-1.1101	0.0181
298.15	15430	0.29327	-1.6026	0.0188
298.15	15430	0.39681	-2.1085	0.0197
298.15	30190	0.09831	-0.6171	0.0181
298.15	30190	0.19694	-1.1908	0.0196
298.15	30190	0.29327	-1.7197	0.0209
298.15	30190	0.39681	-2.2606	0.0224
298.15	780	0.09831	-0.531	0.0165
298.15	780	0.19694	-1.0199	0.0167
298.15	780	0.29327	-1.4707	0.017
298.15	780	0.39681	-1.9296	0.0173
298.15	15430	0.09831	-0.5749	0.0173
298.15	15430	0.19694	-1.1103	0.0181
298.15	15430	0.29327	-1.6006	0.0188
298.15	15430	0.39681	-2.1197	0.0197
298.15	30190	0.09831	-0.6028	0.0182
298.15	30190	0.19694	-1.1898	0.0196
298.15	30190	0.29327	-1.7153	0.0209
298.15	30190	0.39681	-2.2633	0.0224
318.15	790	0.09831	-0.6059	0.0168
318.15	790	0.19694	-1.1846	0.0171
318.15	790	0.29327	-1.728	0.0174
318.15	790	0.39681	-2.29	0.0178
318.15	15140	0.09831	-0.631	0.0176
318.15	15140	0.19694	-1.2331	0.0185
318.15	15140	0.29327	-1.798	0.0193
318.15	15140	0.39681	-2.3905	0.0203
318.15	30160	0.09831	-0.6586	0.0184
318.15	30160	0.19694	-1.2709	0.02
318.15	30160	0.29327	-1.8683	0.0215
318.15	30160	0.39681	-2.4801	0.0231
318.15	790	0.09831	-0.598	0.0168
318.15	790	0.19694	-1.1879	0.0171
318.15	790	0.29327	-1.7212	0.0174
318.15	790	0.39681	-2.3028	0.0178
318.15	15140	0.09831	-0.631	0.0176
318.15	15140	0.19694	-1.2317	0.0185
318.15	15140	0.29327	-1.7972	0.0193
318.15	15140	0.39681	-2.4017	0.0203
318.15	30160	0.09831	-0.6558	0.0184
318.15	30160	0.19694	-1.2826	0.02
318.15	30160	0.29327	-1.8696	0.0215
318.15	30160	0.39681	-2.4941	0.0232
338.17	770	0.09831	-0.6886	0.0172
338.17	770	0.19694	-1.3574	0.0176
338.17	770	0.29327	-1.9936	0.0179
338.17	770	0.39681	-2.6648	0.0183
338.17	15080	0.09831	-0.6938	0.018
338.17	15080	0.19694	-1.3692	0.019
338.17	15080	0.29327	-2.0103	0.0199
338.17	15080	0.39681	-2.685	0.021
338.17	30140	0.09831	-0.7025	0.0187
338.17	30140	0.19694	-1.3828	0.0205
338.17	30140	0.29327	-2.035	0.0222
338.17	30140	0.39681	-2.712	0.024
338.17	770	0.09831	-0.6875	0.0172
338.17	770	0.19694	-1.3567	0.0176
338.17	770	0.29327	-1.9927	0.0179
338.17	770	0.39681	-2.6664	0.0183
338.17	15080	0.09831	-0.6937	0.018
338.17	15080	0.19694	-1.3686	0.019
338.17	15080	0.29327	-2.0124	0.0199
338.17	30140	0.09831	-0.7041	0.0187
338.17	30140	0.19694	-1.3873	0.0205
338.17	30140	0.29327	-2.0343	0.0222
373.14	1970	0.09831	-0.8424	0.0183
373.14	1970	0.19694	-1.6729	0.0188
373.14	1970	0.29327	-2.4715	0.0192
373.14	1970	0.39681	-3.3131	0.0198
373.14	15230	0.09831	-0.8314	0.019
373.14	15230	0.19694	-1.6458	0.0202
373.14	15230	0.29327	-2.4314	0.0213
373.14	15230	0.39681	-3.2542	0.0226
373.14	30110	0.09831	-0.8171	0.0198
373.14	30110	0.19694	-1.6193	0.0218
373.14	30110	0.29327	-2.39	0.0238
373.14	30110	0.39681	-3.204	0.026
373.14	1970	0.09831	-0.8432	0.0183
373.14	1970	0.19694	-1.6729	0.0188
373.14	1970	0.29327	-2.4699	0.0192
373.14	1970	0.39681	-3.3119	0.0198
373.14	15230	0.09831	-0.8295	0.019
373.14	15230	0.19694	-1.6462	0.0202
373.14	15230	0.29327	-2.4291	0.0213
373.14	15230	0.39681	-3.254	0.0226
373.14	30110	0.09831	-0.8175	0.0198
373.14	30110	0.19694	-1.6186	0.0218
373.14	30110	0.29327	-2.3913	0.0238
408.14	1800	0.09682	-0.9978	0.0202
408.14	1800	0.20132	-2.06	0.0207
408.14	1800	0.29356	-2.9888	0.0212
408.14	1800	0.39681	-4.0056	0.0218
408.14	15020	0.09682	-0.9661	0.0208
408.14	15020	0.20132	-1.9844	0.0223
408.14	15020	0.29356	-2.8796	0.0235
408.14	15020	0.39681	-3.8421	0.0253
408.14	29680	0.09682	-0.9317	0.0216
408.14	29680	0.20132	-1.92	0.024
408.14	29680	0.29356	-2.7774	0.0261
408.14	29680	0.38944	-3.6532	0.0284
408.14	1800	0.09682	-0.9986	0.0202
408.14	1800	0.20132	-2.0593	0.0207
408.14	1800	0.29356	-2.9874	0.0212
408.14	1800	0.39681	-4.0049	0.0218
408.14	15020	0.09682	-0.9656	0.0208
408.14	15020	0.20132	-1.985	0.0223
408.14	15020	0.29356	-2.8791	0.0235
408.14	15020	0.39681	-3.8395	0.0252
408.14	29680	0.09682	-0.9328	0.0216
408.14	29680	0.20132	-1.9175	0.024
408.14	29680	0.29356	-2.7806	0.0262
408.14	29680	0.38944	-3.6554	0.0284
408.14	15020	0.09682	-0.9659	0.0208
408.14	15020	0.20132	-1.9855	0.0223
408.14	15020	0.39681	-3.8404	0.0252
408.14	29680	0.20132	-1.9189	0.024
408.14	29680	0.29356	-2.7814	0.0262
408.14	29680	0.38944	-3.6512	0.0284
443	15290	0.09682	-1.121	0.0244
443	15290	0.20132	-2.3234	0.0261
443	15290	0.29356	-3.3665	0.0276
443	15290	0.38944	-4.4393	0.0293
443	15290	0.20132	-2.3209	0.0261
443	15290	0.29356	-3.366	0.0276
443	15290	0.38944	-4.4436	0.0293
443	15290	0.38944	-4.4474	0.0293
443	15290	0.38944	-4.4446	0.0293
443.01	1930	0.09682	-1.1844	0.0237
443.01	1930	0.20132	-2.4458	0.0243
443.01	1930	0.29356	-3.5547	0.0249
443.01	1930	0.38944	-4.6963	0.0256
443.01	29870	0.09682	-1.0589	0.0251
443.01	29870	0.20132	-2.2056	0.0279
443.01	29870	0.29356	-3.1833	0.0304
443.01	29870	0.38944	-4.2277	0.0332
443.01	1930	0.09682	-1.1823	0.0237
443.01	1930	0.20132	-2.4483	0.0243
443.01	1930	0.29356	-3.5554	0.0249
443.01	1930	0.38944	-4.7008	0.0257
443.01	29870	0.09682	-1.0614	0.0251
443.01	29870	0.20132	-2.1995	0.0279
443.01	29870	0.29356	-3.194	0.0304
443.01	29870	0.38944	-4.2211	0.0331
443.01	29870	0.09682	-1.068	0.0251
443.01	29870	0.20132	-2.1972	0.0279
473.23	3250	0.09682	-1.3545	0.029
473.23	3250	0.20132	-2.8086	0.0299
473.23	3250	0.29356	-4.0791	0.0307
473.23	15210	0.09682	-1.2713	0.0295
473.23	15210	0.20132	-2.6358	0.0315
473.23	15210	0.29356	-3.8246	0.0334
473.23	30310	0.09682	-1.187	0.0303
473.23	30310	0.20132	-2.4549	0.0335
473.23	30310	0.29356	-3.5649	0.0364
473.23	3250	0.09682	-1.3544	0.029
473.23	3250	0.20132	-2.809	0.0299
473.23	3250	0.29356	-4.0814	0.0307
473.23	15210	0.09682	-1.273	0.0295
473.23	15210	0.20132	-2.6343	0.0315
473.23	15210	0.29356	-3.8254	0.0334
473.23	30310	0.09682	-1.1847	0.0303
473.23	30310	0.20132	-2.4529	0.0335
473.23	30310	0.29356	-3.5631	0.0364
498.19	30230	0.09682	-1.2926	0.0372
498.19	30230	0.0993	-1.3278	0.0373
498.19	30230	0.19469	-2.5916	0.0403
498.19	30230	0.20132	-2.6808	0.0405
498.19	30230	0.29356	-3.8912	0.0432
498.19	30230	0.29408	-3.8973	0.0432
498.19	30230	0.40752	-5.3697	0.0475
498.19	30230	0.09682	-1.2933	0.0371
498.19	30230	0.0993	-1.3297	0.0376
498.19	30230	0.19469	-2.594	0.0402
498.19	30230	0.20132	-2.68	0.0405
498.19	30230	0.29356	-3.8893	0.0443
498.19	30230	0.29408	-3.8957	0.0425
498.19	30230	0.40752	-5.3703	0.0475
498.19	30230	0.40752	-5.3654	0.0475
498.19	30230	0.40752	-5.3637	0.0474
498.2	3900	0.09682	-1.5276	0.0356
498.2	3900	0.20132	-3.171	0.0367
498.2	3900	0.29356	-4.6059	0.0376
498.2	3900	0.40752	-6.3631	0.0388
498.2	15140	0.09682	-1.4167	0.0361
498.2	15140	0.20132	-2.9328	0.0383
498.2	15140	0.29356	-4.2586	0.0403
498.2	15140	0.40752	-5.8777	0.0428
498.2	3900	0.09682	-1.528	0.0356
498.2	3900	0.20132	-3.171	0.0367
498.2	3900	0.29356	-4.6051	0.0376
498.2	3900	0.40752	-6.3629	0.0388
498.2	15140	0.09682	-1.416	0.0361
498.2	15140	0.20132	-2.9329	0.0383
498.2	15140	0.29356	-4.2575	0.0403
498.2	15140	0.40752	-5.8771	0.0428
523.17	5820	0.07968	-1.4227	0.045
523.17	5820	0.16071	-2.8669	0.0461
523.17	5820	0.24399	-4.3124	0.0474
523.17	5820	0.30973	-5.4571	0.0482
523.17	30100	0.07968	-1.1789	0.0457
523.17	30100	0.16071	-2.355	0.0487
523.17	30100	0.24399	-3.5354	0.0518
523.17	30100	0.30973	-4.4686	0.0543
523.17	5820	0.07968	-1.4284	0.045
523.17	5820	0.16071	-2.8631	0.0461
523.17	5820	0.24399	-4.3098	0.0474
523.17	5820	0.30973	-5.4536	0.0482
523.17	30100	0.07968	-1.1728	0.0457
523.17	30100	0.16071	-2.3539	0.0487
523.17	30100	0.24399	-3.533	0.0518
523.17	30100	0.30973	-4.4686	0.0543
523.18	16180	0.07968	-1.3	0.0452
523.18	16180	0.16071	-2.6085	0.0472
523.18	16180	0.24399	-3.9205	0.0492
523.18	16180	0.30973	-4.9573	0.0511
523.18	16180	0.07968	-1.2972	0.0452
523.18	16180	0.16071	-2.6079	0.0472
523.18	16180	0.24399	-3.9186	0.0492
523.18	16180	0.30973	-4.9576	0.0511
548.17	30050	0.07968	-1.2948	0.0587
548.17	30050	0.16071	-2.5892	0.0621
548.17	30050	0.24399	-3.8977	0.0656
548.17	30050	0.30973	-4.9209	0.0684
548.17	30050	0.07968	-1.2887	0.0586
548.17	30050	0.16071	-2.5878	0.0621
548.17	30050	0.24399	-3.8914	0.0655
548.17	30050	0.30973	-4.9181	0.0684
548.18	19040	0.07968	-1.4385	0.0584
548.18	19040	0.16071	-2.875	0.061
548.18	19040	0.24399	-4.3306	0.0637
548.18	19040	0.30973	-5.4724	0.0662
548.18	19040	0.07968	-1.4309	0.0583
548.18	19040	0.16071	-2.8736	0.061
548.18	19040	0.24399	-4.3278	0.0637
548.18	19040	0.30973	-5.4717	0.0662
548.2	8010	0.07968	-1.6321	0.0584
548.2	8010	0.16071	-3.2883	0.0601
548.2	8010	0.24399	-4.9566	0.062
548.2	8010	0.30973	-6.2722	0.0637
548.2	8010	0.07968	-1.6363	0.0584
548.2	8010	0.16071	-3.2861	0.0601
548.2	8010	0.24399	-4.9591	0.062
548.2	8010	0.30973	-6.2717	0.0637
573.16	10060	0.07968	-1.9684	0.0767
573.16	10060	0.16071	-3.9455	0.0791
573.16	10060	0.24399	-5.9818	0.0817
573.16	10060	0.30973	-7.5729	0.0837
573.16	20020	0.07968	-1.6376	0.0761
573.16	20020	0.16071	-3.2894	0.0795
573.16	20020	0.24399	-4.9695	0.0828
573.16	20020	0.30973	-6.2877	0.0861
573.16	30040	0.07968	-1.4443	0.0763
573.16	30040	0.16071	-2.8805	0.0802
573.16	30040	0.24399	-4.3446	0.0841
573.16	30040	0.30973	-5.4854	0.0872
573.16	10060	0.07968	-1.9571	0.0767
573.16	10060	0.16071	-3.9502	0.0791
573.16	10060	0.24399	-5.9853	0.0817
573.16	10060	0.30973	-7.5712	0.0837
573.16	20020	0.07968	-1.6435	0.0762
573.16	20020	0.16071	-3.2865	0.0794
573.16	20020	0.24399	-4.9736	0.0828
573.16	20020	0.30973	-6.2842	0.086
573.16	30040	0.07968	-1.4368	0.0763
573.16	30040	0.16071	-2.8773	0.0802
573.16	30040	0.24399	-4.3494	0.0841
573.16	30040	0.30973	-5.5033	0.0873
