Measured thermophysical data. Interaction of D-panthenol with water molecules - Experimental and computational study
Source: J. Chem. Thermodyn., 2018, 10.1016/j.jct.2017.10.014
Compound 1: d-Panthenol, C9H19NO4, InChI=1S/C9H19NO4/c1-9(2,6-12)7(13)8(14)10-4-3-5-11/h7,11-13H,3-6H2,1-2H3,(H,10,14)/t7-/m0/s1, purity 98%
Compound 2: water, H2O, InChI=1S/H2O/h1H2, purity 99.8%

System: d-Panthenol; phases: Liquid
Fixed: Pressure, kPa = 101.325
Property: Viscosity, Pa*s (Liquid); method: Concentric cylinders viscometry
Temperature, K	Viscosity, Pa*s	uncertainty
293.15	527.287	65.946
298.15	261.544	30.258
303.15	125.673	13.305
308.15	68.487	6.694
313.15	37.252	3.338

System: d-Panthenol; phases: Liquid
Fixed: Pressure, kPa = 100
Property: Mass density, kg/m3 (Liquid); method: Vibrating tube method
Temperature, K	Mass density, kg/m3	uncertainty
293.15	1165.18	1.87
298.15	1161.68	1.86
303.15	1158.27	1.86
308.15	1154.96	1.86
313.15	1151.46	1.85

System: d-Panthenol + water; phases: Liquid
Fixed: Pressure, kPa = 100
Property: Mass density, kg/m3 (Liquid); method: Vibrating tube method
Temperature, K	Mole fraction of d-Panthenol	Mass density, kg/m3	uncertainty
293.15	0	998.21	1.52
293.15	0.0036	1004.95	1.56
293.15	0.0054	1008.18	1.57
293.15	0.0071	1011.3	1.57
293.15	0.0089	1014.36	1.57
293.15	0.0107	1017.42	1.57
293.15	0.0124	1020.22	1.57
293.15	0.0142	1023.06	1.57
293.15	0.0248	1039.61	1.58
293.15	0.031	1049.02	1.58
293.15	0.0376	1055.92	1.58
293.15	0.0501	1068.98	1.58
293.15	0.0996	1102.82	1.59
293.15	0.1997	1134.36	1.59
293.15	0.2495	1141.94	1.6
293.15	0.2871	1146.56	1.6
293.15	0.342	1151.05	1.61
293.15	0.4007	1154.55	1.61
293.15	0.4958	1158.52	1.63
293.15	0.5944	1160.64	1.66
293.15	0.708	1162.75	1.71
293.15	0.8067	1163.58	1.76
293.15	0.8753	1164.26	1.81
293.15	1	1165.18	1.87
298.15	0	997.05	1.52
298.15	0.0036	1003.69	1.56
298.15	0.0054	1006.88	1.57
298.15	0.0071	1009.95	1.57
298.15	0.0089	1012.97	1.57
298.15	0.0107	1016	1.57
298.15	0.0124	1018.76	1.57
298.15	0.0142	1021.57	1.57
298.15	0.0248	1037.84	1.58
298.15	0.031	1046.69	1.58
298.15	0.0376	1053.81	1.58
298.15	0.0501	1066.6	1.58
298.15	0.0996	1099.84	1.59
298.15	0.1997	1130.9	1.59
298.15	0.2495	1138.2	1.6
298.15	0.2871	1142.9	1.6
298.15	0.342	1147.23	1.61
298.15	0.4007	1150.87	1.61
298.15	0.4958	1154.87	1.63
298.15	0.5944	1157.16	1.66
298.15	0.708	1159.25	1.71
298.15	0.8067	1160.22	1.76
298.15	0.8753	1160.86	1.81
298.15	1	1161.68	1.86
303.15	0	995.65	1.52
303.15	0.0036	1002.18	1.56
303.15	0.0054	1005.33	1.57
303.15	0.0071	1008.35	1.57
303.15	0.0089	1011.34	1.57
303.15	0.0107	1014.32	1.57
303.15	0.0124	1017.07	1.57
303.15	0.0142	1019.84	1.57
303.15	0.0248	1035.87	1.58
303.15	0.031	1044.71	1.58
303.15	0.0376	1051.55	1.58
303.15	0.0501	1064.45	1.58
303.15	0.0996	1096.7	1.59
303.15	0.1997	1127.26	1.59
303.15	0.2495	1134.68	1.6
303.15	0.2871	1139.2	1.6
303.15	0.342	1143.4	1.6
303.15	0.4007	1146.9	1.61
303.15	0.4958	1151.08	1.63
303.15	0.5944	1153.51	1.66
303.15	0.708	1155.76	1.7
303.15	0.8067	1156.74	1.76
303.15	0.8753	1157.46	1.81
303.15	1	1158.27	1.86
308.15	0	994.04	1.52
308.15	0.0036	1000.46	1.56
308.15	0.0054	1003.56	1.57
308.15	0.0071	1006.55	1.57
308.15	0.0089	1009.5	1.57
308.15	0.0107	1012.45	1.57
308.15	0.0124	1015.14	1.57
308.15	0.0142	1017.89	1.57
308.15	0.0248	1033.67	1.58
308.15	0.031	1042.43	1.58
308.15	0.0376	1049.07	1.58
308.15	0.0501	1062.19	1.58
308.15	0.0996	1093.45	1.58
308.15	0.1997	1123.64	1.59
308.15	0.2495	1130.9	1.6
308.15	0.2871	1135.41	1.6
308.15	0.342	1139.69	1.6
308.15	0.4007	1143.02	1.61
308.15	0.4958	1147.04	1.63
308.15	0.5944	1149.72	1.66
308.15	0.708	1152.16	1.7
308.15	0.8067	1153.27	1.76
308.15	0.8753	1153.96	1.8
308.15	1	1154.96	1.86
313.15	0	992.22	1.52
313.15	0.0036	998.5	1.56
313.15	0.0054	1001.53	1.57
313.15	0.0071	1004.49	1.57
313.15	0.0089	1007.4	1.57
313.15	0.0107	1010.32	1.57
313.15	0.0124	1012.99	1.57
313.15	0.0142	1015.72	1.57
313.15	0.0248	1031.28	1.58
313.15	0.031	1039.83	1.58
313.15	0.0376	1046.45	1.58
313.15	0.0501	1059.96	1.58
313.15	0.0996	1090.55	1.58
313.15	0.1997	1119.93	1.59
313.15	0.2495	1127.21	1.59
313.15	0.2871	1131.52	1.6
313.15	0.342	1135.87	1.6
313.15	0.4007	1139.25	1.61
313.15	0.4958	1143.29	1.63
313.15	0.5944	1145.77	1.65
313.15	0.708	1148.24	1.7
313.15	0.8067	1149.57	1.75
313.15	0.8753	1150.3	1.8
313.15	1	1151.46	1.85

System: d-Panthenol + water; phases: Liquid
Fixed: Pressure, kPa = 100
Property: Viscosity, Pa*s (Liquid); method: Capillary tube (Ostwald; Ubbelohde) method
Temperature, K	Molality, mol/kg of d-Panthenol	Viscosity, Pa*s	uncertainty
293.15	0.01	0.001009	2.1e-05
293.15	0.05	0.001039	2.2e-05
293.15	0.1001	0.001078	2.2e-05
293.15	0.1989	0.001159	2.4e-05
293.15	0.3002	0.001246	2.6e-05
293.15	0.4006	0.001334	2.8e-05
293.15	0.4997	0.001421	3e-05
298.15	0.01	0.000896	1.9e-05
298.15	0.05	0.000923	1.9e-05
298.15	0.1001	0.000957	2e-05
298.15	0.1989	0.001027	2.1e-05
298.15	0.3002	0.0011	2.3e-05
298.15	0.4006	0.001173	2.4e-05
298.15	0.4997	0.001253	2.6e-05
303.15	0.01	0.000803	1.7e-05
303.15	0.05	0.000826	1.7e-05
303.15	0.1001	0.000855	1.8e-05
303.15	0.1989	0.000917	1.9e-05
303.15	0.3002	0.00098	2e-05
303.15	0.4006	0.001045	2.2e-05
303.15	0.4997	0.001105	2.3e-05
308.15	0.01	0.000724	1.5e-05
308.15	0.05	0.000744	1.6e-05
308.15	0.1001	0.000769	1.6e-05
308.15	0.1989	0.000822	1.7e-05
308.15	0.3002	0.000877	1.8e-05
308.15	0.4006	0.000932	1.9e-05
308.15	0.4997	0.00099	2.1e-05
313.15	0.01	0.000657	1.4e-05
313.15	0.05	0.000675	1.4e-05
313.15	0.1001	0.000697	1.5e-05
313.15	0.1989	0.000743	1.6e-05
313.15	0.3002	0.000791	1.7e-05
313.15	0.4006	0.000839	1.8e-05
313.15	0.4997	0.000887	1.9e-05
