Measured thermophysical data. Solubility of l-tyrosine in aqueous solutions of methanol, ethanol, n-propanol and dimethyl sulfoxide: Experimental determination and preferential solvation analysis
Source: J. Chem. Thermodyn., 2018, 10.1016/j.jct.2018.05.011
Compound 1: 3-(p-hydroxyphenyl)-L-alanine, C9H11NO3, InChI=1S/C9H11NO3/c10-8(9(12)13)5-6-1-3-7(11)4-2-6/h1-4,8,11H,5,10H2,(H,12,13)/t8-/m0/s1, purity 98.3%
Compound 2: methanol, CH4O, InChI=1S/CH4O/c1-2/h2H,1H3, purity 99.5%
Compound 3: ethanol, C2H6O, InChI=1S/C2H6O/c1-2-3/h3H,2H2,1H3, purity 99.4%
Compound 4: propan-1-ol, C3H8O, InChI=1S/C3H8O/c1-2-3-4/h4H,2-3H2,1H3, purity 99.4%
Compound 5: dimethyl sulfoxide, C2H6OS, InChI=1S/C2H6OS/c1-4(2)3/h1-2H3, purity 99.5%
Compound 6: water, H2O, InChI=1S/H2O/h1H2

System: 3-(p-hydroxyphenyl)-L-alanine + methanol + water; phases: Liquid, Crystal
Fixed: Pressure, kPa = 101.1
Property: Mole fraction of 3-(p-hydroxyphenyl)-L-alanine (Liquid); method: Chromatography
Solvent: Mass fraction of methanol	Temperature, K	Mole fraction of 3-(p-hydroxyphenyl)-L-alanine	uncertainty
1	283.15	6.423e-07	4.37e-08
1	288.15	8.351e-07	5.68e-08
1	293.15	1.085e-06	7.4e-08
1	298.15	1.386e-06	9.4e-08
1	303.15	1.804e-06	1.23e-07
1	308.15	2.231e-06	1.52e-07
1	313.15	2.718e-06	1.85e-07
1	318.15	3.305e-06	2.25e-07
1	323.15	4.029e-06	2.74e-07
0.9001	283.15	2.126e-06	1.45e-07
0.9001	288.15	2.717e-06	1.85e-07
0.9001	293.15	3.462e-06	2.36e-07
0.9001	298.15	4.381e-06	2.98e-07
0.9001	303.15	5.569e-06	3.79e-07
0.9001	308.15	6.707e-06	4.56e-07
0.9001	313.15	8.085e-06	5.5e-07
0.9001	318.15	9.635e-06	6.56e-07
0.9001	323.15	1.166e-05	7.9e-07
0.8004	283.15	4.597e-06	3.13e-07
0.8004	288.15	5.869e-06	3.99e-07
0.8004	293.15	7.359e-06	5.01e-07
0.8004	298.15	9.047e-06	6.16e-07
0.8004	303.15	1.116e-05	7.6e-07
0.8004	308.15	1.355e-05	9.2e-07
0.8004	313.15	1.618e-05	1.1e-06
0.8004	318.15	1.928e-05	1.31e-06
0.8004	323.15	2.308e-05	1.57e-06
0.6989	283.15	7.674e-06	5.22e-07
0.6989	288.15	9.595e-06	6.53e-07
0.6989	293.15	1.189e-05	8.1e-07
0.6989	298.15	1.467e-05	1e-06
0.6989	303.15	1.819e-05	1.24e-06
0.6989	308.15	2.178e-05	1.48e-06
0.6989	313.15	2.576e-05	1.75e-06
0.6989	318.15	3.049e-05	2.07e-06
0.6989	323.15	3.644e-05	2.48e-06
0.5995	283.15	1.039e-05	7.1e-07
0.5995	288.15	1.258e-05	8.6e-07
0.5995	293.15	1.605e-05	1.09e-06
0.5995	298.15	1.987e-05	1.35e-06
0.5995	303.15	2.438e-05	1.66e-06
0.5995	308.15	2.922e-05	1.99e-06
0.5995	313.15	3.418e-05	2.33e-06
0.5995	318.15	4.097e-05	2.79e-06
0.5995	323.15	4.749e-05	3.23e-06
0.5009	283.15	1.299e-05	8.8e-07
0.5009	288.15	1.608e-05	1.09e-06
0.5009	293.15	2.031e-05	1.38e-06
0.5009	298.15	2.434e-05	1.66e-06
0.5009	303.15	2.986e-05	2.03e-06
0.5009	308.15	3.592e-05	2.44e-06
0.5009	313.15	4.246e-05	2.89e-06
0.5009	318.15	4.971e-05	3.38e-06
0.5009	323.15	5.894e-05	4.01e-06
0.3993	283.15	1.561e-05	1.06e-06
0.3993	288.15	1.925e-05	1.31e-06
0.3993	293.15	2.421e-05	1.65e-06
0.3993	298.15	2.926e-05	1.99e-06
0.3993	303.15	3.563e-05	2.42e-06
0.3993	308.15	4.287e-05	2.92e-06
0.3993	313.15	5.057e-05	3.44e-06
0.3993	318.15	5.971e-05	4.06e-06
0.3993	323.15	7.047e-05	4.8e-06
0.2997	283.15	1.878e-05	1.28e-06
0.2997	288.15	2.331e-05	1.59e-06
0.2997	293.15	2.858e-05	1.94e-06
0.2997	298.15	3.477e-05	2.37e-06
0.2997	303.15	4.216e-05	2.87e-06
0.2997	308.15	5.068e-05	3.45e-06
0.2997	313.15	5.987e-05	4.07e-06
0.2997	318.15	7.043e-05	4.79e-06
0.2997	323.15	8.329e-05	5.67e-06
0.2011	283.15	2.234e-05	1.52e-06
0.2011	288.15	2.794e-05	1.9e-06
0.2011	293.15	3.438e-05	2.34e-06
0.2011	298.15	4.115e-05	2.8e-06
0.2011	303.15	4.941e-05	3.36e-06
0.2011	308.15	5.962e-05	4.06e-06
0.2011	313.15	7.034e-05	4.79e-06
0.2011	318.15	8.241e-05	5.61e-06
0.2011	323.15	9.768e-05	6.65e-06
0.1008	283.15	2.521e-05	1.72e-06
0.1008	288.15	3.232e-05	2.2e-06
0.1008	293.15	3.922e-05	2.67e-06
0.1008	298.15	4.727e-05	3.22e-06
0.1008	303.15	5.626e-05	3.83e-06
0.1008	308.15	6.815e-05	4.64e-06
0.1008	313.15	8.025e-05	5.46e-06
0.1008	318.15	9.324e-05	6.34e-06
0.1008	323.15	0.0001112	7.6e-06
0	283.15	2.748e-05	1.87e-06
0	288.15	3.401e-05	2.31e-06
0	293.15	4.176e-05	2.84e-06
0	298.15	4.997e-05	3.4e-06
0	303.15	5.947e-05	4.05e-06
0	308.15	7.235e-05	4.92e-06
0	313.15	8.527e-05	5.8e-06
0	318.15	0.0001002	6.8e-06
0	323.15	0.0001186	8.1e-06

System: 3-(p-hydroxyphenyl)-L-alanine + ethanol + water; phases: Liquid, Crystal
Fixed: Pressure, kPa = 101.1
Property: Mole fraction of 3-(p-hydroxyphenyl)-L-alanine (Liquid); method: Chromatography
Solvent: Mass fraction of ethanol	Temperature, K	Mole fraction of 3-(p-hydroxyphenyl)-L-alanine	uncertainty
1	283.15	3.874e-07	2.64e-08
1	288.15	5.162e-07	3.51e-08
1	293.15	6.582e-07	4.48e-08
1	298.15	8.694e-07	5.92e-08
1	303.15	1.113e-06	7.6e-08
1	308.15	1.402e-06	9.5e-08
1	313.15	1.741e-06	1.18e-07
1	318.15	2.145e-06	1.46e-07
1	323.15	2.647e-06	1.8e-07
0.9004	283.15	1.822e-06	1.24e-07
0.9004	288.15	2.434e-06	1.66e-07
0.9004	293.15	3.033e-06	2.06e-07
0.9004	298.15	3.838e-06	2.61e-07
0.9004	303.15	4.762e-06	3.24e-07
0.9004	308.15	5.872e-06	4e-07
0.9004	313.15	7.171e-06	4.88e-07
0.9004	318.15	8.572e-06	5.83e-07
0.9004	323.15	1.033e-05	7e-07
0.8012	283.15	4.519e-06	3.08e-07
0.8012	288.15	5.803e-06	3.95e-07
0.8012	293.15	6.933e-06	4.72e-07
0.8012	298.15	9.356e-06	6.37e-07
0.8012	303.15	1.129e-05	7.7e-07
0.8012	308.15	1.359e-05	9.2e-07
0.8012	313.15	1.618e-05	1.1e-06
0.8012	318.15	1.936e-05	1.32e-06
0.8012	323.15	2.312e-05	1.57e-06
0.6995	283.15	7.227e-06	4.92e-07
0.6995	288.15	9.167e-06	6.24e-07
0.6995	293.15	1.122e-05	7.6e-07
0.6995	298.15	1.389e-05	9.5e-07
0.6995	303.15	1.737e-05	1.18e-06
0.6995	308.15	2.144e-05	1.46e-06
0.6995	313.15	2.576e-05	1.75e-06
0.6995	318.15	3.057e-05	2.08e-06
0.6995	323.15	3.618e-05	2.46e-06
0.5991	283.15	9.725e-06	6.62e-07
0.5991	288.15	1.234e-05	8.4e-07
0.5991	293.15	1.525e-05	1.04e-06
0.5991	298.15	1.897e-05	1.29e-06
0.5991	303.15	2.273e-05	1.55e-06
0.5991	308.15	2.765e-05	1.88e-06
0.5991	313.15	3.316e-05	2.26e-06
0.5991	318.15	3.923e-05	2.67e-06
0.5991	323.15	4.631e-05	3.15e-06
0.5003	283.15	1.226e-05	8.3e-07
0.5003	288.15	1.513e-05	1.03e-06
0.5003	293.15	1.877e-05	1.28e-06
0.5003	298.15	2.318e-05	1.58e-06
0.5003	303.15	2.764e-05	1.88e-06
0.5003	308.15	3.369e-05	2.29e-06
0.5003	313.15	4.014e-05	2.73e-06
0.5003	318.15	4.719e-05	3.21e-06
0.5003	323.15	5.625e-05	3.83e-06
0.4006	283.15	1.481e-05	1.01e-06
0.4006	288.15	1.823e-05	1.24e-06
0.4006	293.15	2.256e-05	1.54e-06
0.4006	298.15	2.733e-05	1.86e-06
0.4006	303.15	3.323e-05	2.26e-06
0.4006	308.15	4.023e-05	2.74e-06
0.4006	313.15	4.754e-05	3.23e-06
0.4006	318.15	5.627e-05	3.83e-06
0.4006	323.15	6.645e-05	4.52e-06
0.2998	283.15	1.799e-05	1.22e-06
0.2998	288.15	2.233e-05	1.52e-06
0.2998	293.15	2.746e-05	1.87e-06
0.2998	298.15	3.311e-05	2.25e-06
0.2998	303.15	3.992e-05	2.72e-06
0.2998	308.15	4.857e-05	3.31e-06
0.2998	313.15	5.724e-05	3.89e-06
0.2998	318.15	6.755e-05	4.6e-06
0.2998	323.15	7.981e-05	5.43e-06
0.1989	283.15	2.221e-05	1.51e-06
0.1989	288.15	2.734e-05	1.86e-06
0.1989	293.15	3.379e-05	2.3e-06
0.1989	298.15	4.045e-05	2.75e-06
0.1989	303.15	4.863e-05	3.31e-06
0.1989	308.15	5.835e-05	3.97e-06
0.1989	313.15	6.933e-05	4.72e-06
0.1989	318.15	8.166e-05	5.56e-06
0.1989	323.15	9.678e-05	6.59e-06
0.1007	283.15	2.612e-05	1.78e-06
0.1007	288.15	3.234e-05	2.2e-06
0.1007	293.15	3.956e-05	2.69e-06
0.1007	298.15	4.762e-05	3.24e-06
0.1007	303.15	5.768e-05	3.93e-06
0.1007	308.15	7.021e-05	4.78e-06
0.1007	313.15	8.256e-05	5.62e-06
0.1007	318.15	9.696e-05	6.6e-06
0.1007	323.15	0.0001136	7.7e-06
0	283.15	2.748e-05	1.87e-06
0	288.15	3.401e-05	2.31e-06
0	293.15	4.176e-05	2.84e-06
0	298.15	4.997e-05	3.4e-06
0	303.15	5.947e-05	4.05e-06
0	308.15	7.235e-05	4.92e-06
0	313.15	8.527e-05	5.8e-06
0	318.15	0.0001002	6.8e-06
0	323.15	0.0001186	8.1e-06

System: 3-(p-hydroxyphenyl)-L-alanine + propan-1-ol + water; phases: Liquid, Crystal
Fixed: Pressure, kPa = 101.1
Property: Mole fraction of 3-(p-hydroxyphenyl)-L-alanine (Liquid); method: Chromatography
Solvent: Mass fraction of propan-1-ol	Temperature, K	Mole fraction of 3-(p-hydroxyphenyl)-L-alanine	uncertainty
1	283.15	8.719e-08	5.94e-09
1	288.15	1.281e-07	8.7e-09
1	293.15	1.832e-07	1.25e-08
1	298.15	2.691e-07	1.83e-08
1	303.15	3.767e-07	2.56e-08
1	308.15	5.235e-07	3.56e-08
1	313.15	7.266e-07	4.95e-08
1	318.15	9.924e-07	6.76e-08
1	323.15	1.325e-06	9e-08
0.9006	283.15	5.915e-07	4.02e-08
0.9006	288.15	8.365e-07	5.7e-08
0.9006	293.15	1.143e-06	7.8e-08
0.9006	298.15	1.615e-06	1.1e-07
0.9006	303.15	2.186e-06	1.49e-07
0.9006	308.15	2.954e-06	2.01e-07
0.9006	313.15	3.986e-06	2.71e-07
0.9006	318.15	5.156e-06	3.51e-07
0.9006	323.15	6.697e-06	4.57e-07
0.7992	283.15	2.023e-06	1.38e-07
0.7992	288.15	2.797e-06	1.9e-07
0.7992	293.15	3.622e-06	2.47e-07
0.7992	298.15	5.178e-06	3.52e-07
0.7992	303.15	6.533e-06	4.45e-07
0.7992	308.15	8.4e-06	5.72e-07
0.7992	313.15	1.108e-05	7.5e-07
0.7992	318.15	1.471e-05	1e-06
0.7992	323.15	1.836e-05	1.25e-06
0.7012	283.15	4.059e-06	2.76e-07
0.7012	288.15	5.319e-06	3.62e-07
0.7012	293.15	7.197e-06	4.9e-07
0.7012	298.15	9.743e-06	6.63e-07
0.7012	303.15	1.244e-05	8.5e-07
0.7012	308.15	1.579e-05	1.07e-06
0.7012	313.15	2.042e-05	1.39e-06
0.7012	318.15	2.619e-05	1.78e-06
0.7012	323.15	3.183e-05	2.17e-06
0.6003	283.15	6.249e-06	4.25e-07
0.6003	288.15	8.063e-06	5.49e-07
0.6003	293.15	1.099e-05	7.5e-07
0.6003	298.15	1.391e-05	9.5e-07
0.6003	303.15	1.758e-05	1.2e-06
0.6003	308.15	2.315e-05	1.58e-06
0.6003	313.15	2.882e-05	1.96e-06
0.6003	318.15	3.636e-05	2.47e-06
0.6003	323.15	4.404e-05	3e-06
0.5001	283.15	8.104e-06	5.52e-07
0.5001	288.15	1.089e-05	7.4e-07
0.5001	293.15	1.387e-05	9.4e-07
0.5001	298.15	1.792e-05	1.22e-06
0.5001	303.15	2.237e-05	1.52e-06
0.5001	308.15	2.852e-05	1.94e-06
0.5001	313.15	3.536e-05	2.41e-06
0.5001	318.15	4.416e-05	3.01e-06
0.5001	323.15	5.425e-05	3.69e-06
0.3989	283.15	1.036e-05	7.1e-07
0.3989	288.15	1.31e-05	8.9e-07
0.3989	293.15	1.728e-05	1.18e-06
0.3989	298.15	2.162e-05	1.47e-06
0.3989	303.15	2.747e-05	1.87e-06
0.3989	308.15	3.33e-05	2.27e-06
0.3989	313.15	4.165e-05	2.83e-06
0.3989	318.15	5.111e-05	3.48e-06
0.3989	323.15	6.249e-05	4.25e-06
0.2994	283.15	1.311e-05	8.9e-07
0.2994	288.15	1.643e-05	1.12e-06
0.2994	293.15	2.115e-05	1.44e-06
0.2994	298.15	2.659e-05	1.81e-06
0.2994	303.15	3.231e-05	2.2e-06
0.2994	308.15	4.052e-05	2.76e-06
0.2994	313.15	4.907e-05	3.34e-06
0.2994	318.15	6.073e-05	4.13e-06
0.2994	323.15	7.301e-05	4.97e-06
0.2007	283.15	1.671e-05	1.14e-06
0.2007	288.15	2.188e-05	1.49e-06
0.2007	293.15	2.674e-05	1.82e-06
0.2007	298.15	3.299e-05	2.25e-06
0.2007	303.15	4.041e-05	2.75e-06
0.2007	308.15	4.952e-05	3.37e-06
0.2007	313.15	6.006e-05	4.09e-06
0.2007	318.15	7.254e-05	4.94e-06
0.2007	323.15	8.659e-05	5.89e-06
0.1005	283.15	2.221e-05	1.51e-06
0.1005	288.15	2.776e-05	1.89e-06
0.1005	293.15	3.422e-05	2.33e-06
0.1005	298.15	4.203e-05	2.86e-06
0.1005	303.15	5.025e-05	3.42e-06
0.1005	308.15	6.198e-05	4.22e-06
0.1005	313.15	7.329e-05	4.99e-06
0.1005	318.15	8.802e-05	5.99e-06
0.1005	323.15	0.0001049	7.1e-06
0	283.15	2.748e-05	1.87e-06
0	288.15	3.401e-05	2.31e-06
0	293.15	4.176e-05	2.84e-06
0	298.15	4.997e-05	3.4e-06
0	303.15	5.947e-05	4.05e-06
0	308.15	7.235e-05	4.92e-06
0	313.15	8.527e-05	5.8e-06
0	318.15	0.0001002	6.8e-06
0	323.15	0.0001186	8.1e-06

System: 3-(p-hydroxyphenyl)-L-alanine + dimethyl sulfoxide + water; phases: Liquid, Crystal
Fixed: Pressure, kPa = 101.1
Property: Mole fraction of 3-(p-hydroxyphenyl)-L-alanine (Liquid); method: Chromatography
Solvent: Mass fraction of dimethyl sulfoxide	Temperature, K	Mole fraction of 3-(p-hydroxyphenyl)-L-alanine	uncertainty
1	283.15	0.0001426	9.7e-06
1	288.15	0.0001594	1.08e-05
1	293.15	0.0001763	1.2e-05
1	298.15	0.0001932	1.31e-05
1	303.15	0.0002136	1.45e-05
1	308.15	0.0002342	1.59e-05
1	313.15	0.0002581	1.76e-05
1	318.15	0.0002817	1.92e-05
1	323.15	0.0003081	2.1e-05
0.9008	283.15	0.0001257	8.6e-06
0.9008	288.15	0.0001427	9.7e-06
0.9008	293.15	0.0001587	1.08e-05
0.9008	298.15	0.0001753	1.19e-05
0.9008	303.15	0.0001948	1.33e-05
0.9008	308.15	0.0002141	1.46e-05
0.9008	313.15	0.0002364	1.61e-05
0.9008	318.15	0.0002597	1.77e-05
0.9008	323.15	0.0002865	1.95e-05
0.8011	283.15	0.0001055	7.2e-06
0.8011	288.15	0.0001266	8.6e-06
0.8011	293.15	0.0001414	9.6e-06
0.8011	298.15	0.0001574	1.07e-05
0.8011	303.15	0.0001759	1.2e-05
0.8011	308.15	0.0001961	1.33e-05
0.8011	313.15	0.0002182	1.48e-05
0.8011	318.15	0.0002427	1.65e-05
0.8011	323.15	0.0002686	1.83e-05
0.6997	283.15	9.554e-05	6.5e-06
0.6997	288.15	0.0001105	7.5e-06
0.6997	293.15	0.0001264	8.6e-06
0.6997	298.15	0.0001419	9.7e-06
0.6997	303.15	0.0001595	1.09e-05
0.6997	308.15	0.0001781	1.21e-05
0.6997	313.15	0.0002014	1.37e-05
0.6997	318.15	0.0002236	1.52e-05
0.6997	323.15	0.0002525	1.72e-05
0.5994	283.15	8.309e-05	5.65e-06
0.5994	288.15	9.532e-05	6.49e-06
0.5994	293.15	0.0001115	7.6e-06
0.5994	298.15	0.0001268	8.6e-06
0.5994	303.15	0.0001413	9.6e-06
0.5994	308.15	0.0001637	1.11e-05
0.5994	313.15	0.0001839	1.25e-05
0.5994	318.15	0.0002048	1.39e-05
0.5994	323.15	0.0002331	1.59e-05
0.5001	283.15	7.136e-05	4.86e-06
0.5001	288.15	8.322e-05	5.66e-06
0.5001	293.15	9.742e-05	6.63e-06
0.5001	298.15	0.0001115	7.6e-06
0.5001	303.15	0.0001258	8.6e-06
0.5001	308.15	0.0001473	1e-05
0.5001	313.15	0.0001656	1.13e-05
0.5001	318.15	0.0001842	1.25e-05
0.5001	323.15	0.0002147	1.46e-05
0.3988	283.15	6.024e-05	4.1e-06
0.3988	288.15	7.143e-05	4.86e-06
0.3988	293.15	8.422e-05	5.73e-06
0.3988	298.15	9.685e-05	6.59e-06
0.3988	303.15	0.0001125	7.7e-06
0.3988	308.15	0.0001318	9e-06
0.3988	313.15	0.0001488	1.01e-05
0.3988	318.15	0.0001685	1.15e-05
0.3988	323.15	0.0001944	1.32e-05
0.3006	283.15	5.083e-05	3.46e-06
0.3006	288.15	6.069e-05	4.13e-06
0.3006	293.15	7.218e-05	4.91e-06
0.3006	298.15	8.389e-05	5.71e-06
0.3006	303.15	9.744e-05	6.63e-06
0.3006	308.15	0.0001137	7.7e-06
0.3006	313.15	0.0001328	9e-06
0.3006	318.15	0.0001514	1.03e-05
0.3006	323.15	0.0001748	1.19e-05
0.2012	283.15	4.194e-05	2.85e-06
0.2012	288.15	5.072e-05	3.45e-06
0.2012	293.15	6.114e-05	4.16e-06
0.2012	298.15	7.158e-05	4.87e-06
0.2012	303.15	8.379e-05	5.7e-06
0.2012	308.15	9.986e-05	6.8e-06
0.2012	313.15	0.0001161	7.9e-06
0.2012	318.15	0.0001312	8.9e-06
0.2012	323.15	0.0001548	1.05e-05
0.1003	283.15	3.421e-05	2.33e-06
0.1003	288.15	4.176e-05	2.84e-06
0.1003	293.15	5.067e-05	3.45e-06
0.1003	298.15	6.067e-05	4.13e-06
0.1003	303.15	7.113e-05	4.84e-06
0.1003	308.15	8.547e-05	5.82e-06
0.1003	313.15	9.997e-05	6.8e-06
0.1003	318.15	0.0001153	7.8e-06
0.1003	323.15	0.0001371	9.3e-06
0	283.15	2.748e-05	1.87e-06
0	288.15	3.401e-05	2.31e-06
0	293.15	4.176e-05	2.84e-06
0	298.15	4.997e-05	3.4e-06
0	303.15	5.947e-05	4.05e-06
0	308.15	7.235e-05	4.92e-06
0	313.15	8.527e-05	5.8e-06
0	318.15	0.0001002	6.8e-06
0	323.15	0.0001186	8.1e-06

System: 3-(p-hydroxyphenyl)-L-alanine + methanol; phases: Liquid, Crystal
Fixed: Pressure, kPa = 101.1
Property: Mole fraction of 3-(p-hydroxyphenyl)-L-alanine (Liquid); method: Chromatography
Temperature, K	Mole fraction of 3-(p-hydroxyphenyl)-L-alanine	uncertainty
283.15	6.423e-07	4.37e-08
288.15	8.351e-07	5.68e-08
293.15	1.085e-06	7.4e-08
298.15	1.386e-06	9.4e-08
303.15	1.804e-06	1.23e-07
308.15	2.231e-06	1.52e-07
313.15	2.718e-06	1.85e-07
318.15	3.305e-06	2.25e-07
323.15	4.029e-06	2.74e-07

System: 3-(p-hydroxyphenyl)-L-alanine + water; phases: Liquid, Crystal
Fixed: Pressure, kPa = 101.1
Property: Mole fraction of 3-(p-hydroxyphenyl)-L-alanine (Liquid); method: Chromatography
Temperature, K	Mole fraction of 3-(p-hydroxyphenyl)-L-alanine	uncertainty
283.15	2.748e-05	1.87e-06
288.15	3.401e-05	2.31e-06
293.15	4.176e-05	2.84e-06
298.15	4.997e-05	3.4e-06
303.15	5.947e-05	4.05e-06
308.15	7.235e-05	4.92e-06
313.15	8.527e-05	5.8e-06
318.15	0.0001002	6.8e-06
323.15	0.0001186	8.1e-06

System: 3-(p-hydroxyphenyl)-L-alanine + ethanol; phases: Liquid, Crystal
Fixed: Pressure, kPa = 101.1
Property: Mole fraction of 3-(p-hydroxyphenyl)-L-alanine (Liquid); method: Chromatography
Temperature, K	Mole fraction of 3-(p-hydroxyphenyl)-L-alanine	uncertainty
283.15	3.874e-07	2.64e-08
288.15	5.162e-07	3.51e-08
293.15	6.582e-07	4.48e-08
298.15	8.694e-07	5.92e-08
303.15	1.113e-06	7.6e-08
308.15	1.402e-06	9.5e-08
313.15	1.741e-06	1.18e-07
318.15	2.145e-06	1.46e-07
323.15	2.647e-06	1.8e-07

System: 3-(p-hydroxyphenyl)-L-alanine + propan-1-ol; phases: Liquid, Crystal
Fixed: Pressure, kPa = 101.1
Property: Mole fraction of 3-(p-hydroxyphenyl)-L-alanine (Liquid); method: Chromatography
Temperature, K	Mole fraction of 3-(p-hydroxyphenyl)-L-alanine	uncertainty
283.15	8.719e-08	5.94e-09
288.15	1.281e-07	8.7e-09
293.15	1.832e-07	1.25e-08
298.15	2.691e-07	1.83e-08
303.15	3.767e-07	2.56e-08
308.15	5.235e-07	3.56e-08
313.15	7.266e-07	4.95e-08
318.15	9.924e-07	6.76e-08
323.15	1.325e-06	9e-08

System: 3-(p-hydroxyphenyl)-L-alanine + dimethyl sulfoxide; phases: Liquid, Crystal
Fixed: Pressure, kPa = 101.1
Property: Mole fraction of 3-(p-hydroxyphenyl)-L-alanine (Liquid); method: Chromatography
Temperature, K	Mole fraction of 3-(p-hydroxyphenyl)-L-alanine	uncertainty
283.15	0.0001426	9.7e-06
288.15	0.0001594	1.08e-05
293.15	0.0001763	1.2e-05
298.15	0.0001932	1.31e-05
303.15	0.0002136	1.45e-05
308.15	0.0002342	1.59e-05
313.15	0.0002581	1.76e-05
318.15	0.0002817	1.92e-05
323.15	0.0003081	2.1e-05
