Measured thermophysical data. Solubility of tridecanedioic acid in pure solvent systems: An experimental and computational study
Source: J. Chem. Thermodyn., 2015, 10.1016/j.jct.2015.05.026
Compound 1: methanol, CH4O, InChI=1S/CH4O/c1-2/h2H,1H3, purity 99.5%
Compound 2: ethanol, C2H6O, InChI=1S/C2H6O/c1-2-3/h3H,2H2,1H3, purity 99.5%
Compound 3: acetic acid, C2H4O2, InChI=1S/C2H4O2/c1-2(3)4/h1H3,(H,3,4), purity 99.5%
Compound 4: acetone, C3H6O, InChI=1S/C3H6O/c1-3(2)4/h1-2H3, purity 99.5%
Compound 5: ethyl acetate, C4H8O2, InChI=1S/C4H8O2/c1-3-6-4(2)5/h3H2,1-2H3, purity 99.5%
Compound 6: tridecanedioic acid, C13H24O4, InChI=1S/C13H24O4/c14-12(15)10-8-6-4-2-1-3-5-7-9-11-13(16)17/h1-11H2,(H,14,15)(H,16,17), purity 99%

System: tridecanedioic acid; phases: Crystal, Liquid, Air at 1 atmosphere
Property: Normal melting temperature, K (Crystal); method: DTA
Normal melting temperature, K	uncertainty
386.21	0.45

System: tridecanedioic acid; phases: Crystal, Liquid, Air at 1 atmosphere
Property: Molar enthalpy of transition or fusion, kJ/mol (Crystal); method: DSC
Molar enthalpy of transition or fusion, kJ/mol	uncertainty
51.62	1.27

System: methanol + tridecanedioic acid; phases: Liquid, Crystal
Fixed: Pressure, kPa = 100
Property: Mole fraction of tridecanedioic acid (Liquid); method: gravimetric
Temperature, K	Mole fraction of tridecanedioic acid	uncertainty
283.15	0.00291	0.00029
288.15	0.00315	0.00032
293.15	0.00388	0.00039
298.15	0.00449	0.00045
303.15	0.00541	0.00054
308.15	0.00845	0.00085
313.15	0.01064	0.00107
318.15	0.01261	0.00126
323.15	0.015	0.0015

System: ethanol + tridecanedioic acid; phases: Liquid, Crystal
Fixed: Pressure, kPa = 100
Property: Mole fraction of tridecanedioic acid (Liquid); method: gravimetric
Temperature, K	Mole fraction of tridecanedioic acid	uncertainty
283.15	0.00277	0.00028
288.15	0.00286	0.00029
293.15	0.00388	0.00039
298.15	0.00441	0.00044
303.15	0.00674	0.00068
308.15	0.01148	0.00115
313.15	0.01485	0.00149
318.15	0.02071	0.00207
323.15	0.02633	0.00264

System: acetic acid + tridecanedioic acid; phases: Liquid, Crystal
Fixed: Pressure, kPa = 100
Property: Mole fraction of tridecanedioic acid (Liquid); method: gravimetric
Temperature, K	Mole fraction of tridecanedioic acid	uncertainty
288.15	0.00231	0.00023
293.15	0.00309	0.00031
298.15	0.00418	0.00042
303.15	0.00656	0.00066
308.15	0.00975	0.00098
313.15	0.01379	0.00138
318.15	0.02011	0.00201
323.15	0.0253	0.00253

System: acetone + tridecanedioic acid; phases: Liquid, Crystal
Fixed: Pressure, kPa = 100
Property: Mole fraction of tridecanedioic acid (Liquid); method: gravimetric
Temperature, K	Mole fraction of tridecanedioic acid	uncertainty
283.15	0.00192	0.00019
288.15	0.00207	0.00021
293.15	0.00302	0.0003
298.15	0.00409	0.00041
303.15	0.00633	0.00064
308.15	0.00892	0.00089
313.15	0.01284	0.00129
318.15	0.01659	0.00166
323.15	0.02341	0.00235

System: ethyl acetate + tridecanedioic acid; phases: Liquid, Crystal
Fixed: Pressure, kPa = 100
Property: Mole fraction of tridecanedioic acid (Liquid); method: gravimetric
Temperature, K	Mole fraction of tridecanedioic acid	uncertainty
283.15	0.00072	7e-05
288.15	0.00083	8e-05
293.15	0.00111	0.00011
298.15	0.00149	0.00015
303.15	0.00254	0.00025
308.15	0.00361	0.00036
313.15	0.00524	0.00053
318.15	0.00722	0.00072
323.15	0.011	0.0011
