Measured thermophysical data. Cibulka correlation for ternary excess/deviation properties of {[C2mim] [EtSO4] (x1) + acetic or propionic acid (x2) + acetonitrile (x3)} systems at different temperatures
Source: J. Chem. Thermodyn., 2017, 10.1016/j.jct.2016.12.014
Compound 1: 1-ethyl-3-methylimidazolium ethyl sulfate, C8H16N2O4S, InChI=1S/C6H11N2.C2H6O4S/c1-3-8-5-4-7(2)6-8;1-2-6-7(3,4)5/h4-6H,3H2,1-2H3;2H2,1H3,(H,3,4,5)/q+1;/p-1, purity 99%
Compound 2: acetonitrile, C2H3N, InChI=1S/C2H3N/c1-2-3/h1H3, purity 99%
Compound 3: acetic acid, C2H4O2, InChI=1S/C2H4O2/c1-2(3)4/h1H3,(H,3,4), purity 99%
Compound 4: propanoic acid, C3H6O2, InChI=1S/C3H6O2/c1-2-3(4)5/h2H2,1H3,(H,4,5), purity 99.5%

System: acetic acid + acetonitrile + 1-ethyl-3-methylimidazolium ethyl sulfate; phases: Liquid
Fixed: Pressure, kPa = 100
Property: Mass density, kg/m3 (Liquid); method: Vibrating tube method
Temperature, K	Mole fraction of 1-ethyl-3-methylimidazolium ethyl sulfate	Mole fraction of acetic acid	Mass density, kg/m3	uncertainty
293.15	0.068	0.5284	1014.69	1.98
293.15	0.1009	0.2975	994.52	1.94
293.15	0.1126	0.2205	989.1	2.02
293.15	0.129	0.1085	981.11	2.01
293.15	0.1672	0.3906	1061.74	1.92
293.15	0.2126	0.2277	1061.94	1.94
293.15	0.2325	0.1539	1062.05	1.9
293.15	0.1038	0.7936	1095.57	1.95
293.15	0.2309	0.5332	1119.57	1.95
293.15	0.3114	0.3618	1130.02	1.87
293.15	0.356	0.2933	1138.14	1.92
293.15	0.398	0.1998	1141.91	1.88
293.15	0.4538	0.0964	1148.2	1.85
293.15	0.345	0.5414	1164.34	1.89
293.15	0.4835	0.3567	1183.25	1.87
293.15	0.5604	0.2535	1189.92	1.85
293.15	0.6545	0.1295	1198.19	1.85
293.15	0.7078	0.0525	1202.37	1.85
293.15	0.8825	0.0606	1229.42	1.85
293.15	0.6002	0.3617	1209.06	1.86
293.15	0.4887	0.4803	1197.12	1.87
293.15	0.8075	0.1402	1225.05	1.85
293.15	0.7287	0.2257	1219.84	1.86
293.15	0.3492	0.6287	1174.64	1.94
293.15	0.2108	0.7759	1148.61	1.94
298.15	0.068	0.5284	1009.84	1.98
298.15	0.1009	0.2975	989.85	1.95
298.15	0.1126	0.2205	984.49	2.02
298.15	0.129	0.1085	976.53	2.01
298.15	0.1672	0.3906	1057.43	1.93
298.15	0.2126	0.2277	1057.68	1.94
298.15	0.2325	0.1539	1057.83	1.9
298.15	0.1038	0.7936	1090.92	1.95
298.15	0.2309	0.5332	1115.39	1.95
298.15	0.3114	0.3618	1126.01	1.87
298.15	0.356	0.2933	1134.2	1.92
298.15	0.398	0.1998	1138.02	1.86
298.15	0.4538	0.0964	1144.39	1.85
298.15	0.345	0.5414	1160.47	1.89
298.15	0.4835	0.3567	1179.49	1.87
298.15	0.5604	0.2535	1186.22	1.85
298.15	0.6545	0.1295	1194.56	1.85
298.15	0.7078	0.0525	1198.78	1.85
298.15	0.8825	0.0606	1225.92	1.85
298.15	0.6002	0.3617	1205.41	1.86
298.15	0.4887	0.4803	1193.37	1.87
298.15	0.8075	0.1402	1221.51	1.85
298.15	0.7287	0.2257	1216.27	1.85
298.15	0.3492	0.6287	1170.7	1.95
298.15	0.2108	0.7759	1144.4	1.94
303.15	0.068	0.5284	1004.98	1.99
303.15	0.1009	0.2975	985.18	1.95
303.15	0.1126	0.2205	979.85	2.02
303.15	0.129	0.1085	971.95	2.01
303.15	0.1672	0.3906	1053.07	1.93
303.15	0.2126	0.2277	1053.42	1.94
303.15	0.2325	0.1539	1053.62	1.9
303.15	0.1038	0.7936	1086.29	1.95
303.15	0.2309	0.5332	1111.23	1.95
303.15	0.3114	0.3618	1122.02	1.87
303.15	0.356	0.2933	1130.28	1.92
303.15	0.398	0.1998	1134.16	1.86
303.15	0.4538	0.0964	1140.58	1.85
303.15	0.345	0.5414	1156.54	1.89
303.15	0.4835	0.3567	1175.74	1.87
303.15	0.5604	0.2535	1182.53	1.85
303.15	0.6545	0.1295	1190.95	1.85
303.15	0.7078	0.0525	1195.19	1.85
303.15	0.8825	0.0606	1222.44	1.85
303.15	0.6002	0.3617	1201.76	1.86
303.15	0.4887	0.4803	1189.64	1.87
303.15	0.8075	0.1402	1217.99	1.85
303.15	0.7287	0.2257	1212.71	1.85
303.15	0.3492	0.6287	1166.77	1.95
303.15	0.2108	0.7759	1140.19	1.95
308.15	0.068	0.5284	1000.12	1.99
308.15	0.1009	0.2975	980.5	1.95
308.15	0.1126	0.2205	975.22	2.02
308.15	0.129	0.1085	967.36	2.02
308.15	0.1672	0.3906	1048.71	1.93
308.15	0.2126	0.2277	1049.17	1.94
308.15	0.2325	0.1539	1049.4	1.9
308.15	0.1038	0.7936	1081.65	1.96
308.15	0.2309	0.5332	1107.08	1.95
308.15	0.3114	0.3618	1118.03	1.87
308.15	0.356	0.2933	1126.36	1.92
308.15	0.398	0.1998	1130.29	1.86
308.15	0.4538	0.0964	1136.77	1.85
308.15	0.345	0.5414	1152.62	1.89
308.15	0.4835	0.3567	1172	1.87
308.15	0.5604	0.2535	1178.86	1.85
308.15	0.6545	0.1295	1187.34	1.85
308.15	0.7078	0.0525	1191.63	1.85
308.15	0.8825	0.0606	1218.97	1.85
308.15	0.6002	0.3617	1198.14	1.86
308.15	0.4887	0.4803	1185.92	1.87
308.15	0.8075	0.1402	1214.49	1.85
308.15	0.7287	0.2257	1209.17	1.85
308.15	0.3492	0.6287	1162.85	1.95
308.15	0.2108	0.7759	1136	1.95
313.15	0.068	0.5284	995.26	1.98
313.15	0.1009	0.2975	975.82	1.95
313.15	0.1126	0.2205	970.59	2.02
313.15	0.129	0.1085	962.78	2.02
313.15	0.1672	0.3906	1044.35	1.93
313.15	0.2126	0.2277	1044.91	1.94
313.15	0.2325	0.1539	1045.19	1.9
313.15	0.1038	0.7936	1077.02	1.96
313.15	0.2309	0.5332	1102.93	1.96
313.15	0.3114	0.3618	1114.04	1.87
313.15	0.356	0.2933	1122.45	1.93
313.15	0.398	0.1998	1126.44	1.88
313.15	0.4538	0.0964	1132.97	1.85
313.15	0.345	0.5414	1148.7	1.89
313.15	0.4835	0.3567	1168.27	1.87
313.15	0.5604	0.2535	1175.2	1.85
313.15	0.6545	0.1295	1183.75	1.85
313.15	0.7078	0.0525	1188.07	1.85
313.15	0.8825	0.0606	1215.52	1.85
313.15	0.6002	0.3617	1194.53	1.86
313.15	0.4887	0.4803	1182.21	1.87
313.15	0.8075	0.1402	1211	1.85
313.15	0.7287	0.2257	1205.64	1.85
313.15	0.3492	0.6287	1158.96	1.95
313.15	0.2108	0.7759	1131.83	1.95

System: acetic acid + acetonitrile + 1-ethyl-3-methylimidazolium ethyl sulfate; phases: Liquid
Fixed: Pressure, kPa = 100
Fixed: Frequency, MHz = 3
Property: Speed of sound, m/s (Liquid); method: Sing-around technique in a fixed-path interferometer
Temperature, K	Mole fraction of 1-ethyl-3-methylimidazolium ethyl sulfate	Mole fraction of acetic acid	Speed of sound, m/s	uncertainty
293.15	0.068	0.5284	1336.7	2.3
293.15	0.1009	0.2975	1382.8	2.2
293.15	0.1126	0.2205	1395.8	2.2
293.15	0.129	0.1085	1411.4	2.2
293.15	0.1672	0.3906	1432.3	2.2
293.15	0.2126	0.2277	1470.8	2.2
293.15	0.2325	0.1539	1484.5	2.1
293.15	0.1038	0.7936	1355.8	2.3
293.15	0.2309	0.5332	1479.1	2.2
293.15	0.3114	0.3618	1527.5	2.1
293.15	0.356	0.2933	1548	2.1
293.15	0.398	0.1998	1566.8	2.1
293.15	0.4538	0.0964	1588.9	2.1
293.15	0.345	0.5414	1541.4	2.2
293.15	0.4835	0.3567	1594.3	2.1
293.15	0.5604	0.2535	1619.7	2.1
293.15	0.6545	0.1295	1643.1	2.1
293.15	0.7078	0.0525	1652.1	2.1
293.15	0.8825	0.0606	1678.5	2.1
293.15	0.6002	0.3617	1624.7	2.1
293.15	0.4887	0.4803	1594.2	2.1
293.15	0.8075	0.1402	1666.6	2.1
293.15	0.7287	0.2257	1652.7	2.1
293.15	0.3492	0.6287	1532.9	2.2
293.15	0.2108	0.7759	1456.7	2.3
298.15	0.068	0.5284	1320.4	2.3
298.15	0.1009	0.2975	1366.3	2.2
298.15	0.1126	0.2205	1379.3	2.2
298.15	0.129	0.1085	1394.7	2.2
298.15	0.1672	0.3906	1416.2	2.2
298.15	0.2126	0.2277	1455.5	2.2
298.15	0.2325	0.1539	1469.3	2.1
298.15	0.1038	0.7936	1340.5	2.3
298.15	0.2309	0.5332	1464.6	2.2
298.15	0.3114	0.3618	1513.4	2.1
298.15	0.356	0.2933	1533.8	2.2
298.15	0.398	0.1998	1552.8	2.1
298.15	0.4538	0.0964	1575.4	2.1
298.15	0.345	0.5414	1527.7	2.2
298.15	0.4835	0.3567	1581	2.1
298.15	0.5604	0.2535	1606.6	2.1
298.15	0.6545	0.1295	1630.2	2.1
298.15	0.7078	0.0525	1639.3	2.1
298.15	0.8825	0.0606	1666.1	2.1
298.15	0.6002	0.3617	1611.8	2.1
298.15	0.4887	0.4803	1581	2.1
298.15	0.8075	0.1402	1654.1	2.1
298.15	0.7287	0.2257	1640.1	2.1
298.15	0.3492	0.6287	1519.2	2.2
298.15	0.2108	0.7759	1442.6	2.3
303.15	0.068	0.5284	1303.9	2.3
303.15	0.1009	0.2975	1349.6	2.2
303.15	0.1126	0.2205	1362.6	2.2
303.15	0.129	0.1085	1377.9	2.2
303.15	0.1672	0.3906	1400.5	2.2
303.15	0.2126	0.2277	1440	2.2
303.15	0.2325	0.1539	1453.8	2.1
303.15	0.1038	0.7936	1325.1	2.3
303.15	0.2309	0.5332	1450	2.2
303.15	0.3114	0.3618	1499	2.1
303.15	0.356	0.2933	1519.6	2.2
303.15	0.398	0.1998	1538.5	2.1
303.15	0.4538	0.0964	1561.5	2.1
303.15	0.345	0.5414	1513.9	2.2
303.15	0.4835	0.3567	1567.6	2.1
303.15	0.5604	0.2535	1593.4	2.1
303.15	0.6545	0.1295	1617.2	2.1
303.15	0.7078	0.0525	1626.4	2.1
303.15	0.8825	0.0606	1653.7	2.1
303.15	0.6002	0.3617	1598.9	2.1
303.15	0.4887	0.4803	1567.7	2.1
303.15	0.8075	0.1402	1641.5	2.1
303.15	0.7287	0.2257	1627.4	2.1
303.15	0.3492	0.6287	1505.3	2.2
303.15	0.2108	0.7759	1428.3	2.3
308.15	0.068	0.5284	1287.5	2.3
308.15	0.1009	0.2975	1333.1	2.2
308.15	0.1126	0.2205	1346	2.2
308.15	0.129	0.1085	1361.1	2.2
308.15	0.1672	0.3906	1384.8	2.2
308.15	0.2126	0.2277	1424.5	2.2
308.15	0.2325	0.1539	1438.4	2.1
308.15	0.1038	0.7936	1309.6	2.3
308.15	0.2309	0.5332	1435.4	2.2
308.15	0.3114	0.3618	1484.6	2.1
308.15	0.356	0.2933	1505.6	2.2
308.15	0.398	0.1998	1524.4	2.1
308.15	0.4538	0.0964	1547.5	2.1
308.15	0.345	0.5414	1500.2	2.2
308.15	0.4835	0.3567	1554.2	2.1
308.15	0.5604	0.2535	1580.3	2.1
308.15	0.6545	0.1295	1604.3	2.1
308.15	0.7078	0.0525	1613.7	2.1
308.15	0.8825	0.0606	1641.4	2.1
308.15	0.6002	0.3617	1586.1	2.1
308.15	0.4887	0.4803	1554.7	2.1
308.15	0.8075	0.1402	1629.1	2.1
308.15	0.7287	0.2257	1614.9	2.1
308.15	0.3492	0.6287	1491.4	2.3
308.15	0.2108	0.7759	1414	2.3
313.15	0.068	0.5284	1271.2	2.3
313.15	0.1009	0.2975	1316.7	2.2
313.15	0.1126	0.2205	1329.4	2.2
313.15	0.129	0.1085	1344.4	2.2
313.15	0.1672	0.3906	1369.3	2.2
313.15	0.2126	0.2277	1409.2	2.2
313.15	0.2325	0.1539	1423	2.1
313.15	0.1038	0.7936	1294.2	2.3
313.15	0.2309	0.5332	1420.9	2.3
313.15	0.3114	0.3618	1470.3	2.1
313.15	0.356	0.2933	1491.5	2.2
313.15	0.398	0.1998	1510.4	2.1
313.15	0.4538	0.0964	1533.7	2.1
313.15	0.345	0.5414	1486.7	2.2
313.15	0.4835	0.3567	1539.7	2.1
313.15	0.5604	0.2535	1566.7	2.1
313.15	0.6545	0.1295	1591.5	2.1
313.15	0.7078	0.0525	1600.9	2.1
313.15	0.8825	0.0606	1629.3	2.1
313.15	0.6002	0.3617	1573.4	2.1
313.15	0.4887	0.4803	1541.7	2.1
313.15	0.8075	0.1402	1616.8	2.1
313.15	0.7287	0.2257	1602.4	2.1
313.15	0.3492	0.6287	1477.7	2.3
313.15	0.2108	0.7759	1399.9	2.4

System: acetonitrile + propanoic acid + 1-ethyl-3-methylimidazolium ethyl sulfate; phases: Liquid
Fixed: Pressure, kPa = 100
Property: Mass density, kg/m3 (Liquid); method: Vibrating tube method
Temperature, K	Mole fraction of 1-ethyl-3-methylimidazolium ethyl sulfate	Mole fraction of propanoic acid	Mass density, kg/m3	uncertainty
293.15	0.0756	0.4765	990.1	1.94
293.15	0.1074	0.2567	982.84	1.99
293.15	0.1175	0.1866	980.07	1.99
293.15	0.1316	0.0898	976.59	1.99
293.15	0.1812	0.3427	1044.93	1.9
293.15	0.2223	0.1931	1051.84	1.92
293.15	0.2398	0.1274	1054.73	1.99
293.15	0.124	0.7536	1057.6	1.91
293.15	0.2593	0.485	1099.29	1.91
293.15	0.3416	0.3217	1118.76	1.88
293.15	0.3844	0.238	1127.62	1.9
293.15	0.418	0.17	1135.85	1.9
293.15	0.4638	0.0791	1144.72	1.9
293.15	0.3833	0.4907	1145.2	1.87
293.15	0.5191	0.3109	1172.48	1.85
293.15	0.6388	0.3114	1196.62	1.84
293.15	0.5364	0.4297	1181.28	1.84
293.15	0.3965	0.5787	1154.61	1.87
293.15	0.2472	0.7373	1116.89	1.91
298.15	0.0756	0.4765	985.4	1.95
298.15	0.1074	0.2567	978.25	1.99
298.15	0.1175	0.1866	975.5	1.99
298.15	0.1316	0.0898	972.04	1.99
298.15	0.1812	0.3427	1040.61	1.9
298.15	0.2223	0.1931	1047.61	1.92
298.15	0.2398	0.1274	1050.52	1.99
298.15	0.124	0.7536	1053.15	1.91
298.15	0.2593	0.485	1095.2	1.91
298.15	0.3416	0.3217	1114.8	1.88
298.15	0.3844	0.238	1123.72	1.9
298.15	0.418	0.17	1131.99	1.9
298.15	0.4638	0.0791	1140.91	1.9
298.15	0.3833	0.4907	1141.35	1.87
298.15	0.5191	0.3109	1168.76	1.85
298.15	0.6388	0.3114	1193	1.84
298.15	0.5364	0.4297	1177.59	1.84
298.15	0.3965	0.5787	1150.78	1.87
298.15	0.2472	0.7373	1112.82	1.91
303.15	0.0756	0.4765	980.7	1.95
303.15	0.1074	0.2567	973.65	1.99
303.15	0.1175	0.1866	970.93	1.99
303.15	0.1316	0.0898	967.49	1.99
303.15	0.1812	0.3427	1036.29	1.9
303.15	0.2223	0.1931	1043.37	1.92
303.15	0.2398	0.1274	1046.31	2
303.15	0.124	0.7536	1048.7	1.91
303.15	0.2593	0.485	1091.12	1.92
303.15	0.3416	0.3217	1110.86	1.88
303.15	0.3844	0.238	1119.83	1.9
303.15	0.418	0.17	1128.15	1.9
303.15	0.4638	0.0791	1137.12	1.9
303.15	0.3833	0.4907	1137.5	1.87
303.15	0.5191	0.3109	1165.06	1.85
303.15	0.6388	0.3114	1189.4	1.84
303.15	0.5364	0.4297	1173.91	1.84
303.15	0.3965	0.5787	1146.97	1.87
303.15	0.2472	0.7373	1108.77	1.91
308.15	0.0756	0.4765	975.99	1.95
308.15	0.1074	0.2567	969.05	1.99
308.15	0.1175	0.1866	966.35	1.99
308.15	0.1316	0.0898	962.93	2
308.15	0.1812	0.3427	1031.97	1.9
308.15	0.2223	0.1931	1039.14	1.92
308.15	0.2398	0.1274	1042.11	2
308.15	0.124	0.7536	1044.26	1.92
308.15	0.2593	0.485	1087.04	1.92
308.15	0.3416	0.3217	1106.92	1.88
308.15	0.3844	0.238	1115.94	1.9
308.15	0.418	0.17	1124.3	1.9
308.15	0.4638	0.0791	1133.32	1.9
308.15	0.3833	0.4907	1133.66	1.87
308.15	0.5191	0.3109	1161.37	1.85
308.15	0.6388	0.3114	1185.81	1.84
308.15	0.5364	0.4297	1170.25	1.84
308.15	0.3965	0.5787	1143.16	1.87
308.15	0.2472	0.7373	1104.73	1.91
313.15	0.0756	0.4765	971.28	1.95
313.15	0.1074	0.2567	964.45	2
313.15	0.1175	0.1866	961.77	2
313.15	0.1316	0.0898	958.37	2
313.15	0.1812	0.3427	1027.65	1.9
313.15	0.2223	0.1931	1034.9	1.92
313.15	0.2398	0.1274	1037.9	2
313.15	0.124	0.7536	1039.82	1.92
313.15	0.2593	0.485	1082.97	1.92
313.15	0.3416	0.3217	1102.98	1.88
313.15	0.3844	0.238	1112.06	1.9
313.15	0.418	0.17	1120.47	1.9
313.15	0.4638	0.0791	1129.54	1.9
313.15	0.3833	0.4907	1129.84	1.87
313.15	0.5191	0.3109	1157.68	1.85
313.15	0.6388	0.3114	1182.23	1.84
313.15	0.5364	0.4297	1166.6	1.84
313.15	0.3965	0.5787	1139.37	1.87
313.15	0.2472	0.7373	1100.7	1.91

System: acetonitrile + propanoic acid + 1-ethyl-3-methylimidazolium ethyl sulfate; phases: Liquid
Fixed: Pressure, kPa = 100
Fixed: Frequency, MHz = 3
Property: Speed of sound, m/s (Liquid); method: Sing-around technique in a fixed-path interferometer
Temperature, K	Mole fraction of 1-ethyl-3-methylimidazolium ethyl sulfate	Mole fraction of propanoic acid	Speed of sound, m/s	uncertainty
293.15	0.0756	0.4765	1336.6	2.1
293.15	0.1074	0.2567	1384.2	2.2
293.15	0.1175	0.1866	1396.4	2.2
293.15	0.1316	0.0898	1411.9	2.2
293.15	0.1812	0.3427	1437.4	2.1
293.15	0.2223	0.1931	1472.9	2.1
293.15	0.2398	0.1274	1487.2	2.2
293.15	0.124	0.7536	1347.4	2.1
293.15	0.2593	0.485	1474.3	2.1
293.15	0.3416	0.3217	1527.4	2
293.15	0.3844	0.238	1552.4	2.1
293.15	0.418	0.17	1567.4	2.1
293.15	0.4638	0.0791	1589.8	2.1
293.15	0.3833	0.4907	1527.9	2
293.15	0.5191	0.3109	1587.9	2
293.15	0.6388	0.3114	1619.8	2
293.15	0.5364	0.4297	1582.3	2
293.15	0.3965	0.5787	1527.2	2
293.15	0.2472	0.7373	1440	2.1
298.15	0.0756	0.4765	1319.7	2.1
298.15	0.1074	0.2567	1367.3	2.2
298.15	0.1175	0.1866	1379.8	2.2
298.15	0.1316	0.0898	1395.2	2.2
298.15	0.1812	0.3427	1422	2.1
298.15	0.2223	0.1931	1457.7	2.1
298.15	0.2398	0.1274	1471.7	2.2
298.15	0.124	0.7536	1331.5	2.1
298.15	0.2593	0.485	1459.5	2.1
298.15	0.3416	0.3217	1513.2	2
298.15	0.3844	0.238	1538.5	2.1
298.15	0.418	0.17	1553.5	2.1
298.15	0.4638	0.0791	1576.1	2.1
298.15	0.3833	0.4907	1514.2	2
298.15	0.5191	0.3109	1574.7	2
298.15	0.6388	0.3114	1607.1	2
298.15	0.5364	0.4297	1569.3	2
298.15	0.3965	0.5787	1513.7	2
298.15	0.2472	0.7373	1425.7	2.1
303.15	0.0756	0.4765	1302.7	2.1
303.15	0.1074	0.2567	1350.4	2.2
303.15	0.1175	0.1866	1362.9	2.2
303.15	0.1316	0.0898	1378.3	2.2
303.15	0.1812	0.3427	1406.3	2.1
303.15	0.2223	0.1931	1442.2	2.1
303.15	0.2398	0.1274	1456.2	2.2
303.15	0.124	0.7536	1315.7	2.1
303.15	0.2593	0.485	1444.7	2.1
303.15	0.3416	0.3217	1498.8	2
303.15	0.3844	0.238	1524.2	2.1
303.15	0.418	0.17	1539.4	2.1
303.15	0.4638	0.0791	1562.1	2.1
303.15	0.3833	0.4907	1500.4	2
303.15	0.5191	0.3109	1561.4	2
303.15	0.6388	0.3114	1594.3	2
303.15	0.5364	0.4297	1556.1	2
303.15	0.3965	0.5787	1500.1	2
303.15	0.2472	0.7373	1411.2	2.1
308.15	0.0756	0.4765	1285.7	2.1
308.15	0.1074	0.2567	1333.8	2.2
308.15	0.1175	0.1866	1346	2.2
308.15	0.1316	0.0898	1361.4	2.2
308.15	0.1812	0.3427	1390.6	2.1
308.15	0.2223	0.1931	1426.7	2.1
308.15	0.2398	0.1274	1440.7	2.2
308.15	0.124	0.7536	1299.9	2.1
308.15	0.2593	0.485	1430	2.1
308.15	0.3416	0.3217	1484.5	2
308.15	0.3844	0.238	1509.9	2.1
308.15	0.418	0.17	1525.3	2.1
308.15	0.4638	0.0791	1548.1	2.1
308.15	0.3833	0.4907	1486.6	2
308.15	0.5191	0.3109	1548.1	2
308.15	0.6388	0.3114	1581.4	2
308.15	0.5364	0.4297	1543	2
308.15	0.3965	0.5787	1486.5	2
308.15	0.2472	0.7373	1396.7	2.1
313.15	0.0756	0.4765	1268.9	2.1
313.15	0.1074	0.2567	1317	2.2
313.15	0.1175	0.1866	1329.2	2.2
313.15	0.1316	0.0898	1344.5	2.2
313.15	0.1812	0.3427	1375	2.1
313.15	0.2223	0.1931	1411.3	2.1
313.15	0.2398	0.1274	1425.3	2.2
313.15	0.124	0.7536	1284.2	2.1
313.15	0.2593	0.485	1415.4	2.1
313.15	0.3416	0.3217	1470.2	2.1
313.15	0.3844	0.238	1495.8	2.1
313.15	0.418	0.17	1511.3	2.1
313.15	0.4638	0.0791	1534.2	2.1
313.15	0.3833	0.4907	1472.9	2
313.15	0.5191	0.3109	1534.9	2
313.15	0.6388	0.3114	1568.7	2
313.15	0.5364	0.4297	1529.9	2
313.15	0.3965	0.5787	1473.1	2
313.15	0.2472	0.7373	1382.3	2.1
