Measured thermophysical data. Apparent molar volumes and apparent molar heat capacities of aqueous sodium bromide and sodium fluoride at temperatures from (278.15 to 393.15) K and at the pressure 0.35 MPa
Source: J. Chem. Thermodyn., 2004, 10.1016/j.jct.2003.10.008
Compound 1: sodium bromide, BrNa, InChI=1S/BrH.Na/h1H;/q;+1/p-1, purity 99.99%
Compound 2: sodium hydrogen fluoride, F2HNa, InChI=1S/2FH.Na/h2*1H;/q;;+1/p-1, purity 99.99%
Compound 3: water, H2O, InChI=1S/H2O/h1H2

System: sodium bromide + water; phases: Liquid
Fixed: Pressure, kPa = 350
Property: Apparent molar volume, m3/mol (Liquid); method: Calculated with densities of this investigation
Temperature, K	Molality, mol/kg of sodium bromide	Apparent molar volume, m3/mol	uncertainty
278.15	1.0097	2.2674e-05	2.5e-08
278.15	0.50094	2.1587e-05	4.5e-08
278.15	0.25048	2.081e-05	8e-08
278.15	0.10099	1.931e-05	1.9e-07
278.15	0.07519	1.86e-05	3e-07
278.15	0.05011	1.719e-05	3.4e-07
278.15	0.02488	1.47e-05	5.8e-07
278.15	0.01087	8.2e-06	7e-07
283.15	1.0097	2.354e-05	3e-08
283.15	0.50094	2.257e-05	5e-08
283.15	0.25048	2.184e-05	9e-08
283.15	0.10099	2.034e-05	2e-07
283.15	0.07519	1.943e-05	2.6e-07
283.15	0.05011	1.901e-05	3.8e-07
283.15	0.02488	1.64e-05	7e-07
283.15	0.01087	1.01e-05	9e-07
288.15	1.0097	2.41e-05	3e-08
288.15	0.50094	2.323e-05	5e-08
288.15	0.25048	2.269e-05	9e-08
288.15	0.10099	2.122e-05	2.1e-07
288.15	0.07519	2.06e-05	2.7e-07
288.15	0.05011	1.999e-05	4e-07
288.15	0.02488	1.75e-05	7e-07
288.15	0.01087	1.06e-05	1e-06
298.15	1.0097	2.53e-05	3e-08
298.15	0.50094	2.461e-05	5e-08
298.15	0.25048	2.417e-05	1e-07
298.15	0.10099	2.287e-05	2.3e-07
298.15	0.07519	2.269e-05	3e-07
298.15	0.05011	2.258e-05	4.5e-07
298.15	0.02488	2.04e-05	8e-07
298.15	0.01087	1.42e-05	1.3e-06
308.15	1.0097	2.6111e-05	2.8e-08
308.15	0.50094	2.545e-05	5e-08
308.15	0.25048	2.5033e-05	1.02e-07
308.15	0.10099	2.381e-05	2.4e-07
308.15	0.07519	2.373e-05	3.2e-07
308.15	0.05011	2.335e-05	4.7e-07
308.15	0.02488	2.15e-05	9e-07
308.15	0.01087	1.61e-05	1.5e-06
318.15	1.0097	2.6694e-05	2.9e-08
318.15	0.50094	2.6049e-05	5.4e-08
318.15	0.25048	2.5666e-05	1.05e-07
318.15	0.10099	2.455e-05	2.4e-07
318.15	0.07519	2.435e-05	3.2e-07
318.15	0.05011	2.43e-05	5e-07
318.15	0.02488	2.2e-05	9e-07
318.15	0.01087	1.75e-05	1.6e-06
328.15	1.0097	2.7077e-05	3e-08
328.15	0.50094	2.6436e-05	5.5e-08
328.15	0.25048	2.6038e-05	1.06e-07
328.15	0.10099	2.479e-05	2.5e-07
328.15	0.07519	2.474e-05	3.3e-07
328.15	0.05011	2.481e-05	5e-07
328.15	0.02488	2.29e-05	9e-07
328.15	0.01087	2.01e-05	1.8e-06
338.15	1.0097	2.7356e-05	3e-08
338.15	0.50094	2.6745e-05	5.6e-08
338.15	0.25048	2.6408e-05	1.08e-07
338.15	0.10099	2.5296e-05	2.52e-07
338.15	0.07519	2.525e-05	3.4e-07
338.15	0.05011	2.552e-05	5.1e-07
338.15	0.02488	2.419e-05	9.7e-07
338.15	0.01087	2.25e-05	2.1e-06
348.15	1.0097	2.7527e-05	3e-08
348.15	0.50094	2.7013e-05	5.7e-08
348.15	0.25048	2.6902e-05	1.1e-07
348.15	0.10099	2.629e-05	2.6e-07
348.15	0.07519	2.652e-05	3.5e-07
348.15	0.05011	2.786e-05	5.6e-07
348.15	0.02488	2.857e-05	1.15e-06
348.15	0.01087	3.243e-05	2.99e-06
358.15	1.0097	2.7323e-05	3e-08
358.15	0.50094	2.6628e-05	5.6e-08
358.15	0.25048	2.606e-05	1.06e-07
358.15	0.10099	2.43e-05	2e-07
358.15	0.07519	2.406e-05	3.2e-07
358.15	0.05011	2.446e-05	4.9e-07
358.15	0.02488	2.282e-05	9.1e-07
358.15	0.01087	1.79e-05	1.6e-06
368.15	1.0097	2.631e-05	3e-08
368.15	0.50094	2.571e-05	5e-08
368.15	0.25048	2.32e-05	1e-07
368.15	0.10099	1.884e-05	1.9e-07
368.15	0.07519	1.5e-05	1e-06
368.15	0.05011	2.13e-05	4e-07
368.15	0.02488	1.34e-05	5e-07
368.15	0.01087	4.5e-06	4e-07

System: sodium bromide + water; phases: Liquid
Fixed: Pressure, kPa = 350
Property: Apparent molar heat capacity, J/K/mol (Liquid); method: Extra sensitive DSC
Temperature, K	Molality, mol/kg of sodium bromide	Apparent molar heat capacity, J/K/mol	uncertainty
278.15	1.0097	-85.65	0.74
278.15	0.50094	-120.78	1.64
278.15	0.25048	-144.19	3.57
278.15	0.10099	-165	9.4
278.15	0.07519	-167.4	12.8
278.15	0.05011	-168.8	19.5
278.15	0.02488	-175	39.7
278.15	0.01087	-173.4	91.5
283.15	1.0097	-70.1	0.79
283.15	0.50094	-100.75	1.7
283.15	0.25048	-121.11	3.64
283.15	0.10099	-139.3	9.5
283.15	0.07519	-142.4	12.9
283.15	0.05011	-143.7	19.5
283.15	0.02488	-150.9	39.8
283.15	0.01087	-162	91.5
288.15	1.0097	-57.73	0.83
288.15	0.50094	-84.75	1.75
288.15	0.25048	-102.45	3.69
288.15	0.10099	-117.9	9.6
288.15	0.07519	-125	12.9
288.15	0.05011	-126	19.6
288.15	0.02488	-136.2	39.8
288.15	0.01087	-144.2	91.6
293.15	1.0097	-48.18	0.86
293.15	0.50094	-72.94	1.79
293.15	0.25048	-89.4	3.73
293.15	0.10099	-104.3	9.6
293.15	0.07519	-112.8	13
293.15	0.05011	-112.9	19.6
293.15	0.02488	-125.5	39.8
293.15	0.01087	-136.1	91.6
298.15	1.0097	-40.95	0.88
298.15	0.50094	-63.54	1.82
298.15	0.25048	-78.78	3.77
298.15	0.10099	-92.9	9.6
298.15	0.07519	-105.3	13
298.15	0.05011	-104.9	19.7
298.15	0.02488	-121.7	39.8
298.15	0.01087	-135.4	91.6
303.15	1.0097	-35.19	0.89
303.15	0.50094	-56.17	1.84
303.15	0.25048	-70.77	3.79
303.15	0.10099	-84.9	9.7
303.15	0.07519	-98.1	13
303.15	0.05011	-97.2	19.7
303.15	0.02488	-115.3	39.9
303.15	0.01087	-125	91.6
308.15	1.0097	-30.4	0.91
308.15	0.50094	-49.35	1.86
308.15	0.25048	-62.21	3.82
308.15	0.10099	-74	9.7
308.15	0.07519	-87.9	13
308.15	0.05011	-85.6	19.7
308.15	0.02488	-101.1	39.9
308.15	0.01087	-128.3	91.6
313.15	1.0097	-27.5	0.92
313.15	0.50094	-44.77	1.87
313.15	0.25048	-57.16	3.83
313.15	0.10099	-68.7	9.7
313.15	0.07519	-78.9	13.1
313.15	0.05011	-75.8	19.7
313.15	0.02488	-87.4	39.9
313.15	0.01087	-112.5	91.7
318.15	1.0097	-25.4	0.92
318.15	0.50094	-41.59	1.88
318.15	0.25048	-53.56	3.84
318.15	0.10099	-65.2	9.7
318.15	0.07519	-73.1	13.1
318.15	0.05011	-69.2	19.8
318.15	0.02488	-78.7	40
318.15	0.01087	-93.5	91.7
323.15	1.0097	-23.91	0.93
323.15	0.50094	-38.92	1.89
323.15	0.25048	-50.32	3.85
323.15	0.10099	-61.5	9.7
323.15	0.07519	-68.2	13.1
323.15	0.05011	-63.9	19.8
323.15	0.02488	-71.3	40
323.15	0.01087	-80.1	91.8
328.15	1.0097	-23.09	0.93
328.15	0.50094	-37.93	1.89
328.15	0.25048	-49.64	3.85
328.15	0.10099	-61.8	9.7
328.15	0.07519	-69.1	13.1
328.15	0.05011	-64.6	19.8
328.15	0.02488	-75.1	40
328.15	0.01087	-75.1	91.8
333.15	1.0097	-22.32	0.93
333.15	0.50094	-36.68	1.9
333.15	0.25048	-47.99	3.86
333.15	0.10099	-59.8	9.7
333.15	0.07519	-68.3	13.1
333.15	0.05011	-63.6	19.8
333.15	0.02488	-74.6	40
333.15	0.01087	-75.6	91.8
338.15	1.0097	-22.45	0.93
338.15	0.50094	-36.38	1.9
338.15	0.25048	-47.52	3.86
338.15	0.10099	-59.4	9.7
338.15	0.07519	-69.5	13.1
338.15	0.05011	-64.8	19.8
338.15	0.02488	-77.6	40
338.15	0.01087	-70.9	91.8
343.15	1.0097	-23.03	0.93
343.15	0.50094	-36.6	1.9
343.15	0.25048	-47.53	3.86
343.15	0.10099	-59.2	9.7
343.15	0.07519	-68	13.1
343.15	0.05011	-63.4	19.8
343.15	0.02488	-73.7	40
343.15	0.01087	-80.7	91.8
348.15	1.0097	-24.36	0.93
348.15	0.50094	-37.56	1.89
348.15	0.25048	-48.61	3.86
348.15	0.10099	-60.7	9.7
348.15	0.07519	-66.2	13.1
348.15	0.05011	-61.3	19.8
348.15	0.02488	-68.7	40
348.15	0.01087	-68	91.8
353.15	1.0097	-26.01	0.92
353.15	0.50094	-38.62	1.89
353.15	0.25048	-49.6	3.85
353.15	0.10099	-61.8	9.7
353.15	0.07519	-64.8	13.1
353.15	0.05011	-59.2	19.8
353.15	0.02488	-63.9	40
353.15	0.01087	-44	91.9
358.15	1.0097	-27.54	0.92
358.15	0.50094	-39.82	1.89
358.15	0.25048	-50.62	3.85
358.15	0.10099	-62.6	9.7
358.15	0.07519	-66.8	13.1
358.15	0.05011	-60.5	19.8
358.15	0.02488	-65.2	40
358.15	0.01087	-45	91.9
363.15	1.0097	-29.48	0.91
363.15	0.50094	-41.26	1.88
363.15	0.25048	-51.68	3.85
363.15	0.10099	-63	9.7
363.15	0.07519	-69.2	13.1
363.15	0.05011	-62.9	19.8
363.15	0.02488	-67.2	40
363.15	0.01087	-54.9	91.8
368.15	1.0097	-31.71	0.91
368.15	0.50094	-43.78	1.87
368.15	0.25048	-54.48	3.84
368.15	0.10099	-66.4	9.7
368.15	0.07519	-70.3	13.1
368.15	0.05011	-64.2	19.8
368.15	0.02488	-67	40
368.15	0.01087	-53.6	91.8
373.15	1.0097	-34.08	0.9
373.15	0.50094	-45.93	1.87
373.15	0.25048	-56.34	3.83
373.15	0.10099	-67.7	9.7
373.15	0.07519	-71.7	13.1
373.15	0.05011	-65.5	19.8
373.15	0.02488	-66.6	40
373.15	0.01087	-56.8	91.8
378.15	1.0097	-37.1	0.89
378.15	0.50094	-49.13	1.86
378.15	0.25048	-59.68	3.82
378.15	0.10099	-71.1	9.7
378.15	0.07519	-76.1	13.1
378.15	0.05011	-70.5	19.8
378.15	0.02488	-73.2	40
378.15	0.01087	-71.3	91.8
383.15	1.0097	-40.31	0.88
383.15	0.50094	-52.03	1.85
383.15	0.25048	-62.49	3.81
383.15	0.10099	-73.5	9.7
383.15	0.07519	-80.6	13.1
383.15	0.05011	-75.3	19.7
383.15	0.02488	-78.5	40
383.15	0.01087	-93.4	91.7
388.15	1.0097	-43.6	0.87
388.15	0.50094	-55.55	1.84
388.15	0.25048	-66.13	3.8
388.15	0.10099	-77.1	9.7
388.15	0.07519	-84.6	13.1
388.15	0.05011	-80.2	19.7
388.15	0.02488	-83.6	40
388.15	0.01087	-97.2	91.7
393.15	1.0097	-47.44	0.86
393.15	0.50094	-59.42	1.83
393.15	0.25048	-70.13	3.79
393.15	0.10099	-81.2	9.7
393.15	0.07519	-90.3	13
393.15	0.05011	-87.2	19.7
393.15	0.02488	-93.1	39.9
393.15	0.01087	-120	92

System: sodium hydrogen fluoride + water; phases: Liquid
Fixed: Pressure, kPa = 350
Property: Apparent molar volume, m3/mol (Liquid); method: Calculated with densities of this investigation
Temperature, K	Molality, mol/kg of sodium hydrogen fluoride	Apparent molar volume, m3/mol	uncertainty
278.15	0.7052	-2.83e-06	1e-08
278.15	0.50463	-3.35e-06	2e-08
278.15	0.25129	-4.37e-06	4e-08
278.15	0.10748	-5.5e-06	1e-07
278.15	0.07882	-4.99e-06	1.5e-07
278.15	0.07488	-4.8e-06	2e-07
278.15	0.05241	-4.7e-06	2e-07
278.15	0.04996	-5.7e-06	3e-07
278.15	0.02697	-6.1e-06	5e-07
278.15	0.02506	-1.17e-05	1.1e-06
278.15	0.0115	-6.4e-06	1.3e-06
278.15	0.01085	-1.89e-05	4.3e-06
283.15	0.7052	-2.02e-06	1e-08
283.15	0.50463	-2.56e-06	1e-08
283.15	0.25129	-3.48e-06	3e-08
283.15	0.10748	-4.53e-06	1e-07
283.15	0.07882	-4.13e-06	1.3e-07
283.15	0.07488	-4.2e-06	1e-07
283.15	0.05241	-4.04e-06	1.9e-07
283.15	0.04996	-5.1e-06	3e-07
283.15	0.02697	-5.1e-06	5e-07
283.15	0.02506	-1e-05	1e-06
283.15	0.0115	-5.9e-06	1.2e-06
283.15	0.01085	-1.63e-05	3.7e-06
288.15	0.7052	-1.5e-06	1e-08
288.15	0.50463	-2e-06	1e-08
288.15	0.25129	-2.8e-06	3e-08
288.15	0.10748	-3.91e-06	9e-08
288.15	0.07882	-3.34e-06	1e-07
288.15	0.07488	-3.58e-06	1.2e-07
288.15	0.05241	-3.06e-06	1.4e-07
288.15	0.04996	-4.5e-06	2e-07
288.15	0.02697	-4.1e-06	4e-07
288.15	0.02506	-7.2e-06	7e-07
288.15	0.0115	-7.5e-06	1.6e-06
288.15	0.01085	-1.42e-05	3.2e-06
298.15	0.7052	-5.7e-07	1e-08
298.15	0.50463	-1.02e-06	1e-08
298.15	0.25129	-1.64e-06	2e-08
298.15	0.10748	-2.44e-06	5e-08
298.15	0.07882	-2.029e-06	6.2e-08
298.15	0.07488	-2.48e-06	8e-08
298.15	0.05241	-1.755e-06	8e-08
298.15	0.04996	-3.68e-06	1.8e-07
298.15	0.02697	-1.938e-06	1.72e-07
298.15	0.02506	-5.4e-06	5e-07
298.15	0.0115	-5.99e-06	1.26e-06
298.15	0.01085	-1.13e-05	2.5e-06
308.15	0.7052	-1e-07	1e-08
308.15	0.50463	-4.9e-07	1e-08
308.15	0.25129	-9.9e-07	1e-08
308.15	0.10748	-1.71e-06	4e-08
308.15	0.07882	-9.8e-07	3e-08
308.15	0.07488	-2.02e-06	6e-08
308.15	0.05241	-5.9e-07	3e-08
308.15	0.04996	-3.1e-06	1.5e-07
308.15	0.02697	7e-08	1e-08
308.15	0.02506	-4.3e-06	4e-07
308.15	0.0115	-5.8e-06	1.2e-06
308.15	0.01085	-9.4e-06	2.1e-06
318.15	0.7052	2.04e-07	1e-09
318.15	0.50463	-1.6e-07	1e-08
318.15	0.25129	-6.2e-07	1e-08
318.15	0.10748	-1.26e-06	3e-08
318.15	0.07882	-4.5e-07	1e-08
318.15	0.07488	-1.91e-06	6e-08
318.15	0.05241	8e-08	1e-08
318.15	0.04996	-2.63e-06	1.3e-07
318.15	0.02697	2e-07	1e-07
318.15	0.02506	-3.7e-06	4e-07
318.15	0.0115	-3.6e-06	8e-07
318.15	0.01085	-7.4e-06	1.7e-06
328.15	0.7052	2.8e-07	1e-08
328.15	0.50463	-7e-08	1e-08
328.15	0.25129	-6.2e-07	1e-08
328.15	0.10748	-1.29e-06	3e-08
328.15	0.07882	-1.7e-07	1e-08
328.15	0.07488	-1.83e-06	6e-08
328.15	0.05241	1.6e-07	1e-08
328.15	0.04996	-2.5e-06	1.2e-07
328.15	0.02697	8e-07	1e-07
328.15	0.02506	-3.7e-06	4e-07
328.15	0.0115	-3.6e-06	8e-07
328.15	0.01085	-7e-06	1.6e-06
338.15	0.7052	2.24e-07	1e-09
338.15	0.50463	-1.28e-07	1e-09
338.15	0.25129	-7.3e-07	1e-08
338.15	0.10748	-1.26e-06	3e-08
338.15	0.07882	-7e-08	1e-08
338.15	0.07488	-1.928e-06	6.2e-08
338.15	0.05241	5e-07	1e-07
338.15	0.04996	-2.466e-06	1.18e-07
338.15	0.02697	1e-06	1e-07
338.15	0.02506	-3.92e-06	3.8e-07
338.15	0.0115	-1.6e-06	3e-07
338.15	0.01085	-6.86e-06	1.53e-06
348.15	0.7052	1.8e-08	1e-09
348.15	0.50463	-3.93e-07	2e-09
348.15	0.25129	-9.5e-07	1e-08
348.15	0.10748	-1.62e-06	4e-08
348.15	0.07882	-3.6e-07	1e-08
348.15	0.07488	-1.33e-06	4e-08
348.15	0.05241	0	1e-07
348.15	0.04996	-1.9e-06	9e-08
348.15	0.02697	8e-07	1e-07
348.15	0.02506	-3e-06	2.9e-07
348.15	0.0115	-1.6e-06	3e-07
348.15	0.01085	-2.3e-06	5e-07
358.15	0.7052	-3.7e-07	1e-08
358.15	0.50463	-8e-07	1e-08
358.15	0.25129	-1.53e-06	2e-08
358.15	0.10748	-2.5e-06	1e-07
358.15	0.07882	-8e-07	1e-07
358.15	0.07488	-2.96e-06	1e-07
358.15	0.05241	0	1e-07
358.15	0.04996	-4.11e-06	2e-07
358.15	0.02697	6e-07	1e-07
358.15	0.02506	-6.1e-06	6e-07
358.15	0.0115	-1.2e-06	3e-07
358.15	0.01085	-1.01e-05	2.3e-06
368.15	0.7052	-9e-07	1e-08
368.15	0.50463	-1.41e-06	1e-08
368.15	0.25129	-2.3e-06	2e-08
368.15	0.10748	-3.52e-06	8e-08
368.15	0.07882	-1.69e-06	5e-08
368.15	0.07488	-4.84e-06	1.6e-07
368.15	0.05241	-9e-07	1e-07
368.15	0.04996	-6.3e-06	3e-07
368.15	0.02697	-7e-07	1e-07
368.15	0.02506	-1.14e-05	1.1e-06
368.15	0.0115	-2.6e-06	5e-07
368.15	0.01085	-2.05e-05	4.7e-06

System: sodium hydrogen fluoride + water; phases: Liquid
Fixed: Pressure, kPa = 350
Property: Apparent molar heat capacity, J/K/mol (Liquid); method: Extra sensitive DSC
Temperature, K	Molality, mol/kg of sodium hydrogen fluoride	Apparent molar heat capacity, J/K/mol	uncertainty
278.15	0.7052	-90.63	1.16
278.15	0.50463	-105.39	1.68
278.15	0.25129	-125.7	3.6
278.15	0.10748	-137.5	8.9
278.15	0.07882	-143.1	12.3
278.15	0.07488	-137.5	13
278.15	0.05241	-145.5	18.7
278.15	0.04996	-175.5	19.5
278.15	0.02697	-148.7	36.6
278.15	0.02506	-191	39
278.15	0.0115	-152	87
278.15	0.01085	-105	92
283.15	0.7052	-70.03	1.22
283.15	0.50463	-82.64	1.74
283.15	0.25129	-99.6	3.7
283.15	0.10748	-109.7	9
283.15	0.07882	-115.5	12.4
283.15	0.07488	-109.6	13
283.15	0.05241	-117.7	18.7
283.15	0.04996	-147.1	19.6
283.15	0.02697	-120.5	36.7
283.15	0.02506	-159	39
283.15	0.0115	-123	87
283.15	0.01085	-85	92
288.15	0.7052	-54.5	1.26
288.15	0.50463	-65.49	1.8
288.15	0.25129	-79.9	3.8
288.15	0.10748	-88.6	9
288.15	0.07882	-94.4	12.4
288.15	0.07488	-88.6	13.1
288.15	0.05241	-96.6	18.8
288.15	0.04996	-123.2	19.7
288.15	0.02697	-98.6	36.8
288.15	0.02506	-135	40
288.15	0.0115	-100	87
288.15	0.01085	-72	92
293.15	0.7052	-42.67	1.3
293.15	0.50463	-52.51	1.83
293.15	0.25129	-65.3	3.8
293.15	0.10748	-73.1	9.1
293.15	0.07882	-78.8	12.5
293.15	0.07488	-72.6	13.1
293.15	0.05241	-81.2	18.8
293.15	0.04996	-106.8	19.7
293.15	0.02697	-83.3	36.8
293.15	0.02506	-117	40
293.15	0.0115	-86	87
293.15	0.01085	-69	92
298.15	0.7052	-33.6	1.33
298.15	0.50463	-42.58	1.86
298.15	0.25129	-54.2	3.8
298.15	0.10748	-61.4	9.1
298.15	0.07882	-66.7	12.5
298.15	0.07488	-60.8	13.2
298.15	0.05241	-68.8	18.9
298.15	0.04996	-94.3	19.7
298.15	0.02697	-71.1	36.9
298.15	0.02506	-103	40
298.15	0.0115	-74	87
298.15	0.01085	-63	92
303.15	0.7052	-26.67	1.35
303.15	0.50463	-34.98	1.89
303.15	0.25129	-45.7	3.9
303.15	0.10748	-52.5	9.2
303.15	0.07882	-57.5	12.5
303.15	0.07488	-51.7	13.2
303.15	0.05241	-59.6	18.9
303.15	0.04996	-84.8	19.8
303.15	0.02697	-61.6	36.9
303.15	0.02506	-94	40
303.15	0.0115	-63	87
303.15	0.01085	-57	92
308.15	0.7052	-21.34	1.36
308.15	0.50463	-29.16	1.9
308.15	0.25129	-39.3	3.9
308.15	0.10748	-45.8	9.2
308.15	0.07882	-50.7	12.5
308.15	0.07488	-44.8	13.2
308.15	0.05241	-52.7	18.9
308.15	0.04996	-77.6	19.8
308.15	0.02697	-54.4	36.9
308.15	0.02506	-87	40
308.15	0.0115	-55	87
308.15	0.01085	-51	92
313.15	0.7052	-17.42	1.38
313.15	0.50463	-24.91	1.92
313.15	0.25129	-34.6	3.9
313.15	0.10748	-41.1	9.2
313.15	0.07882	-45.4	12.6
313.15	0.07488	-40	13.2
313.15	0.05241	-47.3	18.9
313.15	0.04996	-73	19.8
313.15	0.02697	-48.9	36.9
313.15	0.02506	-84	40
313.15	0.0115	-47.3	86.8
313.15	0.01085	-48	92
318.15	0.7052	-14.58	1.38
318.15	0.50463	-21.83	1.93
318.15	0.25129	-31.4	3.9
318.15	0.10748	-38	9.2
318.15	0.07882	-42.4	12.6
318.15	0.07488	-36.6	13.3
318.15	0.05241	-43.8	19
318.15	0.04996	-69.8	19.8
318.15	0.02697	-45.6	37
318.15	0.02506	-81	40
318.15	0.0115	-43.7	86.8
318.15	0.01085	-47	92
323.15	0.7052	-12.61	1.39
323.15	0.50463	-19.61	1.93
323.15	0.25129	-29.1	3.9
323.15	0.10748	-35.6	9.2
323.15	0.07882	-40.2	12.6
323.15	0.07488	-34.3	13.3
323.15	0.05241	-42	19
323.15	0.04996	-67.2	19.8
323.15	0.02697	-43.6	37
323.15	0.02506	-75	40
323.15	0.0115	-43.1	86.8
323.15	0.01085	-46	92
328.15	0.7052	-11.39	1.39
328.15	0.50463	-18.21	1.94
328.15	0.25129	-27.8	3.9
328.15	0.10748	-34.4	9.2
328.15	0.07882	-39	12.6
328.15	0.07488	-33.1	13.3
328.15	0.05241	-40.9	19
328.15	0.04996	-66.2	19.8
328.15	0.02697	-43	37
328.15	0.02506	-75	40
328.15	0.0115	-43.8	86.8
328.15	0.01085	-47	92
333.15	0.7052	-10.7	1.4
333.15	0.50463	-17.4	1.94
333.15	0.25129	-27.2	3.9
333.15	0.10748	-33	9.2
333.15	0.07882	-38.4	12.6
333.15	0.07488	-32.8	13.3
333.15	0.05241	-40.4	19
333.15	0.04996	-66.3	19.8
333.15	0.02697	-41.6	37
333.15	0.02506	-76	40
333.15	0.0115	-41	86.8
333.15	0.01085	-46	92
338.15	0.7052	-10.51	1.4
338.15	0.50463	-17.17	1.94
338.15	0.25129	-27.2	3.9
338.15	0.10748	-33	9.2
338.15	0.07882	-38.7	12.6
338.15	0.07488	-33.5	13.3
338.15	0.05241	-40.9	19
338.15	0.04996	-67	19.8
338.15	0.02697	-42	37
338.15	0.02506	-77	40
338.15	0.0115	-42.7	86.8
338.15	0.01085	-46	92
343.15	0.7052	-10.63	1.4
343.15	0.50463	-17.33	1.94
343.15	0.25129	-27.6	3.9
343.15	0.10748	-34.9	9.2
343.15	0.07882	-39.5	12.6
343.15	0.07488	-34.5	13.3
343.15	0.05241	-41.9	19
343.15	0.04996	-68.7	19.8
343.15	0.02697	-43.4	37
343.15	0.02506	-79	40
343.15	0.0115	-43.8	86.8
343.15	0.01085	-45	92
348.15	0.7052	-11	1.4
348.15	0.50463	-17.76	1.94
348.15	0.25129	-28.3	3.9
348.15	0.10748	-35.9	9.2
348.15	0.07882	-40.7	12.6
348.15	0.07488	-36.1	13.3
348.15	0.05241	-43.2	19
348.15	0.04996	-69.7	19.8
348.15	0.02697	-45.1	37
348.15	0.02506	-83	40
348.15	0.0115	-47.3	86.8
348.15	0.01085	-45	92
353.15	0.7052	-11.58	1.39
353.15	0.50463	-18.43	1.94
353.15	0.25129	-29.3	3.9
353.15	0.10748	-36.5	9.2
353.15	0.07882	-41.9	12.6
353.15	0.07488	-37.6	13.3
353.15	0.05241	-44.3	19
353.15	0.04996	-69.9	19.8
353.15	0.02697	-46	37
353.15	0.02506	-84	40
353.15	0.0115	-48	87
353.15	0.01085	-47	92
358.15	0.7052	-12.28	1.39
358.15	0.50463	-19.24	1.93
358.15	0.25129	-30.5	3.9
358.15	0.10748	-37.4	9.2
358.15	0.07882	-43.7	12.6
358.15	0.07488	-39.3	13.2
358.15	0.05241	-46.4	19
358.15	0.04996	-73.8	19.8
358.15	0.02697	-47.9	36.9
358.15	0.02506	-78	40
358.15	0.0115	-50	87
358.15	0.01085	-48	92
363.15	0.7052	-12.98	1.39
363.15	0.50463	-20.22	1.93
363.15	0.25129	-31.9	3.9
363.15	0.10748	-38.9	9.2
363.15	0.07882	-45.7	12.6
363.15	0.07488	-41.9	13.2
363.15	0.05241	-48.4	18.9
363.15	0.04996	-74.8	19.8
363.15	0.02697	-49.6	36.9
363.15	0.02506	-77	40
363.15	0.0115	-51	87
363.15	0.01085	-52	92
368.15	0.7052	-13.79	1.39
368.15	0.50463	-21.21	1.93
368.15	0.25129	-33.3	3.9
368.15	0.10748	-41	9.2
368.15	0.07882	-47.7	12.6
368.15	0.07488	-43.4	13.2
368.15	0.05241	-50.5	18.9
368.15	0.04996	-78.5	19.8
368.15	0.02697	-52	36.9
368.15	0.02506	-84	40
368.15	0.0115	-54	87
368.15	0.01085	-54	92
373.15	0.7052	-14.71	1.38
373.15	0.50463	-22.28	1.92
373.15	0.25129	-34.9	3.9
373.15	0.10748	-43.9	9.2
373.15	0.07882	-49.5	12.5
373.15	0.07488	-45.8	13.2
373.15	0.05241	-52.3	18.9
373.15	0.04996	-82.6	19.8
373.15	0.02697	-54.2	36.9
373.15	0.02506	-93	40
373.15	0.0115	-58	87
373.15	0.01085	-59	92
378.15	0.7052	-15.48	1.38
378.15	0.50463	-23.24	1.92
378.15	0.25129	-36.5	3.9
378.15	0.10748	-45.4	9.2
378.15	0.07882	-51.2	12.5
378.15	0.07488	-48.4	13.2
378.15	0.05241	-54.2	18.9
378.15	0.04996	-84.5	19.8
378.15	0.02697	-56.3	36.9
378.15	0.02506	-88	40
378.15	0.0115	-59	87
378.15	0.01085	-65	92
383.15	0.7052	-15.81	1.38
383.15	0.50463	-24.08	1.92
383.15	0.25129	-37.8	3.9
383.15	0.10748	-46.1	9.2
383.15	0.07882	-52.6	12.5
383.15	0.07488	-50.5	13.2
383.15	0.05241	-55.4	18.9
383.15	0.04996	-87	19.8
383.15	0.02697	-58.8	36.9
383.15	0.02506	-90	40
383.15	0.0115	-61	87
383.15	0.01085	-68	92
388.15	0.7052	-16.62	1.38
388.15	0.50463	-24.88	1.92
388.15	0.25129	-40	3.9
388.15	0.10748	-47.9	9.2
388.15	0.07882	-53.9	12.5
388.15	0.07488	-51.7	13.2
388.15	0.05241	-56.5	18.9
388.15	0.04996	-86.7	19.8
388.15	0.02697	-61	37
388.15	0.02506	-97	40
388.15	0.0115	-64	87
388.15	0.01085	-70	92
393.15	0.7052	-16.88	1.38
393.15	0.50463	-25.59	1.91
393.15	0.25129	-40.8	3.9
393.15	0.10748	-48.9	9.2
393.15	0.07882	-54.3	12.5
393.15	0.07488	-53.9	13.2
393.15	0.05241	-56.7	18.9
393.15	0.04996	-91.8	19.8
393.15	0.02697	-63	37
393.15	0.02506	-104	40
393.15	0.0115	-67	87
393.15	0.01085	-76	92
