Measured thermophysical data. Heat capacities of the mixtures of ionic liquids with methanol at temperatures from 283.15 K to 323.15 K
Source: J. Chem. Thermodyn., 2008, 10.1016/j.jct.2007.07.001
Compound 1: methanol, CH4O, InChI=1S/CH4O/c1-2/h2H,1H3
Compound 2: 1-hexyl-3-methylimidazolium tetrafluoroborate, C10H19BF4N2, InChI=1S/C10H19N2.BF4/c1-3-4-5-6-7-12-9-8-11(2)10-12;2-1(3,4)5/h8-10H,3-7H2,1-2H3;/q+1;-1, purity 97%
Compound 3: 1-methyl-3-octylimidazolium tetrafluoroborate, C12H23BF4N2, InChI=1S/C12H23N2.BF4/c1-3-4-5-6-7-8-9-14-11-10-13(2)12-14;2-1(3,4)5/h10-12H,3-9H2,1-2H3;/q+1;-1, purity 97%

System: methanol; phases: Liquid
Fixed: Pressure, kPa = 101
Property: Molar heat capacity at constant pressure, J/K/mol (Liquid); method: Large sample (1 g) DSC
Temperature, K	Molar heat capacity at constant pressure, J/K/mol	uncertainty
283.15	78.6	1.2
288.15	79.5	1.2
293.15	80.4	1.2
298.15	81.3	1.3
303.15	82.3	1.3
308.15	83.4	1.3
313.15	84.5	1.3
318.15	85.7	1.3
323.15	87	1.3

System: 1-hexyl-3-methylimidazolium tetrafluoroborate; phases: Liquid
Fixed: Pressure, kPa = 101
Property: Molar heat capacity at constant pressure, J/K/mol (Liquid); method: Large sample (1 g) DSC
Temperature, K	Molar heat capacity at constant pressure, J/K/mol	uncertainty
283.15	423.2	6.6
288.15	425.8	6.6
293.15	428.4	6.6
298.15	431	6.7
303.15	433.6	6.7
308.15	436.2	6.8
313.15	438.8	6.8
318.15	441.4	6.8
323.15	444	6.9

System: 1-methyl-3-octylimidazolium tetrafluoroborate; phases: Liquid
Fixed: Pressure, kPa = 101
Property: Molar heat capacity at constant pressure, J/K/mol (Liquid); method: Large sample (1 g) DSC
Temperature, K	Molar heat capacity at constant pressure, J/K/mol	uncertainty
283.15	490.1	7.6
288.15	493.2	7.6
293.15	496.3	7.7
298.15	499.4	7.7
303.15	502.5	7.8
308.15	505.4	7.8
313.15	508.4	7.9
318.15	511.3	7.9
323.15	514.2	8

System: methanol + 1-hexyl-3-methylimidazolium tetrafluoroborate; phases: Liquid
Fixed: Pressure, kPa = 101
Property: Molar heat capacity at constant pressure, J/K/mol (Liquid); method: Large sample (1 g) DSC
Temperature, K	Mole fraction of 1-hexyl-3-methylimidazolium tetrafluoroborate	Molar heat capacity at constant pressure, J/K/mol	uncertainty
283.15	0	78.6	1.2
283.15	0.0751	108	1.7
283.15	0.1511	135.5	2.1
283.15	0.2973	187.2	2.9
283.15	0.397	220.7	3.4
283.15	0.6423	301.9	4.7
283.15	0.8759	380.4	5.9
283.15	1	423.2	6.6
288.15	0	79.5	1.2
288.15	0.0751	108.7	1.7
288.15	0.1511	136.4	2.1
288.15	0.2973	188.1	2.9
288.15	0.397	221.7	3.4
288.15	0.6423	303.6	4.7
288.15	0.8759	382.7	5.9
288.15	1	425.8	6.6
293.15	0	80.4	1.2
293.15	0.0751	109.5	1.7
293.15	0.1511	137.4	2.1
293.15	0.2973	188.9	2.9
293.15	0.397	222.8	3.5
293.15	0.6423	305.3	4.7
293.15	0.8759	385	6
293.15	1	428.4	6.6
298.15	0	81.3	1.3
298.15	0.0751	110.3	1.7
298.15	0.1511	138.3	2.1
298.15	0.2973	189.9	2.9
298.15	0.397	223.9	3.5
298.15	0.6423	307	4.8
298.15	0.8759	387.4	6
298.15	1	431	6.7
303.15	0	82.3	1.3
303.15	0.0751	111.2	1.7
303.15	0.1511	139.3	2.2
303.15	0.2973	190.8	3
303.15	0.397	225.1	3.5
303.15	0.6423	308.7	4.8
303.15	0.8759	389.7	6
303.15	1	433.6	6.7
308.15	0	83.4	1.3
308.15	0.0751	112.2	1.7
308.15	0.1511	140.3	2.2
308.15	0.2973	191.8	3
308.15	0.397	226.3	3.5
308.15	0.6423	310.5	4.8
308.15	0.8759	392.1	6.1
308.15	1	436.2	6.8
313.15	0	84.5	1.3
313.15	0.0751	113.2	1.8
313.15	0.1511	141.3	2.2
313.15	0.2973	192.9	3
313.15	0.397	227.5	3.5
313.15	0.6423	312.3	4.8
313.15	0.8759	394.5	6.1
313.15	1	438.8	6.8
318.15	0	85.7	1.3
318.15	0.0751	114.2	1.8
318.15	0.1511	142.4	2.2
318.15	0.2973	193.9	3
318.15	0.397	228.8	3.5
318.15	0.6423	314.1	4.9
318.15	0.8759	396.9	6.1
318.15	1	441.4	6.8
323.15	0	87	1.3
323.15	0.0751	115.3	1.8
323.15	0.1511	143.4	2.2
323.15	0.2973	195.1	3
323.15	0.397	230.1	3.6
323.15	0.6423	315.9	4.9
323.15	0.8759	399.3	6.2
323.15	1	444	6.9

System: methanol + 1-methyl-3-octylimidazolium tetrafluoroborate; phases: Liquid
Fixed: Pressure, kPa = 101
Property: Molar heat capacity at constant pressure, J/K/mol (Liquid); method: Large sample (1 g) DSC
Temperature, K	Mole fraction of 1-methyl-3-octylimidazolium tetrafluoroborate	Molar heat capacity at constant pressure, J/K/mol	uncertainty
283.15	0	78.6	1.2
283.15	0.0736	111.8	1.7
283.15	0.1652	151.5	2.3
283.15	0.3441	226.4	3.5
283.15	0.4516	269.5	4.2
283.15	0.6526	349.3	5.4
283.15	0.8472	427.6	6.6
283.15	1	490.1	7.6
288.15	0	79.5	1.2
288.15	0.0736	112.7	1.7
288.15	0.1652	152.6	2.4
288.15	0.3441	227.4	3.5
288.15	0.4516	270.8	4.2
288.15	0.6526	351.3	5.4
288.15	0.8472	430.3	6.7
288.15	1	493.2	7.6
293.15	0	80.4	1.2
293.15	0.0736	113.6	1.8
293.15	0.1652	153.7	2.4
293.15	0.3441	228.5	3.5
293.15	0.4516	272.1	4.2
293.15	0.6526	353.3	5.5
293.15	0.8472	433	6.7
293.15	1	496.3	7.7
298.15	0	81.3	1.3
298.15	0.0736	114.6	1.8
298.15	0.1652	154.7	2.4
298.15	0.3441	229.6	3.6
298.15	0.4516	273.5	4.2
298.15	0.6526	355.3	5.5
298.15	0.8472	435.7	6.8
298.15	1	499.4	7.7
303.15	0	82.3	1.3
303.15	0.0736	115.6	1.8
303.15	0.1652	155.9	2.4
303.15	0.3441	230.8	3.6
303.15	0.4516	275	4.3
303.15	0.6526	357.4	5.5
303.15	0.8472	438.4	6.8
303.15	1	502.5	7.8
308.15	0	83.4	1.3
308.15	0.0736	116.6	1.8
308.15	0.1652	157	2.4
308.15	0.3441	232.1	3.6
308.15	0.4516	276.6	4.3
308.15	0.6526	359.6	5.6
308.15	0.8472	441.1	6.8
308.15	1	505.4	7.8
313.15	0	84.5	1.3
313.15	0.0736	117.7	1.8
313.15	0.1652	158.1	2.4
313.15	0.3441	233.5	3.6
313.15	0.4516	278.2	4.3
313.15	0.6526	361.8	5.6
313.15	0.8472	443.7	6.9
313.15	1	508.4	7.9
318.15	0	85.7	1.3
318.15	0.0736	118.9	1.8
318.15	0.1652	159.3	2.5
318.15	0.3441	235	3.6
318.15	0.4516	279.9	4.3
318.15	0.6526	364	5.6
318.15	0.8472	446.3	6.9
318.15	1	511.3	7.9
323.15	0	87	1.3
323.15	0.0736	120.1	1.9
323.15	0.1652	160.4	2.5
323.15	0.3441	236.6	3.7
323.15	0.4516	281.6	4.4
323.15	0.6526	366.4	5.7
323.15	0.8472	448.9	7
323.15	1	514.2	8
