Measured thermophysical data. Isobaric vapour-liquid equilibrium measurements and extractive distillation process for the azeotrope of (N,N-dimethylisopropylamine  +  acetone)
Source: J. Chem. Thermodyn., 2018, 10.1016/j.jct.2018.03.019
Compound 1: N,N-dimethylisopropylamine, C5H13N, InChI=1S/C5H13N/c1-5(2)6(3)4/h5H,1-4H3, purity 99%
Compound 2: acetone, C3H6O, InChI=1S/C3H6O/c1-3(2)4/h1-2H3, purity 99.5%
Compound 3: N,N-dimethylethanamide, C4H9NO, InChI=1S/C4H9NO/c1-4(6)5(2)3/h1-3H3, purity 99%
Compound 4: 2-furaldehyde, C5H4O2, InChI=1S/C5H4O2/c6-4-5-2-1-3-7-5/h1-4H, purity 99%

System: N,N-dimethylisopropylamine; phases: Liquid, Gas
Property: Vapor or sublimation pressure, kPa (Liquid); method: Ebulliometric method (Recirculating still)
Temperature, K	Vapor or sublimation pressure, kPa	uncertainty
339.13	101.3	0.7091

System: acetone; phases: Liquid, Gas
Property: Vapor or sublimation pressure, kPa (Liquid); method: Ebulliometric method (Recirculating still)
Temperature, K	Vapor or sublimation pressure, kPa	uncertainty
329.56	101.3	0.65845

System: N,N-dimethylethanamide; phases: Liquid, Gas
Property: Vapor or sublimation pressure, kPa (Liquid); method: Ebulliometric method (Recirculating still)
Temperature, K	Vapor or sublimation pressure, kPa	uncertainty
439.05	101.3	0.7091

System: 2-furaldehyde; phases: Liquid, Gas
Property: Vapor or sublimation pressure, kPa (Liquid); method: Ebulliometric method (Recirculating still)
Temperature, K	Vapor or sublimation pressure, kPa	uncertainty
435.15	101.3	0.7091

System: N,N-dimethylisopropylamine + acetone; phases: Liquid, Gas
Fixed: Pressure, kPa = 101.3
Property: Boiling temperature at pressure P, K (Liquid); method: Ebulliometric method (Recirculating still)
Mole fraction of N,N-dimethylisopropylamine	Boiling temperature at pressure P, K	uncertainty
0	329.56	0.22
0.0076	329.38	0.22
0.0415	328.69	0.22
0.0614	328.36	0.22
0.0857	328.07	0.22
0.152	327.25	0.22
0.1784	327.05	0.22
0.2416	326.76	0.22
0.3451	326.72	0.22
0.4279	326.87	0.22
0.4973	327.2	0.22
0.5828	327.73	0.22
0.6748	328.4	0.22
0.7288	329.15	0.22
0.7876	329.96	0.22
0.8495	331.26	0.22
0.8766	332.35	0.22
0.8977	333.2	0.22
0.9219	334.1	0.22
0.9559	336.02	0.22
0.9858	337.97	0.22
1	339.13	0.22

System: N,N-dimethylisopropylamine + acetone; phases: Gas, Liquid
Fixed: Pressure, kPa = 101.3
Property: Mole fraction of N,N-dimethylisopropylamine (Gas); method: Chromatography
Mole fraction of N,N-dimethylisopropylamine	Mole fraction of N,N-dimethylisopropylamine	uncertainty
0	0	
0.0076	0.0146	0.012
0.0415	0.0732	0.012
0.0614	0.1005	0.012
0.0857	0.1293	0.0121
0.152	0.1923	0.0121
0.1784	0.2133	0.0121
0.2416	0.2577	0.0122
0.3451	0.3279	0.0124
0.4279	0.3733	0.0125
0.4973	0.41	0.0126
0.5828	0.4564	0.0128
0.6748	0.5125	0.013
0.7288	0.551	0.0129
0.7876	0.6008	0.0128
0.8495	0.6675	0.0126
0.8766	0.7037	0.0125
0.8977	0.7361	0.0124
0.9219	0.7792	0.0123
0.9559	0.8551	0.0122
0.9858	0.9451	0.012
1	1	

System: N,N-dimethylisopropylamine + N,N-dimethylethanamide; phases: Liquid, Gas
Fixed: Pressure, kPa = 101.3
Property: Boiling temperature at pressure P, K (Liquid); method: Ebulliometric method (Recirculating still)
Mole fraction of N,N-dimethylisopropylamine	Boiling temperature at pressure P, K	uncertainty
1	339.13	0.22
0.957	340.21	0.22
0.9003	340.74	0.22
0.7981	342.27	0.22
0.6302	345.13	0.22
0.5301	347.1	0.22
0.4656	348.89	0.22
0.4085	350.96	0.22
0.3286	355.29	0.22
0.2381	362.33	0.22
0.1818	369.3	0.22
0.1393	377.22	0.22
0.1122	383.54	0.22
0.0812	394.55	0.22
0.0646	401.6	0.22
0.0516	408.24	0.22
0.0399	414.69	0.22
0.031	419.89	0.22
0.0229	424.84	0.22
0.0055	435.7	0.22
0	439.05	0.22

System: N,N-dimethylisopropylamine + N,N-dimethylethanamide; phases: Gas, Liquid
Fixed: Pressure, kPa = 101.3
Property: Mole fraction of N,N-dimethylisopropylamine (Gas); method: Chromatography
Mole fraction of N,N-dimethylisopropylamine	Mole fraction of N,N-dimethylisopropylamine	uncertainty
1	1	
0.957	0.9912	0.0088
0.9003	0.9881	0.0119
0.7981	0.9844	0.012
0.6302	0.9786	0.012
0.5301	0.9749	0.012
0.4656	0.9702	0.012
0.4085	0.9643	0.012
0.3286	0.9531	0.012
0.2381	0.9339	0.012
0.1818	0.9105	0.0121
0.1393	0.8748	0.0121
0.1122	0.8397	0.0122
0.0812	0.7605	0.0124
0.0646	0.6907	0.0126
0.0516	0.6135	0.0129
0.0399	0.5227	0.0131
0.031	0.4367	0.0128
0.0229	0.3436	0.0125
0.0055	0.0934	0.012
0	0	

System: N,N-dimethylisopropylamine + 2-furaldehyde; phases: Liquid, Gas
Fixed: Pressure, kPa = 101.3
Property: Boiling temperature at pressure P, K (Liquid); method: Ebulliometric method (Recirculating still)
Mole fraction of N,N-dimethylisopropylamine	Boiling temperature at pressure P, K	uncertainty
1	339.13	0.22
0.9809	339.29	0.22
0.9066	341.3	0.22
0.8349	342.7	0.22
0.7745	343.75	0.22
0.6655	346.15	0.22
0.589	347.65	0.22
0.4312	351.2	0.22
0.3127	355.35	0.22
0.2264	361.3	0.22
0.1628	368.3	0.22
0.1256	376.35	0.22
0.108	382.65	0.22
0.0635	397.15	0.22
0.041	407.75	0.22
0.0197	420.7	0.22
0.0075	428.55	0.22
0	435.15	0.22

System: N,N-dimethylisopropylamine + 2-furaldehyde; phases: Gas, Liquid
Fixed: Pressure, kPa = 101.3
Property: Mole fraction of N,N-dimethylisopropylamine (Gas); method: Chromatography
Mole fraction of N,N-dimethylisopropylamine	Mole fraction of N,N-dimethylisopropylamine	uncertainty
1	1	
0.9809	0.995	0.005
0.9066	0.9893	0.0107
0.8349	0.9841	0.012
0.7745	0.9795	0.012
0.6655	0.9729	0.012
0.589	0.9691	0.012
0.4312	0.9601	0.012
0.3127	0.9472	0.012
0.2264	0.9295	0.0121
0.1628	0.9003	0.0121
0.1256	0.86	0.0122
0.108	0.8202	0.0123
0.0635	0.6865	0.0127
0.041	0.5455	0.0131
0.0197	0.3197	0.0124
0.0075	0.1358	0.0121
0	0	

System: acetone + 2-furaldehyde; phases: Liquid, Gas
Fixed: Pressure, kPa = 101.3
Property: Boiling temperature at pressure P, K (Liquid); method: Ebulliometric method (Recirculating still)
Mole fraction of acetone	Boiling temperature at pressure P, K	uncertainty
1	329.56	0.22
0.9196	331.84	0.22
0.8503	334.12	0.22
0.7857	336.37	0.22
0.7181	338.94	0.22
0.6678	340.75	0.22
0.6044	343.74	0.22
0.5025	349.35	0.22
0.4247	354.22	0.22
0.3632	358.91	0.22
0.2944	365.94	0.22
0.2401	373.68	0.22
0.1899	383.37	0.22
0.1519	392.67	0.22
0.1259	399.8	0.22
0.0963	408.12	0.22
0.0606	417.69	0.22
0.0286	426.54	0.22
0	435.15	0.22

System: acetone + 2-furaldehyde; phases: Gas, Liquid
Fixed: Pressure, kPa = 101.3
Property: Mole fraction of acetone (Gas); method: Chromatography
Mole fraction of acetone	Mole fraction of acetone	uncertainty
1	1	
0.9196	0.9985	0.0015
0.8503	0.9965	0.0035
0.7857	0.9944	0.0056
0.7181	0.9913	0.0087
0.6678	0.989	0.011
0.6044	0.9846	0.012
0.5025	0.9747	0.012
0.4247	0.9641	0.012
0.3632	0.9518	0.012
0.2944	0.928	0.012
0.2401	0.893	0.0121
0.1899	0.8332	0.0121
0.1519	0.7548	0.0123
0.1259	0.6788	0.0125
0.0963	0.5665	0.0128
0.0606	0.4029	0.0126
0.0286	0.2126	0.0121
0	0	
