Measured thermophysical data. (Liquid + liquid) phase behavior for systems containing (aromatic + TBA + methylcyclohexane)
Source: J. Chem. Thermodyn., 2004, 10.1016/j.jct.2003.11.002
Compound 1: 2-methylpropan-2-ol, C4H10O, InChI=1S/C4H10O/c1-4(2,3)5/h5H,1-3H3
Compound 2: toluene, C7H8, InChI=1S/C7H8/c1-7-5-3-2-4-6-7/h2-6H,1H3
Compound 3: methylcyclohexane, C7H14, InChI=1S/C7H14/c1-7-5-3-2-4-6-7/h7H,2-6H2,1H3
Compound 4: ethylbenzene, C8H10, InChI=1S/C8H10/c1-2-8-6-4-3-5-7-8/h3-7H,2H2,1H3
Compound 5: benzene, C6H6, InChI=1S/C6H6/c1-2-4-6-5-3-1/h1-6H

System: benzene + 2-methylpropan-2-ol + methylcyclohexane; phases: Liquid mixture 1, Liquid mixture 2
Fixed: Temperature, K = 298.2
Fixed: Pressure, kPa = 101.3
Property: Mole fraction of 2-methylpropan-2-ol (Liquid mixture 1); method: Chromatography
Property: Mole fraction of methylcyclohexane (Liquid mixture 2); method: Chromatography
Property: Mole fraction of 2-methylpropan-2-ol (Liquid mixture 2); method: Chromatography
Mole fraction of methylcyclohexane	Mole fraction of 2-methylpropan-2-ol	uncertainty	Mole fraction of methylcyclohexane	uncertainty	Mole fraction of 2-methylpropan-2-ol	uncertainty
0.817	0.145	0.0092	0.036	0.0011	0.958	
0.657	0.23	0.0084	0.013	0.0004	0.939	
0.599	0.2587	0.0091	0.0132	0.0004	0.929	
0.465	0.345	0.01	0.014	0.0004	0.899	
0.294	0.481	0.0112	0.015	0.0005	0.81	

System: 2-methylpropan-2-ol + methylcyclohexane + toluene; phases: Liquid mixture 1, Liquid mixture 2
Fixed: Temperature, K = 298.2
Fixed: Pressure, kPa = 101.3
Property: Mole fraction of 2-methylpropan-2-ol (Liquid mixture 1); method: Chromatography
Property: Mole fraction of 2-methylpropan-2-ol (Liquid mixture 2); method: Chromatography
Property: Mole fraction of methylcyclohexane (Liquid mixture 2); method: Chromatography
Mole fraction of methylcyclohexane	Mole fraction of 2-methylpropan-2-ol	uncertainty	Mole fraction of 2-methylpropan-2-ol	uncertainty	Mole fraction of methylcyclohexane	uncertainty
0.767	0.185	0.0057	0.891	0.0089	0.0125	
0.737	0.225	0.0069	0.904	0.0091	0.0854	
0.653	0.287	0.0088	0.92	0.0092	0.0539	
0.533	0.385	0.0119	0.923	0.0092	0.0393	
0.421	0.483	0.0149	0.914	0.0092	0.0289	

System: 2-methylpropan-2-ol + ethylbenzene + methylcyclohexane; phases: Liquid mixture 1, Liquid mixture 2
Fixed: Temperature, K = 298.2
Fixed: Pressure, kPa = 101.3
Property: Mole fraction of 2-methylpropan-2-ol (Liquid mixture 1); method: Chromatography
Property: Mole fraction of methylcyclohexane (Liquid mixture 2); method: Chromatography
Property: Mole fraction of 2-methylpropan-2-ol (Liquid mixture 2); method: Chromatography
Mole fraction of methylcyclohexane	Mole fraction of 2-methylpropan-2-ol	uncertainty	Mole fraction of methylcyclohexane	uncertainty	Mole fraction of 2-methylpropan-2-ol	uncertainty
0.833	0.167	0.01	0.1378	0.0107	0.859	
0.74	0.222	0.0107	0.1533	0.0098	0.833	
0.6788	0.268	0.0117	0.165	0.0114	0.81	
0.635	0.301	0.0121	0.196	0.0117	0.768	
0.5218	0.394	0.012	0.2135	0.0108	0.7415	
