Measured thermophysical data. Excess molar enthalpies of ternary mixtures of (methanol, ethanol + 2-propanol + 1,4-dioxane) at T ? 298:15 K
Source: J. Chem. Thermodyn., 2004, 10.1016/j.jct.2004.03.014
Compound 1: methanol, CH4O, InChI=1S/CH4O/c1-2/h2H,1H3
Compound 2: propan-2-ol, C3H8O, InChI=1S/C3H8O/c1-3(2)4/h3-4H,1-2H3
Compound 3: 1,4-dioxane, C4H8O2, InChI=1S/C4H8O2/c1-2-6-4-3-5-1/h1-4H2
Compound 4: ethanol, C2H6O, InChI=1S/C2H6O/c1-2-3/h3H,2H2,1H3

System: methanol + propan-2-ol + 1,4-dioxane; phases: Liquid
Fixed: Temperature, K = 298.15
Fixed: Pressure, kPa = 101.3
Property: Excess molar enthalpy (molar enthalpy of mixing), kJ/mol (Liquid); method: Flow calorimetry
Mole fraction of methanol	Mole fraction of propan-2-ol	Excess molar enthalpy (molar enthalpy of mixing), kJ/mol	uncertainty
0.0125	0.0375	0.34885	0.00364
0.025	0.025	0.32783	0.00346
0.025	0.075	0.6565	0.00629
0.0374	0.1126	0.91553	0.00852
0.0375	0.0125	0.30176	0.00324
0.0499	0.1501	1.13966	0.01046
0.05	0.05	0.58904	0.00571
0.0624	0.1876	1.32344	0.01205
0.0749	0.2251	1.47052	0.01332
0.075	0.025	0.52638	0.00516
0.075	0.075	0.81775	0.00768
0.0874	0.2626	1.57709	0.01424
0.0998	0.3002	1.66285	0.01498
0.0999	0.1001	1.00656	0.00931
0.1123	0.3377	1.71588	0.01544
0.1125	0.0375	0.71931	0.00683
0.1248	0.3752	1.73262	0.01559
0.1249	0.1251	1.16351	0.01066
0.1373	0.4127	1.73285	0.01559
0.1498	0.4502	1.68698	0.01519
0.1499	0.1501	1.29006	0.01176
0.15	0.05	0.87997	0.00821
0.1622	0.4878	1.60575	0.01449
0.1747	0.5253	1.50132	0.01359
0.1749	0.1751	1.38239	0.01256
0.1872	0.5628	1.3589	0.01236
0.1875	0.0625	1.01302	0.00936
0.1997	0.6003	1.17523	0.01077
0.1999	0.2001	1.44659	0.01311
0.2121	0.6379	0.96033	0.00891
0.2246	0.6754	0.70425	0.0067
0.2249	0.2251	1.48225	0.01342
0.225	0.075	1.11618	0.01025
0.2371	0.7129	0.35466	0.00371
0.2498	0.2502	1.48893	0.01348
0.2625	0.0875	1.19132	0.0109
0.2748	0.2752	1.47921	0.01339
0.2998	0.3002	1.4372	0.01303
0.3	0.1	1.24492	0.01137
0.3248	0.3252	1.36505	0.01241
0.3374	0.1126	1.26541	0.01154
0.3498	0.3502	1.26817	0.01157
0.3748	0.3752	1.14459	0.0105
0.375	0.125	1.2685	0.01157
0.3997	0.4003	0.9915	0.00917
0.4124	0.1376	1.25064	0.01142
0.4247	0.4253	0.80484	0.00756
0.4497	0.4503	0.58059	0.00562
0.4499	0.1501	1.2132	0.01109
0.4747	0.4753	0.27321	0.00298
0.4874	0.1626	1.15076	0.01055
0.5249	0.1751	1.06472	0.00981
0.5624	0.1876	0.95653	0.00887
0.5999	0.2001	0.82357	0.00772
0.6374	0.2126	0.66557	0.00636
0.6749	0.2251	0.4795	0.00475
0.7124	0.2376	0.2175	0.00252

System: ethanol + propan-2-ol + 1,4-dioxane; phases: Liquid
Fixed: Temperature, K = 298.15
Fixed: Pressure, kPa = 101.3
Property: Excess molar enthalpy (molar enthalpy of mixing), kJ/mol (Liquid); method: Flow calorimetry
Mole fraction of ethanol	Mole fraction of propan-2-ol	Excess molar enthalpy (molar enthalpy of mixing), kJ/mol	uncertainty
0.0125	0.0375	0.37837	0.0039
0.025	0.025	0.36829	0.00381
0.025	0.075	0.69339	0.00661
0.0375	0.0125	0.34771	0.00364
0.0375	0.1125	0.97219	0.00901
0.05	0.15	1.2126	0.01109
0.0501	0.0499	0.6601	0.00632
0.0625	0.1875	1.40342	0.01274
0.075	0.025	0.63057	0.00606
0.075	0.075	0.91678	0.00853
0.075	0.225	1.56581	0.01415
0.0875	0.2625	1.69416	0.01526
0.1	0.1	1.137	0.01044
0.1	0.3	1.78425	0.01604
0.1124	0.3376	1.84296	0.01654
0.1125	0.0375	0.87698	0.00819
0.1249	0.3751	1.87328	0.01681
0.125	0.125	1.3218	0.01203
0.1374	0.4126	1.86908	0.01677
0.1499	0.4501	1.81709	0.01632
0.15	0.05	1.07325	0.00988
0.15	0.15	1.47215	0.01333
0.1624	0.4876	1.73748	0.01563
0.1749	0.5251	1.62748	0.01468
0.175	0.175	1.58743	0.01433
0.1874	0.5626	1.47339	0.01335
0.1875	0.0625	1.24337	0.01136
0.1999	0.6001	1.2834	0.0117
0.2	0.2	1.66752	0.01503
0.2124	0.6376	1.05226	0.00971
0.2249	0.6751	0.77041	0.00727
0.225	0.075	1.3796	0.01253
0.225	0.225	1.71946	0.01547
0.2374	0.7126	0.38918	0.00401
0.25	0.25	1.73797	0.01563
0.2625	0.0875	1.4786	0.01339
0.275	0.275	1.7332	0.01559
0.3	0.3	1.68484	0.01517
0.3001	0.0999	1.55145	0.01402
0.325	0.325	1.60398	0.01447
0.3376	0.1124	1.59286	0.01438
0.35	0.35	1.49524	0.01353
0.375	0.375	1.35279	0.0123
0.3751	0.1249	1.61483	0.01457
0.4001	0.3999	1.17425	0.01076
0.4126	0.1374	1.60054	0.01444
0.4251	0.4249	0.95557	0.00886
0.4501	0.1499	1.54979	0.01401
0.4501	0.4499	0.69305	0.0066
0.4751	0.4749	0.35004	0.00364
0.4876	0.1624	1.47093	0.01332
0.5251	0.1749	1.3677	0.01243
0.5626	0.1874	1.23395	0.01127
0.6001	0.1999	1.06737	0.00983
0.6376	0.2124	0.8679	0.00811
0.6751	0.2249	0.62783	0.00604
0.7126	0.2374	0.30962	0.00331
