Measured thermophysical data. Influence of size and shape effects on the high-pressure solubility of n-alkanes: Experimental data, correlation and prediction
Source: J. Chem. Thermodyn., 2005, 10.1016/j.jct.2005.03.007
Compound 1: 3-methylpentane, C6H14, InChI=1S/C6H14/c1-4-6(3)5-2/h6H,4-5H2,1-3H3, purity 99%
Compound 2: 2,2-dimethylbutane, C6H14, InChI=1S/C6H14/c1-5-6(2,3)4/h5H2,1-4H3, purity 99%
Compound 3: hexadecane, C16H34, InChI=1S/C16H34/c1-3-5-7-9-11-13-15-16-14-12-10-8-6-4-2/h3-16H2,1-2H3, purity 99%
Compound 4: octadecane, C18H38, InChI=1S/C18H38/c1-3-5-7-9-11-13-15-17-18-16-14-12-10-8-6-4-2/h3-18H2,1-2H3, purity 99%
Compound 5: benzene, C6H6, InChI=1S/C6H6/c1-2-4-6-5-3-1/h1-6H, purity 99%

System: hexadecane; phases: Crystal, Liquid
Property: Solid-liquid equilibrium temperature, K (Crystal); method: pressure-volume curve discontinuity
Pressure, kPa	Solid-liquid equilibrium temperature, K	uncertainty
9210	293.15	0.3
50650	303.15	0.58
95560	313.15	0.9
143920	323.15	1.21
195740	333.15	1.52
251030	343.15	1.87

System: octadecane; phases: Crystal, Liquid
Property: Solid-liquid equilibrium temperature, K (Crystal); method: pressure-volume curve discontinuities
Pressure, kPa	Solid-liquid equilibrium temperature, K	uncertainty
8860	303.15	0.3
49600	313.15	0.57
94900	323.15	0.88
144780	333.15	1.18
199220	343.15	1.47
258230	353.15	1.81

System: benzene; phases: Crystal, Liquid
Property: Solid-liquid equilibrium temperature, K (Crystal); method: pressure-volume curve discontinuity
Pressure, kPa	Solid-liquid equilibrium temperature, K	uncertainty
53620	293.15	0.65
92220	303.15	0.99
133290	313.15	1.32
176820	323.15	1.63
222810	333.15	1.93
271270	343.15	2.23
322200	353.15	2.57

System: 3-methylpentane + hexadecane; phases: Liquid, Crystal
Property: Vapor or sublimation pressure, kPa (Liquid); method: pressure-volume curve discontinuity
Temperature, K	Mole fraction of hexadecane	Vapor or sublimation pressure, kPa	uncertainty
293.15	0.0746	235990	9660
293.15	0.1293	191210	7850
293.15	0.1782	146420	6000
293.15	0.2603	106620	4440
293.15	0.3201	83520	3560
293.15	0.3926	60420	2660
293.15	0.5002	49400	2250
293.15	0.5777	44710	2090
293.15	0.6458	37210	1790
293.15	0.734	29710	1520
293.15	0.8094	24550	1360
293.15	0.895	13240	990
293.15	0.9732	12170	1000
293.15	1	9210	910
303.15	0.0746	320610	13040
303.15	0.1293	264810	10780
303.15	0.1782	209010	8530
303.15	0.2603	163800	6710
303.15	0.3201	142120	5860
303.15	0.3926	120450	5010
303.15	0.5002	103060	4300
303.15	0.5777	96110	4020
303.15	0.6458	86460	3630
303.15	0.734	76810	3250
303.15	0.8094	69740	2970
303.15	0.895	58090	2520
303.15	0.9732	54770	2380
303.15	1	50650	2220
313.15	0.0746	407730	16530
313.15	0.1293	342610	13900
313.15	0.1782	277490	11280
313.15	0.2603	225900	9200
313.15	0.3201	204360	8340
313.15	0.3926	182820	7480
313.15	0.5002	160450	6580
313.15	0.5777	151780	6230
313.15	0.6458	139960	5750
313.15	0.734	128150	5280
313.15	0.8094	119180	4910
313.15	0.895	106720	4420
313.15	0.9732	101720	4220
313.15	1	95560	3960
323.15	0.0746	497350	20130
323.15	0.1293	424610	17200
323.15	0.1782	351870	14270
323.15	0.2603	292920	11890
323.15	0.3201	270220	10980
323.15	0.3926	247530	10060
323.15	0.5002	221580	9020
323.15	0.5777	211710	8620
323.15	0.6458	197710	8060
323.15	0.734	183710	7490
323.15	0.8094	172880	7060
323.15	0.895	159120	6510
323.15	0.9732	153000	6260
323.15	1	143920	5890
333.15	0.0746	589480	23840
333.15	0.1293	510820	20670
333.15	0.1782	432150	17500
333.15	0.2603	364860	14780
333.15	0.3201	339720	13770
333.15	0.3926	314580	12750
333.15	0.5002	286440	11620
333.15	0.5777	275910	11200
333.15	0.6458	259700	10550
333.15	0.734	243500	9890
333.15	0.8094	230830	9380
333.15	0.895	215310	8760
333.15	0.9732	208630	8490
333.15	1	195740	7960
343.15	0.0746	684110	27640
343.15	0.1293	601220	24300
343.15	0.1782	518330	20990
343.15	0.2603	441730	17890
343.15	0.3201	412850	16710
343.15	0.3926	383970	15550
343.15	0.5002	355030	14380
343.15	0.5777	344370	13940
343.15	0.6458	325940	13210
343.15	0.734	307510	12460
343.15	0.8094	293030	11880
343.15	0.895	275270	11170
343.15	0.9732	268600	10880
343.15	1	251030	10180

System: 2,2-dimethylbutane + hexadecane; phases: Liquid, Crystal
Property: Vapor or sublimation pressure, kPa (Liquid); method: pressure-volume curve discontinuities
Temperature, K	Mole fraction of hexadecane	Vapor or sublimation pressure, kPa	uncertainty
293.15	0.0934	209700	8560
293.15	0.1765	152130	6250
293.15	0.2598	104570	4320
293.15	0.3402	85510	3600
293.15	0.4105	65970	2850
293.15	0.4988	46430	2130
293.15	0.5785	43870	2050
293.15	0.6545	37500	1770
293.15	0.7295	26870	1370
293.15	0.8192	22230	1260
293.15	0.8991	17570	1120
293.15	0.9778	9610	920
293.15	1	9210	910
303.15	0.0934	278270	11310
303.15	0.1765	214910	8770
303.15	0.2598	161560	6620
303.15	0.3402	135910	5580
303.15	0.4105	119330	4940
303.15	0.4988	102740	4300
303.15	0.5785	94010	3930
303.15	0.6545	82400	3460
303.15	0.7295	71300	3020
303.15	0.8192	66190	2820
303.15	0.8991	59730	2570
303.15	0.9778	51970	2280
303.15	1	50650	2220
313.15	0.0934	356410	14460
313.15	0.1765	285580	11610
313.15	0.2598	224760	9160
313.15	0.3402	193040	7880
313.15	0.4105	177180	7240
313.15	0.4988	161320	6610
313.15	0.5785	148130	6080
313.15	0.6545	133490	5490
313.15	0.7295	120970	4990
313.15	0.8192	114460	4720
313.15	0.8991	106640	4410
313.15	0.9778	98590	4090
313.15	1	95560	3960
323.15	0.0934	444120	18000
323.15	0.1765	364140	14770
323.15	0.2598	294160	11950
323.15	0.3402	256890	10440
323.15	0.4105	239520	9740
323.15	0.4988	222150	9040
323.15	0.5785	206260	8400
323.15	0.6545	190750	7780
323.15	0.7295	175900	7180
323.15	0.8192	167050	6820
323.15	0.8991	158300	6470
323.15	0.9778	149470	6120
323.15	1	143920	5890
333.15	0.0934	541410	21920
333.15	0.1765	450590	18250
333.15	0.2598	369780	14990
333.15	0.3402	327450	13280
333.15	0.4105	306350	12430
333.15	0.4988	285250	11570
333.15	0.5785	268370	10890
333.15	0.6545	254180	10330
333.15	0.7295	236070	9600
333.15	0.8192	223950	9100
333.15	0.8991	214710	8730
333.15	0.9778	204610	8330
333.15	1	195740	7960
343.15	0.0934	648270	26220
343.15	0.1765	544940	22050
343.15	0.2598	451600	18310
343.15	0.3402	404730	16400
343.15	0.4105	377670	15290
343.15	0.4988	350610	14200
343.15	0.5785	334480	13550
343.15	0.6545	323800	13120
343.15	0.7295	301480	12230
343.15	0.8192	285170	11560
343.15	0.8991	275870	11190
343.15	0.9778	264000	10700
343.15	1	251030	10180

System: benzene + hexadecane; phases: Liquid, Crystal
Property: Vapor or sublimation pressure, kPa (Liquid); method: pressure-volume curve discontinuities
Temperature, K	Mole fraction of hexadecane	Vapor or sublimation pressure, kPa	uncertainty
293.15	0.219	92700	3890
293.15	0.2554	87200	3670
293.15	0.3363	72740	3130
293.15	0.42	61580	2690
293.15	0.5123	51050	2270
293.15	0.5851	43470	2000
293.15	0.6579	35890	1740
293.15	0.7375	28690	1480
293.15	0.8171	21500	1230
293.15	0.8908	16020	1090
293.15	0.9645	10550	960
293.15	1	9210	910
303.15	0.219	146020	6000
303.15	0.2554	140140	5760
303.15	0.3363	128400	5300
303.15	0.42	114090	4730
303.15	0.5123	99540	4140
303.15	0.5851	92000	3850
303.15	0.6579	84450	3550
303.15	0.7375	75130	3180
303.15	0.8171	65810	2810
303.15	0.8908	59900	2580
303.15	0.9645	53980	2360
303.15	1	50650	2220
313.15	0.219	206840	8430
313.15	0.2554	198750	8100
313.15	0.3363	188350	7690
313.15	0.42	170800	6980
313.15	0.5123	153170	6280
313.15	0.5851	145190	5960
313.15	0.6579	137210	5640
313.15	0.7375	125990	5190
313.15	0.8171	114770	4740
313.15	0.8908	108000	4470
313.15	0.9645	101240	4190
313.15	1	95560	3960
323.15	0.219	270640	10990
323.15	0.2554	261740	10640
323.15	0.3363	247640	10070
323.15	0.42	231720	9430
323.15	0.5123	211940	8630
323.15	0.5851	203050	8270
323.15	0.6579	194170	7920
323.15	0.7375	181260	7400
323.15	0.8171	168350	6880
323.15	0.8908	160330	6550
323.15	0.9645	149990	6140
323.15	1	143920	5890
333.15	0.219	343010	13910
333.15	0.2554	334110	13550
333.15	0.3363	317000	12860
333.15	0.42	296840	12040
333.15	0.5123	275860	11200
333.15	0.5851	265590	10780
333.15	0.6579	255310	10370
333.15	0.7375	240940	9790
333.15	0.8171	226580	9210
333.15	0.8908	216880	8820
333.15	0.9645	206300	8380
333.15	1	195740	7960
343.15	0.219	418600	16940
343.15	0.2554	410870	16630
343.15	0.3363	394000	15950
343.15	0.42	366170	14830
343.15	0.5123	344920	13980
343.15	0.5851	332790	13480
343.15	0.6579	320660	12990
343.15	0.7375	305040	12360
343.15	0.8171	289430	11740
343.15	0.8908	277660	11250
343.15	0.9645	256570	10400
343.15	1	251030	10180

System: benzene + hexadecane; phases: Liquid, Crystal
Property: Vapor or sublimation pressure, kPa (Liquid); method: pressure-volume curve discontinuity
Temperature, K	Mole fraction of hexadecane	Vapor or sublimation pressure, kPa	uncertainty
293.15	0	53620	2300
293.15	0.0199	61780	2620
293.15	0.1009	81540	3420
293.15	0.1197	88180	3690
293.15	0.175	98470	4100
303.15	0	92220	3800
303.15	0.0199	102500	4220
303.15	0.1009	128090	5250
303.15	0.1197	135460	5550
303.15	0.175	150110	6140
313.15	0	133290	5440
313.15	0.0199	147400	6010
313.15	0.1009	176630	7190
313.15	0.1197	185840	7560
313.15	0.175	204540	8320
323.15	0	176820	7180
323.15	0.0199	192480	7810
323.15	0.1009	227150	9210
323.15	0.1197	239320	9710
323.15	0.175	261780	10620
333.15	0	222810	9030
333.15	0.0199	239070	9680
333.15	0.1009	279650	11330
333.15	0.1197	295890	11980
333.15	0.175	321820	13030
343.15	0	271270	10980
343.15	0.0199	287170	11620
343.15	0.1009	338440	13690
343.15	0.1197	352350	14250
343.15	0.175	384660	15560

System: 3-methylpentane + octadecane; phases: Liquid, Crystal
Property: Vapor or sublimation pressure, kPa (Liquid); method: pressure-volume curve discontinuities
Temperature, K	Mole fraction of octadecane	Vapor or sublimation pressure, kPa	uncertainty
303.15	0.019	501850	20290
303.15	0.0825	191830	7750
303.15	0.1775	127870	5260
303.15	0.2579	97760	4080
303.15	0.3333	77870	3310
303.15	0.4162	65260	2830
303.15	0.4995	52660	2350
303.15	0.5765	35870	1810
303.15	0.6608	34800	1690
303.15	0.7425	27980	1450
303.15	0.8192	21160	1230
303.15	0.8973	16030	1080
303.15	1	8860	890
313.15	0.019	580390	23450
313.15	0.0825	268400	10930
313.15	0.1775	188700	7710
313.15	0.2579	153060	6280
313.15	0.3333	133490	5500
313.15	0.4162	118000	4880
313.15	0.4995	101680	4220
313.15	0.5765	95490	4020
313.15	0.6608	80140	3370
313.15	0.7425	73050	3090
313.15	0.8192	65950	2820
313.15	0.8973	59230	2550
313.15	1	49600	2180
323.15	0.019	658930	26610
323.15	0.0825	346300	14050
323.15	0.1775	253560	10310
323.15	0.2579	214060	8720
323.15	0.3333	192170	7840
323.15	0.4162	174400	7130
323.15	0.4995	154890	6340
323.15	0.5765	150620	6160
323.15	0.6608	130390	5360
323.15	0.7425	122650	5050
323.15	0.8192	114910	4740
323.15	0.8973	106610	4410
323.15	1	94900	3940
333.15	0.019	737470	29770
333.15	0.0825	425530	17230
333.15	0.1775	322470	13080
333.15	0.2579	280740	11400
333.15	0.3333	253900	10310
333.15	0.4162	234460	9530
333.15	0.4995	212280	8640
333.15	0.5765	201260	8190
333.15	0.6608	185560	7570
333.15	0.7425	176800	7210
333.15	0.8192	168030	6860
333.15	0.8973	158180	6470
333.15	1	144780	5930
343.15	0.019	816010	32930
343.15	0.0825	506090	20470
343.15	0.1775	395400	16010
343.15	0.2579	353110	14310
343.15	0.3333	318690	12920
343.15	0.4162	298190	12090
343.15	0.4995	273870	11110
343.15	0.5765	260000	10560
343.15	0.6608	245660	9980
343.15	0.7425	232480	9450
343.15	0.8192	225310	9160
343.15	0.8973	213950	8700
343.15	1	199220	8110
353.15	0.019	894550	36090
353.15	0.0825	587980	23950
353.15	0.1775	472380	19140
353.15	0.2579	431160	17450
353.15	0.3333	386530	15660
353.15	0.4162	365570	14800
353.15	0.4995	339640	13760
353.15	0.5765	326550	13230
353.15	0.6608	310670	12590
353.15	0.7425	295710	11990
353.15	0.8192	286750	11620
353.15	0.8973	273910	11110
353.15	1	258230	10480

System: 2,2-dimethylbutane + octadecane; phases: Liquid, Crystal
Property: Vapor or sublimation pressure, kPa (Liquid); method: pressure-volume curve discontinuities
Temperature, K	Mole fraction of octadecane	Vapor or sublimation pressure, kPa	uncertainty
303.15	0.0991	171660	7040
303.15	0.1793	122470	5040
303.15	0.2598	92710	3890
303.15	0.3401	73910	3160
303.15	0.4201	60440	2630
303.15	0.4967	51940	2310
303.15	0.5771	40030	1850
303.15	0.658	33470	1630
303.15	0.7402	26900	1410
303.15	0.8147	18010	1190
303.15	0.8926	15410	1050
303.15	0.9709	11090	930
303.15	1	8860	890
313.15	0.0991	236620	9640
313.15	0.1793	180740	7390
313.15	0.2598	149790	6150
313.15	0.3401	128870	5320
313.15	0.4201	111630	4630
313.15	0.4967	99670	4140
313.15	0.5771	87310	3660
313.15	0.658	79020	3330
313.15	0.7402	70730	3000
313.15	0.8147	67170	2880
313.15	0.8926	57140	2470
313.15	0.9709	51400	2240
313.15	1	49600	2180
323.15	0.0991	309800	12580
323.15	0.1793	247320	10070
323.15	0.2598	211620	8630
323.15	0.3401	187030	7630
323.15	0.4201	167350	6850
323.15	0.4967	151470	6200
323.15	0.5771	139300	5720
323.15	0.658	129440	5320
323.15	0.7402	119580	4930
323.15	0.8147	115460	4760
323.15	0.8926	103930	4300
323.15	0.9709	97250	4040
323.15	1	94900	3940
333.15	0.0991	391190	15860
333.15	0.1793	320790	13020
333.15	0.2598	278210	11300
333.15	0.3401	249280	10130
333.15	0.4201	227580	9260
333.15	0.4967	209340	8530
333.15	0.5771	196020	7990
333.15	0.658	184750	7540
333.15	0.7402	173470	7080
333.15	0.8147	165860	6780
333.15	0.8926	155770	6370
333.15	0.9709	148630	6090
333.15	1	144780	5930
343.15	0.0991	480800	19470
343.15	0.1793	397950	16120
343.15	0.2598	349550	14170
343.15	0.3401	317130	12860
343.15	0.4201	292340	11860
343.15	0.4967	273270	11100
343.15	0.5771	257450	10460
343.15	0.658	244930	9950
343.15	0.7402	232400	9450
343.15	0.8147	225400	9160
343.15	0.8926	212660	8650
343.15	0.9709	205540	8370
343.15	1	199220	8110
353.15	0.0991	578620	23410
353.15	0.1793	482900	19560
353.15	0.2598	425650	17240
353.15	0.3401	388640	15740
353.15	0.4201	361610	14650
353.15	0.4967	343260	13910
353.15	0.5771	323610	13120
353.15	0.658	309980	12560
353.15	0.7402	296360	12020
353.15	0.8147	285060	11550
353.15	0.8926	274600	11140
353.15	0.9709	267980	10870
353.15	1	258230	10480

System: benzene + octadecane; phases: Liquid, Crystal
Property: Vapor or sublimation pressure, kPa (Liquid); method: pressure-volume curve discontinuities
Temperature, K	Mole fraction of octadecane	Vapor or sublimation pressure, kPa	uncertainty
303.15	0.1216	128000	5260
303.15	0.1396	122230	5030
303.15	0.16	116110	4800
303.15	0.1758	112070	4650
303.15	0.22	101000	4200
303.15	0.2942	83530	3500
303.15	0.3786	68380	2920
303.15	0.4504	59210	2560
303.15	0.5242	50040	2210
303.15	0.612	39440	1810
303.15	0.7239	28540	1440
303.15	0.874	16840	1090
303.15	0.921	12810	970
303.15	1	8860	890
313.15	0.1216	178360	7270
313.15	0.1396	174110	7110
313.15	0.16	168850	6900
313.15	0.1758	166190	6790
313.15	0.22	153360	6280
313.15	0.2942	133220	5470
313.15	0.3786	117700	4860
313.15	0.4504	106190	4390
313.15	0.5242	94680	3930
313.15	0.612	83880	3510
313.15	0.7239	72590	3070
313.15	0.874	59400	2560
313.15	0.921	54280	2360
313.15	1	49600	2180
323.15	0.1396	233280	9480
323.15	0.16	228190	9280
323.15	0.1758	223220	9070
323.15	0.22	210050	8550
323.15	0.2942	188830	7700
323.15	0.3786	171700	7010
323.15	0.4504	158340	6480
323.15	0.5242	144990	5940
323.15	0.612	133200	5470
323.15	0.7239	120890	4980
323.15	0.874	106200	4390
323.15	0.921	100410	4160
323.15	1	94900	3940
333.15	0.16	290030	11760
333.15	0.1758	283140	11500
333.15	0.22	270900	11000
333.15	0.2942	250340	10170
333.15	0.3786	230380	9370
333.15	0.4504	215610	8770
333.15	0.5242	200850	8180
333.15	0.612	187400	7640
333.15	0.7239	173450	7080
333.15	0.874	157250	6430
333.15	0.921	150850	6170
333.15	1	144780	5930
343.15	0.22	339550	13760
343.15	0.2942	317770	12890
343.15	0.3786	293740	11910
343.15	0.4504	277890	11280
343.15	0.5242	262050	10640
343.15	0.612	246480	10010
343.15	0.7239	230260	9360
343.15	0.874	212530	8640
343.15	0.921	205220	8350
343.15	1	199220	8110
353.15	0.22	413500	16730
353.15	0.2942	391110	15830
353.15	0.3786	361780	14650
353.15	0.4504	345460	13990
353.15	0.5242	329150	13340
353.15	0.612	310450	12580
353.15	0.7239	291330	11810
353.15	0.874	272060	11030
353.15	0.921	264730	10740
353.15	1	258230	10480

System: benzene + octadecane; phases: Liquid, Crystal
Property: Vapor or sublimation pressure, kPa (Liquid); method: pressure-volume curve discontinuity
Temperature, K	Mole fraction of octadecane	Vapor or sublimation pressure, kPa	uncertainty
303.15	0	92220	3810
303.15	0.0117	96900	4000
303.15	0.0519	109940	4520
303.15	0.0921	121580	4990
313.15	0	133290	5440
313.15	0.0117	138570	5650
313.15	0.0519	152960	6230
313.15	0.0921	167340	6810
323.15	0	176820	7180
323.15	0.0117	180240	7320
323.15	0.0519	198140	8040
323.15	0.0921	216030	8760
323.15	0.1216	229510	9290
333.15	0	222810	9030
333.15	0.0117	225450	9140
333.15	0.0519	244630	9910
333.15	0.0921	263800	10680
333.15	0.1216	274200	11100
333.15	0.1396	282680	11440
343.15	0	271270	10980
343.15	0.0117	274200	11100
343.15	0.0519	298210	12070
343.15	0.0921	317600	12850
343.15	0.1216	326160	13190
343.15	0.1396	333940	13510
343.15	0.16	340100	13770
343.15	0.1758	345970	14010
353.15	0	322200	13030
353.15	0.0117	326490	13210
353.15	0.0519	353100	14270
353.15	0.0921	373800	15110
353.15	0.1216	384910	15560
353.15	0.1396	396200	16020
353.15	0.16	404980	16380
353.15	0.1758	411700	16650
