Measured thermophysical data. Effect of the alkyl chain length on the electrical conductivity of six (imidazolium-based ionic liquids + .gamma.-butyrolactone) binary mixtures
Source: J. Chem. Thermodyn., 2016, 10.1016/j.jct.2016.07.039
Compound 1: 1-hexyl-3-methylimidazolium bis[(trifluoromethyl)sulfonyl]imide, C12H19F6N3O4S2, InChI=1S/C10H19N2.C2F6NO4S2/c1-3-4-5-6-7-12-9-8-11(2)10-12;3-1(4,5)14(10,11)9-15(12,13)2(6,7)8/h8-10H,3-7H2,1-2H3;/q+1;-1, purity 99%
Compound 2: 1-octyl-3-methylimidazolium bis[(trifluoromethyl)sulfonyl]imide, C14H23F6N3O4S2, InChI=1S/C12H23N2.C2F6NO4S2/c1-3-4-5-6-7-8-9-14-11-10-13(2)12-14;3-1(4,5)14(10,11)9-15(12,13)2(6,7)8/h10-12H,3-9H2,1-2H3;/q+1;-1, purity 99%
Compound 3: 1-ethyl-2,3-dimethylimidazolium bis[(trifluoromethyl)sulfonyl]imide, C9H13F6N3O4S2, InChI=1S/C7H13N2.C2F6NO4S2/c1-4-9-6-5-8(3)7(9)2;3-1(4,5)14(10,11)9-15(12,13)2(6,7)8/h5-6H,4H2,1-3H3;/q+1;-1, purity 99%
Compound 4: 1,2-dimethyl-3-propylimidazolium bis[(trifluoromethyl)sulfonyl]imide, C10H15F6N3O4S2, InChI=1S/C8H15N2.C2F6NO4S2/c1-4-5-10-7-6-9(3)8(10)2;3-1(4,5)14(10,11)9-15(12,13)2(6,7)8/h6-7H,4-5H2,1-3H3;/q+1;-1, purity 99%
Compound 5: 1-ethyl-3-methylimidazolium bis((trifluoromethyl)sulfonyl)imide, C8H11F6N3O4S2, InChI=1S/C6H11N2.C2F6NO4S2/c1-3-8-5-4-7(2)6-8;3-1(4,5)14(10,11)9-15(12,13)2(6,7)8/h4-6H,3H2,1-2H3;/q+1;-1, purity 99%
Compound 6: 1-butyl-2,3-dimethyl-1H-imidazolium bis(trifluoromethylsulfonyl)amide, C11H17F6N3O4S2, InChI=1S/C9H17N2.C2F6NO4S2/c1-4-5-6-11-8-7-10(3)9(11)2;3-1(4,5)14(10,11)9-15(12,13)2(6,7)8/h7-8H,4-6H2,1-3H3;/q+1;-1, purity 99%
Compound 7: .gamma.-butyrolactone, C4H6O2, InChI=1S/C4H6O2/c5-4-2-1-3-6-4/h1-3H2, purity 99%

System: 1-hexyl-3-methylimidazolium bis[(trifluoromethyl)sulfonyl]imide; phases: Liquid
Fixed: Pressure, kPa = 100
Fixed: Frequency, MHz = 0.005
Property: Electrical conductivity, S/m (Liquid); method: Alternating current cell with electrodes
Temperature, K	Electrical conductivity, S/m	uncertainty
293.15	0.176	0.005
298.15	0.221	0.007
303.15	0.273	0.008
308.15	0.33	0.01
313.15	0.398	0.012
318.15	0.467	0.014
323.15	0.553	0.017

System: 1-octyl-3-methylimidazolium bis[(trifluoromethyl)sulfonyl]imide; phases: Liquid
Fixed: Pressure, kPa = 100
Fixed: Frequency, MHz = 0.005
Property: Electrical conductivity, S/m (Liquid); method: Alternating current cell with electrodes
Temperature, K	Electrical conductivity, S/m	uncertainty
293.15	0.106	0.003
298.15	0.136	0.004
303.15	0.17	0.005
308.15	0.207	0.006
313.15	0.254	0.008
318.15	0.307	0.009
323.15	0.361	0.011

System: 1-ethyl-2,3-dimethylimidazolium bis[(trifluoromethyl)sulfonyl]imide; phases: Metastable liquid
Fixed: Pressure, kPa = 100
Fixed: Frequency, MHz = 0.005
Property: Electrical conductivity, S/m (Metastable liquid); method: Alternating current cell with electrodes
Temperature, K	Electrical conductivity, S/m	uncertainty
293.15	0.309	0.009
298.15	0.383	0.012
303.15	0.468	0.014
308.15	0.567	0.017
313.15	0.67	0.02
318.15	0.783	0.024
323.15	0.92	0.028

System: 1,2-dimethyl-3-propylimidazolium bis[(trifluoromethyl)sulfonyl]imide; phases: Liquid
Fixed: Pressure, kPa = 100
Fixed: Frequency, MHz = 0.005
Property: Electrical conductivity, S/m (Liquid); method: Alternating current cell with electrodes
Temperature, K	Electrical conductivity, S/m	uncertainty
293.15	0.196	0.006
298.15	0.265	0.008
303.15	0.338	0.01
308.15	0.417	0.013
313.15	0.503	0.015
318.15	0.59	0.018
323.15	0.687	0.021

System: 1-ethyl-3-methylimidazolium bis((trifluoromethyl)sulfonyl)imide; phases: Liquid
Fixed: Pressure, kPa = 100
Fixed: Frequency, MHz = 0.005
Property: Electrical conductivity, S/m (Liquid); method: Alternating current cell with electrodes
Temperature, K	Electrical conductivity, S/m	uncertainty
293.15	0.774	0.023
298.15	0.915	0.027
303.15	1.057	0.032
308.15	1.198	0.036
313.15	1.352	0.041
318.15	1.514	0.045
323.15	1.749	0.052

System: 1-butyl-2,3-dimethyl-1H-imidazolium bis(trifluoromethylsulfonyl)amide; phases: Liquid
Fixed: Pressure, kPa = 100
Fixed: Frequency, MHz = 0.005
Property: Electrical conductivity, S/m (Liquid); method: Alternating current cell with electrodes
Temperature, K	Electrical conductivity, S/m	uncertainty
293.15	0.178	0.005
298.15	0.23	0.007
303.15	0.289	0.009
308.15	0.351	0.011
313.15	0.426	0.013
318.15	0.51	0.015
323.15	0.599	0.018

System: .gamma.-butyrolactone + 1-ethyl-3-methylimidazolium bis((trifluoromethyl)sulfonyl)imide; phases: Liquid
Fixed: Pressure, kPa = 100
Fixed: Frequency, MHz = 0.005
Property: Electrical conductivity, S/m (Liquid); method: Alternating current cell with electrodes
Temperature, K	Mole fraction of 1-ethyl-3-methylimidazolium bis((trifluoromethyl)sulfonyl)imide	Electrical conductivity, S/m	uncertainty
293.15	0.05	1.131	0.037
293.15	0.0995	1.576	0.048
293.15	0.1502	1.745	0.052
293.15	0.2006	1.773	0.053
293.15	0.3	1.729	0.052
293.15	0.4	1.6	0.048
293.15	0.4899	1.471	0.044
293.15	0.6103	1.292	0.039
293.15	0.6995	1.165	0.035
293.15	0.7927	1.048	0.032
293.15	0.8991	0.905	0.027
293.15	1	0.774	0.023
298.15	0.05	1.223	0.04
298.15	0.0995	1.715	0.052
298.15	0.1502	1.902	0.057
298.15	0.2006	1.937	0.058
298.15	0.3	1.898	0.057
298.15	0.4	1.76	0.053
298.15	0.4899	1.627	0.049
298.15	0.6103	1.453	0.044
298.15	0.6995	1.316	0.04
298.15	0.7927	1.194	0.036
298.15	0.8991	1.041	0.031
298.15	1	0.915	0.027
303.15	0.05	1.316	0.043
303.15	0.0995	1.846	0.056
303.15	0.1502	2.056	0.062
303.15	0.2006	2.092	0.063
303.15	0.3	2.067	0.062
303.15	0.4	1.925	0.058
303.15	0.4899	1.788	0.054
303.15	0.6103	1.607	0.048
303.15	0.6995	1.467	0.044
303.15	0.7927	1.341	0.04
303.15	0.8991	1.179	0.035
303.15	1	1.057	0.032
308.15	0.05	1.404	0.046
308.15	0.0995	1.976	0.06
308.15	0.1502	2.193	0.066
308.15	0.2006	2.25	0.068
308.15	0.3	2.23	0.067
308.15	0.4	2.087	0.063
308.15	0.4899	1.948	0.058
308.15	0.6103	1.756	0.053
308.15	0.6995	1.612	0.048
308.15	0.7927	1.481	0.044
308.15	0.8991	1.324	0.04
308.15	1	1.198	0.036
313.15	0.05	1.499	0.049
313.15	0.0995	2.117	0.065
313.15	0.1502	2.355	0.071
313.15	0.2006	2.421	0.073
313.15	0.3	2.4	0.072
313.15	0.4	2.248	0.067
313.15	0.4899	2.122	0.064
313.15	0.6103	1.92	0.058
313.15	0.6995	1.77	0.053
313.15	0.7927	1.647	0.049
313.15	0.8991	1.485	0.045
313.15	1	1.352	0.041
318.15	0.05	1.593	0.052
318.15	0.0995	2.25	0.069
318.15	0.1502	2.514	0.076
318.15	0.2006	2.592	0.078
318.15	0.3	2.589	0.078
318.15	0.4	2.452	0.074
318.15	0.4899	2.307	0.069
318.15	0.6103	2.109	0.063
318.15	0.6995	1.962	0.059
318.15	0.7927	1.824	0.055
318.15	0.8991	1.67	0.05
318.15	1	1.514	0.045
323.15	0.05	1.697	0.055
323.15	0.0995	2.402	0.074
323.15	0.1502	2.708	0.081
323.15	0.2006	2.789	0.084
323.15	0.3	2.81	0.084
323.15	0.4	2.69	0.081
323.15	0.4899	2.531	0.076
323.15	0.6103	2.34	0.07
323.15	0.6995	2.188	0.066
323.15	0.7927	2.045	0.061
323.15	0.8991	1.893	0.057
323.15	1	1.749	0.052

System: .gamma.-butyrolactone + 1-hexyl-3-methylimidazolium bis[(trifluoromethyl)sulfonyl]imide; phases: Liquid
Fixed: Pressure, kPa = 100
Fixed: Frequency, MHz = 0.005
Property: Electrical conductivity, S/m (Liquid); method: Alternating current cell with electrodes
Temperature, K	Mole fraction of 1-hexyl-3-methylimidazolium bis[(trifluoromethyl)sulfonyl]imide	Electrical conductivity, S/m	uncertainty
293.15	0.0507	0.746	0.025
293.15	0.0999	1.115	0.034
293.15	0.1544	1.133	0.034
293.15	0.1999	1.067	0.032
293.15	0.3004	0.819	0.025
293.15	0.5044	0.47	0.014
293.15	0.7027	0.296	0.009
293.15	0.8924	0.21	0.006
293.15	1	0.176	0.005
298.15	0.0507	0.819	0.028
298.15	0.0999	1.227	0.037
298.15	0.1544	1.246	0.037
298.15	0.1999	1.187	0.036
298.15	0.3004	0.932	0.028
298.15	0.5044	0.556	0.017
298.15	0.7027	0.362	0.011
298.15	0.8924	0.261	0.008
298.15	1	0.221	0.007
303.15	0.0507	0.896	0.03
303.15	0.0999	1.336	0.041
303.15	0.1544	1.362	0.041
303.15	0.1999	1.307	0.039
303.15	0.3004	1.053	0.032
303.15	0.5044	0.657	0.02
303.15	0.7027	0.431	0.013
303.15	0.8924	0.319	0.01
303.15	1	0.273	0.008
308.15	0.0507	0.968	0.033
308.15	0.0999	1.448	0.044
308.15	0.1544	1.486	0.045
308.15	0.1999	1.436	0.043
308.15	0.3004	1.173	0.035
308.15	0.5044	0.751	0.023
308.15	0.7027	0.514	0.016
308.15	0.8924	0.387	0.012
308.15	1	0.33	0.01
313.15	0.0507	1.038	0.035
313.15	0.0999	1.568	0.048
313.15	0.1544	1.611	0.048
313.15	0.1999	1.569	0.047
313.15	0.3004	1.312	0.04
313.15	0.5044	0.863	0.026
313.15	0.7027	0.596	0.018
313.15	0.8924	0.459	0.014
313.15	1	0.398	0.012
318.15	0.0507	1.108	0.038
318.15	0.0999	1.687	0.051
318.15	0.1544	1.732	0.052
318.15	0.1999	1.714	0.052
318.15	0.3004	1.456	0.044
318.15	0.5044	0.979	0.03
318.15	0.7027	0.687	0.021
318.15	0.8924	0.539	0.016
318.15	1	0.467	0.014
323.15	0.0507	1.169	0.04
323.15	0.0999	1.803	0.055
323.15	0.1544	1.883	0.057
323.15	0.1999	1.854	0.056
323.15	0.3004	1.607	0.048
323.15	0.5044	1.107	0.033
323.15	0.7027	0.788	0.024
323.15	0.8924	0.624	0.019
323.15	1	0.553	0.017

System: .gamma.-butyrolactone + 1-octyl-3-methylimidazolium bis[(trifluoromethyl)sulfonyl]imide; phases: Liquid
Fixed: Pressure, kPa = 100
Fixed: Frequency, MHz = 0.005
Property: Electrical conductivity, S/m (Liquid); method: Alternating current cell with electrodes
Temperature, K	Mole fraction of 1-octyl-3-methylimidazolium bis[(trifluoromethyl)sulfonyl]imide	Electrical conductivity, S/m	uncertainty
293.15	0.0486	0.653	0.022
293.15	0.1001	0.984	0.03
293.15	0.1497	0.953	0.029
293.15	0.2006	0.845	0.026
293.15	0.3037	0.601	0.018
293.15	0.4952	0.325	0.01
293.15	0.7007	0.184	0.006
293.15	0.9003	0.126	0.004
293.15	1	0.106	0.003
298.15	0.0486	0.718	0.024
298.15	0.1001	1.074	0.033
298.15	0.1497	1.064	0.032
298.15	0.2006	0.955	0.029
298.15	0.3037	0.703	0.021
298.15	0.4952	0.396	0.012
298.15	0.7007	0.235	0.007
298.15	0.9003	0.161	0.005
298.15	1	0.136	0.004
303.15	0.0486	0.796	0.026
303.15	0.1001	1.176	0.036
303.15	0.1497	1.169	0.035
303.15	0.2006	1.07	0.032
303.15	0.3037	0.83	0.025
303.15	0.4952	0.474	0.014
303.15	0.7007	0.28	0.008
303.15	0.9003	0.199	0.006
303.15	1	0.17	0.005
308.15	0.0486	0.853	0.029
308.15	0.1001	1.295	0.039
308.15	0.1497	1.292	0.039
308.15	0.2006	1.212	0.037
308.15	0.3037	0.94	0.028
308.15	0.4952	0.553	0.017
308.15	0.7007	0.342	0.01
308.15	0.9003	0.24	0.007
308.15	1	0.207	0.006
313.15	0.0486	0.915	0.031
313.15	0.1001	1.392	0.042
313.15	0.1497	1.408	0.042
313.15	0.2006	1.331	0.04
313.15	0.3037	1.06	0.032
313.15	0.4952	0.636	0.019
313.15	0.7007	0.401	0.012
313.15	0.9003	0.285	0.009
313.15	1	0.254	0.008
318.15	0.0486	0.976	0.033
318.15	0.1001	1.501	0.046
318.15	0.1497	1.529	0.046
318.15	0.2006	1.47	0.044
318.15	0.3037	1.188	0.036
318.15	0.4952	0.744	0.022
318.15	0.7007	0.48	0.014
318.15	0.9003	0.342	0.01
318.15	1	0.307	0.009
323.15	0.0486	1.032	0.035
323.15	0.1001	1.592	0.049
323.15	0.1497	1.644	0.049
323.15	0.2006	1.556	0.047
323.15	0.3037	1.327	0.04
323.15	0.4952	0.817	0.025
323.15	0.7007	0.534	0.016
323.15	0.9003	0.397	0.012
323.15	1	0.361	0.011

System: .gamma.-butyrolactone + 1-ethyl-2,3-dimethylimidazolium bis[(trifluoromethyl)sulfonyl]imide; phases: Liquid
Fixed: Pressure, kPa = 100
Fixed: Frequency, MHz = 0.005
Property: Electrical conductivity, S/m (Liquid); method: Alternating current cell with electrodes
Temperature, K	Mole fraction of 1-ethyl-2,3-dimethylimidazolium bis[(trifluoromethyl)sulfonyl]imide	Electrical conductivity, S/m	uncertainty
293.15	0.0493	0.925	0.031
293.15	0.1001	1.354	0.041
293.15	0.1526	1.429	0.043
293.15	0.2001	1.359	0.041
293.15	0.3001	1.243	0.037
293.15	0.4013	1.056	0.032
293.15	0.5004	0.881	0.027
293.15	0.5995	0.726	0.022
293.15	0.6929	0.628	0.019
293.15	0.814	0.476	0.014
293.15	0.9001	0.383	0.012
293.15	1	0.309	0.009
298.15	0.0493	1	0.033
298.15	0.1001	1.478	0.045
298.15	0.1526	1.579	0.047
298.15	0.2001	1.522	0.046
298.15	0.3001	1.415	0.043
298.15	0.4013	1.216	0.037
298.15	0.5004	1.015	0.031
298.15	0.5995	0.864	0.026
298.15	0.6929	0.742	0.022
298.15	0.814	0.572	0.017
298.15	0.9001	0.472	0.014
298.15	1	0.383	0.012
303.15	0.0493	1.08	0.036
303.15	0.1001	1.597	0.049
303.15	0.1526	1.727	0.052
303.15	0.2001	1.686	0.051
303.15	0.3001	1.573	0.047
303.15	0.4013	1.372	0.041
303.15	0.5004	1.173	0.035
303.15	0.5995	1.009	0.03
303.15	0.6929	0.868	0.026
303.15	0.814	0.686	0.021
303.15	0.9001	0.574	0.017
303.15	1	0.468	0.014
308.15	0.0493	1.155	0.038
308.15	0.1001	1.72	0.053
308.15	0.1526	1.863	0.056
308.15	0.2001	1.847	0.055
308.15	0.3001	1.738	0.052
308.15	0.4013	1.53	0.046
308.15	0.5004	1.338	0.04
308.15	0.5995	1.168	0.035
308.15	0.6929	1.009	0.03
308.15	0.814	0.803	0.024
308.15	0.9001	0.684	0.021
308.15	1	0.567	0.017
313.15	0.0493	1.241	0.041
313.15	0.1001	1.841	0.056
313.15	0.1526	2.009	0.06
313.15	0.2001	2.014	0.06
313.15	0.3001	1.905	0.057
313.15	0.4013	1.703	0.051
313.15	0.5004	1.509	0.045
313.15	0.5995	1.33	0.04
313.15	0.6929	1.157	0.035
313.15	0.814	0.934	0.028
313.15	0.9001	0.805	0.024
313.15	1	0.67	0.02
318.15	0.0493	1.317	0.044
318.15	0.1001	1.967	0.06
318.15	0.1526	2.155	0.065
318.15	0.2001	2.185	0.066
318.15	0.3001	2.084	0.063
318.15	0.4013	1.875	0.056
318.15	0.5004	1.691	0.051
318.15	0.5995	1.5	0.045
318.15	0.6929	1.31	0.039
318.15	0.814	1.069	0.032
318.15	0.9001	0.938	0.028
318.15	1	0.783	0.024
323.15	0.0493	1.397	0.046
323.15	0.1001	2.069	0.063
323.15	0.1526	2.3	0.069
323.15	0.2001	2.392	0.072
323.15	0.3001	2.205	0.066
323.15	0.4013	2.021	0.061
323.15	0.5004	1.815	0.055
323.15	0.5995	1.614	0.049
323.15	0.6929	1.447	0.044
323.15	0.814	1.21	0.036
323.15	0.9001	1.072	0.032
323.15	1	0.92	0.028

System: .gamma.-butyrolactone + 1,2-dimethyl-3-propylimidazolium bis[(trifluoromethyl)sulfonyl]imide; phases: Liquid
Fixed: Pressure, kPa = 100
Fixed: Frequency, MHz = 0.005
Property: Electrical conductivity, S/m (Liquid); method: Alternating current cell with electrodes
Temperature, K	Mole fraction of 1,2-dimethyl-3-propylimidazolium bis[(trifluoromethyl)sulfonyl]imide	Electrical conductivity, S/m	uncertainty
293.15	0.0505	0.875	0.028
293.15	0.1001	1.201	0.037
293.15	0.1492	1.252	0.038
293.15	0.1998	1.191	0.036
293.15	0.3008	0.992	0.03
293.15	0.4031	0.797	0.024
293.15	0.5048	0.593	0.018
293.15	0.6031	0.451	0.014
293.15	0.6973	0.343	0.01
293.15	0.7994	0.28	0.008
293.15	0.8711	0.24	0.007
293.15	1	0.196	0.006
298.15	0.0505	0.954	0.031
298.15	0.1001	1.316	0.04
298.15	0.1492	1.377	0.041
298.15	0.1998	1.31	0.039
298.15	0.3008	1.129	0.034
298.15	0.4031	0.927	0.028
298.15	0.5048	0.708	0.021
298.15	0.6031	0.539	0.016
298.15	0.6973	0.428	0.013
298.15	0.7994	0.351	0.011
298.15	0.8711	0.312	0.009
298.15	1	0.265	0.008
303.15	0.0505	1.032	0.033
303.15	0.1001	1.439	0.044
303.15	0.1492	1.503	0.045
303.15	0.1998	1.447	0.043
303.15	0.3008	1.27	0.038
303.15	0.4031	1.073	0.032
303.15	0.5048	0.844	0.026
303.15	0.6031	0.657	0.02
303.15	0.6973	0.537	0.016
303.15	0.7994	0.444	0.013
303.15	0.8711	0.395	0.012
303.15	1	0.338	0.01
308.15	0.0505	1.112	0.036
308.15	0.1001	1.555	0.047
308.15	0.1492	1.633	0.049
308.15	0.1998	1.594	0.048
308.15	0.3008	1.411	0.042
308.15	0.4031	1.213	0.037
308.15	0.5048	0.995	0.03
308.15	0.6031	0.789	0.024
308.15	0.6973	0.646	0.019
308.15	0.7994	0.537	0.016
308.15	0.8711	0.479	0.014
308.15	1	0.417	0.013
313.15	0.0505	1.197	0.039
313.15	0.1001	1.681	0.051
313.15	0.1492	1.77	0.053
313.15	0.1998	1.733	0.052
313.15	0.3008	1.566	0.047
313.15	0.4031	1.375	0.041
313.15	0.5048	1.159	0.035
313.15	0.6031	0.935	0.028
313.15	0.6973	0.779	0.023
313.15	0.7994	0.65	0.02
313.15	0.8711	0.578	0.017
313.15	1	0.503	0.015
318.15	0.0505	1.295	0.042
318.15	0.1001	1.807	0.055
318.15	0.1492	1.908	0.057
318.15	0.1998	1.905	0.057
318.15	0.3008	1.741	0.052
318.15	0.4031	1.544	0.046
318.15	0.5048	1.324	0.04
318.15	0.6031	1.087	0.033
318.15	0.6973	0.907	0.027
318.15	0.7994	0.759	0.023
318.15	0.8711	0.678	0.02
318.15	1	0.59	0.018
323.15	0.0505	1.39	0.045
323.15	0.1001	1.938	0.059
323.15	0.1492	2.056	0.062
323.15	0.1998	2.072	0.062
323.15	0.3008	1.918	0.058
323.15	0.4031	1.695	0.051
323.15	0.5048	1.461	0.044
323.15	0.6031	1.228	0.037
323.15	0.6973	1.022	0.031
323.15	0.7994	0.864	0.026
323.15	0.8711	0.788	0.024
323.15	1	0.687	0.021

System: .gamma.-butyrolactone + 1-butyl-2,3-dimethyl-1H-imidazolium bis(trifluoromethylsulfonyl)amide; phases: Liquid
Fixed: Pressure, kPa = 100
Fixed: Frequency, MHz = 0.005
Property: Electrical conductivity, S/m (Liquid); method: Alternating current cell with electrodes
Temperature, K	Mole fraction of 1-butyl-2,3-dimethyl-1H-imidazolium bis(trifluoromethylsulfonyl)amide	Electrical conductivity, S/m	uncertainty
293.15	0.0532	0.849	0.028
293.15	0.1004	1.182	0.036
293.15	0.1504	1.189	0.036
293.15	0.1999	1.117	0.034
293.15	0.2988	0.882	0.027
293.15	0.4006	0.706	0.021
293.15	0.5005	0.511	0.016
293.15	0.5999	0.381	0.012
293.15	0.7	0.302	0.009
293.15	0.8013	0.246	0.007
293.15	0.8986	0.207	0.006
293.15	1	0.178	0.005
298.15	0.0532	0.927	0.03
298.15	0.1004	1.296	0.039
298.15	0.1504	1.313	0.039
298.15	0.1999	1.249	0.038
298.15	0.2988	1.007	0.03
298.15	0.4006	0.807	0.024
298.15	0.5005	0.613	0.019
298.15	0.5999	0.465	0.014
298.15	0.7	0.37	0.011
298.15	0.8013	0.301	0.009
298.15	0.8986	0.262	0.008
298.15	1	0.23	0.007
303.15	0.0532	1.007	0.033
303.15	0.1004	1.413	0.043
303.15	0.1504	1.445	0.043
303.15	0.1999	1.387	0.042
303.15	0.2988	1.139	0.034
303.15	0.4006	0.934	0.028
303.15	0.5005	0.722	0.022
303.15	0.5999	0.567	0.017
303.15	0.7	0.451	0.014
303.15	0.8013	0.367	0.011
303.15	0.8986	0.325	0.01
303.15	1	0.289	0.009
308.15	0.0532	1.096	0.036
308.15	0.1004	1.533	0.047
308.15	0.1504	1.576	0.047
308.15	0.1999	1.53	0.046
308.15	0.2988	1.278	0.039
308.15	0.4006	1.068	0.032
308.15	0.5005	0.861	0.026
308.15	0.5999	0.67	0.02
308.15	0.7	0.538	0.016
308.15	0.8013	0.442	0.013
308.15	0.8986	0.398	0.012
308.15	1	0.351	0.011
313.15	0.0532	1.196	0.039
313.15	0.1004	1.657	0.05
313.15	0.1504	1.715	0.051
313.15	0.1999	1.679	0.05
313.15	0.2988	1.425	0.043
313.15	0.4006	1.218	0.037
313.15	0.5005	0.976	0.029
313.15	0.5999	0.787	0.024
313.15	0.7	0.631	0.019
313.15	0.8013	0.525	0.016
313.15	0.8986	0.479	0.014
313.15	1	0.426	0.013
318.15	0.0532	1.299	0.042
318.15	0.1004	1.783	0.054
318.15	0.1504	1.853	0.056
318.15	0.1999	1.833	0.055
318.15	0.2988	1.577	0.047
318.15	0.4006	1.365	0.041
318.15	0.5005	1.101	0.033
318.15	0.5999	0.904	0.027
318.15	0.7	0.729	0.022
318.15	0.8013	0.619	0.019
318.15	0.8986	0.569	0.017
318.15	1	0.51	0.015
323.15	0.0532	1.408	0.045
323.15	0.1004	1.911	0.058
323.15	0.1504	1.999	0.06
323.15	0.1999	1.99	0.06
323.15	0.2988	1.736	0.052
323.15	0.4006	1.518	0.046
323.15	0.5005	1.269	0.038
323.15	0.5999	1.035	0.031
323.15	0.7	0.842	0.025
323.15	0.8013	0.739	0.022
323.15	0.8986	0.669	0.02
323.15	1	0.599	0.018
