Measured thermophysical data. (Solid + liquid) equilibria for the ternary system (CsBr + LnBr3 + H2O) (Ln = Pr, Nd, Sm) at T = 298.2 K and atmospheric pressure, thermal and fluorescent properties of Cs2LnBr5.10H2O
Source: J. Chem. Thermodyn., 2015, 10.1016/j.jct.2015.07.004
Compound 1: cesium bromide, BrCs, InChI=1S/BrH.Cs/h1H;/q;+1/p-1, purity 99.5%
Compound 2: praseodymium(III) bromide, Br3Pr, InChI=1S/3BrH.Pr/h3*1H;/q;;;+3/p-3
Compound 3: samarium bromide, Br3Sm, InChI=1S/3BrH.Sm/h3*1H;/q;;;+3/p-3
Compound 4: neodymium bromide, Br3Nd, InChI=1S/3BrH.Nd/h3*1H;/q;;;+3/p-3
Compound 5: water, H2O, InChI=1S/H2O/h1H2, purity 99.9%
Compound 6: dicesium praseodymium(III) bromide decahydrate (Cs2PrBr5*10H2O), Br5Cs2H20O10Pr, InChI=1S/5BrH.2Cs.10H2O.Pr/h5*1H;;;10*1H2;/q;;;;;2*+1;;;;;;;;;;;+3/p-5
Compound 7: dicesium neodymium(III) bromide decahydrate (Cs2NdBr5*10H2O), Br5Cs2H20NdO10, InChI=1S/5BrH.2Cs.Nd.10H2O/h5*1H;;;;10*1H2/q;;;;;2*+1;+3;;;;;;;;;;/p-5
Compound 8: dicesium samarium(III) bromide decahydrate (Cs2SmBr5*10H2O), Br5Cs2H20O10Sm, InChI=1S/5BrH.2Cs.10H2O.Sm/h5*1H;;;10*1H2;/q;;;;;2*+1;;;;;;;;;;;+3/p-5

System: water + cesium bromide + praseodymium(III) bromide; phases: Liquid, Crystal
Fixed: Pressure, kPa = 100
Fixed: Temperature, K = 298.2
Property: Mass fraction of praseodymium(III) bromide (Liquid); method: Titration method
Mass fraction of cesium bromide	Mass fraction of praseodymium(III) bromide	uncertainty
0.5551	0	
0.4746	0.0734	0.0086
0.3984	0.1446	0.009
0.3384	0.2073	0.0098
0.2864	0.2674	0.0109
0.2475	0.3197	0.0123
0.2122	0.3722	0.015
0.1948	0.415	0.0199
0.1791	0.4508	0.0203
0.1707	0.4739	0.0041
0.1732	0.4737	0.0041

System: water + cesium bromide + praseodymium(III) bromide; phases: Liquid, Crystal of intercomponent compound 1
Fixed: Pressure, kPa = 100
Fixed: Temperature, K = 298.2
Property: Mass fraction of praseodymium(III) bromide (Liquid); method: Titration method
Mass fraction of cesium bromide	Mass fraction of praseodymium(III) bromide	uncertainty
0.1732	0.4737	0.0041
0.1337	0.5103	0.0088
0.1148	0.5288	0.0101
0.0844	0.5653	0.011
0.076	0.5772	0.0154
0.0754	0.5791	0.0153
0.0582	0.6088	0.0042
0.0599	0.6084	0.0042
0.06	0.6087	0.0042
0.0588	0.6104	0.0042

System: water + cesium bromide + praseodymium(III) bromide; phases: Liquid, Crystal of intercomponent compound 2
Fixed: Pressure, kPa = 100
Fixed: Temperature, K = 298.2
Property: Mass fraction of praseodymium(III) bromide (Liquid); method: Titration method
Mass fraction of cesium bromide	Mass fraction of praseodymium(III) bromide	uncertainty
0.0582	0.6088	0.0042
0.0599	0.6084	0.0042
0.06	0.6087	0.0042
0.0588	0.6104	0.0042
0.037	0.6218	0.0062
0	0.6409	0.0042

System: water + cesium bromide + praseodymium(III) bromide; phases: Liquid, Crystal, Crystal of intercomponent compound 1
Property: Mass fraction of cesium bromide (Liquid); method: gravimetric
Pressure, kPa	Temperature, K	Mass fraction of cesium bromide	uncertainty
100	298.2	0.1732	0.0082

System: water + cesium bromide + praseodymium(III) bromide; phases: Liquid, Crystal, Crystal of intercomponent compound 1
Property: Mass fraction of praseodymium(III) bromide (Liquid); method: Titration method
Pressure, kPa	Temperature, K	Mass fraction of praseodymium(III) bromide	uncertainty
100	298.2	0.4737	0.0041

System: water + cesium bromide + praseodymium(III) bromide; phases: Liquid, Crystal of intercomponent compound 1, Crystal of intercomponent compound 2
Property: Mass fraction of cesium bromide (Liquid); method: gravimetric
Pressure, kPa	Temperature, K	Mass fraction of cesium bromide	uncertainty
100	298.2	0.0592	0.0082

System: water + cesium bromide + praseodymium(III) bromide; phases: Liquid, Crystal of intercomponent compound 1, Crystal of intercomponent compound 2
Property: Mass fraction of praseodymium(III) bromide (Liquid); method: Titration method
Pressure, kPa	Temperature, K	Mass fraction of praseodymium(III) bromide	uncertainty
100	298.2	0.6091	0.0042

System: water + cesium bromide + neodymium bromide; phases: Liquid, Crystal
Fixed: Pressure, kPa = 100
Fixed: Temperature, K = 298.2
Property: Mass fraction of neodymium bromide (Liquid); method: Titration method
Mass fraction of cesium bromide	Mass fraction of neodymium bromide	uncertainty
0.5551	0	
0.4723	0.0735	0.0087
0.3938	0.1511	0.0093
0.3268	0.2234	0.0099
0.269	0.2895	0.0109
0.2352	0.3377	0.0125
0.1973	0.393	0.0148
0.1823	0.433	0.0265
0.1715	0.474	0.0041
0.1726	0.4731	0.0041

System: water + cesium bromide + neodymium bromide; phases: Liquid, Crystal of intercomponent compound 1
Fixed: Pressure, kPa = 100
Fixed: Temperature, K = 298.2
Property: Mass fraction of neodymium bromide (Liquid); method: Titration method
Mass fraction of cesium bromide	Mass fraction of neodymium bromide	uncertainty
0.1715	0.474	0.0041
0.1726	0.4731	0.0041
0.1166	0.5265	0.0095
0.095	0.5552	0.0112
0.0703	0.585	0.0139
0.0552	0.6085	0.0042
0.0564	0.6189	0.0042
0.0587	0.6165	0.0042
0.0574	0.6163	0.0042
0.0571	0.6133	0.0042

System: water + cesium bromide + neodymium bromide; phases: Liquid, Crystal of intercomponent compound 2
Fixed: Pressure, kPa = 100
Fixed: Temperature, K = 298.2
Property: Mass fraction of neodymium bromide (Liquid); method: Titration method
Mass fraction of cesium bromide	Mass fraction of neodymium bromide	uncertainty
0.0564	0.6189	0.0042
0.0587	0.6165	0.0042
0.0574	0.6163	0.0042
0.0571	0.6133	0.0042
0.0402	0.6256	0.0059
0	0.6473	0.0042

System: water + cesium bromide + neodymium bromide; phases: Liquid, Crystal, Crystal of intercomponent compound 1
Property: Mass fraction of cesium bromide (Liquid); method: gravimetric
Pressure, kPa	Temperature, K	Mass fraction of cesium bromide	uncertainty
100	298.2	0.172	0.0082

System: water + cesium bromide + neodymium bromide; phases: Liquid, Crystal, Crystal of intercomponent compound 1
Property: Mass fraction of neodymium bromide (Liquid); method: Titration method
Pressure, kPa	Temperature, K	Mass fraction of neodymium bromide	uncertainty
100	298.2	0.4735	0.0041

System: water + cesium bromide + neodymium bromide; phases: Liquid, Crystal of intercomponent compound 1, Crystal of intercomponent compound 2
Property: Mass fraction of cesium bromide (Liquid); method: gravimetric
Pressure, kPa	Temperature, K	Mass fraction of cesium bromide	uncertainty
100	298.2	0.0574	0.0082

System: water + cesium bromide + neodymium bromide; phases: Liquid, Crystal of intercomponent compound 1, Crystal of intercomponent compound 2
Property: Mass fraction of neodymium bromide (Liquid); method: Titration method
Pressure, kPa	Temperature, K	Mass fraction of neodymium bromide	uncertainty
100	298.2	0.6163	0.0042

System: water + cesium bromide + samarium bromide; phases: Liquid, Crystal
Fixed: Pressure, kPa = 100
Fixed: Temperature, K = 298.2
Property: Mass fraction of samarium bromide (Liquid); method: Titration method
Mass fraction of cesium bromide	Mass fraction of samarium bromide	uncertainty
0.5551	0	
0.4762	0.0713	0.0086
0.3972	0.146	0.0092
0.3346	0.2146	0.0098
0.2743	0.2801	0.0107
0.2286	0.3431	0.0126
0.1982	0.3911	0.0151
0.1767	0.4356	0.0219
0.1662	0.4782	0.0041

System: water + cesium bromide + samarium bromide; phases: Liquid, Crystal of intercomponent compound 1
Fixed: Pressure, kPa = 100
Fixed: Temperature, K = 298.2
Property: Mass fraction of samarium bromide (Liquid); method: Titration method
Mass fraction of cesium bromide	Mass fraction of samarium bromide	uncertainty
0.1662	0.4782	0.0041
0.112	0.5348	0.01
0.0784	0.5759	0.013
0.0631	0.5983	0.0042
0.0602	0.6107	0.0042
0.062	0.611	0.0042
0.0662	0.6068	0.0042

System: water + cesium bromide + samarium bromide; phases: Liquid, Crystal of intercomponent compound 2
Fixed: Pressure, kPa = 100
Fixed: Temperature, K = 298.2
Property: Mass fraction of samarium bromide (Liquid); method: Titration method
Mass fraction of cesium bromide	Mass fraction of samarium bromide	uncertainty
0.0602	0.6107	0.0042
0.062	0.611	0.0042
0.0662	0.6068	0.0042
0.05	0.614	0.0059
0.0301	0.6256	0.006
0	0.6403	0.0042

System: water + cesium bromide + samarium bromide; phases: Liquid, Crystal, Crystal of intercomponent compound 1
Property: Mass fraction of cesium bromide (Liquid); method: gravimetric
Pressure, kPa	Temperature, K	Mass fraction of cesium bromide	uncertainty
100	298.2	0.1662	0.0082

System: water + cesium bromide + samarium bromide; phases: Liquid, Crystal, Crystal of intercomponent compound 1
Property: Mass fraction of samarium bromide (Liquid); method: Titration method
Pressure, kPa	Temperature, K	Mass fraction of samarium bromide	uncertainty
100	298.2	0.4782	0.0041

System: water + cesium bromide + samarium bromide; phases: Liquid, Crystal of intercomponent compound 1, Crystal of intercomponent compound 2
Property: Mass fraction of cesium bromide (Liquid); method: gravimetric
Pressure, kPa	Temperature, K	Mass fraction of cesium bromide	uncertainty
100	298.2	0.0628	0.0082

System: water + cesium bromide + samarium bromide; phases: Liquid, Crystal of intercomponent compound 1, Crystal of intercomponent compound 2
Property: Mass fraction of samarium bromide (Liquid); method: Titration method
Pressure, kPa	Temperature, K	Mass fraction of samarium bromide	uncertainty
100	298.2	0.6095	0.0042

System: dicesium praseodymium(III) bromide decahydrate (Cs2PrBr5*10H2O) + water; phases: Liquid
Property: Molar enthalpy of solution, kJ/mol (Liquid); method: Calvet calorimetry
Temperature, K	Mole fraction of dicesium praseodymium(III) bromide decahydrate (Cs2PrBr5*10H2O)	Pressure, kPa	Molar enthalpy of solution, kJ/mol	uncertainty
298.15	0	100	52.49	0.6

System: dicesium neodymium(III) bromide decahydrate (Cs2NdBr5*10H2O) + water; phases: Liquid
Property: Molar enthalpy of solution, kJ/mol (Liquid); method: Calvet calorimetry
Temperature, K	Mole fraction of dicesium neodymium(III) bromide decahydrate (Cs2NdBr5*10H2O)	Pressure, kPa	Molar enthalpy of solution, kJ/mol	uncertainty
298.15	0	100	49.64	0.61

System: dicesium samarium(III) bromide decahydrate (Cs2SmBr5*10H2O) + water; phases: Liquid
Property: Molar enthalpy of solution, kJ/mol (Liquid); method: Calvet calorimetry
Temperature, K	Mole fraction of dicesium samarium(III) bromide decahydrate (Cs2SmBr5*10H2O)	Pressure, kPa	Molar enthalpy of solution, kJ/mol	uncertainty
298.15	0	100	50.17	0.59

System: water + cesium bromide; phases: Liquid, Crystal
Property: Mass fraction of cesium bromide (Liquid); method: gravimetric
Pressure, kPa	Temperature, K	Mass fraction of cesium bromide	uncertainty
100	298.2	0.5551	0.0083

System: water + praseodymium(III) bromide; phases: Liquid, Crystal of intercomponent compound 1
Property: Mass fraction of praseodymium(III) bromide (Liquid); method: Titration method
Pressure, kPa	Temperature, K	Mass fraction of praseodymium(III) bromide	uncertainty
100	298.2	0.6409	0.0042

System: water + neodymium bromide; phases: Liquid, Crystal of intercomponent compound 1
Property: Mass fraction of neodymium bromide (Liquid); method: Titration method
Pressure, kPa	Temperature, K	Mass fraction of neodymium bromide	uncertainty
100	298.2	0.6473	0.0042

System: water + samarium bromide; phases: Liquid, Crystal of intercomponent compound 1
Property: Mass fraction of samarium bromide (Liquid); method: Titration method
Pressure, kPa	Temperature, K	Mass fraction of samarium bromide	uncertainty
100	298.2	0.6403	0.0042
