Measured thermophysical data. Volumetric properties of L-alanine, and L-valine in aqueous sucrose solutions at T = (288.15 and 308.15) K
Source: J. Chem. Thermodyn., 2005, 10.1016/j.jct.2004.12.015
Compound 1: (S)-2-aminopropanoic acid, C3H7NO2, InChI=1S/C3H7NO2/c1-2(4)3(5)6/h2H,4H2,1H3,(H,5,6)/t2-/m0/s1
Compound 2: L-valine, C5H11NO2, InChI=1S/C5H11NO2/c1-3(2)4(6)5(7)8/h3-4H,6H2,1-2H3,(H,7,8)/t4-/m0/s1
Compound 3: D-sucrose, C12H22O11, InChI=1S/C12H22O11/c13-1-4-6(16)8(18)9(19)11(21-4)23-12(3-15)10(20)7(17)5(2-14)22-12/h4-11,13-20H,1-3H2/t4-,5-,6-,7-,8+,9-,10+,11-,12+/m1/s1
Compound 4: water, H2O, InChI=1S/H2O/h1H2

System: (S)-2-aminopropanoic acid + water; phases: Liquid
Fixed: Pressure, kPa = 101
Property: Mass density, kg/m3 (Liquid); method: PYCNOM:UFactor:2
Temperature, K	Molality, mol/kg of (S)-2-aminopropanoic acid	Mass density, kg/m3	uncertainty
288.15	0.04976	1000.56	0.74
288.15	0.07438	1001.28	0.75
288.15	0.09925	1002.01	0.75
288.15	0.12326	1002.71	0.75
288.15	0.14818	1003.44	0.75
288.15	0.17288	1004.16	0.75
288.15	0.19691	1004.86	0.75
308.15	0.04976	995.44	0.79
308.15	0.07438	996.14	0.79
308.15	0.09925	996.85	0.79
308.15	0.12326	997.53	0.8
308.15	0.14818	998.24	0.8
308.15	0.17288	998.94	0.8
308.15	0.19691	999.62	0.8

System: D-sucrose + water; phases: Liquid
Fixed: Pressure, kPa = 101
Property: Mass density, kg/m3 (Liquid); method: PYCNOM:UFactor:2
Temperature, K	Mass fraction of D-sucrose	Mass density, kg/m3	uncertainty
288.15	0.05	1020.02	0.77
288.15	0.1	1039.85	0.79
288.15	0.15	1060.72	0.81
288.15	0.2	1081.98	0.83
288.15	0.25	1104.74	0.85
308.15	0.05	1014.39	0.81
308.15	0.1	1033.98	0.83
308.15	0.15	1054.35	0.85
308.15	0.2	1075.28	0.87
308.15	0.25	1097.6	0.9

System: L-valine + water; phases: Liquid
Fixed: Pressure, kPa = 101
Property: Mass density, kg/m3 (Liquid); method: PYCNOM:UFactor:2
Temperature, K	Molality, mol/kg of L-valine	Mass density, kg/m3	uncertainty
288.15	0.05139	1000.5	0.74
288.15	0.07295	1001.09	0.75
288.15	0.09808	1001.77	0.75
288.15	0.12504	1002.5	0.75
288.15	0.15188	1003.23	0.75
288.15	0.17432	1003.84	0.75
288.15	0.20446	1004.66	0.75
308.15	0.05139	995.37	0.79
308.15	0.07295	995.93	0.79
308.15	0.09808	996.58	0.79
308.15	0.12504	997.28	0.8
308.15	0.15188	997.98	0.8
308.15	0.17432	998.56	0.8
308.15	0.20446	999.34	0.8

System: (S)-2-aminopropanoic acid + D-sucrose + water; phases: Liquid
Fixed: Pressure, kPa = 101
Property: Mass density, kg/m3 (Liquid); method: PYCNOM:UFactor:2
Temperature, K	Solvent: Mass fraction of D-sucrose	Molality, mol/kg of (S)-2-aminopropanoic acid	Mass density, kg/m3	uncertainty
288.15	0	0.04976	1000.56	0.74
288.15	0	0.07438	1001.28	0.75
288.15	0	0.09925	1002.01	0.75
288.15	0	0.12326	1002.71	0.75
288.15	0	0.14818	1003.44	0.75
288.15	0	0.17288	1004.16	0.75
288.15	0	0.19691	1004.86	0.75
288.15	0.05	0	1020.02	0.77
288.15	0.05	0.04998	1021.49	0.76
288.15	0.05	0.07539	1022.24	0.77
288.15	0.05	0.10257	1023.04	0.77
288.15	0.05	0.12501	1023.7	0.77
288.15	0.05	0.15037	1024.45	0.77
288.15	0.05	0.17586	1025.2	0.77
288.15	0.05	0.19841	1025.86	0.77
288.15	0.1	0	1039.85	0.79
288.15	0.1	0.05011	1041.28	0.79
288.15	0.1	0.07367	1041.95	0.79
288.15	0.1	0.10151	1042.75	0.79
288.15	0.1	0.12185	1043.33	0.79
288.15	0.1	0.14619	1044.02	0.79
288.15	0.1	0.17598	1044.87	0.79
288.15	0.1	0.19733	1045.48	0.79
288.15	0.15	0	1060.72	0.81
288.15	0.15	0.04751	1062.03	0.81
288.15	0.15	0.07226	1062.71	0.81
288.15	0.15	0.09791	1063.42	0.81
288.15	0.15	0.12649	1064.21	0.81
288.15	0.15	0.14836	1064.81	0.81
288.15	0.15	0.17554	1065.56	0.81
288.15	0.15	0.19533	1066.11	0.81
288.15	0.2	0	1081.98	0.83
288.15	0.2	0.0495	1083.3	0.83
288.15	0.2	0.07158	1083.89	0.83
288.15	0.2	0.1032	1084.73	0.83
288.15	0.2	0.12478	1085.31	0.83
288.15	0.2	0.14874	1085.95	0.84
288.15	0.2	0.17199	1086.57	0.84
288.15	0.2	0.19635	1087.22	0.84
288.15	0.25	0	1104.74	0.85
288.15	0.25	0.04507	1105.88	0.85
288.15	0.25	0.07564	1106.65	0.85
288.15	0.25	0.10246	1107.33	0.85
288.15	0.25	0.12495	1107.9	0.85
288.15	0.25	0.14763	1108.47	0.86
288.15	0.25	0.17369	1109.13	0.86
288.15	0.25	0.20018	1109.8	0.86
308.15	0	0.04976	995.44	0.79
308.15	0	0.07438	996.14	0.79
308.15	0	0.09925	996.85	0.79
308.15	0	0.12326	997.53	0.8
308.15	0	0.14818	998.24	0.8
308.15	0	0.17288	998.94	0.8
308.15	0	0.19691	999.62	0.8
308.15	0.05	0	1014.39	0.81
308.15	0.05	0.04998	1015.85	0.82
308.15	0.05	0.07539	1016.59	0.82
308.15	0.05	0.10257	1017.39	0.82
308.15	0.05	0.12501	1018.05	0.82
308.15	0.05	0.15037	1018.79	0.82
308.15	0.05	0.17586	1019.53	0.82
308.15	0.05	0.19841	1020.19	0.82
308.15	0.1	0	1033.98	0.83
308.15	0.1	0.05011	1035.4	0.83
308.15	0.1	0.07367	1036.07	0.83
308.15	0.1	0.10151	1036.86	0.83
308.15	0.1	0.12185	1037.44	0.83
308.15	0.1	0.14619	1038.13	0.83
308.15	0.1	0.17598	1038.97	0.84
308.15	0.1	0.19733	1039.58	0.84
308.15	0.15	0	1054.35	0.85
308.15	0.15	0.04751	1055.62	0.85
308.15	0.15	0.07226	1056.28	0.85
308.15	0.15	0.09791	1056.97	0.86
308.15	0.15	0.12649	1057.73	0.86
308.15	0.15	0.14836	1058.32	0.86
308.15	0.15	0.17554	1059.04	0.86
308.15	0.15	0.19533	1059.59	0.86
308.15	0.2	0	1075.28	0.87
308.15	0.2	0.0495	1076.55	0.87
308.15	0.2	0.07158	1077.12	0.87
308.15	0.2	0.1032	1077.93	0.87
308.15	0.2	0.12478	1078.48	0.88
308.15	0.2	0.14874	1079.09	0.88
308.15	0.2	0.17199	1079.69	0.88
308.15	0.2	0.19635	1080.31	0.88
308.15	0.25	0	1097.6	0.9
308.15	0.25	0.04507	1098.71	0.9
308.15	0.25	0.07564	1099.46	0.9
308.15	0.25	0.10246	1100.12	0.9
308.15	0.25	0.12495	1100.67	0.9
308.15	0.25	0.14763	1101.23	0.9
308.15	0.25	0.17369	1101.87	0.9
308.15	0.25	0.20018	1102.52	0.9

System: D-sucrose + L-valine + water; phases: Liquid
Fixed: Pressure, kPa = 101
Property: Mass density, kg/m3 (Liquid); method: PYCNOM:UFactor:2
Temperature, K	Solvent: Mass fraction of D-sucrose	Molality, mol/kg of L-valine	Mass density, kg/m3	uncertainty
288.15	0	0.05139	1000.5	0.74
288.15	0	0.07295	1001.09	0.75
288.15	0	0.09808	1001.77	0.75
288.15	0	0.12504	1002.5	0.75
288.15	0	0.15188	1003.23	0.75
288.15	0	0.17432	1003.84	0.75
288.15	0	0.20446	1004.66	0.75
288.15	0.05	0	1020.02	0.77
288.15	0.05	0.04502	1021.2	0.76
288.15	0.05	0.0775	1022.05	0.77
288.15	0.05	0.10086	1022.66	0.77
288.15	0.05	0.1256	1023.31	0.77
288.15	0.05	0.15243	1024.01	0.77
288.15	0.05	0.17484	1024.6	0.77
288.15	0.05	0.19977	1025.25	0.77
288.15	0.1	0	1039.85	0.79
288.15	0.1	0.0486	1041.06	0.79
288.15	0.1	0.07519	1041.74	0.79
288.15	0.1	0.09858	1042.35	0.79
288.15	0.1	0.12335	1043	0.79
288.15	0.1	0.14993	1043.69	0.79
288.15	0.1	0.17259	1044.28	0.79
288.15	0.1	0.20166	1045.03	0.79
288.15	0.15	0	1060.72	0.81
288.15	0.15	0.05095	1061.81	0.81
288.15	0.15	0.07537	1062.33	0.81
288.15	0.15	0.09969	1062.85	0.81
288.15	0.15	0.12381	1063.37	0.81
288.15	0.15	0.15026	1063.94	0.81
288.15	0.15	0.17339	1064.43	0.81
288.15	0.15	0.19755	1064.95	0.82
288.15	0.2	0	1081.98	0.83
288.15	0.2	0.04953	1083.02	0.83
288.15	0.2	0.07268	1083.51	0.83
288.15	0.2	0.09725	1084.03	0.83
288.15	0.2	0.12166	1084.54	0.83
288.15	0.2	0.14694	1085.07	0.83
288.15	0.2	0.17236	1085.6	0.83
288.15	0.2	0.19822	1086.14	0.84
288.15	0.25	0	1104.74	0.85
288.15	0.25	0.04786	1105.67	0.85
288.15	0.25	0.07579	1106.21	0.85
288.15	0.25	0.09968	1106.67	0.85
288.15	0.25	0.12604	1107.18	0.85
288.15	0.25	0.15155	1107.68	0.85
288.15	0.25	0.17422	1108.12	0.86
288.15	0.25	0.19987	1108.62	0.86
308.15	0	0.05139	995.37	0.79
308.15	0	0.07295	995.93	0.79
308.15	0	0.09808	996.58	0.79
308.15	0	0.12504	997.28	0.8
308.15	0	0.15188	997.98	0.8
308.15	0	0.17432	998.56	0.8
308.15	0	0.20446	999.34	0.8
308.15	0.05	0	1014.39	0.81
308.15	0.05	0.04502	1015.53	0.82
308.15	0.05	0.0775	1016.35	0.82
308.15	0.05	0.10086	1016.94	0.82
308.15	0.05	0.1256	1017.57	0.82
308.15	0.05	0.15243	1018.25	0.82
308.15	0.05	0.17484	1018.82	0.82
308.15	0.05	0.19977	1019.45	0.82
308.15	0.1	0	1033.98	0.83
308.15	0.1	0.0486	1035.14	0.83
308.15	0.1	0.07519	1035.8	0.83
308.15	0.1	0.09858	1036.38	0.83
308.15	0.1	0.12335	1036.99	0.83
308.15	0.1	0.14993	1037.65	0.84
308.15	0.1	0.17259	1038.21	0.84
308.15	0.1	0.20166	1038.93	0.84
308.15	0.15	0	1054.35	0.85
308.15	0.15	0.05095	1055.41	0.85
308.15	0.15	0.07537	1055.92	0.85
308.15	0.15	0.09969	1056.43	0.85
308.15	0.15	0.12381	1056.93	0.85
308.15	0.15	0.15026	1057.48	0.86
308.15	0.15	0.17339	1057.96	0.86
308.15	0.15	0.19755	1058.46	0.86
308.15	0.2	0	1075.28	0.87
308.15	0.2	0.04953	1076.27	0.87
308.15	0.2	0.07268	1076.73	0.87
308.15	0.2	0.09725	1077.22	0.87
308.15	0.2	0.12166	1077.71	0.88
308.15	0.2	0.14694	1078.22	0.88
308.15	0.2	0.17236	1078.73	0.88
308.15	0.2	0.19822	1079.25	0.88
308.15	0.25	0	1097.6	0.9
308.15	0.25	0.04786	1098.48	0.9
308.15	0.25	0.07579	1098.99	0.9
308.15	0.25	0.09968	1099.43	0.9
308.15	0.25	0.12604	1099.92	0.9
308.15	0.25	0.15155	1100.39	0.9
308.15	0.25	0.17422	1100.81	0.9
308.15	0.25	0.19987	1101.28	0.9
