Measured thermophysical data. Measurements of saturated-liquid densities for isobutane at T = (280 to 407) K
Source: J. Chem. Thermodyn., 2008, 10.1016/j.jct.2008.04.003
Compound 1: 2-methylpropane, C4H10, InChI=1S/C4H10/c1-4(2)3/h4H,1-3H3, purity 99.99%

System: 2-methylpropane; phases: Liquid
Property: Mass density, kg/m3 (Liquid); method: Bellows volumetry
Temperature, K	Pressure, kPa	Mass density, kg/m3	uncertainty
280	210.8	573.48	0.92
280	222.5	573.44	0.92
280	234	573.52	0.92
280	245.7	573.58	0.92
280	257.4	573.62	0.92
280	269.2	573.58	0.92
280	280.9	573.68	0.92
300	372.6	548.57	0.88
300	384.2	548.64	0.88
300	395.9	548.66	0.88
300	407.6	548.64	0.88
300	419.2	548.67	0.88
300	430.9	548.71	0.88
300	442.6	548.7	0.88
320	641.1	521.58	0.84
320	652.8	521.63	0.84
320	664.4	521.65	0.84
320	676.1	521.72	0.84
320	687.8	521.75	0.84
320	699.4	521.8	0.84
320	711.1	521.85	0.84
340	1015.8	492.07	0.78
340	1027.4	492.12	0.78
340	1039.1	492.18	0.78
340	1050.7	492.18	0.78
340	1062.4	492.21	0.78
340	1074.1	492.26	0.78
340	1085.8	492.22	0.78
360	1547.2	457.27	0.74
360	1558.8	457.4	0.74
360	1570.4	457.48	0.74
360	1582.1	457.56	0.74
360	1593.7	457.64	0.74
360	1605.3	457.74	0.74
360	1616.9	457.85	0.74
380	2262.9	413.23	0.66
380	2274.4	413.41	0.66
380	2286	413.58	0.66
380	2297.6	413.76	0.66
380	2309.1	413.92	0.66
380	2320.7	414.09	0.66
380	2332.3	414.23	0.66
400	3192	342.18	0.56
400	3202.9	343.05	0.56
400	3213.8	343.92	0.57
400	3224.8	344.67	0.57
400	3235.8	345.49	0.57
400	3246.8	346.19	0.57
400	3257.8	347.01	0.57
400	3268.8	347.76	0.57
405	3472.2	307.15	0.66
405	3481.2	309.53	0.64
405	3490.5	311.71	0.61
405	3500.2	313.58	0.6
405	3510	315.35	0.59
405	3519.9	316.99	0.58
405	3530	318.58	0.57
405	3540.2	319.98	0.58
406	3531.4	296.61	0.8
406	3539.4	299.74	0.76
406	3547.9	302.51	0.69
406	3556.7	304.98	0.64
406	3565.9	307.16	0.65
406	3575.3	309.2	0.64
406	3584.9	311.11	0.62
406	3594.8	312.82	0.6
407	3585.8	275.44	1.71
407	3587.3	278.66	1.47
407	3592.3	283.68	1.38
407	3597.9	287.86	1.1
407	3605	291.49	0.99
407	3612.9	294.64	0.78
407	3621.1	297.52	0.71
407	3629.9	300.02	0.65
407	3639.5	302.33	0.62
407	3648.7	304.5	0.6
407	3658.2	306.49	0.6
