Measured thermophysical data. Densities and volumetric properties of (choline chloride+urea) deep eutectic solvent and methanol mixtures in the temperature range of 293.15-323.15 K
Source: J. Chem. Thermodyn., 2018, 10.1016/j.jct.2018.04.010
Compound 1: choline chloride, C5H14ClNO, InChI=1S/C5H14NO.ClH/c1-6(2,3)4-5-7;/h7H,4-5H2,1-3H3;1H/q+1;/p-1, purity 99%
Compound 2: urea, CH4N2O, InChI=1S/CH4N2O/c2-1(3)4/h(H4,2,3,4), purity 99%
Compound 3: methanol, CH4O, InChI=1S/CH4O/c1-2/h2H,1H3, purity 99.9%

System: methanol; phases: Liquid
Fixed: Pressure, kPa = 101
Property: Mass density, kg/m3 (Liquid); method: Vibrating tube method
Temperature, K	Mass density, kg/m3	uncertainty
293.15	792.6	2
303.15	783	2
313.15	773.5	2
323.15	764	2

System: methanol + choline chloride + urea; phases: Liquid
Fixed: Solvent: Mole fraction of choline chloride = 0.333
Fixed: Pressure, kPa = 100
Property: Mass density, kg/m3 (Liquid); method: Vibrating tube method
Temperature, K	Mole fraction of methanol	Mass density, kg/m3	uncertainty
293.15	0	1199.7	2
293.15	0.105	1187	2
293.15	0.205	1166.9	2.1
293.15	0.3	1143.5	2.1
293.15	0.401	1115	2.1
293.15	0.501	1081.6	2.1
293.15	0.6	1044.8	2.2
293.15	0.704	998.9	2.2
293.15	0.8	947.8	2.3
293.15	0.904	876.9	2.5
293.15	1	792.6	2
303.15	0	1194.2	2
303.15	0.105	1182.2	2
303.15	0.205	1161.9	2.1
303.15	0.3	1137.8	2.1
303.15	0.401	1108.9	2.1
303.15	0.501	1075.3	2.1
303.15	0.6	1038.2	2.2
303.15	0.704	992	2.2
303.15	0.8	940.2	2.4
303.15	0.904	868.4	2.5
303.15	1	783	2
313.15	0	1188.6	2
313.15	0.105	1177.8	2
313.15	0.205	1156.9	2.1
313.15	0.3	1132.2	2.1
313.15	0.401	1103	2.1
313.15	0.501	1069.1	2.1
313.15	0.6	1031.5	2.2
313.15	0.704	985	2.2
313.15	0.8	932.7	2.4
313.15	0.904	859.9	2.6
313.15	1	773.5	2
323.15	0	1183.2	2
323.15	0.105	1172.8	2
323.15	0.205	1151.7	2.1
323.15	0.3	1126.6	2.1
323.15	0.401	1097.1	2.1
323.15	0.501	1062.9	2.1
323.15	0.6	1025.1	2.2
323.15	0.704	977.7	2.2
323.15	0.8	924.8	2.4
323.15	0.904	851.4	2.6
323.15	1	764	2

System: choline chloride + urea; phases: Liquid
Fixed: Mole fraction of choline chloride = 0.333
Fixed: Pressure, kPa = 101
Property: Mass density, kg/m3 (Liquid); method: Vibrating tube method
Temperature, K	Mass density, kg/m3	uncertainty
293.15	1199.7	2
303.15	1194.2	2
313.15	1188.6	2
323.15	1183.2	2
