Measured thermophysical data. Low temperature heat capacity study of Fe3PO7 and Fe4(P2O7)3
Source: J. Chem. Thermodyn., 2013, 10.1016/j.jct.2013.02.023
Compound 1: iron oxide phosphate (Fe2O3.FePO4), Fe3O7P, InChI=1S/3Fe.H3O4P.3O/c;;;1-5(2,3)4;;;/h;;;(H3,1,2,3,4);;;/q3*+3;;3*-2/p-3, purity 99%
Compound 2: iron(III) diphosphate, Fe4O21P6, InChI=1S/4Fe.3H4O7P2/c;;;;3*1-8(2,3)7-9(4,5)6/h;;;;3*(H2,1,2,3)(H2,4,5,6)/q4*+3;;;/p-12, purity 99%

System: iron oxide phosphate (Fe2O3.FePO4); phases: Crystal 2, Crystal 1, Gas
Property: Triple point temperature, K (Crystal 2); method: relaxation calorimetry - Quantum Design PPMS
Triple point temperature, K	uncertainty
164.5	0.1

System: iron oxide phosphate (Fe2O3.FePO4); phases: Crystal 2, Crystal 1, Gas
Property: Molar enthalpy of transition or fusion, kJ/mol (Crystal 2); method: relaxation calorimetry - Quantum Design PPMS
Molar enthalpy of transition or fusion, kJ/mol	uncertainty
0	1

System: iron oxide phosphate (Fe2O3.FePO4); phases: Crystal 2
Fixed: Pressure, kPa = 101.325
Property: Molar heat capacity at constant pressure, J/K/mol (Crystal 2); method: relaxation calorimetry - Quantum Design PPMS
Temperature, K	Molar heat capacity at constant pressure, J/K/mol	uncertainty
1.9075	0.046244	0.004759
2.0597	0.053979	0.005521
2.2386	0.063751	0.006485
2.5244	0.080965	0.008198
2.8314	0.1007	0.01017
3.1298	0.12267	0.01237
3.454	0.14932	0.01502
3.8318	0.18288	0.01838
4.2487	0.22281	0.02237
4.7221	0.27164	0.02725
5.2449	0.32898	0.03298
5.8453	0.39892	0.03997
6.482	0.48038	0.04811
7.2195	0.57809	0.05787
8.0135	0.68668	0.06872
8.91	0.81371	0.08142
10.052	0.98724	0.09878
11.184	1.1907	0.1191
12.415	1.4422	0.1443
13.783	1.7763	0.1777
15.297	2.2281	0.2229
17.027	2.859	0.286
18.879	3.6993	0.3701
20.932	4.7693	0.4771
23.267	6.2832	0.1261
25.858	7.3627	0.1477
28.703	9.2297	0.1852
31.828	11.68	0.234
35.366	14.769	0.296
39.269	18.428	0.369
43.602	22.697	0.454
48.446	27.643	0.553
53.749	33.344	0.667
59.684	39.898	0.798
66.268	47.198	0.944
73.583	55.295	1.106
81.696	64.591	1.292
90.722	74.878	1.498
100.72	85.734	1.715
110.86	96.572	1.932
120.86	107.13	2.14
131	118.31	2.37
136.35	123.92	2.48
141.02	129.96	2.6
146.22	135.92	2.72
148.39	139.07	2.78
150.38	141.64	2.83
151.17	143.36	2.87
152.41	144.93	2.9
153.51	147.23	2.94
154.43	148.49	2.97
155.42	150.24	3.01
156.41	152.82	3.06
157.45	154.43	3.09
158.43	157.12	3.14
159.46	159.89	3.2
160.48	162.99	3.26
161.26	165.89	3.32
161.48	167.46	3.35
162.01	168.54	3.37
162.5	170.2	3.4
162.53	170.38	3.41
163.03	171.56	3.43
163.54	172.67	3.45
164.03	173.35	3.47
164.47	173.6	3.47

System: iron oxide phosphate (Fe2O3.FePO4); phases: Crystal 1
Fixed: Pressure, kPa = 101.325
Property: Molar heat capacity at constant pressure, J/K/mol (Crystal 1); method: relaxation calorimetry - Quantum Design PPMS
Temperature, K	Molar heat capacity at constant pressure, J/K/mol	uncertainty
164.55	173.38	3.47
165.05	173.33	3.47
165.55	173.38	3.47
166.05	172.79	3.46
166.5	172.28	3.45
166.57	172.15	3.44
167.06	171.53	3.43
167.58	170.96	3.42
168.07	170.21	3.4
168.58	169.6	3.39
169.08	169.05	3.38
169.59	168.61	3.37
170.08	168.14	3.36
170.59	167.5	3.35
171.05	167.3	3.35
171.56	166.91	3.34
172.06	166.6	3.33
172.56	166.54	3.33
173.06	166.03	3.32
173.57	165.75	3.32
174.12	165.73	3.31
174.62	165.48	3.31
175.13	165.31	3.31
175.63	165.17	3.3
176.13	165.4	3.31
176.64	165.15	3.3
176.65	165.23	3.3
177.14	165.16	3.3
177.64	164.97	3.3
178.15	165	3.3
178.65	164.94	3.3
179.12	164.82	3.3
179.62	164.87	3.3
180.13	165.14	3.3
180.63	165.2	3.3
181.14	165.4	3.31
181.64	165.14	3.3
182.78	165.52	3.31
183.69	165.47	3.31
184.7	165.68	3.31
185.72	166.04	3.32
186.73	166.37	3.33
187.73	166.56	3.33
188.75	166.93	3.34
189.76	167.12	3.34
190.77	167.27	3.35
191.78	167.57	3.35
192.78	167.96	3.36
193.74	168.14	3.36
194.75	168.64	3.37
195.76	169.01	3.38
196.7	169.6	3.39
196.83	169.69	3.39
197.83	169.49	3.39
198.84	170.24	3.4
199.85	170.78	3.42
200.85	171.14	3.42
201.72	171.69	3.43
202.81	172	3.44
206.77	174.52	3.49
211.83	176.47	3.53
216.85	178.23	3.56
221.95	180.98	3.62
226.97	183.43	3.67
232.07	185.62	3.71
242.15	189.82	3.8
252.21	194.04	3.88
262.3	197.76	3.96
272.46	202.34	4.05
282.55	206.57	4.13
292.57	209.97	4.2
302.69	213.76	4.28

System: iron oxide phosphate (Fe2O3.FePO4); phases: Crystal 2
Fixed: Pressure, kPa = 101.325
Property: Molar heat capacity at constant pressure, J/K/mol (Crystal 2); method: relaxation calorimetry - Quantum Design PPMS
Temperature, K	Molar heat capacity at constant pressure, J/K/mol	uncertainty
1	0.018975	0.002051
2	0.052889	0.005474
3	0.11186	0.0115
4	0.1973	0.02021
5	0.30278	0.03096
6	0.4205	0.04296
7	0.54693	0.05585
8	0.68305	0.06973
9	0.82731	0.08444
10	0.97835	0.0237
11	1.1496	0.0278
12	1.3487	0.0327
13	1.5805	0.0383
14	1.8477	0.0447
15	2.1512	0.052
16	2.4908	0.0602
17	2.8656	0.0692
18	3.2742	0.079
19	3.7147	0.0896
20	4.1855	0.1009
25	6.9436	0.1671
30	10.314	0.248
35	14.307	0.344
40	18.93	0.455
45	24.077	0.578
50	29.514	0.65
55	34.977	0.77
60	40.309	0.887
65	45.56	1.003
70	50.96	1.121
75	56.755	1.249
80	62.923	1.385
85	68.966	1.517
90	74.064	1.63
95	79.575	1.751
100	84.97	1.869
110	95.659	2.105
120	106.22	2.34
130	117.17	2.58
140	128.53	2.83
150	141.29	3.11
160	162.25	3.57
164.5	173.6	3.82

System: iron oxide phosphate (Fe2O3.FePO4); phases: Crystal 2
Fixed: Pressure, kPa = 101.325
Property: Molar entropy, J/K/mol (Crystal 2); method: relaxation calorimetry - Quantum Design PPMS
Temperature, K	Molar entropy, J/K/mol	uncertainty
1	0.017131	0.002659
2	0.039486	0.006065
3	0.071153	0.010912
4	0.11445	0.01754
5	0.16952	0.02596
6	0.23498	0.03598
7	0.30919	0.04733
8	0.39099	0.05985
9	0.47976	0.07343
10	0.57461	0.02078
11	0.67569	0.02441
12	0.78404	0.02832
13	0.90091	0.03252
14	1.0276	0.0371
15	1.1652	0.042
16	1.3147	0.0474
17	1.4768	0.0533
18	1.652	0.0596
19	1.8407	0.0664
20	2.0431	0.0737
25	3.2614	0.1175
30	4.8161	0.1735
35	6.6977	0.2413
40	8.9031	0.3207
45	11.426	0.411
50	14.243	0.47
55	17.312	0.571
60	20.586	0.679
65	24.019	0.793
70	27.591	0.911
75	31.302	1.033
80	35.161	1.16
85	39.16	1.292
90	43.252	1.427
95	47.405	1.564
100	51.624	1.704
110	60.225	1.988
120	69	2.277
130	77.934	2.572
140	87.019	2.872
150	96.305	3.178
160	106	3.5

System: iron oxide phosphate (Fe2O3.FePO4); phases: Crystal 2
Fixed: Pressure, kPa = 101.325
Property: Molar enthalpy, kJ/mol (Crystal 2); method: relaxation calorimetry - Quantum Design PPMS
Temperature, K	Molar enthalpy, kJ/mol	uncertainty
1	8.8282e-06	1.1303e-06
2	4.2984e-05	4.531e-06
3	0.00012306	1.277e-05
4	0.00027562	2.84e-05
5	0.00052435	5.383e-05
6	0.0008852	9.068e-05
7	0.0013682	0.00014
8	0.0019823	0.0002027
9	0.0027374	0.0002797
10	0.003639	8.95e-05
11	0.0047009	0.0001152
12	0.0059475	0.0001453
13	0.0074092	0.0001806
14	0.0091203	0.000222
15	0.011117	0.00027
16	0.013435	0.000326
17	0.01611	0.000391
18	0.019177	0.000465
19	0.022669	0.000549
20	0.026617	0.000644
25	0.054173	0.001308
30	0.097065	0.002339
35	0.15835	0.00381
40	0.24119	0.0058
45	0.34853	0.00838
50	0.48244	0.01063
55	0.64371	0.01418
60	0.83198	0.01832
65	1.0467	0.023
70	1.2878	0.0284
75	1.5569	0.0343
80	1.856	0.0409
85	2.186	0.0481
90	2.5441	0.056
95	2.9282	0.0644
100	3.3396	0.0735
110	4.2429	0.0934
120	5.2521	0.1156
130	6.3691	0.1401
140	7.5956	0.1671
150	8.9423	0.1968
160	10.445	0.23

System: iron oxide phosphate (Fe2O3.FePO4); phases: Crystal 1
Fixed: Pressure, kPa = 101.325
Property: Molar heat capacity at constant pressure, J/K/mol (Crystal 1); method: relaxation calorimetry - Quantum Design PPMS
Temperature, K	Molar heat capacity at constant pressure, J/K/mol	uncertainty
164.5	173.6	3.82
170	168.27	3.7
180	165.05	3.63
190	167.14	3.68
200	170.77	3.76
210	175.8	3.87
220	179.89	3.96
230	184.76	4.06
240	189.08	4.16
250	193.62	4.26
260	197.85	4.35
270	201.78	4.44
273.15	202.96	4.47
280	205.43	4.52
290	208.84	4.59
298.15	211.44	4.65
300	212.01	4.66

System: iron oxide phosphate (Fe2O3.FePO4); phases: Crystal 1
Fixed: Pressure, kPa = 101.325
Property: Molar entropy, J/K/mol (Crystal 1); method: relaxation calorimetry - Quantum Design PPMS
Temperature, K	Molar entropy, J/K/mol	uncertainty
170	116.31	3.84
180	125.79	4.15
190	134.76	4.45
200	143.42	4.73
210	151.88	5.01
220	160.14	5.28
230	168.25	5.55
240	176.2	5.81
250	184.01	6.07
260	191.69	6.33
270	199.23	6.57
273.15	201.58	6.65
280	206.64	6.82
290	213.91	7.06
298.15	219.73	7.25
300	221.04	7.29

System: iron oxide phosphate (Fe2O3.FePO4); phases: Crystal 1
Fixed: Pressure, kPa = 101.325
Property: Molar enthalpy, kJ/mol (Crystal 1); method: relaxation calorimetry - Quantum Design PPMS
Temperature, K	Molar enthalpy, kJ/mol	uncertainty
170	12.147	0.267
180	13.805	0.304
190	15.464	0.34
200	17.152	0.377
210	18.886	0.416
220	20.663	0.455
230	22.487	0.495
240	24.356	0.536
250	26.269	0.578
260	28.227	0.621
270	30.225	0.665
273.15	30.863	0.679
280	32.262	0.71
290	34.333	0.755
298.15	36.046	0.793
300	36.438	0.802

System: iron(III) diphosphate; phases: Crystal 2, Crystal 1, Gas
Property: Triple point temperature, K (Crystal 2); method: relaxation calorimetry - Quantum Design PPMS
Triple point temperature, K	uncertainty
47.6	0.1

System: iron(III) diphosphate; phases: Crystal 3, Crystal 2, Gas
Property: Triple point temperature, K (Crystal 3); method: relaxation calorimetry - Quantum Design PPMS
Triple point temperature, K	uncertainty
27.3	0.2

System: iron(III) diphosphate; phases: Crystal 3, Crystal 2, Gas
Property: Molar enthalpy of transition or fusion, kJ/mol (Crystal 3); method: relaxation calorimetry - Quantum Design PPMS
Molar enthalpy of transition or fusion, kJ/mol	uncertainty
0	1

System: iron(III) diphosphate; phases: Crystal 2, Crystal 1, Gas
Property: Molar enthalpy of transition or fusion, kJ/mol (Crystal 2); method: relaxation calorimetry - Quantum Design PPMS
Molar enthalpy of transition or fusion, kJ/mol	uncertainty
0	1

System: iron(III) diphosphate; phases: Crystal 3
Fixed: Pressure, kPa = 101.325
Property: Molar heat capacity at constant pressure, J/K/mol (Crystal 3); method: relaxation calorimetry - Quantum Design PPMS
Temperature, K	Molar heat capacity at constant pressure, J/K/mol	uncertainty
1.9086	0.1843	0.01878
2.0451	0.20884	0.02123
2.2098	0.24184	0.02452
2.506	0.30137	0.03045
2.7634	0.36323	0.03669
3.0578	0.44493	0.0449
3.3918	0.55304	0.05576
3.8028	0.71032	0.07156
4.2075	0.90812	0.09146
4.6846	1.1878	0.1195
5.2027	1.5604	0.1569
5.7969	2.097	0.2107
6.4891	2.8707	0.2881
7.172	3.8097	0.3821
7.9746	5.0842	0.5096
8.8748	6.7096	0.6721
10.032	9.0743	0.9084
11.161	11.605	1.161
12.39	14.49	1.45
13.768	17.87	1.788
15.31	21.606	2.161
16.996	26.01	2.602
18.851	31.22	3.123
18.999	31.74	3.174
19.519	33.088	3.309
20.615	36.198	3.62
20.904	37.114	3.712
21.086	37.43	3.743
21.6	38.934	3.894
21.814	39.434	3.944
22.111	40.455	0.812
22.852	42.808	0.858
23.251	44.015	0.883
23.871	46.001	0.922
23.885	46.118	0.925
24.081	46.854	0.94
24.276	47.454	0.951
24.474	48.118	0.965
24.674	48.815	0.979
24.88	49.5	0.992
25.08	50.119	1.004
25.281	50.748	1.017
25.466	51.258	1.027
25.667	51.837	1.038
25.808	52.19	1.045
25.869	52.458	1.051
26.072	53.068	1.064
26.273	53.826	1.079
26.477	54.557	1.094
26.691	55.353	1.109
26.903	56.087	1.124
27.106	56.751	1.136

System: iron(III) diphosphate; phases: Crystal 2
Fixed: Pressure, kPa = 101.325
Property: Molar heat capacity at constant pressure, J/K/mol (Crystal 2); method: relaxation calorimetry - Quantum Design PPMS
Temperature, K	Molar heat capacity at constant pressure, J/K/mol	uncertainty
27.316	57.273	1.146
27.517	56.919	1.139
27.7	56.895	1.138
27.905	56.911	1.138
28.037	57.081	1.142
28.108	57.207	1.145
28.308	57.579	1.152
28.528	58.138	1.164
28.629	58.29	1.167
28.714	58.58	1.173
28.914	59.089	1.183
28.986	59.359	1.188
29.118	59.632	1.194
29.318	60.147	1.204
29.521	60.679	1.215
30.009	62.041	1.242
30.528	63.406	1.269
31.055	65.119	1.304
31.567	66.61	1.333
31.803	67.248	1.346
32.073	68.148	1.364
32.578	69.631	1.394
33.049	71.249	1.427
33.6	73.011	1.462
34.105	74.703	1.496
34.607	76.498	1.532
35.085	78.149	1.564
35.334	78.913	1.58
35.633	80.115	1.604
36.095	81.707	1.636
36.624	83.716	1.676
37.105	85.435	1.71
37.655	87.468	1.751
38.153	89.497	1.792
38.623	91.24	1.826
39.169	93.412	1.868
39.241	93.524	1.871
39.644	95.311	1.908
40.172	97.413	1.95
40.663	99.591	1.994
41.185	101.8	2.04
41.656	103.8	2.08
42.217	106.31	2.13
42.392	107.06	2.14
42.597	108.05	2.16
42.8	108.92	2.18
43	109.89	2.2
43.203	110.79	2.22
43.406	111.83	2.24
43.591	112.41	2.25
43.603	112.72	2.26
43.804	113.72	2.28
44.008	114.89	2.3
44.2	115.83	2.32
44.406	116.9	2.34
44.613	118.08	2.36
44.81	119.19	2.39
45.015	120.42	2.41
45.217	121.8	2.44
45.433	122.94	2.46
45.636	124.36	2.49
45.84	125.76	2.52
46.019	126.95	2.54
46.224	128.47	2.57
46.435	130.17	2.61
46.636	131.93	2.64
46.84	133.84	2.68
47.048	135.68	2.72
47.241	137.48	2.76
47.378	138.74	2.78
47.444	139.11	2.78
47.575	139.19	2.78

System: iron(III) diphosphate; phases: Crystal 1
Fixed: Pressure, kPa = 101.325
Property: Molar heat capacity at constant pressure, J/K/mol (Crystal 1); method: relaxation calorimetry - Quantum Design PPMS
Temperature, K	Molar heat capacity at constant pressure, J/K/mol	uncertainty
47.653	138.86	2.87
47.77	136.97	2.84
47.844	134.84	2.79
47.973	130.03	2.68
48.048	126.52	2.61
48.158	121.47	2.49
48.262	116.89	2.4
48.362	112.95	2.31
48.425	110.73	2.26
48.555	107.38	2.2
48.66	105.62	2.16
48.761	103.95	2.11
48.97	102.08	2.06
49.162	101.07	2.03
49.248	100.78	2.02
49.373	100.37	2.01
49.56	99.818	1.997
49.739	99.498	1.991
49.758	99.489	1.99
49.974	99.123	1.983
50.16	98.846	1.977
50.238	98.885	1.978
50.365	98.708	1.974
50.752	98.486	1.97
51.259	98.474	1.969
51.778	98.617	1.972
52.26	99.14	1.983
52.773	99.392	1.988
53.271	99.869	1.997
53.794	100.51	2.01
53.799	100.65	2.01
54.296	101.12	2.02
54.804	101.89	2.04
55.297	102.66	2.05
55.821	103.45	2.07
56.318	104.29	2.09
56.83	105.21	2.1
57.33	106.12	2.12
57.824	106.98	2.14
58.346	107.99	2.16
58.864	109.04	2.18
59.332	110.07	2.2
59.857	111.09	2.22
60.371	112.09	2.24
61.218	114	2.28
62.416	116.32	2.33
63.409	118.45	2.37
64.423	120.61	2.41
65.422	122.92	2.46
66.423	124.93	2.5
67.443	127.27	2.55
68.455	129.47	2.59
69.474	131.89	2.64
70.484	134.15	2.68
71.486	136.51	2.73
72.497	138.68	2.77
73.505	141.06	2.82
73.582	141.14	2.82
74.513	143.36	2.87
75.534	145.73	2.92
76.547	148.3	2.97
77.558	150.74	3.02
78.569	153.39	3.07
79.576	155.6	3.11
80.586	158.26	3.17
81.696	160.54	3.21
90.707	182.62	3.65
100.7	205.22	4.1
110.85	227.84	4.56
120.85	248.93	4.98
130.93	269.49	5.39
141.05	288.92	5.78
151.1	307	6.14
161.21	324.93	6.5
171.22	342.32	6.85
181.32	357.51	7.15
191.45	374.2	7.48
201.57	387.79	7.76
211.7	401.38	8.03
221.82	416.43	8.33
231.97	429	8.58
242.05	440.09	8.8
252.07	452.65	9.05
262.14	465.23	9.3
272.29	475.97	9.52
282.37	488.57	9.77
292.36	498.4	9.97
302.55	510.46	10.21

System: iron(III) diphosphate; phases: Crystal 3
Fixed: Pressure, kPa = 101.325
Property: Molar heat capacity at constant pressure, J/K/mol (Crystal 3); method: relaxation calorimetry - Quantum Design PPMS
Temperature, K	Molar heat capacity at constant pressure, J/K/mol	uncertainty
1	0.081049	0.008635
2	0.2057	0.02126
3	0.42327	0.04358
4	0.80019	0.08221
5	1.4098	0.1446
6	2.3144	0.237
7	3.5588	0.3641
8	5.1273	0.5241
9	6.9516	0.7101
10	9.0059	0.2203
11	11.235	0.273
12	13.558	0.329
13	15.982	0.387
14	18.43	0.445
15	20.842	0.503
16	23.368	0.563
17	26.02	0.627
18	28.754	0.692
19	31.704	0.763
20	34.417	0.828
25	49.877	1.199
27.3	57.273	1.376

System: iron(III) diphosphate; phases: Crystal 3
Fixed: Pressure, kPa = 101.325
Property: Molar entropy, J/K/mol (Crystal 3); method: relaxation calorimetry - Quantum Design PPMS
Temperature, K	Molar entropy, J/K/mol	uncertainty
1	0.075782	0.011736
2	0.16651	0.02556
3	0.28693	0.044
4	0.45563	0.06983
5	0.69472	0.10645
6	1.0269	0.1573
7	1.4723	0.2255
8	2.0469	0.3134
9	2.7537	0.4216
10	3.5907	0.1305
11	4.5525	0.1652
12	5.6291	0.2039
13	6.8093	0.2464
14	8.0837	0.2922
15	9.4373	0.3409
16	10.862	0.392
17	12.358	0.446
18	13.922	0.502
19	15.555	0.561
20	17.25	0.622
25	26.524	0.956

System: iron(III) diphosphate; phases: Crystal 3
Fixed: Pressure, kPa = 101.325
Property: Molar enthalpy, kJ/mol (Crystal 3); method: relaxation calorimetry - Quantum Design PPMS
Temperature, K	Molar enthalpy, kJ/mol	uncertainty
1	3.8689e-05	4.815e-06
2	0.0001766	1.855e-05
3	0.00048083	4.986e-05
4	0.0010762	0.000111
5	0.0021589	0.0002221
6	0.0039944	0.0004102
7	0.0068997	0.0007075
8	0.011221	0.001149
9	0.01724	0.001764
10	0.025201	0.000631
11	0.03531	0.000877
12	0.0477	0.001177
13	0.062462	0.001533
14	0.079673	0.001947
15	0.099306	0.00242
16	0.1214	0.00295
17	0.14608	0.00354
18	0.17346	0.0042
19	0.20367	0.00493
20	0.23672	0.00572
25	0.44595	0.01074

System: iron(III) diphosphate; phases: Crystal 2
Fixed: Pressure, kPa = 101.325
Property: Molar heat capacity at constant pressure, J/K/mol (Crystal 2); method: relaxation calorimetry - Quantum Design PPMS
Temperature, K	Molar heat capacity at constant pressure, J/K/mol	uncertainty
27.3	57.273	1.375
30	62.001	1.489
35	77.843	1.87
40	96.722	2.323
45	120.36	2.89
47.6	139.19	3.34

System: iron(III) diphosphate; phases: Crystal 2
Fixed: Pressure, kPa = 101.325
Property: Molar entropy, J/K/mol (Crystal 2); method: relaxation calorimetry - Quantum Design PPMS
Temperature, K	Molar entropy, J/K/mol	uncertainty
30	36.764	1.324
35	47.463	1.709
40	59.058	2.127
45	71.735	2.583

System: iron(III) diphosphate; phases: Crystal 2
Fixed: Pressure, kPa = 101.325
Property: Molar enthalpy, kJ/mol (Crystal 2); method: relaxation calorimetry - Quantum Design PPMS
Temperature, K	Molar enthalpy, kJ/mol	uncertainty
30	0.72762	0.01752
35	1.0757	0.0259
40	1.5109	0.0363
45	2.0502	0.0493

System: iron(III) diphosphate; phases: Crystal 1
Fixed: Pressure, kPa = 101.325
Property: Molar heat capacity at constant pressure, J/K/mol (Crystal 1); method: relaxation calorimetry - Quantum Design PPMS
Temperature, K	Molar heat capacity at constant pressure, J/K/mol	uncertainty
47.6	139.19	3.36
50	99.09	2.18
55	102.2	2.25
60	111.36	2.45
65	121.89	2.68
70	133.03	2.93
75	144.64	3.18
80	156.55	3.44
85	168.61	3.71
90	180.67	3.98
95	193.23	4.25
100	205.34	4.52
110	227.92	5.01
120	248.76	5.47
130	268.26	5.9
140	286.79	6.31
150	304.56	6.7
160	321.72	7.08
170	338.34	7.44
180	354.45	7.8
190	370.05	8.14
200	385.13	8.47
210	399.67	8.79
220	413.65	9.1
230	427.07	9.4
240	439.91	9.68
250	452.18	9.95
260	463.87	10.21
270	475	10.45
273.15	478.39	10.52
280	485.58	10.68
290	495.63	10.9
298.15	503.44	11.08
300	505.16	11.11

System: iron(III) diphosphate; phases: Crystal 1
Fixed: Pressure, kPa = 101.325
Property: Molar entropy, J/K/mol (Crystal 1); method: relaxation calorimetry - Quantum Design PPMS
Temperature, K	Molar entropy, J/K/mol	uncertainty
50	84.462	2.788
55	93.954	3.101
60	103.22	3.41
65	112.55	3.71
70	121.98	4.03
75	131.56	4.34
80	141.27	4.66
85	151.12	4.99
90	161.1	5.32
95	171.2	5.65
100	181.43	5.99
110	202.07	6.67
120	222.81	7.35
130	243.5	8.04
140	264.06	8.71
150	284.46	9.39
160	304.66	10.05
170	324.67	10.71
180	344.47	11.37
190	364.05	12.01
200	383.42	12.65
210	402.56	13.28
220	421.48	13.91
230	440.17	14.53
240	458.61	15.13
250	476.82	15.74
260	494.79	16.33
270	512.5	16.91
273.15	518.03	17.1
280	529.97	17.49
290	547.19	18.06
298.15	561.03	18.51
300	564.15	18.62

System: iron(III) diphosphate; phases: Crystal 1
Fixed: Pressure, kPa = 101.325
Property: Molar enthalpy, kJ/mol (Crystal 1); method: relaxation calorimetry - Quantum Design PPMS
Temperature, K	Molar enthalpy, kJ/mol	uncertainty
50	2.6528	0.0584
55	3.1509	0.0694
60	3.6835	0.0811
65	4.2664	0.0939
70	4.9035	0.1079
75	5.5976	0.1232
80	6.3504	0.1397
85	7.1633	0.1576
90	8.0365	0.1768
95	8.9712	0.1974
100	9.9679	0.2193
110	12.136	0.267
120	14.521	0.32
130	17.107	0.376
140	19.883	0.437
150	22.84	0.5
160	25.972	0.571
170	29.272	0.644
180	32.737	0.72
190	36.36	0.8
200	40.136	0.883
210	44.06	0.97
220	48.127	1.059
230	52.332	1.151
240	56.667	1.247
250	61.128	1.345
260	65.709	1.446
270	70.403	1.549
273.15	71.905	1.582
280	75.207	1.655
290	80.113	1.763
298.15	84.185	1.852
300	85.118	1.873
