Measured thermophysical data. Viscosities of binary mixtures containing 2-butanol + hydrocarbons (2,2,4-trimethylpentane or 1,2,4-trimethylbenzene) at high pressures for the implementation of second generation biofuels
Source: J. Chem. Thermodyn., 2018, 10.1016/j.jct.2018.05.027
Compound 1: butan-2-ol, C4H10O, InChI=1S/C4H10O/c1-3-4(2)5/h4-5H,3H2,1-2H3, purity 99.5%
Compound 2: 2,2,4-trimethylpentane, C8H18, InChI=1S/C8H18/c1-7(2)6-8(3,4)5/h7H,6H2,1-5H3, purity 99.5%
Compound 3: 1,2,4-trimethylbenzene, C9H12, InChI=1S/C9H12/c1-7-4-5-8(2)9(3)6-7/h4-6H,1-3H3, purity 99.7%

System: butan-2-ol; phases: Liquid
Fixed: Pressure, kPa = 100
Property: Viscosity, Pa*s (Liquid); method: Concentric cylinders viscometry
Temperature, K	Viscosity, Pa*s	uncertainty
293.15	0.0037438	4.11e-05
313.15	0.0018324	2.08e-05
333.15	0.0010111	1.22e-05
353.15	0.0006218	8.3e-06

System: butan-2-ol; phases: Liquid
Property: Viscosity, Pa*s (Liquid); method: Vibrating wire viscometry
Temperature, K	Pressure, kPa	Viscosity, Pa*s	uncertainty
293.15	100	0.0037673	5.98e-05
293.15	1000	0.0038127	6.05e-05
293.15	5000	0.0039784	6.31e-05
293.15	10000	0.0042349	6.71e-05
293.15	20000	0.0046964	7.43e-05
293.15	30000	0.005159	8.2e-05
293.15	40000	0.0056926	8.98e-05
293.15	50000	0.0062739	9.89e-05
293.15	60000	0.0068312	0.0001076
293.15	70000	0.0073767	0.0001162
293.15	80000	0.0080561	0.0001268
293.15	100000	0.0095979	0.0001509
293.15	120000	0.0113141	0.0001778
293.15	140000	0.0133798	0.0002101
298.15	100	0.0031017	4.94e-05
298.15	1000	0.003123	4.97e-05
298.15	5000	0.00328	5.22e-05
298.15	10000	0.0034623	5.5e-05
298.15	20000	0.0038727	6.14e-05
298.15	30000	0.0042525	6.73e-05
298.15	40000	0.0046968	7.43e-05
298.15	50000	0.0051418	8.12e-05
298.15	60000	0.0055527	8.76e-05
298.15	70000	0.0060442	9.53e-05
298.15	80000	0.006544	0.0001031
298.15	100000	0.0076464	0.0001204
298.15	120000	0.0090527	0.0001423
298.15	140000	0.0104292	0.0001639
313.15	100	0.0018391	2.97e-05
313.15	1000	0.0018616	3.01e-05
313.15	5000	0.0019473	3.14e-05
313.15	10000	0.0020407	3.29e-05
313.15	20000	0.0022624	3.63e-05
313.15	30000	0.0025028	4.01e-05
313.15	40000	0.0027339	4.37e-05
313.15	50000	0.0029896	4.76e-05
313.15	60000	0.003237	5.15e-05
313.15	70000	0.0035578	5.65e-05
313.15	80000	0.0038413	6.09e-05
313.15	100000	0.004456	7.05e-05
313.15	120000	0.0051795	8.18e-05
313.15	140000	0.0059325	9.37e-05
333.15	100	0.0010067	1.69e-05
333.15	1000	0.0010229	1.71e-05
333.15	5000	0.0010776	1.8e-05
333.15	10000	0.0011332	1.88e-05
333.15	20000	0.0012538	2.07e-05
333.15	30000	0.0013718	2.25e-05
333.15	40000	0.001491	2.43e-05
333.15	50000	0.0016242	2.64e-05
333.15	60000	0.0017594	2.85e-05
333.15	70000	0.0019051	3.08e-05
333.15	80000	0.0020814	3.35e-05
333.15	100000	0.0024273	3.89e-05
333.15	120000	0.0027156	4.34e-05
333.15	140000	0.0030991	4.94e-05
353.15	100	0.0006198	1.1e-05
353.15	1000	0.0006273	1.11e-05
353.15	5000	0.0006577	1.16e-05
353.15	10000	0.0006999	1.22e-05
353.15	20000	0.0007717	1.33e-05
353.15	30000	0.0008354	1.43e-05
353.15	40000	0.0009088	1.54e-05
353.15	50000	0.0009898	1.66e-05
353.15	60000	0.0010703	1.79e-05
353.15	70000	0.0011512	1.91e-05
353.15	80000	0.0012422	2.05e-05
353.15	100000	0.0014436	2.36e-05
353.15	120000	0.0016442	2.67e-05
353.15	140000	0.0018452	2.98e-05

System: 2,2,4-trimethylpentane + butan-2-ol; phases: Liquid
Property: Viscosity, Pa*s (Liquid); method: Vibrating wire viscometry
Temperature, K	Pressure, kPa	Mole fraction of butan-2-ol	Viscosity, Pa*s	uncertainty
293.15	100	0.2999	0.0006047	1.08e-05
293.15	1000	0.2999	0.000609	1.09e-05
293.15	5000	0.2999	0.0006391	1.13e-05
293.15	10000	0.2999	0.0006863	1.2e-05
293.15	20000	0.2999	0.0007692	1.33e-05
293.15	30000	0.2999	0.0008642	1.47e-05
293.15	40000	0.2999	0.0009608	1.62e-05
293.15	50000	0.2999	0.0010646	1.78e-05
293.15	60000	0.2999	0.0011733	1.94e-05
293.15	70000	0.2999	0.001282	2.11e-05
293.15	80000	0.2999	0.001395	2.29e-05
293.15	100000	0.2999	0.0016604	2.7e-05
293.15	120000	0.2999	0.0019255	3.11e-05
293.15	140000	0.2999	0.0022397	3.6e-05
313.15	100	0.2999	0.0004647	8.8e-06
313.15	1000	0.2999	0.0004677	8.8e-06
313.15	5000	0.2999	0.0004936	9.2e-06
313.15	10000	0.2999	0.0005264	9.7e-06
313.15	20000	0.2999	0.0005924	1.06e-05
313.15	30000	0.2999	0.0006612	1.16e-05
313.15	40000	0.2999	0.0007328	1.27e-05
313.15	50000	0.2999	0.0008134	1.39e-05
313.15	60000	0.2999	0.0008859	1.5e-05
313.15	70000	0.2999	0.0009597	1.62e-05
313.15	80000	0.2999	0.0010395	1.74e-05
313.15	100000	0.2999	0.0012233	2.02e-05
313.15	120000	0.2999	0.0014145	2.32e-05
313.15	140000	0.2999	0.0015977	2.6e-05
333.15	100	0.2999	0.0003574	7.3e-06
333.15	1000	0.2999	0.0003614	7.3e-06
333.15	5000	0.2999	0.0003814	7.6e-06
333.15	10000	0.2999	0.0004083	8e-06
333.15	20000	0.2999	0.0004584	8.7e-06
333.15	30000	0.2999	0.0005124	9.5e-06
333.15	40000	0.2999	0.0005669	1.02e-05
333.15	50000	0.2999	0.0006217	1.11e-05
333.15	60000	0.2999	0.0006795	1.19e-05
333.15	70000	0.2999	0.0007435	1.29e-05
333.15	80000	0.2999	0.0008018	1.38e-05
333.15	100000	0.2999	0.0009315	1.57e-05
333.15	120000	0.2999	0.0010571	1.76e-05
333.15	140000	0.2999	0.0011959	1.98e-05
353.15	100	0.2999	0.0002785	6.2e-06
353.15	1000	0.2999	0.0002825	6.2e-06
353.15	5000	0.2999	0.0002981	6.5e-06
353.15	10000	0.2999	0.0003222	6.8e-06
353.15	20000	0.2999	0.0003642	7.3e-06
353.15	30000	0.2999	0.0004069	7.9e-06
353.15	40000	0.2999	0.0004472	8.5e-06
353.15	50000	0.2999	0.0004904	9.1e-06
353.15	60000	0.2999	0.00054	9.9e-06
353.15	70000	0.2999	0.0005886	1.06e-05
353.15	80000	0.2999	0.0006326	1.12e-05
353.15	100000	0.2999	0.0007318	1.27e-05
353.15	120000	0.2999	0.0008276	1.42e-05
353.15	140000	0.2999	0.0009377	1.58e-05
293.15	100	0.5001	0.0007922	1.36e-05
293.15	1000	0.5001	0.000797	1.37e-05
293.15	5000	0.5001	0.0008463	1.44e-05
293.15	10000	0.5001	0.0008968	1.52e-05
293.15	20000	0.5001	0.0010004	1.68e-05
293.15	30000	0.5001	0.0011313	1.88e-05
293.15	40000	0.5001	0.0012466	2.06e-05
293.15	50000	0.5001	0.0013853	2.27e-05
293.15	60000	0.5001	0.0015412	2.51e-05
293.15	70000	0.5001	0.0017003	2.76e-05
293.15	80000	0.5001	0.0018529	3e-05
293.15	100000	0.5001	0.0021693	3.49e-05
293.15	120000	0.5001	0.0025162	4.03e-05
293.15	140000	0.5001	0.002913	4.66e-05
313.15	100	0.5001	0.0005643	1.02e-05
313.15	1000	0.5001	0.0005722	1.03e-05
313.15	5000	0.5001	0.0006074	1.08e-05
313.15	10000	0.5001	0.0006501	1.15e-05
313.15	20000	0.5001	0.0007349	1.28e-05
313.15	30000	0.5001	0.0008188	1.4e-05
313.15	40000	0.5001	0.0009032	1.53e-05
313.15	50000	0.5001	0.000987	1.66e-05
313.15	60000	0.5001	0.0010816	1.8e-05
313.15	70000	0.5001	0.0011792	1.95e-05
313.15	80000	0.5001	0.0012722	2.1e-05
313.15	100000	0.5001	0.0015092	2.46e-05
313.15	120000	0.5001	0.0017402	2.82e-05
313.15	140000	0.5001	0.0019726	3.18e-05
333.15	100	0.5001	0.0004132	8e-06
333.15	1000	0.5001	0.0004166	8.1e-06
333.15	5000	0.5001	0.0004455	8.5e-06
333.15	10000	0.5001	0.0004682	8.8e-06
333.15	20000	0.5001	0.0005293	9.7e-06
333.15	30000	0.5001	0.0006041	1.08e-05
333.15	40000	0.5001	0.0006689	1.18e-05
333.15	50000	0.5001	0.0007304	1.27e-05
333.15	60000	0.5001	0.0007967	1.37e-05
333.15	70000	0.5001	0.0008604	1.46e-05
333.15	80000	0.5001	0.0009339	1.58e-05
333.15	100000	0.5001	0.0010887	1.81e-05
333.15	120000	0.5001	0.0012357	2.04e-05
333.15	140000	0.5001	0.0014084	2.31e-05
353.15	100	0.5001	0.0003272	6.8e-06
353.15	1000	0.5001	0.000333	6.9e-06
353.15	5000	0.5001	0.000349	7.1e-06
353.15	10000	0.5001	0.000373	7.5e-06
353.15	20000	0.5001	0.0004151	8.1e-06
353.15	30000	0.5001	0.0004619	8.7e-06
353.15	40000	0.5001	0.0005088	9.4e-06
353.15	50000	0.5001	0.0005576	1.01e-05
353.15	60000	0.5001	0.0006147	1.1e-05
353.15	70000	0.5001	0.0006678	1.17e-05
353.15	80000	0.5001	0.0007221	1.26e-05
353.15	100000	0.5001	0.0008402	1.43e-05
353.15	120000	0.5001	0.0009461	1.6e-05
353.15	140000	0.5001	0.0010695	1.78e-05
293.15	100	0.7996	0.0016731	2.72e-05
293.15	1000	0.7996	0.0017069	2.77e-05
293.15	5000	0.7996	0.0017935	2.91e-05
293.15	10000	0.7996	0.0019134	3.09e-05
293.15	20000	0.7996	0.0021396	3.44e-05
293.15	30000	0.7996	0.0023946	3.84e-05
293.15	40000	0.7996	0.0026831	4.29e-05
293.15	50000	0.7996	0.0029933	4.77e-05
293.15	60000	0.7996	0.0032757	5.21e-05
293.15	70000	0.7996	0.0036451	5.79e-05
293.15	80000	0.7996	0.0039393	6.25e-05
293.15	100000	0.7996	0.0047016	7.44e-05
293.15	120000	0.7996	0.0054449	8.6e-05
293.15	140000	0.7996	0.006323	0.0001001
313.15	100	0.7996	0.0009784	1.65e-05
313.15	1000	0.7996	0.0009858	1.66e-05
313.15	5000	0.7996	0.0010427	1.74e-05
313.15	10000	0.7996	0.00111	1.85e-05
313.15	20000	0.7996	0.0012529	2.07e-05
313.15	30000	0.7996	0.0014003	2.29e-05
313.15	40000	0.7996	0.0015595	2.54e-05
313.15	50000	0.7996	0.001707	2.77e-05
313.15	60000	0.7996	0.0018686	3.02e-05
313.15	70000	0.7996	0.0020486	3.3e-05
313.15	80000	0.7996	0.0022302	3.58e-05
313.15	100000	0.7996	0.0026208	4.19e-05
313.15	120000	0.7996	0.0030515	4.86e-05
313.15	140000	0.7996	0.0035518	5.65e-05
333.15	100	0.7996	0.0006203	1.1e-05
333.15	1000	0.7996	0.000631	1.12e-05
333.15	5000	0.7996	0.0006669	1.17e-05
333.15	10000	0.7996	0.0007064	1.23e-05
333.15	20000	0.7996	0.0007854	1.35e-05
333.15	30000	0.7996	0.0008701	1.48e-05
333.15	40000	0.7996	0.0009706	1.63e-05
333.15	50000	0.7996	0.00107	1.79e-05
333.15	60000	0.7996	0.0011718	1.94e-05
333.15	70000	0.7996	0.0012708	2.09e-05
333.15	80000	0.7996	0.0013873	2.27e-05
333.15	100000	0.7996	0.0016133	2.62e-05
333.15	120000	0.7996	0.0018311	2.96e-05
333.15	140000	0.7996	0.0020826	3.36e-05
353.15	100	0.7996	0.0004165	8.1e-06
353.15	1000	0.7996	0.0004213	8.1e-06
353.15	5000	0.7996	0.0004405	8.4e-06
353.15	10000	0.7996	0.0004671	8.8e-06
353.15	20000	0.7996	0.0005216	9.6e-06
353.15	30000	0.7996	0.0005729	1.03e-05
353.15	40000	0.7996	0.0006309	1.12e-05
353.15	50000	0.7996	0.0006907	1.21e-05
353.15	60000	0.7996	0.0007546	1.31e-05
353.15	70000	0.7996	0.0008214	1.41e-05
353.15	80000	0.7996	0.0008973	1.52e-05
353.15	100000	0.7996	0.0010463	1.75e-05
353.15	120000	0.7996	0.0012057	1.99e-05
353.15	140000	0.7996	0.0013667	2.24e-05
293.15	100	1	0.0037673	5.98e-05
293.15	1000	1	0.0038127	6.05e-05
293.15	5000	1	0.0039784	6.31e-05
293.15	10000	1	0.0042349	6.71e-05
293.15	20000	1	0.0046964	7.43e-05
293.15	30000	1	0.005159	8.2e-05
293.15	40000	1	0.0056926	8.98e-05
293.15	50000	1	0.0062739	9.89e-05
293.15	60000	1	0.0068312	0.0001076
293.15	70000	1	0.0073767	0.0001162
293.15	80000	1	0.0080561	0.0001268
293.15	100000	1	0.0095979	0.0001509
293.15	120000	1	0.0113141	0.0001778
293.15	140000	1	0.0133798	0.0002101
298.15	100	1	0.0031017	4.94e-05
298.15	1000	1	0.003123	4.97e-05
298.15	5000	1	0.00328	5.22e-05
298.15	10000	1	0.0034623	5.5e-05
298.15	20000	1	0.0038727	6.14e-05
298.15	30000	1	0.0042525	6.73e-05
298.15	40000	1	0.0046968	7.43e-05
298.15	50000	1	0.0051418	8.12e-05
298.15	60000	1	0.0055527	8.76e-05
298.15	70000	1	0.0060442	9.53e-05
298.15	80000	1	0.006544	0.0001031
298.15	100000	1	0.0076464	0.0001204
298.15	120000	1	0.0090527	0.0001423
298.15	140000	1	0.0104292	0.0001639
313.15	100	1	0.0018391	2.97e-05
313.15	1000	1	0.0018616	3.01e-05
313.15	5000	1	0.0019473	3.14e-05
313.15	10000	1	0.0020407	3.29e-05
313.15	20000	1	0.0022624	3.63e-05
313.15	30000	1	0.0025028	4.01e-05
313.15	40000	1	0.0027339	4.37e-05
313.15	50000	1	0.0029896	4.76e-05
313.15	60000	1	0.003237	5.15e-05
313.15	70000	1	0.0035578	5.65e-05
313.15	80000	1	0.0038413	6.09e-05
313.15	100000	1	0.004456	7.05e-05
313.15	120000	1	0.0051795	8.18e-05
313.15	140000	1	0.0059325	9.37e-05
333.15	100	1	0.0010067	1.69e-05
333.15	1000	1	0.0010229	1.71e-05
333.15	5000	1	0.0010776	1.8e-05
333.15	10000	1	0.0011332	1.88e-05
333.15	20000	1	0.0012538	2.07e-05
333.15	30000	1	0.0013718	2.25e-05
333.15	40000	1	0.001491	2.43e-05
333.15	50000	1	0.0016242	2.64e-05
333.15	60000	1	0.0017594	2.85e-05
333.15	70000	1	0.0019051	3.08e-05
333.15	80000	1	0.0020814	3.35e-05
333.15	100000	1	0.0024273	3.89e-05
333.15	120000	1	0.0027156	4.34e-05
333.15	140000	1	0.0030991	4.94e-05
353.15	100	1	0.0006198	1.1e-05
353.15	1000	1	0.0006273	1.11e-05
353.15	5000	1	0.0006577	1.16e-05
353.15	10000	1	0.0006999	1.22e-05
353.15	20000	1	0.0007717	1.33e-05
353.15	30000	1	0.0008354	1.43e-05
353.15	40000	1	0.0009088	1.54e-05
353.15	50000	1	0.0009898	1.66e-05
353.15	60000	1	0.0010703	1.79e-05
353.15	70000	1	0.0011512	1.91e-05
353.15	80000	1	0.0012422	2.05e-05
353.15	100000	1	0.0014436	2.36e-05
353.15	120000	1	0.0016442	2.67e-05
353.15	140000	1	0.0018452	2.98e-05

System: 1,2,4-trimethylbenzene + butan-2-ol; phases: Liquid
Property: Viscosity, Pa*s (Liquid); method: Vibrating wire viscometry
Temperature, K	Pressure, kPa	Mole fraction of butan-2-ol	Viscosity, Pa*s	uncertainty
293.15	100	0.3011	0.0009506	1.59e-05
293.15	1000	0.3011	0.0009531	1.6e-05
293.15	5000	0.3011	0.0009988	1.67e-05
293.15	10000	0.3011	0.0010508	1.75e-05
293.15	20000	0.3011	0.0011371	1.88e-05
293.15	30000	0.3011	0.0012385	2.03e-05
293.15	40000	0.3011	0.0013337	2.18e-05
293.15	50000	0.3011	0.0014518	2.36e-05
293.15	60000	0.3011	0.0015704	2.54e-05
293.15	70000	0.3011	0.0017019	2.74e-05
293.15	80000	0.3011	0.0018507	2.97e-05
293.15	100000	0.3011	0.0021515	3.44e-05
293.15	120000	0.3011	0.0024698	3.93e-05
293.15	140000	0.3011	0.0028377	4.5e-05
313.15	100	0.3011	0.000708	1.23e-05
313.15	1000	0.3011	0.0007098	1.23e-05
313.15	5000	0.3011	0.0007427	1.28e-05
313.15	10000	0.3011	0.0007727	1.33e-05
313.15	20000	0.3011	0.0008356	1.42e-05
313.15	30000	0.3011	0.0009034	1.52e-05
313.15	40000	0.3011	0.0009814	1.64e-05
313.15	50000	0.3011	0.0010552	1.75e-05
313.15	60000	0.3011	0.0011316	1.87e-05
313.15	70000	0.3011	0.0012245	2.01e-05
313.15	80000	0.3011	0.0013031	2.13e-05
313.15	100000	0.3011	0.0014908	2.42e-05
313.15	120000	0.3011	0.0016671	2.69e-05
313.15	140000	0.3011	0.0019037	3.06e-05
333.15	100	0.3011	0.000539	9.8e-06
333.15	1000	0.3011	0.0005411	9.8e-06
333.15	5000	0.3011	0.000571	1.03e-05
333.15	10000	0.3011	0.0005928	1.06e-05
333.15	20000	0.3011	0.000634	1.12e-05
333.15	30000	0.3011	0.0006817	1.19e-05
333.15	40000	0.3011	0.0007313	1.26e-05
333.15	50000	0.3011	0.000784	1.34e-05
333.15	60000	0.3011	0.0008388	1.42e-05
333.15	70000	0.3011	0.0008962	1.51e-05
333.15	80000	0.3011	0.0009559	1.6e-05
333.15	100000	0.3011	0.0010885	1.8e-05
333.15	120000	0.3011	0.0012384	2.03e-05
333.15	140000	0.3011	0.0013855	2.26e-05
353.15	100	0.3011	0.00043	8.2e-06
353.15	1000	0.3011	0.000436	8.3e-06
353.15	5000	0.3011	0.0004507	8.5e-06
353.15	10000	0.3011	0.0004678	8.8e-06
353.15	20000	0.3011	0.0004988	9.2e-06
353.15	30000	0.3011	0.0005358	9.7e-06
353.15	40000	0.3011	0.00057	1.02e-05
353.15	50000	0.3011	0.000605	1.08e-05
353.15	60000	0.3011	0.000645	1.14e-05
353.15	70000	0.3011	0.0006863	1.2e-05
353.15	80000	0.3011	0.0007294	1.26e-05
353.15	100000	0.3011	0.000821	1.4e-05
353.15	120000	0.3011	0.0009204	1.55e-05
353.15	140000	0.3011	0.0010382	1.73e-05
293.15	100	0.5001	0.0011083	1.84e-05
293.15	1000	0.5001	0.0011168	1.85e-05
293.15	5000	0.5001	0.0011729	1.93e-05
293.15	10000	0.5001	0.0012352	2.03e-05
293.15	20000	0.5001	0.0013291	2.17e-05
293.15	30000	0.5001	0.0014624	2.38e-05
293.15	40000	0.5001	0.0015914	2.58e-05
293.15	50000	0.5001	0.001739	2.81e-05
293.15	60000	0.5001	0.0019063	3.06e-05
293.15	70000	0.5001	0.0020606	3.3e-05
293.15	80000	0.5001	0.0022572	3.61e-05
293.15	100000	0.5001	0.0026197	4.17e-05
293.15	120000	0.5001	0.0030326	4.81e-05
293.15	140000	0.5001	0.0034926	5.53e-05
313.15	100	0.5001	0.0007802	1.34e-05
313.15	1000	0.5001	0.0007964	1.36e-05
313.15	5000	0.5001	0.0008335	1.42e-05
313.15	10000	0.5001	0.0008676	1.47e-05
313.15	20000	0.5001	0.0009318	1.57e-05
313.15	30000	0.5001	0.001031	1.72e-05
313.15	40000	0.5001	0.0011078	1.84e-05
313.15	50000	0.5001	0.0012042	1.98e-05
313.15	60000	0.5001	0.0013004	2.13e-05
313.15	70000	0.5001	0.0013944	2.27e-05
313.15	80000	0.5001	0.001502	2.44e-05
313.15	100000	0.5001	0.0017164	2.77e-05
313.15	120000	0.5001	0.0019364	3.11e-05
313.15	140000	0.5001	0.0021924	3.51e-05
333.15	100	0.5001	0.0005777	1.04e-05
333.15	1000	0.5001	0.0005881	1.05e-05
333.15	5000	0.5001	0.0006122	1.09e-05
333.15	10000	0.5001	0.0006383	1.13e-05
333.15	20000	0.5001	0.0006899	1.2e-05
333.15	30000	0.5001	0.000739	1.28e-05
333.15	40000	0.5001	0.0007961	1.36e-05
333.15	50000	0.5001	0.0008558	1.45e-05
333.15	60000	0.5001	0.0009176	1.55e-05
333.15	70000	0.5001	0.0009822	1.64e-05
333.15	80000	0.5001	0.0010463	1.74e-05
333.15	100000	0.5001	0.0011958	1.97e-05
333.15	120000	0.5001	0.001366	2.23e-05
333.15	140000	0.5001	0.0015275	2.48e-05
353.15	100	0.5001	0.0004439	8.4e-06
353.15	1000	0.5001	0.0004481	8.5e-06
353.15	5000	0.5001	0.000467	8.8e-06
353.15	10000	0.5001	0.0004891	9.1e-06
353.15	20000	0.5001	0.0005215	9.6e-06
353.15	30000	0.5001	0.0005615	1.01e-05
353.15	40000	0.5001	0.0005952	1.06e-05
353.15	50000	0.5001	0.0006372	1.12e-05
353.15	60000	0.5001	0.0006813	1.19e-05
353.15	70000	0.5001	0.000726	1.26e-05
353.15	80000	0.5001	0.0007743	1.33e-05
353.15	100000	0.5001	0.000871	1.48e-05
353.15	120000	0.5001	0.0009782	1.64e-05
353.15	140000	0.5001	0.0010926	1.81e-05
293.15	100	0.7999	0.0018337	2.96e-05
293.15	1000	0.7999	0.0018627	3.01e-05
293.15	5000	0.7999	0.0019641	3.16e-05
293.15	10000	0.7999	0.0020992	3.37e-05
293.15	20000	0.7999	0.0023259	3.73e-05
293.15	30000	0.7999	0.0026114	4.17e-05
293.15	40000	0.7999	0.0028969	4.61e-05
293.15	50000	0.7999	0.003229	5.13e-05
293.15	60000	0.7999	0.003561	5.65e-05
293.15	70000	0.7999	0.0039173	6.2e-05
293.15	80000	0.7999	0.0042736	6.76e-05
293.15	100000	0.7999	0.0050903	8.03e-05
293.15	120000	0.7999	0.0061165	9.63e-05
293.15	140000	0.7999	0.0071427	0.0001125
313.15	100	0.7999	0.001097	1.82e-05
313.15	1000	0.7999	0.0011307	1.88e-05
313.15	5000	0.7999	0.0011872	1.96e-05
313.15	10000	0.7999	0.0012444	2.05e-05
313.15	20000	0.7999	0.0013632	2.23e-05
313.15	30000	0.7999	0.0015147	2.47e-05
313.15	40000	0.7999	0.0016663	2.7e-05
313.15	50000	0.7999	0.0018355	2.96e-05
313.15	60000	0.7999	0.0020046	3.23e-05
313.15	70000	0.7999	0.0021865	3.51e-05
313.15	80000	0.7999	0.0023683	3.79e-05
313.15	100000	0.7999	0.0027407	4.37e-05
313.15	120000	0.7999	0.0032186	5.11e-05
313.15	140000	0.7999	0.0036927	5.86e-05
333.15	100	0.7999	0.0007185	1.25e-05
333.15	1000	0.7999	0.0007301	1.27e-05
333.15	5000	0.7999	0.0007583	1.31e-05
333.15	10000	0.7999	0.0007963	1.37e-05
333.15	20000	0.7999	0.0008656	1.47e-05
333.15	30000	0.7999	0.0009569	1.61e-05
333.15	40000	0.7999	0.0010394	1.74e-05
333.15	50000	0.7999	0.0011304	1.87e-05
333.15	60000	0.7999	0.0012189	2.01e-05
333.15	70000	0.7999	0.0013205	2.17e-05
333.15	80000	0.7999	0.0014237	2.33e-05
333.15	100000	0.7999	0.001653	2.68e-05
333.15	120000	0.7999	0.0018984	3.06e-05
333.15	140000	0.7999	0.0021444	3.44e-05
353.15	100	0.7999	0.0004963	9.2e-06
353.15	1000	0.7999	0.0005	9.3e-06
353.15	5000	0.7999	0.0005157	9.5e-06
353.15	10000	0.7999	0.0005386	9.8e-06
353.15	20000	0.7999	0.000584	1.05e-05
353.15	30000	0.7999	0.0006316	1.12e-05
353.15	40000	0.7999	0.0006809	1.19e-05
353.15	50000	0.7999	0.0007349	1.27e-05
353.15	60000	0.7999	0.0007906	1.36e-05
353.15	70000	0.7999	0.000849	1.45e-05
353.15	80000	0.7999	0.0009092	1.54e-05
353.15	100000	0.7999	0.0010399	1.74e-05
353.15	120000	0.7999	0.0011748	1.94e-05
353.15	140000	0.7999	0.0013394	2.2e-05
293.15	100	1	0.0037673	5.98e-05
293.15	1000	1	0.0038127	6.05e-05
293.15	5000	1	0.0039784	6.31e-05
293.15	10000	1	0.0042349	6.71e-05
293.15	20000	1	0.0046964	7.43e-05
293.15	30000	1	0.005159	8.2e-05
293.15	40000	1	0.0056926	8.98e-05
293.15	50000	1	0.0062739	9.89e-05
293.15	60000	1	0.0068312	0.0001076
293.15	70000	1	0.0073767	0.0001162
293.15	80000	1	0.0080561	0.0001268
293.15	100000	1	0.0095979	0.0001509
293.15	120000	1	0.0113141	0.0001778
293.15	140000	1	0.0133798	0.0002101
298.15	100	1	0.0031017	4.94e-05
298.15	1000	1	0.003123	4.97e-05
298.15	5000	1	0.00328	5.22e-05
298.15	10000	1	0.0034623	5.5e-05
298.15	20000	1	0.0038727	6.14e-05
298.15	30000	1	0.0042525	6.73e-05
298.15	40000	1	0.0046968	7.43e-05
298.15	50000	1	0.0051418	8.12e-05
298.15	60000	1	0.0055527	8.76e-05
298.15	70000	1	0.0060442	9.53e-05
298.15	80000	1	0.006544	0.0001031
298.15	100000	1	0.0076464	0.0001204
298.15	120000	1	0.0090527	0.0001423
298.15	140000	1	0.0104292	0.0001639
313.15	100	1	0.0018391	2.97e-05
313.15	1000	1	0.0018616	3.01e-05
313.15	5000	1	0.0019473	3.14e-05
313.15	10000	1	0.0020407	3.29e-05
313.15	20000	1	0.0022624	3.63e-05
313.15	30000	1	0.0025028	4.01e-05
313.15	40000	1	0.0027339	4.37e-05
313.15	50000	1	0.0029896	4.76e-05
313.15	60000	1	0.003237	5.15e-05
313.15	70000	1	0.0035578	5.65e-05
313.15	80000	1	0.0038413	6.09e-05
313.15	100000	1	0.004456	7.05e-05
313.15	120000	1	0.0051795	8.18e-05
313.15	140000	1	0.0059325	9.37e-05
333.15	100	1	0.0010067	1.69e-05
333.15	1000	1	0.0010229	1.71e-05
333.15	5000	1	0.0010776	1.8e-05
333.15	10000	1	0.0011332	1.88e-05
333.15	20000	1	0.0012538	2.07e-05
333.15	30000	1	0.0013718	2.25e-05
333.15	40000	1	0.001491	2.43e-05
333.15	50000	1	0.0016242	2.64e-05
333.15	60000	1	0.0017594	2.85e-05
333.15	70000	1	0.0019051	3.08e-05
333.15	80000	1	0.0020814	3.35e-05
333.15	100000	1	0.0024273	3.89e-05
333.15	120000	1	0.0027156	4.34e-05
333.15	140000	1	0.0030991	4.94e-05
353.15	100	1	0.0006198	1.1e-05
353.15	1000	1	0.0006273	1.11e-05
353.15	5000	1	0.0006577	1.16e-05
353.15	10000	1	0.0006999	1.22e-05
353.15	20000	1	0.0007717	1.33e-05
353.15	30000	1	0.0008354	1.43e-05
353.15	40000	1	0.0009088	1.54e-05
353.15	50000	1	0.0009898	1.66e-05
353.15	60000	1	0.0010703	1.79e-05
353.15	70000	1	0.0011512	1.91e-05
353.15	80000	1	0.0012422	2.05e-05
353.15	100000	1	0.0014436	2.36e-05
353.15	120000	1	0.0016442	2.67e-05
353.15	140000	1	0.0018452	2.98e-05
