Measured thermophysical data. Stable (solid + liquid) phase equilibrium for the ternary system (NaCl + RbCl + H2O) at T = (288.15, 298.15 and 308.15) K
Source: J. Chem. Thermodyn., 2017, 10.1016/j.jct.2016.12.007
Compound 1: water, H2O, InChI=1S/H2O/h1H2, purity 99.9%
Compound 2: sodium chloride, ClNa, InChI=1S/ClH.Na/h1H;/q;+1/p-1, purity 99.5%
Compound 3: rubidium chloride, ClRb, InChI=1S/ClH.Rb/h1H;/q;+1/p-1, purity 99.5%

System: sodium chloride + water + rubidium chloride; phases: Liquid
Fixed: Pressure, kPa = 101.3
Property: Mass density, kg/m3 (Liquid); method: Vibrating tube method
Temperature, K	Mass fraction of rubidium chloride	Mass fraction of sodium chloride	Mass density, kg/m3	uncertainty
288.15	0	0.2622	1201	4.2
288.15	0.0311	0.2502	1221.5	4.4
288.15	0.0554	0.24	1239.5	4.4
288.15	0.0872	0.227	1258.5	4.4
288.15	0.1129	0.2162	1276	4.4
288.15	0.1354	0.207	1294.1	4.4
288.15	0.1702	0.1925	1319.5	4.4
288.15	0.1945	0.1843	1337.4	4.4
288.15	0.2283	0.1701	1366.6	4.4
288.15	0.246	0.1646	1380.8	4.5
288.15	0.2724	0.1533	1408.1	4.5
288.15	0.306	0.1402	1433.1	4.5
288.15	0.3554	0.1007	1441.5	4.5
288.15	0.3802	0.0765	1450.3	4.5
288.15	0.4068	0.0509	1460.6	4.5
288.15	0.4374	0.0259	1471.1	4.5
288.15	0.4695	0	1480.4	4.3
298.15	0	0.2625	1197.8	4.2
298.15	0.032	0.2492	1217.6	4.4
298.15	0.0601	0.2377	1235.2	4.4
298.15	0.0881	0.2257	1254.2	4.4
298.15	0.1151	0.2145	1271.9	4.4
298.15	0.1408	0.2031	1289	4.4
298.15	0.1707	0.193	1313.7	4.4
298.15	0.2091	0.1771	1340.5	4.4
298.15	0.2342	0.1672	1356.5	4.4
298.15	0.2571	0.1583	1376.5	4.5
298.15	0.2906	0.1437	1402.1	4.5
298.15	0.3287	0.1307	1435.7	4.5
298.15	0.3431	0.1243	1447.1	4.5
298.15	0.3716	0.0963	1460.4	4.5
298.15	0.4195	0.0552	1474.2	4.5
298.15	0.4603	0.0199	1491.4	4.5
298.15	0.4841	0	1500.3	4.3
308.15	0	0.2666	1193.6	4.2
308.15	0.031	0.2514	1212.7	4.4
308.15	0.0608	0.2385	1231.4	4.4
308.15	0.0879	0.2275	1249.9	4.4
308.15	0.1155	0.2159	1267	4.4
308.15	0.1419	0.2054	1286	4.4
308.15	0.1768	0.1908	1310.2	4.4
308.15	0.2026	0.18	1326.5	4.4
308.15	0.2343	0.169	1352.6	4.4
308.15	0.2666	0.1566	1377.1	4.5
308.15	0.2974	0.1434	1400	4.5
308.15	0.3242	0.1332	1432.3	4.5
308.15	0.3574	0.1216	1459.1	4.5
308.15	0.3707	0.1165	1471.7	4.5
308.15	0.3914	0.0966	1477.9	4.5
308.15	0.4207	0.0707	1486.6	4.5
308.15	0.4467	0.0462	1497.8	4.5
308.15	0.4733	0.0223	1509.6	4.5
308.15	0.5041	0	1517.5	4.3

System: sodium chloride + water + rubidium chloride; phases: Liquid, Crystal
Fixed: Pressure, kPa = 101.3
Property: Mass fraction of sodium chloride (Liquid); method: Gravimetric method
Temperature, K	Mass fraction of rubidium chloride	Mass fraction of sodium chloride	uncertainty
288.15	0	0.2622	0.01
288.15	0.0311	0.2502	0.0108
288.15	0.0554	0.24	0.0108
288.15	0.0872	0.227	0.0108
288.15	0.1129	0.2162	0.0108
288.15	0.1354	0.207	0.0108
288.15	0.1702	0.1925	0.0107
288.15	0.1945	0.1843	0.0107
288.15	0.2283	0.1701	0.0107
288.15	0.246	0.1646	0.0107
288.15	0.2724	0.1533	0.0108
288.15	0.306	0.1402	0.0107
298.15	0	0.2625	0.01
298.15	0.032	0.2492	0.0108
298.15	0.0601	0.2377	0.0109
298.15	0.0881	0.2257	0.0109
298.15	0.1151	0.2145	0.0109
298.15	0.1408	0.2031	0.0107
298.15	0.1707	0.193	0.0107
298.15	0.2091	0.1771	0.0108
298.15	0.2342	0.1672	0.0108
298.15	0.2571	0.1583	0.0109
298.15	0.2906	0.1437	0.0107
298.15	0.3287	0.1307	0.0107
298.15	0.3431	0.1243	0.0109
308.15	0	0.2666	0.01
308.15	0.031	0.2514	0.011
308.15	0.0608	0.2385	0.0109
308.15	0.0879	0.2275	0.0108
308.15	0.1155	0.2159	0.0108
308.15	0.1419	0.2054	0.0108
308.15	0.1768	0.1908	0.0108
308.15	0.2026	0.18	0.0107
308.15	0.2343	0.169	0.0107
308.15	0.2666	0.1566	0.0108
308.15	0.2974	0.1434	0.0108
308.15	0.3242	0.1332	0.0106
308.15	0.3574	0.1216	0.0106
308.15	0.3707	0.1165	0.0107

System: sodium chloride + water + rubidium chloride; phases: Liquid, Crystal
Fixed: Pressure, kPa = 101.3
Property: Mass fraction of rubidium chloride (Liquid); method: Gravimetric method
Temperature, K	Mass fraction of sodium chloride	Mass fraction of rubidium chloride	uncertainty
288.15	0.1402	0.306	0.016
288.15	0.1007	0.3554	0.0154
288.15	0.0765	0.3802	0.0144
288.15	0.0509	0.4068	0.0151
288.15	0.0259	0.4374	0.0159
288.15	0	0.4695	0.0101
298.15	0.1243	0.3431	0.0143
298.15	0.0963	0.3716	0.0149
298.15	0.0552	0.4195	0.0153
298.15	0.0199	0.4603	0.0154
298.15	0	0.4841	0.0101
308.15	0.1165	0.3707	0.0145
308.15	0.0966	0.3914	0.0148
308.15	0.0707	0.4207	0.0149
308.15	0.0462	0.4467	0.0148
308.15	0.0223	0.4733	0.016
308.15	0	0.5041	0.0101

System: sodium chloride + water + rubidium chloride; phases: Liquid
Fixed: Pressure, kPa = 101.3
Property: Refractive index (Na D-line) (Liquid); method: Standard Abbe refractometry
Temperature, K	Mass fraction of rubidium chloride	Mass fraction of sodium chloride	Refractive index (Na D-line)	uncertainty
288.15	0	0.2622	1.3811	0.0005
288.15	0.0311	0.2502	1.3823	0.0005
288.15	0.0554	0.24	1.383	0.0005
288.15	0.0872	0.227	1.3848	0.0005
288.15	0.1129	0.2162	1.3859	0.0005
288.15	0.1354	0.207	1.3871	0.0005
288.15	0.1702	0.1925	1.3887	0.0005
288.15	0.1945	0.1843	1.39	0.0005
288.15	0.2283	0.1701	1.3919	0.0005
288.15	0.246	0.1646	1.3929	0.0005
288.15	0.2724	0.1533	1.3946	0.0005
288.15	0.306	0.1402	1.3963	0.0005
288.15	0.3554	0.1007	1.3938	0.0005
288.15	0.3802	0.0765	1.3922	0.0005
288.15	0.4068	0.0509	1.3904	0.0005
288.15	0.4374	0.0259	1.3889	0.0005
288.15	0.4695	0	1.3874	0.0005
298.15	0	0.2625	1.3795	0.0005
298.15	0.032	0.2492	1.3808	0.0005
298.15	0.0601	0.2377	1.3819	0.0005
298.15	0.0881	0.2257	1.3832	0.0005
298.15	0.1151	0.2145	1.3842	0.0005
298.15	0.1408	0.2031	1.3853	0.0005
298.15	0.1707	0.193	1.3872	0.0005
298.15	0.2091	0.1771	1.3888	0.0005
298.15	0.2342	0.1672	1.39	0.0005
298.15	0.2571	0.1583	1.3914	0.0005
298.15	0.2906	0.1437	1.3932	0.0005
298.15	0.3287	0.1307	1.3956	0.0005
298.15	0.3431	0.1243	1.3966	0.0005
298.15	0.3716	0.0963	1.3949	0.0005
298.15	0.4195	0.0552	1.3921	0.0005
298.15	0.4603	0.0199	1.39	0.0005
298.15	0.4841	0	1.3883	0.0005
308.15	0	0.2666	1.3781	0.0005
308.15	0.031	0.2514	1.3794	0.0005
308.15	0.0608	0.2385	1.3806	0.0005
308.15	0.0879	0.2275	1.3818	0.0005
308.15	0.1155	0.2159	1.3829	0.0005
308.15	0.1419	0.2054	1.3841	0.0005
308.15	0.1768	0.1908	1.3857	0.0005
308.15	0.2026	0.18	1.3868	0.0005
308.15	0.2343	0.169	1.3886	0.0005
308.15	0.2666	0.1566	1.3903	0.0005
308.15	0.2974	0.1434	1.3919	0.0005
308.15	0.3242	0.1332	1.3938	0.0005
308.15	0.3574	0.1216	1.3961	0.0005
308.15	0.3707	0.1165	1.3969	0.0005
308.15	0.3914	0.0966	1.3956	0.0005
308.15	0.4207	0.0707	1.3939	0.0005
308.15	0.4467	0.0462	1.3922	0.0005
308.15	0.4733	0.0223	1.391	0.0005
308.15	0.5041	0	1.3894	0.0005

System: sodium chloride + water + rubidium chloride; phases: Liquid, Crystal, Crystal
Fixed: Pressure, kPa = 101.3
Property: Mass fraction of rubidium chloride (Liquid); method: Gravimetric method
Temperature, K	Mass fraction of rubidium chloride	uncertainty
288.15	0.306	0.01
298.15	0.3431	0.01
308.15	0.3707	0.01

System: sodium chloride + water + rubidium chloride; phases: Liquid, Crystal, Crystal
Fixed: Pressure, kPa = 101.3
Property: Mass fraction of sodium chloride (Liquid); method: Gravimetric method
Temperature, K	Mass fraction of sodium chloride	uncertainty
288.15	0.1402	0.01
298.15	0.1243	0.01
308.15	0.1165	0.01

System: sodium chloride + water; phases: Liquid
Fixed: Pressure, kPa = 101.3
Property: Mass density, kg/m3 (Liquid); method: Vibrating tube method
Temperature, K	Mass fraction of sodium chloride	Mass density, kg/m3	uncertainty
288.15	0.2622	1201	4.2
298.15	0.2625	1197.8	4.2
308.15	0.2666	1193.6	4.2

System: sodium chloride + water; phases: Liquid, Crystal
Fixed: Pressure, kPa = 101.3
Property: Mass fraction of sodium chloride (Liquid); method: Gravimetric method
Temperature, K	Mass fraction of sodium chloride	uncertainty
288.15	0.2622	0.01
298.15	0.2625	0.01
308.15	0.2666	0.01

System: sodium chloride + water; phases: Liquid
Fixed: Pressure, kPa = 101.3
Property: Refractive index (Na D-line) (Liquid); method: Standard Abbe refractometry
Temperature, K	Mass fraction of sodium chloride	Refractive index (Na D-line)	uncertainty
288.15	0.2622	1.3811	0.0005
298.15	0.2625	1.3795	0.0005
308.15	0.2666	1.3781	0.0005

System: water + rubidium chloride; phases: Liquid
Fixed: Pressure, kPa = 101.3
Property: Mass density, kg/m3 (Liquid); method: Vibrating tube method
Temperature, K	Mass fraction of rubidium chloride	Mass density, kg/m3	uncertainty
288.15	0.4695	1480.4	4.3
298.15	0.4841	1500.3	4.3
308.15	0.5041	1517.5	4.3

System: water + rubidium chloride; phases: Liquid, Crystal
Fixed: Pressure, kPa = 101.3
Property: Mass fraction of rubidium chloride (Liquid); method: Gravimetric method
Temperature, K	Mass fraction of rubidium chloride	uncertainty
288.15	0.4695	0.0101
298.15	0.4841	0.0101
308.15	0.5041	0.0101

System: water + rubidium chloride; phases: Liquid
Fixed: Pressure, kPa = 101.3
Property: Refractive index (Na D-line) (Liquid); method: Standard Abbe refractometry
Temperature, K	Mass fraction of rubidium chloride	Refractive index (Na D-line)	uncertainty
288.15	0.4695	1.3874	0.0005
298.15	0.4841	1.3883	0.0005
308.15	0.5041	1.3894	0.0005
