Measured thermophysical data. Density and viscosity of 1-butyl-3-methylimidazolium nitrate with ethanol, 1-propanol, or 1-butanol at several temperatures
Source: J. Chem. Thermodyn., 2009, 10.1016/j.jct.2009.06.023
Compound 1: ethanol, C2H6O, InChI=1S/C2H6O/c1-2-3/h3H,2H2,1H3, purity 99.8%
Compound 2: propan-1-ol, C3H8O, InChI=1S/C3H8O/c1-2-3-4/h4H,2-3H2,1H3, purity 99.5%
Compound 3: butan-1-ol, C4H10O, InChI=1S/C4H10O/c1-2-3-4-5/h5H,2-4H2,1H3, purity 99%
Compound 4: 1-butyl-3-methylimidazolium nitrate, C8H15N3O3, InChI=1S/C8H15N2.NO3/c1-3-4-5-10-7-6-9(2)8-10;2-1(3)4/h6-8H,3-5H2,1-2H3;/q+1;-1, purity 98%

System: ethanol; phases: Liquid
Fixed: Pressure, kPa = 101.325
Property: Viscosity, Pa*s (Liquid); method: Falling or rolling sphere viscometry
Temperature, K	Viscosity, Pa*s	uncertainty
283.15	0.0014179	1.54e-05
288.15	0.0012811	1.39e-05
293.15	0.0011617	1.26e-05
298.15	0.0010569	1.14e-05
303.15	0.0009645	1.04e-05
308.15	0.0008827	9.5e-06
313.15	0.00081	8.7e-06
318.15	0.0007451	8e-06
323.15	0.0006868	7.3e-06
328.15	0.0006344	6.8e-06
333.15	0.0005872	6.3e-06

System: ethanol; phases: Liquid
Fixed: Pressure, kPa = 101.325
Property: Mass density, kg/m3 (Liquid); method: Vibrating tube method
Temperature, K	Mass density, kg/m3	uncertainty
283.15	797.6	0.2
288.15	793.3	0.2
293.15	789	0.2
298.15	785.5	0.2
303.15	780.3	0.2
308.15	776	0.2
313.15	772	0.2
318.15	767.4	0.2
323.15	763	0.2
328.15	758.6	0.2
333.15	754.4	0.2

System: propan-1-ol; phases: Liquid
Fixed: Pressure, kPa = 101.325
Property: Viscosity, Pa*s (Liquid); method: Falling or rolling sphere viscometry
Temperature, K	Viscosity, Pa*s	uncertainty
283.15	0.0034744	4.57e-05
288.15	0.0027676	3.57e-05
293.15	0.0024104	2.81e-05
298.15	0.0021178	2.44e-05
303.15	0.0018742	2.14e-05
308.15	0.0016709	1.87e-05
313.15	0.0015237	1.68e-05
318.15	0.0013833	1.53e-05
323.15	0.001256	1.38e-05
328.15	0.0011523	1.25e-05
333.15	0.0010819	1.16e-05

System: propan-1-ol; phases: Liquid
Fixed: Pressure, kPa = 101.325
Property: Mass density, kg/m3 (Liquid); method: Vibrating tube method
Temperature, K	Mass density, kg/m3	uncertainty
283.15	811.6	0.2
288.15	807.6	0.2
293.15	803.6	0.2
298.15	799.6	0.2
303.15	795.6	0.2
308.15	791.5	0.2
313.15	787.4	0.2
318.15	783.3	0.2
323.15	779.1	0.2
328.15	774.8	0.2
333.15	770.4	0.2

System: butan-1-ol; phases: Liquid
Fixed: Pressure, kPa = 101.325
Property: Viscosity, Pa*s (Liquid); method: Falling or rolling sphere viscometry
Temperature, K	Viscosity, Pa*s	uncertainty
283.15	0.0038794	4.76e-05
288.15	0.0033911	4.18e-05
293.15	0.00301	3.72e-05
298.15	0.0026062	3.24e-05
303.15	0.0023147	2.81e-05
308.15	0.0020655	2.5e-05
313.15	0.0018476	2.23e-05
318.15	0.0016597	1.99e-05
323.15	0.0014952	1.79e-05
328.15	0.0013567	1.61e-05
333.15	0.0012435	1.47e-05

System: butan-1-ol; phases: Liquid
Fixed: Pressure, kPa = 101.325
Property: Mass density, kg/m3 (Liquid); method: Vibrating tube method
Temperature, K	Mass density, kg/m3	uncertainty
283.15	817.3	0.3
288.15	813.6	0.3
293.15	809.8	0.3
298.15	806	0.3
303.15	802.1	0.3
308.15	798.2	0.3
313.15	794.3	0.3
318.15	790.4	0.3
323.15	786.4	0.3
328.15	782.3	0.3
333.15	778.2	0.3

System: 1-butyl-3-methylimidazolium nitrate; phases: Liquid
Fixed: Pressure, kPa = 101.325
Property: Viscosity, Pa*s (Liquid); method: Falling or rolling sphere viscometry
Temperature, K	Viscosity, Pa*s	uncertainty
283.15	0.45043	0.04359
288.15	0.31201	0.02542
293.15	0.22285	0.01493
298.15	0.16527	0.00895
303.15	0.12677	0.00545
308.15	0.09747	0.00312
313.15	0.0828	0.00217
318.15	0.05479	0.00097
323.15	0.0446	0.00073
328.15	0.03667	0.00059
333.15	0.0306	0.00048
338.15	0.02591	0.0004
343.15	0.02215	0.00035

System: 1-butyl-3-methylimidazolium nitrate; phases: Liquid
Fixed: Pressure, kPa = 101.325
Property: Mass density, kg/m3 (Liquid); method: Vibrating tube method
Temperature, K	Mass density, kg/m3	uncertainty
283.15	1166.3	1.5
288.15	1163	1.5
293.15	1159.7	1.5
298.15	1156.5	1.5
303.15	1153.4	1.5
308.15	1150.2	1.5
313.15	1147	1.5
318.15	1143.9	1.5
323.15	1140.7	1.5
328.15	1137.6	1.5
333.15	1134.5	1.4
338.15	1131.4	1.4
343.15	1128.3	1.4

System: ethanol + 1-butyl-3-methylimidazolium nitrate; phases: Liquid
Fixed: Pressure, kPa = 101
Property: Viscosity, Pa*s (Liquid); method: Falling or rolling sphere viscometry
Temperature, K	Mole fraction of ethanol	Viscosity, Pa*s	uncertainty
283.15	0.11	0.25988	0.01896
283.15	0.254	0.12038	0.00503
283.15	0.352	0.06596	0.00128
283.15	0.447	0.03548	0.00069
283.15	0.556	0.02124	0.0003
283.15	0.663	0.01088	0.00017
283.15	0.748	0.00745	9e-05
283.15	0.852	0.0039	4e-05
288.15	0.11	0.18976	0.01138
288.15	0.254	0.09072	0.00267
288.15	0.352	0.05147	0.00062
288.15	0.447	0.02843	0.00042
288.15	0.556	0.01796	0.00024
288.15	0.663	0.00958	0.00011
288.15	0.748	0.00639	8e-05
288.15	0.852	0.00347	4e-05
293.15	0.11	0.13932	0.00655
293.15	0.254	0.06791	0.00129
293.15	0.352	0.04109	0.00063
293.15	0.447	0.02318	0.00033
293.15	0.556	0.01521	0.0002
293.15	0.663	0.00884	0.0001
293.15	0.748	0.00561	7e-05
293.15	0.852	0.00308	4e-05
298.15	0.11	0.10551	0.0037
298.15	0.254	0.05362	0.00067
298.15	0.352	0.03283	0.0005
298.15	0.447	0.01916	0.00027
298.15	0.556	0.01306	0.00017
298.15	0.663	0.00762	9e-05
298.15	0.748	0.00483	6e-05
298.15	0.852	0.00275	3e-05
303.15	0.11	0.08679	0.0024
303.15	0.254	0.04308	0.00066
303.15	0.352	0.02628	0.0004
303.15	0.447	0.01615	0.00022
303.15	0.556	0.01134	0.00014
303.15	0.663	0.00671	8e-05
303.15	0.748	0.00428	5e-05
303.15	0.852	0.00246	3e-05
308.15	0.11	0.05959	0.00105
308.15	0.254	0.03532	0.00053
308.15	0.352	0.0214	0.00031
308.15	0.447	0.01373	0.00018
308.15	0.556	0.00983	0.00012
308.15	0.663	0.00577	7e-05
308.15	0.748	0.00376	4e-05
308.15	0.852	0.00231	3e-05
313.15	0.11	0.04755	0.00076
313.15	0.254	0.0292	0.00043
313.15	0.352	0.01778	0.00025
313.15	0.447	0.01188	0.00016
313.15	0.556	0.00905	0.00011
313.15	0.663	0.005	6e-05
313.15	0.748	0.00338	4e-05
313.15	0.852	0.00213	2e-05
318.15	0.11	0.03881	0.00061
318.15	0.254	0.02453	0.00035
318.15	0.352	0.01548	0.0002
318.15	0.447	0.01026	0.00013
318.15	0.556	0.00802	0.0001
318.15	0.663	0.00449	5e-05
318.15	0.748	0.00308	4e-05
318.15	0.852	0.0019	2e-05
323.15	0.11	0.03211	0.00049
323.15	0.254	0.02084	0.0003
323.15	0.352	0.01406	0.00018
323.15	0.447	0.00891	0.00012
323.15	0.556	0.00696	9e-05
323.15	0.663	0.00404	5e-05
323.15	0.748	0.00281	3e-05
323.15	0.852	0.00175	2e-05
328.15	0.11	0.0269	0.00041
328.15	0.254	0.0179	0.00025
328.15	0.352	0.01251	0.00017
328.15	0.447	0.00787	0.0001
328.15	0.556	0.00608	7e-05
328.15	0.663	0.0037	4e-05
328.15	0.748	0.00257	3e-05
328.15	0.852	0.00165	2e-05
333.15	0.11	0.02291	0.00035
333.15	0.254	0.01552	0.00022
333.15	0.352	0.01088	0.00014
333.15	0.447	0.0077	9e-05
333.15	0.556	0.00549	7e-05
333.15	0.663	0.00339	4e-05
333.15	0.748	0.00238	3e-05
333.15	0.852	0.00159	2e-05

System: ethanol + 1-butyl-3-methylimidazolium nitrate; phases: Liquid
Fixed: Pressure, kPa = 101
Property: Mass density, kg/m3 (Liquid); method: Vibrating tube method
Temperature, K	Mole fraction of ethanol	Mass density, kg/m3	uncertainty
283.15	0.11	1149.8	1.2
283.15	0.254	1129.7	0.9
283.15	0.352	1112.3	0.7
283.15	0.447	1091.6	0.5
283.15	0.556	1062.2	0.4
283.15	0.663	1025.7	0.3
283.15	0.748	989.1	0.2
283.15	0.852	930.1	0.2
288.15	0.11	1146.6	1.2
288.15	0.254	1126.4	0.9
288.15	0.352	1108.9	0.7
288.15	0.447	1088.1	0.5
288.15	0.556	1058.7	0.4
288.15	0.663	1022.1	0.3
288.15	0.748	985.6	0.2
288.15	0.852	926.3	0.2
293.15	0.11	1143.4	1.2
293.15	0.254	1123.1	0.9
293.15	0.352	1105.5	0.7
293.15	0.447	1084.6	0.5
293.15	0.556	1055.1	0.4
293.15	0.663	1018.4	0.3
293.15	0.748	981.7	0.2
293.15	0.852	922.5	0.2
298.15	0.11	1140.2	1.2
298.15	0.254	1119.7	0.9
298.15	0.352	1102	0.7
298.15	0.447	1081.2	0.5
298.15	0.556	1051.6	0.4
298.15	0.663	1015.1	0.3
298.15	0.748	978.2	0.2
298.15	0.852	918.6	0.2
303.15	0.11	1137	1.2
303.15	0.254	1116.4	0.9
303.15	0.352	1098.6	0.7
303.15	0.447	1077.6	0.5
303.15	0.556	1048	0.4
303.15	0.663	1011.4	0.3
303.15	0.748	974.5	0.2
303.15	0.852	914.8	0.2
308.15	0.11	1133.8	1.2
308.15	0.254	1113.1	0.9
308.15	0.352	1095.2	0.7
308.15	0.447	1074.2	0.5
308.15	0.556	1044.7	0.4
308.15	0.663	1008.1	0.3
308.15	0.748	971	0.2
308.15	0.852	910.9	0.2
313.15	0.11	1130.6	1.2
313.15	0.254	1109.9	0.9
313.15	0.352	1091.9	0.7
313.15	0.447	1071	0.5
313.15	0.556	1041.3	0.4
313.15	0.663	1004.6	0.3
313.15	0.748	967.3	0.2
313.15	0.852	907	0.2
318.15	0.11	1127.4	1.2
318.15	0.254	1106.5	0.8
318.15	0.352	1088.5	0.7
318.15	0.447	1067.7	0.5
318.15	0.556	1038.3	0.4
318.15	0.663	1001.4	0.3
318.15	0.748	963.8	0.2
318.15	0.852	903.2	0.2
323.15	0.11	1124.3	1.2
323.15	0.254	1103.2	0.8
323.15	0.352	1085.2	0.7
323.15	0.447	1064.2	0.5
323.15	0.556	1034.6	0.4
323.15	0.663	997.5	0.3
323.15	0.748	960.3	0.2
323.15	0.852	899.4	0.2
328.15	0.11	1121.1	1.2
328.15	0.254	1100	0.8
328.15	0.352	1081.7	0.6
328.15	0.447	1060.6	0.5
328.15	0.556	1030.9	0.4
328.15	0.663	993.8	0.3
328.15	0.748	956.3	0.2
328.15	0.852	895.8	0.2
333.15	0.11	1118.1	1.2
333.15	0.254	1096.7	0.8
333.15	0.352	1078.4	0.6
333.15	0.447	1057.1	0.5
333.15	0.556	1027.6	0.4
333.15	0.663	990.6	0.3
333.15	0.748	953.6	0.2
333.15	0.852	892.8	0.2

System: ethanol + 1-butyl-3-methylimidazolium nitrate; phases: Liquid
Fixed: Pressure, kPa = 101
Property: Excess molar volume, m3/mol (Liquid); method: Calculated with densities of this investigation
Temperature, K	Mole fraction of ethanol	Excess molar volume, m3/mol	uncertainty
283.15	0.11	-2.07e-07	1.1e-08
283.15	0.254	-5.38e-07	1.2e-08
283.15	0.352	-6.66e-07	1.2e-08
283.15	0.447	-7.17e-07	1.2e-08
283.15	0.556	-7.29e-07	1.2e-08
283.15	0.663	-7.23e-07	1.2e-08
283.15	0.748	-7.09e-07	1.2e-08
283.15	0.852	-6.04e-07	1.2e-08
288.15	0.11	-2.44e-07	1.1e-08
288.15	0.254	-5.65e-07	1.2e-08
288.15	0.352	-6.89e-07	1.2e-08
288.15	0.447	-7.38e-07	1.2e-08
288.15	0.556	-7.62e-07	1.2e-08
288.15	0.663	-7.57e-07	1.2e-08
288.15	0.748	-7.58e-07	1.2e-08
288.15	0.852	-6.4e-07	1.2e-08
293.15	0.11	-2.67e-07	1.1e-08
293.15	0.254	-5.92e-07	1.2e-08
293.15	0.352	-7.13e-07	1.2e-08
293.15	0.447	-7.61e-07	1.2e-08
293.15	0.556	-7.87e-07	1.2e-08
293.15	0.663	-7.88e-07	1.2e-08
293.15	0.748	-7.82e-07	1.2e-08
293.15	0.852	-6.72e-07	1.2e-08
298.15	0.11	-2.7e-07	1.1e-08
298.15	0.254	-5.81e-07	1.2e-08
298.15	0.352	-7.05e-07	1.2e-08
298.15	0.447	-7.65e-07	1.2e-08
298.15	0.556	-7.86e-07	1.2e-08
298.15	0.663	-8.06e-07	1.2e-08
298.15	0.748	-7.84e-07	1.2e-08
298.15	0.852	-6.53e-07	1.2e-08
303.15	0.11	-2.82e-07	1.1e-08
303.15	0.254	-6.1e-07	1.2e-08
303.15	0.352	-7.31e-07	1.2e-08
303.15	0.447	-7.94e-07	1.2e-08
303.15	0.556	-8.32e-07	1.3e-08
303.15	0.663	-8.67e-07	1.3e-08
303.15	0.748	-8.66e-07	1.3e-08
303.15	0.852	-7.37e-07	1.2e-08
308.15	0.11	-2.9e-07	1.1e-08
308.15	0.254	-6.14e-07	1.2e-08
308.15	0.352	-7.42e-07	1.2e-08
308.15	0.447	-8.17e-07	1.2e-08
308.15	0.556	-8.83e-07	1.3e-08
308.15	0.663	-9.29e-07	1.3e-08
308.15	0.748	-9.21e-07	1.3e-08
308.15	0.852	-7.68e-07	1.2e-08
313.15	0.11	-2.99e-07	1.1e-08
313.15	0.254	-6.38e-07	1.2e-08
313.15	0.352	-7.71e-07	1.2e-08
313.15	0.447	-8.61e-07	1.3e-08
313.15	0.556	-9.15e-07	1.3e-08
313.15	0.663	-9.59e-07	1.3e-08
313.15	0.748	-9.35e-07	1.3e-08
313.15	0.852	-7.8e-07	1.2e-08
318.15	0.11	-3.11e-07	1.1e-08
318.15	0.254	-6.43e-07	1.2e-08
318.15	0.352	-7.85e-07	1.2e-08
318.15	0.447	-9.06e-07	1.3e-08
318.15	0.556	-1.008e-06	1.3e-08
318.15	0.663	-1.054e-06	1.3e-08
318.15	0.748	-1.01e-06	1.3e-08
318.15	0.852	-8.33e-07	1.3e-08
323.15	0.11	-3.23e-07	1.1e-08
323.15	0.254	-6.56e-07	1.2e-08
323.15	0.352	-8.09e-07	1.2e-08
323.15	0.447	-9.27e-07	1.3e-08
323.15	0.556	-1.022e-06	1.3e-08
323.15	0.663	-1.059e-06	1.3e-08
323.15	0.748	-1.063e-06	1.3e-08
323.15	0.852	-8.77e-07	1.3e-08
328.15	0.11	-3.37e-07	1.1e-08
328.15	0.254	-6.84e-07	1.2e-08
328.15	0.352	-8.12e-07	1.2e-08
328.15	0.447	-9.37e-07	1.3e-08
328.15	0.556	-1.032e-06	1.3e-08
328.15	0.663	-1.087e-06	1.3e-08
328.15	0.748	-1.08e-06	1.3e-08
328.15	0.852	-9.37e-07	1.3e-08
333.15	0.11	-3.68e-07	1.1e-08
333.15	0.254	-6.91e-07	1.2e-08
333.15	0.352	-8.33e-07	1.3e-08
333.15	0.447	-9.46e-07	1.3e-08
333.15	0.556	-1.078e-06	1.3e-08
333.15	0.663	-1.155e-06	1.3e-08
333.15	0.748	-1.203e-06	1.4e-08
333.15	0.852	-1.038e-06	1.3e-08

System: propan-1-ol + 1-butyl-3-methylimidazolium nitrate; phases: Liquid
Fixed: Pressure, kPa = 101
Property: Viscosity, Pa*s (Liquid); method: Falling or rolling sphere viscometry
Temperature, K	Mole fraction of propan-1-ol	Viscosity, Pa*s	uncertainty
283.15	0.121	0.2435	0.0171
283.15	0.257	0.12576	0.00544
283.15	0.364	0.07252	0.0016
283.15	0.471	0.04271	0.00069
283.15	0.554	0.02788	0.00044
283.15	0.673	0.01561	0.00023
283.15	0.755	0.01026	0.00014
283.15	0.857	0.00616	7e-05
288.15	0.121	0.17609	0.01002
288.15	0.257	0.09571	0.00304
288.15	0.364	0.05676	0.00076
288.15	0.471	0.03453	0.00051
288.15	0.554	0.023	0.00032
288.15	0.673	0.0132	0.00017
288.15	0.755	0.00883	0.00011
288.15	0.857	0.00529	6e-05
293.15	0.121	0.13088	0.0058
293.15	0.257	0.06818	0.00136
293.15	0.364	0.0451	0.00069
293.15	0.471	0.02835	0.00041
293.15	0.554	0.01919	0.00026
293.15	0.673	0.01132	0.00015
293.15	0.755	0.0076	0.0001
293.15	0.857	0.00464	6e-05
298.15	0.121	0.09982	0.00333
298.15	0.257	0.05367	0.00069
298.15	0.364	0.03643	0.00055
298.15	0.471	0.02348	0.00033
298.15	0.554	0.01629	0.00022
298.15	0.673	0.00979	0.00012
298.15	0.755	0.00656	8e-05
298.15	0.857	0.00405	5e-05
303.15	0.121	0.07402	0.00165
303.15	0.257	0.04304	0.00067
303.15	0.364	0.02992	0.00044
303.15	0.471	0.01971	0.00027
303.15	0.554	0.01394	0.00018
303.15	0.673	0.00854	0.00011
303.15	0.755	0.00577	7e-05
303.15	0.857	0.00359	4e-05
308.15	0.121	0.05848	0.00086
308.15	0.257	0.03502	0.00053
308.15	0.364	0.02493	0.00036
308.15	0.471	0.01682	0.00023
308.15	0.554	0.01203	0.00016
308.15	0.673	0.00743	9e-05
308.15	0.755	0.00504	6e-05
308.15	0.857	0.00321	4e-05
313.15	0.121	0.04707	0.00075
313.15	0.257	0.02893	0.00043
313.15	0.364	0.02101	0.0003
313.15	0.471	0.01444	0.00019
313.15	0.554	0.0105	0.00014
313.15	0.673	0.00649	8e-05
313.15	0.755	0.00449	5e-05
313.15	0.857	0.00287	3e-05
318.15	0.121	0.03859	0.0006
318.15	0.257	0.02421	0.00035
318.15	0.364	0.01789	0.00025
318.15	0.471	0.01254	0.00017
318.15	0.554	0.00921	0.00012
318.15	0.673	0.00578	7e-05
318.15	0.755	0.00397	5e-05
318.15	0.857	0.00259	3e-05
323.15	0.121	0.03191	0.00049
323.15	0.257	0.02058	0.0003
323.15	0.364	0.01541	0.00021
323.15	0.471	0.01097	0.00014
323.15	0.554	0.00816	0.0001
323.15	0.673	0.00509	6e-05
323.15	0.755	0.00358	4e-05
323.15	0.857	0.00235	3e-05
328.15	0.121	0.02675	0.00041
328.15	0.257	0.01765	0.00025
328.15	0.364	0.01341	0.00018
328.15	0.471	0.00968	0.00013
328.15	0.554	0.0072	9e-05
328.15	0.673	0.00458	6e-05
328.15	0.755	0.00324	4e-05
328.15	0.857	0.00214	2e-05
333.15	0.121	0.02273	0.00035
333.15	0.257	0.01531	0.00021
333.15	0.364	0.01177	0.00016
333.15	0.471	0.00861	0.00011
333.15	0.554	0.00637	8e-05
333.15	0.673	0.00414	5e-05
333.15	0.755	0.00294	3e-05
333.15	0.857	0.00196	2e-05

System: propan-1-ol + 1-butyl-3-methylimidazolium nitrate; phases: Liquid
Fixed: Pressure, kPa = 101
Property: Mass density, kg/m3 (Liquid); method: Vibrating tube method
Temperature, K	Mole fraction of propan-1-ol	Mass density, kg/m3	uncertainty
283.15	0.121	1144.2	1.2
283.15	0.257	1120	0.9
283.15	0.364	1097.4	0.8
283.15	0.471	1070.7	0.6
283.15	0.554	1046.1	0.5
283.15	0.673	1004.1	0.3
283.15	0.755	968.6	0.3
283.15	0.857	914.6	0.2
288.15	0.121	1140.8	1.2
288.15	0.257	1116.7	0.9
288.15	0.364	1094.1	0.7
288.15	0.471	1067.3	0.6
288.15	0.554	1042.7	0.5
288.15	0.673	1000.5	0.3
288.15	0.755	964.9	0.3
288.15	0.857	910.9	0.2
293.15	0.121	1137.6	1.2
293.15	0.257	1113.4	0.9
293.15	0.364	1090.7	0.7
293.15	0.471	1063.9	0.6
293.15	0.554	1039.2	0.5
293.15	0.673	997	0.3
293.15	0.755	961.3	0.3
293.15	0.857	907.1	0.2
298.15	0.121	1134.4	1.2
298.15	0.257	1110.2	0.9
298.15	0.364	1087.4	0.7
298.15	0.471	1060.5	0.6
298.15	0.554	1035.8	0.5
298.15	0.673	993.4	0.3
298.15	0.755	957.7	0.3
298.15	0.857	903.4	0.2
303.15	0.121	1131.2	1.2
303.15	0.257	1106.9	0.9
303.15	0.364	1084.1	0.7
303.15	0.471	1057	0.6
303.15	0.554	1032.3	0.5
303.15	0.673	989.8	0.3
303.15	0.755	954	0.3
303.15	0.857	899.6	0.2
308.15	0.121	1128	1.2
308.15	0.257	1103.7	0.9
308.15	0.364	1080.8	0.7
308.15	0.471	1053.7	0.6
308.15	0.554	1028.9	0.5
308.15	0.673	986.3	0.3
308.15	0.755	950.3	0.3
308.15	0.857	895.9	0.2
313.15	0.121	1124.8	1.2
313.15	0.257	1100.3	0.9
313.15	0.364	1077.3	0.7
313.15	0.471	1050.3	0.6
313.15	0.554	1025.5	0.5
313.15	0.673	982.7	0.3
313.15	0.755	946.8	0.3
313.15	0.857	892.1	0.2
318.15	0.121	1121.7	1.2
318.15	0.257	1097.2	0.9
318.15	0.364	1074.1	0.7
318.15	0.471	1046.8	0.6
318.15	0.554	1022.1	0.4
318.15	0.673	979.1	0.3
318.15	0.755	943.1	0.3
318.15	0.857	888.3	0.2
323.15	0.121	1118.6	1.2
323.15	0.257	1094	0.9
323.15	0.364	1070.9	0.7
323.15	0.471	1043.6	0.5
323.15	0.554	1018.6	0.4
323.15	0.673	975.5	0.3
323.15	0.755	939.5	0.3
323.15	0.857	884.5	0.2
328.15	0.121	1115.5	1.2
328.15	0.257	1090.9	0.9
328.15	0.364	1067.7	0.7
328.15	0.471	1040.3	0.5
328.15	0.554	1015.2	0.4
328.15	0.673	972	0.3
328.15	0.755	935.9	0.3
328.15	0.857	880.7	0.2
333.15	0.121	1112.5	1.2
333.15	0.257	1087.7	0.9
333.15	0.364	1064.4	0.7
333.15	0.471	1036.8	0.5
333.15	0.554	1011.9	0.4
333.15	0.673	968.7	0.3
333.15	0.755	932.3	0.3
333.15	0.857	876.8	0.2

System: propan-1-ol + 1-butyl-3-methylimidazolium nitrate; phases: Liquid
Fixed: Pressure, kPa = 101
Property: Excess molar volume, m3/mol (Liquid); method: Calculated with densities of this investigation
Temperature, K	Mole fraction of propan-1-ol	Excess molar volume, m3/mol	uncertainty
283.15	0.121	-1.39e-07	1e-08
283.15	0.257	-3.38e-07	1.1e-08
283.15	0.364	-4.7e-07	1.1e-08
283.15	0.471	-5.75e-07	1.2e-08
283.15	0.554	-5.96e-07	1.2e-08
283.15	0.673	-6.13e-07	1.2e-08
283.15	0.755	-5.61e-07	1.2e-08
283.15	0.857	-4.38e-07	1.1e-08
288.15	0.121	-1.4e-07	1e-08
288.15	0.257	-3.6e-07	1.1e-08
288.15	0.364	-4.96e-07	1.2e-08
288.15	0.471	-6.02e-07	1.2e-08
288.15	0.554	-6.24e-07	1.2e-08
288.15	0.673	-6.37e-07	1.2e-08
288.15	0.755	-5.81e-07	1.2e-08
288.15	0.857	-4.57e-07	1.1e-08
293.15	0.121	-1.61e-07	1e-08
293.15	0.257	-3.87e-07	1.1e-08
293.15	0.364	-5.24e-07	1.2e-08
293.15	0.471	-6.33e-07	1.2e-08
293.15	0.554	-6.55e-07	1.2e-08
293.15	0.673	-6.7e-07	1.2e-08
293.15	0.755	-6.19e-07	1.2e-08
293.15	0.857	-4.79e-07	1.1e-08
298.15	0.121	-1.74e-07	1.1e-08
298.15	0.257	-4.05e-07	1.1e-08
298.15	0.364	-5.51e-07	1.2e-08
298.15	0.471	-6.6e-07	1.2e-08
298.15	0.554	-6.84e-07	1.2e-08
298.15	0.673	-6.99e-07	1.2e-08
298.15	0.755	-6.47e-07	1.2e-08
298.15	0.857	-5.01e-07	1.2e-08
303.15	0.121	-1.8e-07	1.1e-08
303.15	0.257	-4.21e-07	1.1e-08
303.15	0.364	-5.71e-07	1.2e-08
303.15	0.471	-6.73e-07	1.2e-08
303.15	0.554	-7.12e-07	1.2e-08
303.15	0.673	-7.28e-07	1.2e-08
303.15	0.755	-6.65e-07	1.2e-08
303.15	0.857	-5.25e-07	1.2e-08
308.15	0.121	-1.91e-07	1.1e-08
308.15	0.257	-4.41e-07	1.1e-08
308.15	0.364	-5.93e-07	1.2e-08
308.15	0.471	-7.03e-07	1.2e-08
308.15	0.554	-7.45e-07	1.2e-08
308.15	0.673	-7.6e-07	1.2e-08
308.15	0.755	-6.98e-07	1.2e-08
308.15	0.857	-5.53e-07	1.2e-08
313.15	0.121	-2.05e-07	1.1e-08
313.15	0.257	-4.5e-07	1.1e-08
313.15	0.364	-6.05e-07	1.2e-08
313.15	0.471	-7.37e-07	1.2e-08
313.15	0.554	-7.83e-07	1.2e-08
313.15	0.673	-7.95e-07	1.2e-08
313.15	0.755	-7.45e-07	1.2e-08
313.15	0.857	-5.82e-07	1.2e-08
318.15	0.121	-2.2e-07	1.1e-08
318.15	0.257	-4.85e-07	1.1e-08
318.15	0.364	-6.44e-07	1.2e-08
318.15	0.471	-7.61e-07	1.2e-08
318.15	0.554	-8.23e-07	1.2e-08
318.15	0.673	-8.29e-07	1.2e-08
318.15	0.755	-7.75e-07	1.2e-08
318.15	0.857	-6.15e-07	1.2e-08
323.15	0.121	-2.43e-07	1.1e-08
323.15	0.257	-5.21e-07	1.2e-08
323.15	0.364	-6.85e-07	1.2e-08
323.15	0.471	-8.14e-07	1.2e-08
323.15	0.554	-8.66e-07	1.3e-08
323.15	0.673	-8.66e-07	1.3e-08
323.15	0.755	-8.18e-07	1.2e-08
323.15	0.857	-6.51e-07	1.2e-08
328.15	0.121	-2.69e-07	1.1e-08
328.15	0.257	-5.56e-07	1.2e-08
328.15	0.364	-7.25e-07	1.2e-08
328.15	0.471	-8.6e-07	1.3e-08
328.15	0.554	-9.16e-07	1.3e-08
328.15	0.673	-9.22e-07	1.3e-08
328.15	0.755	-8.79e-07	1.3e-08
328.15	0.857	-6.93e-07	1.2e-08
333.15	0.121	-3.05e-07	1.1e-08
333.15	0.257	-5.86e-07	1.2e-08
333.15	0.364	-7.64e-07	1.2e-08
333.15	0.471	-8.96e-07	1.3e-08
333.15	0.554	-9.71e-07	1.3e-08
333.15	0.673	-1.004e-06	1.3e-08
333.15	0.755	-9.35e-07	1.3e-08
333.15	0.857	-7.39e-07	1.2e-08

System: butan-1-ol + 1-butyl-3-methylimidazolium nitrate; phases: Liquid
Fixed: Pressure, kPa = 101
Property: Viscosity, Pa*s (Liquid); method: Falling or rolling sphere viscometry
Temperature, K	Mole fraction of butan-1-ol	Viscosity, Pa*s	uncertainty
283.15	0.129	0.23209	0.01582
283.15	0.26	0.12498	0.00537
283.15	0.361	0.07549	0.00176
283.15	0.456	0.04792	0.00082
283.15	0.565	0.029	0.00046
283.15	0.65	0.01986	0.0003
283.15	0.753	0.01142	0.00018
283.15	0.848	0.00782	0.0001
288.15	0.129	0.17062	0.00947
288.15	0.26	0.09483	0.00299
288.15	0.361	0.0588	0.00087
288.15	0.456	0.03834	0.00059
288.15	0.565	0.02386	0.00035
288.15	0.65	0.01611	0.00023
288.15	0.753	0.00974	0.00013
288.15	0.848	0.00678	9e-05
293.15	0.129	0.12689	0.00547
293.15	0.26	0.06845	0.00138
293.15	0.361	0.04654	0.00074
293.15	0.456	0.0311	0.00047
293.15	0.565	0.01988	0.00029
293.15	0.65	0.01367	0.00019
293.15	0.753	0.00841	0.00011
293.15	0.848	0.00588	8e-05
298.15	0.129	0.09698	0.00314
298.15	0.26	0.05394	0.00071
298.15	0.361	0.03764	0.00058
298.15	0.456	0.02572	0.00038
298.15	0.565	0.01679	0.00024
298.15	0.65	0.01174	0.00016
298.15	0.753	0.00728	0.0001
298.15	0.848	0.00512	7e-05
303.15	0.129	0.07083	0.0015
303.15	0.26	0.04331	0.00069
303.15	0.361	0.03076	0.00047
303.15	0.456	0.02148	0.00031
303.15	0.565	0.01434	0.0002
303.15	0.65	0.01017	0.00014
303.15	0.753	0.00635	8e-05
303.15	0.848	0.00452	6e-05
308.15	0.129	0.05632	0.00079
308.15	0.26	0.03531	0.00055
308.15	0.361	0.0256	0.00038
308.15	0.456	0.01823	0.00026
308.15	0.565	0.01237	0.00017
308.15	0.65	0.00891	0.00012
308.15	0.753	0.00559	7e-05
308.15	0.848	0.00398	5e-05
313.15	0.129	0.04528	0.00073
313.15	0.26	0.02924	0.00044
313.15	0.361	0.02155	0.00031
313.15	0.456	0.01559	0.00022
313.15	0.565	0.01076	0.00015
313.15	0.65	0.0078	0.0001
313.15	0.753	0.00491	6e-05
313.15	0.848	0.00356	4e-05
318.15	0.129	0.03711	0.00059
318.15	0.26	0.02453	0.00037
318.15	0.361	0.01841	0.00026
318.15	0.456	0.01352	0.00019
318.15	0.565	0.00944	0.00013
318.15	0.65	0.00694	9e-05
318.15	0.753	0.00438	6e-05
318.15	0.848	0.00319	4e-05
323.15	0.129	0.03072	0.00048
323.15	0.26	0.02083	0.00031
323.15	0.361	0.01585	0.00023
323.15	0.456	0.01181	0.00016
323.15	0.565	0.00833	0.00011
323.15	0.65	0.00615	8e-05
323.15	0.753	0.00392	5e-05
323.15	0.848	0.00287	4e-05
328.15	0.129	0.02586	0.0004
328.15	0.26	0.01789	0.00026
328.15	0.361	0.01375	0.00019
328.15	0.456	0.01037	0.00014
328.15	0.565	0.00737	0.0001
328.15	0.65	0.00552	7e-05
328.15	0.753	0.0035	4e-05
328.15	0.848	0.0026	3e-05
333.15	0.129	0.02195	0.00034
333.15	0.26	0.01546	0.00022
333.15	0.361	0.01203	0.00017
333.15	0.456	0.00918	0.00012
333.15	0.565	0.00656	9e-05
333.15	0.65	0.00493	6e-05
333.15	0.753	0.00317	4e-05
333.15	0.848	0.00237	3e-05

System: butan-1-ol + 1-butyl-3-methylimidazolium nitrate; phases: Liquid
Fixed: Pressure, kPa = 101
Property: Mass density, kg/m3 (Liquid); method: Vibrating tube method
Temperature, K	Mole fraction of butan-1-ol	Mass density, kg/m3	uncertainty
283.15	0.129	1139	1.3
283.15	0.26	1111.5	1.1
283.15	0.361	1087.5	0.9
283.15	0.456	1062	0.8
283.15	0.565	1028.4	0.6
283.15	0.65	998.2	0.5
283.15	0.753	955.4	0.4
283.15	0.848	908.8	0.4
288.15	0.129	1135.6	1.3
288.15	0.26	1108.1	1.1
288.15	0.361	1084.1	0.9
288.15	0.456	1058.6	0.8
288.15	0.565	1025.1	0.6
288.15	0.65	994.7	0.5
288.15	0.753	951.8	0.4
288.15	0.848	905.1	0.4
293.15	0.129	1132.4	1.3
293.15	0.26	1104.8	1.1
293.15	0.361	1080.7	0.9
293.15	0.456	1055.3	0.8
293.15	0.565	1021.5	0.6
293.15	0.65	991.2	0.5
293.15	0.753	948.3	0.4
293.15	0.848	901.5	0.4
298.15	0.129	1129.2	1.3
298.15	0.26	1101.4	1
298.15	0.361	1077.3	0.9
298.15	0.456	1051.9	0.8
298.15	0.565	1018.1	0.6
298.15	0.65	987.6	0.5
298.15	0.753	944.7	0.4
298.15	0.848	897.8	0.4
303.15	0.129	1126	1.3
303.15	0.26	1098.1	1
303.15	0.361	1074	0.9
303.15	0.456	1048.4	0.8
303.15	0.565	1014.6	0.6
303.15	0.65	984.2	0.5
303.15	0.753	941.2	0.4
303.15	0.848	894.2	0.4
308.15	0.129	1122.8	1.2
308.15	0.26	1094.8	1
308.15	0.361	1070.6	0.9
308.15	0.456	1045	0.7
308.15	0.565	1011.1	0.6
308.15	0.65	980.7	0.5
308.15	0.753	937.6	0.4
308.15	0.848	890.5	0.4
313.15	0.129	1119.6	1.2
313.15	0.26	1091.6	1
313.15	0.361	1067.3	0.9
313.15	0.456	1041.7	0.7
313.15	0.565	1007.8	0.6
313.15	0.65	977.1	0.5
313.15	0.753	934	0.4
313.15	0.848	886.9	0.4
318.15	0.129	1116.5	1.2
318.15	0.26	1088.3	1
318.15	0.361	1063.9	0.9
318.15	0.456	1038.2	0.7
318.15	0.565	1004.2	0.6
318.15	0.65	973.6	0.5
318.15	0.753	930.3	0.4
318.15	0.848	883.2	0.4
323.15	0.129	1113.4	1.2
323.15	0.26	1085.1	1
323.15	0.361	1060.6	0.9
323.15	0.456	1034.9	0.7
323.15	0.565	1000.9	0.6
323.15	0.65	970.1	0.5
323.15	0.753	926.8	0.4
323.15	0.848	879.6	0.4
328.15	0.129	1110.3	1.2
328.15	0.26	1081.9	1
328.15	0.361	1057.3	0.9
328.15	0.456	1031.3	0.7
328.15	0.565	997.1	0.6
328.15	0.65	966.4	0.5
328.15	0.753	923	0.4
328.15	0.848	875.9	0.4
333.15	0.129	1107.2	1.2
333.15	0.26	1078.8	1
333.15	0.361	1054.1	0.8
333.15	0.456	1027.9	0.7
333.15	0.565	993.5	0.6
333.15	0.65	962.7	0.5
333.15	0.753	919.3	0.4
333.15	0.848	872.2	0.4

System: butan-1-ol + 1-butyl-3-methylimidazolium nitrate; phases: Liquid
Fixed: Pressure, kPa = 101
Property: Excess molar volume, m3/mol (Liquid); method: Calculated with densities of this investigation
Temperature, K	Mole fraction of butan-1-ol	Excess molar volume, m3/mol	uncertainty
283.15	0.129	-1.56e-07	1e-08
283.15	0.26	-3.31e-07	1.1e-08
283.15	0.361	-4.82e-07	1.1e-08
283.15	0.456	-6.02e-07	1.2e-08
283.15	0.565	-6.82e-07	1.2e-08
283.15	0.65	-6.99e-07	1.2e-08
283.15	0.753	-5.9e-07	1.2e-08
283.15	0.848	-3.93e-07	1.1e-08
288.15	0.129	-1.62e-07	1.1e-08
288.15	0.26	-3.43e-07	1.1e-08
288.15	0.361	-4.97e-07	1.2e-08
288.15	0.456	-6.28e-07	1.2e-08
288.15	0.565	-7.23e-07	1.2e-08
288.15	0.65	-7.24e-07	1.2e-08
288.15	0.753	-6.12e-07	1.2e-08
288.15	0.848	-3.99e-07	1.1e-08
293.15	0.129	-1.84e-07	1.1e-08
293.15	0.26	-3.62e-07	1.1e-08
293.15	0.361	-5.19e-07	1.2e-08
293.15	0.456	-6.58e-07	1.2e-08
293.15	0.565	-7.44e-07	1.2e-08
293.15	0.65	-7.55e-07	1.2e-08
293.15	0.753	-6.48e-07	1.2e-08
293.15	0.848	-4.2e-07	1.1e-08
298.15	0.129	-1.91e-07	1.1e-08
298.15	0.26	-3.7e-07	1.1e-08
298.15	0.361	-5.33e-07	1.2e-08
298.15	0.456	-6.83e-07	1.2e-08
298.15	0.565	-7.72e-07	1.2e-08
298.15	0.65	-7.7e-07	1.2e-08
298.15	0.753	-6.7e-07	1.2e-08
298.15	0.848	-4.4e-07	1.1e-08
303.15	0.129	-1.99e-07	1.1e-08
303.15	0.26	-3.77e-07	1.1e-08
303.15	0.361	-5.45e-07	1.2e-08
303.15	0.456	-6.92e-07	1.2e-08
303.15	0.565	-7.91e-07	1.2e-08
303.15	0.65	-8.01e-07	1.2e-08
303.15	0.753	-6.96e-07	1.2e-08
303.15	0.848	-4.63e-07	1.1e-08
308.15	0.129	-2.14e-07	1.1e-08
308.15	0.26	-3.9e-07	1.1e-08
308.15	0.361	-5.6e-07	1.2e-08
308.15	0.456	-7.14e-07	1.2e-08
308.15	0.565	-8.15e-07	1.2e-08
308.15	0.65	-8.3e-07	1.3e-08
308.15	0.753	-7.24e-07	1.2e-08
308.15	0.848	-4.89e-07	1.1e-08
313.15	0.129	-2.31e-07	1.1e-08
313.15	0.26	-4.1e-07	1.1e-08
313.15	0.361	-5.86e-07	1.2e-08
313.15	0.456	-7.45e-07	1.2e-08
313.15	0.565	-8.55e-07	1.3e-08
313.15	0.65	-8.61e-07	1.3e-08
313.15	0.753	-7.56e-07	1.2e-08
313.15	0.848	-5.18e-07	1.2e-08
318.15	0.129	-2.5e-07	1.1e-08
318.15	0.26	-4.33e-07	1.1e-08
318.15	0.361	-6.03e-07	1.2e-08
318.15	0.456	-7.6e-07	1.2e-08
318.15	0.565	-8.8e-07	1.3e-08
318.15	0.65	-8.92e-07	1.3e-08
318.15	0.753	-7.79e-07	1.2e-08
318.15	0.848	-5.52e-07	1.2e-08
323.15	0.129	-2.72e-07	1.1e-08
323.15	0.26	-4.6e-07	1.1e-08
323.15	0.361	-6.37e-07	1.2e-08
323.15	0.456	-8.01e-07	1.2e-08
323.15	0.565	-9.35e-07	1.3e-08
323.15	0.65	-9.4e-07	1.3e-08
323.15	0.753	-8.32e-07	1.3e-08
323.15	0.848	-5.89e-07	1.2e-08
328.15	0.129	-2.97e-07	1.1e-08
328.15	0.26	-4.9e-07	1.1e-08
328.15	0.361	-6.58e-07	1.2e-08
328.15	0.456	-8.07e-07	1.2e-08
328.15	0.565	-9.28e-07	1.3e-08
328.15	0.65	-9.54e-07	1.3e-08
328.15	0.753	-8.52e-07	1.3e-08
328.15	0.848	-6.31e-07	1.2e-08
333.15	0.129	-3.18e-07	1.1e-08
333.15	0.26	-5.3e-07	1.2e-08
333.15	0.361	-7.03e-07	1.2e-08
333.15	0.456	-8.42e-07	1.3e-08
333.15	0.565	-9.58e-07	1.3e-08
333.15	0.65	-9.73e-07	1.3e-08
333.15	0.753	-8.88e-07	1.3e-08
333.15	0.848	-6.76e-07	1.2e-08
