Measured thermophysical data. A comprehensive study of {.gamma.-butyrolactone + 1-methyl-3- propylimidazolium bis(trifluoromethylsulfonyl)imide} binary mixtures
Source: J. Chem. Thermodyn., 2015, 10.1016/j.jct.2015.07.048
Compound 1: .gamma.-butyrolactone, C4H6O2, InChI=1S/C4H6O2/c5-4-2-1-3-6-4/h1-3H2, purity 99%
Compound 2: 1-methyl-3-propylimidazolium bis[(trifluoromethyl)sulfonyl]imide, C9H13F6N3O4S2, InChI=1S/C7H13N2.C2F6NO4S2/c1-3-4-9-6-5-8(2)7-9;3-1(4,5)14(10,11)9-15(12,13)2(6,7)8/h5-7H,3-4H2,1-2H3;/q+1;-1, purity 99.7%

System: 1-methyl-3-propylimidazolium bis[(trifluoromethyl)sulfonyl]imide; phases: Liquid
Fixed: Pressure, kPa = 101.325
Property: Mass density, kg/m3 (Liquid); method: Vibrating tube method
Temperature, K	Mass density, kg/m3	uncertainty
293.15	1479.32	1.64
298.15	1474.24	1.64
303.15	1469.4	1.64
308.15	1464.43	1.64
313.15	1459.44	1.64
318.15	1454.63	1.64
323.15	1449.73	1.64

System: 1-methyl-3-propylimidazolium bis[(trifluoromethyl)sulfonyl]imide; phases: Liquid
Fixed: Pressure, kPa = 100
Property: Viscosity, Pa*s (Liquid); method: Cone and plate viscometry
Temperature, K	Viscosity, Pa*s	uncertainty
293.15	0.05419	0.00109
298.15	0.04394	0.0009
303.15	0.03592	0.00074
308.15	0.03	0.00062
313.15	0.02532	0.00052
318.15	0.02158	0.00044
323.15	0.01882	0.00039

System: 1-methyl-3-propylimidazolium bis[(trifluoromethyl)sulfonyl]imide; phases: Liquid
Fixed: Pressure, kPa = 100
Property: Electrical conductivity, S/m (Liquid); method: Direct current cell with electrodes
Temperature, K	Electrical conductivity, S/m	uncertainty
293.15	0.355	0.011
298.15	0.435	0.013
303.15	0.521	0.016
308.15	0.611	0.018
313.15	0.71	0.021
318.15	0.813	0.024
323.15	0.923	0.028

System: .gamma.-butyrolactone + 1-methyl-3-propylimidazolium bis[(trifluoromethyl)sulfonyl]imide; phases: Liquid
Fixed: Pressure, kPa = 100
Property: Mass density, kg/m3 (Liquid); method: Vibrating tube method
Temperature, K	Mole fraction of 1-methyl-3-propylimidazolium bis[(trifluoromethyl)sulfonyl]imide	Mass density, kg/m3	uncertainty
293.15	0.05	1185.12	2.24
293.15	0.0999	1229.6	1.98
293.15	0.1999	1295.75	1.87
293.15	0.2912	1338.94	1.77
293.15	0.4005	1377.51	1.72
293.15	0.4986	1403.93	1.69
293.15	0.6	1425.6	1.67
293.15	0.6997	1442.85	1.66
293.15	0.7998	1457.11	1.65
293.15	0.8818	1467.07	1.65
298.15	0.05	1180.18	2.24
298.15	0.0999	1224.68	1.98
298.15	0.1999	1290.81	1.87
298.15	0.2912	1333.98	1.77
298.15	0.4005	1372.56	1.72
298.15	0.4986	1398.93	1.69
298.15	0.6	1420.58	1.67
298.15	0.6997	1437.83	1.66
298.15	0.7998	1452.07	1.65
298.15	0.8818	1462.02	1.65
303.15	0.05	1175.2	2.24
303.15	0.0999	1219.69	1.98
303.15	0.1999	1285.84	1.87
303.15	0.2912	1329.01	1.76
303.15	0.4005	1367.63	1.72
303.15	0.4986	1394.03	1.69
303.15	0.6	1415.71	1.67
303.15	0.6997	1432.97	1.66
303.15	0.7998	1447.22	1.65
303.15	0.8818	1457.17	1.65
308.15	0.05	1170.18	2.24
308.15	0.0999	1214.67	1.97
308.15	0.1999	1280.78	1.87
308.15	0.2912	1323.97	1.76
308.15	0.4005	1362.59	1.72
308.15	0.4986	1389.01	1.69
308.15	0.6	1410.7	1.67
308.15	0.6997	1427.98	1.66
308.15	0.7998	1442.24	1.65
308.15	0.8818	1452.2	1.65
313.15	0.05	1165.15	2.24
313.15	0.0999	1209.63	1.97
313.15	0.1999	1275.71	1.87
313.15	0.2912	1318.9	1.76
313.15	0.4005	1357.55	1.72
313.15	0.4986	1383.98	1.69
313.15	0.6	1405.67	1.67
313.15	0.6997	1422.96	1.66
313.15	0.7998	1437.25	1.65
313.15	0.8818	1447.22	1.65
318.15	0.05	1159.99	2.24
318.15	0.0999	1204.53	1.97
318.15	0.1999	1270.69	1.87
318.15	0.2912	1313.92	1.76
318.15	0.4005	1352.58	1.72
318.15	0.4986	1379.05	1.69
318.15	0.6	1400.79	1.67
318.15	0.6997	1418.09	1.66
318.15	0.7998	1432.4	1.65
318.15	0.8818	1442.41	1.65
323.15	0.05	1154.83	2.24
323.15	0.0999	1199.33	1.98
323.15	0.1999	1265.59	1.87
323.15	0.2912	1308.85	1.76
323.15	0.4005	1347.55	1.72
323.15	0.4986	1374.04	1.69
323.15	0.6	1395.82	1.67
323.15	0.6997	1413.16	1.66
323.15	0.7998	1427.49	1.65
323.15	0.8818	1437.5	1.65
293.15	0	1129.2	1.65
298.15	0	1124.26	1.65
303.15	0	1119.33	1.65
308.15	0	1114.31	1.65
313.15	0	1109.23	1.65
318.15	0	1104.1	1.65
323.15	0	1098.88	1.64
293.15	1	1479.32	1.64
298.15	1	1474.24	1.64
303.15	1	1469.4	1.64
308.15	1	1464.43	1.64
313.15	1	1459.44	1.64
318.15	1	1454.63	1.64
323.15	1	1449.73	1.64

System: .gamma.-butyrolactone + 1-methyl-3-propylimidazolium bis[(trifluoromethyl)sulfonyl]imide; phases: Liquid
Fixed: Pressure, kPa = 100
Property: Viscosity, Pa*s (Liquid); method: Cone and plate viscometry
Temperature, K	Mole fraction of 1-methyl-3-propylimidazolium bis[(trifluoromethyl)sulfonyl]imide	Viscosity, Pa*s	uncertainty
293.15	0	0.00192	4e-05
293.15	0.1	0.00342	8e-05
293.15	0.15	0.0043	0.0001
293.15	0.1999	0.00528	0.00012
293.15	0.2996	0.0081	0.00018
293.15	0.4005	0.01148	0.00025
293.15	0.4986	0.0159	0.00034
293.15	0.6	0.02171	0.00046
293.15	0.6997	0.02823	0.00059
293.15	0.7998	0.03585	0.00075
293.15	0.8818	0.04307	0.0009
293.15	1	0.05419	0.00109
298.15	0	0.00173	4e-05
298.15	0.1	0.00316	7e-05
298.15	0.15	0.00394	9e-05
298.15	0.1999	0.00475	0.00011
298.15	0.2996	0.00717	0.00016
298.15	0.4005	0.00996	0.00021
298.15	0.4986	0.01362	0.00029
298.15	0.6	0.01838	0.00039
298.15	0.6997	0.02368	0.0005
298.15	0.7998	0.02972	0.00062
298.15	0.8818	0.03546	0.00074
298.15	1	0.04394	0.0009
303.15	0	0.00163	4e-05
303.15	0.1	0.00292	7e-05
303.15	0.15	0.0036	8e-05
303.15	0.1999	0.0043	9e-05
303.15	0.2996	0.00631	0.00014
303.15	0.4005	0.00869	0.00019
303.15	0.4986	0.01181	0.00025
303.15	0.6	0.01567	0.00033
303.15	0.6997	0.01981	0.00041
303.15	0.7998	0.02468	0.00051
303.15	0.8818	0.02884	0.0006
303.15	1	0.03592	0.00074
308.15	0	0.00152	3e-05
308.15	0.1	0.00268	6e-05
308.15	0.15	0.0033	7e-05
308.15	0.1999	0.00391	9e-05
308.15	0.2996	0.00567	0.00012
308.15	0.4005	0.00771	0.00016
308.15	0.4986	0.01031	0.00022
308.15	0.6	0.01351	0.00028
308.15	0.6997	0.01713	0.00036
308.15	0.7998	0.021	0.00044
308.15	0.8818	0.02451	0.00051
308.15	1	0.03	0.00062
313.15	0	0.00142	3e-05
313.15	0.1	0.00249	6e-05
313.15	0.15	0.00306	7e-05
313.15	0.1999	0.00357	8e-05
313.15	0.2996	0.0051	0.00011
313.15	0.4005	0.00692	0.00015
313.15	0.4986	0.00913	0.00019
313.15	0.6	0.01192	0.00025
313.15	0.6997	0.01478	0.00031
313.15	0.7998	0.01793	0.00037
313.15	0.8818	0.02073	0.00043
313.15	1	0.02532	0.00052
318.15	0	0.00135	3e-05
318.15	0.1	0.0023	5e-05
318.15	0.15	0.0028	6e-05
318.15	0.1999	0.00325	7e-05
318.15	0.2996	0.0046	0.0001
318.15	0.4005	0.0062	0.00013
318.15	0.4986	0.00806	0.00017
318.15	0.6	0.01043	0.00022
318.15	0.6997	0.0128	0.00027
318.15	0.7998	0.01549	0.00032
318.15	0.8818	0.01784	0.00037
318.15	1	0.02158	0.00044
323.15	0	0.0013	3e-05
323.15	0.1	0.00213	5e-05
323.15	0.15	0.00259	6e-05
323.15	0.1999	0.00301	7e-05
323.15	0.2996	0.00421	9e-05
323.15	0.4005	0.00559	0.00012
323.15	0.4986	0.00724	0.00015
323.15	0.6	0.00927	0.00019
323.15	0.6997	0.01131	0.00024
323.15	0.7998	0.01371	0.00029
323.15	0.8818	0.01572	0.00033
323.15	1	0.01882	0.00039

System: .gamma.-butyrolactone + 1-methyl-3-propylimidazolium bis[(trifluoromethyl)sulfonyl]imide; phases: Liquid
Fixed: Pressure, kPa = 100
Property: Electrical conductivity, S/m (Liquid); method: Direct current cell with electrodes
Temperature, K	Mole fraction of 1-methyl-3-propylimidazolium bis[(trifluoromethyl)sulfonyl]imide	Electrical conductivity, S/m	uncertainty
293.15	0.05	1.041	0.033
293.15	0.1	1.374	0.042
293.15	0.15	1.452	0.044
293.15	0.1999	1.37	0.041
293.15	0.2912	1.195	0.036
293.15	0.4005	0.89	0.027
293.15	0.4986	0.707	0.021
293.15	0.6	0.595	0.018
293.15	0.6997	0.498	0.015
293.15	0.7998	0.428	0.013
293.15	0.8818	0.387	0.012
293.15	1	0.355	0.011
298.15	0.05	1.132	0.036
298.15	0.1	1.503	0.046
298.15	0.15	1.598	0.048
298.15	0.1999	1.519	0.046
298.15	0.2912	1.377	0.041
298.15	0.4005	1.1	0.033
298.15	0.4986	0.87	0.026
298.15	0.6	0.692	0.021
298.15	0.6997	0.604	0.018
298.15	0.7998	0.526	0.016
298.15	0.8818	0.472	0.014
298.15	1	0.435	0.013
303.15	0.05	1.219	0.039
303.15	0.1	1.629	0.05
303.15	0.15	1.746	0.052
303.15	0.1999	1.665	0.05
303.15	0.2912	1.562	0.047
303.15	0.4005	1.22	0.037
303.15	0.4986	1.023	0.031
303.15	0.6	0.796	0.024
303.15	0.6997	0.714	0.021
303.15	0.7998	0.629	0.019
303.15	0.8818	0.564	0.017
303.15	1	0.521	0.016
308.15	0.05	1.311	0.042
308.15	0.1	1.76	0.054
308.15	0.15	1.897	0.057
308.15	0.1999	1.849	0.056
308.15	0.2912	1.746	0.052
308.15	0.4005	1.44	0.043
308.15	0.4986	1.268	0.038
308.15	0.6	0.992	0.03
308.15	0.6997	0.827	0.025
308.15	0.7998	0.737	0.022
308.15	0.8818	0.667	0.02
308.15	1	0.611	0.018
313.15	0.05	1.418	0.045
313.15	0.1	1.895	0.058
313.15	0.15	2.056	0.062
313.15	0.1999	2.02	0.061
313.15	0.2912	1.935	0.058
313.15	0.4005	1.641	0.049
313.15	0.4986	1.438	0.043
313.15	0.6	1.149	0.035
313.15	0.6997	1.03	0.031
313.15	0.7998	0.849	0.026
313.15	0.8818	0.789	0.024
313.15	1	0.71	0.021
318.15	0.05	1.518	0.048
318.15	0.1	2.03	0.062
318.15	0.15	2.216	0.067
318.15	0.1999	2.244	0.067
318.15	0.2912	2.133	0.064
318.15	0.4005	1.918	0.058
318.15	0.4986	1.682	0.051
318.15	0.6	1.41	0.042
318.15	0.6997	1.212	0.037
318.15	0.7998	0.997	0.03
318.15	0.8818	0.883	0.027
318.15	1	0.813	0.024
323.15	0.05	1.638	0.052
323.15	0.1	2.168	0.066
323.15	0.15	2.376	0.071
323.15	0.1999	2.411	0.072
323.15	0.2912	2.332	0.07
323.15	0.4005	2.102	0.063
323.15	0.4986	1.896	0.057
323.15	0.6	1.635	0.049
323.15	0.6997	1.394	0.042
323.15	0.7998	1.149	0.035
323.15	0.8818	1.026	0.031
323.15	1	0.923	0.028
