Measured thermophysical data. Heat capacity and enthalpy of fusion of pyrimethanil laurate (C24H37N3O2)
Source: J. Chem. Thermodyn., 2004, 10.1016/j.jct.2004.06.002
Compound 1: 4,6-dimethyl-N-phenylpyrimidin-2-amine dodecanoate, C24H37N3O2, InChI=1S/C12H13N3.C12H24O2/c1-9-8-10(2)14-12(13-9)15-11-6-4-3-5-7-11;1-2-3-4-5-6-7-8-9-10-11-12(13)14/h3-8H,1-2H3,(H,13,14,15);2-11H2,1H3,(H,13,14)

System: 4,6-dimethyl-N-phenylpyrimidin-2-amine dodecanoate; phases: Crystal, Liquid, Gas
Property: Molar enthalpy of transition or fusion, kJ/mol (Crystal); method: ADIACA:UFactor:2
Molar enthalpy of transition or fusion, kJ/mol	uncertainty
67.245	0.11

System: 4,6-dimethyl-N-phenylpyrimidin-2-amine dodecanoate; phases: Crystal, Liquid, Gas
Property: Triple point temperature, K (Crystal); method: ADIACA:UFactor:2
Triple point temperature, K	uncertainty
321.52	0.12

System: 4,6-dimethyl-N-phenylpyrimidin-2-amine dodecanoate; phases: Crystal
Fixed: Pressure, kPa = 101.325
Property: Molar heat capacity at constant pressure, J/K/mol (Crystal); method: SMALLAD:UFactor:2
Temperature, K	Molar heat capacity at constant pressure, J/K/mol	uncertainty
78.402	214.56	2.3447
80.594	219.02	2.3946
82.774	224.04	2.4445
84.912	229.03	2.4943
87.02	231.07	2.511
89.126	235.38	2.5525
91.21	238.58	2.3114
93.268	241.25	2.3281
95.351	244.45	2.353
97.443	249.07	2.3946
99.517	255.64	2.4445
101.557	258.48	2.4694
103.546	262.85	2.5027
105.483	266.32	2.5276
107.373	268.87	2.5525
109.228	272.45	2.5775
111.051	277.04	2.6191
112.844	280.4	2.644
114.617	283.66	2.6689
116.367	286.19	2.6939
118.099	289.83	2.7188
119.809	291.78	2.7355
121.504	295.26	2.7604
123.181	299.07	2.7937
124.846	302.36	2.8186
126.497	305.27	2.8435
128.13	309.31	2.8768
129.753	313.47	2.9101
131.36	316.7	2.935
133.506	320.85	2.9683
136.037	325.43	3.0015
138.469	328.35	3.0265
140.851	332.7	3.0597
143.199	334.95	3.0764
145.519	336.56	3.093
147.817	338.15	3.1013
150.087	340.57	3.1262
152.338	342.79	3.1429
154.568	344.26	3.1512
156.779	346.53	3.1761
158.978	347.92	3.1844
161.158	351.38	3.2094
163.312	355.11	3.2426
165.46	356.7	3.251
167.591	360.16	3.2842
169.71	363.66	3.3092
171.815	365.89	3.3258
173.908	368.25	3.3424
175.989	370.24	3.359
178.061	374.92	3.4006
180.105	378.77	3.4339
182.135	381.27	3.4505
184.155	384.86	3.4754
186.153	387.43	3.5004
188.138	391.88	3.5337
190.109	393.71	3.5503
192.064	396.41	3.5752
194.009	400.38	3.6002
195.939	403.84	3.6334
197.862	406.78	3.6584
199.773	410.78	3.6833
201.683	414.73	3.7166
203.584	416.01	3.7249
205.489	418.67	3.7498
207.387	423.8	3.7914
209.269	427.28	3.8163
213.631	430.93	3.8496
215.481	433.69	3.8662
217.331	437.16	3.8995
219.163	440.33	3.9244
220.991	444.57	3.9577
222.806	447.12	3.9743
224.609	450.71	4.0076
226.397	454.16	4.0325
228.168	457.43	4.0575
229.915	461.64	4.0907
231.659	464.26	4.1157
233.448	468.99	4.1489
235.258	472.26	4.1822
237.065	475.98	4.2071
238.858	479.33	4.2321
240.619	485.92	4.2903
242.331	489.49	4.3152
244.029	494.38	4.3568
245.761	499.28	4.3984
248.096	502	4.415
250.994	505.26	4.4399
253.795	509.97	4.4815
256.525	514.43	4.5148
259.211	517.59	4.5397
261.873	521.36	4.573
264.512	524.15	4.5896
267.132	529.61	4.6395
269.725	533.73	4.6727
272.295	537.73	4.706
274.788	541.43	4.7309
277.25	545.05	4.7642
279.668	549.95	4.7975
282.044	553.99	4.8307
284.355	557.02	4.8557
286.643	560.07	4.8806
288.902	564.82	4.9222
291.095	568.54	4.9471
293.226	573.27	4.9887
295.4	577.71	5.0219
297.595	582.62	5.0635
299.782	586.55	5.0885
301.949	590.35	5.1217
304.046	595.77	5.1633
306.132	598.65	5.1882
308.199	604.09	5.2298

System: 4,6-dimethyl-N-phenylpyrimidin-2-amine dodecanoate; phases: Liquid
Fixed: Pressure, kPa = 101.325
Property: Molar heat capacity at constant pressure, J/K/mol (Liquid); method: SMALLAD:UFactor:2
Temperature, K	Molar heat capacity at constant pressure, J/K/mol	uncertainty
323.462	830.56	7.0424
325.282	836.768	7.0922
327.089	842.173	7.1338
328.879	847.91	7.1837
330.652	851.319	7.2086
332.412	855.642	7.2419
334.15	860.215	7.2835
335.872	866.701	7.3334
337.574	869.278	7.3583
339.257	872.853	7.3833
