Measured thermophysical data. Phase behavior of ionic liquids 1-alkyl-3-methylimidazolium bis(trifluoromethylsulfonyl)imides with halogenated benzenes
Source: J. Chem. Thermodyn., 2015, 10.1016/j.jct.2015.04.012
Compound 1: 1-ethyl-3-methylimidazolium bis((trifluoromethyl)sulfonyl)imide, C8H11F6N3O4S2, InChI=1S/C6H11N2.C2F6NO4S2/c1-3-8-5-4-7(2)6-8;3-1(4,5)14(10,11)9-15(12,13)2(6,7)8/h4-6H,3H2,1-2H3;/q+1;-1, purity 98%
Compound 2: 1-methyl-3-propylimidazolium bis[(trifluoromethyl)sulfonyl]imide, C9H13F6N3O4S2, InChI=1S/C7H13N2.C2F6NO4S2/c1-3-4-9-6-5-8(2)7-9;3-1(4,5)14(10,11)9-15(12,13)2(6,7)8/h5-7H,3-4H2,1-2H3;/q+1;-1, purity 98%
Compound 3: 1-butyl-3-methylimidazolium bis(trifluoromethylsulfonyl)imide, C10H15F6N3O4S2, InChI=1S/C8H15N2.C2F6NO4S2/c1-3-4-5-10-7-6-9(2)8-10;3-1(4,5)14(10,11)9-15(12,13)2(6,7)8/h6-8H,3-5H2,1-2H3;/q+1;-1, purity 98%
Compound 4: 1-methyl-3-pentylimidazolium bis(trifluoromethylsulfonyl)imide, C11H17F6N3O4S2, InChI=1S/C9H17N2.C2F6NO4S2/c1-3-4-5-6-11-8-7-10(2)9-11;3-1(4,5)14(10,11)9-15(12,13)2(6,7)8/h7-9H,3-6H2,1-2H3;/q+1;-1, purity 98%
Compound 5: 1-hexyl-3-methylimidazolium bis[(trifluoromethyl)sulfonyl]imide, C12H19F6N3O4S2, InChI=1S/C10H19N2.C2F6NO4S2/c1-3-4-5-6-7-12-9-8-11(2)10-12;3-1(4,5)14(10,11)9-15(12,13)2(6,7)8/h8-10H,3-7H2,1-2H3;/q+1;-1, purity 98%
Compound 6: 1-heptyl-3-methylimidazolium bis(trifluoromethylsulfonyl)amide, C13H21F6N3O4S2, InChI=1S/C11H21N2.C2F6NO4S2/c1-3-4-5-6-7-8-13-10-9-12(2)11-13;3-1(4,5)14(10,11)9-15(12,13)2(6,7)8/h9-11H,3-8H2,1-2H3;/q+1;-1
Compound 7: 1-octyl-3-methylimidazolium bis[(trifluoromethyl)sulfonyl]imide, C14H23F6N3O4S2, InChI=1S/C12H23N2.C2F6NO4S2/c1-3-4-5-6-7-8-9-14-11-10-13(2)12-14;3-1(4,5)14(10,11)9-15(12,13)2(6,7)8/h10-12H,3-9H2,1-2H3;/q+1;-1, purity 98%
Compound 8: 1-decyl-3-methylimidazolium bis(trifluoromethylsulfonyl)amide, C16H27F6N3O4S2, InChI=1S/C14H27N2.C2F6NO4S2/c1-3-4-5-6-7-8-9-10-11-16-13-12-15(2)14-16;3-1(4,5)14(10,11)9-15(12,13)2(6,7)8/h12-14H,3-11H2,1-2H3;/q+1;-1, purity 98%
Compound 9: chlorobenzene, C6H5Cl, InChI=1S/C6H5Cl/c7-6-4-2-1-3-5-6/h1-5H, purity 99%
Compound 10: bromobenzene, C6H5Br, InChI=1S/C6H5Br/c7-6-4-2-1-3-5-6/h1-5H, purity 99%
Compound 11: iodobenzene, C6H5I, InChI=1S/C6H5I/c7-6-4-2-1-3-5-6/h1-5H, purity 99%
Compound 12: fluorobenzene, C6H5F, InChI=1S/C6H5F/c7-6-4-2-1-3-5-6/h1-5H, purity 99%
Compound 13: 1,2-dichlorobenzene, C6H4Cl2, InChI=1S/C6H4Cl2/c7-5-3-1-2-4-6(5)8/h1-4H, purity 99%
Compound 14: chlorobenzene-d5, C6D5Cl, InChI=1S/C6H5Cl/c7-6-4-2-1-3-5-6/h1-5H/i1D,2D,3D,4D,5D, purity 99%
Compound 15: bromobenzene-d5, C6D5Br, InChI=1S/C6H5Br/c7-6-4-2-1-3-5-6/h1-5H/i1D,2D,3D,4D,5D, purity 99%
Compound 16: 1,2-dichlorobenzene-d4, C6D4Cl2, InChI=1S/C6H4Cl2/c7-5-3-1-2-4-6(5)8/h1-4H/i1D,2D,3D,4D, purity 99%

System: chlorobenzene + 1-butyl-3-methylimidazolium bis(trifluoromethylsulfonyl)imide; phases: Liquid mixture 1, Liquid mixture 2
Fixed: Pressure, kPa = 100
Property: Liquid-liquid equilibrium temperature, K (Liquid mixture 1); method: VISOBS
Mass fraction of 1-butyl-3-methylimidazolium bis(trifluoromethylsulfonyl)imide	Liquid-liquid equilibrium temperature, K	uncertainty
0.0959	340	0.4
0.1025	341	0.4
0.1089	342.3	0.4
0.1163	343	0.3
0.123	343.7	0.3
0.1344	344.3	0.3
0.1448	344.9	0.3
0.1581	345.3	0.3
0.1711	345.5	0.3
0.1859	345.7	0.3
0.1967	345.7	0.3
0.2089	345.5	0.3
0.2192	345	0.3
0.2273	344.6	0.3
0.2392	344	0.3
0.2578	342.9	0.3
0.2755	341.4	0.3
0.2851	339.9	0.4

System: chlorobenzene-d5 + 1-butyl-3-methylimidazolium bis(trifluoromethylsulfonyl)imide; phases: Liquid mixture 1, Liquid mixture 2
Fixed: Pressure, kPa = 100
Property: Liquid-liquid equilibrium temperature, K (Liquid mixture 1); method: VISOBS
Mass fraction of 1-butyl-3-methylimidazolium bis(trifluoromethylsulfonyl)imide	Liquid-liquid equilibrium temperature, K	uncertainty
0.0995	325.6	0.4
0.107	326.9	0.4
0.1105	327.4	0.4
0.1148	328.1	0.3
0.1301	329.1	0.3
0.144	329.7	0.3
0.1566	330	0.3
0.1665	330.2	0.3
0.1824	330.3	0.3
0.1965	330.3	0.3
0.2108	329.8	0.3
0.2185	329.5	0.3
0.2276	328.9	0.3
0.2407	328.1	0.3
0.2538	326.4	0.4
0.2618	325.1	0.4

System: chlorobenzene + 1-methyl-3-pentylimidazolium bis(trifluoromethylsulfonyl)imide; phases: Liquid mixture 1, Liquid mixture 2
Fixed: Pressure, kPa = 100
Property: Liquid-liquid equilibrium temperature, K (Liquid mixture 1); method: VISOBS
Mass fraction of 1-methyl-3-pentylimidazolium bis(trifluoromethylsulfonyl)imide	Liquid-liquid equilibrium temperature, K	uncertainty
0.078	275.1	0.4
0.0844	276.2	0.4
0.0915	277.4	0.4
0.0964	277.9	0.3
0.1018	278.4	0.3
0.1109	278.8	0.3
0.1246	279.3	0.3
0.1381	279.5	0.3
0.1515	279.5	0.3
0.1623	279.5	0.3
0.1722	279.5	0.3
0.1788	279.5	0.3
0.1934	279.4	0.3
0.2023	279	0.3
0.2129	278.6	0.3
0.2217	278	0.3
0.2257	277.6	0.3
0.2312	277.1	0.3
0.2412	276.3	0.3
0.2447	275.8	0.4

System: bromobenzene + 1-butyl-3-methylimidazolium bis(trifluoromethylsulfonyl)imide; phases: Liquid mixture 1, Liquid mixture 2
Fixed: Pressure, kPa = 100
Property: Liquid-liquid equilibrium temperature, K (Liquid mixture 1); method: VISOBS
Mass fraction of 1-butyl-3-methylimidazolium bis(trifluoromethylsulfonyl)imide	Liquid-liquid equilibrium temperature, K	uncertainty
0.0884	389.8	0.6
0.0904	390.7	0.5
0.0955	391.7	0.4
0.1021	392.6	0.4
0.1055	392.9	0.3
0.1123	393.6	0.3
0.1223	394.2	0.3
0.1319	394.5	0.3
0.1439	394.6	0.3
0.1529	394.7	0.3
0.1618	394.7	0.3
0.1688	394.7	0.3
0.179	394.6	0.3
0.1869	394.4	0.3
0.1975	394.1	0.3
0.2043	393.8	0.3
0.2113	393.3	0.3
0.2175	393	0.3
0.2236	392.6	0.3
0.2308	392.1	0.3
0.235	391.6	0.4
0.2447	390.3	0.4
0.2546	388.7	0.4

System: bromobenzene-d5 + 1-butyl-3-methylimidazolium bis(trifluoromethylsulfonyl)imide; phases: Liquid mixture 1, Liquid mixture 2
Fixed: Pressure, kPa = 100
Property: Liquid-liquid equilibrium temperature, K (Liquid mixture 1); method: VISOBS
Mass fraction of 1-butyl-3-methylimidazolium bis(trifluoromethylsulfonyl)imide	Liquid-liquid equilibrium temperature, K	uncertainty
0.0802	373.9	0.5
0.0863	375.3	0.5
0.0901	375.8	0.3
0.0994	376.9	0.4
0.1045	377.6	0.4
0.1116	378.4	0.3
0.1219	378.9	0.3
0.1308	379	0.3
0.1467	379	0.3
0.1617	379	0.3
0.1708	379	0.3
0.1755	379	0.3
0.1886	378.8	0.3
0.2005	378	0.3
0.2145	376.9	0.3
0.2248	375.6	0.4
0.2366	373.9	0.4

System: bromobenzene + 1-methyl-3-pentylimidazolium bis(trifluoromethylsulfonyl)imide; phases: Liquid mixture 1, Liquid mixture 2
Fixed: Pressure, kPa = 100
Property: Liquid-liquid equilibrium temperature, K (Liquid mixture 1); method: VISOBS
Mass fraction of 1-methyl-3-pentylimidazolium bis(trifluoromethylsulfonyl)imide	Liquid-liquid equilibrium temperature, K	uncertainty
0.0682	334.3	0.3
0.0744	335	0.4
0.0805	336	0.4
0.0872	336.6	0.3
0.0921	337.1	0.3
0.1005	337.7	0.3
0.1115	338.1	0.3
0.1229	338.3	0.3
0.1369	338.3	0.3
0.1558	338.3	0.3
0.1699	338.1	0.3
0.1878	337.5	0.3
0.1961	337	0.3
0.2095	336.1	0.3
0.2162	335.4	0.4
0.2231	334.1	0.5

System: bromobenzene-d5 + 1-methyl-3-pentylimidazolium bis(trifluoromethylsulfonyl)imide; phases: Liquid mixture 1, Liquid mixture 2
Fixed: Pressure, kPa = 100
Property: Liquid-liquid equilibrium temperature, K (Liquid mixture 1); method: VISOBS
Mass fraction of 1-methyl-3-pentylimidazolium bis(trifluoromethylsulfonyl)imide	Liquid-liquid equilibrium temperature, K	uncertainty
0.0694	316.9	0.5
0.0727	317.6	0.5
0.0789	318.9	0.3
0.0904	319.6	0.3
0.1056	320.3	0.3
0.1195	320.5	0.3
0.1326	320.6	0.3
0.1454	320.5	0.3
0.1574	320.4	0.3
0.1661	320.3	0.3
0.1765	320.1	0.3
0.1845	319.6	0.3
0.1951	318.7	0.3
0.1993	318.2	0.4
0.2067	317.2	0.4
0.2192	315.7	0.3

System: bromobenzene + 1-hexyl-3-methylimidazolium bis[(trifluoromethyl)sulfonyl]imide; phases: Liquid mixture 1, Liquid mixture 2
Fixed: Pressure, kPa = 100
Property: Liquid-liquid equilibrium temperature, K (Liquid mixture 1); method: VISOBS
Mass fraction of 1-hexyl-3-methylimidazolium bis[(trifluoromethyl)sulfonyl]imide	Liquid-liquid equilibrium temperature, K	uncertainty
0.0581	287.4	0.4
0.0614	288	0.4
0.0685	289	0.4
0.0723	289.5	0.4
0.0773	290.2	0.3
0.0863	290.9	0.3
0.0957	291.4	0.3
0.1012	291.6	0.3
0.1113	291.8	0.3
0.1218	291.8	0.3
0.1288	291.8	0.3
0.1339	291.7	0.3
0.145	291.6	0.3
0.155	291.4	0.3
0.1679	290.7	0.3
0.1787	290.1	0.3
0.1889	289.1	0.3
0.1942	288.4	0.4
0.1978	288	0.3

System: iodobenzene + 1-hexyl-3-methylimidazolium bis[(trifluoromethyl)sulfonyl]imide; phases: Liquid mixture 1, Liquid mixture 2
Fixed: Pressure, kPa = 100
Property: Liquid-liquid equilibrium temperature, K (Liquid mixture 1); method: VISOBS
Mass fraction of 1-hexyl-3-methylimidazolium bis[(trifluoromethyl)sulfonyl]imide	Liquid-liquid equilibrium temperature, K	uncertainty
0.1097	399.2	0.3
0.1192	399.3	0.3
0.1284	399.3	0.3
0.1355	399.3	0.3
0.1445	399.3	0.3
0.1539	399.2	0.3
0.1619	399	0.3
0.1704	398.8	0.3
0.1798	398.5	0.3
0.1862	398.1	0.3
0.1002	398.9	0.3
0.0923	398.6	0.3
0.1932	397.5	0.3
0.203	396.9	0.3
0.0848	398.1	0.3
0.0795	397.6	0.4
0.0741	396.7	0.4
0.0701	396	0.4
0.2096	396.3	0.3
0.2191	395	0.4
0.0662	395.4	0.4

System: iodobenzene + 1-heptyl-3-methylimidazolium bis(trifluoromethylsulfonyl)amide; phases: Liquid mixture 1, Liquid mixture 2
Fixed: Pressure, kPa = 100
Property: Liquid-liquid equilibrium temperature, K (Liquid mixture 1); method: VISOBS
Mass fraction of 1-heptyl-3-methylimidazolium bis(trifluoromethylsulfonyl)amide	Liquid-liquid equilibrium temperature, K	uncertainty
0.0563	359.5	0.6
0.0613	360.8	0.4
0.0665	361.4	0.4
0.0729	362.3	0.3
0.0791	362.7	0.3
0.0855	363.1	0.3
0.0931	363.4	0.3
0.0981	363.5	0.3
0.1067	363.7	0.3
0.1153	363.9	0.3
0.1285	363.9	0.3
0.1363	363.8	0.3
0.147	363.6	0.3
0.155	363.3	0.3
0.1605	363.2	0.3
0.1677	362.9	0.3
0.1725	362.6	0.3
0.1802	362.3	0.3
0.1893	361.4	0.3
0.1958	360.7	0.3
0.2017	360	0.4
0.2044	359.6	0.4

System: iodobenzene + 1-octyl-3-methylimidazolium bis[(trifluoromethyl)sulfonyl]imide; phases: Liquid mixture 1, Liquid mixture 2
Fixed: Pressure, kPa = 100
Property: Liquid-liquid equilibrium temperature, K (Liquid mixture 1); method: VISOBS
Mass fraction of 1-octyl-3-methylimidazolium bis[(trifluoromethyl)sulfonyl]imide	Liquid-liquid equilibrium temperature, K	uncertainty
0.0506	329.7	0.5
0.0546	330.6	0.5
0.0602	331.6	0.4
0.0652	332.4	0.3
0.0728	333	0.3
0.0784	333.2	0.3
0.0844	333.5	0.3
0.0929	333.7	0.3
0.0991	333.8	0.3
0.107	333.8	0.3
0.116	333.8	0.3
0.125	333.8	0.3
0.1341	333.7	0.3
0.1416	333.7	0.3
0.1495	333.5	0.3
0.1584	332.9	0.3
0.1684	332.3	0.3
0.1774	331.5	0.3
0.1829	331.2	0.3
0.1966	330.2	0.3
0.2044	329.4	0.3

System: iodobenzene + 1-decyl-3-methylimidazolium bis(trifluoromethylsulfonyl)amide; phases: Liquid mixture 1, Liquid mixture 2
Fixed: Pressure, kPa = 100
Property: Liquid-liquid equilibrium temperature, K (Liquid mixture 1); method: VISOBS
Mass fraction of 1-decyl-3-methylimidazolium bis(trifluoromethylsulfonyl)amide	Liquid-liquid equilibrium temperature, K	uncertainty
0.0414	288.1	0.5
0.0457	289.1	0.4
0.0508	289.8	0.4
0.0561	290.4	0.3
0.0615	291	0.3
0.0682	291.7	0.3
0.0752	291.9	0.3
0.0843	291.9	0.3
0.0921	291.9	0.3
0.0993	291.9	0.3
0.1084	292	0.3
0.1174	292	0.3
0.1251	292	0.3
0.1356	291.6	0.3
0.1439	291.3	0.3
0.1524	290.9	0.3
0.1648	290.4	0.3
0.1694	289.9	0.3
0.1748	289.3	0.4
0.1816	288.4	0.4

System: 1,2-dichlorobenzene + 1-methyl-3-propylimidazolium bis[(trifluoromethyl)sulfonyl]imide; phases: Liquid mixture 1, Liquid mixture 2
Fixed: Pressure, kPa = 100
Property: Liquid-liquid equilibrium temperature, K (Liquid mixture 1); method: VISOBS
Mass fraction of 1-methyl-3-propylimidazolium bis[(trifluoromethyl)sulfonyl]imide	Liquid-liquid equilibrium temperature, K	uncertainty
0.1466	362.5	0.3
0.1672	364.1	0.3
0.1751	364.5	0.3
0.1858	365	0.3
0.1946	365.3	0.3
0.2064	365.3	0.3
0.2175	365.2	0.3
0.2374	365.3	0.3
0.2592	365.2	0.3
0.2698	365.3	0.3
0.2906	365.2	0.3
0.2964	365.2	0.3
0.3082	365	0.3
0.3189	364.9	0.3
0.3445	364.2	0.3
0.3459	364.2	0.3
0.3653	362.9	0.3
0.3741	362	0.3

System: 1,2-dichlorobenzene-d4 + 1-methyl-3-propylimidazolium bis[(trifluoromethyl)sulfonyl]imide; phases: Liquid mixture 1, Liquid mixture 2
Fixed: Pressure, kPa = 100
Property: Liquid-liquid equilibrium temperature, K (Liquid mixture 1); method: VISOBS
Mass fraction of 1-methyl-3-propylimidazolium bis[(trifluoromethyl)sulfonyl]imide	Liquid-liquid equilibrium temperature, K	uncertainty
0.1107	344.2	0.5
0.1272	347.5	0.3
0.1503	349.1	0.3
0.1726	350.1	0.3
0.1934	350.3	0.3
0.2164	350.6	0.3
0.2368	350.6	0.3
0.2554	350.5	0.3
0.277	350.5	0.3
0.2949	350.4	0.3
0.3108	350.2	0.3
0.3392	349.6	0.3
0.3588	348.3	0.3
0.3799	346.6	0.3
0.3975	344	0.4

System: 1,2-dichlorobenzene + 1-butyl-3-methylimidazolium bis(trifluoromethylsulfonyl)imide; phases: Liquid mixture 1, Liquid mixture 2
Fixed: Pressure, kPa = 100
Property: Liquid-liquid equilibrium temperature, K (Liquid mixture 1); method: VISOBS
Mass fraction of 1-butyl-3-methylimidazolium bis(trifluoromethylsulfonyl)imide	Liquid-liquid equilibrium temperature, K	uncertainty
0.1106	298.5	0.4
0.1232	300.4	0.3
0.1338	301.3	0.3
0.1356	301.4	0.3
0.1506	302.5	0.3
0.1561	302.7	0.3
0.1784	303.4	0.3
0.2046	303.6	0.3
0.2333	303.7	0.3
0.2519	303.7	0.3
0.2584	303.6	0.3
0.2762	303.5	0.3
0.2998	303.3	0.3
0.3192	302.7	0.3
0.3368	302.1	0.3
0.3384	301.9	0.3
0.3532	300.7	0.3
0.3733	299.2	0.3
0.3892	297.7	0.3

System: 1,2-dichlorobenzene-d4 + 1-butyl-3-methylimidazolium bis(trifluoromethylsulfonyl)imide; phases: Liquid mixture 1, Liquid mixture 2
Fixed: Pressure, kPa = 100
Property: Liquid-liquid equilibrium temperature, K (Liquid mixture 1); method: VISOBS
Mass fraction of 1-butyl-3-methylimidazolium bis(trifluoromethylsulfonyl)imide	Liquid-liquid equilibrium temperature, K	uncertainty
0.0973	282.5	0.3
0.1096	283.9	0.3
0.1214	285.1	0.3
0.1349	286.4	0.3
0.1509	287.1	0.3
0.1702	287.3	0.3
0.1887	287.5	0.3
0.2106	287.6	0.3
0.2326	287.6	0.3
0.2547	287.5	0.3
0.2748	287.3	0.3
0.2937	286.8	0.3
0.3014	286.6	0.3
0.3234	285.6	0.3
0.3525	283.8	0.3
0.3846	281.7	0.3

System: fluorobenzene + 1-ethyl-3-methylimidazolium bis((trifluoromethyl)sulfonyl)imide + 1-methyl-3-propylimidazolium bis[(trifluoromethyl)sulfonyl]imide; phases: Liquid mixture 1, Liquid mixture 2
Fixed: Pressure, kPa = 100
Property: Liquid-liquid equilibrium temperature, K (Liquid mixture 1); method: VISOBS
Solvent: Mole fraction of 1-ethyl-3-methylimidazolium bis((trifluoromethyl)sulfonyl)imide	Mass fraction of fluorobenzene	Liquid-liquid equilibrium temperature, K	uncertainty
0.63	0.7753	299.2	0.5
0.38	0.7767	357.2	0.5
