Measured thermophysical data. Density and viscosity of three (2,2,2-trifluoroethanol + 1-butyl-3-methylimidazolium) ionic liquid binary systems
Source: J. Chem. Thermodyn., 2014, 10.1016/j.jct.2013.10.027
Compound 1: 2,2,2-trifluoroethanol, C2H3F3O, InChI=1S/C2H3F3O/c3-2(4,5)1-6/h6H,1H2, purity 99.96%
Compound 2: 1-butyl-3-methylimidazolium tetrafluoroborate, C8H15BF4N2, InChI=1S/C8H15N2.BF4/c1-3-4-5-10-7-6-9(2)8-10;2-1(3,4)5/h6-8H,3-5H2,1-2H3;/q+1;-1, purity 99.3%
Compound 3: 1-butyl-3-methylimidazolium hexafluorophosphate, C8H15F6N2P, InChI=1S/C8H15N2.F6P/c1-3-4-5-10-7-6-9(2)8-10;1-7(2,3,4,5)6/h6-8H,3-5H2,1-2H3;/q+1;-1, purity 99.97%
Compound 4: 1-butyl-3-methylimidazolium bis(trifluoromethylsulfonyl)imide, C10H15F6N3O4S2, InChI=1S/C8H15N2.C2F6NO4S2/c1-3-4-5-10-7-6-9(2)8-10;3-1(4,5)14(10,11)9-15(12,13)2(6,7)8/h6-8H,3-5H2,1-2H3;/q+1;-1, purity 99.7%

System: 2,2,2-trifluoroethanol; phases: Liquid
Fixed: Pressure, kPa = 101.325
Property: Mass density, kg/m3 (Liquid); method: Vibrating tube method
Temperature, K	Mass density, kg/m3	uncertainty
278.15	1416.6	1.4
283.15	1408.5	1.4
288.15	1400.2	1.4
293.15	1391.8	1.4
298.15	1383.4	1.4
303.15	1374.9	1.4
308.15	1366.2	1.4
313.15	1357.4	1.4
318.15	1348.5	1.4
323.15	1339.4	1.3
328.15	1330.1	1.3
333.15	1320.7	1.3

System: 2,2,2-trifluoroethanol; phases: Liquid
Fixed: Pressure, kPa = 101.325
Property: Viscosity, Pa*s (Liquid); method: Concentric cylinders viscometry
Temperature, K	Viscosity, Pa*s	uncertainty
278.15	0.00328	7e-05
283.15	0.00281	6e-05
288.15	0.00242	5e-05
293.15	0.00211	4e-05
298.15	0.00184	4e-05
303.15	0.00162	3e-05
308.15	0.00143	3e-05
313.15	0.00127	3e-05
318.15	0.00113	2e-05
323.15	0.00102	2e-05
328.15	0.000925	2e-05
333.15	0.000824	1.8e-05

System: 1-butyl-3-methylimidazolium tetrafluoroborate; phases: Liquid
Fixed: Pressure, kPa = 101.325
Property: Mass density, kg/m3 (Liquid); method: Vibrating tube method
Temperature, K	Mass density, kg/m3	uncertainty
278.15	1216.9	1.2
283.15	1213.3	1.2
288.15	1209.6	1.2
293.15	1206	1.2
298.15	1202.5	1.2
303.15	1198.9	1.2
308.15	1195.4	1.2
313.15	1191.9	1.2
318.15	1188.3	1.2
323.15	1184.9	1.2
328.15	1181.4	1.2
333.15	1177.9	1.2
338.15	1174.4	1.2
343.15	1170.9	1.2
348.15	1167.5	1.2
353.15	1164	1.2
358.15	1160.6	1.2
363.15	1157.1	1.2
368.15	1153.5	1.2
373.15	1150.1	1.2

System: 1-butyl-3-methylimidazolium tetrafluoroborate; phases: Liquid
Fixed: Pressure, kPa = 101.325
Property: Viscosity, Pa*s (Liquid); method: Concentric cylinders viscometry
Temperature, K	Viscosity, Pa*s	uncertainty
278.15	0.36	0.011
283.15	0.255	0.007
288.15	0.186	0.005
293.15	0.139	0.003
298.15	0.106	0.002
303.15	0.0822	0.0017
308.15	0.065	0.0013
313.15	0.0522	0.0011
318.15	0.0426	0.0009
323.15	0.0352	0.0007
328.15	0.0295	0.0006
333.15	0.025	0.0005
338.15	0.0213	0.0004
343.15	0.0184	0.0004
348.15	0.016	0.0003
353.15	0.0141	0.0003
358.15	0.0124	0.0003
363.15	0.011	0.0002
368.15	0.00989	0.0002
373.15	0.00889	0.00018

System: 1-butyl-3-methylimidazolium hexafluorophosphate; phases: Liquid
Fixed: Pressure, kPa = 101.325
Property: Mass density, kg/m3 (Liquid); method: Vibrating tube method
Temperature, K	Mass density, kg/m3	uncertainty
278.15	1385.4	1.4
283.15	1381.1	1.4
288.15	1376.7	1.4
293.15	1372.3	1.4
298.15	1368	1.4
303.15	1363.8	1.4
308.15	1359.7	1.4
313.15	1355.6	1.4
318.15	1351.6	1.4
323.15	1347.5	1.4
328.15	1343.5	1.4
333.15	1339.4	1.3
338.15	1335.4	1.3
343.15	1331.3	1.3
348.15	1327.3	1.3
353.15	1323.2	1.3
358.15	1319.1	1.3
363.15	1314.9	1.3
368.15	1310.8	1.3
373.15	1307	1.3

System: 1-butyl-3-methylimidazolium hexafluorophosphate; phases: Liquid
Fixed: Pressure, kPa = 101.325
Property: Viscosity, Pa*s (Liquid); method: Concentric cylinders viscometry
Temperature, K	Viscosity, Pa*s	uncertainty
278.15	1.165	0.051
283.15	0.774	0.03
288.15	0.533	0.019
293.15	0.378	0.012
298.15	0.274	0.008
303.15	0.203	0.005
308.15	0.154	0.004
313.15	0.119	0.003
318.15	0.0935	0.002
323.15	0.0746	0.0015
328.15	0.0604	0.0012
333.15	0.0495	0.001
338.15	0.0411	0.0008
343.15	0.0345	0.0007
348.15	0.0293	0.0006
353.15	0.025	0.0005
358.15	0.0216	0.0004
363.15	0.0188	0.0004
368.15	0.0165	0.0003
373.15	0.0145	0.0003

System: 1-butyl-3-methylimidazolium bis(trifluoromethylsulfonyl)imide; phases: Liquid
Fixed: Pressure, kPa = 101.325
Property: Mass density, kg/m3 (Liquid); method: Vibrating tube method
Temperature, K	Mass density, kg/m3	uncertainty
278.15	1456.1	1.5
283.15	1451.3	1.5
288.15	1446.5	1.5
293.15	1441.6	1.5
298.15	1436.8	1.5
303.15	1432	1.4
308.15	1427.2	1.4
313.15	1422.5	1.4
318.15	1417.8	1.4
323.15	1413.1	1.4
328.15	1408.5	1.4
333.15	1403.8	1.4
338.15	1399.2	1.4
343.15	1394.6	1.4
348.15	1390	1.4
353.15	1385.4	1.4
358.15	1380.8	1.4
363.15	1375.9	1.4
368.15	1371.1	1.4
373.15	1366.6	1.4

System: 1-butyl-3-methylimidazolium bis(trifluoromethylsulfonyl)imide; phases: Liquid
Fixed: Pressure, kPa = 101.325
Property: Viscosity, Pa*s (Liquid); method: Concentric cylinders viscometry
Temperature, K	Viscosity, Pa*s	uncertainty
278.15	0.143	0.003
283.15	0.107	0.002
288.15	0.0824	0.0017
293.15	0.0646	0.0013
298.15	0.0516	0.001
303.15	0.0419	0.0009
308.15	0.0346	0.0007
313.15	0.0289	0.0006
318.15	0.0244	0.0005
323.15	0.0209	0.0004
328.15	0.018	0.0004
333.15	0.0157	0.0003
338.15	0.0137	0.0003
343.15	0.0121	0.0003
348.15	0.0108	0.0002
353.15	0.00968	0.0002
358.15	0.00871	0.00018
363.15	0.00788	0.00016
368.15	0.00717	0.00015
373.15	0.00655	0.00013

System: 2,2,2-trifluoroethanol + 1-butyl-3-methylimidazolium tetrafluoroborate; phases: Liquid
Fixed: Pressure, kPa = 101
Property: Mass density, kg/m3 (Liquid); method: Vibrating tube method
Temperature, K	Mole fraction of 2,2,2-trifluoroethanol	Mass density, kg/m3	uncertainty
278.15	0.3913	1253.7	1.3
283.15	0.3913	1249.4	1.3
288.15	0.3913	1245.2	1.3
293.15	0.3913	1240.9	1.3
298.15	0.3913	1236.7	1.2
303.15	0.3913	1232.5	1.2
308.15	0.3913	1228.3	1.2
313.15	0.3913	1224.2	1.2
318.15	0.3913	1220	1.2
323.15	0.3913	1215.9	1.2
328.15	0.3913	1211.8	1.2
333.15	0.3913	1207.7	1.2
278.15	0.5788	1279.8	1.3
283.15	0.5788	1275	1
288.15	0.5788	1270.2	1.3
293.15	0.5788	1265.4	1.3
298.15	0.5788	1260.6	1.3
303.15	0.5788	1255.9	1.3
308.15	0.5788	1251.2	1.3
313.15	0.5788	1246.5	1.3
318.15	0.5788	1241.8	1.3
323.15	0.5788	1237.1	1.2
328.15	0.5788	1232.4	1.2
333.15	0.5788	1227.8	1.2
278.15	0.7238	1311.2	1.3
283.15	0.7238	1305.7	1.3
288.15	0.7238	1300.1	1.3
293.15	0.7238	1294.6	1.3
298.15	0.7238	1289.1	1.3
303.15	0.7238	1283.7	1.3
308.15	0.7238	1278.2	1.3
313.15	0.7238	1272.7	1.3
318.15	0.7238	1267.3	1.3
323.15	0.7238	1261.9	1.3
328.15	0.7238	1256.5	1.3
333.15	0.7238	1250.9	1.3
278.15	0.8247	1340.7	1.4
283.15	0.8247	1334.6	1.3
288.15	0.8247	1328.3	1.3
293.15	0.8247	1322.1	1.3
298.15	0.8247	1316	1
303.15	0.8247	1309.8	1.3
308.15	0.8247	1303.6	1.3
313.15	0.8247	1297.4	1.3
318.15	0.8247	1291.2	1.3
323.15	0.8247	1285	1
328.15	0.8247	1278.8	1.3
333.15	0.8247	1272.5	1.3
278.15	0.9013	1369.8	1.4
283.15	0.9013	1363	1
288.15	0.9013	1356.1	1.4
293.15	0.9013	1349.2	1.4
298.15	0.9013	1342.3	1.4
303.15	0.9013	1335.4	1.3
308.15	0.9013	1328.4	1.3
313.15	0.9013	1321.4	1.3
318.15	0.9013	1314.3	1.3
323.15	0.9013	1307.3	1.3
328.15	0.9013	1300.3	1.3
333.15	0.9013	1293.1	1.3
278.15	0.9587	1396.6	1.4
283.15	0.9587	1389.2	1.4
288.15	0.9587	1381.8	1.4
293.15	0.9587	1374.5	1.4
298.15	0.9587	1366.3	1.4
303.15	0.9587	1358.4	1.4
308.15	0.9587	1350.7	1.4
313.15	0.9587	1342.8	1.4
318.15	0.9587	1334.8	1.3
323.15	0.9587	1326.7	1.3
328.15	0.9587	1318.4	1.3
333.15	0.9587	1307.7	1.3
278.15	1	1416.6	1.4
283.15	1	1408.5	1.4
288.15	1	1400.2	1.4
293.15	1	1391.8	1.4
298.15	1	1383.4	1.4
303.15	1	1374.9	1.4
308.15	1	1366.2	1.4
313.15	1	1357.4	1.4
318.15	1	1348.5	1.4
323.15	1	1339.4	1.3
328.15	1	1330.1	1.3
333.15	1	1320.7	1.3
278.15	0	1216.9	1.2
283.15	0	1213.3	1.2
288.15	0	1209.6	1.2
293.15	0	1206	1.2
298.15	0	1202.5	1.2
303.15	0	1198.9	1.2
308.15	0	1195.4	1.2
313.15	0	1191.9	1.2
318.15	0	1188.3	1.2
323.15	0	1184.9	1.2
328.15	0	1181.4	1.2
333.15	0	1177.9	1.2

System: 2,2,2-trifluoroethanol + 1-butyl-3-methylimidazolium tetrafluoroborate; phases: Liquid
Fixed: Pressure, kPa = 101
Property: Viscosity, Pa*s (Liquid); method: Concentric cylinders viscometry
Temperature, K	Mole fraction of 2,2,2-trifluoroethanol	Viscosity, Pa*s	uncertainty
278.15	0.3913	0.04231	0.0009
283.15	0.3913	0.03409	0.0007
288.15	0.3913	0.02793	0.00057
293.15	0.3913	0.02321	0.00047
298.15	0.3913	0.01952	0.0004
303.15	0.3913	0.01661	0.00034
308.15	0.3913	0.01428	0.00029
313.15	0.3913	0.01239	0.00025
318.15	0.3913	0.01084	0.00022
323.15	0.3913	0.00956	0.0002
328.15	0.3913	0.00849	0.00017
333.15	0.3913	0.00759	0.00016
278.15	0.5788	0.01582	0.00032
283.15	0.5788	0.01339	0.00027
288.15	0.5788	0.01145	0.00023
293.15	0.5788	0.00989	0.0002
298.15	0.5788	0.00863	0.00018
303.15	0.5788	0.00759	0.00015
308.15	0.5788	0.00672	0.00014
313.15	0.5788	0.006	0.00012
318.15	0.5788	0.00539	0.00011
323.15	0.5788	0.00487	0.0001
328.15	0.5788	0.00442	9e-05
333.15	0.5788	0.00403	8e-05
278.15	0.7238	0.00733	0.00015
283.15	0.7238	0.00637	0.00013
288.15	0.7238	0.00559	0.00011
293.15	0.7238	0.00495	0.0001
298.15	0.7238	0.00441	9e-05
303.15	0.7238	0.00396	8e-05
308.15	0.7238	0.00357	7e-05
313.15	0.7238	0.00325	7e-05
318.15	0.7238	0.00297	6e-05
323.15	0.7238	0.00272	6e-05
328.15	0.7238	0.0025	5e-05
333.15	0.7238	0.00231	5e-05
278.15	0.8247	0.00471	0.0001
283.15	0.8247	0.00413	8e-05
288.15	0.8247	0.00366	7e-05
293.15	0.8247	0.00327	7e-05
298.15	0.8247	0.00293	6e-05
303.15	0.8247	0.00265	5e-05
308.15	0.8247	0.00241	5e-05
313.15	0.8247	0.00221	5e-05
318.15	0.8247	0.00202	4e-05
323.15	0.8247	0.00187	4e-05
328.15	0.8247	0.00172	4e-05
333.15	0.8247	0.00159	3e-05
278.15	0.9013	0.00371	8e-05
283.15	0.9013	0.00325	7e-05
288.15	0.9013	0.00288	6e-05
293.15	0.9013	0.00256	5e-05
298.15	0.9013	0.0023	5e-05
303.15	0.9013	0.00207	4e-05
308.15	0.9013	0.00188	4e-05
313.15	0.9013	0.00171	4e-05
318.15	0.9013	0.00156	3e-05
323.15	0.9013	0.00143	3e-05
328.15	0.9013	0.00131	3e-05
333.15	0.9013	0.00121	3e-05
278.15	0.9587	0.00342	7e-05
283.15	0.9587	0.00297	6e-05
288.15	0.9587	0.0026	5e-05
293.15	0.9587	0.00229	5e-05
298.15	0.9587	0.00203	4e-05
303.15	0.9587	0.00181	4e-05
308.15	0.9587	0.00162	3e-05
313.15	0.9587	0.00146	3e-05
318.15	0.9587	0.00133	3e-05
323.15	0.9587	0.00121	3e-05
328.15	0.9587	0.0011	2e-05
333.15	0.9587	0.001	2e-05
278.15	1	0.00328	7e-05
283.15	1	0.00281	6e-05
288.15	1	0.00242	5e-05
293.15	1	0.00211	4e-05
298.15	1	0.00184	4e-05
303.15	1	0.00162	3e-05
308.15	1	0.00143	3e-05
313.15	1	0.00127	3e-05
318.15	1	0.00113	2e-05
323.15	1	0.00102	2e-05
328.15	1	0.000925	2e-05
333.15	1	0.000824	1.8e-05
278.15	0	0.36	0.011
283.15	0	0.255	0.007
288.15	0	0.186	0.005
293.15	0	0.139	0.003
298.15	0	0.106	0.002
303.15	0	0.0822	0.0017
308.15	0	0.065	0.0013
313.15	0	0.0522	0.0011
318.15	0	0.0426	0.0009
323.15	0	0.0352	0.0007
328.15	0	0.0295	0.0006
333.15	0	0.025	0.0005

System: 2,2,2-trifluoroethanol + 1-butyl-3-methylimidazolium hexafluorophosphate; phases: Liquid
Fixed: Pressure, kPa = 101
Property: Mass density, kg/m3 (Liquid); method: Vibrating tube method
Temperature, K	Mole fraction of 2,2,2-trifluoroethanol	Mass density, kg/m3	uncertainty
278.15	0.4632	1392.1	1.4
283.15	0.4632	1387.2	1.4
288.15	0.4632	1382.2	1.4
293.15	0.4632	1377.3	1.4
298.15	0.4632	1372.4	1.4
303.15	0.4632	1367.5	1.4
308.15	0.4632	1362.6	1.4
313.15	0.4632	1357.7	1.4
318.15	0.4632	1352.8	1.4
323.15	0.4632	1348	1.4
328.15	0.4632	1343.2	1.4
333.15	0.4632	1338.5	1.3
278.15	0.5646	1394.7	1.4
283.15	0.5646	1389.6	1.4
288.15	0.5646	1384.3	1.4
293.15	0.5646	1379.1	1.4
298.15	0.5646	1373.8	1.4
303.15	0.5646	1368.6	1.4
308.15	0.5646	1363.4	1.4
313.15	0.5646	1358.2	1.4
318.15	0.5646	1353	1
323.15	0.5646	1347.9	1.4
328.15	0.5646	1342.7	1.4
333.15	0.5646	1337.6	1.3
278.15	0.7299	1401.4	1.4
283.15	0.7299	1395.5	1.4
288.15	0.7299	1389.5	1.4
293.15	0.7299	1383.5	1.4
298.15	0.7299	1377.6	1.4
303.15	0.7299	1371.7	1.4
308.15	0.7299	1365.7	1.4
313.15	0.7299	1359.8	1.4
318.15	0.7299	1353.9	1.4
323.15	0.7299	1348	1
328.15	0.7299	1342.1	1.4
333.15	0.7299	1336.2	1.3
278.15	0.8308	1407	2
283.15	0.8308	1400.5	1.4
288.15	0.8308	1393.9	1.4
293.15	0.8308	1387.4	1.4
298.15	0.8308	1380.8	1.4
303.15	0.8308	1374.2	1.4
308.15	0.8308	1367.7	1.4
313.15	0.8308	1361.1	1.4
318.15	0.8308	1354.5	1.4
323.15	0.8308	1347.9	1.4
328.15	0.8308	1341.3	1.4
333.15	0.8308	1334.7	1.3
278.15	0.9417	1414.9	1.4
283.15	0.9417	1407.8	1.4
288.15	0.9417	1400.4	1.4
293.15	0.9417	1392.8	1.4
298.15	0.9417	1385.2	1.4
303.15	0.9417	1377.5	1.4
308.15	0.9417	1369.9	1.4
313.15	0.9417	1362.2	1.4
318.15	0.9417	1354.4	1.4
323.15	0.9417	1346.6	1.4
328.15	0.9417	1338.6	1.3
333.15	0.9417	1330.6	1.3
278.15	1	1416.6	1.4
283.15	1	1408.5	1.4
288.15	1	1400.2	1.4
293.15	1	1391.8	1.4
298.15	1	1383.4	1.4
303.15	1	1374.9	1.4
308.15	1	1366.2	1.4
313.15	1	1357.4	1.4
318.15	1	1348.5	1.4
323.15	1	1339.4	1.3
328.15	1	1330.1	1.3
333.15	1	1320.7	1.3
278.15	0	1385.4	1.4
283.15	0	1381.1	1.4
288.15	0	1376.7	1.4
293.15	0	1372.3	1.4
298.15	0	1368	1.4
303.15	0	1363.8	1.4
308.15	0	1359.7	1.4
313.15	0	1355.6	1.4
318.15	0	1351.6	1.4
323.15	0	1347.5	1.4
328.15	0	1343.5	1.4
333.15	0	1339.4	1.3

System: 2,2,2-trifluoroethanol + 1-butyl-3-methylimidazolium hexafluorophosphate; phases: Liquid
Fixed: Pressure, kPa = 101
Property: Viscosity, Pa*s (Liquid); method: Concentric cylinders viscometry
Temperature, K	Mole fraction of 2,2,2-trifluoroethanol	Viscosity, Pa*s	uncertainty
278.15	0.4632	0.05131	0.00103
283.15	0.4632	0.04066	0.00082
288.15	0.4632	0.03271	0.00066
293.15	0.4632	0.02674	0.00054
298.15	0.4632	0.02217	0.00045
303.15	0.4632	0.01863	0.00038
308.15	0.4632	0.01584	0.00032
313.15	0.4632	0.01361	0.00028
318.15	0.4632	0.01181	0.00024
323.15	0.4632	0.01034	0.00021
328.15	0.4632	0.00912	0.00019
333.15	0.4632	0.0081	0.00016
278.15	0.5646	0.02728	0.00055
283.15	0.5646	0.02232	0.00045
288.15	0.5646	0.01839	0.00037
293.15	0.5646	0.01536	0.00031
298.15	0.5646	0.013	0.00026
303.15	0.5646	0.01113	0.00023
308.15	0.5646	0.00964	0.0002
313.15	0.5646	0.00842	0.00017
318.15	0.5646	0.00742	0.00015
323.15	0.5646	0.00659	0.00013
328.15	0.5646	0.00589	0.00012
333.15	0.5646	0.0053	0.00011
278.15	0.7299	0.01069	0.00022
283.15	0.7299	0.00893	0.00018
288.15	0.7299	0.00758	0.00015
293.15	0.7299	0.00651	0.00013
298.15	0.7299	0.00565	0.00012
303.15	0.7299	0.00495	0.0001
308.15	0.7299	0.00438	9e-05
313.15	0.7299	0.0039	8e-05
318.15	0.7299	0.00349	7e-05
323.15	0.7299	0.00315	6e-05
328.15	0.7299	0.00285	6e-05
333.15	0.7299	0.00262	5e-05
278.15	0.8308	0.00623	0.00013
283.15	0.8308	0.00529	0.00011
288.15	0.8308	0.00456	9e-05
293.15	0.8308	0.00397	8e-05
298.15	0.8308	0.00349	7e-05
303.15	0.8308	0.00309	6e-05
308.15	0.8308	0.00276	6e-05
313.15	0.8308	0.00249	5e-05
318.15	0.8308	0.00225	5e-05
323.15	0.8308	0.00205	4e-05
328.15	0.8308	0.00188	4e-05
333.15	0.8308	0.00173	4e-05
278.15	0.9417	0.0038	8e-05
283.15	0.9417	0.00326	7e-05
288.15	0.9417	0.00284	6e-05
293.15	0.9417	0.00249	5e-05
298.15	0.9417	0.00221	5e-05
303.15	0.9417	0.00196	4e-05
308.15	0.9417	0.00176	4e-05
313.15	0.9417	0.00157	3e-05
318.15	0.9417	0.00141	3e-05
323.15	0.9417	0.00128	3e-05
328.15	0.9417	0.00118	3e-05
333.15	0.9417	0.00107	2e-05
278.15	1	0.00328	7e-05
283.15	1	0.00281	6e-05
288.15	1	0.00242	5e-05
293.15	1	0.00211	4e-05
298.15	1	0.00184	4e-05
303.15	1	0.00162	3e-05
308.15	1	0.00143	3e-05
313.15	1	0.00127	3e-05
318.15	1	0.00113	2e-05
323.15	1	0.00102	2e-05
328.15	1	0.000925	2e-05
333.15	1	0.000824	1.8e-05
278.15	0	1.165	0.051
283.15	0	0.774	0.03
288.15	0	0.533	0.019
293.15	0	0.378	0.012
298.15	0	0.274	0.008
303.15	0	0.203	0.005
308.15	0	0.154	0.004
313.15	0	0.119	0.003
318.15	0	0.0935	0.002
323.15	0	0.0746	0.0015
328.15	0	0.0604	0.0012
333.15	0	0.0495	0.001

System: 2,2,2-trifluoroethanol + 1-butyl-3-methylimidazolium bis(trifluoromethylsulfonyl)imide; phases: Liquid
Fixed: Pressure, kPa = 101
Property: Mass density, kg/m3 (Liquid); method: Vibrating tube method
Temperature, K	Mole fraction of 2,2,2-trifluoroethanol	Mass density, kg/m3	uncertainty
278.15	0.0877	1455.2	1.5
283.15	0.0877	1450.3	1.5
288.15	0.0877	1445.4	1.5
293.15	0.0877	1440.5	1.5
298.15	0.0877	1435.6	1.5
303.15	0.0877	1430.7	1.4
308.15	0.0877	1425.8	1.4
313.15	0.0877	1421	1.4
318.15	0.0877	1416.2	1.4
323.15	0.0877	1411.4	1.4
328.15	0.0877	1406.6	1.4
333.15	0.0877	1401.9	1.4
278.15	0.2626	1453.1	1.5
283.15	0.2626	1448	1.5
288.15	0.2626	1442.9	1.5
293.15	0.2626	1437.7	1.5
298.15	0.2626	1432.7	1.4
303.15	0.2626	1427.6	1.4
308.15	0.2626	1422.6	1.4
313.15	0.2626	1417.5	1.4
318.15	0.2626	1412.5	1.4
323.15	0.2626	1407.6	1.4
328.15	0.2626	1402.6	1.4
333.15	0.2626	1397.7	1.4
278.15	0.4753	1449.1	1.5
283.15	0.4753	1443.7	1.5
288.15	0.4753	1438.2	1.5
293.15	0.4753	1432.8	1.4
298.15	0.4753	1427.3	1.4
303.15	0.4753	1422	1.4
308.15	0.4753	1416.6	1.4
313.15	0.4753	1411.3	1.4
318.15	0.4753	1406	1.4
323.15	0.4753	1400.7	1.4
328.15	0.4753	1395.5	1.4
333.15	0.4753	1390.2	1.4
278.15	0.6153	1445.5	1.5
283.15	0.6153	1439.8	1.5
288.15	0.6153	1434	1.4
293.15	0.6153	1428.2	1.4
298.15	0.6153	1422.4	1.4
303.15	0.6153	1416.7	1.4
308.15	0.6153	1411	1.4
313.15	0.6153	1405.4	1.4
318.15	0.6153	1399.7	1.4
323.15	0.6153	1394.1	1.4
328.15	0.6153	1388.4	1.4
333.15	0.6153	1382.8	1.4
278.15	0.7568	1439.9	1.5
283.15	0.7568	1433.7	1.4
288.15	0.7568	1427.3	1.4
293.15	0.7568	1421.1	1.4
298.15	0.7568	1414.8	1.4
303.15	0.7568	1408.6	1.4
308.15	0.7568	1402.4	1.4
313.15	0.7568	1396.2	1.4
318.15	0.7568	1389.9	1.4
323.15	0.7568	1383.8	1.4
328.15	0.7568	1377.6	1.4
333.15	0.7568	1371.4	1.4
278.15	0.8748	1433.5	1.4
283.15	0.8748	1426.8	1.4
288.15	0.8748	1419.8	1.4
293.15	0.8748	1412.5	1.4
298.15	0.8748	1405.6	1.4
303.15	0.8748	1398.9	1.4
308.15	0.8748	1392	1.4
313.15	0.8748	1384.4	1.4
318.15	0.8748	1377.5	1.4
323.15	0.8748	1370.5	1.4
328.15	0.8748	1363.3	1.4
333.15	0.8748	1356	1.4
278.15	1	1416.6	1.4
283.15	1	1408.5	1.4
288.15	1	1400.2	1.4
293.15	1	1391.8	1.4
298.15	1	1383.4	1.4
303.15	1	1374.9	1.4
308.15	1	1366.2	1.4
313.15	1	1357.4	1.4
318.15	1	1348.5	1.4
323.15	1	1339.4	1.3
328.15	1	1330.1	1.3
333.15	1	1320.7	1.3
278.15	0	1456.1	1.5
283.15	0	1451.3	1.5
288.15	0	1446.5	1.5
293.15	0	1441.6	1.5
298.15	0	1436.8	1.5
303.15	0	1432	1.4
308.15	0	1427.2	1.4
313.15	0	1422.5	1.4
318.15	0	1417.8	1.4
323.15	0	1413.1	1.4
328.15	0	1408.5	1.4
333.15	0	1403.8	1.4

System: 2,2,2-trifluoroethanol + 1-butyl-3-methylimidazolium bis(trifluoromethylsulfonyl)imide; phases: Liquid
Fixed: Pressure, kPa = 101
Property: Viscosity, Pa*s (Liquid); method: Concentric cylinders viscometry
Temperature, K	Mole fraction of 2,2,2-trifluoroethanol	Viscosity, Pa*s	uncertainty
278.15	0.0877	0.11144	0.0025
283.15	0.0877	0.08481	0.00179
288.15	0.0877	0.06599	0.00134
293.15	0.0877	0.05232	0.00105
298.15	0.0877	0.04228	0.00086
303.15	0.0877	0.03467	0.0007
308.15	0.0877	0.02883	0.00058
313.15	0.0877	0.02427	0.00049
318.15	0.0877	0.02067	0.00042
323.15	0.0877	0.01778	0.00036
328.15	0.0877	0.01543	0.00031
333.15	0.0877	0.01351	0.00027
278.15	0.2626	0.0654	0.00133
283.15	0.2626	0.05124	0.00103
288.15	0.2626	0.04093	0.00083
293.15	0.2626	0.03318	0.00067
298.15	0.2626	0.02745	0.00056
303.15	0.2626	0.02296	0.00047
308.15	0.2626	0.01943	0.00039
313.15	0.2626	0.01663	0.00034
318.15	0.2626	0.01438	0.00029
323.15	0.2626	0.01254	0.00025
328.15	0.2626	0.01103	0.00022
333.15	0.2626	0.00976	0.0002
278.15	0.4753	0.03028	0.00061
283.15	0.4753	0.02463	0.0005
288.15	0.4753	0.02036	0.00041
293.15	0.4753	0.01703	0.00035
298.15	0.4753	0.01448	0.00029
303.15	0.4753	0.01243	0.00025
308.15	0.4753	0.01077	0.00022
313.15	0.4753	0.00942	0.00019
318.15	0.4753	0.00831	0.00017
323.15	0.4753	0.00738	0.00015
328.15	0.4753	0.0066	0.00013
333.15	0.4753	0.00594	0.00012
278.15	0.6153	0.01699	0.00034
283.15	0.6153	0.01414	0.00029
288.15	0.6153	0.01194	0.00024
293.15	0.6153	0.01018	0.00021
298.15	0.6153	0.00881	0.00018
303.15	0.6153	0.00768	0.00016
308.15	0.6153	0.00675	0.00014
313.15	0.6153	0.00599	0.00012
318.15	0.6153	0.00535	0.00011
323.15	0.6153	0.00481	0.0001
328.15	0.6153	0.00434	9e-05
333.15	0.6153	0.00395	8e-05
278.15	0.7568	0.00909	0.00018
283.15	0.7568	0.00774	0.00016
288.15	0.7568	0.00667	0.00014
293.15	0.7568	0.0058	0.00012
298.15	0.7568	0.00503	0.0001
303.15	0.7568	0.00445	9e-05
308.15	0.7568	0.00394	8e-05
313.15	0.7568	0.00353	7e-05
318.15	0.7568	0.00318	7e-05
323.15	0.7568	0.00288	6e-05
328.15	0.7568	0.00262	5e-05
333.15	0.7568	0.0024	5e-05
278.15	0.8748	0.00537	0.00011
283.15	0.8748	0.00462	9e-05
288.15	0.8748	0.00402	8e-05
293.15	0.8748	0.00353	7e-05
298.15	0.8748	0.00312	6e-05
303.15	0.8748	0.00278	6e-05
308.15	0.8748	0.00249	5e-05
313.15	0.8748	0.00225	5e-05
318.15	0.8748	0.00204	4e-05
323.15	0.8748	0.00185	4e-05
328.15	0.8748	0.00169	4e-05
333.15	0.8748	0.00154	3e-05
278.15	1	0.00328	7e-05
283.15	1	0.00281	6e-05
288.15	1	0.00242	5e-05
293.15	1	0.00211	4e-05
298.15	1	0.00184	4e-05
303.15	1	0.00162	3e-05
308.15	1	0.00143	3e-05
313.15	1	0.00127	3e-05
318.15	1	0.00113	2e-05
323.15	1	0.00102	2e-05
328.15	1	0.000925	2e-05
333.15	1	0.000824	1.8e-05
278.15	0	0.143	0.003
283.15	0	0.107	0.002
288.15	0	0.0824	0.0017
293.15	0	0.0646	0.0013
298.15	0	0.0516	0.001
303.15	0	0.0419	0.0009
308.15	0	0.0346	0.0007
313.15	0	0.0289	0.0006
318.15	0	0.0244	0.0005
323.15	0	0.0209	0.0004
328.15	0	0.018	0.0004
333.15	0	0.0157	0.0003
