Measured thermophysical data. Measurements of the viscosity of carbon dioxide at temperatures from (253.15 to 473.15) K with pressures up to 1.2 MPa
Source: J. Chem. Thermodyn., 2015, 10.1016/j.jct.2015.04.015
Compound 1: carbon dioxide, CO2, InChI=1S/CO2/c2-1-3, purity 99.995%

System: carbon dioxide; phases: Gas
Property: Viscosity, Pa*s (Gas); method: Rotating-body viscometer developed for low-density gases
Temperature, K	Pressure, kPa	Viscosity, Pa*s	uncertainty
298.153	604.5	1.4945e-05	3e-08
298.151	498.5	1.4929e-05	3e-08
298.151	402.9	1.4918e-05	3e-08
298.152	303.3	1.4911e-05	3e-08
298.152	204.6	1.4903e-05	3e-08
298.151	100.8	1.4901e-05	3e-08
323.159	598.7	1.6128e-05	5.1e-08
323.16	500.4	1.6116e-05	5.1e-08
323.159	400.7	1.6104e-05	5.1e-08
323.16	304.9	1.6099e-05	5.1e-08
323.159	200.9	1.6088e-05	5.1e-08
323.159	151.6	1.6079e-05	5.1e-08
323.16	100.8	1.6078e-05	5.1e-08
373.159	802.6	1.8493e-05	5e-08
373.161	604.9	1.8456e-05	5e-08
373.159	399.9	1.8431e-05	5e-08
373.16	296.8	1.8416e-05	5e-08
373.159	201.1	1.8403e-05	5e-08
373.159	151.4	1.8399e-05	5e-08
373.16	100.4	1.8396e-05	5e-08
423.143	998.9	2.0768e-05	5e-08
423.143	800.8	2.0725e-05	5e-08
423.142	600.4	2.0696e-05	5e-08
423.141	397.6	2.0677e-05	5e-08
423.143	302	2.0665e-05	5e-08
423.141	204.1	2.0647e-05	5e-08
423.143	153.3	2.0656e-05	5e-08
423.142	100.2	2.0648e-05	5e-08
473.154	1200.9	2.2899e-05	5e-08
473.154	997.8	2.2878e-05	5e-08
473.154	803	2.2844e-05	5e-08
473.155	601.1	2.2815e-05	5e-08
473.154	403.5	2.2785e-05	5e-08
473.154	202.5	2.2766e-05	5e-08
473.155	153	2.2751e-05	5e-08
473.164	100.1	2.2751e-05	5e-08
253.146	401.4	1.2717e-05	5.2e-08
253.146	300.5	1.2706e-05	5.2e-08
253.146	200.5	1.2713e-05	5.2e-08
253.146	153	1.2714e-05	5.2e-08
253.146	100.2	1.2713e-05	5.2e-08
273.168	502.8	1.3724e-05	5.2e-08
273.17	399.4	1.371e-05	5.2e-08
273.167	301.7	1.3709e-05	5.2e-08
273.169	203.4	1.37e-05	5.2e-08
273.169	151.8	1.3703e-05	5.2e-08
273.168	100.4	1.3706e-05	5.2e-08
298.15	502.8	1.4936e-05	3e-08
298.15	400	1.4925e-05	3e-08
298.15	303.2	1.4914e-05	3e-08
298.15	201.6	1.4903e-05	3e-08
298.15	150.4	1.4906e-05	3e-08
298.15	100.8	1.4902e-05	3e-08
298.151	499.7	1.4935e-05	3e-08
