Measured thermophysical data. The heat of mixing and second virial cross coefficient of water + oxygen and water + nitrogen
Source: J. Chem. Thermodyn., 2009, 10.1016/j.jct.2008.12.009
Compound 1: water, H2O, InChI=1S/H2O/h1H2
Compound 2: oxygen, O2, InChI=1S/O2/c1-2
Compound 3: nitrogen, N2, InChI=1S/N2/c1-2

System: water + oxygen; phases: Gas
Fixed: Mole fraction of oxygen = 0.5
Fixed: Pressure, kPa = 101.325
Property: Excess molar enthalpy (molar enthalpy of mixing), kJ/mol (Gas); method: Flow calorimetry
Temperature, K	Excess molar enthalpy (molar enthalpy of mixing), kJ/mol	uncertainty
373.15	0.0551	0.0017
383.15	0.0483	0.0016
393.15	0.043	0.0016
403.15	0.038	0.0016
413.15	0.0344	0.0016
423.15	0.031	0.0016
433.15	0.0284	0.0015
443.15	0.0259	0.0015
453.15	0.0236	0.0015
463.15	0.0216	0.0015
473.15	0.0202	0.0015
483.15	0.0188	0.0015
493.15	0.0173	0.0015

System: nitrogen + water; phases: Gas
Fixed: Mole fraction of nitrogen = 0.5
Fixed: Pressure, kPa = 101.325
Property: Excess molar enthalpy (molar enthalpy of mixing), kJ/mol (Gas); method: Flow calorimetry
Temperature, K	Excess molar enthalpy (molar enthalpy of mixing), kJ/mol	uncertainty
373.15	0.0539	0.0016
383.15	0.0472	0.0015
393.15	0.0421	0.0015
403.15	0.0373	0.0015
413.15	0.0336	0.0015
423.15	0.0302	0.0014
433.15	0.0278	0.0014
443.15	0.0251	0.0014
453.15	0.0229	0.0014
463.15	0.0211	0.0014
473.15	0.0197	0.0014
483.15	0.018	0.0014
493.15	0.0168	0.0014
