Measured thermophysical data. Viscosity-pressure dependence for nanostructured ionic liquids. Experimental values for butyltrimethylammonium and 1-butyl-3-methylpyridinium bis(trifluoromethylsulfonyl)imide
Source: J. Chem. Thermodyn., 2018, 10.1016/j.jct.2018.01.025
Compound 1: 1-ethyl-3-methylimidazolium ethyl sulfate, C8H16N2O4S, InChI=1S/C6H11N2.C2H6O4S/c1-3-8-5-4-7(2)6-8;1-2-6-7(3,4)5/h4-6H,3H2,1-2H3;2H2,1H3,(H,3,4,5)/q+1;/p-1, purity 99%
Compound 2: 1-butyl-3-methylpyridinium 1,1,1-trifluoro-N-[(trifluoromethyl)sulfonyl]methanesulfonamide, C12H16F6N2O4S2, InChI=1S/C10H16N.C2F6NO4S2/c1-3-4-7-11-8-5-6-10(2)9-11;3-1(4,5)14(10,11)9-15(12,13)2(6,7)8/h5-6,8-9H,3-4,7H2,1-2H3;/q+1;-1, purity 99.8%
Compound 3: butyltrimethylammonium bis(trifluoromethylsulfonyl)imide, C9H18F6N2O4S2, InChI=1S/C7H18N.C2F6NO4S2/c1-5-6-7-8(2,3)4;3-1(4,5)14(10,11)9-15(12,13)2(6,7)8/h5-7H2,1-4H3;/q+1;-1, purity 99.2%

System: 1-ethyl-3-methylimidazolium ethyl sulfate; phases: Liquid
Fixed: Pressure, kPa = 101.325
Property: Viscosity, Pa*s (Liquid); method: Concentric cylinders viscometry
Temperature, K	Viscosity, Pa*s	uncertainty
278.15	0.329	0.0085
283.15	0.2345	0.0052
288.15	0.1722	0.0033
293.15	0.1301	0.0021
298.15	0.1	0.0014
303.15	0.07866	0.00099
308.15	0.06299	0.00073
313.15	0.05159	0.00058
318.15	0.04236	0.00049
323.15	0.03543	0.00041
328.15	0.02998	0.00035
333.15	0.02564	0.0003
338.15	0.02213	0.00026
343.15	0.01927	0.00022
348.15	0.01691	0.0002
353.15	0.01503	0.00017
358.15	0.0133	0.00015
363.15	0.0119	0.00014
368.15	0.01071	0.00012
373.15	0.00969	0.00011

System: 1-ethyl-3-methylimidazolium ethyl sulfate; phases: Liquid
Fixed: Pressure, kPa = 101.325
Property: Mass density, kg/m3 (Liquid); method: Vibrating tube method
Temperature, K	Mass density, kg/m3	uncertainty
278.15	1251.2	2.4
283.15	1247.3	2.4
288.15	1243.7	2.4
293.15	1240.1	2.4
298.15	1236.7	2.4
303.15	1233.3	2.4
308.15	1229.9	2.4
313.15	1226.5	2.4
318.15	1223.2	2.4
323.15	1219.9	2.4
328.15	1216.6	2.4
333.15	1213.4	2.4
338.15	1210.2	2.4
343.15	1206.9	2.4
348.15	1203.6	2.4
353.15	1200.1	2.4
358.15	1196.6	2.4
363.15	1193.4	2.4
368.15	1190.5	2.4
373.15	1187.4	2.4

System: 1-ethyl-3-methylimidazolium ethyl sulfate; phases: Liquid
Fixed: Pressure, kPa = 101.325
Property: Viscosity, Pa*s (Liquid); method: Vibrating wire viscometry
Temperature, K	Viscosity, Pa*s	uncertainty
298.52	0.09732	0.00184
298.52	0.09821	0.00186
303.38	0.07699	0.00134
303.34	0.07657	0.00133
303.64	0.07657	0.00131
308.21	0.0615	0.00099
313.23	0.05109	0.00081
313.24	0.05047	0.0008
318.43	0.04155	0.00067
322.6	0.03651	0.00059
323.02	0.0359	0.00058

System: 1-butyl-3-methylpyridinium 1,1,1-trifluoro-N-[(trifluoromethyl)sulfonyl]methanesulfonamide; phases: Liquid
Fixed: Pressure, kPa = 101.325
Property: Viscosity, Pa*s (Liquid); method: Concentric cylinders viscometry
Temperature, K	Viscosity, Pa*s	uncertainty
278.15	0.201	0.004
283.15	0.1463	0.0024
288.15	0.1095	0.0015
293.15	0.0841	0.001
298.15	0.0656	0.0007
303.15	0.05231	0.00053
308.15	0.04236	0.00044
313.15	0.03501	0.00037
318.15	0.02901	0.0003
323.15	0.02447	0.00026
328.15	0.02087	0.00022
333.15	0.01797	0.00019
338.15	0.01561	0.00016
343.15	0.01368	0.00014
348.15	0.01207	0.00013
353.15	0.01078	0.00011
358.15	0.00959	0.0001
363.15	0.00863	9e-05
368.15	0.0078	8e-05
373.15	0.00709	8e-05

System: 1-butyl-3-methylpyridinium 1,1,1-trifluoro-N-[(trifluoromethyl)sulfonyl]methanesulfonamide; phases: Liquid
Fixed: Pressure, kPa = 101.325
Property: Mass density, kg/m3 (Liquid); method: Vibrating tube method
Temperature, K	Mass density, kg/m3	uncertainty
278.15	1431.3	1.1
283.15	1426.4	1.1
288.15	1421.6	1.1
293.15	1416.9	1.1
298.15	1412.3	1.1
303.15	1407.8	1.1
308.15	1403.2	1.1
313.15	1398.7	1.1
318.15	1394.3	1.1
323.15	1389.8	1.1
328.15	1385.4	1.1
333.15	1380.9	1.1
338.15	1376.4	1.1
343.15	1372	1.1
348.15	1367.5	1.1
353.15	1362.9	1.1
358.15	1358.3	1.1
363.15	1353.9	1.1
368.15	1349.6	1.1
373.15	1345.4	1.1

System: 1-butyl-3-methylpyridinium 1,1,1-trifluoro-N-[(trifluoromethyl)sulfonyl]methanesulfonamide; phases: Liquid
Fixed: Pressure, kPa = 101.325
Property: Viscosity, Pa*s (Liquid); method: Vibrating wire viscometry
Temperature, K	Viscosity, Pa*s	uncertainty
288.13	0.10709	0.00205
292.95	0.08324	0.00142
296.3	0.07115	0.00114
298.25	0.065	0.00101
298.25	0.06491	0.00101
300.55	0.05821	0.00089
302.98	0.05292	0.0008
307.84	0.04369	0.00068
310.19	0.04027	0.00062

System: 1-butyl-3-methylpyridinium 1,1,1-trifluoro-N-[(trifluoromethyl)sulfonyl]methanesulfonamide; phases: Liquid
Property: Viscosity, Pa*s (Liquid); method: Falling or rolling sphere viscometry
Temperature, K	Pressure, kPa	Viscosity, Pa*s	uncertainty
303.15	10000	0.0586	0.0021
303.15	15000	0.0623	0.0022
303.15	25000	0.0704	0.0026
303.15	50000	0.0947	0.0038
303.15	75000	0.1263	0.0057
313.15	10000	0.0401	0.0014
313.15	15000	0.0423	0.0015
313.15	25000	0.0472	0.0017
313.15	50000	0.0617	0.0022
313.15	75000	0.0805	0.0031
313.15	100000	0.1049	0.0044
323.15	10000	0.0272	0.001
323.15	15000	0.0287	0.001
323.15	25000	0.032	0.0012
323.15	50000	0.0416	0.0015
323.15	75000	0.0535	0.0019
323.15	100000	0.0685	0.0025
333.15	10000	0.02	0.0007
333.15	15000	0.0208	0.0007
333.15	25000	0.0228	0.0008
333.15	50000	0.0292	0.0011
333.15	75000	0.0372	0.0013
333.15	100000	0.0463	0.0017
343.15	10000	0.0148	0.0005
343.15	15000	0.0157	0.0006
343.15	25000	0.0174	0.0006
343.15	50000	0.0217	0.0008
343.15	75000	0.0267	0.001
343.15	100000	0.0332	0.0012
353.15	10000	0.0115	0.0004
353.15	15000	0.0121	0.0004
353.15	25000	0.0132	0.0005
353.15	50000	0.0164	0.0006
353.15	75000	0.0202	0.0007
353.15	100000	0.0248	0.0009

System: butyltrimethylammonium bis(trifluoromethylsulfonyl)imide; phases: Liquid
Fixed: Pressure, kPa = 101.325
Property: Viscosity, Pa*s (Liquid); method: Concentric cylinders viscometry
Temperature, K	Viscosity, Pa*s	uncertainty
278.15	0.3601	0.0097
283.15	0.2538	0.0058
288.15	0.1847	0.0036
293.15	0.1383	0.0023
298.15	0.1054	0.0015
303.15	0.08219	0.00102
308.15	0.06533	0.00074
313.15	0.05301	0.00057
318.15	0.04322	0.00048
323.15	0.0359	0.0004
328.15	0.03018	0.00034
333.15	0.02564	0.00029
338.15	0.02202	0.00025
343.15	0.01908	0.00021
348.15	0.01665	0.00019
353.15	0.01474	0.00017
358.15	0.01299	0.00015
363.15	0.01158	0.00013
368.15	0.01038	0.00012
373.15	0.00936	0.00011

System: butyltrimethylammonium bis(trifluoromethylsulfonyl)imide; phases: Liquid
Fixed: Pressure, kPa = 101.325
Property: Mass density, kg/m3 (Liquid); method: Vibrating tube method
Temperature, K	Mass density, kg/m3	uncertainty
278.15	1411.5	2.3
283.15	1406.6	2.3
288.15	1401.9	2.3
293.15	1397.2	2.3
298.15	1392.8	2.3
303.15	1388.4	2.3
308.15	1384	2.3
313.15	1379.7	2.3
318.15	1375.4	2.3
323.15	1371.1	2.3
328.15	1366.8	2.3
333.15	1362.6	2.3
338.15	1358.4	2.3
343.15	1354.2	2.3
348.15	1350	2.3
353.15	1345.7	2.3
358.15	1341.4	2.3
363.15	1336.8	2.3
368.15	1332.5	2.3
373.15	1328.4	2.3

System: butyltrimethylammonium bis(trifluoromethylsulfonyl)imide; phases: Liquid
Fixed: Pressure, kPa = 101.325
Property: Viscosity, Pa*s (Liquid); method: Vibrating wire viscometry
Temperature, K	Viscosity, Pa*s	uncertainty
298.6	0.10217	0.00195
301.53	0.08701	0.00155
304.45	0.0764	0.00129
307.33	0.0661	0.00107
310.28	0.05841	0.00092
313.34	0.05051	0.00078
323.33	0.03559	0.00057
328.27	0.02972	0.00047

System: butyltrimethylammonium bis(trifluoromethylsulfonyl)imide; phases: Liquid
Property: Viscosity, Pa*s (Liquid); method: Falling or rolling sphere viscometry
Temperature, K	Pressure, kPa	Viscosity, Pa*s	uncertainty
303.15	10000	0.0934	0.0038
303.15	15000	0.0999	0.0041
303.15	25000	0.114	0.005
303.15	50000	0.1582	0.0079
303.15	75000	0.2185	0.0126
303.15	100000	0.3008	0.0197
303.15	125000	0.4131	0.0306
303.15	150000	0.5666	0.0468
313.15	10000	0.0597	0.0021
313.15	15000	0.0637	0.0023
313.15	25000	0.0724	0.0027
313.15	50000	0.0985	0.0041
313.15	75000	0.1322	0.0062
313.15	100000	0.1759	0.0093
313.15	125000	0.2325	0.0138
313.15	150000	0.306	0.0203
323.15	10000	0.0401	0.0015
323.15	15000	0.0426	0.0015
323.15	25000	0.0479	0.0017
323.15	50000	0.0635	0.0023
323.15	75000	0.0836	0.0033
323.15	100000	0.1091	0.0047
323.15	125000	0.142	0.0068
323.15	150000	0.1834	0.0098
333.15	10000	0.0282	0.001
333.15	15000	0.0298	0.0011
333.15	25000	0.0333	0.0012
333.15	50000	0.0434	0.0016
333.15	75000	0.0561	0.002
333.15	100000	0.0719	0.0027
333.15	125000	0.0918	0.0037
333.15	150000	0.1168	0.0052
343.15	10000	0.021	0.0008
343.15	15000	0.022	0.0008
343.15	25000	0.0243	0.0009
343.15	50000	0.031	0.0011
343.15	75000	0.0395	0.0014
343.15	100000	0.0503	0.0018
343.15	125000	0.0638	0.0023
343.15	150000	0.081	0.0031
353.15	10000	0.0156	0.0006
353.15	15000	0.0165	0.0006
353.15	25000	0.0183	0.0007
353.15	50000	0.0234	0.0008
353.15	75000	0.0294	0.0011
353.15	100000	0.0366	0.0013
353.15	125000	0.0453	0.0016
353.15	150000	0.0557	0.002
