Measured thermophysical data. Densities, excess molar volumes, and refractive indices of 1,1,2,2-tetrachloroethane and 1-alkanols binary mixtures
Source: J. Chem. Thermodyn., 2006, 10.1016/j.jct.2005.06.015
Compound 1: 1,1,2,2-tetrachloroethane, C2H2Cl4, InChI=1S/C2H2Cl4/c3-1(4)2(5)6/h1-2H, purity 99%
Compound 2: pentan-1-ol, C5H12O, InChI=1S/C5H12O/c1-2-3-4-5-6/h6H,2-5H2,1H3, purity 99%
Compound 3: hexan-1-ol, C6H14O, InChI=1S/C6H14O/c1-2-3-4-5-6-7/h7H,2-6H2,1H3, purity 99%
Compound 4: heptan-1-ol, C7H16O, InChI=1S/C7H16O/c1-2-3-4-5-6-7-8/h8H,2-7H2,1H3, purity 99%
Compound 5: octan-1-ol, C8H18O, InChI=1S/C8H18O/c1-2-3-4-5-6-7-8-9/h9H,2-8H2,1H3, purity 99%
Compound 6: decan-1-ol, C10H22O, InChI=1S/C10H22O/c1-2-3-4-5-6-7-8-9-10-11/h11H,2-10H2,1H3, purity 99%

System: 1,1,2,2-tetrachloroethane; phases: Liquid
Fixed: Pressure, kPa = 101.325
Property: Refractive index (Na D-line) (Liquid); method: Standard Abbe refractometry
Temperature, K	Refractive index (Na D-line)	uncertainty
293.15	1.49387	0.00037
303.15	1.48887	0.00037

System: 1,1,2,2-tetrachloroethane; phases: Liquid
Fixed: Pressure, kPa = 101
Property: Mass density, kg/m3 (Liquid); method: VIBTUB:UFactor:4
Temperature, K	Mass density, kg/m3	uncertainty
293.15	1594.27	1.33
303.15	1574.85	1.3

System: pentan-1-ol; phases: Liquid
Fixed: Pressure, kPa = 101.325
Property: Refractive index (Na D-line) (Liquid); method: Standard Abbe refractometry
Temperature, K	Refractive index (Na D-line)	uncertainty
293.15	1.40976	0.00037
303.15	1.40592	0.00037

System: pentan-1-ol; phases: Liquid
Fixed: Pressure, kPa = 101
Property: Mass density, kg/m3 (Liquid); method: VIBTUB::UFactor:4
Temperature, K	Mass density, kg/m3	uncertainty
293.15	814.72	0.58
303.15	807.6	0.59

System: hexan-1-ol; phases: Liquid
Fixed: Pressure, kPa = 101.325
Property: Refractive index (Na D-line) (Liquid); method: Standard Abbe refractometry
Temperature, K	Refractive index (Na D-line)	uncertainty
293.15	1.41807	0.00037
303.15	1.41423	0.00037

System: hexan-1-ol; phases: Liquid
Fixed: Pressure, kPa = 101
Property: Mass density, kg/m3 (Liquid); method: VIBTUB::UFactor:4
Temperature, K	Mass density, kg/m3	uncertainty
293.15	818.72	0.58
303.15	811.73	0.59

System: heptan-1-ol; phases: Liquid
Fixed: Pressure, kPa = 101.325
Property: Refractive index (Na D-line) (Liquid); method: Standard Abbe refractometry
Temperature, K	Refractive index (Na D-line)	uncertainty
293.15	1.42397	0.00037
303.15	1.42047	0.00037

System: heptan-1-ol; phases: Liquid
Fixed: Pressure, kPa = 101
Property: Mass density, kg/m3 (Liquid); method: VIBTUB::UFactor:4
Temperature, K	Mass density, kg/m3	uncertainty
293.15	822.14	0.58
303.15	815.41	0.58

System: octan-1-ol; phases: Liquid
Fixed: Pressure, kPa = 101.325
Property: Refractive index (Na D-line) (Liquid); method: Standard Abbe refractometry
Temperature, K	Refractive index (Na D-line)	uncertainty
293.15	1.42941	0.00037
303.15	1.42563	0.00037

System: octan-1-ol; phases: Liquid
Fixed: Pressure, kPa = 101
Property: Mass density, kg/m3 (Liquid); method: VIBTUB::UFactor:4
Temperature, K	Mass density, kg/m3	uncertainty
293.15	825	0.58
303.15	818.09	0.58

System: decan-1-ol; phases: Liquid
Fixed: Pressure, kPa = 101.325
Property: Refractive index (Na D-line) (Liquid); method: Standard Abbe refractometry
Temperature, K	Refractive index (Na D-line)	uncertainty
293.15	1.43694	0.00037
303.15	1.43364	0.00037

System: decan-1-ol; phases: Liquid
Fixed: Pressure, kPa = 101
Property: Mass density, kg/m3 (Liquid); method: VIBTUB::UFactor:4
Temperature, K	Mass density, kg/m3	uncertainty
293.15	829.84	0.57
303.15	822.83	0.58

System: pentan-1-ol + 1,1,2,2-tetrachloroethane; phases: Liquid
Fixed: Pressure, kPa = 101
Property: Refractive index (Na D-line) (Liquid); method: Standard Abbe refractometry
Temperature, K	Mole fraction of 1,1,2,2-tetrachloroethane	Refractive index (Na D-line)	uncertainty
293.15	0	1.40976	0.00037
293.15	0.1015	1.41801	0.00037
293.15	0.2006	1.42587	0.00037
293.15	0.3019	1.43392	0.00037
293.15	0.4001	1.44184	0.00037
293.15	0.5005	1.45	0.00037
293.15	0.5995	1.45825	0.00037
293.15	0.7005	1.46691	0.00037
293.15	0.8008	1.4757	0.00037
293.15	0.9001	1.48463	0.00037
293.15	1	1.49387	0.00037
303.15	0	1.40592	0.00037
303.15	0.1015	1.41395	0.00037
303.15	0.2006	1.42166	0.00037
303.15	0.3019	1.42959	0.00037
303.15	0.4001	1.43735	0.00037
303.15	0.5005	1.44547	0.00037
303.15	0.5995	1.45363	0.00037
303.15	0.7005	1.46218	0.00037
303.15	0.8008	1.47093	0.00037
303.15	0.9001	1.47979	0.00037
303.15	1	1.48887	0.00037

System: pentan-1-ol + 1,1,2,2-tetrachloroethane; phases: Liquid
Fixed: Pressure, kPa = 101
Property: Mass density, kg/m3 (Liquid); method: VIBTUB:UFactor:4
Temperature, K	Mole fraction of 1,1,2,2-tetrachloroethane	Mass density, kg/m3	uncertainty
293.15	0	814.72	0.58
293.15	0.1015	892.95	0.54
293.15	0.2006	969.17	0.54
293.15	0.3019	1046.97	0.61
293.15	0.4001	1122.53	0.72
293.15	0.5005	1199.96	0.84
293.15	0.5995	1276.74	0.91
293.15	0.7005	1355.55	0.99
293.15	0.8008	1434.56	1.09
293.15	0.9001	1513.69	1.21
293.15	1	1594.27	1.33
303.15	0	807.6	0.59
303.15	0.1015	884.5	0.55
303.15	0.2006	959.53	0.54
303.15	0.3019	1036.17	0.6
303.15	0.4001	1110.64	0.7
303.15	0.5005	1186.94	0.82
303.15	0.5995	1262.57	0.89
303.15	0.7005	1340.1	0.97
303.15	0.8008	1417.76	1.07
303.15	0.9001	1495.54	1.18
303.15	1	1574.85	1.3

System: 1,1,2,2-tetrachloroethane + hexan-1-ol; phases: Liquid
Fixed: Pressure, kPa = 101
Property: Refractive index (Na D-line) (Liquid); method: Standard Abbe refractometry
Temperature, K	Mole fraction of 1,1,2,2-tetrachloroethane	Refractive index (Na D-line)	uncertainty
293.15	0	1.41807	0.00037
293.15	0.1003	1.4247	0.00037
293.15	0.2011	1.43135	0.00037
293.15	0.3006	1.438	0.00037
293.15	0.4004	1.44486	0.00037
293.15	0.5	1.45201	0.00037
293.15	0.6009	1.45957	0.00037
293.15	0.7002	1.46735	0.00037
293.15	0.8004	1.47556	0.00037
293.15	0.9011	1.48444	0.00037
293.15	1	1.49387	0.00037
303.15	0	1.41423	0.00037
303.15	0.1003	1.42076	0.00037
303.15	0.2011	1.42723	0.00037
303.15	0.3006	1.43378	0.00037
303.15	0.4004	1.4405	0.00037
303.15	0.5	1.4475	0.00037
303.15	0.6009	1.45495	0.00037
303.15	0.7002	1.46264	0.00037
303.15	0.8004	1.47082	0.00037
303.15	0.9011	1.4796	0.00037
303.15	1	1.48887	0.00037

System: 1,1,2,2-tetrachloroethane + hexan-1-ol; phases: Liquid
Fixed: Pressure, kPa = 101
Property: Mass density, kg/m3 (Liquid); method: VIBTUB:UFactor:4
Temperature, K	Mole fraction of 1,1,2,2-tetrachloroethane	Mass density, kg/m3	uncertainty
293.15	0	818.72	0.58
293.15	0.1003	886.07	0.54
293.15	0.2011	955.51	0.54
293.15	0.3006	1025.9	0.59
293.15	0.4004	1098.46	0.69
293.15	0.5	1173.27	0.81
293.15	0.6009	1251.57	0.88
293.15	0.7002	1331.64	0.96
293.15	0.8004	1415.64	1.07
293.15	0.9011	1503.8	1.19
293.15	1	1594.27	1.33
303.15	0	811.73	0.59
303.15	0.1003	877.89	0.55
303.15	0.2011	946.24	0.54
303.15	0.3006	1015.59	0.58
303.15	0.4004	1087.1	0.67
303.15	0.5	1160.79	0.79
303.15	0.6009	1237.85	0.86
303.15	0.7002	1316.58	0.94
303.15	0.8004	1399.12	1.04
303.15	0.9011	1485.78	1.16
303.15	1	1574.85	1.3

System: 1,1,2,2-tetrachloroethane + heptan-1-ol; phases: Liquid
Fixed: Pressure, kPa = 101
Property: Refractive index (Na D-line) (Liquid); method: Standard Abbe refractometry
Temperature, K	Mole fraction of 1,1,2,2-tetrachloroethane	Refractive index (Na D-line)	uncertainty
293.15	0	1.42397	0.00037
293.15	0.1022	1.42952	0.00037
293.15	0.1995	1.43494	0.00037
293.15	0.3002	1.4406	0.00037
293.15	0.4008	1.44661	0.00037
293.15	0.5001	1.45297	0.00037
293.15	0.599	1.45976	0.00037
293.15	0.6996	1.46717	0.00037
293.15	0.7999	1.47525	0.00037
293.15	0.9015	1.48421	0.00037
293.15	1	1.49387	0.00037
303.15	0	1.42047	0.00037
303.15	0.1022	1.42581	0.00037
303.15	0.1995	1.43106	0.00037
303.15	0.3002	1.43653	0.00037
303.15	0.4008	1.44244	0.00037
303.15	0.5001	1.44861	0.00037
303.15	0.599	1.45521	0.00037
303.15	0.6996	1.46254	0.00037
303.15	0.7999	1.4705	0.00037
303.15	0.9015	1.47937	0.00037
303.15	1	1.48887	0.00037

System: 1,1,2,2-tetrachloroethane + heptan-1-ol; phases: Liquid
Fixed: Pressure, kPa = 101
Property: Mass density, kg/m3 (Liquid); method: VIBTUB:UFactor:4
Temperature, K	Mole fraction of 1,1,2,2-tetrachloroethane	Mass density, kg/m3	uncertainty
293.15	0	822.14	0.58
293.15	0.1022	883.03	0.55
293.15	0.1995	943.76	0.54
293.15	0.3002	1009.72	0.57
293.15	0.4008	1079.02	0.66
293.15	0.5001	1151.23	0.78
293.15	0.599	1227.43	0.85
293.15	0.6996	1310.04	0.94
293.15	0.7999	1398.24	1.04
293.15	0.9015	1494.17	1.18
293.15	1	1594.27	1.33
303.15	0	815.41	0.58
303.15	0.1022	875.27	0.55
303.15	0.1995	934.97	0.54
303.15	0.3002	999.87	0.56
303.15	0.4008	1068.12	0.65
303.15	0.5001	1139.25	0.76
303.15	0.599	1214.28	0.83
303.15	0.6996	1295.52	0.91
303.15	0.7999	1382.11	1.02
303.15	0.9015	1476.3	1.15
303.15	1	1574.85	1.3

System: 1,1,2,2-tetrachloroethane + octan-1-ol; phases: Liquid
Fixed: Pressure, kPa = 101
Property: Refractive index (Na D-line) (Liquid); method: Standard Abbe refractometry
Temperature, K	Mole fraction of 1,1,2,2-tetrachloroethane	Refractive index (Na D-line)	uncertainty
293.15	0	1.42941	0.00037
293.15	0.1028	1.43403	0.00037
293.15	0.1967	1.43826	0.00037
293.15	0.2997	1.44321	0.00037
293.15	0.4005	1.44845	0.00037
293.15	0.501	1.45416	0.00037
293.15	0.6	1.46034	0.00037
293.15	0.6999	1.46723	0.00037
293.15	0.7998	1.47492	0.00037
293.15	0.9007	1.48379	0.00037
293.15	1	1.49387	0.00037
303.15	0	1.42563	0.00037
303.15	0.1028	1.43011	0.00037
303.15	0.1967	1.43419	0.00037
303.15	0.2997	1.43892	0.00037
303.15	0.4005	1.44404	0.00037
303.15	0.501	1.44968	0.00037
303.15	0.6	1.45579	0.00037
303.15	0.6999	1.46262	0.00037
303.15	0.7998	1.47026	0.00037
303.15	0.9007	1.47898	0.00037
303.15	1	1.48887	0.00037

System: 1,1,2,2-tetrachloroethane + octan-1-ol; phases: Liquid
Fixed: Pressure, kPa = 101
Property: Mass density, kg/m3 (Liquid); method: VIBTUB:UFactor:4
Temperature, K	Mole fraction of 1,1,2,2-tetrachloroethane	Mass density, kg/m3	uncertainty
293.15	0	825	0.58
293.15	0.1028	879.91	0.55
293.15	0.1967	933.27	0.54
293.15	0.2997	995.8	0.55
293.15	0.4005	1061.47	0.64
293.15	0.501	1132.1	0.76
293.15	0.6	1207.5	0.82
293.15	0.6999	1290.57	0.91
293.15	0.7998	1381.66	1.02
293.15	0.9007	1483.42	1.16
293.15	1	1594.27	1.33
303.15	0	818.09	0.58
303.15	0.1028	872.01	0.55
303.15	0.1967	924.42	0.54
303.15	0.2997	985.92	0.55
303.15	0.4005	1050.64	0.63
303.15	0.501	1120.29	0.74
303.15	0.6	1194.6	0.8
303.15	0.6999	1276.31	0.89
303.15	0.7998	1365.71	1
303.15	0.9007	1465.56	1.13
303.15	1	1574.85	1.3

System: 1,1,2,2-tetrachloroethane + decan-1-ol; phases: Liquid
Fixed: Pressure, kPa = 101
Property: Refractive index (Na D-line) (Liquid); method: Standard Abbe refractometry
Temperature, K	Mole fraction of 1,1,2,2-tetrachloroethane	Refractive index (Na D-line)	uncertainty
293.15	0	1.43694	0.00037
293.15	0.1023	1.44019	0.00037
293.15	0.2004	1.44342	0.00037
293.15	0.3006	1.44704	0.00037
293.15	0.4005	1.45108	0.00037
293.15	0.5009	1.45575	0.00037
293.15	0.6001	1.46097	0.00037
293.15	0.6999	1.46711	0.00037
293.15	0.8	1.47434	0.00037
293.15	0.901	1.48303	0.00037
293.15	1	1.49387	0.00037
303.15	0	1.43364	0.00037
303.15	0.1023	1.43656	0.00037
303.15	0.2004	1.43969	0.00037
303.15	0.3006	1.44313	0.00037
303.15	0.4005	1.44706	0.00037
303.15	0.5009	1.45152	0.00037
303.15	0.6001	1.45665	0.00037
303.15	0.6999	1.46263	0.00037
303.15	0.8	1.46974	0.00037
303.15	0.901	1.47826	0.00037
303.15	1	1.48887	0.00037

System: 1,1,2,2-tetrachloroethane + decan-1-ol; phases: Liquid
Fixed: Pressure, kPa = 101
Property: Mass density, kg/m3 (Liquid); method: VIBTUB:UFactor:4
Temperature, K	Mole fraction of 1,1,2,2-tetrachloroethane	Mass density, kg/m3	uncertainty
293.15	0	829.84	0.57
293.15	0.1023	874.88	0.55
293.15	0.2004	922	0.54
293.15	0.3006	974.95	0.55
293.15	0.4005	1033.5	0.61
293.15	0.5009	1099.29	0.71
293.15	0.6001	1172.37	0.78
293.15	0.6999	1255.81	0.87
293.15	0.8	1351.62	0.98
293.15	0.901	1464.04	1.13
293.15	1	1594.27	1.33
303.15	0	822.83	0.58
303.15	0.1023	867.03	0.55
303.15	0.2004	913.42	0.54
303.15	0.3006	965.57	0.54
303.15	0.4005	1023.2	0.59
303.15	0.5009	1087.89	0.7
303.15	0.6001	1159.72	0.76
303.15	0.6999	1241.75	0.85
303.15	0.8	1336.02	0.96
303.15	0.901	1446.7	1.11
303.15	1	1574.85	1.3
