Measured thermophysical data. Quaternary (liquid + liquid) equilibria for (water + 1,1-dimethylethyl methyl ether + diisopropyl ether + toluene) at the temperature 298.15 K
Source: J. Chem. Thermodyn., 2005, 10.1016/j.jct.2005.02.002
Compound 1: 2-methoxy-2-methylpropane, C5H12O, InChI=1S/C5H12O/c1-5(2,3)6-4/h1-4H3, purity 99.8%
Compound 2: diisopropyl ether, C6H14O, InChI=1S/C6H14O/c1-5(2)7-6(3)4/h5-6H,1-4H3, purity 99.5%
Compound 3: water, H2O, InChI=1S/H2O/h1H2, purity 99.9%

System: diisopropyl ether + 2-methoxy-2-methylpropane + water; phases: Liquid mixture 1, Liquid mixture 2
Fixed: Temperature, K = 298.15
Fixed: Pressure, kPa = 101.3
Property: Mole fraction of water (Liquid mixture 1); method: CHROM:UFactor:32
Property: Mole fraction of water (Liquid mixture 2); method: CHROM:UFactor:32
Property: Mole fraction of 2-methoxy-2-methylpropane (Liquid mixture 2); method: CHROM:UFactor:32
Mole fraction of 2-methoxy-2-methylpropane	Mole fraction of water	uncertainty	Mole fraction of water	uncertainty	Mole fraction of 2-methoxy-2-methylpropane	uncertainty
0.8986	0.1014	0.0324	0.9909	0.0029	0.0091	
0.7732	0.098	0.0314	0.9932	0.0022	0.0068	
0.5505	0.0899	0.0288	0.9943	0.0018	0.0054	
0.4582	0.0818	0.0262	0.9953	0.0015	0.0041	
0.3571	0.0655	0.021	0.989	0.0035	0.0055	
0.2751	0.0443	0.0142	0.9961	0.0012	0.0025	
0.2529	0.0488	0.0156	0.9966	0.0011	0.0022	
0.1581	0.0437	0.014	0.9975	0.0008	0.0011	
0.0604	0.0207	0.0066	1	0.0001	0	
