Measured thermophysical data. Studies of volumetric and acoustic properties of trisodium  citrate and tripotassium citrate in aqueous solutions  of N-acetyl glycine at different temperatures
Source: J. Chem. Thermodyn., 2013, 10.1016/j.jct.2012.12.022
Compound 1: N-acetylglycine, C4H7NO3, InChI=1S/C4H7NO3/c1-3(6)5-2-4(7)8/h2H2,1H3,(H,5,6)(H,7,8), purity 99%
Compound 2: trisodium citrate, C6H5Na3O7, InChI=1S/C6H8O7.3Na/c7-3(8)1-6(13,5(11)12)2-4(9)10;;;/h13H,1-2H2,(H,7,8)(H,9,10)(H,11,12);;;/q;3*+1/p-3, purity 99%
Compound 3: potassium citrate, C6H5K3O7, InChI=1S/C6H8O7.3K/c7-3(8)1-6(13,5(11)12)2-4(9)10;;;/h13H,1-2H2,(H,7,8)(H,9,10)(H,11,12);;;/q;3*+1/p-3, purity 99%
Compound 4: water, H2O, InChI=1S/H2O/h1H2, purity 99.9%

System: trisodium citrate + N-acetylglycine + water; phases: Liquid
Fixed: Pressure, kPa = 101
Property: Mass density, kg/m3 (Liquid); method: Vibrating tube method
Temperature, K	Solvent: Molality, mol/kg of N-acetylglycine	Molality, mol/kg of trisodium citrate	Mass density, kg/m3	uncertainty
288.15	0.085	0	1001.926	0.232
288.15	0.085	0.0046	1002.791	0.232
288.15	0.085	0.04807	1010.839	0.235
288.15	0.085	0.10039	1020.224	0.237
288.15	0.085	0.19636	1036.794	0.242
288.15	0.085	0.29301	1052.666	0.247
288.15	0.085	0.39252	1068.535	0.252
288.15	0.085	0.49606	1084.142	0.257
288.15	0.085	0.6997	1113.606	0.268
288.15	0.085	0.77096	1123.539	0.272
288.15	0.085	0.90033	1140.389	0.278
288.15	0.18	0.49604	1087.106	0.259
288.15	0.18	0.69732	1115.996	0.269
288.15	0.18	0.76259	1125.05	0.272
288.15	0.18	0.8987	1143.072	0.279
288.15	0.18	0	1005.016	0.233
288.15	0.18	0.00393	1005.742	0.233
288.15	0.18	0.04887	1013.946	0.235
288.15	0.18	0.09699	1022.528	0.238
288.15	0.18	0.19952	1040.167	0.243
288.15	0.18	0.28997	1055.043	0.248
288.15	0.18	0.3864	1070.373	0.253
288.15	0.18	0.49361	1086.773	0.259
293.15	0.085	0	1000.994	0.232
293.15	0.085	0.0046	1001.839	0.232
293.15	0.085	0.04807	1009.708	0.234
293.15	0.18	0.8987	1141.027	0.279
293.15	0.18	0	1004.025	0.233
293.15	0.18	0.00393	1004.74	0.233
293.15	0.18	0.04887	1012.826	0.235
293.15	0.18	0.09699	1021.321	0.238
293.15	0.18	0.19952	1038.789	0.243
293.15	0.18	0.28997	1053.574	0.247
293.15	0.18	0.3864	1068.782	0.252
293.15	0.18	0.49361	1085.063	0.258
293.15	0.18	0.49604	1085.392	0.258
293.15	0.18	0.69732	1114.21	0.268
293.15	0.18	0.76259	1123.073	0.272
293.15	0.085	0.10039	1018.979	0.237
293.15	0.085	0.19636	1035.409	0.242
293.15	0.085	0.29301	1051.242	0.247
293.15	0.085	0.39252	1066.999	0.252
293.15	0.085	0.49606	1082.595	0.257
293.15	0.085	0.6997	1111.754	0.268
293.15	0.085	0.77096	1121.593	0.271
293.15	0.085	0.90033	1138.274	0.278
298.15	0.18	0	1002.777	0.232
298.15	0.18	0.00393	1003.485	0.233
298.15	0.18	0.04887	1011.493	0.235
298.15	0.18	0.09699	1019.882	0.237
298.15	0.18	0.19952	1037.231	0.242
298.15	0.18	0.28997	1051.912	0.247
298.15	0.18	0.3864	1067.013	0.252
298.15	0.18	0.49361	1083.196	0.257
298.15	0.18	0.49604	1083.521	0.258
298.15	0.18	0.69732	1112.084	0.268
298.15	0.18	0.76259	1120.987	0.271
298.15	0.18	0.8987	1138.812	0.278
298.15	0.085	0.10039	1017.603	0.237
298.15	0.085	0.19636	1033.881	0.241
298.15	0.085	0.29301	1049.629	0.246
298.15	0.085	0.39252	1065.282	0.251
298.15	0.085	0.49606	1080.781	0.257
298.15	0.085	0.6997	1109.668	0.267
298.15	0.085	0.77096	1119.255	0.27
298.15	0.085	0.90033	1135.675	0.277
298.15	0.085	0.0046	1000.635	0.232
298.15	0.085	0.04807	1008.431	0.234
298.15	0.085	0	999.799	0.232
303.15	0.18	0	1001.3	0.232
303.15	0.18	0.00393	1002.003	0.232
303.15	0.18	0.04887	1009.951	0.235
303.15	0.18	0.09699	1018.292	0.237
303.15	0.18	0.19952	1035.519	0.242
303.15	0.18	0.28997	1050.154	0.247
303.15	0.18	0.3864	1065.08	0.251
303.15	0.18	0.49361	1081.179	0.257
303.15	0.18	0.49604	1081.513	0.257
303.15	0.18	0.69732	1109.936	0.267
303.15	0.18	0.76259	1118.74	0.27
303.15	0.18	0.8987	1136.543	0.277
303.15	0.085	0.10039	1016.012	0.236
303.15	0.085	0.19636	1032.142	0.241
303.15	0.085	0.29301	1047.827	0.246
303.15	0.085	0.39252	1063.379	0.251
303.15	0.085	0.49606	1078.836	0.256
303.15	0.085	0.6997	1107.672	0.266
303.15	0.085	0.77096	1117.205	0.27
303.15	0.085	0.90033	1133.505	0.276
303.15	0.085	0	998.366	0.232
303.15	0.085	0.0046	999.195	0.232
303.15	0.085	0.04807	1006.919	0.234

System: trisodium citrate + N-acetylglycine + water; phases: Liquid
Fixed: Pressure, kPa = 101
Property: Speed of sound, m/s (Liquid); method: Sing-around technique in a fixed-path interferometer
Temperature, K	Molality, mol/kg of trisodium citrate	Solvent: Molality, mol/kg of N-acetylglycine	Speed of sound, m/s	uncertainty
288.15	0	0.085	1470.31	2.24
288.15	0.0046	0.085	1471.15	2.25
288.15	0.04807	0.085	1482.76	2.25
288.15	0.10039	0.085	1493.92	2.24
288.15	0.19636	0.085	1512.62	2.24
288.15	0.29301	0.085	1531.27	2.24
288.15	0.39252	0.085	1549.51	2.24
288.15	0.49606	0.085	1568.74	2.25
288.15	0.6997	0.085	1604.46	2.25
288.15	0.77096	0.085	1617.38	2.24
288.15	0.90033	0.085	1639.32	2.24
288.15	0	0.18	1475.4	2.24
288.15	0.00393	0.18	1476.68	2.24
288.15	0.04887	0.18	1488.21	2.24
288.15	0.09699	0.18	1499.24	2.24
288.15	0.19952	0.18	1519.97	2.24
288.15	0.28997	0.18	1537.85	2.24
288.15	0.3864	0.18	1555.02	2.24
288.15	0.49361	0.18	1574.17	2.24
288.15	0.49604	0.18	1574.8	2.24
288.15	0.69732	0.18	1610.02	2.25
288.15	0.76259	0.18	1621.61	2.25
288.15	0.8987	0.18	1644.85	2.25
293.15	0	0.085	1485.9	2.24
293.15	0.0046	0.085	1487.92	2.24
293.15	0.04807	0.085	1498.41	2.24
293.15	0.10039	0.085	1508.6	2.24
293.15	0.19636	0.085	1526.79	2.24
293.15	0.29301	0.085	1545.11	2.24
293.15	0.39252	0.085	1562.57	2.24
293.15	0.49606	0.085	1581.36	2.24
293.15	0.6997	0.085	1616.23	2.24
293.15	0.77096	0.085	1627.12	2.24
293.15	0.90033	0.085	1641.92	2.24
293.15	0	0.18	1490.54	2.24
293.15	0.00393	0.18	1492.14	2.24
293.15	0.04887	0.18	1503.25	2.24
293.15	0.09699	0.18	1513.37	2.24
293.15	0.19952	0.18	1533.6	2.24
293.15	0.28997	0.18	1551.06	2.24
293.15	0.3864	0.18	1567.57	2.24
293.15	0.49361	0.18	1586.56	2.24
293.15	0.49604	0.18	1586.82	2.24
293.15	0.69732	0.18	1620.77	2.24
293.15	0.76259	0.18	1631.94	2.24
293.15	0.8987	0.18	1654.41	2.24
298.15	0.10039	0.085	1519.65	2.24
298.15	0.19636	0.085	1536.35	2.24
298.15	0.29301	0.085	1553.09	2.24
298.15	0.39252	0.085	1569.45	2.24
298.15	0.49606	0.085	1586.23	2.24
298.15	0.6997	0.085	1616.52	2.24
298.15	0.77096	0.085	1625.6	2.24
298.15	0.90033	0.085	1642.02	2.24
298.15	0	0.085	1499.73	2.24
298.15	0.0046	0.085	1500.29	2.24
298.15	0.04807	0.085	1509.78	2.24
298.15	0	0.18	1503.97	2.24
298.15	0.00393	0.18	1504.77	2.24
298.15	0.04887	0.18	1515.59	2.24
298.15	0.09699	0.18	1525.72	2.24
298.15	0.19952	0.18	1545.56	2.24
298.15	0.28997	0.18	1561.03	2.24
298.15	0.3864	0.18	1577.52	2.24
298.15	0.49361	0.18	1595.12	2.24
298.15	0.49604	0.18	1595.44	2.24
298.15	0.69732	0.18	1626.98	2.24
298.15	0.76259	0.18	1636.86	2.24
298.15	0.8987	0.18	1657.12	2.24
303.15	0.10039	0.085	1531.81	2.24
303.15	0.19636	0.085	1548.22	2.24
303.15	0.29301	0.085	1564.31	2.24
303.15	0.39252	0.085	1578.89	2.24
303.15	0.49606	0.085	1594.39	2.24
303.15	0.6997	0.085	1623.56	2.24
303.15	0.77096	0.085	1631.43	2.24
303.15	0.90033	0.085	1643.35	2.24
303.15	0	0.085	1511.7	2.24
303.15	0.0046	0.085	1512.77	2.24
303.15	0.04807	0.085	1522.16	2.24
303.15	0	0.18	1515.5	2.24
303.15	0.00393	0.18	1516.21	2.24
303.15	0.04887	0.18	1526.74	2.24
303.15	0.09699	0.18	1536.59	2.24
303.15	0.19952	0.18	1555.83	2.24
303.15	0.28997	0.18	1571.2	2.24
303.15	0.3864	0.18	1587.88	2.24
303.15	0.49361	0.18	1604.68	2.24
303.15	0.49604	0.18	1605.01	2.24
303.15	0.69732	0.18	1634.74	2.24
303.15	0.76259	0.18	1644.14	2.24
303.15	0.8987	0.18	1661.08	2.24

System: N-acetylglycine + potassium citrate + water; phases: Liquid
Fixed: Pressure, kPa = 101
Property: Mass density, kg/m3 (Liquid); method: Vibrating tube method
Temperature, K	Solvent: Molality, mol/kg of N-acetylglycine	Molality, mol/kg of potassium citrate	Mass density, kg/m3	uncertainty
288.15	0.18	0	1004.889	0.233
288.15	0.18	0.00664	1006.225	0.233
288.15	0.18	0.05414	1015.665	0.236
288.15	0.18	0.09549	1023.737	0.238
288.15	0.18	0.19795	1043.161	0.244
288.15	0.18	0.29935	1061.704	0.25
288.15	0.18	0.36306	1072.948	0.254
288.15	0.18	0.49121	1094.922	0.262
288.15	0.18	0.57799	1109.082	0.267
288.15	0.18	0.70715	1129.103	0.275
288.15	0.18	0.76143	1137.237	0.278
288.15	0.18	0.88856	1155.489	0.285
288.15	0.085	0	1001.926	0.232
288.15	0.085	0.00649	1003.267	0.232
288.15	0.085	0.05373	1012.869	0.235
288.15	0.085	0.09827	1021.71	0.238
288.15	0.085	0.2053	1042.109	0.244
288.15	0.085	0.28875	1057.297	0.249
288.15	0.085	0.3703	1071.738	0.253
288.15	0.085	0.49497	1092.811	0.26
288.15	0.085	0.69765	1124.991	0.272
288.15	0.085	0.75923	1134.521	0.276
288.15	0.085	0.88731	1153.498	0.283
293.15	0.18	0.88856	1152.235	0.283
293.15	0.18	0	1003.905	0.233
293.15	0.18	0.00664	1005.228	0.233
293.15	0.18	0.05414	1014.572	0.235
293.15	0.18	0.09549	1022.549	0.238
293.15	0.18	0.19795	1041.711	0.244
293.15	0.18	0.29935	1059.99	0.249
293.15	0.18	0.36306	1071.071	0.253
293.15	0.18	0.49121	1092.587	0.261
293.15	0.18	0.57799	1106.412	0.265
293.15	0.18	0.70715	1126.19	0.273
293.15	0.18	0.76143	1134.175	0.276
293.15	0.085	0	1000.994	0.232
293.15	0.085	0.00649	1002.319	0.232
293.15	0.085	0.05373	1011.827	0.235
293.15	0.085	0.09827	1020.589	0.237
293.15	0.085	0.2053	1040.825	0.243
293.15	0.085	0.28875	1055.926	0.248
293.15	0.085	0.3703	1070.182	0.253
293.15	0.085	0.49497	1091.186	0.26
293.15	0.085	0.69765	1123.223	0.272
293.15	0.085	0.75923	1132.588	0.275
293.15	0.085	0.88731	1151.529	0.283
298.15	0.18	0	1002.658	0.233
298.15	0.18	0.00664	1005.208	0.233
298.15	0.18	0.05414	1014.412	0.236
298.15	0.18	0.09549	1022.269	0.238
298.15	0.18	0.19795	1041.235	0.244
298.15	0.18	0.29935	1059.275	0.25
298.15	0.18	0.36306	1070.199	0.253
298.15	0.18	0.49121	1091.392	0.261
298.15	0.18	0.57799	1105.206	0.265
298.15	0.18	0.70715	1124.773	0.273
298.15	0.18	0.76143	1132.526	0.276
298.15	0.18	0.88856	1150.119	0.283
298.15	0.085	0	999.799	0.232
298.15	0.085	0.00649	1001.113	0.232
298.15	0.085	0.05373	1010.539	0.235
298.15	0.085	0.09827	1019.222	0.237
298.15	0.085	0.2053	1039.291	0.243
298.15	0.085	0.28875	1054.242	0.248
298.15	0.085	0.3703	1068.418	0.252
298.15	0.085	0.49497	1089.328	0.26
298.15	0.085	0.69765	1121.238	0.271
298.15	0.085	0.75923	1130.415	0.275
298.15	0.085	0.88731	1148.999	0.282
303.15	0.18	0.70715	1120.006	0.274
303.15	0.18	0.76143	1127.732	0.277
303.15	0.18	0.88856	1145.039	0.283
303.15	0.18	0	1001.182	0.232
303.15	0.18	0.00664	1002.465	0.233
303.15	0.18	0.05414	1011.531	0.236
303.15	0.18	0.09549	1019.298	0.238
303.15	0.18	0.19795	1037.948	0.244
303.15	0.18	0.29935	1055.68	0.25
303.15	0.18	0.36306	1066.426	0.254
303.15	0.18	0.49121	1087.275	0.261
303.15	0.18	0.57799	1100.803	0.263
303.15	0.085	0	998.366	0.232
303.15	0.085	0.00649	999.674	0.232
303.15	0.085	0.05373	1009.049	0.234
303.15	0.085	0.09827	1017.665	0.237
303.15	0.085	0.2053	1037.592	0.243
303.15	0.085	0.28875	1052.502	0.247
303.15	0.085	0.3703	1066.614	0.252
303.15	0.085	0.49497	1087.418	0.259
303.15	0.085	0.69765	1119.146	0.271
303.15	0.085	0.75923	1128.332	0.274
303.15	0.085	0.88731	1146.559	0.281

System: N-acetylglycine + potassium citrate + water; phases: Liquid
Fixed: Pressure, kPa = 101
Property: Speed of sound, m/s (Liquid); method: Sing-around technique in a fixed-path interferometer
Temperature, K	Molality, mol/kg of potassium citrate	Solvent: Molality, mol/kg of N-acetylglycine	Speed of sound, m/s	uncertainty
288.15	0	0.085	1470.31	2.24
288.15	0.00649	0.085	1471.75	2.24
288.15	0.05373	0.085	1481.99	2.24
288.15	0.09827	0.085	1490.91	2.24
288.15	0.2053	0.085	1511.85	2.24
288.15	0.28875	0.085	1527.64	2.24
288.15	0.3703	0.085	1542.77	2.24
288.15	0.49497	0.085	1565.39	2.25
288.15	0.69765	0.085	1601.26	2.24
288.15	0.75923	0.085	1611.42	2.25
288.15	0.88731	0.085	1632.86	2.25
288.15	0	0.18	1470.64	5
288.15	0.00664	0.18	1477.23	2.24
288.15	0.05414	0.18	1488.01	2.24
288.15	0.09549	0.18	1496.88	2.24
288.15	0.19795	0.18	1517.07	2.24
288.15	0.29935	0.18	1535.7	2.24
288.15	0.36306	0.18	1547.55	2.24
288.15	0.49121	0.18	1569.91	2.24
288.15	0.57799	0.18	1585.13	2.24
288.15	0.70715	0.18	1607.36	2.24
288.15	0.76143	0.18	1616.57	2.25
288.15	0.88856	0.18	1633.29	2.25
293.15	0	0.085	1485.9	2.24
293.15	0.00649	0.085	1487.32	2.24
293.15	0.05373	0.085	1497.21	2.24
293.15	0.09827	0.085	1505.88	2.24
293.15	0.2053	0.085	1525.9	2.24
293.15	0.28875	0.085	1541.42	2.24
293.15	0.3703	0.085	1555.78	2.24
293.15	0.49497	0.085	1578.18	2.24
293.15	0.69765	0.085	1611.87	2.24
293.15	0.75923	0.085	1622.27	2.24
293.15	0.88731	0.085	1643.08	2.25
293.15	0	0.18	1490.67	2.25
293.15	0.00664	0.18	1492.23	2.24
293.15	0.05414	0.18	1502.95	2.24
293.15	0.09549	0.18	1511.91	2.24
293.15	0.19795	0.18	1531.36	2.24
293.15	0.29935	0.18	1548.86	2.24
293.15	0.36306	0.18	1560.07	2.24
293.15	0.49121	0.18	1581.98	2.24
293.15	0.57799	0.18	1596.52	2.24
293.15	0.70715	0.18	1617.72	2.24
293.15	0.76143	0.18	1627.02	2.24
293.15	0.88856	0.18	1643.14	2.24
298.15	0.09827	0.085	1519.09	2.24
298.15	0.2053	0.085	1538.38	2.24
298.15	0.28875	0.085	1552.82	2.24
298.15	0.3703	0.085	1566.67	2.24
298.15	0.49497	0.085	1587.97	2.24
298.15	0.69765	0.085	1620.64	2.24
298.15	0.75923	0.085	1631.01	2.24
298.15	0.88731	0.085	1649.78	2.24
298.15	0	0.085	1499.73	2.24
298.15	0.00649	0.085	1501.13	2.24
298.15	0.05373	0.085	1510.86	2.24
298.15	0	0.18	1504.03	2.24
298.15	0.00664	0.18	1503.68	2.24
298.15	0.05414	0.18	1514.02	2.24
298.15	0.09549	0.18	1522.31	2.24
298.15	0.19795	0.18	1541.87	2.24
298.15	0.29935	0.18	1559.26	2.24
298.15	0.36306	0.18	1569.41	2.24
298.15	0.49121	0.18	1590.43	2.24
298.15	0.57799	0.18	1604.5	2.24
298.15	0.70715	0.18	1624.41	2.24
298.15	0.76143	0.18	1632.3	2.24
298.15	0.88856	0.18	1647.06	2.24
303.15	0.09827	0.085	1530.54	2.24
303.15	0.2053	0.085	1549.16	2.24
303.15	0.28875	0.085	1563.33	2.24
303.15	0.3703	0.085	1576.3	2.24
303.15	0.49497	0.085	1597.02	2.24
303.15	0.69765	0.085	1629.77	2.24
303.15	0.75923	0.085	1638.81	2.24
303.15	0.88731	0.085	1656.23	2.24
303.15	0	0.085	1511.7	2.24
303.15	0.00649	0.085	1513.03	2.24
303.15	0.05373	0.085	1522.38	2.24
303.15	0	0.18	1515.62	2.24
303.15	0.00664	0.18	1517.09	2.24
303.15	0.05414	0.18	1527.07	2.24
303.15	0.09549	0.18	1535.11	2.24
303.15	0.19795	0.18	1553.72	2.24
303.15	0.29935	0.18	1570.61	2.24
303.15	0.36306	0.18	1580.98	2.24
303.15	0.49121	0.18	1601.34	2.24
303.15	0.57799	0.18	1614.01	2.24
303.15	0.70715	0.18	1632.09	2.24
303.15	0.76143	0.18	1639.15	2.24
303.15	0.88856	0.18	1651.15	2.24

System: trisodium citrate + water; phases: Liquid
Fixed: Pressure, kPa = 101
Property: Mass density, kg/m3 (Liquid); method: Vibrating tube method
Temperature, K	Molality, mol/kg of trisodium citrate	Mass density, kg/m3	uncertainty
288.15	0.00247	999.597	0.203
288.15	0.04871	1008.396	0.203
288.15	0.09738	1017.147	0.204
288.15	0.20096	1034.849	0.205
288.15	0.28976	1049.556	0.207
288.15	0.38994	1065.778	0.209
288.15	0.4966	1082.156	0.212
288.15	0.60074	1097.368	0.214
288.15	0.70355	1111.653	0.217
288.15	0.7698	1120.839	0.218
288.15	0.9013	1138.289	0.223
293.15	0.00247	998.701	0.203
293.15	0.04871	1007.39	0.203
293.15	0.09738	1016.075	0.204
293.15	0.20096	1033.453	0.205
293.15	0.28976	1047.864	0.207
293.15	0.38994	1063.453	0.209
293.15	0.4966	1079.75	0.211
293.15	0.60074	1094.946	0.214
293.15	0.70355	1109.411	0.216
293.15	0.7698	1118.509	0.218
293.15	0.9013	1135.526	0.222
298.15	0.00247	997.537	0.203
298.15	0.04871	1006.091	0.203
298.15	0.09738	1014.648	0.204
298.15	0.20096	1031.799	0.205
298.15	0.28976	1046.012	0.207
298.15	0.38994	1061.602	0.209
298.15	0.4966	1077.598	0.211
298.15	0.60074	1092.449	0.214
298.15	0.70355	1106.712	0.216
298.15	0.7698	1115.58	0.218
298.15	0.9013	1132.311	0.222
303.15	0.00247	996.131	0.203
303.15	0.04871	1004.6	0.203
303.15	0.09738	1013.094	0.204
303.15	0.20096	1030.155	0.205
303.15	0.28976	1044.343	0.207
303.15	0.38994	1059.705	0.209
303.15	0.4966	1075.593	0.211
303.15	0.60074	1090.27	0.213
303.15	0.70355	1104.4	0.216
303.15	0.7698	1113.154	0.218
303.15	0.9013	1129.688	0.221

System: trisodium citrate + water; phases: Liquid
Fixed: Pressure, kPa = 101
Property: Speed of sound, m/s (Liquid); method: Sing-around technique in a fixed-path interferometer
Temperature, K	Molality, mol/kg of trisodium citrate	Speed of sound, m/s	uncertainty
288.15	0.00247	1467.37	2.13
288.15	0.04871	1479.07	2.13
288.15	0.09738	1488.78	2.13
288.15	0.20096	1509.23	2.14
288.15	0.28976	1526.06	2.14
288.15	0.38994	1545.21	2.14
288.15	0.4966	1565.18	2.14
288.15	0.60074	1583.68	2.14
288.15	0.70355	1600.96	2.15
288.15	0.7698	1612.27	2.14
288.15	0.9013	1636.09	2.15
293.15	0.00247	1482.98	2.13
293.15	0.04871	1493.68	2.13
293.15	0.09738	1503.51	2.13
293.15	0.20096	1523.38	2.14
293.15	0.28976	1540.01	2.14
293.15	0.38994	1558.89	2.14
293.15	0.4966	1578.01	2.14
293.15	0.60074	1595.05	2.14
293.15	0.70355	1611.77	2.14
293.15	0.7698	1621.27	2.14
293.15	0.9013	1643.53	2.15
298.15	0.00247	1497.16	2.13
298.15	0.04871	1507.19	2.13
298.15	0.09738	1516.78	2.13
298.15	0.20096	1536.66	2.13
298.15	0.28976	1552.43	2.13
298.15	0.38994	1570.23	2.14
298.15	0.4966	1587.1	2.14
298.15	0.60074	1603.49	2.14
298.15	0.70355	1617.63	2.14
298.15	0.7698	1628.07	2.14
298.15	0.9013	1646.03	2.15
303.15	0.00247	1509.62	2.13
303.15	0.04871	1519.59	2.13
303.15	0.09738	1529.04	2.13
303.15	0.20096	1547.79	2.13
303.15	0.28976	1562.58	2.13
303.15	0.38994	1578.98	2.13
303.15	0.4966	1596.27	2.14
303.15	0.60074	1612.2	2.14
303.15	0.70355	1626.51	2.15
303.15	0.7698	1635.58	2.14
303.15	0.9013	1652.11	2.15

System: potassium citrate + water; phases: Liquid
Fixed: Pressure, kPa = 101
Property: Mass density, kg/m3 (Liquid); method: Vibrating tube method
Temperature, K	Molality, mol/kg of potassium citrate	Mass density, kg/m3	uncertainty
288.15	0.00361	999.9	0.203
288.15	0.05427	1010.356	0.203
288.15	0.09681	1018.587	0.204
288.15	0.20011	1038.274	0.206
288.15	0.29143	1055.112	0.208
288.15	0.38591	1071.836	0.21
288.15	0.49475	1090.125	0.213
288.15	0.57986	1104.113	0.215
288.15	0.69825	1122.79	0.219
288.15	0.75758	1131.777	0.221
288.15	0.89392	1151.832	0.226
293.15	0.00361	998.989	0.203
293.15	0.05427	1009.254	0.203
293.15	0.09681	1017.448	0.204
293.15	0.20011	1037.36	0.206
293.15	0.29143	1053.583	0.208
293.15	0.38591	1070.623	0.21
293.15	0.49475	1088.426	0.213
293.15	0.57986	1102.382	0.215
293.15	0.69825	1120.892	0.219
293.15	0.75758	1129.845	0.221
293.15	0.89392	1149.582	0.226
298.15	0.00361	997.839	0.203
298.15	0.05427	1007.981	0.203
298.15	0.09681	1016.12	0.204
298.15	0.20011	1035.593	0.206
298.15	0.29143	1051.92	0.208
298.15	0.38591	1069.018	0.21
298.15	0.49475	1086.459	0.212
298.15	0.57986	1100.202	0.215
298.15	0.69825	1118.453	0.219
298.15	0.75758	1127.364	0.22
298.15	0.89392	1146.958	0.225
303.15	0.00361	996.386	0.203
303.15	0.05427	1006.522	0.203
303.15	0.09681	1014.607	0.204
303.15	0.20011	1034.01	0.206
303.15	0.29143	1050.178	0.207
303.15	0.38591	1066.426	0.21
303.15	0.49475	1084.566	0.212
303.15	0.57986	1098.168	0.215
303.15	0.69825	1116.274	0.218
303.15	0.75758	1125.041	0.22
303.15	0.89392	1144.201	0.225

System: potassium citrate + water; phases: Liquid
Fixed: Pressure, kPa = 101
Property: Speed of sound, m/s (Liquid); method: Sing-around technique in a fixed-path interferometer
Temperature, K	Molality, mol/kg of potassium citrate	Speed of sound, m/s	uncertainty
288.15	0.00361	1467.41	2.13
288.15	0.05427	1478.38	2.13
288.15	0.09681	1487.18	2.13
288.15	0.20011	1506.97	2.14
288.15	0.29143	1524.11	2.14
288.15	0.38591	1541.91	2.14
288.15	0.49475	1561.8	2.14
288.15	0.57986	1576.58	2.14
288.15	0.69825	1597.56	2.15
288.15	0.75758	1607.62	2.15
288.15	0.89392	1630.76	2.16
293.15	0.00361	1483.11	2.13
293.15	0.05427	1493.75	2.13
293.15	0.09681	1502.07	2.13
293.15	0.20011	1521.65	2.14
293.15	0.29143	1537.78	2.14
293.15	0.38591	1555.38	2.14
293.15	0.49475	1572.82	2.14
293.15	0.57986	1587.98	2.14
293.15	0.69825	1608.2	2.15
293.15	0.75758	1618.88	2.15
293.15	0.89392	1641.27	2.15
298.15	0.00361	1497.31	2.13
298.15	0.05427	1507.64	2.13
298.15	0.09681	1515.82	2.13
298.15	0.20011	1534.61	2.13
298.15	0.29143	1550.64	2.14
298.15	0.38591	1567.66	2.14
298.15	0.49475	1584.79	2.14
298.15	0.57986	1598.79	2.14
298.15	0.69825	1618.29	2.15
298.15	0.75758	1627.73	2.15
298.15	0.89392	1649.37	2.15
303.15	0.00361	1509.72	2.13
303.15	0.05427	1519.72	2.13
303.15	0.09681	1527.73	2.13
303.15	0.20011	1545.89	2.13
303.15	0.29143	1561.22	2.13
303.15	0.38591	1577.72	2.14
303.15	0.49475	1595.2	2.14
303.15	0.57986	1609.14	2.14
303.15	0.69825	1627.49	2.15
303.15	0.75758	1637.2	2.15
303.15	0.89392	1657.54	2.15

System: N-acetylglycine + water; phases: Liquid
Fixed: Pressure, kPa = 101
Property: Mass density, kg/m3 (Liquid); method: Vibrating tube method
Temperature, K	Molality, mol/kg of N-acetylglycine	Mass density, kg/m3	uncertainty
288.15	0.085	1001.926	0.232
288.15	0.18	1005.016	0.233
288.15	0.18	1004.889	0.233
293.15	0.18	1004.025	0.233
293.15	0.085	1000.994	0.232
293.15	0.18	1003.905	0.233
298.15	0.18	1002.777	0.232
298.15	0.085	999.799	0.232
298.15	0.18	1002.658	0.233
303.15	0.085	998.366	0.232
303.15	0.18	1001.3	0.232
303.15	0.18	1001.182	0.232

System: N-acetylglycine + water; phases: Liquid
Fixed: Pressure, kPa = 101
Property: Speed of sound, m/s (Liquid); method: Sing-around technique in a fixed-path interferometer
Temperature, K	Molality, mol/kg of N-acetylglycine	Speed of sound, m/s	uncertainty
288.15	0.085	1470.31	2.24
288.15	0.18	1475.4	2.24
288.15	0.18	1470.64	5
293.15	0.18	1490.54	2.24
293.15	0.085	1485.9	2.24
293.15	0.18	1490.67	2.25
298.15	0.085	1499.73	2.24
298.15	0.18	1503.97	2.24
298.15	0.18	1504.03	2.24
303.15	0.18	1515.5	2.24
303.15	0.085	1511.7	2.24
303.15	0.18	1515.62	2.24
