Measured thermophysical data. Enthalpies and heat capacities of solution of urea and tetramethylurea in water, ethylene glycol and formamide
Source: J. Chem. Thermodyn., 2019, 10.1016/j.jct.2018.09.033
Compound 1: urea, CH4N2O, InChI=1S/CH4N2O/c2-1(3)4/h(H4,2,3,4), purity 99.5%
Compound 2: tetramethylurea, C5H12N2O, InChI=1S/C5H12N2O/c1-6(2)5(8)7(3)4/h1-4H3, purity 99%
Compound 3: formamide, CH3NO, InChI=1S/CH3NO/c2-1-3/h1H,(H2,2,3), purity 99%
Compound 4: 1,2-ethanediol, C2H6O2, InChI=1S/C2H6O2/c3-1-2-4/h3-4H,1-2H2, purity 99%
Compound 5: water, H2O, InChI=1S/H2O/h1H2

System: urea + water; phases: Liquid
Property: Molar enthalpy of solution, kJ/mol (Liquid); method: ISOPERIBOL
Temperature, K	Pressure, kPa	Mole fraction of urea	Molar enthalpy of solution, kJ/mol	uncertainty
298.15	101.33	0	15.29	0.16

System: urea + 1,2-ethanediol; phases: Liquid
Fixed: Pressure, kPa = 101.33
Property: Molar enthalpy of solution, kJ/mol (Liquid); method: ISOPERIBOL
Molality, mol/kg of urea	Temperature, K	Molar enthalpy of solution, kJ/mol	uncertainty
0.023847	288.15	4.04	0.09
0.037442	288.15	4.08	0.09
0.051054	288.15	4.05	0.09
0.07005	288.15	4.04	0.09
0.078985	288.15	4.08	0.09
0.071435	298.15	5.38	0.09
0.073454	298.15	5.4	0.09
0.080034	298.15	5.34	0.09
0.082109	298.15	5.38	0.09
0.085652	298.15	5.39	0.09
0.077625	308.15	6.17	0.09
0.083866	308.15	6.23	0.09
0.091121	308.15	6.2	0.09
0.103543	308.15	6.16	0.09
0.106144	308.15	6.19	0.09
0.061702	318.15	7.03	0.09
0.070819	318.15	6.87	0.09
0.073142	318.15	6.93	0.09
0.077361	318.15	7.04	0.09
0.082748	318.15	6.97	0.09
0.05412	328.15	7.58	0.1
0.059733	328.15	7.71	0.1
0.06221	328.15	7.66	0.1
0.067325	328.15	7.7	0.1
0.077134	328.15	7.69	0.1

System: urea + formamide; phases: Liquid
Fixed: Pressure, kPa = 101.33
Property: Molar enthalpy of solution, kJ/mol (Liquid); method: ISOPERIBOL
Molality, mol/kg of urea	Temperature, K	Molar enthalpy of solution, kJ/mol	uncertainty
0.026314	288.15	8.8	0.1
0.032697	288.15	8.84	0.1
0.057218	288.15	8.87	0.1
0.081503	288.15	8.85	0.1
0.087908	288.15	8.88	0.1
0.016968	298.15	9.56	0.1
0.024345	298.15	9.5	0.1
0.029493	298.15	9.54	0.1
0.03713	298.15	9.51	0.1
0.037388	298.15	9.57	0.11
0.023821	308.15	10.22	0.11
0.039344	308.15	10.18	0.11
0.044149	308.15	10.09	0.11
0.046287	308.15	10.21	0.11
0.052137	308.15	10.32	0.11
0.018475	318.15	10.64	0.11
0.02965	318.15	10.71	0.11
0.039419	318.15	10.53	0.11
0.052913	318.15	10.66	0.11
0.069978	318.15	10.65	0.11
0.016032	328.15	11.02	0.11
0.01983	328.15	10.94	0.11
0.025624	328.15	10.85	0.11
0.033889	328.15	11.01	0.11
0.061451	328.15	11.15	0.11

System: tetramethylurea + 1,2-ethanediol; phases: Liquid
Fixed: Pressure, kPa = 101.33
Property: Molar enthalpy of solution, kJ/mol (Liquid); method: ISOPERIBOL
Molality, mol/kg of tetramethylurea	Temperature, K	Molar enthalpy of solution, kJ/mol	uncertainty
0.071838	288.15	-3.48	0.08
0.13234	288.15	-3.52	0.08
0.151367	288.15	-3.51	0.08
0.190707	288.15	-3.5	0.08
0.24752	288.15	-3.48	0.08
0.052247	298.15	-3.38	0.08
0.085632	298.15	-3.34	0.08
0.116299	298.15	-3.36	0.08
0.177626	298.15	-3.39	0.08
0.251645	298.15	-3.36	0.08
0.037491	308.15	-3.2	0.08
0.100891	308.15	-3.22	0.08
0.170834	308.15	-3.19	0.08
0.214336	308.15	-3.19	0.08
0.23847	308.15	-3.16	0.08
0.053666	318.15	-3.06	0.08
0.104454	318.15	-3.04	0.08
0.191099	318.15	-3.05	0.08
0.239341	318.15	-3.03	0.08
0.277069	318.15	-3.01	0.08
0.045509	328.15	-2.86	0.08
0.108313	328.15	-2.89	0.08
0.187417	328.15	-2.92	0.08
0.227537	328.15	-2.9	0.08
0.267077	328.15	-2.91	0.08

System: tetramethylurea + formamide; phases: Liquid
Fixed: Pressure, kPa = 101.33
Property: Molar enthalpy of solution, kJ/mol (Liquid); method: ISOPERIBOL
Molality, mol/kg of tetramethylurea	Temperature, K	Molar enthalpy of solution, kJ/mol	uncertainty
0.02486	288.15	-9.57	0.1
0.04689	288.15	-9.55	0.1
0.09402	288.15	-9.56	0.1
0.12213	288.15	-9.53	0.1
0.17208	288.15	-9.53	0.1
0.037726	298.15	-9.15	0.1
0.075991	298.15	-9.19	0.1
0.090329	298.15	-9.14	0.1
0.10977	298.15	-9.16	0.1
0.013968	298.15	-9.26	0.1
0.019124	308.15	-8.78	0.1
0.020119	308.15	-8.84	0.1
0.034331	308.15	-8.77	0.1
0.056739	308.15	-8.76	0.1
0.093706	308.15	-8.79	0.1
0.035	318.15	-8.43	0.1
0.055182	318.15	-8.4	0.1
0.042011	318.15	-8.37	0.1
0.067673	318.15	-8.38	0.1
0.085272	318.15	-8.45	0.1
0.008791	328.15	-8.03	0.1
0.017389	328.15	-8.07	0.1
0.04717	328.15	-8.04	0.1
0.064559	328.15	-8.08	0.1
0.100237	328.15	-8.02	0.1

System: tetramethylurea + water; phases: Liquid
Property: Molar enthalpy of solution, kJ/mol (Liquid); method: ISOPERIBOL
Temperature, K	Pressure, kPa	Mole fraction of tetramethylurea	Molar enthalpy of solution, kJ/mol	uncertainty
298.15	101.33	0	-24.8	0.26
