Measured thermophysical data. Properties of pure 1-(3-(trimethylammonio)prop-1-yl)-3-methylimidazolium bis(dicyanamide) asymmetrical gemini ionic liquid and its binary mixture with isopropanol at T = (283.15 333.15) K
Source: J. Chem. Thermodyn., 2019, 10.1016/j.jct.2019.02.031
Compound 1: 1-methyl-3-(3-(trimethylammonio)propyl)-1H-imidazolium bis(dicyanamide), C14H21N9, InChI=1S/C10H21N3.2C2N3/c1-11-7-8-12(10-11)6-5-9-13(2,3)4;2*3-1-5-2-4/h7-8,10H,5-6,9H2,1-4H3;;/q+2;2*-1
Compound 2: propan-2-ol, C3H8O, InChI=1S/C3H8O/c1-3(2)4/h3-4H,1-2H3, purity 99.5%

System: 1-methyl-3-(3-(trimethylammonio)propyl)-1H-imidazolium bis(dicyanamide); phases: Liquid
Fixed: Pressure, kPa = 101.325
Property: Molar heat capacity at constant pressure, J/K/mol (Liquid); method: DSC
Temperature, K	Molar heat capacity at constant pressure, J/K/mol	uncertainty
298.15	519.439095	85.15395
303.15	521.64679	85.469335
308.15	523.854485	85.78472
313.15	526.06218	86.100105
318.15	527.95449	86.41549
323.15	530.47757	87.04626
328.15	532.685265	87.361645
333.15	535.208345	87.67703
338.15	537.100655	87.992415
343.15	539.623735	88.3078
348.15	541.83143	88.93857
353.15	543.72374	88.93857
358.15	546.24682	89.56934
363.15	548.13913	89.884725
368.15	550.66221	90.20011
373.15	553.18529	90.515495
378.15	555.392985	91.146265
383.15	557.916065	91.46165
388.15	560.12376	91.777035
393.15	562.331455	92.09242
398.15	564.854535	92.407805
403.15	567.06223	93.038575
408.15	569.269925	93.35396
413.15	571.793005	93.669345
418.15	574.316085	93.98473
423.15	576.208395	94.300115

System: 1-methyl-3-(3-(trimethylammonio)propyl)-1H-imidazolium bis(dicyanamide); phases: Liquid
Fixed: Pressure, kPa = 101
Property: Mass density, kg/m3 (Liquid); method: Vibrating tube method
Temperature, K	Mass density, kg/m3	uncertainty
283.15	1162.82	2.01
288.15	1159.76	2.01
293.15	1156.74	2.01
298.15	1153.73	2.01
303.15	1150.76	2.01
308.15	1147.8	2
313.15	1144.89	2
318.15	1142	2
323.15	1139.11	2
328.15	1136.24	2
333.15	1133.4	2

System: 1-methyl-3-(3-(trimethylammonio)propyl)-1H-imidazolium bis(dicyanamide); phases: Liquid
Fixed: Pressure, kPa = 101
Property: Viscosity, Pa*s (Liquid); method: Falling or rolling sphere viscometry
Temperature, K	Viscosity, Pa*s	uncertainty
283.15	4.998	0.866
288.15	2.736	0.434
293.15	1.608	0.235
298.15	1.007	0.137
303.15	0.6629	0.0847
308.15	0.4554	0.055
313.15	0.3246	0.0374
318.15	0.2397	0.0266
323.15	0.1812	0.0195
328.15	0.1411	0.0148
333.15	0.1119	0.0115

System: propan-2-ol; phases: Liquid
Fixed: Pressure, kPa = 101
Property: Mass density, kg/m3 (Liquid); method: Vibrating tube method
Temperature, K	Mass density, kg/m3	uncertainty
283.15	793.67	2
288.15	789.58	2
293.15	785.44	2
298.15	781.24	2
303.15	776.97	2
308.15	772.62	2
313.15	768.18	2
318.15	763.65	2
323.15	759.01	2
328.15	754.26	2.01
333.15	749.39	2.01

System: propan-2-ol; phases: Liquid
Fixed: Pressure, kPa = 101
Property: Viscosity, Pa*s (Liquid); method: Falling or rolling sphere viscometry
Temperature, K	Viscosity, Pa*s	uncertainty
283.15	0.003352	0.000336
288.15	0.002843	0.000285
293.15	0.002423	0.000243
298.15	0.00208	0.000209
303.15	0.001792	0.00018
308.15	0.001554	0.000156
313.15	0.001352	0.000136
318.15	0.001183	0.000119
323.15	0.001039	0.000104
328.15	0.000918	9.2e-05
333.15	0.000813	8.2e-05

System: 1-methyl-3-(3-(trimethylammonio)propyl)-1H-imidazolium bis(dicyanamide) + propan-2-ol; phases: Liquid
Fixed: Pressure, kPa = 101
Property: Mass density, kg/m3 (Liquid); method: Vibrating tube method
Temperature, K	Mole fraction of 1-methyl-3-(3-(trimethylammonio)propyl)-1H-imidazolium bis(dicyanamide)	Mass density, kg/m3	uncertainty
283.15	0	793.67	2
283.15	0.1001	905.3	2.21
283.15	0.2	978.56	2.09
283.15	0.2999	1028.83	2.05
283.15	0.4	1065.91	2.03
283.15	0.5001	1094.18	2.02
283.15	0.5998	1114.84	2.01
283.15	0.7002	1130.38	2.01
283.15	0.8001	1142.95	2.01
283.15	0.8985	1153.75	2.01
283.15	1	1162.82	2.01
288.15	0	789.58	2
288.15	0.1001	901.8	2.21
288.15	0.2	975.32	2.1
288.15	0.2999	1025.72	2.05
288.15	0.4	1062.7	2.03
288.15	0.5001	1091.1	2.02
288.15	0.5998	1111.98	2.01
288.15	0.7002	1127.66	2.01
288.15	0.8001	1140.22	2.01
288.15	0.8985	1150.85	2.01
288.15	1	1159.76	2.01
293.15	0	785.44	2
293.15	0.1001	898.28	2.21
293.15	0.2	972.09	2.1
293.15	0.2999	1022.6	2.05
293.15	0.4	1059.76	2.03
293.15	0.5001	1088.04	2.02
293.15	0.5998	1108.93	2.01
293.15	0.7002	1124.71	2.01
293.15	0.8001	1137.27	2.01
293.15	0.8985	1147.89	2.01
293.15	1	1156.74	2.01
298.15	0	781.24	2
298.15	0.1001	894.74	2.21
298.15	0.2	968.65	2.1
298.15	0.2999	1019.48	2.05
298.15	0.4	1056.42	2.03
298.15	0.5001	1084.68	2.02
298.15	0.5998	1105.58	2.01
298.15	0.7002	1121.85	2.01
298.15	0.8001	1134.38	2.01
298.15	0.8985	1144.95	2.01
298.15	1	1153.73	2.01
303.15	0	776.97	2
303.15	0.1001	891.18	2.21
303.15	0.2	965.32	2.1
303.15	0.2999	1016.38	2.05
303.15	0.4	1053.15	2.03
303.15	0.5001	1081.45	2.02
303.15	0.5998	1102.88	2.01
303.15	0.7002	1118.91	2.01
303.15	0.8001	1131.5	2.01
303.15	0.8985	1141.97	2.01
303.15	1	1150.76	2.01
308.15	0	772.62	2
308.15	0.1001	887.61	2.22
308.15	0.2	962.09	2.1
308.15	0.2999	1013.25	2.05
308.15	0.4	1050.12	2.03
308.15	0.5001	1078.35	2.02
308.15	0.5998	1099.87	2.01
308.15	0.7002	1116.01	2.01
308.15	0.8001	1128.64	2.01
308.15	0.8985	1139.04	2.01
308.15	1	1147.8	2
313.15	0	768.18	2
313.15	0.1001	884.01	2.22
313.15	0.2	959.16	2.1
313.15	0.2999	1009.82	2.05
313.15	0.4	1046.89	2.03
313.15	0.5001	1075.26	2.02
313.15	0.5998	1096.85	2.01
313.15	0.7002	1113.12	2.01
313.15	0.8001	1125.89	2.01
313.15	0.8985	1136.19	2.01
313.15	1	1144.89	2
318.15	0	763.65	2
318.15	0.1001	880.4	2.22
318.15	0.2	955.64	2.1
318.15	0.2999	1006.35	2.05
318.15	0.4	1043.68	2.03
318.15	0.5001	1072.32	2.02
318.15	0.5998	1094.09	2.01
318.15	0.7002	1110.26	2.01
318.15	0.8001	1123.09	2.01
318.15	0.8985	1133.33	2.01
318.15	1	1142	2
323.15	0	759.01	2
323.15	0.1001	876.76	2.22
323.15	0.2	952.12	2.1
323.15	0.2999	1002.86	2.05
323.15	0.4	1040.46	2.03
323.15	0.5001	1069.5	2.02
323.15	0.5998	1091.18	2.01
323.15	0.7002	1107.31	2.01
323.15	0.8001	1120.31	2.01
323.15	0.8985	1130.45	2.01
323.15	1	1139.11	2
328.15	0	754.26	2.01
328.15	0.1001	873.09	2.23
328.15	0.2	948.69	2.1
328.15	0.2999	1000.05	2.05
328.15	0.4	1037.56	2.03
328.15	0.5001	1066.62	2.02
328.15	0.5998	1088.47	2.01
328.15	0.7002	1104.35	2.01
328.15	0.8001	1117.52	2.01
328.15	0.8985	1127.59	2.01
328.15	1	1136.24	2
333.15	0	749.39	2.01
333.15	0.1001	869.4	2.23
333.15	0.2	945.77	2.1
333.15	0.2999	996.95	2.05
333.15	0.4	1034.62	2.03
333.15	0.5001	1063.89	2.02
333.15	0.5998	1085.59	2.01
333.15	0.7002	1101.65	2.01
333.15	0.8001	1114.82	2.01
333.15	0.8985	1124.75	2.01
333.15	1	1133.4	2

System: 1-methyl-3-(3-(trimethylammonio)propyl)-1H-imidazolium bis(dicyanamide) + propan-2-ol; phases: Liquid
Fixed: Pressure, kPa = 101
Property: Viscosity, Pa*s (Liquid); method: Falling or rolling sphere viscometry
Temperature, K	Mole fraction of 1-methyl-3-(3-(trimethylammonio)propyl)-1H-imidazolium bis(dicyanamide)	Viscosity, Pa*s	uncertainty
283.15	0	0.003352	0.000336
283.15	0.1001	0.01227	0.00124
283.15	0.2	0.03198	0.00322
283.15	0.2999	0.07159	0.00723
283.15	0.4	0.1521	0.0161
283.15	0.5001	0.2904	0.0331
283.15	0.5998	0.452	0.0546
283.15	0.7002	0.7429	0.0966
283.15	0.8001	1.216	0.17
283.15	0.8985	2.301	0.356
283.15	1	4.998	0.866
288.15	0	0.002843	0.000285
288.15	0.1001	0.01023	0.00103
288.15	0.2	0.02555	0.00257
288.15	0.2999	0.05485	0.00551
288.15	0.4	0.1105	0.0114
288.15	0.5001	0.2046	0.0223
288.15	0.5998	0.3039	0.0348
288.15	0.7002	0.4935	0.0604
288.15	0.8001	0.7498	0.0976
288.15	0.8985	1.346	0.192
288.15	1	2.736	0.434
293.15	0	0.002423	0.000243
293.15	0.1001	0.008914	0.000899
293.15	0.2	0.0214	0.00215
293.15	0.2999	0.04454	0.00448
293.15	0.4	0.08503	0.00864
293.15	0.5001	0.153	0.0162
293.15	0.5998	0.2191	0.0241
293.15	0.7002	0.3414	0.0397
293.15	0.8001	0.4986	0.0611
293.15	0.8985	0.8434	0.1118
293.15	1	1.608	0.235
298.15	0	0.00208	0.000209
298.15	0.1001	0.007619	0.000768
298.15	0.2	0.01802	0.00181
298.15	0.2999	0.03575	0.00359
298.15	0.4	0.06638	0.00668
298.15	0.5001	0.1165	0.0121
298.15	0.5998	0.163	0.0174
298.15	0.7002	0.2451	0.0273
298.15	0.8001	0.3428	0.0399
298.15	0.8985	0.5581	0.0696
298.15	1	1.007	0.137
303.15	0	0.001792	0.00018
303.15	0.1001	0.006585	0.000664
303.15	0.2	0.01528	0.00154
303.15	0.2999	0.02922	0.00294
303.15	0.4	0.05345	0.00536
303.15	0.5001	0.09062	0.00922
303.15	0.5998	0.1243	0.0129
303.15	0.7002	0.1813	0.0195
303.15	0.8001	0.2457	0.0274
303.15	0.8985	0.3872	0.0458
303.15	1	0.6629	0.0847
308.15	0	0.001554	0.000156
308.15	0.1001	0.005755	0.00058
308.15	0.2	0.01311	0.00132
308.15	0.2999	0.02431	0.00244
308.15	0.4	0.04361	0.00438
308.15	0.5001	0.07182	0.00723
308.15	0.5998	0.09707	0.00992
308.15	0.7002	0.1377	0.0144
308.15	0.8001	0.182	0.0196
308.15	0.8985	0.2789	0.0316
308.15	1	0.4554	0.055
313.15	0	0.001352	0.000136
313.15	0.1001	0.005069	0.000511
313.15	0.2	0.01151	0.00116
313.15	0.2999	0.02053	0.00206
313.15	0.4	0.03631	0.00365
313.15	0.5001	0.05815	0.00583
313.15	0.5998	0.07762	0.00784
313.15	0.7002	0.1072	0.011
313.15	0.8001	0.1385	0.0145
313.15	0.8985	0.2078	0.0227
313.15	1	0.3246	0.0374
318.15	0	0.001183	0.000119
318.15	0.1001	0.004515	0.000455
318.15	0.2	0.01008	0.00101
318.15	0.2999	0.01742	0.00175
318.15	0.4	0.03062	0.00307
318.15	0.5001	0.04857	0.00487
318.15	0.5998	0.06307	0.00633
318.15	0.7002	0.08559	0.00868
318.15	0.8001	0.109	0.0112
318.15	0.8985	0.1603	0.017
318.15	1	0.2397	0.0266
323.15	0	0.001039	0.000104
323.15	0.1001	0.004052	0.000408
323.15	0.2	0.008828	0.000887
323.15	0.2999	0.01518	0.00152
323.15	0.4	0.02611	0.00262
323.15	0.5001	0.04073	0.00409
323.15	0.5998	0.05216	0.00522
323.15	0.7002	0.07003	0.00704
323.15	0.8001	0.08693	0.00882
323.15	0.8985	0.1254	0.013
323.15	1	0.1812	0.0195
328.15	0	0.000918	9.2e-05
328.15	0.1001	0.003672	0.00037
328.15	0.2	0.007836	0.000787
328.15	0.2999	0.01338	0.00134
328.15	0.4	0.02257	0.00227
328.15	0.5001	0.03487	0.0035
328.15	0.5998	0.04582	0.0046
328.15	0.7002	0.05838	0.00585
328.15	0.8001	0.07122	0.00717
328.15	0.8985	0.1014	0.0104
328.15	1	0.1411	0.0148
333.15	0	0.000813	8.2e-05
333.15	0.1001	0.00336	0.000338
333.15	0.2	0.006989	0.000702
333.15	0.2999	0.01194	0.0012
333.15	0.4	0.01989	0.002
333.15	0.5001	0.02999	0.00301
333.15	0.5998	0.03936	0.00395
333.15	0.7002	0.04932	0.00495
333.15	0.8001	0.05934	0.00595
333.15	0.8985	0.08314	0.00842
333.15	1	0.1119	0.0115
