Measured thermophysical data. Thermodynamics of solution of proto- and mezoporphyrins in N,N-dimethylformamide
Source: J. Chem. Thermodyn., 2015, 10.1016/j.jct.2015.05.016
Compound 1: protoporphyrin IX, dimethyl ester, C36H38N4O4, InChI=1S/C36H38N4O4/c1-9-23-19(3)27-15-28-21(5)25(11-13-35(41)43-7)33(39-28)18-34-26(12-14-36(42)44-8)22(6)30(40-34)17-32-24(10-2)20(4)29(38-32)16-31(23)37-27/h9-10,15-18,37,40H,1-2,11-14H2,3-8H3/b27-15-,28-15-,29-16-,30-17-,31-16-,32-17-,33-18-,34-18-
Compound 2: mesoporphyrin, dimethyl ester, C36H42N4O4, InChI=1S/C36H42N4O4/c1-9-23-19(3)27-15-28-21(5)25(11-13-35(41)43-7)33(39-28)18-34-26(12-14-36(42)44-8)22(6)30(40-34)17-32-24(10-2)20(4)29(38-32)16-31(23)37-27/h15-18,37,40H,9-14H2,1-8H3/b27-15-,28-15-,29-16-,30-17-,31-16-,32-17-,33-18-,34-18-
Compound 3: dimethylformamide, C3H7NO, InChI=1S/C3H7NO/c1-4(2)3-5/h3H,1-2H3, purity 98%

System: dimethylformamide + protoporphyrin IX, dimethyl ester; phases: Liquid
Fixed: Mole fraction of protoporphyrin IX, dimethyl ester = 0
Fixed: Pressure, kPa = 101.33
Property: Molar enthalpy of solution, kJ/mol (Liquid); method: ISOPERIBOL
Temperature, K	Molar enthalpy of solution, kJ/mol	uncertainty
298.15	26.12	0.2
308.15	31.85	0.25
318.15	37.27	0.29

System: dimethylformamide + protoporphyrin IX, dimethyl ester; phases: Liquid, Crystal
Fixed: Pressure, kPa = 101.33
Property: Molality, mol/kg of protoporphyrin IX, dimethyl ester (Liquid); method: Spectrophotometry
Temperature, K	Molality, mol/kg of protoporphyrin IX, dimethyl ester	uncertainty
298.15	0.00326	0.00017
308.15	0.00564	0.00029
318.15	0.00844	0.00043

System: dimethylformamide + mesoporphyrin, dimethyl ester; phases: Liquid
Fixed: Mole fraction of mesoporphyrin, dimethyl ester = 0
Fixed: Pressure, kPa = 101.33
Property: Molar enthalpy of solution, kJ/mol (Liquid); method: ISOPERIBOL
Temperature, K	Molar enthalpy of solution, kJ/mol	uncertainty
298.15	24.62	0.19
308.15	29.68	0.23
318.15	35.39	0.27

System: dimethylformamide + mesoporphyrin, dimethyl ester; phases: Liquid, Crystal
Fixed: Pressure, kPa = 101.33
Property: Molality, mol/kg of mesoporphyrin, dimethyl ester (Liquid); method: Spectrophotometry
Temperature, K	Molality, mol/kg of mesoporphyrin, dimethyl ester	uncertainty
298.15	0.00401	0.00021
308.15	0.00633	0.00032
318.15	0.00913	0.00046
