Measured thermophysical data. Study of liquid-liquid extraction of ethanol + water azeotropic mixtures using two imidazolium-based ionic liquids
Source: J. Chem. Thermodyn., 2018, 10.1016/j.jct.2017.11.006
Compound 1: water, H2O, InChI=1S/H2O/h1H2, purity 99.5%
Compound 2: ethanol, C2H6O, InChI=1S/C2H6O/c1-2-3/h3H,2H2,1H3, purity 99.9%
Compound 3: 1-ethyl-3-methylimidazolium bis((trifluoromethyl)sulfonyl)imide, C8H11F6N3O4S2, InChI=1S/C6H11N2.C2F6NO4S2/c1-3-8-5-4-7(2)6-8;3-1(4,5)14(10,11)9-15(12,13)2(6,7)8/h4-6H,3H2,1-2H3;/q+1;-1, purity 99%
Compound 4: 1-hexyl-3-methylimidazolium bis[(trifluoromethyl)sulfonyl]imide, C12H19F6N3O4S2, InChI=1S/C10H19N2.C2F6NO4S2/c1-3-4-5-6-7-12-9-8-11(2)10-12;3-1(4,5)14(10,11)9-15(12,13)2(6,7)8/h8-10H,3-7H2,1-2H3;/q+1;-1, purity 99%

System: water + ethanol + 1-ethyl-3-methylimidazolium bis((trifluoromethyl)sulfonyl)imide; phases: Liquid mixture 2, Liquid mixture 1
Fixed: Pressure, kPa = 101.3
Property: Mole fraction of ethanol (Liquid mixture 2); method: Chromatography
Property: Mole fraction of ethanol (Liquid mixture 1); method: Chromatography
Property: Mole fraction of water (Liquid mixture 1); method: Chromatography
Temperature, K	Mole fraction of water	Mole fraction of ethanol	uncertainty	Mole fraction of ethanol	uncertainty	Mole fraction of water	uncertainty
283.2	0.999	0		0		0.242	
283.2	0.956	0.044	0.006	0.061	0.01	0.266	
283.2	0.927	0.072	0.006	0.108	0.01	0.289	
283.2	0.876	0.122	0.006	0.209	0.008	0.334	
283.2	0.84	0.156	0.006	0.254	0.006	0.373	
283.2	0.808	0.185	0.005	0.284	0.006	0.406	
283.2	0.76	0.224	0.005	0.315	0.005	0.45	
283.2	0.723	0.251	0.005	0.318	0.005	0.508	
303.2	0.999	0		0		0.331	
303.2	0.959	0.04	0.006	0.088	0.011	0.367	
303.2	0.929	0.069	0.006	0.148	0.008	0.393	
303.2	0.884	0.112	0.006	0.232	0.006	0.453	
303.2	0.844	0.147	0.005	0.266	0.005	0.513	
303.2	0.814	0.171	0.005	0.265	0.004	0.566	
303.2	0.764	0.204	0.005	0.261	0.004	0.639	
323.2	0.999	0		0		0.42	
323.2	0.978	0.02	0.006	0.06	0.009	0.448	
323.2	0.953	0.045	0.006	0.127	0.008	0.481	
323.2	0.922	0.074	0.005	0.188	0.006	0.522	
323.2	0.896	0.097	0.005	0.217	0.005	0.566	
323.2	0.869	0.118	0.005	0.221	0.004	0.617	

System: water + ethanol + 1-hexyl-3-methylimidazolium bis[(trifluoromethyl)sulfonyl]imide; phases: Liquid mixture 2, Liquid mixture 1
Fixed: Pressure, kPa = 101.3
Property: Mole fraction of ethanol (Liquid mixture 2); method: Chromatography
Property: Mole fraction of ethanol (Liquid mixture 1); method: Chromatography
Property: Mole fraction of water (Liquid mixture 1); method: Chromatography
Temperature, K	Mole fraction of water	Mole fraction of ethanol	uncertainty	Mole fraction of ethanol	uncertainty	Mole fraction of water	uncertainty
283.2	1	0		0		0.166	
283.2	0.958	0.041	0.006	0.068	0.016	0.203	
283.2	0.919	0.081	0.006	0.144	0.016	0.204	
283.2	0.871	0.129	0.006	0.248	0.013	0.23	
283.2	0.831	0.168	0.006	0.318	0.009	0.26	
283.2	0.791	0.207	0.006	0.365	0.007	0.293	
283.2	0.738	0.258	0.006	0.405	0.006	0.336	
283.2	0.708	0.285	0.006	0.417	0.005	0.367	
283.2	0.642	0.339	0.006	0.428	0.005	0.434	
303.2	1	0		0		0.233	
303.2	0.962	0.038	0.006	0.094	0.017	0.259	
303.2	0.924	0.076	0.006	0.188	0.012	0.279	
303.2	0.88	0.12	0.006	0.285	0.009	0.315	
303.2	0.841	0.157	0.006	0.339	0.006	0.352	
303.2	0.807	0.191	0.006	0.369	0.005	0.391	
303.2	0.766	0.228	0.006	0.385	0.005	0.437	
303.2	0.723	0.265	0.006	0.383	0.005	0.492	
323.2	1	0		0		0.307	
323.2	0.965	0.035	0.006	0.121	0.016	0.337	
323.2	0.929	0.07	0.006	0.219	0.012	0.365	
323.2	0.893	0.106	0.006	0.292	0.007	0.401	
323.2	0.855	0.143	0.006	0.333	0.005	0.445	
323.2	0.819	0.177	0.006	0.347	0.005	0.497	
323.2	0.774	0.216	0.006	0.338	0.005	0.559	

System: water + 1-ethyl-3-methylimidazolium bis((trifluoromethyl)sulfonyl)imide; phases: Liquid mixture 2, Liquid mixture 1
Fixed: Pressure, kPa = 101.3
Property: Mole fraction of water (Liquid mixture 2); method: Chromatography
Temperature, K	Mole fraction of water	uncertainty
283.2	0.999	0.001
303.2	0.999	0.001
323.2	0.999	0.001

System: water + 1-ethyl-3-methylimidazolium bis((trifluoromethyl)sulfonyl)imide; phases: Liquid mixture 1, Liquid mixture 2
Fixed: Pressure, kPa = 101.3
Property: Mole fraction of water (Liquid mixture 1); method: Chromatography
Temperature, K	Mole fraction of water	uncertainty
283.2	0.242	0.004
303.2	0.331	0.005
323.2	0.42	0.005

System: water + 1-hexyl-3-methylimidazolium bis[(trifluoromethyl)sulfonyl]imide; phases: Liquid mixture 1, Liquid mixture 2
Fixed: Pressure, kPa = 101.3
Property: Mole fraction of water (Liquid mixture 1); method: Chromatography
Temperature, K	Mole fraction of water	uncertainty
283.2	0.166	0.004
303.2	0.233	0.004
323.2	0.307	0.005
