Measured thermophysical data. Isothermal (vapour + liquid) equilibria for the binary systems of (carbon  monoxide + methyl propionate) and (carbon monoxide + ethyl propionate)
Source: J. Chem. Thermodyn., 2013, 10.1016/j.jct.2012.11.028
Compound 1: carbon monoxide, CO, InChI=1S/CO/c1-2, purity 99.99%
Compound 2: methyl propanoate, C4H8O2, InChI=1S/C4H8O2/c1-3-4(5)6-2/h3H2,1-2H3, purity 99.5%
Compound 3: ethyl propanoate, C5H10O2, InChI=1S/C5H10O2/c1-3-5(6)7-4-2/h3-4H2,1-2H3, purity 99.5%

System: ethyl propanoate + carbon monoxide; phases: Liquid, Gas
Property: Vapor or sublimation pressure, kPa (Liquid); method: ISOPVT
Mole fraction of carbon monoxide	Temperature, K	Vapor or sublimation pressure, kPa	uncertainty
0.1154	293.15	10050	200
0.1059	293.15	8980	200
0.0983	293.15	8010	200
0.0912	293.15	7030	200
0.0837	293.15	5980	200
0.0768	293.15	5020	200
0.0705	293.15	3960	200
0.064	293.15	3000	200
0.057	293.15	2040	200
0.1102	313.15	9990	200
0.1007	313.15	9020	200
0.0925	313.15	8010	200
0.0861	313.15	6980	200
0.0794	313.15	5990	200
0.0728	313.15	5020	200
0.0672	313.15	3970	200
0.0616	313.15	3030	200
0.054	313.15	1980	200
0.1064	333.15	10030	200
0.0985	333.15	8990	200
0.0856	333.15	8010	200
0.0782	333.15	7020	200
0.0729	333.15	5970	200
0.0665	333.15	5020	200
0.0611	333.15	4030	200
0.0567	333.15	3020	200
0.0523	333.15	2010	200
0.1027	353.15	10040	200
0.0965	353.15	9030	200
0.0842	353.15	8000	200
0.0739	353.15	6980	200
0.0695	353.15	6020	200
0.064	353.15	4970	200
0.0568	353.15	4010	200
0.0513	353.15	3020	200
0.0456	353.15	2030	200
0.0991	373.15	10020	200
0.0893	373.15	8970	200
0.0804	373.15	8010	200
0.0685	373.15	7040	200
0.0637	373.15	6020	200
0.0553	373.15	4990	200
0.0498	373.15	4010	200
0.0457	373.15	2980	200
0.0386	373.15	2010	200

System: ethyl propanoate + carbon monoxide; phases: Gas, Liquid
Property: Mole fraction of carbon monoxide (Gas); method: gravimetric method
Mole fraction of carbon monoxide	Temperature, K	Mole fraction of carbon monoxide	uncertainty
0.1154	293.15	0.9912	0.0002
0.1059	293.15	0.9924	0.0002
0.0983	293.15	0.9936	0.0002
0.0912	293.15	0.9947	0.0002
0.0837	293.15	0.9952	0.0002
0.0768	293.15	0.9954	0.0002
0.0705	293.15	0.9945	0.0002
0.064	293.15	0.994	0.0002
0.057	293.15	0.9936	0.0002
0.1102	313.15	0.9903	0.0002
0.1007	313.15	0.9915	0.0002
0.0925	313.15	0.9924	0.0002
0.0861	313.15	0.9936	0.0002
0.0794	313.15	0.994	0.0002
0.0728	313.15	0.9945	0.0002
0.0672	313.15	0.9942	0.0002
0.0616	313.15	0.9933	0.0002
0.054	313.15	0.9927	0.0002
0.1064	333.15	0.9895	0.0002
0.0985	333.15	0.9907	0.0002
0.0856	333.15	0.9916	0.0002
0.0782	333.15	0.9924	0.0002
0.0729	333.15	0.9936	0.0002
0.0665	333.15	0.9941	0.0002
0.0611	333.15	0.9939	0.0002
0.0567	333.15	0.993	0.0002
0.0523	333.15	0.9919	0.0002
0.1027	353.15	0.9886	0.0002
0.0965	353.15	0.9899	0.0002
0.0842	353.15	0.9907	0.0002
0.0739	353.15	0.9915	0.0002
0.0695	353.15	0.9924	0.0002
0.064	353.15	0.9932	0.0002
0.0568	353.15	0.9934	0.0002
0.0513	353.15	0.9925	0.0002
0.0456	353.15	0.9914	0.0002
0.0991	373.15	0.9874	0.0002
0.0893	373.15	0.989	0.0002
0.0804	373.15	0.99	0.0002
0.0685	373.15	0.9904	0.0002
0.0637	373.15	0.9913	0.0002
0.0553	373.15	0.992	0.0002
0.0498	373.15	0.9918	0.0002
0.0457	373.15	0.9911	0.0002
0.0386	373.15	0.9902	0.0002

System: ethyl propanoate + carbon monoxide; phases: Liquid
Property: Mass density, kg/m3 (Liquid); method: mass divided by volume
Temperature, K	Pressure, kPa	Mole fraction of carbon monoxide	Mass density, kg/m3	uncertainty
293.15	10050	0.1154	853.3	2
293.15	8980	0.1059	861.2	2
293.15	8010	0.0983	869	2
293.15	7030	0.0912	876.9	2
293.15	5980	0.0837	882.4	2
293.15	5020	0.0768	887.7	2
293.15	3960	0.0705	893.1	2
293.15	3000	0.064	898.8	2
293.15	2040	0.057	904.3	2
313.15	9990	0.1102	841.2	2
313.15	9020	0.1007	848.6	2
313.15	8010	0.0925	857.4	2
313.15	6980	0.0861	865.7	2
313.15	5990	0.0794	871	2
313.15	5020	0.0728	876.5	2
313.15	3970	0.0672	882.6	2
313.15	3030	0.0616	887.8	2
313.15	1980	0.054	894.3	2
333.15	10030	0.1064	829.6	2
333.15	8990	0.0985	838	2
333.15	8010	0.0856	845.2	2
333.15	7020	0.0782	852.1	2
333.15	5970	0.0729	863.5	2
333.15	5020	0.0665	869.2	2
333.15	4030	0.0611	875.4	2
333.15	3020	0.0567	881.7	2
333.15	2010	0.0523	887.3	2
353.15	10040	0.1027	816.4	2
353.15	9030	0.0965	826.3	2
353.15	8000	0.0842	834.7	2
353.15	6980	0.0739	842.6	2
353.15	6020	0.0695	849.2	2
353.15	4970	0.064	856	2
353.15	4010	0.0568	862.9	2
353.15	3020	0.0513	868.4	2
353.15	2030	0.0456	874.1	2
373.15	10020	0.0991	805.5	2
373.15	8970	0.0893	817.4	2
373.15	8010	0.0804	829.9	2
373.15	7040	0.0685	840.4	2
373.15	6020	0.0637	847.2	2
373.15	4990	0.0553	854.8	2
373.15	4010	0.0498	861.7	2
373.15	2980	0.0457	866.2	2
373.15	2010	0.0386	871.6	2

System: ethyl propanoate + carbon monoxide; phases: Gas
Property: Mass density, kg/m3 (Gas); method: mass divided by volume
Temperature, K	Pressure, kPa	Mole fraction of carbon monoxide	Mass density, kg/m3	uncertainty
293.15	10050	0.9912	115.5	3
293.15	8980	0.9924	94.6	2.9
293.15	8010	0.9936	85.3	2.9
293.15	7030	0.9947	76.4	3
293.15	5980	0.9952	67.8	3
293.15	5020	0.9954	59	3.1
293.15	3960	0.9945	50.2	3.2
293.15	3000	0.994	44.5	3.6
293.15	2040	0.9936	37.7	4.2
313.15	9990	0.9903	112.4	3
313.15	9020	0.9915	86.8	2.8
313.15	8010	0.9924	74.5	2.7
313.15	6980	0.9936	70.1	2.8
313.15	5990	0.994	61.6	2.9
313.15	5020	0.9945	53.3	2.9
313.15	3970	0.9942	47.9	3.1
313.15	3030	0.9933	42.6	3.5
313.15	1980	0.9927	34.8	4
333.15	10030	0.9895	109.8	3
333.15	8990	0.9907	85.9	2.8
333.15	8010	0.9916	73.8	2.7
333.15	7020	0.9924	66.6	2.8
333.15	5970	0.9936	60.7	2.9
333.15	5020	0.9941	51.5	2.9
333.15	4030	0.9939	45.2	3
333.15	3020	0.993	40.4	3.3
333.15	2010	0.9919	30.6	3.6
353.15	10040	0.9886	104.4	2.9
353.15	9030	0.9899	84.2	2.7
353.15	8000	0.9907	72.6	2.7
353.15	6980	0.9915	65.3	2.7
353.15	6020	0.9924	56.8	2.8
353.15	4970	0.9932	49	2.8
353.15	4010	0.9934	43.2	2.9
353.15	3020	0.9925	35.9	3.1
353.15	2030	0.9914	29.6	3.5
373.15	10020	0.9874	100.2	2.8
373.15	8970	0.989	81.6	2.7
373.15	8010	0.99	70.8	2.7
373.15	7040	0.9904	63.5	2.7
373.15	6020	0.9913	54.4	2.7
373.15	4990	0.992	46.3	2.7
373.15	4010	0.9918	39.7	2.8
373.15	2980	0.9911	33.8	3
373.15	2010	0.9902	28.1	3.4

System: methyl propanoate + carbon monoxide; phases: Liquid, Gas
Property: Vapor or sublimation pressure, kPa (Liquid); method: ISOPVT
Mole fraction of carbon monoxide	Temperature, K	Vapor or sublimation pressure, kPa	uncertainty
0.1333	293.15	10010	200
0.1245	293.15	9000	200
0.1154	293.15	8030	200
0.1097	293.15	6990	200
0.0982	293.15	5980	200
0.0916	293.15	5030	200
0.0848	293.15	3970	200
0.0785	293.15	3010	200
0.0724	293.15	2000	200
0.1285	313.15	10000	200
0.1177	313.15	9010	200
0.1085	313.15	8000	200
0.1006	313.15	6990	200
0.0943	313.15	6010	200
0.0868	313.15	5030	200
0.0804	313.15	4020	200
0.0742	313.15	3020	200
0.0685	313.15	2030	200
0.1223	333.15	9960	200
0.1099	333.15	9010	200
0.1037	333.15	8030	200
0.0964	333.15	6980	200
0.0886	333.15	5970	200
0.0812	333.15	5010	200
0.0756	333.15	4000	200
0.0698	333.15	3030	200
0.0643	333.15	2010	200
0.1166	353.15	9980	200
0.1074	353.15	9030	200
0.1012	353.15	8000	200
0.0919	353.15	6980	200
0.0844	353.15	6010	200
0.0781	353.15	5000	200
0.0723	353.15	4030	200
0.0658	353.15	2970	200
0.0615	353.15	1980	210
0.1158	373.15	10030	200
0.108	373.15	8970	200
0.1003	373.15	8010	200
0.0927	373.15	7030	200
0.085	373.15	5970	200
0.0761	373.15	5030	200
0.0696	373.15	3970	200
0.0639	373.15	3010	200
0.0584	373.15	2000	200

System: methyl propanoate + carbon monoxide; phases: Gas, Liquid
Property: Mole fraction of carbon monoxide (Gas); method: gravimetric method
Mole fraction of carbon monoxide	Temperature, K	Mole fraction of carbon monoxide	uncertainty
0.1333	293.15	0.991	0.0002
0.1245	293.15	0.9927	0.0002
0.1154	293.15	0.9936	0.0002
0.1097	293.15	0.9944	0.0002
0.0982	293.15	0.9952	0.0002
0.0916	293.15	0.9956	0.0002
0.0848	293.15	0.9954	0.0002
0.0785	293.15	0.9947	0.0002
0.0724	293.15	0.9941	0.0002
0.1285	313.15	0.9901	0.0002
0.1177	313.15	0.992	0.0002
0.1085	313.15	0.9931	0.0002
0.1006	313.15	0.9937	0.0002
0.0943	313.15	0.9942	0.0002
0.0868	313.15	0.9946	0.0002
0.0804	313.15	0.9943	0.0002
0.0742	313.15	0.9938	0.0002
0.0685	313.15	0.9933	0.0002
0.1223	333.15	0.9894	0.0002
0.1099	333.15	0.9909	0.0002
0.1037	333.15	0.9923	0.0002
0.0964	333.15	0.9932	0.0002
0.0886	333.15	0.994	0.0002
0.0812	333.15	0.9942	0.0002
0.0756	333.15	0.9938	0.0002
0.0698	333.15	0.9931	0.0002
0.0643	333.15	0.9924	0.0002
0.1166	353.15	0.9889	0.0002
0.1074	353.15	0.9912	0.0002
0.1012	353.15	0.9921	0.0002
0.0919	353.15	0.993	0.0002
0.0844	353.15	0.9937	0.0002
0.0781	353.15	0.9941	0.0002
0.0723	353.15	0.9933	0.0002
0.0658	353.15	0.9922	0.0002
0.0615	353.15	0.9917	0.0002
0.1158	373.15	0.9879	0.0002
0.108	373.15	0.9901	0.0002
0.1003	373.15	0.9912	0.0002
0.0927	373.15	0.9921	0.0002
0.085	373.15	0.9925	0.0002
0.0761	373.15	0.9927	0.0002
0.0696	373.15	0.9923	0.0002
0.0639	373.15	0.9917	0.0002
0.0584	373.15	0.9911	0.0002

System: methyl propanoate + carbon monoxide; phases: Liquid
Property: Mass density, kg/m3 (Liquid); method: mass divided by volume
Temperature, K	Pressure, kPa	Mole fraction of carbon monoxide	Mass density, kg/m3	uncertainty
293.15	10010	0.1333	881.6	2
293.15	9000	0.1245	892.4	2
293.15	8030	0.1154	900.6	2
293.15	6990	0.1097	905.3	2
293.15	5980	0.0982	913.8	2
293.15	5030	0.0916	919.7	2
293.15	3970	0.0848	926.9	2
293.15	3010	0.0785	934.6	2
293.15	2000	0.0724	940.5	2
313.15	10000	0.1285	876.8	2
313.15	9010	0.1177	887.9	2
313.15	8000	0.1085	896.4	2
313.15	6990	0.1006	901.5	2
313.15	6010	0.0943	907.7	2
313.15	5030	0.0868	914.3	2
313.15	4020	0.0804	919.9	2
313.15	3020	0.0742	926.1	2
313.15	2030	0.0685	932.6	2
333.15	9960	0.1223	864.7	2
333.15	9010	0.1099	875.5	2
333.15	8030	0.1037	884.9	2
333.15	6980	0.0964	891.2	2
333.15	5970	0.0886	897.4	2
333.15	5010	0.0812	904.8	2
333.15	4000	0.0756	911.1	2
333.15	3030	0.0698	917.3	2
333.15	2010	0.0643	924	2
353.15	9980	0.1166	853	2
353.15	9030	0.1074	864.2	2
353.15	8000	0.1012	873.6	2
353.15	6980	0.0919	880.5	2
353.15	6010	0.0844	886.8	2
353.15	5000	0.0781	894.6	2
353.15	4030	0.0723	902.4	2
353.15	2970	0.0658	908.9	2
353.15	1980	0.0615	916	2

System: methyl propanoate + carbon monoxide; phases: Gas
Property: Mass density, kg/m3 (Gas); method: mass divided by volume
Temperature, K	Pressure, kPa	Mole fraction of carbon monoxide	Mass density, kg/m3	uncertainty
293.15	10010	0.991	117	3.1
293.15	9000	0.9927	101.7	3
293.15	8030	0.9936	88.6	3
293.15	6990	0.9944	76.8	3
293.15	5980	0.9952	67.9	3
293.15	5030	0.9956	58.5	3.1
293.15	3970	0.9954	50.8	3.2
293.15	3010	0.9947	42.6	3.5
293.15	2000	0.9941	33.7	3.9
313.15	10000	0.9901	114.6	3
313.15	9010	0.992	96.5	2.9
313.15	8000	0.9931	86	2.9
313.15	6990	0.9937	75.3	2.9
313.15	6010	0.9942	64.7	2.9
313.15	5030	0.9946	55.6	3
313.15	4020	0.9943	45.7	3
313.15	3020	0.9938	34.5	3
313.15	2030	0.9933	26.8	3.3
333.15	9960	0.9894	111.5	3
333.15	9010	0.9909	93.6	2.9
333.15	8030	0.9923	82.2	2.9
333.15	6980	0.9932	73	2.9
333.15	5970	0.994	60.7	2.9
333.15	5010	0.9942	52.1	2.9
333.15	4000	0.9938	42	2.9
333.15	3030	0.9931	31.5	2.9
333.15	2010	0.9924	22.9	3
353.15	9980	0.9889	108.6	3
353.15	9030	0.9912	93.3	2.9
353.15	8000	0.9921	79	2.8
353.15	6980	0.993	69.7	2.8
353.15	6010	0.9937	57.4	2.8
353.15	5000	0.9941	48.8	2.8
353.15	4030	0.9933	38.6	2.8
353.15	2970	0.9922	28.9	2.8
353.15	1980	0.9917	20.2	2.9
