Measured thermophysical data. Heat capacities of the mixtures of ionic liquids with acetonitrile
Source: J. Chem. Thermodyn., 2010, 10.1016/j.jct.2009.08.002
Compound 1: 1-hexyl-3-methylimidazolium tetrafluoroborate, C10H19BF4N2, InChI=1S/C10H19N2.BF4/c1-3-4-5-6-7-12-9-8-11(2)10-12;2-1(3,4)5/h8-10H,3-7H2,1-2H3;/q+1;-1, purity 97%
Compound 2: 1-methyl-3-octylimidazolium tetrafluoroborate, C12H23BF4N2, InChI=1S/C12H23N2.BF4/c1-3-4-5-6-7-8-9-14-11-10-13(2)12-14;2-1(3,4)5/h10-12H,3-9H2,1-2H3;/q+1;-1, purity 97%
Compound 3: acetonitrile, C2H3N, InChI=1S/C2H3N/c1-2-3/h1H3, purity 99.8%

System: 1-hexyl-3-methylimidazolium tetrafluoroborate; phases: Liquid
Property: Molar heat capacity at constant pressure, J/K/mol (Liquid); method: Large sample (1 g) DSC
Temperature, K	Pressure, kPa	Molar heat capacity at constant pressure, J/K/mol	uncertainty
298.15	101.325	432	8

System: 1-methyl-3-octylimidazolium tetrafluoroborate; phases: Liquid
Property: Molar heat capacity at constant pressure, J/K/mol (Liquid); method: Large sample (1 g) DSC
Temperature, K	Pressure, kPa	Molar heat capacity at constant pressure, J/K/mol	uncertainty
298.15	101.325	498.3	10.6

System: acetonitrile; phases: Liquid
Property: Molar heat capacity at constant pressure, J/K/mol (Liquid); method: Large sample (1 g) DSC
Temperature, K	Pressure, kPa	Molar heat capacity at constant pressure, J/K/mol	uncertainty
298.15	101.325	90.93	1.41

System: acetonitrile + 1-hexyl-3-methylimidazolium tetrafluoroborate; phases: Liquid, Gas
Property: Molar heat capacity at constant pressure, J/K/mol (Liquid); method: Large sample (1 g) DSC
Temperature, K	Mole fraction of 1-hexyl-3-methylimidazolium tetrafluoroborate	Molar heat capacity at constant pressure, J/K/mol	uncertainty
283.15	0	90.03	1.39
283.15	0.0648	110.9	1.7
283.15	0.1342	133.5	2.1
283.15	0.2127	159.4	2.5
283.15	0.2732	179.6	2.8
283.15	0.3828	216.5	3.4
283.15	0.5367	268.5	4.2
283.15	0.7064	326.1	5.1
283.15	0.8344	369.2	5.7
283.15	1	425	6.6
288.15	0	90.3	1.4
288.15	0.0648	111.2	1.7
288.15	0.1342	134	2.1
288.15	0.2127	160	2.5
288.15	0.2732	180.3	2.8
288.15	0.3828	217.5	3.4
288.15	0.5367	269.8	4.2
288.15	0.7064	327.7	5.1
288.15	0.8344	371.2	5.8
288.15	1	427.2	6.6
293.15	0	90.6	1.4
293.15	0.0648	111.6	1.7
293.15	0.1342	134.5	2.1
293.15	0.2127	160.7	2.5
293.15	0.2732	181.1	2.8
293.15	0.3828	218.5	3.4
293.15	0.5367	271.2	4.2
293.15	0.7064	329.4	5.1
293.15	0.8344	373.2	5.8
293.15	1	429.6	6.7
298.15	0	90.93	1.41
298.15	0.0648	112.1	1.7
298.15	0.1342	135	2.1
298.15	0.2127	161.4	2.5
298.15	0.2732	181.8	2.8
298.15	0.3828	219.6	3.4
298.15	0.5367	272.6	4.2
298.15	0.7064	331.2	5.1
298.15	0.8344	375.3	5.8
298.15	1	432	6.7
303.15	0	91.28	1.41
303.15	0.0648	112.5	1.7
303.15	0.1342	135.6	2.1
303.15	0.2127	162.1	2.5
303.15	0.2732	182.7	2.8
303.15	0.3828	220.7	3.4
303.15	0.5367	274	4.2
303.15	0.7064	333.1	5.2
303.15	0.8344	377.4	5.8
303.15	1	434.6	6.7
308.15	0	91.66	1.42
308.15	0.0648	113	1.8
308.15	0.1342	136.2	2.1
308.15	0.2127	162.9	2.5
308.15	0.2732	183.6	2.8
308.15	0.3828	221.8	3.4
308.15	0.5367	275.6	4.3
308.15	0.7064	335.1	5.2
308.15	0.8344	379.7	5.9
308.15	1	437.2	6.8
313.15	0	92.07	1.43
313.15	0.0648	113.5	1.8
313.15	0.1342	136.8	2.1
313.15	0.2127	163.7	2.5
313.15	0.2732	184.5	2.9
313.15	0.3828	223	3.5
313.15	0.5367	277.2	4.3
313.15	0.7064	337.1	5.2
313.15	0.8344	382	5.9
313.15	1	440	6.8
318.15	0	92.5	1.43
318.15	0.0648	114	1.8
318.15	0.1342	137.4	2.1
318.15	0.2127	164.5	2.6
318.15	0.2732	185.5	2.9
318.15	0.3828	224.2	3.5
318.15	0.5367	278.8	4.3
318.15	0.7064	339.2	5.3
318.15	0.8344	384.5	6
318.15	1	442.9	6.9
323.15	0	92.96	1.44
323.15	0.0648	114.6	1.8
323.15	0.1342	138.1	2.1
323.15	0.2127	165.3	2.6
323.15	0.2732	186.6	2.9
323.15	0.3828	225.5	3.5
323.15	0.5367	280.5	4.3
323.15	0.7064	341.4	5.3
323.15	0.8344	387	6
323.15	1	445.8	6.9

System: acetonitrile + 1-methyl-3-octylimidazolium tetrafluoroborate; phases: Liquid, Gas
Property: Molar heat capacity at constant pressure, J/K/mol (Liquid); method: Large sample (1 g) DSC
Temperature, K	Mole fraction of 1-methyl-3-octylimidazolium tetrafluoroborate	Molar heat capacity at constant pressure, J/K/mol	uncertainty
283.15	0	90.03	1.39
283.15	0.0359	103.7	1.6
283.15	0.1135	133.5	2.1
283.15	0.1694	155.3	2.4
283.15	0.2341	181	2.8
283.15	0.3023	208.3	3.2
283.15	0.4285	259.1	4
283.15	0.5437	305.8	4.7
283.15	0.6829	362.2	5.6
283.15	0.8425	426.5	6.6
283.15	1	489.8	7.6
288.15	0	90.3	1.4
288.15	0.0359	104	1.6
288.15	0.1135	133.9	2.1
288.15	0.1694	155.9	2.4
288.15	0.2341	181.7	2.8
288.15	0.3023	209.1	3.2
288.15	0.4285	260.4	4
288.15	0.5437	307.3	4.8
288.15	0.6829	364.1	5.6
288.15	0.8425	428.9	6.6
288.15	1	492.6	7.6
293.15	0	90.6	1.4
293.15	0.0359	104.4	1.6
293.15	0.1135	134.4	2.1
293.15	0.1694	156.5	2.4
293.15	0.2341	182.4	2.8
293.15	0.3023	210	3.3
293.15	0.4285	261.7	4.1
293.15	0.5437	308.9	4.8
293.15	0.6829	366	5.7
293.15	0.8425	431.3	6.7
293.15	1	495.4	7.7
298.15	0	90.93	1.41
298.15	0.0359	104.8	1.6
298.15	0.1135	135	2.1
298.15	0.1694	157.1	2.4
298.15	0.2341	183.2	2.8
298.15	0.3023	210.9	3.3
298.15	0.4285	263	4.1
298.15	0.5437	310.5	4.8
298.15	0.6829	368	5.7
298.15	0.8425	433.7	6.7
298.15	1	498.3	7.7
303.15	0	91.28	1.41
303.15	0.0359	105.2	1.6
303.15	0.1135	135.5	2.1
303.15	0.1694	157.8	2.5
303.15	0.2341	184	2.9
303.15	0.3023	211.9	3.3
303.15	0.4285	264.3	4.1
303.15	0.5437	312.2	4.8
303.15	0.6829	370.1	5.7
303.15	0.8425	436.2	6.8
303.15	1	501.2	7.8
308.15	0	91.66	1.42
308.15	0.0359	105.6	1.6
308.15	0.1135	136.1	2.1
308.15	0.1694	158.5	2.5
308.15	0.2341	184.9	2.9
308.15	0.3023	212.9	3.3
308.15	0.4285	265.7	4.1
308.15	0.5437	313.9	4.9
308.15	0.6829	372.2	5.8
308.15	0.8425	438.7	6.8
308.15	1	504.1	7.8
313.15	0	92.07	1.43
313.15	0.0359	106.1	1.7
313.15	0.1135	136.7	2.1
313.15	0.1694	159.2	2.5
313.15	0.2341	185.7	2.9
313.15	0.3023	213.9	3.3
313.15	0.4285	267.1	4.1
313.15	0.5437	315.7	4.9
313.15	0.6829	374.4	5.8
313.15	0.8425	441.3	6.8
313.15	1	507.1	7.9
318.15	0	92.5	1.43
318.15	0.0359	106.5	1.7
318.15	0.1135	137.4	2.1
318.15	0.1694	159.9	2.5
318.15	0.2341	186.6	2.9
318.15	0.3023	215.1	3.3
318.15	0.4285	268.5	4.2
318.15	0.5437	317.5	4.9
318.15	0.6829	376.7	5.8
318.15	0.8425	443.9	6.9
318.15	1	510.2	7.9
323.15	0	92.96	1.44
323.15	0.0359	107	1.7
323.15	0.1135	138	2.1
323.15	0.1694	160.7	2.5
323.15	0.2341	187.5	2.9
323.15	0.3023	216.2	3.4
323.15	0.4285	269.9	4.2
323.15	0.5437	319.3	4.9
323.15	0.6829	379	5.9
323.15	0.8425	446.6	6.9
323.15	1	513.3	8
