Measured thermophysical data. Quantitative NMR spectroscopy of binary liquid mixtures (aldehyde + alcohol). Part III: (1-decanal or 3-phenylpropanal or 2-chlorobenzaldehyde) + (methanol or ethanol or 1-propanol)
Source: J. Chem. Thermodyn., 2014, 10.1016/j.jct.2014.01.027
Compound 1: decanal, C10H20O, InChI=1S/C10H20O/c1-2-3-4-5-6-7-8-9-10-11/h10H,2-9H2,1H3, purity 98%
Compound 2: benzenepropanal, C9H10O, InChI=1S/C9H10O/c10-8-4-7-9-5-2-1-3-6-9/h1-3,5-6,8H,4,7H2, purity 95%
Compound 3: methanol, CH4O, InChI=1S/CH4O/c1-2/h2H,1H3, purity 99%
Compound 4: ethanol, C2H6O, InChI=1S/C2H6O/c1-2-3/h3H,2H2,1H3, purity 98%
Compound 5: propan-1-ol, C3H8O, InChI=1S/C3H8O/c1-2-3-4/h4H,2-3H2,1H3, purity 97%
Compound 6: 1-methoxydecan-1-ol, C11H24O2, InChI=1S/C11H24O2/c1-3-4-5-6-7-8-9-10-11(12)13-2/h11-12H,3-10H2,1-2H3
Compound 7: 1-ethoxydecan-1-ol, C12H26O2, InChI=1S/C12H26O2/c1-3-5-6-7-8-9-10-11-12(13)14-4-2/h12-13H,3-11H2,1-2H3
Compound 8: 1-propoxydecan-1-ol, C13H28O2, InChI=1S/C13H28O2/c1-3-5-6-7-8-9-10-11-13(14)15-12-4-2/h13-14H,3-12H2,1-2H3
Compound 9: 1-methoxy-3-phenylpropan-1-ol, C10H14O2, InChI=1S/C10H14O2/c1-12-10(11)8-7-9-5-3-2-4-6-9/h2-6,10-11H,7-8H2,1H3
Compound 10: 1-ethoxy-3-phenylpropan-1-ol, C11H16O2, InChI=1S/C11H16O2/c1-2-13-11(12)9-8-10-6-4-3-5-7-10/h3-7,11-12H,2,8-9H2,1H3
Compound 11: 3-phenyl-1-propoxypropan-1-ol, C12H18O2, InChI=1S/C12H18O2/c1-2-10-14-12(13)9-8-11-6-4-3-5-7-11/h3-7,12-13H,2,8-10H2,1H3
Compound 12: 1-((1-methoxydecyl)oxy)decan-1-ol, C21H44O3, InChI=1S/C21H44O3/c1-4-6-8-10-12-14-16-18-20(22)24-21(23-3)19-17-15-13-11-9-7-5-2/h20-22H,4-19H2,1-3H3
Compound 13: 1-((1-ethoxydecyl)oxy)decan-1-ol, C22H46O3, InChI=1S/C22H46O3/c1-4-7-9-11-13-15-17-19-21(23)25-22(24-6-3)20-18-16-14-12-10-8-5-2/h21-23H,4-20H2,1-3H3
Compound 14: 1-((1-propoxydecyl)oxy)decan-1-ol, C23H48O3, InChI=1S/C23H48O3/c1-4-7-9-11-13-15-17-19-22(24)26-23(25-21-6-3)20-18-16-14-12-10-8-5-2/h22-24H,4-21H2,1-3H3
Compound 15: 1-(1-methoxy-3-phenylpropoxy)-3-phenylpropan-1-ol, C19H24O3, InChI=1S/C19H24O3/c1-21-19(15-13-17-10-6-3-7-11-17)22-18(20)14-12-16-8-4-2-5-9-16/h2-11,18-20H,12-15H2,1H3
Compound 16: 1-(1-ethoxy-3-phenylpropoxy)-3-phenylpropan-1-ol, C20H26O3, InChI=1S/C20H26O3/c1-2-22-20(16-14-18-11-7-4-8-12-18)23-19(21)15-13-17-9-5-3-6-10-17/h3-12,19-21H,2,13-16H2,1H3
Compound 17: 3-phenyl-1-(3-phenyl-1-propoxypropoxy)propan-1-ol, C21H28O3, InChI=1S/C21H28O3/c1-2-17-23-21(16-14-19-11-7-4-8-12-19)24-20(22)15-13-18-9-5-3-6-10-18/h3-12,20-22H,2,13-17H2,1H3

Reaction: 1 1-methoxydecan-1-ol + -1 methanol + -1 decanal
Property: Thermodynamic equilibrium constant
10

Reaction: 1 1-ethoxydecan-1-ol + -1 ethanol + -1 decanal
Property: Thermodynamic equilibrium constant
2
8.9

Reaction: 1 1-propoxydecan-1-ol + -1 propan-1-ol + -1 decanal
Property: Thermodynamic equilibrium constant
2.1
9.8

Reaction: -2 1-methoxydecan-1-ol + 1 1-((1-methoxydecyl)oxy)decan-1-ol + 1 methanol
Property: Thermodynamic equilibrium constant
0.009

Reaction: -2 1-ethoxydecan-1-ol + 1 1-((1-ethoxydecyl)oxy)decan-1-ol + 1 ethanol
Property: Thermodynamic equilibrium constant
0.032
0.021

Reaction: -2 1-propoxydecan-1-ol + 1 1-((1-propoxydecyl)oxy)decan-1-ol + 1 propan-1-ol
Property: Thermodynamic equilibrium constant
0.032
0.021

Reaction: -1 methanol + -1 benzenepropanal + 1 1-methoxy-3-phenylpropan-1-ol
Property: Thermodynamic equilibrium constant
15
46
125

Reaction: 1 1-ethoxy-3-phenylpropan-1-ol + -1 ethanol + -1 benzenepropanal
Property: Thermodynamic equilibrium constant
2.5
8.5
28

Reaction: 1 3-phenyl-1-propoxypropan-1-ol + -1 propan-1-ol + -1 benzenepropanal
Property: Thermodynamic equilibrium constant
3
10
24

Reaction: 1 1-(1-methoxy-3-phenylpropoxy)-3-phenylpropan-1-ol + 1 methanol + -2 1-methoxy-3-phenylpropan-1-ol
Property: Thermodynamic equilibrium constant
0.006

Reaction: -2 1-ethoxy-3-phenylpropan-1-ol + 1 1-(1-ethoxy-3-phenylpropoxy)-3-phenylpropan-1-ol + 1 ethanol
Property: Thermodynamic equilibrium constant
0.036

Reaction: -2 3-phenyl-1-propoxypropan-1-ol + 1 3-phenyl-1-(3-phenyl-1-propoxypropoxy)propan-1-ol + 1 propan-1-ol
Property: Thermodynamic equilibrium constant
0.03
0.02
