Measured thermophysical data. The (p,q,T,x) properties of (x1 propane + x2 n-butane) with x1 = (0.0000, 0.2729, 0.5021, and 0.7308) over the temperature range from (280 to 440) K at pressures from (1 to 200) MPa
Source: J. Chem. Thermodyn., 2008, 10.1016/j.jct.2007.06.014
Compound 1: propane, C3H8, InChI=1S/C3H8/c1-3-2/h3H2,1-2H3, purity 99.99%
Compound 2: butane, C4H10, InChI=1S/C4H10/c1-3-4-2/h3-4H2,1-2H3, purity 99.97%

System: butane; phases: Liquid
Property: Mass density, kg/m3 (Liquid); method: Bellows volumetry
Pressure, kPa	Temperature, K	Mass density, kg/m3	uncertainty
3000	380	463.27	0.83
5000	380	474.65	0.85
5000	400	437.19	0.79
10000	380	494.93	0.89
10000	400	466.97	0.84
10000	420	436.16	0.79
10000	440	401.28	0.72
20000	380	521.9	0.94
20000	400	500.93	0.9
20000	420	479.15	0.86
20000	440	457.43	0.82
30000	400	522.83	0.94
30000	420	504.89	0.91
30000	440	487.23	0.88
40000	380	555.85	1
40000	400	539.73	0.97
40000	420	523.9	0.94
40000	440	508.57	0.92
50000	400	553.54	1
50000	420	539.08	0.97
50000	440	525.26	0.95
60000	380	579.32	1.04
60000	400	565.44	1.02
60000	420	551.8	0.99
60000	440	539.13	0.97
70000	400	575.77	1.04
70000	420	563.07	1.01
70000	440	551.03	0.99
80000	380	597.57	1.08
80000	400	585.08	1.05
80000	420	572.94	1.03
80000	440	561.56	1.01
90000	400	593.33	1.07
90000	420	581.86	1.05
90000	440	571.14	1.03
100000	380	612.79	1.1
100000	400	601.18	1.08
100000	420	589.89	1.06
100000	440	579.66	1.04
120000	380	625.93	1.13
120000	400	614.9	1.11
120000	420	604.27	1.09
120000	440	594.85	1.07
140000	380	637.29	1.15
140000	400	627.05	1.13
140000	420	617.11	1.11
140000	440	608.04	1.09
160000	380	647.82	1.17
160000	400	637.77	1.15
160000	420	628.25	1.13
160000	440	619.73	1.12
180000	380	657.28	1.18
180000	400	647.6	1.17
180000	420	638.65	1.15
180000	440	630.34	1.13
200000	380	665.98	1.2
200000	400	656.49	1.18
200000	420	647.73	1.17
200000	440	639.98	1.15

System: propane + butane; phases: Liquid
Property: Mass density, kg/m3 (Liquid); method: Bellows volumetry
Pressure, kPa	Temperature, K	Mole fraction of propane	Mass density, kg/m3	uncertainty
1000	280	0.2729	578.83	1.04
1000	280	0.5021	563.28	1.02
1000	280	0.7308	546.41	0.99
1000	300	0.5021	537.32	0.97
1000	320	0.2729	528	0.95
2000	280	0.2729	580.29	1.05
2000	280	0.5021	564.88	1.02
2000	280	0.7308	548.19	0.99
2000	300	0.5021	539.48	0.97
2000	320	0.2729	530.61	0.96
2000	320	0.5021	511.85	0.92
2000	320	0.7308	489.94	0.89
2000	340	0.5021	479.55	0.87
2000	360	0.2729	467.01	0.84
3000	280	0.2729	581.81	1.05
3000	280	0.5021	566.5	1.02
3000	280	0.7308	550.07	0.99
3000	300	0.5021	541.56	0.98
3000	320	0.2729	533.12	0.96
3000	320	0.5021	514.73	0.93
3000	320	0.7308	493.41	0.89
3000	340	0.5021	483.91	0.88
3000	360	0.2729	472.48	0.86
3000	360	0.5021	445.79	0.81
3000	360	0.7308	409.73	0.75
5000	280	0.2729	584.56	1.05
5000	280	0.5021	569.65	1.03
5000	280	0.7308	553.51	1
5000	300	0.5021	545.62	0.98
5000	320	0.2729	537.8	0.97
5000	320	0.5021	519.99	0.94
5000	320	0.7308	499.74	0.9
5000	340	0.5021	491.54	0.89
5000	360	0.2729	481.94	0.87
5000	360	0.5021	458.29	0.83
5000	360	0.7308	428.83	0.78
5000	380	0.5021	415.53	0.76
5000	400	0.2729	398.7	0.73
10000	280	0.2729	591.21	1.07
10000	280	0.5021	576.66	1.04
10000	280	0.7308	561.23	1.01
10000	300	0.5021	554.42	1
10000	320	0.2729	548.01	0.99
10000	320	0.5021	531.57	0.96
10000	320	0.7308	512.85	0.93
10000	340	0.5021	506.78	0.91
10000	360	0.2729	499.9	0.9
10000	360	0.5021	480.01	0.87
10000	360	0.7308	456.8	0.83
10000	380	0.5021	449.59	0.81
10000	400	0.2729	441.29	0.8
10000	400	0.5021	415.12	0.76
10000	400	0.7308	383.18	0.7
10000	420	0.5021	374.84	0.69
10000	440	0.2729	365.44	0.66
20000	280	0.2729	602.5	1.09
20000	280	0.5021	588.96	1.06
20000	280	0.7308	574.44	1.04
20000	300	0.5021	569.12	1.03
20000	320	0.2729	564.4	1.02
20000	320	0.5021	549.41	0.99
20000	320	0.7308	532.72	0.96
20000	340	0.5021	528.92	0.95
20000	360	0.2729	524.51	0.95
20000	360	0.5021	507.83	0.92
20000	360	0.7308	488.73	0.88
20000	380	0.5021	485.35	0.88
20000	400	0.2729	481.03	0.87
20000	400	0.5021	462.03	0.84
20000	400	0.7308	440.67	0.8
20000	420	0.5021	438.42	0.79
20000	440	0.2729	435.74	0.79
20000	440	0.5021	414.16	0.75
20000	440	0.7308	389.82	0.71
30000	280	0.2729	612.44	1.1
30000	280	0.5021	599.33	1.08
30000	280	0.7308	585.33	1.06
30000	300	0.5021	581.32	1.05
30000	320	0.2729	577.65	1.04
30000	320	0.5021	563.54	1.02
30000	320	0.7308	547.73	0.99
30000	340	0.5021	545.35	0.98
30000	360	0.2729	542.33	0.98
30000	360	0.5021	527.21	0.95
30000	360	0.7308	509.86	0.92
30000	380	0.5021	508.03	0.92
30000	400	0.2729	505.41	0.91
30000	400	0.5021	488.88	0.88
30000	400	0.7308	470.45	0.85
30000	420	0.5021	469.92	0.85
30000	440	0.2729	469.11	0.85
30000	440	0.5021	451.25	0.82
30000	440	0.7308	431.31	0.78
40000	280	0.2729	621.14	1.12
40000	280	0.5021	608.38	1.1
40000	280	0.7308	594.97	1.07
40000	300	0.5021	591.53	1.07
40000	320	0.2729	588.82	1.06
40000	320	0.5021	575.17	1.04
40000	320	0.7308	560.18	1.01
40000	340	0.5021	558.59	1.01
40000	360	0.2729	556.62	1
40000	360	0.5021	542.25	0.98
40000	360	0.7308	526.15	0.95
40000	380	0.5021	525.24	0.95
40000	400	0.2729	523.61	0.94
40000	400	0.5021	508.28	0.92
40000	400	0.7308	491.38	0.89
40000	420	0.5021	491.93	0.89
40000	440	0.2729	492.08	0.89
40000	440	0.5021	475.9	0.86
40000	440	0.7308	458.02	0.83
50000	280	0.2729	628.91	1.13
50000	280	0.5021	616.39	1.11
50000	280	0.7308	603.42	1.09
50000	300	0.5021	600.55	1.08
50000	320	0.2729	598.52	1.08
50000	320	0.5021	585.24	1.05
50000	320	0.7308	570.96	1.03
50000	340	0.5021	569.82	1.03
50000	360	0.2729	568.47	1.02
50000	360	0.5021	554.89	1
50000	360	0.7308	539.49	0.97
50000	380	0.5021	539.26	0.97
50000	400	0.2729	538.25	0.97
50000	400	0.5021	523.78	0.94
50000	400	0.7308	507.84	0.92
50000	420	0.5021	509	0.92
50000	440	0.2729	509.82	0.92
50000	440	0.5021	494.74	0.89
50000	440	0.7308	478.11	0.86
60000	280	0.2729	635.9	1.15
60000	280	0.5021	623.79	1.12
60000	280	0.7308	611.1	1.1
60000	300	0.5021	608.7	1.1
60000	320	0.2729	607.13	1.09
60000	320	0.5021	594.24	1.07
60000	320	0.7308	580.28	1.05
60000	340	0.5021	579.76	1.04
60000	360	0.2729	578.91	1.04
60000	360	0.5021	565.84	1.02
60000	360	0.7308	550.83	0.99
60000	380	0.5021	551.17	0.99
60000	400	0.2729	550.71	0.99
60000	400	0.5021	536.84	0.97
60000	400	0.7308	521.54	0.94
60000	420	0.5021	523.17	0.94
60000	440	0.2729	524.44	0.95
60000	440	0.5021	510.12	0.92
60000	440	0.7308	494.23	0.89
70000	280	0.2729	642.5	1.16
70000	280	0.5021	630.58	1.14
70000	280	0.7308	618.12	1.11
70000	300	0.5021	616.01	1.11
70000	320	0.2729	614.83	1.11
70000	320	0.5021	602.33	1.09
70000	320	0.7308	588.77	1.06
70000	340	0.5021	588.57	1.06
70000	360	0.2729	588.2	1.06
70000	360	0.5021	575.48	1.04
70000	360	0.7308	561.04	1.01
70000	380	0.5021	561.44	1.01
70000	400	0.2729	561.45	1.01
70000	400	0.5021	548.1	0.99
70000	400	0.7308	533.25	0.96
70000	420	0.5021	535.32	0.97
70000	440	0.2729	537.02	0.97
70000	440	0.5021	523.11	0.94
70000	440	0.7308	507.76	0.92
80000	280	0.2729	648.79	1.17
80000	280	0.5021	636.93	1.15
80000	280	0.7308	624.55	1.13
80000	300	0.5021	622.84	1.12
80000	320	0.2729	622.08	1.12
80000	320	0.5021	609.65	1.1
80000	320	0.7308	596.34	1.07
80000	340	0.5021	596.66	1.08
80000	360	0.2729	596.65	1.08
80000	360	0.5021	584.07	1.05
80000	360	0.7308	570.01	1.03
80000	380	0.5021	570.85	1.03
80000	400	0.2729	571.06	1.03
80000	400	0.5021	558.01	1.01
80000	400	0.7308	543.56	0.98
80000	420	0.5021	546.03	0.98
80000	440	0.2729	547.99	0.99
80000	440	0.5021	534.41	0.96
80000	440	0.7308	519.7	0.94
90000	280	0.2729	654.49	1.18
90000	280	0.5021	642.73	1.16
90000	280	0.7308	630.61	1.14
90000	300	0.5021	629.02	1.13
90000	320	0.2729	628.57	1.13
90000	320	0.5021	616.63	1.11
90000	320	0.7308	603.52	1.09
90000	340	0.5021	603.93	1.09
90000	360	0.2729	604.5	1.09
90000	360	0.5021	592.03	1.07
90000	360	0.7308	578.24	1.04
90000	380	0.5021	579.23	1.04
90000	400	0.2729	579.66	1.04
90000	400	0.5021	567.04	1.02
90000	400	0.7308	552.92	1
90000	420	0.5021	555.52	1
90000	440	0.2729	557.71	1.01
90000	440	0.5021	544.56	0.98
90000	440	0.7308	530.16	0.96
100000	280	0.2729	659.68	1.19
100000	280	0.5021	648.26	1.17
100000	280	0.7308	636.39	1.15
100000	300	0.5021	635.14	1.14
100000	320	0.2729	634.85	1.14
100000	320	0.5021	623.18	1.12
100000	320	0.7308	610.01	1.1
100000	340	0.5021	610.72	1.1
100000	360	0.2729	611.65	1.1
100000	360	0.5021	598.96	1.08
100000	360	0.7308	585.56	1.06
100000	380	0.5021	587	1.06
100000	400	0.2729	587.69	1.06
100000	400	0.5021	575.06	1.04
100000	400	0.7308	561.28	1.01
100000	420	0.5021	564.2	1.02
100000	440	0.2729	566.67	1.02
100000	440	0.5021	553.96	1
100000	440	0.7308	539.53	0.97
120000	280	0.2729	669.67	1.21
120000	280	0.5021	658.24	1.19
120000	280	0.7308	646.6	1.16
120000	300	0.5021	646	1.16
120000	320	0.2729	646.16	1.16
120000	320	0.5021	634.71	1.14
120000	320	0.7308	621.8	1.12
120000	340	0.5021	622.95	1.12
120000	360	0.2729	624.31	1.12
120000	360	0.5021	612.34	1.1
120000	360	0.7308	599.05	1.08
120000	380	0.5021	600.73	1.08
120000	400	0.2729	601.92	1.08
120000	400	0.5021	589.51	1.06
120000	400	0.7308	576.29	1.04
120000	420	0.5021	579.48	1.04
120000	440	0.2729	582.31	1.05
120000	440	0.5021	569.97	1.03
120000	440	0.7308	556.04	1
140000	280	0.2729	678.58	1.22
140000	280	0.5021	667.41	1.2
140000	280	0.7308	656.14	1.18
140000	300	0.5021	655.77	1.18
140000	320	0.2729	656.29	1.18
140000	320	0.5021	644.69	1.16
140000	320	0.7308	632.64	1.14
140000	340	0.5021	634.01	1.14
140000	360	0.2729	635.59	1.14
140000	360	0.5021	623.77	1.12
140000	360	0.7308	610.8	1.1
140000	380	0.5021	612.71	1.1
140000	400	0.2729	614.15	1.11
140000	400	0.5021	602.26	1.09
140000	400	0.7308	589.3	1.06
140000	420	0.5021	592.86	1.07
140000	440	0.2729	595.88	1.07
140000	440	0.5021	583.79	1.05
140000	440	0.7308	570.27	1.03
160000	280	0.2729	686.88	1.24
160000	280	0.5021	675.8	1.22
160000	280	0.7308	664.71	1.2
160000	300	0.5021	664.45	1.2
160000	320	0.2729	665.5	1.2
160000	320	0.5021	654.03	1.18
160000	320	0.7308	642.48	1.16
160000	340	0.5021	643.77	1.16
160000	360	0.2729	645.73	1.16
160000	360	0.5021	634.07	1.14
160000	360	0.7308	621.39	1.12
160000	380	0.5021	623.67	1.12
160000	400	0.2729	625.33	1.13
160000	400	0.5021	613.48	1.11
160000	400	0.7308	600.76	1.08
160000	420	0.5021	604.42	1.09
160000	440	0.2729	607.79	1.09
160000	440	0.5021	596.12	1.07
160000	440	0.7308	582.77	1.05
180000	280	0.2729	694.53	1.25
180000	280	0.5021	683.54	1.23
180000	280	0.7308	672.47	1.21
180000	300	0.5021	672.59	1.21
180000	320	0.2729	673.94	1.21
180000	320	0.5021	662.68	1.19
180000	320	0.7308	651.07	1.17
180000	340	0.5021	652.74	1.18
180000	360	0.2729	654.77	1.18
180000	360	0.5021	643.46	1.16
180000	360	0.7308	630.95	1.14
180000	380	0.5021	633.32	1.14
180000	400	0.2729	635.3	1.14
180000	400	0.5021	623.72	1.12
180000	400	0.7308	611.22	1.1
180000	420	0.5021	615.03	1.11
180000	440	0.2729	618.69	1.11
180000	440	0.5021	606.9	1.09
180000	440	0.7308	593.99	1.07
200000	280	0.2729	701.52	1.26
200000	280	0.5021	690.83	1.24
200000	280	0.7308	679.87	1.22
200000	300	0.5021	680.14	1.22
200000	320	0.2729	681.74	1.23
200000	320	0.5021	670.56	1.21
200000	320	0.7308	659.14	1.19
200000	340	0.5021	660.89	1.19
200000	360	0.2729	663.07	1.19
200000	360	0.5021	652.2	1.17
200000	360	0.7308	639.82	1.15
200000	380	0.5021	642.49	1.16
200000	400	0.2729	644.44	1.16
200000	400	0.5021	632.92	1.14
200000	400	0.7308	620.55	1.12
200000	420	0.5021	624.5	1.13
200000	440	0.2729	628.49	1.13
200000	440	0.5021	616.83	1.11
200000	440	0.7308	604.14	1.09
