Measured thermophysical data. Volumetric and sound speed study of aqueous 1-butanol liquid mixtures at different temperatures
Source: J. Chem. Thermodyn., 2019, 10.1016/j.jct.2019.03.006
Compound 1: butan-1-ol, C4H10O, InChI=1S/C4H10O/c1-2-3-4-5/h5H,2-4H2,1H3, purity 99.9%
Compound 2: water, H2O, InChI=1S/H2O/h1H2, purity 99.9%

System: butan-1-ol; phases: Liquid
Fixed: Pressure, kPa = 100
Property: Mass density, kg/m3 (Liquid); method: Vibrating tube method
Temperature, K	Mass density, kg/m3	uncertainty
283.15	817.18	0.22
288.15	813.4	0.22
293.15	809.6	0.22
298.15	805.78	0.22
303.15	801.94	0.22

System: butan-1-ol; phases: Liquid
Fixed: Pressure, kPa = 100
Fixed: Frequency, MHz = 3
Property: Speed of sound, m/s (Liquid); method: Single path-length method
Temperature, K	Speed of sound, m/s	uncertainty
283.15	1292.2	4
288.15	1275.5	4
293.15	1257.5	4
298.15	1239.3	4
303.15	1222.4	4

System: water + butan-1-ol; phases: Liquid
Fixed: Pressure, kPa = 100
Property: Mass density, kg/m3 (Liquid); method: Vibrating tube method
Temperature, K	Mole fraction of butan-1-ol	Mass density, kg/m3	uncertainty
283.15	0	999.7	0.2
283.15	0.00184	998.53	0.21
283.15	0.00193	998.45	0.21
283.15	0.00411	997.14	0.21
283.15	0.00594	996.09	0.21
283.15	0.00758	995.23	0.21
283.15	0.00984	993.91	0.21
283.15	0.01184	992.99	0.21
283.15	0.01268	992.46	0.21
283.15	0.01408	991.8	0.21
283.15	0.01511	991.47	0.21
283.15	0.01669	990.74	0.21
283.15	0.5009	854.08	0.22
283.15	0.54718	849.08	0.22
283.15	0.571	846.7	0.22
283.15	0.59296	844.63	0.22
283.15	0.64952	839.7	0.22
283.15	0.69078	836.38	0.22
283.15	0.72491	833.87	0.22
283.15	0.75429	831.84	0.22
283.15	0.7929	829.22	0.22
283.15	0.84782	825.73	0.22
283.15	0.93222	820.77	0.22
283.15	0.94879	819.84	0.22
283.15	0.9959	817.41	0.22
283.15	1	817.18	0.22
288.15	0	999.1	0.2
288.15	0.00184	997.9	0.21
288.15	0.00193	997.84	0.21
288.15	0.00411	996.5	0.21
288.15	0.00594	995.42	0.21
288.15	0.00758	994.55	0.21
288.15	0.00984	993.17	0.21
288.15	0.01184	992.22	0.21
288.15	0.01268	991.65	0.21
288.15	0.01408	990.95	0.21
288.15	0.01511	990.63	0.21
288.15	0.01669	989.83	0.21
288.15	0.5009	850.29	0.22
288.15	0.54718	845.25	0.22
288.15	0.571	842.85	0.22
288.15	0.59296	840.77	0.22
288.15	0.64952	835.82	0.22
288.15	0.69078	832.49	0.22
288.15	0.72491	829.97	0.22
288.15	0.75429	827.94	0.22
288.15	0.7929	825.33	0.22
288.15	0.84782	821.84	0.22
288.15	0.93222	816.94	0.22
288.15	0.94879	816.03	0.22
288.15	0.9959	813.63	0.22
288.15	1	813.4	0.22
293.15	0	998.2	0.2
293.15	0.00184	996.98	0.21
293.15	0.00193	996.93	0.21
293.15	0.00411	995.57	0.21
293.15	0.00594	994.46	0.21
293.15	0.00758	993.56	0.21
293.15	0.00984	992.14	0.21
293.15	0.01184	991.14	0.21
293.15	0.01268	990.55	0.21
293.15	0.01408	989.81	0.21
293.15	0.01511	989.47	0.21
293.15	0.01669	988.62	0.21
293.15	0.5009	846.45	0.22
293.15	0.54718	841.38	0.22
293.15	0.571	838.96	0.22
293.15	0.59296	836.87	0.22
293.15	0.64952	831.9	0.22
293.15	0.69078	828.56	0.22
293.15	0.72491	826.04	0.22
293.15	0.75429	824.01	0.22
293.15	0.7929	821.4	0.22
293.15	0.84782	817.94	0.22
293.15	0.93222	813.08	0.22
293.15	0.94879	812.19	0.22
293.15	0.9959	809.82	0.22
293.15	1	809.6	0.22
298.15	0	997.04	0.2
298.15	0.00184	995.81	0.21
298.15	0.00193	995.75	0.21
298.15	0.00411	994.37	0.21
298.15	0.00594	993.24	0.21
298.15	0.00758	992.31	0.21
298.15	0.00984	990.84	0.21
298.15	0.01184	989.8	0.21
298.15	0.01268	989.19	0.21
298.15	0.01408	988.4	0.21
298.15	0.01511	988.05	0.21
298.15	0.01669	987.15	0.21
298.15	0.5009	842.56	0.22
298.15	0.54718	837.46	0.22
298.15	0.571	835.03	0.22
298.15	0.59296	832.93	0.22
298.15	0.64952	827.94	0.22
298.15	0.69078	824.6	0.22
298.15	0.72491	822.07	0.22
298.15	0.75429	820.05	0.22
298.15	0.7929	817.45	0.22
298.15	0.84782	814	0.22
298.15	0.93222	809.2	0.22
298.15	0.94879	808.33	0.22
298.15	0.9959	806	0.22
298.15	1	805.78	0.22
303.15	0	995.65	0.2
303.15	0.00184	994.41	0.21
303.15	0.00193	994.34	0.21
303.15	0.00411	992.93	0.21
303.15	0.00594	991.77	0.21
303.15	0.00758	990.82	0.21
303.15	0.00984	989.29	0.21
303.15	0.01184	988.21	0.21
303.15	0.01268	987.58	0.21
303.15	0.01408	986.76	0.21
303.15	0.01511	986.38	0.21
303.15	0.01669	985.44	0.21
303.15	0.5009	838.64	0.22
303.15	0.54718	833.5	0.22
303.15	0.571	831.05	0.22
303.15	0.59296	828.95	0.22
303.15	0.64952	823.94	0.22
303.15	0.69078	820.59	0.22
303.15	0.72491	818.07	0.22
303.15	0.75429	816.04	0.22
303.15	0.7929	813.46	0.22
303.15	0.84782	810.03	0.22
303.15	0.93222	805.28	0.22
303.15	0.94879	804.44	0.22
303.15	0.9959	802.14	0.22
303.15	1	801.94	0.22

System: water + butan-1-ol; phases: Liquid
Fixed: Pressure, kPa = 100
Fixed: Frequency, MHz = 3
Property: Speed of sound, m/s (Liquid); method: Single path-length method
Temperature, K	Mole fraction of butan-1-ol	Speed of sound, m/s	uncertainty
283.15	0	1447.6	4
283.15	0.00184	1455.4	4
283.15	0.00193	1457.5	4
283.15	0.00411	1469.4	4
283.15	0.00594	1476	4
283.15	0.00758	1485.2	4
283.15	0.00984	1495.2	4
283.15	0.01184	1504.7	4
283.15	0.01268	1506.8	4
283.15	0.01408	1513.7	4
283.15	0.01511	1517.2	4
283.15	0.01669	1523.4	4
283.15	0.5009	1342.2	4
283.15	0.54718	1336.8	4
283.15	0.571	1334	4
283.15	0.59296	1331.6	4
283.15	0.64952	1326.1	4
283.15	0.69078	1320.1	4
283.15	0.72491	1319.3	4
283.15	0.75429	1315.8	4
283.15	0.7929	1312.1	4
283.15	0.84782	1306.7	4
283.15	0.94879	1295.9	4
283.15	0.9959	1294.5	4
283.15	1	1292.2	4
288.15	0	1466.3	4
288.15	0.00184	1475.8	4
288.15	0.00193	1475.6	4
288.15	0.00411	1486.3	4
288.15	0.00594	1492.9	4
288.15	0.00758	1500.1	4
288.15	0.00984	1509.6	4
288.15	0.01184	1517.4	4
288.15	0.01268	1520.5	4
288.15	0.01408	1525.7	4
288.15	0.01511	1528.5	4
288.15	0.01669	1534.1	4
288.15	0.5009	1328.5	4
288.15	0.54718	1322.6	4
288.15	0.571	1319.6	4
288.15	0.59296	1317.1	4
288.15	0.64952	1311.1	4
288.15	0.69078	1305.1	4
288.15	0.72491	1303.8	4
288.15	0.75429	1300.5	4
288.15	0.7929	1296.6	4
288.15	0.84782	1290.8	4
288.15	0.94879	1279.7	4
288.15	0.9959	1277.6	4
288.15	1	1275.5	4
293.15	0	1482.7	4
293.15	0.00184	1492.5	4
293.15	0.00193	1490.7	4
293.15	0.00411	1499.9	4
293.15	0.00594	1506.6	4
293.15	0.00758	1512.6	4
293.15	0.00984	1521.2	4
293.15	0.01184	1527.7	4
293.15	0.01268	1531.4	4
293.15	0.01408	1535.5	4
293.15	0.01511	1537.9	4
293.15	0.01669	1542.7	4
293.15	0.5009	1313.5	4
293.15	0.54718	1307.4	4
293.15	0.571	1304.2	4
293.15	0.59296	1301.6	4
293.15	0.64952	1295.2	4
293.15	0.69078	1288.9	4
293.15	0.72491	1287.4	4
293.15	0.75429	1284.3	4
293.15	0.7929	1279.9	4
293.15	0.84782	1274.2	4
293.15	0.94879	1262.7	4
293.15	0.9959	1259.1	4
293.15	1	1257.5	4
298.15	0	1497	4
298.15	0.00184	1506.5	4
298.15	0.00193	1504	4
298.15	0.00411	1512.1	4
298.15	0.00594	1518.6	4
298.15	0.00758	1523.8	4
298.15	0.00984	1531.6	4
298.15	0.01184	1537.2	4
298.15	0.01268	1540.5	4
298.15	0.01408	1543.9	4
298.15	0.01511	1545.9	4
298.15	0.01669	1549.9	4
298.15	0.5009	1298.5	4
298.15	0.54718	1292.1	4
298.15	0.571	1288.7	4
298.15	0.59296	1285.9	4
298.15	0.64952	1279.2	4
298.15	0.69078	1273.2	4
298.15	0.72491	1270.8	4
298.15	0.75429	1268.4	4
298.15	0.7929	1263.4	4
298.15	0.84782	1257.4	4
298.15	0.94879	1245.6	4
298.15	0.9959	1240.5	4
298.15	1	1239.3	4
303.15	0	1509.4	4
303.15	0.00184	1518.3	4
303.15	0.00193	1515.7	4
303.15	0.00411	1522.9	4
303.15	0.00594	1528.6	4
303.15	0.00758	1533.6	4
303.15	0.00984	1540.4	4
303.15	0.01184	1545.2	4
303.15	0.01268	1548.2	4
303.15	0.01408	1550.8	4
303.15	0.01511	1552.4	4
303.15	0.01669	1555.6	4
303.15	0.5009	1283.8	4
303.15	0.54718	1276.9	4
303.15	0.571	1273.2	4
303.15	0.59296	1270.2	4
303.15	0.64952	1263.1	4
303.15	0.69078	1257.8	4
303.15	0.72491	1254.3	4
303.15	0.75429	1252.8	4
303.15	0.7929	1246.7	4
303.15	0.84782	1240.6	4
303.15	0.94879	1228.7	4
303.15	0.9959	1223.5	4
303.15	1	1222.4	4
