Measured thermophysical data. Determination of Henry's constant of light hydrocarbon gases at low temperatures
Source: J. Chem. Thermodyn., 2012, 10.1016/j.jct.2012.02.014
Compound 1: 2-methylpropane, C4H10, InChI=1S/C4H10/c1-4(2)3/h4H,1-3H3, purity 99.95%
Compound 2: water, H2O, InChI=1S/H2O/h1H2, purity 99.8%

System: 2-methylpropane + water; phases: Liquid, Gas
Fixed: Mole fraction of 2-methylpropane = 0
Property: Henry's Law constant (mole fraction scale), kPa of 2-methylpropane (Liquid); method: pressure change
Temperature, K	Henry's Law constant (mole fraction scale), kPa of 2-methylpropane	uncertainty
274.95	135000	13400
276.05	127000	12300
276.95	132000	13000
277.85	135000	13400
279.35	148000	15000
283.15	223000	21600
283.15	231000	22600
288.65	291000	28100
290.85	346000	33700
292.75	391000	37900
293.3	358000	36200

System: 2-methylpropane + water; phases: Gas, Liquid
Property: Vapor or sublimation pressure, kPa (Gas); method: Closed cell (Static) method
Temperature, K	Mole fraction of 2-methylpropane	Vapor or sublimation pressure, kPa	uncertainty
274.95	0.00119	155	3
276.05	0.00137	168	3
276.95	0.00133	170	3
277.85	0.00131	171	2
279.35	0.00121	174	2
283.15	0.000824	185	4
283.15	0.000893	194	4
288.65	0.000713	202	4
290.85	0.000584	196	3
292.75	0.000524	199	3
293.3	0.000598	208	3
