Measured thermophysical data. Study of solute-solute and solute-solvent interactions of homologous series of some .alpha.-amino acids in aqueous-D-xylose solutions at different temperatures by using physicochemical methods
Source: J. Chem. Thermodyn., 2016, 10.1016/j.jct.2016.06.030
Compound 1: 2-aminoacetic acid, C2H5NO2, InChI=1S/C2H5NO2/c3-1-2(4)5/h1,3H2,(H,4,5), purity 99%
Compound 2: (S)-2-aminopropanoic acid, C3H7NO2, InChI=1S/C3H7NO2/c1-2(4)3(5)6/h2H,4H2,1H3,(H,5,6)/t2-/m0/s1, purity 99%
Compound 3: L-valine, C5H11NO2, InChI=1S/C5H11NO2/c1-3(2)4(6)5(7)8/h3-4H,6H2,1-2H3,(H,7,8)/t4-/m0/s1, purity 99%
Compound 4: 2-amino-3-methylpentanoic acid, C6H13NO2, InChI=1S/C6H13NO2/c1-3-4(2)5(7)6(8)9/h4-5H,3,7H2,1-2H3,(H,8,9)/t4-,5-/m0/s1, purity 99%
Compound 5: D-xylose, C5H10O5, InChI=1S/C5H10O5/c6-1-3(8)5(10)4(9)2-7/h1,3-5,7-10H,2H2/t3-,4+,5+/m0/s1, purity 99%
Compound 6: water, H2O, InChI=1S/H2O/h1H2

System: 2-aminoacetic acid + D-xylose + water; phases: Liquid
Fixed: Pressure, kPa = 101
Property: Mass density, kg/m3 (Liquid); method: Pycnometric method
Temperature, K	Molality, mol/kg of 2-aminoacetic acid	Solvent: Mass fraction of D-xylose	Mass density, kg/m3	uncertainty
293.15	0	0.025	1007.24	1.08
293.15	0.0248	0.025	1007.98	1.08
293.15	0.0502	0.025	1008.72	1.08
293.15	0.0751	0.025	1009.43	1.08
293.15	0.1001	0.025	1010.12	1.08
293.15	0.1249	0.025	1010.79	1.08
293.15	0.1502	0.025	1011.45	1.08
298.15	0	0.025	1005.63	1.08
298.15	0.0248	0.025	1006.37	1.08
298.15	0.0502	0.025	1007.12	1.08
298.15	0.0751	0.025	1007.83	1.08
298.15	0.1001	0.025	1008.52	1.08
298.15	0.1249	0.025	1009.19	1.08
298.15	0.1502	0.025	1009.85	1.08
303.15	0	0.025	1004.03	1.08
303.15	0.0248	0.025	1004.77	1.08
303.15	0.0502	0.025	1005.52	1.08
303.15	0.0751	0.025	1006.23	1.08
303.15	0.1001	0.025	1006.92	1.08
303.15	0.1249	0.025	1007.59	1.08
303.15	0.1502	0.025	1008.25	1.08
308.15	0	0.025	1002.43	1.09
308.15	0.0248	0.025	1003.18	1.09
308.15	0.0502	0.025	1003.92	1.09
308.15	0.0751	0.025	1004.63	1.09
308.15	0.1001	0.025	1005.32	1.08
308.15	0.1249	0.025	1006	1.08
308.15	0.1502	0.025	1006.65	1.08
313.15	0	0.025	1000.84	1.09
313.15	0.0248	0.025	1001.59	1.09
313.15	0.0502	0.025	1002.33	1.09
313.15	0.0751	0.025	1003.04	1.09
313.15	0.1001	0.025	1003.74	1.09
313.15	0.1249	0.025	1004.41	1.09
313.15	0.1502	0.025	1005.07	1.09
318.15	0	0.025	999.23	1.09
318.15	0.0248	0.025	999.98	1.09
318.15	0.0502	0.025	1000.73	1.09
318.15	0.0751	0.025	1001.44	1.09
318.15	0.1001	0.025	1002.14	1.09
318.15	0.1249	0.025	1002.81	1.09
318.15	0.1502	0.025	1003.47	1.09
293.15	0	0.05	1015.93	1.08
293.15	0.0249	0.05	1016.64	1.08
293.15	0.0501	0.05	1017.33	1.08
293.15	0.0748	0.05	1018	1.08
293.15	0.102	0.05	1018.72	1.08
293.15	0.1249	0.05	1019.31	1.08
293.15	0.1501	0.05	1019.95	1.08
298.15	0	0.05	1014.27	1.08
298.15	0.0249	0.05	1014.98	1.08
298.15	0.0501	0.05	1015.68	1.08
298.15	0.0748	0.05	1016.35	1.08
298.15	0.102	0.05	1017.07	1.08
298.15	0.1249	0.05	1017.66	1.08
298.15	0.1501	0.05	1018.29	1.08
303.15	0	0.05	1012.62	1.09
303.15	0.0249	0.05	1013.33	1.08
303.15	0.0501	0.05	1014.03	1.08
303.15	0.0748	0.05	1014.7	1.08
303.15	0.102	0.05	1015.42	1.08
303.15	0.1249	0.05	1016.01	1.08
303.15	0.1501	0.05	1016.65	1.08
308.15	0	0.05	1010.96	1.09
308.15	0.0249	0.05	1011.67	1.09
308.15	0.0501	0.05	1012.37	1.09
308.15	0.0748	0.05	1013.05	1.09
308.15	0.102	0.05	1013.77	1.09
308.15	0.1249	0.05	1014.36	1.09
308.15	0.1501	0.05	1015	1.09
313.15	0	0.05	1009.31	1.09
313.15	0.0249	0.05	1010.02	1.09
313.15	0.0501	0.05	1010.73	1.09
313.15	0.0748	0.05	1011.4	1.09
313.15	0.102	0.05	1012.13	1.09
313.15	0.1249	0.05	1012.72	1.09
313.15	0.1501	0.05	1013.36	1.09
318.15	0	0.05	1007.66	1.09
318.15	0.0249	0.05	1008.38	1.09
318.15	0.0501	0.05	1009.08	1.09
318.15	0.0748	0.05	1009.76	1.09
318.15	0.102	0.05	1010.49	1.09
318.15	0.1249	0.05	1011.09	1.09
318.15	0.1501	0.05	1011.73	1.09

System: 2-aminoacetic acid + D-xylose + water; phases: Liquid
Fixed: Pressure, kPa = 101
Fixed: Frequency, MHz = 3
Property: Speed of sound, m/s (Liquid); method: Linear variable-path acoustic interferometer
Temperature, K	Molality, mol/kg of 2-aminoacetic acid	Solvent: Mass fraction of D-xylose	Speed of sound, m/s	uncertainty
298.15	0	0.025	1506.9	3.3
298.15	0.0248	0.025	1508.4	3.3
298.15	0.0502	0.025	1510.3	3.3
298.15	0.0751	0.025	1512.4	3.3
298.15	0.1001	0.025	1514.9	3.3
298.15	0.1249	0.025	1517.7	3.3
298.15	0.1502	0.025	1521	3.3
303.15	0	0.025	1517	3.4
303.15	0.0248	0.025	1518.4	3.4
303.15	0.0502	0.025	1520.3	3.4
303.15	0.0751	0.025	1522.4	3.4
303.15	0.1001	0.025	1524.8	3.4
303.15	0.1249	0.025	1527.6	3.4
303.15	0.1502	0.025	1530.8	3.4
308.15	0	0.025	1526.6	3.4
308.15	0.0248	0.025	1528	3.4
308.15	0.0502	0.025	1529.7	3.4
308.15	0.0751	0.025	1531.8	3.4
308.15	0.1001	0.025	1534.2	3.4
308.15	0.1249	0.025	1537	3.4
308.15	0.1502	0.025	1540	3.4
313.15	0	0.025	1536.6	3.4
313.15	0.0248	0.025	1537.9	3.4
313.15	0.0502	0.025	1539.6	3.4
313.15	0.0751	0.025	1541.7	3.4
313.15	0.1001	0.025	1544	3.4
313.15	0.1249	0.025	1546.7	3.4
313.15	0.1502	0.025	1549.7	3.4
318.15	0	0.025	1543	3.4
318.15	0.0248	0.025	1544.2	3.4
318.15	0.0502	0.025	1545.8	3.4
318.15	0.0751	0.025	1547.8	3.4
318.15	0.1001	0.025	1550.1	3.4
318.15	0.1249	0.025	1552.7	3.4
318.15	0.1502	0.025	1555.7	3.4
298.15	0	0.05	1516.6	3.4
298.15	0.0249	0.05	1518.2	3.4
298.15	0.0501	0.05	1520	3.4
298.15	0.0748	0.05	1522.1	3.4
298.15	0.102	0.05	1524.6	3.4
298.15	0.1249	0.05	1527	3.4
298.15	0.1501	0.05	1529.9	3.4
303.15	0	0.05	1526.9	3.4
303.15	0.0249	0.05	1528.4	3.4
303.15	0.0501	0.05	1530.2	3.4
303.15	0.0748	0.05	1532.2	3.4
303.15	0.102	0.05	1534.7	3.4
303.15	0.1249	0.05	1537.1	3.4
303.15	0.1501	0.05	1539.9	3.4
308.15	0	0.05	1536.7	3.4
308.15	0.0249	0.05	1538.1	3.4
308.15	0.0501	0.05	1539.9	3.4
308.15	0.0748	0.05	1541.8	3.4
308.15	0.102	0.05	1544.2	3.4
308.15	0.1249	0.05	1546.5	3.4
308.15	0.1501	0.05	1549.2	3.4
313.15	0	0.05	1545.6	3.4
313.15	0.0249	0.05	1547	3.4
313.15	0.0501	0.05	1548.6	3.4
313.15	0.0748	0.05	1550.5	3.4
313.15	0.102	0.05	1552.9	3.4
313.15	0.1249	0.05	1555.1	3.4
313.15	0.1501	0.05	1557.7	3.4
318.15	0	0.05	1551.8	3.4
318.15	0.0249	0.05	1553.1	3.4
318.15	0.0501	0.05	1554.6	3.4
318.15	0.0748	0.05	1556.4	3.4
318.15	0.102	0.05	1558.7	3.4
318.15	0.1249	0.05	1560.8	3.4
318.15	0.1501	0.05	1563.3	3.4

System: 2-aminoacetic acid + D-xylose + water; phases: Liquid
Fixed: Pressure, kPa = 101
Property: Viscosity, Pa*s (Liquid); method: Capillary tube (Ostwald; Ubbelohde) method
Temperature, K	Molality, mol/kg of 2-aminoacetic acid	Solvent: Mass fraction of D-xylose	Viscosity, Pa*s	uncertainty
298.15	0	0.025	0.0009096	2.08e-05
298.15	0.0248	0.025	0.0009189	2.1e-05
298.15	0.0502	0.025	0.0009263	2.12e-05
298.15	0.0751	0.025	0.0009335	2.14e-05
298.15	0.1001	0.025	0.0009402	2.15e-05
298.15	0.1249	0.025	0.0009468	2.17e-05
298.15	0.1502	0.025	0.0009533	2.18e-05
303.15	0	0.025	0.0008077	1.85e-05
303.15	0.0248	0.025	0.0008168	1.87e-05
303.15	0.0502	0.025	0.000824	1.89e-05
303.15	0.0751	0.025	0.0008308	1.9e-05
303.15	0.1001	0.025	0.0008377	1.92e-05
303.15	0.1249	0.025	0.0008439	1.93e-05
303.15	0.1502	0.025	0.0008509	1.95e-05
308.15	0	0.025	0.0007269	1.66e-05
308.15	0.0248	0.025	0.0007359	1.68e-05
308.15	0.0502	0.025	0.0007431	1.7e-05
308.15	0.0751	0.025	0.0007497	1.72e-05
308.15	0.1001	0.025	0.0007564	1.73e-05
308.15	0.1249	0.025	0.000763	1.75e-05
308.15	0.1502	0.025	0.0007701	1.76e-05
313.15	0	0.025	0.0006571	1.5e-05
313.15	0.0248	0.025	0.0006657	1.52e-05
313.15	0.0502	0.025	0.0006728	1.54e-05
313.15	0.0751	0.025	0.0006794	1.56e-05
313.15	0.1001	0.025	0.000686	1.57e-05
313.15	0.1249	0.025	0.0006926	1.59e-05
313.15	0.1502	0.025	0.0006996	1.6e-05
318.15	0	0.025	0.0005992	1.37e-05
318.15	0.0248	0.025	0.0006074	1.39e-05
318.15	0.0502	0.025	0.0006142	1.41e-05
318.15	0.0751	0.025	0.0006208	1.42e-05
318.15	0.1001	0.025	0.0006272	1.44e-05
318.15	0.1249	0.025	0.0006337	1.45e-05
318.15	0.1502	0.025	0.0006406	1.47e-05
298.15	0	0.05	0.000964	2.2e-05
298.15	0.0249	0.05	0.000975	2.23e-05
298.15	0.0501	0.05	0.0009839	2.25e-05
298.15	0.0748	0.05	0.0009922	2.27e-05
298.15	0.102	0.05	0.0010015	2.29e-05
298.15	0.1249	0.05	0.0010093	2.31e-05
298.15	0.1501	0.05	0.0010177	2.33e-05
303.15	0	0.05	0.0008547	1.96e-05
303.15	0.0249	0.05	0.0008655	1.98e-05
303.15	0.0501	0.05	0.0008745	2e-05
303.15	0.0748	0.05	0.0008827	2.02e-05
303.15	0.102	0.05	0.0008919	2.04e-05
303.15	0.1249	0.05	0.0008998	2.06e-05
303.15	0.1501	0.05	0.0009078	2.08e-05
308.15	0	0.05	0.0007637	1.75e-05
308.15	0.0249	0.05	0.0007742	1.77e-05
308.15	0.0501	0.05	0.0007831	1.79e-05
308.15	0.0748	0.05	0.0007912	1.81e-05
308.15	0.102	0.05	0.0008	1.83e-05
308.15	0.1249	0.05	0.0008077	1.85e-05
308.15	0.1501	0.05	0.0008157	1.87e-05
313.15	0	0.05	0.0006869	1.57e-05
313.15	0.0249	0.05	0.000697	1.6e-05
313.15	0.0501	0.05	0.0007056	1.62e-05
313.15	0.0748	0.05	0.0007136	1.63e-05
313.15	0.102	0.05	0.0007224	1.65e-05
313.15	0.1249	0.05	0.0007298	1.67e-05
313.15	0.1501	0.05	0.0007375	1.69e-05
318.15	0	0.05	0.0006253	1.43e-05
318.15	0.0249	0.05	0.000635	1.45e-05
318.15	0.0501	0.05	0.0006434	1.47e-05
318.15	0.0748	0.05	0.0006513	1.49e-05
318.15	0.102	0.05	0.0006597	1.51e-05
318.15	0.1249	0.05	0.000667	1.53e-05
318.15	0.1501	0.05	0.0006746	1.55e-05

System: (S)-2-aminopropanoic acid + D-xylose + water; phases: Liquid
Fixed: Pressure, kPa = 101
Property: Mass density, kg/m3 (Liquid); method: Pycnometric method
Temperature, K	Molality, mol/kg of (S)-2-aminopropanoic acid	Solvent: Mass fraction of D-xylose	Mass density, kg/m3	uncertainty
293.15	0	0.025	1007.24	1.08
293.15	0.0248	0.025	1007.91	1.08
293.15	0.0502	0.025	1008.59	1.08
293.15	0.0748	0.025	1009.23	1.08
293.15	0.1002	0.025	1009.88	1.08
293.15	0.1249	0.025	1010.5	1.08
293.15	0.1501	0.025	1011.12	1.08
298.15	0	0.025	1005.63	1.08
298.15	0.0248	0.025	1006.3	1.08
298.15	0.0502	0.025	1006.98	1.08
298.15	0.0748	0.025	1007.62	1.08
298.15	0.1002	0.025	1008.27	1.08
298.15	0.1249	0.025	1008.89	1.08
298.15	0.1501	0.025	1009.51	1.08
303.15	0	0.025	1004.03	1.09
303.15	0.0248	0.025	1004.7	1.09
303.15	0.0502	0.025	1005.38	1.09
303.15	0.0748	0.025	1006.02	1.08
303.15	0.1002	0.025	1006.67	1.08
303.15	0.1249	0.025	1007.29	1.08
303.15	0.1501	0.025	1007.91	1.08
308.15	0	0.025	1002.43	1.09
308.15	0.0248	0.025	1003.11	1.09
308.15	0.0502	0.025	1003.78	1.09
308.15	0.0748	0.025	1004.43	1.09
308.15	0.1002	0.025	1005.08	1.09
308.15	0.1249	0.025	1005.7	1.09
308.15	0.1501	0.025	1006.32	1.08
313.15	0	0.025	1000.84	1.09
313.15	0.0248	0.025	1001.52	1.09
313.15	0.0502	0.025	1002.2	1.09
313.15	0.0748	0.025	1002.84	1.09
313.15	0.1002	0.025	1003.49	1.09
313.15	0.1249	0.025	1004.11	1.09
313.15	0.1501	0.025	1004.73	1.09
318.15	0	0.025	999.23	1.09
318.15	0.0248	0.025	999.91	1.09
318.15	0.0502	0.025	1000.59	1.09
318.15	0.0748	0.025	1001.24	1.09
318.15	0.1002	0.025	1001.89	1.09
318.15	0.1249	0.025	1002.51	1.09
318.15	0.1501	0.025	1003.13	1.09
293.15	0	0.05	1015.93	1.08
293.15	0.0248	0.05	1016.56	1.08
293.15	0.0501	0.05	1017.19	1.08
293.15	0.0749	0.05	1017.8	1.08
293.15	0.1001	0.05	1018.4	1.08
293.15	0.1248	0.05	1018.98	1.08
293.15	0.1502	0.05	1019.56	1.08
298.15	0	0.05	1014.27	1.09
298.15	0.0248	0.05	1014.9	1.08
298.15	0.0501	0.05	1015.54	1.08
298.15	0.0749	0.05	1016.14	1.08
298.15	0.1001	0.05	1016.75	1.08
298.15	0.1248	0.05	1017.33	1.08
298.15	0.1502	0.05	1017.91	1.08
303.15	0	0.05	1012.62	1.09
303.15	0.0248	0.05	1013.25	1.09
303.15	0.0501	0.05	1013.89	1.09
303.15	0.0749	0.05	1014.5	1.09
303.15	0.1001	0.05	1015.1	1.08
303.15	0.1248	0.05	1015.68	1.08
303.15	0.1502	0.05	1016.26	1.08
308.15	0	0.05	1010.96	1.09
308.15	0.0248	0.05	1011.6	1.09
308.15	0.0501	0.05	1012.23	1.09
308.15	0.0749	0.05	1012.84	1.09
308.15	0.1001	0.05	1013.44	1.09
308.15	0.1248	0.05	1014.02	1.09
308.15	0.1502	0.05	1014.61	1.09
313.15	0	0.05	1009.31	1.09
313.15	0.0248	0.05	1009.95	1.09
313.15	0.0501	0.05	1010.58	1.09
313.15	0.0749	0.05	1011.19	1.09
313.15	0.1001	0.05	1011.8	1.09
313.15	0.1248	0.05	1012.39	1.09
313.15	0.1502	0.05	1012.97	1.09
318.15	0	0.05	1007.66	1.09
318.15	0.0248	0.05	1008.3	1.09
318.15	0.0501	0.05	1008.94	1.09
318.15	0.0749	0.05	1009.55	1.09
318.15	0.1001	0.05	1010.16	1.09
318.15	0.1248	0.05	1010.74	1.09
318.15	0.1502	0.05	1011.33	1.09

System: (S)-2-aminopropanoic acid + D-xylose + water; phases: Liquid
Fixed: Pressure, kPa = 101
Fixed: Frequency, MHz = 3
Property: Speed of sound, m/s (Liquid); method: Linear variable-path acoustic interferometer
Temperature, K	Molality, mol/kg of (S)-2-aminopropanoic acid	Solvent: Mass fraction of D-xylose	Speed of sound, m/s	uncertainty
298.15	0	0.025	1506.9	3.4
298.15	0.0248	0.025	1508.2	3.4
298.15	0.0502	0.025	1509.8	3.4
298.15	0.0748	0.025	1511.6	3.4
298.15	0.1002	0.025	1513.8	3.4
298.15	0.1249	0.025	1516.1	3.4
298.15	0.1501	0.025	1518.7	3.4
303.15	0	0.025	1517	3.4
303.15	0.0248	0.025	1518.2	3.4
303.15	0.0502	0.025	1519.7	3.4
303.15	0.0748	0.025	1521.5	3.4
303.15	0.1002	0.025	1523.5	3.4
303.15	0.1249	0.025	1525.7	3.4
303.15	0.1501	0.025	1528.2	3.4
308.15	0	0.025	1526.6	3.4
308.15	0.0248	0.025	1527.7	3.4
308.15	0.0502	0.025	1529.2	3.4
308.15	0.0748	0.025	1530.8	3.4
308.15	0.1002	0.025	1532.8	3.4
308.15	0.1249	0.025	1534.9	3.4
308.15	0.1501	0.025	1537.2	3.4
313.15	0	0.025	1536.6	3.4
313.15	0.0248	0.025	1537.6	3.4
313.15	0.0502	0.025	1539	3.4
313.15	0.0748	0.025	1540.6	3.4
313.15	0.1002	0.025	1542.5	3.4
313.15	0.1249	0.025	1544.6	3.4
313.15	0.1501	0.025	1546.8	3.4
318.15	0	0.025	1543	3.4
318.15	0.0248	0.025	1544	3.4
318.15	0.0502	0.025	1545.3	3.4
318.15	0.0748	0.025	1546.8	3.4
318.15	0.1002	0.025	1548.6	3.4
318.15	0.1249	0.025	1550.6	3.4
318.15	0.1501	0.025	1552.7	3.4
298.15	0	0.05	1516.6	3.4
298.15	0.0248	0.05	1517.9	3.4
298.15	0.0501	0.05	1519.5	3.4
298.15	0.0749	0.05	1521.3	3.4
298.15	0.1001	0.05	1523.3	3.4
298.15	0.1248	0.05	1525.5	3.4
298.15	0.1502	0.05	1527.8	3.4
303.15	0	0.05	1526.9	3.4
303.15	0.0248	0.05	1528.2	3.4
303.15	0.0501	0.05	1529.6	3.4
303.15	0.0749	0.05	1531.3	3.4
303.15	0.1001	0.05	1533.3	3.4
303.15	0.1248	0.05	1535.3	3.4
303.15	0.1502	0.05	1537.5	3.4
308.15	0	0.05	1536.7	3.4
308.15	0.0248	0.05	1537.9	3.4
308.15	0.0501	0.05	1539.3	3.4
308.15	0.0749	0.05	1540.9	3.4
308.15	0.1001	0.05	1542.8	3.4
308.15	0.1248	0.05	1544.8	3.4
308.15	0.1502	0.05	1546.9	3.4
313.15	0	0.05	1545.6	3.4
313.15	0.0248	0.05	1546.7	3.4
313.15	0.0501	0.05	1548.1	3.4
313.15	0.0749	0.05	1549.6	3.4
313.15	0.1001	0.05	1551.5	3.4
313.15	0.1248	0.05	1553.4	3.4
313.15	0.1502	0.05	1555.5	3.4
318.15	0	0.05	1551.8	3.4
318.15	0.0248	0.05	1552.8	3.4
318.15	0.0501	0.05	1554.1	3.4
318.15	0.0749	0.05	1555.6	3.4
318.15	0.1001	0.05	1557.3	3.4
318.15	0.1248	0.05	1559.1	3.4
318.15	0.1502	0.05	1561.1	3.4

System: (S)-2-aminopropanoic acid + D-xylose + water; phases: Liquid
Fixed: Pressure, kPa = 101
Property: Viscosity, Pa*s (Liquid); method: Capillary tube (Ostwald; Ubbelohde) method
Temperature, K	Molality, mol/kg of (S)-2-aminopropanoic acid	Solvent: Mass fraction of D-xylose	Viscosity, Pa*s	uncertainty
298.15	0	0.025	0.0009096	2.08e-05
298.15	0.0248	0.025	0.00092	2.11e-05
298.15	0.0502	0.025	0.0009283	2.13e-05
298.15	0.0748	0.025	0.0009358	2.14e-05
298.15	0.1002	0.025	0.0009437	2.16e-05
298.15	0.1249	0.025	0.0009516	2.18e-05
298.15	0.1501	0.025	0.0009597	2.2e-05
303.15	0	0.025	0.0008077	1.85e-05
303.15	0.0248	0.025	0.0008179	1.87e-05
303.15	0.0502	0.025	0.000826	1.89e-05
303.15	0.0748	0.025	0.0008337	1.91e-05
303.15	0.1002	0.025	0.0008416	1.93e-05
303.15	0.1249	0.025	0.0008492	1.95e-05
303.15	0.1501	0.025	0.0008571	1.96e-05
308.15	0	0.025	0.0007269	1.66e-05
308.15	0.0248	0.025	0.0007368	1.69e-05
308.15	0.0502	0.025	0.0007448	1.71e-05
308.15	0.0748	0.025	0.0007524	1.72e-05
308.15	0.1002	0.025	0.0007602	1.74e-05
308.15	0.1249	0.025	0.0007678	1.76e-05
308.15	0.1501	0.025	0.0007757	1.78e-05
313.15	0	0.025	0.0006571	1.5e-05
313.15	0.0248	0.025	0.0006666	1.53e-05
313.15	0.0502	0.025	0.0006745	1.55e-05
313.15	0.0748	0.025	0.0006821	1.56e-05
313.15	0.1002	0.025	0.0006898	1.58e-05
313.15	0.1249	0.025	0.0006974	1.6e-05
313.15	0.1501	0.025	0.0007051	1.62e-05
318.15	0	0.025	0.0005992	1.37e-05
318.15	0.0248	0.025	0.0006083	1.4e-05
318.15	0.0502	0.025	0.000616	1.41e-05
318.15	0.0748	0.025	0.0006235	1.43e-05
318.15	0.1002	0.025	0.0006312	1.45e-05
318.15	0.1249	0.025	0.0006386	1.47e-05
318.15	0.1501	0.025	0.0006462	1.48e-05
298.15	0	0.05	0.000964	2.2e-05
298.15	0.0248	0.05	0.0009762	2.23e-05
298.15	0.0501	0.05	0.0009861	2.26e-05
298.15	0.0749	0.05	0.0009958	2.28e-05
298.15	0.1001	0.05	0.0010054	2.3e-05
298.15	0.1248	0.05	0.0010149	2.32e-05
298.15	0.1502	0.05	0.0010243	2.34e-05
303.15	0	0.05	0.0008547	1.96e-05
303.15	0.0248	0.05	0.0008666	1.99e-05
303.15	0.0501	0.05	0.0008766	2.01e-05
303.15	0.0749	0.05	0.000886	2.03e-05
303.15	0.1001	0.05	0.0008957	2.05e-05
303.15	0.1248	0.05	0.000905	2.07e-05
303.15	0.1502	0.05	0.0009145	2.1e-05
308.15	0	0.05	0.0007637	1.75e-05
308.15	0.0248	0.05	0.0007752	1.78e-05
308.15	0.0501	0.05	0.000785	1.8e-05
308.15	0.0749	0.05	0.0007946	1.82e-05
308.15	0.1001	0.05	0.0008039	1.84e-05
308.15	0.1248	0.05	0.000813	1.86e-05
308.15	0.1502	0.05	0.0008221	1.88e-05
313.15	0	0.05	0.0006869	1.57e-05
313.15	0.0248	0.05	0.0006979	1.6e-05
313.15	0.0501	0.05	0.0007071	1.62e-05
313.15	0.0749	0.05	0.0007163	1.64e-05
313.15	0.1001	0.05	0.0007253	1.66e-05
313.15	0.1248	0.05	0.0007341	1.68e-05
313.15	0.1502	0.05	0.0007431	1.7e-05
318.15	0	0.05	0.0006253	1.43e-05
318.15	0.0248	0.05	0.0006358	1.46e-05
318.15	0.0501	0.05	0.0006449	1.48e-05
318.15	0.0749	0.05	0.000654	1.5e-05
318.15	0.1001	0.05	0.0006626	1.52e-05
318.15	0.1248	0.05	0.0006711	1.54e-05
318.15	0.1502	0.05	0.0006797	1.56e-05

System: D-xylose + L-valine + water; phases: Liquid
Fixed: Pressure, kPa = 101
Property: Mass density, kg/m3 (Liquid); method: Pycnometric method
Temperature, K	Molality, mol/kg of L-valine	Solvent: Mass fraction of D-xylose	Mass density, kg/m3	uncertainty
293.15	0	0.025	1007.24	1.08
293.15	0.0252	0.025	1007.86	1.08
293.15	0.0501	0.025	1008.46	1.08
293.15	0.0749	0.025	1009.04	1.08
293.15	0.0998	0.025	1009.61	1.08
293.15	0.1251	0.025	1010.18	1.08
293.15	0.1502	0.025	1010.73	1.08
298.15	0	0.025	1005.63	1.08
298.15	0.0252	0.025	1006.25	1.08
298.15	0.0501	0.025	1006.85	1.08
298.15	0.0749	0.025	1007.44	1.08
298.15	0.0998	0.025	1008.01	1.08
298.15	0.1251	0.025	1008.58	1.08
298.15	0.1502	0.025	1009.13	1.08
303.15	0	0.025	1004.03	1.09
303.15	0.0252	0.025	1004.66	1.09
303.15	0.0501	0.025	1005.26	1.09
303.15	0.0749	0.025	1005.84	1.08
303.15	0.0998	0.025	1006.42	1.08
303.15	0.1251	0.025	1006.99	1.08
303.15	0.1502	0.025	1007.54	1.08
308.15	0	0.025	1002.43	1.09
308.15	0.0252	0.025	1003.06	1.09
308.15	0.0501	0.025	1003.67	1.09
308.15	0.0749	0.025	1004.26	1.09
308.15	0.0998	0.025	1004.83	1.09
308.15	0.1251	0.025	1005.41	1.09
308.15	0.1502	0.025	1005.96	1.08
313.15	0	0.025	1000.84	1.09
313.15	0.0252	0.025	1001.47	1.09
313.15	0.0501	0.025	1002.08	1.09
313.15	0.0749	0.025	1002.67	1.09
313.15	0.0998	0.025	1003.25	1.09
313.15	0.1251	0.025	1003.83	1.09
313.15	0.1502	0.025	1004.39	1.09
318.15	0	0.025	999.23	1.09
318.15	0.0252	0.025	999.86	1.09
318.15	0.0501	0.025	1000.48	1.09
318.15	0.0749	0.025	1001.07	1.09
318.15	0.0998	0.025	1001.65	1.09
318.15	0.1251	0.025	1002.23	1.09
318.15	0.1502	0.025	1002.79	1.09
293.15	0	0.05	1015.93	1.08
293.15	0.0251	0.05	1016.5	1.08
293.15	0.0502	0.05	1017.06	1.08
293.15	0.075	0.05	1017.6	1.08
293.15	0.0999	0.05	1018.13	1.08
293.15	0.125	0.05	1018.65	1.08
293.15	0.1499	0.05	1019.15	1.08
298.15	0	0.05	1014.27	1.09
298.15	0.0251	0.05	1014.84	1.08
298.15	0.0502	0.05	1015.41	1.08
298.15	0.075	0.05	1015.95	1.08
298.15	0.0999	0.05	1016.48	1.08
298.15	0.125	0.05	1017	1.08
298.15	0.1499	0.05	1017.5	1.08
303.15	0	0.05	1012.62	1.09
303.15	0.0251	0.05	1013.2	1.09
303.15	0.0502	0.05	1013.76	1.09
303.15	0.075	0.05	1014.3	1.09
303.15	0.0999	0.05	1014.84	1.08
303.15	0.125	0.05	1015.36	1.08
303.15	0.1499	0.05	1015.87	1.08
308.15	0	0.05	1010.96	1.09
308.15	0.0251	0.05	1011.54	1.09
308.15	0.0502	0.05	1012.11	1.09
308.15	0.075	0.05	1012.66	1.09
308.15	0.0999	0.05	1013.19	1.09
308.15	0.125	0.05	1013.72	1.09
308.15	0.1499	0.05	1014.23	1.09
313.15	0	0.05	1009.31	1.09
313.15	0.0251	0.05	1009.89	1.09
313.15	0.0502	0.05	1010.47	1.09
313.15	0.075	0.05	1011.02	1.09
313.15	0.0999	0.05	1011.56	1.09
313.15	0.125	0.05	1012.09	1.09
313.15	0.1499	0.05	1012.6	1.09
318.15	0	0.05	1007.66	1.09
318.15	0.0251	0.05	1008.25	1.09
318.15	0.0502	0.05	1008.82	1.09
318.15	0.075	0.05	1009.37	1.09
318.15	0.0999	0.05	1009.91	1.09
318.15	0.125	0.05	1010.45	1.09
318.15	0.1499	0.05	1010.96	1.09

System: D-xylose + L-valine + water; phases: Liquid
Fixed: Pressure, kPa = 101
Fixed: Frequency, MHz = 3
Property: Speed of sound, m/s (Liquid); method: Linear variable-path acoustic interferometer
Temperature, K	Molality, mol/kg of L-valine	Solvent: Mass fraction of D-xylose	Speed of sound, m/s	uncertainty
298.15	0	0.025	1506.9	3.4
298.15	0.0252	0.025	1507.7	3.4
298.15	0.0501	0.025	1509.1	3.4
298.15	0.0749	0.025	1511.1	3.4
298.15	0.0998	0.025	1513.6	3.3
298.15	0.1251	0.025	1516.7	3.3
298.15	0.1502	0.025	1520.2	3.3
303.15	0	0.025	1517	3.4
303.15	0.0252	0.025	1517.7	3.4
303.15	0.0501	0.025	1519	3.4
303.15	0.0749	0.025	1520.9	3.4
303.15	0.0998	0.025	1523.3	3.4
303.15	0.1251	0.025	1526.2	3.4
303.15	0.1502	0.025	1529.7	3.3
308.15	0	0.025	1526.6	3.4
308.15	0.0252	0.025	1527.2	3.4
308.15	0.0501	0.025	1528.4	3.4
308.15	0.0749	0.025	1530.2	3.4
308.15	0.0998	0.025	1532.5	3.4
308.15	0.1251	0.025	1535.3	3.4
308.15	0.1502	0.025	1538.7	3.4
313.15	0	0.025	1536.6	3.4
313.15	0.0252	0.025	1537.2	3.4
313.15	0.0501	0.025	1538.2	3.4
313.15	0.0749	0.025	1539.9	3.4
313.15	0.0998	0.025	1542.2	3.4
313.15	0.1251	0.025	1544.9	3.4
313.15	0.1502	0.025	1548.2	3.4
318.15	0	0.025	1543	3.4
318.15	0.0252	0.025	1543.5	3.4
318.15	0.0501	0.025	1544.5	3.4
318.15	0.0749	0.025	1546.1	3.4
318.15	0.0998	0.025	1548.2	3.4
318.15	0.1251	0.025	1550.8	3.4
318.15	0.1502	0.025	1554.2	3.4
298.15	0	0.05	1516.6	3.4
298.15	0.0251	0.05	1517.4	3.4
298.15	0.0502	0.05	1518.6	3.4
298.15	0.075	0.05	1520.1	3.4
298.15	0.0999	0.05	1522	3.4
298.15	0.125	0.05	1524.3	3.3
298.15	0.1499	0.05	1526.8	3.3
303.15	0	0.05	1526.9	3.4
303.15	0.0251	0.05	1527.6	3.4
303.15	0.0502	0.05	1528.7	3.4
303.15	0.075	0.05	1530.1	3.4
303.15	0.0999	0.05	1532	3.4
303.15	0.125	0.05	1534.2	3.4
303.15	0.1499	0.05	1536.5	3.3
308.15	0	0.05	1536.7	3.4
308.15	0.0251	0.05	1537.3	3.4
308.15	0.0502	0.05	1538.3	3.4
308.15	0.075	0.05	1539.6	3.4
308.15	0.0999	0.05	1541.3	3.4
308.15	0.125	0.05	1543.5	3.4
308.15	0.1499	0.05	1545.7	3.4
313.15	0	0.05	1545.6	3.4
313.15	0.0251	0.05	1546.1	3.4
313.15	0.0502	0.05	1547	3.4
313.15	0.075	0.05	1548.3	3.4
313.15	0.0999	0.05	1549.9	3.4
313.15	0.125	0.05	1551.9	3.4
313.15	0.1499	0.05	1554.2	3.4
318.15	0	0.05	1551.8	3.4
318.15	0.0251	0.05	1552.2	3.4
318.15	0.0502	0.05	1553	3.4
318.15	0.075	0.05	1554.2	3.4
318.15	0.0999	0.05	1555.8	3.4
318.15	0.125	0.05	1557.7	3.4
318.15	0.1499	0.05	1559.9	3.4

System: D-xylose + L-valine + water; phases: Liquid
Fixed: Pressure, kPa = 101
Property: Viscosity, Pa*s (Liquid); method: Capillary tube (Ostwald; Ubbelohde) method
Temperature, K	Molality, mol/kg of L-valine	Solvent: Mass fraction of D-xylose	Viscosity, Pa*s	uncertainty
298.15	0	0.025	0.0009096	2.08e-05
298.15	0.0252	0.025	0.000921	2.11e-05
298.15	0.0501	0.025	0.0009311	2.13e-05
298.15	0.0749	0.025	0.0009414	2.16e-05
298.15	0.0998	0.025	0.0009513	2.18e-05
298.15	0.1251	0.025	0.0009613	2.2e-05
298.15	0.1502	0.025	0.0009712	2.23e-05
303.15	0	0.025	0.0008077	1.85e-05
303.15	0.0252	0.025	0.0008189	1.88e-05
303.15	0.0501	0.025	0.0008293	1.9e-05
303.15	0.0749	0.025	0.0008392	1.92e-05
303.15	0.0998	0.025	0.0008488	1.94e-05
303.15	0.1251	0.025	0.0008587	1.97e-05
303.15	0.1502	0.025	0.0008685	1.99e-05
308.15	0	0.025	0.0007269	1.66e-05
308.15	0.0252	0.025	0.0007378	1.69e-05
308.15	0.0501	0.025	0.0007481	1.71e-05
308.15	0.0749	0.025	0.0007582	1.74e-05
308.15	0.0998	0.025	0.0007679	1.76e-05
308.15	0.1251	0.025	0.0007776	1.78e-05
308.15	0.1502	0.025	0.0007871	1.8e-05
313.15	0	0.025	0.0006571	1.5e-05
313.15	0.0252	0.025	0.0006676	1.53e-05
313.15	0.0501	0.025	0.0006778	1.55e-05
313.15	0.0749	0.025	0.0006876	1.57e-05
313.15	0.0998	0.025	0.0006971	1.6e-05
313.15	0.1251	0.025	0.0007068	1.62e-05
313.15	0.1502	0.025	0.0007163	1.64e-05
318.15	0	0.025	0.0005992	1.37e-05
318.15	0.0252	0.025	0.0006092	1.4e-05
318.15	0.0501	0.025	0.000619	1.42e-05
318.15	0.0749	0.025	0.0006287	1.44e-05
318.15	0.0998	0.025	0.000638	1.46e-05
318.15	0.1251	0.025	0.0006476	1.49e-05
318.15	0.1502	0.025	0.0006568	1.51e-05
298.15	0	0.05	0.000964	2.2e-05
298.15	0.0251	0.05	0.0009774	2.24e-05
298.15	0.0502	0.05	0.0009894	2.26e-05
298.15	0.075	0.05	0.0010014	2.29e-05
298.15	0.0999	0.05	0.0010134	2.32e-05
298.15	0.125	0.05	0.0010255	2.35e-05
298.15	0.1499	0.05	0.0010371	2.37e-05
303.15	0	0.05	0.0008547	1.96e-05
303.15	0.0251	0.05	0.0008676	1.99e-05
303.15	0.0502	0.05	0.0008791	2.01e-05
303.15	0.075	0.05	0.0008905	2.04e-05
303.15	0.0999	0.05	0.0009023	2.07e-05
303.15	0.125	0.05	0.0009138	2.09e-05
303.15	0.1499	0.05	0.0009248	2.12e-05
308.15	0	0.05	0.0007637	1.75e-05
308.15	0.0251	0.05	0.0007761	1.78e-05
308.15	0.0502	0.05	0.0007875	1.8e-05
308.15	0.075	0.05	0.0007988	1.83e-05
308.15	0.0999	0.05	0.00081	1.86e-05
308.15	0.125	0.05	0.0008212	1.88e-05
308.15	0.1499	0.05	0.000832	1.91e-05
313.15	0	0.05	0.0006869	1.57e-05
313.15	0.0251	0.05	0.0006987	1.6e-05
313.15	0.0502	0.05	0.0007099	1.63e-05
313.15	0.075	0.05	0.0007208	1.65e-05
313.15	0.0999	0.05	0.0007316	1.68e-05
313.15	0.125	0.05	0.0007428	1.7e-05
313.15	0.1499	0.05	0.0007537	1.73e-05
318.15	0	0.05	0.0006253	1.43e-05
318.15	0.0251	0.05	0.0006365	1.46e-05
318.15	0.0502	0.05	0.0006475	1.48e-05
318.15	0.075	0.05	0.0006582	1.51e-05
318.15	0.0999	0.05	0.0006689	1.53e-05
318.15	0.125	0.05	0.0006796	1.56e-05
318.15	0.1499	0.05	0.00069	1.58e-05

System: D-xylose + 2-amino-3-methylpentanoic acid + water; phases: Liquid
Fixed: Pressure, kPa = 101
Property: Mass density, kg/m3 (Liquid); method: Pycnometric method
Temperature, K	Molality, mol/kg of 2-amino-3-methylpentanoic acid	Solvent: Mass fraction of D-xylose	Mass density, kg/m3	uncertainty
293.15	0	0.025	1007.24	1.08
293.15	0.0251	0.025	1007.83	1.08
293.15	0.0501	0.025	1008.4	1.08
293.15	0.0752	0.025	1008.96	1.08
293.15	0.0998	0.025	1009.5	1.08
293.15	0.1251	0.025	1010.03	1.08
293.15	0.1498	0.025	1010.54	1.08
298.15	0	0.025	1005.63	1.09
298.15	0.0251	0.025	1006.22	1.09
298.15	0.0501	0.025	1006.8	1.08
298.15	0.0752	0.025	1007.36	1.08
298.15	0.0998	0.025	1007.9	1.08
298.15	0.1251	0.025	1008.44	1.08
298.15	0.1498	0.025	1008.95	1.08
303.15	0	0.025	1004.03	1.09
303.15	0.0251	0.025	1004.62	1.09
303.15	0.0501	0.025	1005.2	1.09
303.15	0.0752	0.025	1005.77	1.09
303.15	0.0998	0.025	1006.31	1.09
303.15	0.1251	0.025	1006.85	1.09
303.15	0.1498	0.025	1007.37	1.08
308.15	0	0.025	1002.43	1.09
308.15	0.0251	0.025	1003.03	1.09
308.15	0.0501	0.025	1003.61	1.09
308.15	0.0752	0.025	1004.18	1.09
308.15	0.0998	0.025	1004.72	1.09
308.15	0.1251	0.025	1005.27	1.09
308.15	0.1498	0.025	1005.79	1.09
313.15	0	0.025	1000.84	1.09
313.15	0.0251	0.025	1001.44	1.09
313.15	0.0501	0.025	1002.02	1.09
313.15	0.0752	0.025	1002.59	1.09
313.15	0.0998	0.025	1003.14	1.09
313.15	0.1251	0.025	1003.69	1.09
313.15	0.1498	0.025	1004.21	1.09
318.15	0	0.025	999.23	1.09
318.15	0.0251	0.025	999.83	1.09
318.15	0.0501	0.025	1000.42	1.09
318.15	0.0752	0.025	1000.99	1.09
318.15	0.0998	0.025	1001.54	1.09
318.15	0.1251	0.025	1002.09	1.09
318.15	0.1498	0.025	1002.61	1.09
293.15	0	0.05	1015.93	1.09
293.15	0.025	0.05	1016.47	1.08
293.15	0.0499	0.05	1016.99	1.08
293.15	0.0751	0.05	1017.51	1.08
293.15	0.0999	0.05	1018	1.08
293.15	0.1252	0.05	1018.49	1.08
293.15	0.1499	0.05	1018.95	1.08
298.15	0	0.05	1014.27	1.09
298.15	0.025	0.05	1014.81	1.09
298.15	0.0499	0.05	1015.34	1.09
298.15	0.0751	0.05	1015.85	1.08
298.15	0.0999	0.05	1016.35	1.08
298.15	0.1252	0.05	1016.84	1.08
298.15	0.1499	0.05	1017.31	1.08
303.15	0	0.05	1012.62	1.09
303.15	0.025	0.05	1013.16	1.09
303.15	0.0499	0.05	1013.69	1.09
303.15	0.0751	0.05	1014.21	1.09
303.15	0.0999	0.05	1014.71	1.09
303.15	0.1252	0.05	1015.21	1.09
303.15	0.1499	0.05	1015.68	1.09
308.15	0	0.05	1010.96	1.09
308.15	0.025	0.05	1011.51	1.09
308.15	0.0499	0.05	1012.04	1.09
308.15	0.0751	0.05	1012.56	1.09
308.15	0.0999	0.05	1013.07	1.09
308.15	0.1252	0.05	1013.57	1.09
308.15	0.1499	0.05	1014.04	1.09
313.15	0	0.05	1009.31	1.09
313.15	0.025	0.05	1009.86	1.09
313.15	0.0499	0.05	1010.4	1.09
313.15	0.0751	0.05	1010.92	1.09
313.15	0.0999	0.05	1011.43	1.09
313.15	0.1252	0.05	1011.93	1.09
313.15	0.1499	0.05	1012.41	1.09
318.15	0	0.05	1007.66	1.09
318.15	0.025	0.05	1008.21	1.09
318.15	0.0499	0.05	1008.75	1.09
318.15	0.0751	0.05	1009.28	1.09
318.15	0.0999	0.05	1009.79	1.09
318.15	0.1252	0.05	1010.3	1.09
318.15	0.1499	0.05	1010.77	1.09

System: D-xylose + 2-amino-3-methylpentanoic acid + water; phases: Liquid
Fixed: Pressure, kPa = 101
Fixed: Frequency, MHz = 3
Property: Speed of sound, m/s (Liquid); method: Linear variable-path acoustic interferometer
Temperature, K	Molality, mol/kg of 2-amino-3-methylpentanoic acid	Solvent: Mass fraction of D-xylose	Speed of sound, m/s	uncertainty
298.15	0	0.025	1506.9	3.4
298.15	0.0251	0.025	1507.4	3.4
298.15	0.0501	0.025	1508.6	3.4
298.15	0.0752	0.025	1510.3	3.4
298.15	0.0998	0.025	1512.6	3.4
298.15	0.1251	0.025	1515.5	3.4
298.15	0.1498	0.025	1518.8	3.3
303.15	0	0.025	1517	3.4
303.15	0.0251	0.025	1517.4	3.4
303.15	0.0501	0.025	1518.5	3.4
303.15	0.0752	0.025	1520.2	3.4
303.15	0.0998	0.025	1522.5	3.4
303.15	0.1251	0.025	1525.3	3.4
303.15	0.1498	0.025	1528.6	3.4
308.15	0	0.025	1526.6	3.4
308.15	0.0251	0.025	1526.9	3.4
308.15	0.0501	0.025	1527.9	3.4
308.15	0.0752	0.025	1529.5	3.4
308.15	0.0998	0.025	1531.7	3.4
308.15	0.1251	0.025	1534.5	3.4
308.15	0.1498	0.025	1537.8	3.4
313.15	0	0.025	1536.6	3.4
313.15	0.0251	0.025	1536.8	3.4
313.15	0.0501	0.025	1537.7	3.4
313.15	0.0752	0.025	1539.3	3.4
313.15	0.0998	0.025	1541.5	3.4
313.15	0.1251	0.025	1544.2	3.4
313.15	0.1498	0.025	1547.5	3.4
318.15	0	0.025	1543	3.4
318.15	0.0251	0.025	1543.1	3.4
318.15	0.0501	0.025	1544	3.4
318.15	0.0752	0.025	1545.5	3.4
318.15	0.0998	0.025	1547.6	3.4
318.15	0.1251	0.025	1550.3	3.4
318.15	0.1498	0.025	1553.4	3.4
298.15	0	0.05	1516.6	3.4
298.15	0.025	0.05	1517.1	3.4
298.15	0.0499	0.05	1517.9	3.4
298.15	0.0751	0.05	1519.1	3.4
298.15	0.0999	0.05	1520.7	3.4
298.15	0.1252	0.05	1522.8	3.4
298.15	0.1499	0.05	1525.1	3.4
303.15	0	0.05	1526.9	3.4
303.15	0.025	0.05	1527.3	3.4
303.15	0.0499	0.05	1528	3.4
303.15	0.0751	0.05	1529.2	3.4
303.15	0.0999	0.05	1530.7	3.4
303.15	0.1252	0.05	1532.6	3.4
303.15	0.1499	0.05	1535	3.4
308.15	0	0.05	1536.7	3.4
308.15	0.025	0.05	1537	3.4
308.15	0.0499	0.05	1537.6	3.4
308.15	0.0751	0.05	1538.7	3.4
308.15	0.0999	0.05	1540.1	3.4
308.15	0.1252	0.05	1542	3.4
308.15	0.1499	0.05	1544.3	3.4
313.15	0	0.05	1545.6	3.4
313.15	0.025	0.05	1545.8	3.4
313.15	0.0499	0.05	1546.4	3.4
313.15	0.0751	0.05	1547.4	3.4
313.15	0.0999	0.05	1548.7	3.4
313.15	0.1252	0.05	1550.5	3.4
313.15	0.1499	0.05	1552.7	3.4
318.15	0	0.05	1551.8	3.4
318.15	0.025	0.05	1551.9	3.4
318.15	0.0499	0.05	1552.4	3.4
318.15	0.0751	0.05	1553.3	3.4
318.15	0.0999	0.05	1554.6	3.4
318.15	0.1252	0.05	1556.4	3.4
318.15	0.1499	0.05	1558.6	3.4

System: D-xylose + 2-amino-3-methylpentanoic acid + water; phases: Liquid
Fixed: Pressure, kPa = 101
Property: Viscosity, Pa*s (Liquid); method: Capillary tube (Ostwald; Ubbelohde) method
Temperature, K	Molality, mol/kg of 2-amino-3-methylpentanoic acid	Solvent: Mass fraction of D-xylose	Viscosity, Pa*s	uncertainty
298.15	0	0.025	0.0009096	2.08e-05
298.15	0.0251	0.025	0.0009219	2.11e-05
298.15	0.0501	0.025	0.0009332	2.14e-05
298.15	0.0752	0.025	0.0009443	2.16e-05
298.15	0.0998	0.025	0.000955	2.19e-05
298.15	0.1251	0.025	0.0009668	2.22e-05
298.15	0.1498	0.025	0.0009785	2.24e-05
303.15	0	0.025	0.0008077	1.85e-05
303.15	0.0251	0.025	0.0008196	1.88e-05
303.15	0.0501	0.025	0.0008305	1.9e-05
303.15	0.0752	0.025	0.0008412	1.93e-05
303.15	0.0998	0.025	0.0008521	1.95e-05
303.15	0.1251	0.025	0.0008635	1.98e-05
303.15	0.1498	0.025	0.000875	2e-05
308.15	0	0.025	0.0007269	1.67e-05
308.15	0.0251	0.025	0.0007383	1.69e-05
308.15	0.0501	0.025	0.000749	1.72e-05
308.15	0.0752	0.025	0.0007598	1.74e-05
308.15	0.0998	0.025	0.0007708	1.77e-05
308.15	0.1251	0.025	0.0007818	1.79e-05
308.15	0.1498	0.025	0.0007927	1.82e-05
313.15	0	0.025	0.0006571	1.51e-05
313.15	0.0251	0.025	0.000668	1.53e-05
313.15	0.0501	0.025	0.0006787	1.56e-05
313.15	0.0752	0.025	0.0006893	1.58e-05
313.15	0.0998	0.025	0.0007	1.6e-05
313.15	0.1251	0.025	0.0007111	1.63e-05
313.15	0.1498	0.025	0.0007217	1.65e-05
318.15	0	0.025	0.0005992	1.38e-05
318.15	0.0251	0.025	0.0006096	1.4e-05
318.15	0.0501	0.025	0.0006201	1.42e-05
318.15	0.0752	0.025	0.0006306	1.45e-05
318.15	0.0998	0.025	0.000641	1.47e-05
318.15	0.1251	0.025	0.0006518	1.5e-05
318.15	0.1498	0.025	0.0006623	1.52e-05
298.15	0	0.05	0.000964	2.21e-05
298.15	0.025	0.05	0.000978	2.24e-05
298.15	0.0499	0.05	0.0009908	2.27e-05
298.15	0.0751	0.05	0.001004	2.3e-05
298.15	0.0999	0.05	0.001017	2.33e-05
298.15	0.1252	0.05	0.0010305	2.36e-05
298.15	0.1499	0.05	0.0010439	2.39e-05
303.15	0	0.05	0.0008547	1.96e-05
303.15	0.025	0.05	0.000868	1.99e-05
303.15	0.0499	0.05	0.0008802	2.02e-05
303.15	0.0751	0.05	0.000893	2.05e-05
303.15	0.0999	0.05	0.0009059	2.08e-05
303.15	0.1252	0.05	0.0009185	2.11e-05
303.15	0.1499	0.05	0.0009314	2.14e-05
308.15	0	0.05	0.0007637	1.75e-05
308.15	0.025	0.05	0.0007764	1.78e-05
308.15	0.0499	0.05	0.0007882	1.81e-05
308.15	0.0751	0.05	0.0008006	1.84e-05
308.15	0.0999	0.05	0.000813	1.86e-05
308.15	0.1252	0.05	0.0008254	1.89e-05
308.15	0.1499	0.05	0.0008377	1.92e-05
313.15	0	0.05	0.0006869	1.58e-05
313.15	0.025	0.05	0.000699	1.6e-05
313.15	0.0499	0.05	0.0007105	1.63e-05
313.15	0.0751	0.05	0.0007225	1.66e-05
313.15	0.0999	0.05	0.0007346	1.68e-05
313.15	0.1252	0.05	0.0007468	1.71e-05
313.15	0.1499	0.05	0.0007594	1.74e-05
318.15	0	0.05	0.0006253	1.43e-05
318.15	0.025	0.05	0.0006368	1.46e-05
318.15	0.0499	0.05	0.0006481	1.49e-05
318.15	0.0751	0.05	0.0006599	1.51e-05
318.15	0.0999	0.05	0.0006715	1.54e-05
318.15	0.1252	0.05	0.0006833	1.57e-05
318.15	0.1499	0.05	0.0006953	1.59e-05
