Measured thermophysical data. Solubility and thermodynamic properties of dirithromycin form A and form B in pure solvents and binary solvent mixture
Source: J. Chem. Thermodyn., 2019, 10.1016/j.jct.2018.12.044
Compound 1: Dirithromycin, C42H78N2O14, InChI=1S/C42H78N2O14/c1-15-29-42(10,49)37-24(4)32(43-30(56-37)21-52-17-16-50-13)22(2)19-40(8,48)36(58-39-33(45)28(44(11)12)18-23(3)53-39)25(5)34(26(6)38(47)55-29)57-31-20-41(9,51-14)35(46)27(7)54-31/h22-37,39,43,45-46,48-49H,15-21H2,1-14H3/t22-,23-,24+,25+,26-,27+,28+,29-,30-,31+,32+,33-,34+,35+,36-,37-,39+,40-,41-,42-/m1/s1, purity 99.5%
Compound 2: water, H2O, InChI=1S/H2O/h1H2
Compound 3: ethanol, C2H6O, InChI=1S/C2H6O/c1-2-3/h3H,2H2,1H3, purity 99.5%
Compound 4: acetonitrile, C2H3N, InChI=1S/C2H3N/c1-2-3/h1H3, purity 99.5%
Compound 5: acetone, C3H6O, InChI=1S/C3H6O/c1-3(2)4/h1-2H3, purity 99.5%
Compound 6: ethyl acetate, C4H8O2, InChI=1S/C4H8O2/c1-3-6-4(2)5/h3H2,1-2H3, purity 99.5%

System: Dirithromycin; phases: Crystal, Liquid, Air at 1 atmosphere
Property: Normal melting temperature, K (Crystal); method: DTA
Normal melting temperature, K	uncertainty
467.51	6.01

System: Dirithromycin + ethanol; phases: Liquid, Crystal
Fixed: Pressure, kPa = 100
Property: Mole fraction of Dirithromycin (Liquid); method: gravimetric method
Temperature, K	Mole fraction of Dirithromycin	uncertainty
273.15	0.00754	0.00151
278.15	0.00949	0.0019
283.15	0.012	0.0024
288.15	0.0136	0.0027
293.15	0.0173	0.0035
298.15	0.022	0.0044
303.15	0.0256	0.0051
308.15	0.0322	0.0064
313.15	0.0414	0.0083

System: Dirithromycin + ethanol; phases: Liquid, Crystal of unknown type
Fixed: Pressure, kPa = 100
Property: Mole fraction of Dirithromycin (Liquid); method: gravimetric method
Temperature, K	Mole fraction of Dirithromycin	uncertainty
273.15	0.01	0.002
278.15	0.0113	0.0023
283.15	0.0129	0.0026
288.15	0.0144	0.0029
293.15	0.0165	0.0033
298.15	0.0194	0.0039
303.15	0.0238	0.0048
308.15	0.0291	0.0058
313.15	0.036	0.0072

System: Dirithromycin + acetonitrile; phases: Liquid, Crystal
Fixed: Pressure, kPa = 100
Property: Mole fraction of Dirithromycin (Liquid); method: gravimetric method
Temperature, K	Mole fraction of Dirithromycin	uncertainty
273.15	0.000221	4.4e-05
278.15	0.000243	4.9e-05
283.15	0.000407	8.1e-05
288.15	0.000462	9.2e-05
293.15	0.000585	0.000117
298.15	0.000704	0.000141
303.15	0.00101	0.0002
308.15	0.00141	0.00028
313.15	0.00183	0.00037

System: Dirithromycin + acetonitrile; phases: Liquid, Crystal of unknown type
Fixed: Pressure, kPa = 100
Property: Mole fraction of Dirithromycin (Liquid); method: gravimetric method
Temperature, K	Mole fraction of Dirithromycin	uncertainty
273.15	0.000217	4.3e-05
278.15	0.000265	5.3e-05
283.15	0.000298	6e-05
288.15	0.000346	6.9e-05
293.15	0.00048	9.6e-05
298.15	0.000666	0.000133
303.15	0.000945	0.000189
308.15	0.00138	0.00028
313.15	0.00182	0.00036

System: Dirithromycin + acetone; phases: Liquid, Crystal
Fixed: Pressure, kPa = 100
Property: Mole fraction of Dirithromycin (Liquid); method: gravimetric method
Temperature, K	Mole fraction of Dirithromycin	uncertainty
273.15	0.00141	0.00028
278.15	0.00171	0.00034
283.15	0.002	0.0004
288.15	0.00242	0.00048
293.15	0.00298	0.0006
298.15	0.00348	0.0007
303.15	0.00453	0.00091
308.15	0.00554	0.00111
313.15	0.00664	0.00133

System: Dirithromycin + acetone; phases: Liquid, Crystal of unknown type
Fixed: Pressure, kPa = 100
Property: Mole fraction of Dirithromycin (Liquid); method: gravimetric method
Temperature, K	Mole fraction of Dirithromycin	uncertainty
273.15	0.00176	0.00035
278.15	0.00181	0.00036
283.15	0.00203	0.00041
288.15	0.00222	0.00044
293.15	0.00287	0.00057
298.15	0.00379	0.00076
303.15	0.00499	0.001
308.15	0.00574	0.00115
313.15	0.0066	0.00132

System: Dirithromycin + ethyl acetate; phases: Liquid, Crystal
Fixed: Pressure, kPa = 100
Property: Mole fraction of Dirithromycin (Liquid); method: gravimetric method
Temperature, K	Mole fraction of Dirithromycin	uncertainty
273.15	0.011	0.0022
278.15	0.0113	0.0023
283.15	0.0127	0.0025
288.15	0.0144	0.0029
293.15	0.0159	0.0032
298.15	0.0177	0.0035
303.15	0.0202	0.004
308.15	0.0223	0.0045
313.15	0.0258	0.0052

System: Dirithromycin + ethyl acetate; phases: Liquid, Crystal of unknown type
Fixed: Pressure, kPa = 100
Property: Mole fraction of Dirithromycin (Liquid); method: gravimetric method
Temperature, K	Mole fraction of Dirithromycin	uncertainty
273.15	0.0147	0.0029
278.15	0.0152	0.003
283.15	0.0165	0.0033
288.15	0.0177	0.0035
293.15	0.0188	0.0038
298.15	0.0203	0.0041
303.15	0.0221	0.0044
308.15	0.0242	0.0048
313.15	0.0277	0.0055

System: Dirithromycin + acetonitrile + water; phases: Liquid, Crystal
Fixed: Pressure, kPa = 100
Property: Mole fraction of Dirithromycin (Liquid); method: gravimetric method
Temperature, K	Solvent: Mole fraction of acetonitrile	Mole fraction of Dirithromycin	uncertainty
273.15	0.2	0.000489	9.8e-05
273.15	0.4	0.0015	0.0003
273.15	0.5	0.00159	0.00032
273.15	0.6	0.00177	0.00035
273.15	0.8	0.00118	0.00024
278.15	0.2	0.000494	9.9e-05
278.15	0.4	0.00153	0.00031
278.15	0.5	0.00169	0.00034
278.15	0.6	0.00188	0.00038
278.15	0.8	0.00131	0.00026
283.15	0.2	0.00056	0.000112
283.15	0.4	0.0017	0.00034
283.15	0.5	0.0019	0.00038
283.15	0.6	0.00212	0.00042
283.15	0.8	0.00158	0.00032
288.15	0.2	0.000639	0.000128
288.15	0.4	0.00216	0.00043
288.15	0.5	0.00234	0.00047
288.15	0.6	0.00272	0.00054
288.15	0.8	0.00205	0.00041
293.15	0.2	0.00069	0.000138
293.15	0.4	0.00231	0.00046
293.15	0.5	0.00285	0.00057
293.15	0.6	0.00325	0.00065
293.15	0.8	0.00254	0.00051
298.15	0.2	0.000757	0.000151
298.15	0.4	0.00287	0.00057
298.15	0.5	0.00331	0.00066
298.15	0.6	0.00441	0.00088
298.15	0.8	0.00329	0.00066
303.15	0.2	0.000803	0.000161
303.15	0.4	0.00359	0.00072
303.15	0.5	0.00448	0.0009
303.15	0.6	0.00571	0.00114
303.15	0.8	0.00454	0.00091
308.15	0.2	0.000906	0.000181
308.15	0.4	0.00462	0.00092
308.15	0.5	0.00607	0.00121
308.15	0.6	0.00734	0.00147
308.15	0.8	0.00597	0.00119
313.15	0.2	0.00102	0.0002
313.15	0.4	0.00637	0.00127
313.15	0.5	0.00774	0.00155
313.15	0.6	0.00954	0.00191
313.15	0.8	0.00828	0.00166
273.15	1	0.000221	4.4e-05
278.15	1	0.000243	4.9e-05
283.15	1	0.000407	8.1e-05
288.15	1	0.000462	9.2e-05
293.15	1	0.000585	0.000117
298.15	1	0.000704	0.000141
303.15	1	0.00101	0.0002
308.15	1	0.00141	0.00028
313.15	1	0.00183	0.00037

System: Dirithromycin + acetonitrile + water; phases: Liquid, Metastable crystal
Fixed: Pressure, kPa = 100
Property: Mole fraction of Dirithromycin (Liquid); method: gravimetric method
Temperature, K	Solvent: Mole fraction of acetonitrile	Mole fraction of Dirithromycin	uncertainty
273.15	0.2	0.000475	9.5e-05
273.15	0.4	0.00153	0.00031
273.15	0.5	0.00154	0.00031
273.15	0.6	0.00155	0.00031
273.15	0.8	0.0014	0.00028
278.15	0.2	0.000487	9.7e-05
278.15	0.4	0.00161	0.00032
278.15	0.5	0.00165	0.00033
278.15	0.6	0.00175	0.00035
278.15	0.8	0.00166	0.00033
283.15	0.2	0.000498	0.0001
283.15	0.4	0.00171	0.00034
283.15	0.5	0.00189	0.00038
283.15	0.6	0.00202	0.0004
283.15	0.8	0.00184	0.00037
288.15	0.2	0.000511	0.000102
288.15	0.4	0.00198	0.0004
288.15	0.5	0.00213	0.00043
288.15	0.6	0.00231	0.00046
288.15	0.8	0.00212	0.00042
293.15	0.2	0.000534	0.000107
293.15	0.4	0.00222	0.00044
293.15	0.5	0.00253	0.00051
293.15	0.6	0.00283	0.00057
293.15	0.8	0.00266	0.00053
298.15	0.2	0.000638	0.000128
298.15	0.4	0.00278	0.00056
298.15	0.5	0.00322	0.00064
298.15	0.6	0.00388	0.00078
298.15	0.8	0.00353	0.00071
303.15	0.2	0.000706	0.000141
303.15	0.4	0.00353	0.00071
303.15	0.5	0.0044	0.00088
303.15	0.6	0.00498	0.001
303.15	0.8	0.00482	0.00096
308.15	0.2	0.000783	0.000157
308.15	0.4	0.00512	0.00102
308.15	0.5	0.00563	0.00113
308.15	0.6	0.00627	0.00125
308.15	0.8	0.00657	0.00131
313.15	0.2	0.000831	0.000166
313.15	0.4	0.00664	0.00133
313.15	0.5	0.00748	0.0015
313.15	0.6	0.00863	0.00173
313.15	0.8	0.0088	0.00176
273.15	1	0.000217	4.3e-05
278.15	1	0.000265	5.3e-05
283.15	1	0.000298	6e-05
288.15	1	0.000346	6.9e-05
293.15	1	0.00048	9.6e-05
298.15	1	0.000666	0.000133
303.15	1	0.000945	0.000189
308.15	1	0.00138	0.00028
313.15	1	0.00182	0.00036
