Measured thermophysical data. Influence of aliphatic amides on the temperature of maximum density of water
Source: J. Chem. Thermodyn., 2017, 10.1016/j.jct.2016.10.024
Compound 1: ethanamide, C2H5NO, InChI=1S/C2H5NO/c1-2(3)4/h1H3,(H2,3,4), purity 99%
Compound 2: propanamide, C3H7NO, InChI=1S/C3H7NO/c1-2-3(4)5/h2H2,1H3,(H2,4,5), purity 97%
Compound 3: butanamide, C4H9NO, InChI=1S/C4H9NO/c1-2-3-4(5)6/h2-3H2,1H3,(H2,5,6), purity 98%
Compound 4: water, H2O, InChI=1S/H2O/h1H2

System: ethanamide + water; phases: Liquid
Fixed: Pressure, kPa = 75
Property: Mass density, kg/m3 (Liquid); method: Buoyancy - hydrostatic balance with magnetic suspension - one sinker
Temperature, K	Molality, mol/kg of ethanamide	Mass density, kg/m3	uncertainty
275.66	0.10204	1000.473	0.322
275.66	0.20149	1000.955	0.322
275.66	0.29955	1001.416	0.322
275.66	0.40324	1001.902	0.322
275.66	0.4848	1002.29	0.322
275.66	0.59446	1002.811	0.322
275.66	0.68746	1003.243	0.323
275.66	0.77474	1003.644	0.323
276.14	0.09682	1000.432	0.322
276.14	0.20226	1000.928	0.322
276.14	0.30493	1001.423	0.322
276.14	0.4077	1001.906	0.322
276.14	0.50034	1002.345	0.322
276.14	0.60157	1002.823	0.322
276.14	0.70375	1003.303	0.323
276.14	0.80921	1003.786	0.323
276.61	0.10159	1000.37	0.322
276.61	0.19717	1000.905	0.322
276.61	0.29904	1001.387	0.322
276.61	0.4078	1001.903	0.322
276.61	0.49566	1002.321	0.322
276.61	0.60479	1002.826	0.322
276.61	0.68585	1003.208	0.323
276.61	0.80917	1003.782	0.323
277.15	0.09682	1000.432	0.322
277.15	0.20226	1000.928	0.322
277.15	0.30493	1001.409	0.322
277.15	0.4077	1001.884	0.322
277.15	0.50034	1002.32	0.322
277.15	0.60157	1002.796	0.322
277.15	0.70375	1003.278	0.323
277.15	0.80921	1003.774	0.323
277.61	0.10159	1000.447	0.322
277.61	0.19717	1000.907	0.322
277.61	0.29904	1001.383	0.322
277.61	0.4078	1001.888	0.322
277.61	0.49566	1002.289	0.322
277.61	0.60479	1002.793	0.322
277.61	0.68585	1003.163	0.323
277.61	0.80917	1003.734	0.323
278.12	0.10159	1000.435	0.322
278.12	0.19717	1000.881	0.322
278.12	0.29904	1001.353	0.322
278.12	0.4078	1001.854	0.322
278.12	0.49566	1002.266	0.322
278.12	0.60479	1002.771	0.322
278.12	0.68585	1003.147	0.323
278.12	0.80917	1003.73	0.323
278.68	0.10204	1000.431	0.322
278.68	0.20149	1000.9	0.322
278.68	0.29955	1001.357	0.322
278.68	0.40324	1001.828	0.322
278.68	0.4848	1002.206	0.322
278.68	0.59446	1002.695	0.322
278.68	0.68746	1003.117	0.323
278.68	0.77474	1003.511	0.323

System: propanamide + water; phases: Liquid
Fixed: Pressure, kPa = 75
Property: Mass density, kg/m3 (Liquid); method: Buoyancy - hydrostatic balance with magnetic suspension - one sinker
Temperature, K	Molality, mol/kg of propanamide	Mass density, kg/m3	uncertainty
275.66	0.09705	1000.26	0.322
275.66	0.17997	1000.532	0.323
275.66	0.2822	1000.886	0.323
275.66	0.38692	1001.241	0.324
275.66	0.49393	1001.62	0.325
275.66	0.5946	1001.999	0.326
275.66	0.70202	1002.397	0.327
275.66	0.80019	1002.767	0.327
276.14	0.1006	1000.286	0.322
276.14	0.19567	1000.596	0.323
276.14	0.29365	1000.93	0.323
276.14	0.39333	1001.261	0.324
276.14	0.49525	1001.62	0.325
276.14	0.59003	1001.958	0.326
276.14	0.70734	1002.386	0.327
276.14	0.79903	1002.716	0.327
276.61	0.09735	1000.27	0.322
276.61	0.20178	1000.606	0.323
276.61	0.30007	1000.937	0.323
276.61	0.3875	1001.232	0.324
276.61	0.49987	1001.62	0.325
276.61	0.59293	1001.94	0.326
276.61	0.70202	1002.315	0.327
276.61	0.79243	1002.635	0.327
277.15	0.1006	1000.295	0.322
277.15	0.19567	1000.608	0.323
277.15	0.29365	1000.927	0.323
277.15	0.39333	1001.27	0.324
277.15	0.49525	1001.606	0.325
277.15	0.59003	1001.935	0.326
277.15	0.70734	1002.352	0.327
277.15	0.79903	1002.668	0.327
277.61	0.09735	1000.278	0.322
277.61	0.20178	1000.609	0.323
277.61	0.30007	1000.925	0.323
277.61	0.3875	1001.212	0.324
277.61	0.49987	1001.587	0.325
277.61	0.59293	1001.898	0.326
277.61	0.69398	1002.231	0.326
277.61	0.8027	1002.586	0.327
278.12	0.09735	1000.28	0.322
278.12	0.20178	1000.616	0.323
278.12	0.29697	1000.922	0.323
278.12	0.44947	1001.435	0.324
278.12	0.49111	1001.579	0.325
278.12	0.56971	1001.85	0.325
278.12	0.70868	1002.337	0.327
278.12	0.87128	1002.91	0.328
278.68	0.09705	1000.259	0.322
278.68	0.17997	1000.508	0.322
278.68	0.2822	1000.84	0.323
278.68	0.38692	1001.176	0.324
278.68	0.49393	1001.526	0.325
278.68	0.5946	1001.869	0.326
278.68	0.70202	1002.237	0.327
278.68	0.80019	1002.579	0.327

System: butanamide + water; phases: Liquid
Fixed: Pressure, kPa = 75
Property: Mass density, kg/m3 (Liquid); method: Buoyancy - hydrostatic balance with magnetic suspension - one sinker
Temperature, K	Molality, mol/kg of butanamide	Mass density, kg/m3	uncertainty
275.66	0.10034	1000.061	0.322
275.66	0.19715	1000.2	0.322
275.66	0.30101	1000.371	0.323
275.66	0.40135	1000.561	0.323
275.66	0.49546	1000.746	0.324
275.66	0.60127	1000.974	0.324
275.66	0.69504	1001.198	0.325
275.66	0.80118	1001.461	0.326
276.14	0.10211	1000.06	0.322
276.14	0.19606	1000.202	0.322
276.14	0.29673	1000.37	0.323
276.14	0.49546	1000.747	0.324
276.14	0.60127	1000.964	0.324
276.14	0.69822	1001.181	0.325
276.14	0.80118	1001.421	0.326
276.14	0.98547	1001.868	0.327
276.61	0.10091	1000.048	0.322
276.61	0.19725	1000.178	0.322
276.61	0.29665	1000.332	0.323
276.61	0.40135	1000.51	0.323
276.61	0.59768	1000.895	0.324
276.61	0.70032	1001.11	0.325
276.61	0.80118	1001.345	0.326
276.61	0.99755	1001.83	0.327
277.15	0.10211	1000.092	0.322
277.15	0.19606	1000.207	0.322
277.15	0.29673	1000.345	0.323
277.15	0.49546	1000.691	0.324
277.15	0.60127	1000.903	0.324
277.15	0.69822	1001.132	0.325
277.15	0.80118	1001.397	0.326
277.15	0.98547	1001.938	0.327
277.61	0.10091	1000.084	0.322
277.61	0.19725	1000.211	0.322
277.61	0.29665	1000.361	0.323
277.61	0.40135	1000.529	0.323
277.61	0.59768	1000.891	0.324
277.61	0.70032	1001.104	0.325
277.61	0.8024	1001.323	0.326
277.61	0.99755	1001.768	0.327
278.12	0.10765	1000.073	0.322
278.12	0.19715	1000.191	0.322
278.12	0.32827	1000.378	0.323
278.12	0.41911	1000.51	0.323
278.12	0.50745	1000.654	0.324
278.12	0.62329	1000.845	0.324
278.12	0.73795	1001.039	0.325
278.12	0.87608	1001.282	0.326
278.68	0.10034	1000.049	0.322
278.68	0.19715	1000.168	0.322
278.68	0.30101	1000.312	0.323
278.68	0.40135	1000.462	0.323
278.68	0.49546	1000.619	0.324
278.68	0.60127	1000.813	0.324
278.68	0.69504	1001.003	0.325
278.68	0.80118	1001.228	0.326
