Measured thermophysical data. Volumetric properties of dialkyl carbonate + n-alkane mixtures at high pressures: Experimental measurement and Nitta-Chao model prediction
Source: J. Chem. Thermodyn., 2013, 10.1016/j.jct.2012.11.011
Compound 1: dimethyl carbonate, C3H6O3, InChI=1S/C3H6O3/c1-5-3(4)6-2/h1-2H3
Compound 2: diethyl carbonate, C5H10O3, InChI=1S/C5H10O3/c1-3-7-5(6)8-4-2/h3-4H2,1-2H3
Compound 3: octane, C8H18, InChI=1S/C8H18/c1-3-5-7-8-6-4-2/h3-8H2,1-2H3
Compound 4: decane, C10H22, InChI=1S/C10H22/c1-3-5-7-9-10-8-6-4-2/h3-10H2,1-2H3

System: dimethyl carbonate; phases: Liquid
Property: Mass density, kg/m3 (Liquid); method: Vibrating tube method
Temperature, K	Pressure, kPa	Mass density, kg/m3	uncertainty
288.15	100	1076.5	0.4
288.15	5000	1080.6	0.4
288.15	10000	1084.8	0.4
288.15	20000	1092.8	0.4
288.15	30000	1100.3	0.5
288.15	40000	1107.5	0.5
298.15	100	1062.9	0.4
298.15	5000	1068	0.4
298.15	10000	1072.1	0.4
298.15	20000	1080.5	0.4
298.15	30000	1088.5	0.4
298.15	40000	1095.9	0.5
308.15	100	1049.4	0.3
308.15	5000	1054.6	0.4
308.15	10000	1059.4	0.4
308.15	20000	1068.3	0.4
308.15	30000	1076.7	0.4
308.15	40000	1084.5	0.5

System: diethyl carbonate; phases: Liquid
Property: Mass density, kg/m3 (Liquid); method: Vibrating tube method
Temperature, K	Pressure, kPa	Mass density, kg/m3	uncertainty
288.15	100	980.3	0.2
288.15	5000	984.5	0.2
288.15	10000	988.6	0.2
288.15	20000	996.3	0.2
288.15	30000	1003.6	0.2
288.15	40000	1010.5	0.2
298.15	100	968.9	0.3
298.15	5000	973.8	0.3
298.15	10000	977.8	0.2
298.15	20000	986	0.2
298.15	30000	993.6	0.2
298.15	40000	1000.8	0.2
308.15	100	957.7	0.3
308.15	5000	962.4	0.3
308.15	10000	967.1	0.3
308.15	20000	975.7	0.3
308.15	30000	983.8	0.2
308.15	40000	991.3	0.2

System: octane; phases: Liquid
Property: Mass density, kg/m3 (Liquid); method: Vibrating tube method
Temperature, K	Pressure, kPa	Mass density, kg/m3	uncertainty
288.15	100	706.6	0.3
288.15	5000	710.9	0.4
288.15	10000	714.7	0.4
288.15	20000	721.7	0.5
288.15	30000	728.1	0.6
288.15	40000	734.3	0.7
298.15	100	698.6	0.3
298.15	5000	703.4	0.4
298.15	10000	707	0.4
298.15	20000	714.6	0.5
298.15	30000	721.4	0.6
298.15	40000	727.7	0.7
308.15	100	690.5	0.3
308.15	5000	695	0.4
308.15	10000	699.4	0.4
308.15	20000	707.3	0.5
308.15	30000	714.5	0.6
308.15	40000	720.8	0.7

System: decane; phases: Liquid
Property: Mass density, kg/m3 (Liquid); method: Vibrating tube method
Temperature, K	Pressure, kPa	Mass density, kg/m3	uncertainty
288.15	100	733.6	0.3
288.15	5000	737.2	0.3
288.15	10000	740.7	0.4
288.15	20000	747.2	0.5
288.15	30000	753.2	0.5
288.15	40000	758.9	0.6
298.15	100	726	0.3
298.15	5000	730.2	0.3
298.15	10000	733.5	0.4
298.15	20000	740.3	0.5
298.15	30000	746.5	0.5
298.15	40000	752.2	0.6
308.15	100	718.3	0.3
308.15	5000	722.4	0.3
308.15	10000	726.2	0.4
308.15	20000	733.4	0.5
308.15	30000	740	0.5
308.15	40000	745.9	0.6

System: octane + dimethyl carbonate; phases: Liquid
Property: Mass density, kg/m3 (Liquid); method: Vibrating tube method
Temperature, K	Pressure, kPa	Mole fraction of dimethyl carbonate	Mass density, kg/m3	uncertainty
288.15	100	0.0535	716.4	0.3
288.15	100	0.0978	723.8	0.3
288.15	100	0.3935	791.6	0.3
288.15	100	0.496	822.9	0.3
288.15	100	0.5475	840.9	0.3
288.15	100	0.5937	854.9	0.3
288.15	100	0.7002	899.6	0.3
288.15	100	0.8013	941.7	0.3
288.15	100	0.8979	1005	0.3
288.15	100	0.9502	1036.8	0.4
288.15	5000	0.0535	719.8	0.4
288.15	5000	0.0978	727.9	0.3
288.15	5000	0.3935	796.9	0.3
288.15	5000	0.496	827.5	0.3
288.15	5000	0.5475	844.6	0.3
288.15	5000	0.5937	862	0.3
288.15	5000	0.7002	904.6	0.3
288.15	5000	0.8013	952.4	0.3
288.15	5000	0.8979	1009	0.3
288.15	5000	0.9502	1043.2	0.4
288.15	10000	0.0535	723.6	0.4
288.15	10000	0.0978	731.9	0.4
288.15	10000	0.3935	801.1	0.4
288.15	10000	0.496	831.8	0.4
288.15	10000	0.5475	849	0.4
288.15	10000	0.5937	866.2	0.4
288.15	10000	0.7002	908.9	0.4
288.15	10000	0.8013	956.9	0.4
288.15	10000	0.8979	1013.3	0.4
288.15	10000	0.9502	1047.5	0.4
288.15	20000	0.0535	730.9	0.5
288.15	20000	0.0978	739.3	0.5
288.15	20000	0.3935	808.8	0.4
288.15	20000	0.496	839.6	0.4
288.15	20000	0.5475	857	0.4
288.15	20000	0.5937	874.3	0.4
288.15	20000	0.7002	917	0.4
288.15	20000	0.8013	965	0.4
288.15	20000	0.8979	1021.7	0.4
288.15	20000	0.9502	1055.7	0.4
288.15	30000	0.0535	737.5	0.6
288.15	30000	0.0978	745.8	0.5
288.15	30000	0.3935	816	0.5
288.15	30000	0.496	846.9	0.4
288.15	30000	0.5475	864.3	0.4
288.15	30000	0.5937	881.6	0.4
288.15	30000	0.7002	924.4	0.4
288.15	30000	0.8013	972.5	0.4
288.15	30000	0.8979	1029.1	0.4
288.15	30000	0.9502	1063.1	0.4
288.15	40000	0.0535	743.7	0.6
288.15	40000	0.0978	752	0.6
288.15	40000	0.3935	822.8	0.5
288.15	40000	0.496	853.8	0.5
288.15	40000	0.5475	871.2	0.5
288.15	40000	0.5937	888.7	0.4
288.15	40000	0.7002	931.6	0.4
288.15	40000	0.8013	979.7	0.4
288.15	40000	0.8979	1036.3	0.4
288.15	40000	0.9502	1070.4	0.4
298.15	100	0.0535	707.4	0.3
298.15	100	0.0978	715.3	0.3
298.15	100	0.3935	782.6	0.3
298.15	100	0.496	812.6	0.3
298.15	100	0.5475	829.5	0.3
298.15	100	0.5937	846.5	0.3
298.15	100	0.7002	888.6	0.3
298.15	100	0.8013	936	0.3
298.15	100	0.8979	992.1	0.3
298.15	100	0.9502	1025.9	0.4
298.15	5000	0.0535	712.2	0.4
298.15	5000	0.0978	720.2	0.4
298.15	5000	0.3935	787.8	0.3
298.15	5000	0.496	817.9	0.3
298.15	5000	0.5475	834.9	0.3
298.15	5000	0.5937	851.7	0.3
298.15	5000	0.7002	893.9	0.3
298.15	5000	0.8013	941.4	0.3
298.15	5000	0.8979	997.3	0.3
298.15	5000	0.9502	1031.1	0.4
298.15	10000	0.0535	715.9	0.4
298.15	10000	0.0978	724.1	0.4
298.15	10000	0.3935	791.8	0.4
298.15	10000	0.496	822	0.4
298.15	10000	0.5475	839	0.4
298.15	10000	0.5937	856.1	0.4
298.15	10000	0.7002	898.1	0.4
298.15	10000	0.8013	945.6	0.3
298.15	10000	0.8979	1001.5	0.3
298.15	10000	0.9502	1035.3	0.4
298.15	20000	0.0535	723.6	0.5
298.15	20000	0.0978	731.7	0.5
298.15	20000	0.3935	800.1	0.4
298.15	20000	0.496	830.4	0.4
298.15	20000	0.5475	847.5	0.4
298.15	20000	0.5937	864.6	0.4
298.15	20000	0.7002	906.8	0.4
298.15	20000	0.8013	954.2	0.4
298.15	20000	0.8979	1010.1	0.3
298.15	20000	0.9502	1043.7	0.4
298.15	30000	0.0535	730.5	0.6
298.15	30000	0.0978	738.7	0.6
298.15	30000	0.3935	807.7	0.5
298.15	30000	0.496	838.1	0.4
298.15	30000	0.5475	855.3	0.4
298.15	30000	0.5937	872.4	0.4
298.15	30000	0.7002	914.8	0.4
298.15	30000	0.8013	962.1	0.4
298.15	30000	0.8979	1018	0.4
298.15	30000	0.9502	1051.7	0.4
298.15	40000	0.0535	736.8	0.7
298.15	40000	0.0978	745.1	0.6
298.15	40000	0.3935	814.6	0.5
298.15	40000	0.496	845.1	0.5
298.15	40000	0.5475	862.5	0.5
298.15	40000	0.5937	879.6	0.4
298.15	40000	0.7002	922	0.4
298.15	40000	0.8013	969.7	0.4
298.15	40000	0.8979	1025.6	0.4
298.15	40000	0.9502	1059.1	0.4
308.15	100	0.0535	699.2	0.3
308.15	100	0.0978	706.9	0.3
308.15	100	0.3935	772.9	0.3
308.15	100	0.496	802.3	0.3
308.15	100	0.5475	819	0.3
308.15	100	0.5937	835.7	0.3
308.15	100	0.7002	877.3	0.3
308.15	100	0.8013	924.1	0.3
308.15	100	0.8979	979.6	0.3
308.15	100	0.9502	1013.1	0.4
308.15	5000	0.0535	704	0.4
308.15	5000	0.0978	711.8	0.4
308.15	5000	0.3935	778.1	0.3
308.15	5000	0.496	807.6	0.3
308.15	5000	0.5475	824.2	0.3
308.15	5000	0.5937	841	0.3
308.15	5000	0.7002	882.6	0.3
308.15	5000	0.8013	929.2	0.3
308.15	5000	0.8979	984.6	0.3
308.15	5000	0.9502	1018.1	0.4
308.15	10000	0.0535	708.3	0.4
308.15	10000	0.0978	716.2	0.4
308.15	10000	0.3935	782.8	0.4
308.15	10000	0.496	812.4	0.4
308.15	10000	0.5475	829.1	0.4
308.15	10000	0.5937	845.9	0.4
308.15	10000	0.7002	887.5	0.3
308.15	10000	0.8013	934.4	0.3
308.15	10000	0.8979	989.6	0.3
308.15	10000	0.9502	1023.1	0.4
308.15	20000	0.0535	716.3	0.5
308.15	20000	0.0978	724.3	0.5
308.15	20000	0.3935	791.5	0.4
308.15	20000	0.496	821.3	0.4
308.15	20000	0.5475	838.1	0.4
308.15	20000	0.5937	854.9	0.4
308.15	20000	0.7002	896.6	0.4
308.15	20000	0.8013	943.4	0.4
308.15	20000	0.8979	998.7	0.3
308.15	20000	0.9502	1032.1	0.4
308.15	30000	0.0535	723.7	0.6
308.15	30000	0.0978	731.6	0.6
308.15	30000	0.3935	799.6	0.5
308.15	30000	0.496	829.5	0.5
308.15	30000	0.5475	846.4	0.4
308.15	30000	0.5937	863.3	0.4
308.15	30000	0.7002	905	0.4
308.15	30000	0.8013	951.9	0.4
308.15	30000	0.8979	1007.1	0.3
308.15	30000	0.9502	1040.4	0.4
308.15	40000	0.0535	730.4	0.7
308.15	40000	0.0978	738.4	0.7
308.15	40000	0.3935	806.9	0.5
308.15	40000	0.496	836.9	0.5
308.15	40000	0.5475	853.9	0.5
308.15	40000	0.5937	870.8	0.5
308.15	40000	0.7002	912.8	0.4
308.15	40000	0.8013	959.7	0.4
308.15	40000	0.8979	1015	0.4
308.15	40000	0.9502	1048.3	0.4

System: decane + dimethyl carbonate; phases: Liquid
Property: Mass density, kg/m3 (Liquid); method: Vibrating tube method
Temperature, K	Pressure, kPa	Mole fraction of dimethyl carbonate	Mass density, kg/m3	uncertainty
288.15	100	0.0438	739	0.3
288.15	100	0.11	749	0.3
288.15	100	0.2348	769.2	0.3
288.15	100	0.3516	792	0.3
288.15	100	0.3944	801.9	0.3
288.15	100	0.557	844.5	0.4
288.15	100	0.8035	944.4	0.4
288.15	100	0.95	1034.2	0.4
288.15	5000	0.0438	742.7	0.3
288.15	5000	0.11	753.6	0.3
288.15	5000	0.2348	773.1	0.3
288.15	5000	0.3516	796	0.3
288.15	5000	0.3944	805.9	0.3
288.15	5000	0.557	848.7	0.4
288.15	5000	0.8035	948.8	0.4
288.15	5000	0.95	1038.5	0.4
288.15	10000	0.0438	746.2	0.4
288.15	10000	0.11	757.2	0.4
288.15	10000	0.2348	776.8	0.4
288.15	10000	0.3516	799.9	0.4
288.15	10000	0.3944	809.8	0.4
288.15	10000	0.557	852.6	0.4
288.15	10000	0.8035	953.1	0.4
288.15	10000	0.95	1042.8	0.4
288.15	20000	0.0438	752.7	0.5
288.15	20000	0.11	763.9	0.4
288.15	20000	0.2348	783.7	0.4
288.15	20000	0.3516	807	0.4
288.15	20000	0.3944	817	0.4
288.15	20000	0.557	858.8	0.4
288.15	20000	0.8035	963.1	0.4
288.15	20000	0.95	1050.8	0.4
288.15	30000	0.0438	758.8	0.5
288.15	30000	0.11	769.8	0.5
288.15	30000	0.2348	790	0.5
288.15	30000	0.3516	813.4	0.5
288.15	30000	0.3944	823.5	0.5
288.15	30000	0.557	865	0.4
288.15	30000	0.8035	971.2	0.4
288.15	30000	0.95	1058.2	0.4
288.15	40000	0.0438	764.3	0.6
288.15	40000	0.11	775.8	0.6
288.15	40000	0.2348	796.1	0.6
288.15	40000	0.3516	819.7	0.5
288.15	40000	0.3944	829.3	0.5
288.15	40000	0.557	872.6	0.5
288.15	40000	0.8035	977.8	0.4
288.15	40000	0.95	1065.3	0.4
298.15	100	0.0438	731.3	0.3
298.15	100	0.11	741.9	0.3
298.15	100	0.2348	760.8	0.3
298.15	100	0.3516	783.2	0.3
298.15	100	0.3944	793.3	0.3
298.15	100	0.557	831.4	0.3
298.15	100	0.8035	932.1	0.3
298.15	100	0.95	1021.4	0.4
298.15	5000	0.0438	735.6	0.3
298.15	5000	0.11	746.2	0.3
298.15	5000	0.2348	765.5	0.3
298.15	5000	0.3516	787.9	0.3
298.15	5000	0.3944	798	0.3
298.15	5000	0.557	836.7	0.3
298.15	5000	0.8035	937.6	0.3
298.15	5000	0.95	1026.5	0.4
298.15	10000	0.0438	739	0.4
298.15	10000	0.11	749.7	0.4
298.15	10000	0.2348	769	0.4
298.15	10000	0.3516	791.4	0.4
298.15	10000	0.3944	801.8	0.4
298.15	10000	0.557	840.5	0.4
298.15	10000	0.8035	942.1	0.3
298.15	10000	0.95	1030.7	0.4
298.15	20000	0.0438	745.9	0.5
298.15	20000	0.11	756.6	0.4
298.15	20000	0.2348	776.2	0.4
298.15	20000	0.3516	799	0.4
298.15	20000	0.3944	809.4	0.4
298.15	20000	0.557	848.3	0.4
298.15	20000	0.8035	951.1	0.4
298.15	20000	0.95	1039	0.4
298.15	30000	0.0438	752.2	0.5
298.15	30000	0.11	763.1	0.5
298.15	30000	0.2348	782.9	0.5
298.15	30000	0.3516	805.9	0.5
298.15	30000	0.3944	816.6	0.5
298.15	30000	0.557	856.1	0.4
298.15	30000	0.8035	959.2	0.4
298.15	30000	0.95	1047	0.4
298.15	40000	0.0438	758.1	0.6
298.15	40000	0.11	769	0.6
298.15	40000	0.2348	789	0.6
298.15	40000	0.3516	812.2	0.5
298.15	40000	0.3944	823	0.5
298.15	40000	0.557	863.2	0.5
298.15	40000	0.8035	966.8	0.4
298.15	40000	0.95	1054.4	0.4
308.15	100	0.0438	723.6	0.3
308.15	100	0.11	733.9	0.3
308.15	100	0.2348	752.5	0.3
308.15	100	0.3516	774.3	0.3
308.15	100	0.3944	783.8	0.3
308.15	100	0.557	820.2	0.3
308.15	100	0.8035	920.7	0.3
308.15	100	0.95	1008.8	0.3
308.15	5000	0.0438	727.7	0.4
308.15	5000	0.11	738.2	0.3
308.15	5000	0.2348	756.9	0.3
308.15	5000	0.3516	778.9	0.3
308.15	5000	0.3944	788.5	0.3
308.15	5000	0.557	825.6	0.3
308.15	5000	0.8035	926.3	0.3
308.15	5000	0.95	1013.8	0.4
308.15	10000	0.0438	731.7	0.4
308.15	10000	0.11	742.2	0.4
308.15	10000	0.2348	761	0.4
308.15	10000	0.3516	783.2	0.4
308.15	10000	0.3944	792.8	0.4
308.15	10000	0.557	830.8	0.4
308.15	10000	0.8035	931.6	0.3
308.15	10000	0.95	1018.5	0.4
308.15	20000	0.0438	739	0.5
308.15	20000	0.11	749.7	0.5
308.15	20000	0.2348	768.6	0.4
308.15	20000	0.3516	790.9	0.4
308.15	20000	0.3944	801.1	0.4
308.15	20000	0.557	840	0.4
308.15	20000	0.8035	941.1	0.3
308.15	20000	0.95	1027.6	0.4
308.15	30000	0.0438	745.6	0.5
308.15	30000	0.11	756.4	0.5
308.15	30000	0.2348	775.6	0.5
308.15	30000	0.3516	798.3	0.5
308.15	30000	0.3944	808.4	0.5
308.15	30000	0.557	848.4	0.4
308.15	30000	0.8035	949.7	0.3
308.15	30000	0.95	1035.9	0.4
308.15	40000	0.0438	751.8	0.6
308.15	40000	0.11	762.6	0.6
308.15	40000	0.2348	782.1	0.6
308.15	40000	0.3516	804.9	0.5
308.15	40000	0.3944	815.3	0.5
308.15	40000	0.557	856.1	0.5
308.15	40000	0.8035	957.8	0.4
308.15	40000	0.95	1043.7	0.4

System: diethyl carbonate + octane; phases: Liquid
Property: Mass density, kg/m3 (Liquid); method: Vibrating tube method
Temperature, K	Pressure, kPa	Mole fraction of diethyl carbonate	Mass density, kg/m3	uncertainty
288.15	100	0.0522	716	0.3
288.15	100	0.1042	726.1	0.3
288.15	100	0.1671	738.6	0.3
288.15	100	0.322	772.6	0.3
288.15	100	0.3657	784	0.3
288.15	100	0.5075	820.5	0.3
288.15	100	0.6922	874.2	0.3
288.15	100	0.8002	908.5	0.3
288.15	100	0.9206	951	0.3
288.15	100	0.9459	959.8	0.3
288.15	5000	0.0522	720.1	0.3
288.15	5000	0.1042	730.4	0.3
288.15	5000	0.1671	742.8	0.3
288.15	5000	0.322	778.1	0.3
288.15	5000	0.3657	788.4	0.3
288.15	5000	0.5075	824.9	0.3
288.15	5000	0.6922	879.4	0.3
288.15	5000	0.8002	912.8	0.3
288.15	5000	0.9206	954.9	0.3
288.15	5000	0.9459	964.3	0.3
288.15	10000	0.0522	723.9	0.4
288.15	10000	0.1042	734.4	0.4
288.15	10000	0.1671	746.8	0.4
288.15	10000	0.322	782.1	0.3
288.15	10000	0.3657	792.6	0.3
288.15	10000	0.5075	829	0.3
288.15	10000	0.6922	883.7	0.3
288.15	10000	0.8002	917	0.3
288.15	10000	0.9206	958.8	0.3
288.15	10000	0.9459	968.6	0.3
288.15	20000	0.0522	731.2	0.5
288.15	20000	0.1042	741.6	0.5
288.15	20000	0.1671	754.1	0.4
288.15	20000	0.322	789.6	0.4
288.15	20000	0.3657	800.1	0.4
288.15	20000	0.5075	836.8	0.4
288.15	20000	0.6922	891.6	0.3
288.15	20000	0.8002	925	0.3
288.15	20000	0.9206	966.5	0.3
288.15	20000	0.9459	976.3	0.3
288.15	30000	0.0522	737.8	0.5
288.15	30000	0.1042	748.2	0.5
288.15	30000	0.1671	760.7	0.5
288.15	30000	0.322	796.5	0.5
288.15	30000	0.3657	807.1	0.4
288.15	30000	0.5075	843.9	0.4
288.15	30000	0.6922	898.5	0.3
288.15	30000	0.8002	932.1	0.3
288.15	30000	0.9206	973.8	0.3
288.15	30000	0.9459	983.3	0.3
288.15	40000	0.0522	744	0.6
288.15	40000	0.1042	754.5	0.6
288.15	40000	0.1671	767.2	0.6
288.15	40000	0.322	803.1	0.5
288.15	40000	0.3657	813.7	0.5
288.15	40000	0.5075	850.5	0.4
288.15	40000	0.6922	907.6	0.3
288.15	40000	0.8002	939	0.3
288.15	40000	0.9206	980.7	0.3
288.15	40000	0.9459	990.3	0.3
298.15	100	0.0522	707.7	0.3
298.15	100	0.1042	717.7	0.3
298.15	100	0.1671	729.9	0.3
298.15	100	0.322	764.5	0.3
298.15	100	0.3657	774.7	0.3
298.15	100	0.5075	810.7	0.3
298.15	100	0.6922	864.7	0.3
298.15	100	0.8002	897.7	0.3
298.15	100	0.9206	939.2	0.3
298.15	100	0.9459	949.3	0.3
298.15	5000	0.0522	712.5	0.4
298.15	5000	0.1042	722.5	0.3
298.15	5000	0.1671	734.7	0.3
298.15	5000	0.322	769.5	0.3
298.15	5000	0.3657	779.7	0.3
298.15	5000	0.5075	815.8	0.3
298.15	5000	0.6922	869.8	0.3
298.15	5000	0.8002	902.8	0.3
298.15	5000	0.9206	944.2	0.3
298.15	5000	0.9459	953.8	0.3
298.15	10000	0.0522	716.3	0.4
298.15	10000	0.1042	726.3	0.4
298.15	10000	0.1671	738.5	0.4
298.15	10000	0.322	773.4	0.3
298.15	10000	0.3657	783.7	0.3
298.15	10000	0.5075	819.8	0.3
298.15	10000	0.6922	873.8	0.3
298.15	10000	0.8002	906.9	0.3
298.15	10000	0.9206	948.2	0.3
298.15	10000	0.9459	957.7	0.3
298.15	20000	0.0522	723.9	0.5
298.15	20000	0.1042	734	0.5
298.15	20000	0.1671	746.3	0.4
298.15	20000	0.322	781.4	0.4
298.15	20000	0.3657	791.8	0.4
298.15	20000	0.5075	828.1	0.4
298.15	20000	0.6922	882	0.3
298.15	20000	0.8002	915.2	0.3
298.15	20000	0.9206	956.4	0.3
298.15	20000	0.9459	965.9	0.3
298.15	30000	0.0522	730.8	0.6
298.15	30000	0.1042	741	0.5
298.15	30000	0.1671	753.4	0.5
298.15	30000	0.322	788.8	0.5
298.15	30000	0.3657	799.1	0.5
298.15	30000	0.5075	835.6	0.4
298.15	30000	0.6922	889.8	0.3
298.15	30000	0.8002	922.8	0.3
298.15	30000	0.9206	964	0.3
298.15	30000	0.9459	973.6	0.3
298.15	40000	0.0522	737.2	0.6
298.15	40000	0.1042	747.4	0.6
298.15	40000	0.1671	759.9	0.6
298.15	40000	0.322	795.5	0.5
298.15	40000	0.3657	805.9	0.5
298.15	40000	0.5075	842.4	0.4
298.15	40000	0.6922	896.9	0.4
298.15	40000	0.8002	929.9	0.3
298.15	40000	0.9206	971.1	0.3
298.15	40000	0.9459	980.7	0.3
308.15	100	0.0522	699.6	0.3
308.15	100	0.1042	709.3	0.3
308.15	100	0.1671	721.2	0.3
308.15	100	0.322	755.4	0.3
308.15	100	0.3657	765.4	0.3
308.15	100	0.5075	801	0.3
308.15	100	0.6922	854.3	0.3
308.15	100	0.8002	887.1	0.3
308.15	100	0.9206	928	0.3
308.15	100	0.9459	937.6	0.3
308.15	5000	0.0522	704.2	0.4
308.15	5000	0.1042	714	0.3
308.15	5000	0.1671	725.9	0.3
308.15	5000	0.322	760.4	0.3
308.15	5000	0.3657	770.4	0.3
308.15	5000	0.5075	805.9	0.3
308.15	5000	0.6922	859.3	0.3
308.15	5000	0.8002	892	0.3
308.15	5000	0.9206	932.9	0.3
308.15	5000	0.9459	942.6	0.3
308.15	10000	0.0522	708.7	0.4
308.15	10000	0.1042	718.5	0.4
308.15	10000	0.1671	730.5	0.4
308.15	10000	0.322	765.1	0.4
308.15	10000	0.3657	775.1	0.3
308.15	10000	0.5075	810.8	0.3
308.15	10000	0.6922	864.1	0.3
308.15	10000	0.8002	896.8	0.3
308.15	10000	0.9206	937.6	0.3
308.15	10000	0.9459	947.3	0.3
308.15	20000	0.0522	716.6	0.5
308.15	20000	0.1042	726.5	0.5
308.15	20000	0.1671	738.7	0.4
308.15	20000	0.322	773.3	0.4
308.15	20000	0.3657	783.6	0.4
308.15	20000	0.5075	819.4	0.4
308.15	20000	0.6922	873	0.3
308.15	20000	0.8002	905.6	0.3
308.15	20000	0.9206	946.3	0.3
308.15	20000	0.9459	956	0.3
308.15	30000	0.0522	723.8	0.6
308.15	30000	0.1042	733.9	0.5
308.15	30000	0.1671	746.2	0.5
308.15	30000	0.322	781.1	0.5
308.15	30000	0.3657	791.2	0.5
308.15	30000	0.5075	827.2	0.4
308.15	30000	0.6922	880.9	0.3
308.15	30000	0.8002	913.7	0.3
308.15	30000	0.9206	954.3	0.3
308.15	30000	0.9459	964.1	0.3
308.15	40000	0.0522	730.5	0.7
308.15	40000	0.1042	740.7	0.6
308.15	40000	0.1671	753	0.6
308.15	40000	0.322	788	0.5
308.15	40000	0.3657	798.3	0.5
308.15	40000	0.5075	834.6	0.4
308.15	40000	0.6922	888.3	0.4
308.15	40000	0.8002	921.2	0.3
308.15	40000	0.9206	961.9	0.3
308.15	40000	0.9459	971.5	0.3

System: diethyl carbonate + decane; phases: Liquid
Property: Mass density, kg/m3 (Liquid); method: Vibrating tube method
Temperature, K	Pressure, kPa	Mole fraction of diethyl carbonate	Mass density, kg/m3	uncertainty
288.15	100	0.0538	740.8	0.3
288.15	100	0.1716	759.4	0.3
288.15	100	0.2151	766.3	0.3
288.15	100	0.3257	786.5	0.3
288.15	100	0.5032	821.3	0.3
288.15	100	0.5482	832.2	0.3
288.15	100	0.7985	903.2	0.3
288.15	100	0.8989	937.5	0.3
288.15	100	0.9487	956.9	0.3
288.15	5000	0.0538	744.5	0.3
288.15	5000	0.1716	763.3	0.3
288.15	5000	0.2151	770.2	0.3
288.15	5000	0.3257	790.5	0.3
288.15	5000	0.5032	826.7	0.3
288.15	5000	0.5482	836.6	0.3
288.15	5000	0.7985	907.4	0.3
288.15	5000	0.8989	943.6	0.3
288.15	5000	0.9487	963	0.3
288.15	10000	0.0538	748	0.4
288.15	10000	0.1716	766.8	0.4
288.15	10000	0.2151	773.7	0.4
288.15	10000	0.3257	794.3	0.3
288.15	10000	0.5032	830.7	0.3
288.15	10000	0.5482	840.6	0.3
288.15	10000	0.7985	911.5	0.3
288.15	10000	0.8989	947.7	0.3
288.15	10000	0.9487	967.1	0.3
288.15	20000	0.0538	754.6	0.4
288.15	20000	0.1716	773.6	0.4
288.15	20000	0.2151	780.5	0.4
288.15	20000	0.3257	801.2	0.4
288.15	20000	0.5032	837.8	0.4
288.15	20000	0.5482	847.8	0.3
288.15	20000	0.7985	919	0.3
288.15	20000	0.8989	955.4	0.3
288.15	20000	0.9487	974.8	0.3
288.15	30000	0.0538	760.6	0.5
288.15	30000	0.1716	780.9	0.5
288.15	30000	0.2151	786.9	0.5
288.15	30000	0.3257	807.5	0.4
288.15	30000	0.5032	844.6	0.4
288.15	30000	0.5482	854.5	0.4
288.15	30000	0.7985	926	0.3
288.15	30000	0.8989	962.6	0.3
288.15	30000	0.9487	981.9	0.3
288.15	40000	0.0538	766.4	0.6
288.15	40000	0.1716	785.6	0.6
288.15	40000	0.2151	792.8	0.5
288.15	40000	0.3257	813.8	0.5
288.15	40000	0.5032	850.9	0.4
288.15	40000	0.5482	860.9	0.4
288.15	40000	0.7985	932.8	0.3
288.15	40000	0.8989	969.5	0.3
288.15	40000	0.9487	988.9	0.3
298.15	100	0.0538	733.1	0.3
298.15	100	0.1716	751.2	0.3
298.15	100	0.2151	758	0.3
298.15	100	0.3257	777.9	0.3
298.15	100	0.5032	813.5	0.3
298.15	100	0.5482	823.1	0.3
298.15	100	0.7985	892.8	0.3
298.15	100	0.8989	928.3	0.3
298.15	100	0.9487	947.6	0.3
298.15	5000	0.0538	737.6	0.3
298.15	5000	0.1716	755.8	0.3
298.15	5000	0.2151	762.6	0.3
298.15	5000	0.3257	782.6	0.3
298.15	5000	0.5032	818.2	0.3
298.15	5000	0.5482	827.8	0.3
298.15	5000	0.7985	897.7	0.3
298.15	5000	0.8989	933.5	0.3
298.15	5000	0.9487	952.7	0.3
298.15	10000	0.0538	740.7	0.4
298.15	10000	0.1716	759.1	0.4
298.15	10000	0.2151	766	0.4
298.15	10000	0.3257	786.1	0.3
298.15	10000	0.5032	821.9	0.3
298.15	10000	0.5482	831.7	0.3
298.15	10000	0.7985	901.5	0.3
298.15	10000	0.8989	937.5	0.3
298.15	10000	0.9487	956.6	0.3
298.15	20000	0.0538	747.7	0.4
298.15	20000	0.1716	766.2	0.4
298.15	20000	0.2151	773.1	0.4
298.15	20000	0.3257	793.5	0.4
298.15	20000	0.5032	829.7	0.4
298.15	20000	0.5482	839.4	0.3
298.15	20000	0.7985	909.6	0.3
298.15	20000	0.8989	945.7	0.3
298.15	20000	0.9487	964.8	0.3
298.15	30000	0.0538	753.9	0.5
298.15	30000	0.1716	772.6	0.5
298.15	30000	0.2151	779.8	0.5
298.15	30000	0.3257	800.2	0.5
298.15	30000	0.5032	836.7	0.4
298.15	30000	0.5482	846.5	0.4
298.15	30000	0.7985	917.1	0.3
298.15	30000	0.8989	953.2	0.3
298.15	30000	0.9487	972.2	0.3
298.15	40000	0.0538	759.8	0.6
298.15	40000	0.1716	778.7	0.6
298.15	40000	0.2151	785.8	0.6
298.15	40000	0.3257	806.5	0.5
298.15	40000	0.5032	843.3	0.4
298.15	40000	0.5482	853.1	0.4
298.15	40000	0.7985	924.1	0.3
298.15	40000	0.8989	960.2	0.3
298.15	40000	0.9487	979.3	0.3
308.15	100	0.0538	725.5	0.3
308.15	100	0.1716	743.2	0.3
308.15	100	0.2151	749.9	0.3
308.15	100	0.3257	769.4	0.3
308.15	100	0.5032	804.4	0.3
308.15	100	0.5482	813.9	0.3
308.15	100	0.7985	882.5	0.3
308.15	100	0.8989	917.7	0.3
308.15	100	0.9487	936.6	0.3
308.15	5000	0.0538	729.6	0.3
308.15	5000	0.1716	747.5	0.3
308.15	5000	0.2151	754.3	0.3
308.15	5000	0.3257	773.9	0.3
308.15	5000	0.5032	809	0.3
308.15	5000	0.5482	818.4	0.3
308.15	5000	0.7985	887.3	0.3
308.15	5000	0.8989	922.6	0.3
308.15	5000	0.9487	941.5	0.3
308.15	10000	0.0538	733.6	0.4
308.15	10000	0.1716	751.6	0.4
308.15	10000	0.2151	758.4	0.4
308.15	10000	0.3257	778.1	0.3
308.15	10000	0.5032	813.5	0.3
308.15	10000	0.5482	823	0.3
308.15	10000	0.7985	892	0.3
308.15	10000	0.8989	927.1	0.3
308.15	10000	0.9487	946.2	0.3
308.15	20000	0.0538	740.7	0.5
308.15	20000	0.1716	758.9	0.4
308.15	20000	0.2151	765.9	0.4
308.15	20000	0.3257	785.9	0.4
308.15	20000	0.5032	821.4	0.4
308.15	20000	0.5482	831	0.4
308.15	20000	0.7985	900.5	0.3
308.15	20000	0.8989	935.7	0.3
308.15	20000	0.9487	954.6	0.3
308.15	30000	0.0538	747.5	0.5
308.15	30000	0.1716	765.8	0.5
308.15	30000	0.2151	772.7	0.5
308.15	30000	0.3257	792.9	0.5
308.15	30000	0.5032	828.9	0.4
308.15	30000	0.5482	838.4	0.4
308.15	30000	0.7985	908.2	0.3
308.15	30000	0.8989	943.8	0.3
308.15	30000	0.9487	962.7	0.3
308.15	40000	0.0538	753.6	0.6
308.15	40000	0.1716	772.1	0.6
308.15	40000	0.2151	779.1	0.6
308.15	40000	0.3257	799.4	0.5
308.15	40000	0.5032	835.8	0.4
308.15	40000	0.5482	845.3	0.4
308.15	40000	0.7985	915.6	0.3
308.15	40000	0.8989	951.2	0.3
308.15	40000	0.9487	970.2	0.3
