Measured thermophysical data. Phase equilibria and molecular interaction studies on (naphthols + vanillin) systems
Source: J. Chem. Thermodyn., 2012, 10.1016/j.jct.2012.01.001
Compound 1: 1-naphthol, C10H8O, InChI=1S/C10H8O/c11-10-7-3-5-8-4-1-2-6-9(8)10/h1-7,11H, purity 98%
Compound 2: 2-hydroxynaphthalene, C10H8O, InChI=1S/C10H8O/c11-10-6-5-8-3-1-2-4-9(8)7-10/h1-7,11H, purity 99%
Compound 3: vanillin, C8H8O3, InChI=1S/C8H8O3/c1-11-8-4-6(5-9)2-3-7(8)10/h2-5,10H,1H3, purity 98%

System: 1-naphthol; phases: Crystal, Liquid, Air at 1 atmosphere
Property: Molar enthalpy of transition or fusion, kJ/mol (Crystal); method: DSC
Molar enthalpy of transition or fusion, kJ/mol	uncertainty
21.62	0.65

System: 2-hydroxynaphthalene; phases: Crystal, Liquid, Air at 1 atmosphere
Property: Molar enthalpy of transition or fusion, kJ/mol (Crystal); method: DSC
Molar enthalpy of transition or fusion, kJ/mol	uncertainty
21.07	0.63

System: vanillin; phases: Crystal, Liquid, Air at 1 atmosphere
Property: Molar enthalpy of transition or fusion, kJ/mol (Crystal); method: DSC
Molar enthalpy of transition or fusion, kJ/mol	uncertainty
22.35	0.67

System: 1-naphthol + vanillin; phases: Crystal, Crystal, Liquid, Air at 1 atmosphere
Property: Eutectic temperature, K (Crystal); method: Derived from phase diagram analysis
Eutectic temperature, K	uncertainty
323.2	0.1

System: 1-naphthol + vanillin; phases: Crystal, Crystal, Air at 1 atmosphere, Liquid
Property: Eutectic composition: mole fraction of 1-naphthol (Crystal); method: Derived from phase diagram analysis
Eutectic composition: mole fraction of 1-naphthol	uncertainty
0.57	0.04

System: 1-naphthol + vanillin; phases: Liquid, Crystal
Fixed: Pressure, kPa = 101
Property: Solid-liquid equilibrium temperature, K (Liquid); method: VISOBS
Mole fraction of 1-naphthol	Solid-liquid equilibrium temperature, K	uncertainty
0	354.6	0.2
0.1045	352.8	0.2
0.2039	351.4	0.2
0.3088	348.2	0.2
0.4058	339.8	0.2
0.4859	329.4	0.2

System: 1-naphthol + vanillin; phases: Liquid, Crystal
Fixed: Pressure, kPa = 101
Property: Solid-liquid equilibrium temperature, K (Liquid); method: VISOBS
Mole fraction of 1-naphthol	Solid-liquid equilibrium temperature, K	uncertainty
0.5717	323.6	0.2
0.6143	329.8	0.2
0.7101	345.2	0.2
0.8116	357.8	0.2
0.8873	363.4	0.2
1	368.2	0.2

System: vanillin + 2-hydroxynaphthalene; phases: Crystal, Crystal, Liquid, Air at 1 atmosphere
Property: Eutectic temperature, K (Crystal); method: Derived from phase diagram analysis
Eutectic temperature, K	uncertainty
341	1

System: vanillin + 2-hydroxynaphthalene; phases: Crystal, Crystal, Air at 1 atmosphere, Liquid
Property: Eutectic composition: mole fraction of 2-hydroxynaphthalene (Crystal); method: Derived from phase diagram analysis
Eutectic composition: mole fraction of 2-hydroxynaphthalene	uncertainty
0.53	0.04

System: vanillin + 2-hydroxynaphthalene; phases: Liquid, Crystal
Fixed: Pressure, kPa = 101
Property: Solid-liquid equilibrium temperature, K (Liquid); method: VISOBS
Mole fraction of 2-hydroxynaphthalene	Solid-liquid equilibrium temperature, K	uncertainty
0	354.6	0.2
0.1	352.2	0.2
0.2055	351.2	0.2
0.3089	350.6	0.2
0.4091	349.2	0.2
0.4928	344.8	0.2
0.5231	341.6	0.2

System: vanillin + 2-hydroxynaphthalene; phases: Liquid, Crystal
Fixed: Pressure, kPa = 101
Property: Solid-liquid equilibrium temperature, K (Liquid); method: VISOBS
Mole fraction of 2-hydroxynaphthalene	Solid-liquid equilibrium temperature, K	uncertainty
0.5811	363.2	0.2
0.6234	372.8	0.2
0.7206	382.8	0.2
0.7917	386.1	0.2
0.9024	391.6	0.2
1	394.2	0.2
