Measured thermophysical data. Excess molar enthalpies of the ternary mixtures: (methyl tert-butyl ether or 2-methyltetrahydrofuran + cyclohexane + 2,2,4- trimethylpentane} at the temperature 298.15 K
Source: J. Chem. Thermodyn., 2005, 10.1016/j.jct.2004.09.003
Compound 1: 2-methoxy-2-methylpropane, C5H12O, InChI=1S/C5H12O/c1-5(2,3)6-4/h1-4H3, purity 99.5%
Compound 2: 2-methyltetrahydrofuran, C5H10O, InChI=1S/C5H10O/c1-5-3-2-4-6-5/h5H,2-4H2,1H3, purity 99%
Compound 3: cyclohexane, C6H12, InChI=1S/C6H12/c1-2-4-6-5-3-1/h1-6H2, purity 99%
Compound 4: 2,2,4-trimethylpentane, C8H18, InChI=1S/C8H18/c1-7(2)6-8(3,4)5/h7H,6H2,1-5H3, purity 99%

System: cyclohexane + 2,2,4-trimethylpentane + 2-methoxy-2-methylpropane; phases: Liquid
Fixed: Temperature, K = 298.15
Fixed: Pressure, kPa = 101.3
Property: Excess molar enthalpy (molar enthalpy of mixing), kJ/mol (Liquid); method: Flow calorimetry
Solvent: Amount ratio of component to other component of binary solvent of cyclohexane	Mole fraction of 2-methoxy-2-methylpropane	Excess molar enthalpy (molar enthalpy of mixing), kJ/mol	uncertainty
0.3333	0.0535	0.06037	0.00161
0.3333	0.1064	0.11406	0.00214
0.3333	0.159	0.16367	0.00264
0.3333	0.2112	0.20918	0.00309
0.3333	0.2632	0.24162	0.00342
0.3333	0.3139	0.26194	0.00362
0.3333	0.365	0.28381	0.00384
0.3333	0.4168	0.30016	0.004
0.3333	0.4667	0.30974	0.0041
0.3333	0.5178	0.31174	0.00412
0.3333	0.5678	0.30363	0.00404
0.3333	0.6158	0.2982	0.00398
0.3333	0.6651	0.28246	0.00383
0.3333	0.7144	0.25979	0.0036
0.3333	0.7627	0.23253	0.00333
0.3333	0.8106	0.19828	0.00298
0.3333	0.858	0.15892	0.00259
0.3333	0.9061	0.11131	0.00211
0.3333	0.9531	0.05657	0.00157
1	0.05	0.06306	0.00163
1	0.1	0.12137	0.00222
1	0.15	0.17188	0.00272
1	0.2	0.21684	0.00317
1	0.25	0.25465	0.00355
1	0.3	0.27979	0.0038
1	0.3496	0.30339	0.00403
1	0.4006	0.32015	0.0042
1	0.4497	0.33	0.0043
1	0.4995	0.33367	0.00434
1	0.5501	0.33277	0.00433
1	0.5994	0.32273	0.00423
1	0.6499	0.3021	0.00402
1	0.6999	0.28259	0.00383
1	0.7498	0.25271	0.00353
1	0.8	0.21634	0.00316
1	0.8493	0.17382	0.00274
1	0.9	0.11916	0.00219
1	0.9499	0.06374	0.00164
2.9984	0.0498	0.07326	0.00173
2.9984	0.0994	0.1461	0.00246
2.9984	0.149	0.20912	0.00309
2.9984	0.1991	0.26018	0.0036
2.9984	0.2484	0.29735	0.00397
2.9984	0.2988	0.3308	0.00431
2.9984	0.3484	0.35559	0.00456
2.9984	0.3989	0.3741	0.00474
2.9984	0.4482	0.38246	0.00483
2.9984	0.4989	0.38547	0.00486
2.9984	0.5481	0.3795	0.0048
2.9984	0.5981	0.36569	0.00466
2.9984	0.6485	0.34413	0.00444
2.9984	0.6991	0.3189	0.00419
2.9984	0.7481	0.28487	0.00385
2.9984	0.7992	0.2415	0.00342
2.9984	0.8569	0.18653	0.00287
2.9984	0.8993	0.13445	0.00235
2.9984	0.9497	0.07175	0.00172

System: 2-methyltetrahydrofuran + cyclohexane + 2,2,4-trimethylpentane; phases: Liquid
Fixed: Temperature, K = 298.15
Fixed: Pressure, kPa = 101.3
Property: Excess molar enthalpy (molar enthalpy of mixing), kJ/mol (Liquid); method: Flow calorimetry
Solvent: Amount ratio of component to other component of binary solvent of cyclohexane	Mole fraction of 2-methyltetrahydrofuran	Excess molar enthalpy (molar enthalpy of mixing), kJ/mol	uncertainty
0.3333	0.05	0.07929	0.0018
0.3333	0.1	0.16935	0.0027
0.3333	0.15	0.24414	0.00344
0.3333	0.2001	0.30649	0.00407
0.3333	0.2499	0.36148	0.00462
0.3333	0.2999	0.40782	0.00508
0.3333	0.3491	0.43906	0.00539
0.3333	0.4001	0.46205	0.00562
0.3333	0.4498	0.47811	0.00578
0.3333	0.4995	0.4831	0.00583
0.3333	0.55	0.48375	0.00584
0.3333	0.6	0.4722	0.00572
0.3333	0.6501	0.45057	0.00551
0.3333	0.6999	0.41838	0.00518
0.3333	0.7501	0.37629	0.00476
0.3333	0.7998	0.32437	0.00424
0.3333	0.8505	0.26038	0.00361
0.3333	0.8958	0.19084	0.00291
0.3333	0.95	0.09735	0.00198
1	0.05	0.08783	0.00188
1	0.1001	0.17653	0.00277
1	0.15	0.24758	0.00348
1	0.1999	0.31837	0.00418
1	0.25	0.36678	0.00467
1	0.3001	0.4053	0.00505
1	0.3502	0.43826	0.00538
1	0.4002	0.46108	0.00561
1	0.4508	0.47467	0.00575
1	0.4995	0.4756	0.00576
1	0.5502	0.47032	0.0057
1	0.5993	0.46274	0.00563
1	0.6503	0.43801	0.00538
1	0.6912	0.41336	0.00513
1	0.7501	0.36419	0.00464
1	0.8007	0.3109	0.00411
1	0.8509	0.24809	0.00348
1	0.9004	0.17616	0.00276
1	0.9499	0.09192	0.00192
2.9984	0.0497	0.10184	0.00202
2.9984	0.0994	0.19306	0.00293
2.9984	0.1492	0.273	0.00373
2.9984	0.1988	0.33915	0.00439
2.9984	0.2489	0.39384	0.00494
2.9984	0.2987	0.43254	0.00533
2.9984	0.3492	0.46556	0.00566
2.9984	0.3986	0.4869	0.00587
2.9984	0.4483	0.49875	0.00599
2.9984	0.4984	0.50058	0.00601
2.9984	0.5483	0.49429	0.00594
2.9984	0.5985	0.4774	0.00577
2.9984	0.648	0.45103	0.00551
2.9984	0.6993	0.41418	0.00514
2.9984	0.7484	0.36868	0.00469
2.9984	0.7988	0.31447	0.00415
2.9984	0.8483	0.25069	0.00351
2.9984	0.8993	0.17659	0.00277
2.9984	0.9497	0.09218	0.00192
