Measured thermophysical data. Effect of temperature on the interactions of glycyl dipeptides with sodium perfluorooctanoate in aqueous solution: Volumetric, conductometric, and spectroscopic study
Source: J. Chem. Thermodyn., 2013, 10.1016/j.jct.2012.09.018
Compound 1: glycylglycine, C4H8N2O3, InChI=1S/C4H8N2O3/c5-1-3(7)6-2-4(8)9/h1-2,5H2,(H,6,7)(H,8,9), purity 99%
Compound 2: glycyl-L-valine, C7H14N2O3, InChI=1S/C7H14N2O3/c1-4(2)6(7(11)12)9-5(10)3-8/h4,6H,3,8H2,1-2H3,(H,9,10)(H,11,12)/t6-/m0/s1, purity 99%
Compound 3: glycyl-L-leucine, C8H16N2O3, InChI=1S/C8H16N2O3/c1-5(2)3-6(8(12)13)10-7(11)4-9/h5-6H,3-4,9H2,1-2H3,(H,10,11)(H,12,13)/t6-/m0/s1, purity 99%
Compound 4: sodium perfluorooctanoate, C8F15NaO2, InChI=1S/C8HF15O2.Na/c9-2(10,1(24)25)3(11,12)4(13,14)5(15,16)6(17,18)7(19,20)8(21,22)23;/h(H,24,25);/q;+1/p-1, purity 99%
Compound 5: water, H2O, InChI=1S/H2O/h1H2

System: water; phases: Liquid
Property: Mass density, kg/m3 (Liquid); method: Pycnometric method
Pressure, kPa	Temperature, K	Mass density, kg/m3	uncertainty
101	293.15	998.2	0.9

System: glycylglycine + water; phases: Liquid
Fixed: Pressure, kPa = 101
Fixed: Temperature, K = 293.15
Property: Mass density, kg/m3 (Liquid); method: Pycnometric method
Molality, mol/kg of glycylglycine	Mass density, kg/m3	uncertainty
0	998.2	0.9
0.02014	999.33	0.9
0.04077	1000.49	0.9
0.06148	1001.64	0.91
0.09135	1003.33	0.91
0.12256	1005.06	0.91
0.15378	1006.84	0.91
0.18229	1008.4	0.91
0.2128	1010.11	0.91
0.25339	1012.46	0.92

System: glycyl-L-valine + water; phases: Liquid
Fixed: Pressure, kPa = 101
Fixed: Temperature, K = 293.15
Property: Mass density, kg/m3 (Liquid); method: Pycnometric method
Molality, mol/kg of glycyl-L-valine	Mass density, kg/m3	uncertainty
0	998.2	0.9
0.01993	999.24	0.9
0.04051	1000.32	0.9
0.06065	1001.37	0.91
0.08097	1002.43	0.91
0.1005	1003.46	0.91
0.12027	1004.51	0.91
0.14025	1005.53	0.91
0.15943	1006.55	0.91
0.17992	1007.62	0.91
0.1995	1008.64	0.91

System: glycyl-L-leucine + water; phases: Liquid
Fixed: Pressure, kPa = 101
Fixed: Temperature, K = 293.15
Property: Mass density, kg/m3 (Liquid); method: Pycnometric method
Molality, mol/kg of glycyl-L-leucine	Mass density, kg/m3	uncertainty
0	998.2	0.9
0.01984	999.17	0.9
0.02628	999.49	0.9
0.03301	999.83	0.9
0.03973	1000.15	0.9
0.04936	1000.61	0.9
0.05894	1001.06	0.9
0.06889	1001.56	0.91
0.07838	1002.04	0.91
0.08821	1002.51	0.91

System: sodium perfluorooctanoate + glycylglycine + water; phases: Liquid
Fixed: Pressure, kPa = 101
Fixed: Solvent: Molality, mol/kg of sodium perfluorooctanoate = 0.04
Property: Mass density, kg/m3 (Liquid); method: Pycnometric method
Temperature, K	Molality, mol/kg of glycylglycine	Mass density, kg/m3	uncertainty
293.15	0	1007.81	0.47
293.15	0.02009	1008.89	0.47
293.15	0.03994	1009.99	0.47
293.15	0.06003	1011.17	0.47
293.15	0.07995	1012.28	0.47
293.15	0.1001	1013.51	0.48
293.15	0.1203	1014.7	0.48
293.15	0.1401	1015.86	0.48
293.15	0.1599	1016.99	0.48
293.15	0.1798	1018.17	0.48
298.15	0	1006.34	0.48
298.15	0.02009	1007.42	0.48
298.15	0.03994	1008.51	0.48
298.15	0.06003	1009.64	0.48
298.15	0.07995	1010.78	0.48
298.15	0.1001	1011.95	0.48
298.15	0.1203	1013.09	0.48
298.15	0.1401	1014.33	0.49
298.15	0.1599	1015.44	0.48
298.15	0.1798	1016.52	0.49
303.15	0	1005	0.5
303.15	0.02009	1006.08	0.5
303.15	0.03994	1007.15	0.5
303.15	0.06003	1008.27	0.5
303.15	0.07995	1009.39	0.5
303.15	0.1001	1010.54	0.5
303.15	0.1203	1011.75	0.51
303.15	0.1401	1012.9	0.5
303.15	0.1599	1014.1	0.5
308.15	0	1003.29	0.52
308.15	0.02009	1004.35	0.52
308.15	0.03994	1005.4	0.52
308.15	0.06003	1006.52	0.53
308.15	0.07995	1007.61	0.53
308.15	0.1001	1008.74	0.53
308.15	0.1203	1009.83	0.53
308.15	0.1401	1011.19	0.53
308.15	0.1599	1012.27	0.53
308.15	0.1798	1013.36	0.53

System: sodium perfluorooctanoate + glycyl-L-valine + water; phases: Liquid
Fixed: Pressure, kPa = 101
Fixed: Solvent: Molality, mol/kg of sodium perfluorooctanoate = 0.04
Property: Mass density, kg/m3 (Liquid); method: Pycnometric method
Temperature, K	Molality, mol/kg of glycyl-L-valine	Mass density, kg/m3	uncertainty
293.15	0	1007.53	0.43
293.15	0.08006	1011.49	0.43
293.15	0.10004	1012.43	0.43
293.15	0.12007	1013.4	0.43
293.15	0.14998	1014.86	0.43
293.15	0.18012	1016.42	0.44
293.15	0.21001	1017.88	0.44
293.15	0.23954	1019.22	0.44
298.15	0	1006.24	0.45
298.15	0.08006	1010.15	0.45
298.15	0.10004	1011.1	0.46
298.15	0.12007	1012.07	0.46
298.15	0.14998	1013.55	0.46
298.15	0.18012	1015.02	0.46
298.15	0.21001	1016.46	0.46
298.15	0.23954	1017.85	0.46
303.15	0	1004.68	0.47
303.15	0.08006	1008.52	0.47
303.15	0.10004	1009.45	0.48
303.15	0.12007	1010.41	0.48
303.15	0.14998	1011.83	0.48
303.15	0.18012	1013.31	0.48
303.15	0.21001	1014.69	0.48
303.15	0.23954	1016.05	0.49
308.15	0	1003.15	0.48
308.15	0.08006	1006.94	0.49
308.15	0.10004	1007.86	0.49
308.15	0.12007	1008.79	0.49
308.15	0.14998	1010.22	0.49
308.15	0.18012	1011.7	0.49
308.15	0.21001	1013.16	0.49
308.15	0.23954	1014.44	0.49

System: sodium perfluorooctanoate + glycyl-L-leucine + water; phases: Liquid
Fixed: Pressure, kPa = 101
Fixed: Solvent: Molality, mol/kg of sodium perfluorooctanoate = 0.04
Property: Mass density, kg/m3 (Liquid); method: Pycnometric method
Temperature, K	Molality, mol/kg of glycyl-L-leucine	Mass density, kg/m3	uncertainty
293.15	0	1007.49	0.44
293.15	0.01956	1008.39	0.45
293.15	0.02707	1008.74	0.45
293.15	0.03596	1009.13	0.45
293.15	0.04248	1009.42	0.45
293.15	0.04783	1009.67	0.45
293.15	0.05717	1010.03	0.45
293.15	0.06479	1010.39	0.45
293.15	0.07144	1010.68	0.45
293.15	0.08038	1011.05	0.45
293.15	0.08998	1011.47	0.45
298.15	0	1006.24	0.46
298.15	0.01956	1007.12	0.47
298.15	0.02707	1007.46	0.47
298.15	0.03596	1007.83	0.47
298.15	0.04248	1008.14	0.47
298.15	0.04783	1008.37	0.47
298.15	0.05717	1008.75	0.47
298.15	0.06479	1009.05	0.47
298.15	0.07144	1009.38	0.47
298.15	0.08038	1009.71	0.47
298.15	0.08998	1010.11	0.47
303.15	0	1004.73	0.49
303.15	0.01956	1005.6	0.49
303.15	0.02707	1005.92	0.49
303.15	0.03596	1006.3	0.49
303.15	0.04248	1006.58	0.49
303.15	0.04783	1006.82	0.49
303.15	0.05717	1007.21	0.49
303.15	0.06479	1007.54	0.49
303.15	0.07144	1007.81	0.49
303.15	0.08038	1008.17	0.5
303.15	0.08998	1008.55	0.5
308.15	0	1003.15	0.5
308.15	0.01956	1003.99	0.5
308.15	0.02707	1004.3	0.5
308.15	0.03596	1004.68	0.51
308.15	0.04248	1004.95	0.51
308.15	0.04783	1005.15	0.51
308.15	0.05717	1005.51	0.51
308.15	0.06479	1005.84	0.51
308.15	0.07144	1006.11	0.51
308.15	0.08038	1006.4	0.51
308.15	0.08998	1006.77	0.52

System: sodium perfluorooctanoate + water; phases: Liquid
Fixed: Pressure, kPa = 101
Fixed: Molality, mol/kg of sodium perfluorooctanoate = 0.04
Property: Mass density, kg/m3 (Liquid); method: Pycnometric method
Temperature, K	Mass density, kg/m3	uncertainty
293.15	1007.53	0.91
298.15	1006.24	0.38
303.15	1004.73	0.41
308.15	1003.15	0.92
