Measured thermophysical data. The heat capacity and entropy of lithium silicides over the temperature  range from (2 to 873) K
Source: J. Chem. Thermodyn., 2013, 10.1016/j.jct.2013.05.018
Compound 1: lithium silicide (Li12Si7), Li12Si7, InChI=1S/12Li.7Si, purity 99%
Compound 2: lithium silicide (Li7Si3), Li7Si3, InChI=1S/7Li.3Si, purity 99%
Compound 3: lithium silicide (Li13Si4), Li13Si4, InChI=1S/13Li.4Si, purity 99%
Compound 4: lithium silicide (Li22Si5), Li22Si5, InChI=1S/22Li.5Si, purity 95%

System: lithium silicide (Li12Si7); phases: Crystal
Fixed: Pressure, kPa = 101.325
Property: Molar heat capacity at constant pressure, J/K/mol (Crystal); method: relaxation calorimetry - PPMS
Temperature, K	Molar heat capacity at constant pressure, J/K/mol	uncertainty
2.04	0.0101	0.0016
2.25	0.0115	0.0018
2.46	0.0132	0.0021
2.67	0.015	0.0024
2.88	0.0168	0.0027
3.09	0.0181	0.0029
3.3	0.0208	0.0033
3.51	0.0236	0.0038
3.72	0.0264	0.0042
3.93	0.0296	0.0047
4.14	0.0334	0.0054
4.35	0.0367	0.0059
4.56	0.0429	0.0069
4.76	0.047	0.0075
4.97	0.0535	0.0086
5.18	0.0585	0.0094
5.39	0.064	0.0103
5.6	0.0694	0.0111
5.81	0.076	0.0122
6.02	0.0816	0.0131
6.23	0.0891	0.0143
6.44	0.0975	0.0156
6.65	0.107	0.0171
6.86	0.1159	0.0186
7.07	0.1234	0.0198
7.27	0.1343	0.0215
7.48	0.1455	0.0233
7.69	0.1591	0.0255
7.9	0.1701	0.0272
8.11	0.1826	0.0292
8.32	0.195	0.0312
8.53	0.2098	0.0336
8.73	0.2236	0.0358
8.94	0.2417	0.0387
9.15	0.2596	0.0416
10.17	0.3595	0.0576
13.35	0.8828	0.1413
16.48	1.8246	0.292
19.63	3.3569	0.5372
22.77	5.479	0.22
25.87	8.188	0.328
29.02	11.597	0.464
32.16	15.607	0.625
35.31	20.183	0.808
38.46	25.28	1.012
41.61	30.853	1.235
44.75	36.752	1.471
47.9	43.278	1.732
51.05	49.953	1.999
54.2	56.98	2.28
57.34	64.24	2.57
60.49	71.78	2.87
63.63	79.51	3.18
66.78	87.27	3.49
69.93	95.29	3.81
73.07	103.54	4.14
76.22	111.45	4.46
79.36	119.6	4.78
82.51	127.97	5.12
85.65	136	5.44
88.8	143.58	5.74
91.94	151.55	6.06
95.09	159.51	6.38
101.14	174.46	6.98
111.72	199.48	7.98
122.38	223.9	8.96
133.02	245.07	9.8
143.65	265.99	10.64
154.3	284.48	11.38
164.9	300.48	12.02
175.56	315.63	12.63
186.2	328.42	13.14
196.86	340.22	13.61
207.49	352.77	14.11
218.1	361.6	14.46
228.7	373.3	14.93
239.31	382.96	15.32
249.9	393.82	15.75
260.51	401.02	16.04
271.19	407.8	16.31
281.8	416.67	16.67
292.33	425.28	17.01
303.03	427.41	17.1

System: lithium silicide (Li12Si7); phases: Crystal
Fixed: Pressure, kPa = 101.325
Property: Molar heat capacity at constant pressure, J/K/mol (Crystal); method: Small sample (50 mg) DSC
Temperature, K	Molar heat capacity at constant pressure, J/K/mol	uncertainty
283.23	416.2	17.66
283.23	417.21	17.7
283.24	416.04	17.65
283.24	418.06	17.74
293.23	421.42	17.88
293.24	422.56	17.93
293.24	423.62	17.97
293.24	424.75	18.02
313.26	427.94	18.16
313.27	429.09	18.2
313.28	428.08	18.16
313.28	429.96	18.24
333.32	435.53	18.48
333.33	436.61	18.52
333.33	435.95	18.5
333.34	437.27	18.55
353.39	445.5	18.9
353.39	444.43	18.86
353.39	444.58	18.86
353.4	446.26	18.93

System: lithium silicide (Li12Si7); phases: Crystal
Fixed: Pressure, kPa = 101.325
Property: Molar heat capacity at constant pressure, J/K/mol (Crystal); method: Small sample (50 mg) DSC
Temperature, K	Molar heat capacity at constant pressure, J/K/mol	uncertainty
304.83	431.03	18.29
304.83	435.79	18.49
304.83	429.02	18.2
304.99	425.43	18.05
314.75	437.19	18.55
314.75	435.79	18.49
314.75	430.92	18.28
314.91	429.63	18.23
324.66	439.43	18.64
324.66	441.94	18.75
324.67	441.37	18.73
324.82	430.47	18.26
334.57	445.02	18.88
334.57	447.82	19
334.58	448.21	19.02
334.73	435.17	18.46
344.48	447.82	19
344.48	447.82	19
344.5	453.91	19.26
344.65	443.95	18.84
354.4	459.02	19.47
354.4	454.26	19.27
354.42	459.23	19.48
354.56	446.81	18.96
364.32	459.58	19.5
364.32	456.78	19.38
364.33	461.7	19.59
364.48	448.48	19.03
374.24	463.5	19.66
374.24	456.78	19.38
374.24	466.02	19.77
374.4	452.34	19.19
384.15	468.81	19.89
384.15	469.37	19.91
384.15	462.38	19.62
384.31	456.22	19.36
394.06	475.81	20.19
394.07	474.69	20.14
394.07	472.45	20.04
394.22	462.66	19.63
403.98	479.69	20.35
403.98	485.05	20.58
403.98	481.97	20.45
404.13	469.93	19.94
413.89	486.9	20.66
413.89	487.85	20.7
413.89	489.25	20.76
414.05	475.25	20.16
423.8	494.56	20.98
423.8	488.41	20.72
423.8	497.08	21.09
423.97	481.41	20.42
433.72	497.64	21.11
433.72	488.69	20.73
433.72	497.08	21.09
433.89	485.33	20.59
443.63	502.4	21.32
443.63	492.6	20.9
443.64	501.84	21.29
443.8	486.17	20.63
453.55	499.04	21.17
453.55	504.36	21.4
453.56	504.08	21.39
453.71	490.53	20.81
463.47	507.72	21.54
463.47	501.56	21.28
463.47	505.76	21.46
463.62	493.55	20.94
473.38	510.8	21.67
473.39	506.88	21.51
473.39	503.8	21.37
473.53	497.48	21.11
483.28	512.2	21.73
483.3	507.44	21.53
483.3	505.76	21.46
483.44	500.04	21.21
493.19	517.51	21.96
493.19	512.76	21.75
493.19	509.4	21.61
493.35	503.4	21.36
503.1	519.47	22.04
503.1	513.04	21.77
503.1	521.43	22.12
503.27	506.26	21.48
513.01	519.75	22.05
513.01	521.15	22.11
513.01	522.27	22.16
513.17	509.56	21.62
522.92	522.83	22.18
522.92	523.67	22.22
522.92	526.75	22.35
523.09	514.76	21.84
532.7	528.71	22.43
532.83	527.59	22.38
532.83	522.83	22.18
533	516.72	21.92
542.57	533.19	22.62
542.57	524.79	22.26
542.61	531.51	22.55
542.91	519.97	22.06
552.48	537.11	22.79
552.48	527.03	22.36
552.65	539.07	22.87
552.82	524.29	22.24
562.56	532.35	22.59
562.56	541.03	22.95
562.56	542.42	23.01
562.73	526.81	22.35
572.48	545.78	23.16
572.48	533.19	22.62
572.48	543.54	23.06
572.65	528.99	22.44
582.39	549.22	23.3
582.39	536.55	22.76
582.39	546.62	23.19
582.56	531.79	22.56
592.3	553.68	23.49
592.3	551.38	23.39
592.3	539.35	22.88
592.47	535.71	22.73
602.21	542.14	23
602.21	554.18	23.51
602.21	556.42	23.61
602.38	542.14	23
612.12	558.94	23.71
612.12	544.38	23.1
612.12	558.66	23.7
612.29	548.58	23.27
622.03	546.06	23.17
622.03	560.06	23.76
622.03	563.48	23.91
622.2	553.9	23.5
631.94	565.94	24.01
631.95	548.86	23.29
631.95	565.66	24
632.12	552.22	23.43
641.85	568.17	24.11
641.86	568.45	24.12
641.86	552.78	23.45
642.03	552.78	23.45
651.76	570.69	24.21
651.77	556.98	23.63
651.77	568.73	24.13
651.94	555.3	23.56
661.67	561.74	23.83
661.67	569.85	24.18
661.67	574.61	24.38
661.85	559.22	23.73
671.58	565.66	24
671.58	575.17	24.4
671.58	578.81	24.56
671.76	562.3	23.86
681.49	573.77	24.34
681.49	568.45	24.12
681.51	576.57	24.46
681.67	563.98	23.93
691.41	570.41	24.2
691.41	578.53	24.54
691.45	580.77	24.64
691.59	569.57	24.16
701.33	572.09	24.27
701.33	572.37	24.28
701.39	583.01	24.74
701.49	570.41	24.2
711.24	582.17	24.7
711.24	577.41	24.5
711.31	589.43	25.01
711.4	572.09	24.27
721.16	578.53	24.54
721.16	578.53	24.54
721.23	591.47	25.09
721.31	578.81	24.56
731.08	577.97	24.52
731.08	584.41	24.79
731.14	593.75	25.19
731.23	577.97	24.52
740.99	593.36	25.17
740.99	581.61	24.68
741.06	596.98	25.33
741.15	581.61	24.68
750.91	594.48	25.22
750.91	585.81	24.85
750.98	598.5	25.39
751.07	587.77	24.94
760.82	596.72	25.32
760.82	589.73	25.02
760.89	599.83	25.45
760.99	593.64	25.19
770.74	594.2	25.21
770.74	600.08	25.46
770.81	599.83	25.45
770.91	590.57	25.06
780.66	603.44	25.6
780.66	598.12	25.38
780.73	601.73	25.53
780.82	599.24	25.42
790.57	605.4	25.68
790.57	604.36	25.64
790.64	601.35	25.51
790.74	602.6	25.57
800.49	607.64	25.78
800.49	609.32	25.85
800.56	604.2	25.63
800.65	603.44	25.6
810.4	600.36	25.47
810.4	604	25.63
810.48	605.15	25.67
810.57	605.25	25.68
820.32	607.64	25.78
820.32	608.76	25.83
820.39	614.65	26.08
820.48	606.28	25.72
830.24	602.6	25.57
830.24	612.96	26.01
830.31	619.39	26.28
830.41	611.25	25.93
840.15	618.55	26.24
840.15	602.6	25.57
840.22	620.35	26.32
840.33	611.8	25.96
850.06	622.75	26.42
850.06	605.96	25.71
850.13	622.25	26.4
850.24	612.32	25.98
859.98	607.08	25.76
859.98	624.74	26.51
860.05	624.21	26.48
860.15	614.28	26.06
869.89	624.99	26.52
869.89	608.2	25.8
869.97	624.99	26.52
870.07	617.58	26.2

System: lithium silicide (Li12Si7); phases: Crystal
Fixed: Pressure, kPa = 101.325
Property: Molar heat capacity at constant pressure, J/K/mol (Crystal); method: relaxation calorimetry - PPMS
Temperature, K	Molar heat capacity at constant pressure, J/K/mol	uncertainty
5	0.0513	0.0083
10	0.3401	0.0545
15	1.317	0.211
20	3.572	0.572
25	7.391	0.296
30	12.79	0.51
35	19.68	0.79
40	27.93	1.12
45	37.24	1.49
50	47.69	1.91
60	70.49	2.82
70	95.95	3.84
80	122	4.9
90	147.3	5.9
100	171.8	6.9
110	194.9	7.8
120	217	8.7
130	237.5	9.5
140	256.9	10.3
150	274.7	11
160	291.5	11.7
170	306.9	12.3
180	321.1	12.8
190	334.2	13.4
200	346.4	13.9
210	357.6	14.3
220	367.7	14.7
230	377.2	15.1
240	385.7	15.4
250	393.7	15.7
260	400.9	16
270	407.7	16.3
280	414	16.6
290	419.9	16.8
298.15	424.5	17

System: lithium silicide (Li12Si7); phases: Crystal
Fixed: Pressure, kPa = 101.325
Property: Molar entropy, J/K/mol (Crystal); method: relaxation calorimetry - PPMS
Temperature, K	Molar entropy, J/K/mol	uncertainty
5	0.0304	0.0073
10	0.133	0.0319
15	0.4237	0.1017
20	1.083	0.26
25	2.242	0.135
30	4.047	0.243
35	6.517	0.391
40	9.69	0.582
45	13.49	0.81
50	17.86	1.07
60	28.5	1.71
70	41.23	2.47
80	55.9	3.4
90	71.6	4.3
100	88.5	5.3
110	106	6.4
120	123.9	7.4
130	142.1	8.5
140	160.4	9.6
150	178.8	10.7
160	197	11.8
170	215.1	12.9
180	233.1	14
190	250.8	15
200	268.3	16.1
210	285.4	17.1
220	302.3	18.1
230	318.8	19.1
240	335.2	20.1
250	350.9	21.1
260	366.5	22
270	381.9	22.9
280	396.7	23.8
290	411.4	24.7
298.15	423.1	25.4

System: lithium silicide (Li12Si7); phases: Crystal
Fixed: Pressure, kPa = 101.325
Property: Molar enthalpy function {Hm(T)-Hm(0)}/T, J/K/mol (Crystal); method: relaxation calorimetry - PPMS
Temperature, K	Molar enthalpy function {Hm(T)-Hm(0)}/T, J/K/mol	uncertainty
5	0.0171	0.0028
10	0.0912	0.0146
15	0.3097	0.0496
20	0.817	0.1308
25	1.71	0.069
30	3.097	0.124
35	4.959	0.199
40	7.22	0.289
45	10.07	0.4
50	13.3	0.53
60	20.9	0.84
70	29.83	1.19
80	39.7	1.6
90	50.2	2
100	61.2	2.4
110	72.2	2.9
120	83.4	3.3
130	94.4	3.8
140	105.5	4.2
150	116.1	4.6
160	126.5	5.1
170	136.8	5.5
180	146.5	5.9
190	156.2	6.2
200	165.3	6.6
210	174.2	7
220	182.8	7.3
230	191	7.6
240	198.9	8
250	206.5	8.3
260	213.9	8.6
270	221	8.8
280	227.8	9.1
290	234.3	9.4
298.15	239.4	9.6

System: lithium silicide (Li12Si7); phases: Crystal
Fixed: Pressure, kPa = 101.325
Property: Molar heat capacity at constant pressure, J/K/mol (Crystal); method: Small sample (50 mg) DSC
Temperature, K	Molar heat capacity at constant pressure, J/K/mol	uncertainty
300	425.6	18.1
320	435.5	18.5
340	445.9	18.9
360	455.8	19.3
380	465.1	19.7
400	474.2	20.1
420	483	20.5
440	491.3	20.8
460	499.3	21.2
480	506.9	21.5
500	514.5	21.8
520	521.6	22.1
540	528.6	22.4
560	535.2	22.7
580	541.7	23
600	548	23.2
620	554	23.5
640	560.1	23.8
660	565.8	24
680	571.5	24.2
700	577	24.5
720	582.4	24.7
740	587.7	24.9
760	593	25.2
780	598.1	25.4
800	603.3	25.6
820	608.4	25.8
840	613.5	26
860	618.6	26.2

System: lithium silicide (Li12Si7); phases: Crystal
Fixed: Pressure, kPa = 101.325
Property: Molar entropy, J/K/mol (Crystal); method: Small sample (50 mg) DSC
Temperature, K	Molar entropy, J/K/mol	uncertainty
300	425.8	27.1
320	453.5	28.9
340	480.1	30.6
360	506	32.2
380	530.9	33.8
400	555	35.3
420	578.4	36.8
440	601	38.2
460	623	39.6
480	644.5	41
500	665.2	42.3
520	685.5	43.6
540	705.5	44.9
560	724.7	46.1
580	743.7	47.3
600	762.1	48.5
620	780.1	49.6
640	797.8	50.8
660	815.1	51.9
680	832.2	53
700	848.7	54
720	865.1	55.1
740	881.2	56.1
760	896.8	57.1
780	912.4	58.1
800	927.6	59
820	942.6	60
840	957.2	60.9
860	971.7	61.8

System: lithium silicide (Li12Si7); phases: Crystal
Fixed: Pressure, kPa = 101.325
Property: Molar enthalpy function {Hm(T)-Hm(0)}/T, J/K/mol (Crystal); method: Small sample (50 mg) DSC
Temperature, K	Molar enthalpy function {Hm(T)-Hm(0)}/T, J/K/mol	uncertainty
300	240.5	10.2
320	252.5	10.7
340	263.5	11.2
360	274	11.6
380	283.7	12
400	293	12.4
420	301.9	12.8
440	310.3	13.2
460	318.3	13.5
480	326	13.8
500	333.5	14.1
520	340.5	14.4
540	347.3	14.7
560	354	15
580	360.2	15.3
600	366.5	15.5
620	372.4	15.8
640	378.1	16
660	383.8	16.3
680	389.3	16.5
700	394.4	16.7
720	399.6	17
740	404.7	17.2
760	409.6	17.4
780	414.4	17.6
800	419	17.8
820	423.5	18
840	428.1	18.2
860	432.4	18.3

System: lithium silicide (Li7Si3); phases: Crystal 2, Crystal 1, Gas
Property: Triple point temperature, K (Crystal 2); method: relaxation calorimetry - PPMS
Triple point temperature, K	uncertainty
216.5	0.4

System: lithium silicide (Li7Si3); phases: Crystal 2, Crystal 1, Gas
Property: Molar enthalpy of transition or fusion, kJ/mol (Crystal 2); method: relaxation calorimetry - PPMS
Molar enthalpy of transition or fusion, kJ/mol	uncertainty
0	1

System: lithium silicide (Li7Si3); phases: Crystal 2
Fixed: Pressure, kPa = 101.325
Property: Molar heat capacity at constant pressure, J/K/mol (Crystal 2); method: relaxation calorimetry - PPMS
Temperature, K	Molar heat capacity at constant pressure, J/K/mol	uncertainty
2.09	0.0133	0.0021
2.26	0.0145	0.0023
2.45	0.0159	0.0025
2.65	0.0173	0.0028
2.85	0.0189	0.003
3.05	0.0206	0.0033
3.26	0.0223	0.0036
3.67	0.0263	0.0042
4.08	0.032	0.0051
5.33	0.0455	0.0073
5.96	0.0558	0.0089
6.17	0.06	0.0096
6.38	0.0641	0.0103
6.58	0.0681	0.0109
6.79	0.0726	0.0116
7	0.0777	0.0124
7.21	0.083	0.0133
7.42	0.0882	0.0141
7.63	0.0938	0.015
7.84	0.0997	0.016
8.05	0.1061	0.017
8.25	0.1125	0.018
8.47	0.1194	0.0191
8.68	0.1268	0.0203
8.88	0.1349	0.0216
9.17	0.1457	0.0233
10.16	0.1915	0.0307
13.25	0.4326	0.0693
16.38	0.8657	0.1386
19.5	1.571	0.251
22.55	2.607	0.105
25.6	3.926	0.157
28.75	5.656	0.227
31.89	7.74	0.31
35.04	10.151	0.406
38.2	12.852	0.514
41.36	15.773	0.631
44.55	18.969	0.759
47.66	22.302	0.892
50.8	25.838	1.034
53.96	29.57	1.18
57.1	33.38	1.34
60.25	37.3	1.49
63.38	41.26	1.65
66.51	45.39	1.82
69.66	49.62	1.98
72.8	53.89	2.16
75.92	58.05	2.32
79.05	62.34	2.49
82.22	66.62	2.66
85.37	70.83	2.83
88.54	75.08	3
91.71	78.9	3.16
94.86	82.67	3.31
100.91	90.08	3.6
111.7	101.63	4.07
122.01	115.17	4.61
132.91	125.72	5.03
143.23	138.39	5.54
151.47	147.59	5.9
153.48	149.72	5.99
155.54	151.62	6.06
157.58	153.47	6.14
159.62	155.34	6.21
161.66	157.11	6.28
163.67	159.02	6.36
165.76	161.06	6.44
167.8	162.81	6.51
169.84	164.69	6.59
171.84	166.25	6.65
173.93	167.88	6.72
175.97	169.56	6.78
178.02	171.03	6.84
180.01	172.6	6.9
182.05	174.13	6.97
184.15	175.59	7.02
186.19	177.4	7.1
188.24	179.17	7.17
190.24	180.77	7.23
192.29	182.43	7.3
194.37	184.85	7.39
196.43	186.81	7.47
198.47	189.29	7.57
200.47	191.15	7.65
201.91	192.44	7.7
202.24	193.06	7.72
202.78	193.79	7.75
203.41	194.48	7.78
203.93	195.29	7.81
204.45	195.9	7.84
204.97	196.74	7.87
205.47	197.74	7.91
205.99	198.72	7.95
206.51	199.93	8
207.02	201.31	8.05
207.54	202.46	8.1
208.06	203.54	8.14
208.57	204.93	8.2
209.09	206.47	8.26
209.6	207.82	8.31
210.11	209.33	8.37
210.62	211.02	8.44
211.14	213.27	8.53
211.66	214.77	8.59
212.17	216.88	8.68
212.68	219.19	8.77
213.2	221.32	8.85
213.71	223.3	8.93
214.22	225.65	9.03
214.74	227.38	9.1
215.21	228.82	9.15
215.72	230.23	9.21
216.23	230.92	9.24

System: lithium silicide (Li7Si3); phases: Crystal 1
Fixed: Pressure, kPa = 101.325
Property: Molar heat capacity at constant pressure, J/K/mol (Crystal 1); method: relaxation calorimetry - PPMS
Temperature, K	Molar heat capacity at constant pressure, J/K/mol	uncertainty
216.75	230.87	9.23
217.27	229.74	9.19
217.78	228.14	9.13
218.29	225.41	9.02
218.81	222.36	8.9
219.38	219.02	8.76
219.9	215.44	8.62
220.42	212.14	8.49
220.93	209.21	8.37
221.45	206.59	8.26
221.96	204.66	8.19
222.48	202.86	8.11
223	201.73	8.07
228.79	202.19	8.09
231.64	202.95	8.12
234.67	203.29	8.13
239.11	204.88	8.2
249.69	208.44	8.34
260.01	210.63	8.43
270.51	214.1	8.56
281.26	218.27	8.73

System: lithium silicide (Li7Si3); phases: Crystal 1
Fixed: Pressure, kPa = 101.325
Property: Molar heat capacity at constant pressure, J/K/mol (Crystal 1); method: Small sample (50 mg) DSC
Temperature, K	Molar heat capacity at constant pressure, J/K/mol	uncertainty
283.25	220.32	9.35
293.11	223.35	9.48
293.25	220.55	9.37
293.25	223.25	9.47
313.16	227.7	9.67
313.3	224.89	9.55
313.3	226.77	9.62
333.23	231.19	9.82
333.36	227.76	9.68
333.36	231.9	9.84
353.32	235.12	9.98
353.45	234.06	9.93

System: lithium silicide (Li7Si3); phases: Crystal 1
Fixed: Pressure, kPa = 101.325
Property: Molar heat capacity at constant pressure, J/K/mol (Crystal 1); method: Small sample (50 mg) DSC
Temperature, K	Molar heat capacity at constant pressure, J/K/mol	uncertainty
304.89	226.38	9.6
304.97	228.1	9.68
305.09	226.77	9.62
314.81	229.83	9.75
314.9	229.7	9.75
315.01	228.1	9.68
324.72	232.49	9.86
324.81	231.69	9.83
324.92	228.77	9.71
334.64	235.68	10
334.72	233.28	9.9
334.84	230.1	9.76
344.55	238.2	10.11
344.64	233.82	9.92
344.75	232.35	9.86
354.47	241.79	10.26
354.56	237.14	10.06
354.67	235.54	9.99
364.39	244.58	10.38
364.47	238.2	10.11
364.58	238.34	10.11
374.3	246.17	10.44
374.39	241.12	10.23
374.5	241	10.22
384.21	246.57	10.46
384.3	243.65	10.34
384.41	243.91	10.35
394.13	248.96	10.56
394.21	244.71	10.38
394.33	246.04	10.44
404.03	250.42	10.62
404.12	248.7	10.55
404.23	249.23	10.57
413.94	252.68	10.72
414.04	251.62	10.68
414.14	251.09	10.65
423.86	254.41	10.79
423.96	253.08	10.74
424.06	255.2	10.83
433.77	255.87	10.86
433.88	254.14	10.78
433.98	256.53	10.88
443.69	255.47	10.84
443.79	256	10.86
443.9	257.2	10.91
453.62	256.4	10.88
453.7	257.33	10.92
453.82	258.53	10.97
463.53	257.99	10.95
463.6	258.39	10.96
463.73	260.92	11.07
473.44	259.59	11.01
473.51	259.59	11.01
473.63	263.04	11.16
483.34	260.39	11.05
483.43	261.32	11.09
483.54	263.04	11.16
493.25	262.11	11.12
493.34	262.51	11.14
493.44	265.04	11.24
503.16	263.57	11.18
503.21	263.44	11.18
503.36	265.7	11.27
513.07	264.64	11.23
513.12	265.43	11.26
513.27	266.23	11.3
522.98	264.9	11.24
523.07	266.5	11.31
523.18	267.56	11.35
532.89	266.1	11.29
532.98	267.29	11.34
533.09	268.22	11.38
542.8	267.69	11.36
542.89	267.83	11.36
543	269.42	11.43
552.72	268.36	11.39
552.8	269.42	11.43
552.91	270.22	11.46
562.63	268.89	11.41
562.71	271.01	11.5
562.82	271.55	11.52
572.54	269.55	11.44
572.62	271.68	11.53
572.73	273.01	11.58
582.45	271.01	11.5
582.53	271.68	11.53
582.64	274.47	11.64
592.36	272.87	11.58
592.44	272.61	11.57
592.56	275	11.67
602.27	273.94	11.62
602.36	273.01	11.58
602.47	274.73	11.66
612.18	275.13	11.67
612.27	274.07	11.63
612.38	275.66	11.7
622.1	275	11.67
622.18	275	11.67
622.29	277.26	11.76
632.01	276.33	11.72
632.09	275.53	11.69
632.2	276.59	11.73
641.92	277.26	11.76
642	275.66	11.7
642.11	278.19	11.8
651.83	278.06	11.8
651.89	276.99	11.75
652.02	278.32	11.81
661.74	278.72	11.83
661.8	278.19	11.8
661.93	279.91	11.88
671.65	279.65	11.86
671.73	278.85	11.83
671.84	280.31	11.89
681.55	280.45	11.9
681.64	279.12	11.84
681.75	281.24	11.93
691.47	281.64	11.95
691.56	280.71	11.91
691.66	281.64	11.95
701.38	282.04	11.97
701.48	283.37	12.02
701.58	283.37	12.02
711.29	283.37	12.02
711.4	284.3	12.06
711.5	284.3	12.06
721.21	285.1	12.1
721.32	284.03	12.05
721.41	284.96	12.09
731.13	284.3	12.06
731.23	286.29	12.15
731.33	287.22	12.19
741.04	285.36	12.11
741.15	286.29	12.15
741.25	288.15	12.23
750.96	285.1	12.1
751.07	287.75	12.21
751.17	288.82	12.25
760.88	286.96	12.17
760.98	288.28	12.23
761.08	290.41	12.32
770.8	288.68	12.25
770.9	288.95	12.26
771	291.47	12.37
780.71	290.28	12.32
780.82	290.01	12.3
780.92	289.61	12.29
790.62	290.14	12.31
790.74	290.81	12.34
790.84	292.67	12.42
800.54	291.21	12.35
800.65	291.21	12.35
800.75	294.13	12.48
810.46	292.93	12.43
810.57	292	12.39
810.67	294.79	12.51
820.38	296.25	12.57
820.49	294.93	12.51
820.59	297.32	12.61
830.31	296.2	12.57
830.4	294.93	12.51
830.5	299.2	12.69
840.22	298.25	12.65
840.32	296.26	12.57
840.42	301.1	12.77
850.12	300.24	12.74
850.23	297.05	12.6
850.33	302	12.81
860.04	300.91	12.77
860.15	298.38	12.66
860.25	303.1	12.86
869.95	301.3	12.78
870.06	299.58	12.71
870.16	303.7	12.88

System: lithium silicide (Li7Si3); phases: Crystal 2
Fixed: Pressure, kPa = 101.325
Property: Molar heat capacity at constant pressure, J/K/mol (Crystal 2); method: relaxation calorimetry - PPMS
Temperature, K	Molar heat capacity at constant pressure, J/K/mol	uncertainty
5	0.042	0.0067
10	0.184	0.0295
15	0.639	0.1023
20	1.72	0.275
25	3.65	0.146
30	6.46	0.259
35	10.1	0.4
40	14.5	0.58
45	19.5	0.78
50	24.9	1
60	37.4	1.5
70	50.3	2.01
80	63.3	2.53
90	76.1	3.04
100	88.8	3.55
110	101.1	4
120	113	4.5
130	124.4	5
140	135.4	5.4
150	145.7	5.8
160	155.4	6.2
170	164.5	6.6
180	172.8	6.9
190	180.4	7.2
200	189.8	7.6
205	197.1	7.9
208	203.9	8.2
210	209.5	8.4
212	216	8.6
214	223.5	8.9
216.5	231.2	9.2

System: lithium silicide (Li7Si3); phases: Crystal 2
Fixed: Pressure, kPa = 101.325
Property: Molar entropy, J/K/mol (Crystal 2); method: relaxation calorimetry - PPMS
Temperature, K	Molar entropy, J/K/mol	uncertainty
5	0.033	0.0079
10	0.096	0.023
15	0.243	0.0583
20	0.56	0.1344
25	1.13	0.068
30	2.03	0.122
35	3.29	0.197
40	4.9	0.294
45	6.9	0.414
50	9.2	0.552
60	14.9	0.89
70	21.6	1.3
80	29.2	1.75
90	37.3	2.24
100	46	2.76
110	55.1	3.31
120	64.4	3.86
130	73.9	4.43
140	83.5	5.01
150	93.2	5.59
160	102.9	6.2
170	112.6	6.8
180	122.3	7.3
190	131.8	7.9
200	141.3	8.5
205	146.1	8.8
208	149	8.9
210	151	9.1
212	153	9.2
214	155.1	9.3
216.5	157.7	9.5

System: lithium silicide (Li7Si3); phases: Crystal 2
Fixed: Pressure, kPa = 101.325
Property: Molar enthalpy function {Hm(T)-Hm(0)}/T, J/K/mol (Crystal 2); method: relaxation calorimetry - PPMS
Temperature, K	Molar enthalpy function {Hm(T)-Hm(0)}/T, J/K/mol	uncertainty
5	0.018	0.0029
10	0.058	0.0093
15	0.165	0.0264
20	0.4	0.064
25	0.84	0.0337
30	1.53	0.061
35	2.49	0.1
40	3.7	0.148
45	5.2	0.208
50	6.9	0.276
60	10.9	0.44
70	15.6	0.62
80	20.7	0.83
90	26.2	1.05
100	31.8	1.27
110	37.6	1.5
120	43.4	1.74
130	49.2	1.97
140	54.9	2.2
150	60.6	2.42
160	66.3	2.65
170	71.8	2.87
180	77.2	3.09
190	82.4	3.3
200	87.6	3.5
205	90.1	3.6
208	91.7	3.67
210	92.8	3.71
212	93.9	3.76
214	95.1	3.8
216.5	96.7	3.87

System: lithium silicide (Li7Si3); phases: Crystal 1
Fixed: Pressure, kPa = 101.325
Property: Molar heat capacity at constant pressure, J/K/mol (Crystal 1); method: relaxation calorimetry - PPMS
Temperature, K	Molar heat capacity at constant pressure, J/K/mol	uncertainty
216.5	231.2	9.2
218	226.9	9.1
220	215.1	8.6
222	204.3	8.2
224	200.1	8
226	200.8	8
230	202	8.1
240	205.3	8.2
250	208.5	8.3
260	211.7	8.5
270	214.8	8.6
280	217.8	8.7
290	220.8	8.8
298.15	223.2	8.9

System: lithium silicide (Li7Si3); phases: Crystal 1
Fixed: Pressure, kPa = 101.325
Property: Molar entropy, J/K/mol (Crystal 1); method: relaxation calorimetry - PPMS
Temperature, K	Molar entropy, J/K/mol	uncertainty
216.5	157.7	9.5
218	159.3	9.6
220	161.3	9.7
222	163.2	9.8
224	165	9.9
226	166.8	10
230	170.3	10.2
240	179	10.7
250	187.4	11.2
260	195.7	11.7
270	203.7	12.2
280	211.6	12.7
290	219.3	13.2
298.15	225.4	13.5

System: lithium silicide (Li7Si3); phases: Crystal 1
Fixed: Pressure, kPa = 101.325
Property: Molar enthalpy function {Hm(T)-Hm(0)}/T, J/K/mol (Crystal 1); method: relaxation calorimetry - PPMS
Temperature, K	Molar enthalpy function {Hm(T)-Hm(0)}/T, J/K/mol	uncertainty
216.5	96.7	3.87
218	97.6	3.9
220	98.7	3.95
222	99.7	3.99
224	100.6	4
226	101.5	4.1
230	103.2	4.1
240	107.4	4.3
250	111.4	4.5
260	115.2	4.6
270	118.8	4.8
280	122.3	4.9
290	125.6	5
298.15	128.3	5.1

System: lithium silicide (Li7Si3); phases: Crystal 1
Fixed: Pressure, kPa = 101.325
Property: Molar heat capacity at constant pressure, J/K/mol (Crystal 1); method: Small sample (50 mg) DSC
Temperature, K	Molar heat capacity at constant pressure, J/K/mol	uncertainty
300	223.7	9.5
320	229.3	9.7
340	234.5	9.9
360	239.4	10.2
380	243.8	10.3
400	248	10.5
420	251.7	10.7
440	255.2	10.8
460	258.3	11
480	261.2	11.1
500	263.8	11.2
520	266.2	11.3
540	268.4	11.4
560	270.4	11.5
580	272.3	11.6
600	274.1	11.6
620	275.8	11.7
640	277.4	11.8
660	279	11.8
680	280.7	11.9
700	282.3	12
720	284.1	12.1
740	286	12.1
760	287.9	12.2
780	290.1	12.3
800	292.5	12.4
820	295.1	12.5
840	297.9	12.6
860	301.1	12.8

System: lithium silicide (Li7Si3); phases: Crystal 1
Fixed: Pressure, kPa = 101.325
Property: Molar entropy, J/K/mol (Crystal 1); method: Small sample (50 mg) DSC
Temperature, K	Molar entropy, J/K/mol	uncertainty
300	226.8	14.4
320	241.5	15.4
340	255.5	16.3
360	269.1	17.1
380	282.1	18
400	294.7	18.8
420	306.9	19.5
440	318.7	20.3
460	330.1	21
480	341.2	21.7
500	351.9	22.4
520	362.3	23.1
540	372.4	23.7
560	382.2	24.3
580	391.7	24.9
600	401	25.5
620	410	26.1
640	418.8	26.7
660	427.3	27.2
680	435.7	27.7
700	443.8	28.2
720	451.8	28.8
740	459.6	29.2
760	467.3	29.7
780	474.8	30.2
800	482.2	30.7
820	489.4	31.1
840	496.6	31.6
860	503.6	32

System: lithium silicide (Li7Si3); phases: Crystal 1
Fixed: Pressure, kPa = 101.325
Property: Molar enthalpy function {Hm(T)-Hm(0)}/T, J/K/mol (Crystal 1); method: Small sample (50 mg) DSC
Temperature, K	Molar enthalpy function {Hm(T)-Hm(0)}/T, J/K/mol	uncertainty
300	128.9	5.5
320	135	5.7
340	140.7	6
360	146	6.2
380	151.1	6.4
400	155.8	6.6
420	160.3	6.8
440	164.5	7
460	168.5	7.1
480	172.3	7.3
500	175.9	7.5
520	179.4	7.6
540	182.6	7.7
560	185.7	7.9
580	188.7	8
600	191.5	8.1
620	194.2	8.2
640	196.8	8.3
660	199.2	8.5
680	201.6	8.6
700	203.9	8.7
720	206.1	8.7
740	208.2	8.8
760	210.3	8.9
780	212.3	9
800	214.3	9.1
820	216.2	9.2
840	218.1	9.3
860	220	9.3

System: lithium silicide (Li13Si4); phases: Crystal
Fixed: Pressure, kPa = 101.325
Property: Molar heat capacity at constant pressure, J/K/mol (Crystal); method: relaxation calorimetry - PPMS
Temperature, K	Molar heat capacity at constant pressure, J/K/mol	uncertainty
2.01	0.0301	0.0048
2.05	0.0265	0.0043
2.25	0.0298	0.0048
2.27	0.0347	0.0056
2.46	0.0339	0.0054
2.55	0.0395	0.0063
2.67	0.0381	0.0061
2.82	0.0448	0.0072
2.88	0.041	0.0066
3.09	0.0463	0.0074
3.3	0.0496	0.0079
3.38	0.057	0.0091
3.51	0.0555	0.0089
3.66	0.0632	0.0101
3.72	0.0612	0.0098
3.93	0.0675	0.0108
4.14	0.0784	0.0126
4.22	0.0798	0.0128
4.35	0.0876	0.014
4.56	0.0988	0.0158
4.77	0.1077	0.0173
4.98	0.1165	0.0187
5.08	0.117	0.0187
5.19	0.1279	0.0205
5.39	0.1384	0.0222
5.6	0.1521	0.0244
5.65	0.1478	0.0237
5.81	0.1642	0.0263
5.94	0.1662	0.0266
6.02	0.1767	0.0283
6.02	0.1761	0.0282
6.23	0.1907	0.0305
6.23	0.1933	0.031
6.43	0.2053	0.0329
6.44	0.207	0.0332
6.64	0.2205	0.0353
6.65	0.2262	0.0362
6.84	0.2377	0.0381
6.86	0.2454	0.0393
7.05	0.2559	0.041
7.07	0.2636	0.0422
7.25	0.2743	0.0439
7.28	0.2823	0.0452
7.46	0.2941	0.0471
7.49	0.3029	0.0485
7.66	0.3147	0.0504
7.7	0.3258	0.0522
7.87	0.3368	0.0539
7.91	0.3484	0.0558
8.07	0.3583	0.0574
8.12	0.3754	0.0601
8.28	0.3828	0.0613
8.32	0.4003	0.0641
8.49	0.4078	0.0653
8.53	0.4258	0.0682
8.69	0.4345	0.0696
8.74	0.4542	0.0727
8.9	0.463	0.0741
8.95	0.4804	0.0769
9.16	0.5144	0.0824
10	0.6245	0.1
10.17	0.6806	0.109
13.16	1.301	0.208
13.35	1.41	0.226
16.25	2.345	0.375
16.48	2.516	0.403
19.4	3.859	0.618
19.63	4.109	0.658
22.45	5.856	0.235
22.78	6.218	0.25
25.58	8.472	0.339
25.88	8.883	0.356
28.69	11.625	0.466
29.02	12.121	0.486
31.87	15.36	0.615
32.17	15.872	0.635
35.01	19.541	0.782
35.32	20.108	0.805
38.15	24.124	0.966
38.47	24.723	0.99
41.45	28.955	1.159
41.61	29.636	1.186
44.5	34.26	1.371
44.76	34.937	1.398
47.58	39.846	1.595
47.91	40.636	1.626
50.67	45.733	1.83
51.05	46.588	1.864
53.76	51.94	2.08
54.2	52.77	2.11
56.87	58.42	2.34
57.34	59.19	2.37
59.99	65.06	2.6
60.49	65.8	2.63
63.12	71.87	2.87
63.63	72.54	2.9
66.32	78.93	3.16
66.78	79.44	3.18
69.43	85.95	3.44
69.93	86.44	3.46
72.56	93.01	3.72
73.07	93.47	3.74
75.7	100.08	4
76.22	100.38	4.02
78.84	107.23	4.29
79.36	107.64	4.31
82.01	114.43	4.58
82.51	114.66	4.59
85.11	121.45	4.86
85.65	121.89	4.88
88.27	128.59	5.14
88.79	128.65	5.15
91.39	135.53	5.42
91.94	135.48	5.42
94.53	142.47	5.7
95.09	142.51	5.7
100.4	156.08	6.24
101.09	157.53	6.3
101.14	155.63	6.23
102.07	159.9	6.4
103.1	161.91	6.48
104.12	163.84	6.55
105.14	166.15	6.65
106.16	168.43	6.74
107.18	170.7	6.83
108.2	172.65	6.91
109.2	174.69	6.99
110.22	176.69	7.07
111.19	178.11	7.12
111.26	178.88	7.16
111.71	178.06	7.12
112.29	180.9	7.24
113.31	183.34	7.33
114.33	185.48	7.42
115.32	187.56	7.5
116.37	189.6	7.58
117.39	191.26	7.65
118.41	193.6	7.74
119.43	195.61	7.82
120.45	197.43	7.9
121.43	199.56	7.98
121.59	199.62	7.98
122.38	199.16	7.97
122.46	201.51	8.06
123.5	203.46	8.14
124.52	205.5	8.22
125.54	207.27	8.29
126.56	209.44	8.38
127.55	211.42	8.46
128.57	213.28	8.53
129.62	215.07	8.6
130.64	216.78	8.67
131.66	219.06	8.76
132.64	218.13	8.73
132.68	220.33	8.81
133.01	217.75	8.71
133.7	222.26	8.89
134.68	223.79	8.95
135.7	225.85	9.03
136.75	227.78	9.11
137.77	229.36	9.17
138.79	231.02	9.24
139.81	232.59	9.3
140.83	234.31	9.37
141.82	235.99	9.44
142.83	237.69	9.51
143.1	236.16	9.45
143.65	236.34	9.45
143.88	239.35	9.57
144.9	241.17	9.65
145.92	243.21	9.73
146.94	244.55	9.78
147.96	246.27	9.85
148.94	247.87	9.91
149.96	249.41	9.98
150.98	250.57	10.02
152.03	252.85	10.11
153.05	254.08	10.16
153.42	253.1	10.12
154.07	255.24	10.21
154.29	252.66	10.11
155.08	256.84	10.27
156.1	258.36	10.33
157.09	259.99	10.4
158.1	261.05	10.44
159.12	262.75	10.51
160.17	264	10.56
161.19	265.76	10.63
162.21	266.99	10.68
163.23	268.71	10.75
164.13	268.44	10.74
164.25	270.28	10.81
164.89	266.96	10.68
165.27	271.45	10.86
166.25	272.49	10.9
167.27	273.72	10.95
168.32	275.34	11.01
169.34	276.77	11.07
170.36	277.79	11.11
171.38	279.29	11.17
172.4	280.39	11.22
173.41	281.79	11.27
174.39	282.54	11.3
174.74	281.91	11.28
175.4	284.3	11.37
175.55	280.58	11.22
176.43	285.02	11.4
177.49	286.54	11.46
178.5	287.63	11.51
179.51	288.6	11.54
180.53	289.88	11.6
181.52	287.93	11.52
181.55	291	11.64
182.57	291.95	11.68
183.55	292.87	11.71
184.57	294.59	11.78
185.59	295.88	11.84
186.2	292.16	11.69
186.65	296.85	11.87
187.68	297.56	11.9
188.7	298.72	11.95
189.72	300.16	12.01
190.74	300.85	12.03
191.75	302.35	12.09
191.86	301.2	12.05
192.72	303.2	12.13
193.75	304.1	12.16
194.76	305.23	12.21
195.77	306.82	12.27
196.84	307.6	12.3
196.87	303.01	12.12
197.87	308.54	12.34
198.88	309.61	12.38
199.9	310.82	12.43
202.89	312.21	12.49
207.5	313.87	12.55
214.11	322.98	12.92
218.11	322.34	12.89
225.1	333.58	13.34
228.68	337.49	13.5
236.16	341.7	13.67
239.28	342.52	13.7
247.19	347.87	13.91
249.86	348.91	13.96
258.16	353.77	14.15
260.45	354.43	14.18
269.14	359.81	14.39
271.14	359.23	14.37
280.05	365.61	14.62
281.73	366.77	14.67
291.11	372.76	14.91
292.28	372.77	14.91
302.2	378.47	15.14
302.99	377.92	15.12

System: lithium silicide (Li13Si4); phases: Crystal
Fixed: Pressure, kPa = 101.325
Property: Molar heat capacity at constant pressure, J/K/mol (Crystal); method: Small sample (50 mg) DSC
Temperature, K	Molar heat capacity at constant pressure, J/K/mol	uncertainty
283.26	372.48	15.8
283.26	371.69	15.77
293.07	375.07	15.91
293.11	373.89	15.86
293.27	375.71	15.94
293.27	375.54	15.93
313.01	383.91	16.29
313.08	379.3	16.09
313.16	381.75	16.2
313.32	382.67	16.24
313.34	379.94	16.12
333.23	390.23	16.56
333.36	386.57	16.4
333.38	386.01	16.38
333.4	385.83	16.37
333.49	390.08	16.55
353.33	396.36	16.82
353.4	392.58	16.66
353.47	397.74	16.88
353.5	396.25	16.81
353.51	393.32	16.69

System: lithium silicide (Li13Si4); phases: Crystal
Fixed: Pressure, kPa = 101.325
Property: Molar heat capacity at constant pressure, J/K/mol (Crystal); method: Small sample (50 mg) DSC
Temperature, K	Molar heat capacity at constant pressure, J/K/mol	uncertainty
304.83	385.9	16.37
304.99	378.4	16.05
305.06	380.63	16.15
314.75	390.96	16.59
314.91	380.84	16.16
314.98	382.46	16.23
324.66	392.99	16.67
324.82	385.29	16.35
324.89	383.87	16.29
334.57	395.02	16.76
334.74	388.74	16.49
334.8	386.91	16.42
344.49	396.23	16.81
344.65	392.99	16.67
344.71	389.95	16.54
354.4	403.12	17.1
354.57	398.05	16.89
354.63	395.02	16.76
364.32	407.17	17.27
364.48	401.7	17.04
364.54	399.07	16.93
374.24	409.6	17.38
374.4	404.94	17.18
374.46	403.12	17.1
384.15	411.42	17.46
384.32	408.59	17.34
384.37	407.78	17.3
393.71	416.08	17.65
394.23	413.25	17.53
394.29	412.03	17.48
403.99	419.32	17.79
404.14	416.29	17.66
404.21	418.11	17.74
413.9	423.38	17.96
414.05	421.75	17.89
414.12	420.34	17.83
423.81	426.62	18.1
423.97	425.4	18.05
424.03	423.38	17.96
433.72	428.24	18.17
433.88	430.26	18.25
433.94	426.41	18.09
443.65	430.47	18.26
443.8	431.88	18.32
443.85	430.67	18.27
453.57	432.09	18.33
453.72	435.73	18.49
453.77	432.9	18.37
463.48	433.71	18.4
463.64	438.37	18.6
463.69	433.91	18.41
473.39	437.35	18.56
473.55	440.39	18.68
473.61	437.15	18.55
483.28	440.59	18.69
483.47	442.01	18.75
483.53	438.77	18.62
493.19	443.43	18.81
493.38	443.63	18.82
493.44	441.2	18.72
503.1	444.85	18.87
503.29	446.87	18.96
503.36	442.82	18.79
513.02	446.87	18.96
513.19	449.91	19.09
513.27	446.87	18.96
522.92	449.3	19.06
523.1	451.94	19.17
523.17	448.09	19.01
532.83	451.74	19.17
533.01	454.98	19.3
533.07	450.52	19.11
542.74	456.6	19.37
542.92	456.8	19.38
542.98	452.95	19.22
552.65	458.62	19.46
552.83	461.05	19.56
552.89	454.98	19.3
562.56	460.24	19.53
562.75	462.88	19.64
562.81	458.22	19.44
572.48	463.08	19.65
572.66	464.5	19.71
572.72	461.86	19.6
582.39	464.7	19.72
582.57	467.54	19.84
582.63	466.93	19.81
592.3	468.35	19.87
592.48	468.75	19.89
592.54	469.56	19.92
602.21	471.99	20.02
602.39	470.98	19.98
602.45	469.36	19.91
612.13	474.22	20.12
612.3	473.21	20.08
612.36	471.79	20.02
622.04	476.45	20.21
622.21	475.64	20.18
622.27	473.21	20.08
631.94	479.08	20.33
632.13	477.06	20.24
632.18	473.82	20.1
641.85	482.73	20.48
642.04	479.49	20.34
642.1	475.03	20.15
651.76	484.75	20.57
651.95	482.32	20.46
652.01	477.06	20.24
661.68	487.19	20.67
661.86	484.35	20.55
661.92	479.89	20.36
671.59	490.83	20.82
671.77	488.81	20.74
671.84	481.72	20.44
681.51	492.86	20.91
681.68	491.24	20.84
681.75	483.54	20.51
691.42	494.28	20.97
691.62	493.26	20.93
691.68	485.36	20.59
701.34	497.92	21.12
701.54	493.67	20.94
701.6	488.2	20.71
711.25	499.34	21.19
711.46	495.49	21.02
711.5	492.25	20.88
721.17	503.39	21.36
721.37	499.14	21.18
721.4	496.3	21.06
731.08	506.84	21.5
731.28	503.39	21.36
731.31	500.35	21.23
741	511.49	21.7
741.2	506.84	21.5
741.22	504.4	21.4
750.92	515.55	21.87
751.12	509.27	21.61
751.14	508.46	21.57
760.84	519.19	22.03
761.03	510.48	21.66
761.06	510.48	21.66
770.76	523.04	22.19
770.95	512.51	21.74
770.98	513.32	21.78
780.68	525.3	22.29
780.86	515.95	21.89
780.9	515.55	21.87
790.6	527.22	22.37
790.77	522.64	22.17
790.82	515.55	21.87
800.5	527.82	22.39
800.7	522.64	22.17
800.74	517.57	21.96
810.42	528.84	22.44
810.61	526.69	22.35
810.65	518.58	22
820.33	531.92	22.57
820.53	530.74	22.52
820.57	520.61	22.09
830.25	532.93	22.61
830.45	532.76	22.6
830.49	523.65	22.22
840.17	536.58	22.77
840.37	538.84	22.86
840.41	527.09	22.36
850.08	538.68	22.85
850.29	544.92	23.12
850.32	531.14	22.53
860	544.31	23.09
860.21	546.54	23.19
860.24	534.59	22.68
869.92	546.94	23.2
870.12	546.13	23.17
870.16	536.61	22.77

System: lithium silicide (Li13Si4); phases: Crystal
Fixed: Pressure, kPa = 101.325
Property: Molar heat capacity at constant pressure, J/K/mol (Crystal); method: relaxation calorimetry - PPMS
Temperature, K	Molar heat capacity at constant pressure, J/K/mol	uncertainty
5	0.1173	0.0189
10	0.6409	0.1026
15	1.872	0.3
20	4.267	0.683
25	8.058	0.323
30	13.19	0.53
35	19.53	0.78
40	26.86	1.07
45	35.36	1.41
50	44.37	1.78
60	64.43	2.58
70	86.7	3.47
80	109.8	4.4
90	132.4	5.3
100	154.4	6.2
110	175.1	7
120	194.7	7.8
130	213	8.5
140	230.2	9.2
150	246	9.8
160	260.8	10.4
170	274.4	11
180	286.8	11.5
190	298.4	11.9
200	308.9	12.4
210	318.6	12.7
220	327.4	13.1
230	335.4	13.4
240	342.9	13.7
250	349.7	14
260	356	14.2
270	361.8	14.5
280	367.2	14.7
290	372.3	14.9
298.15	376.2	15

System: lithium silicide (Li13Si4); phases: Crystal
Fixed: Pressure, kPa = 101.325
Property: Molar entropy, J/K/mol (Crystal); method: relaxation calorimetry - PPMS
Temperature, K	Molar entropy, J/K/mol	uncertainty
5	0.0731	0.0176
10	0.2788	0.0669
15	0.748	0.1795
20	1.581	0.379
25	2.907	0.175
30	4.811	0.289
35	7.31	0.439
40	10.37	0.62
45	14.11	0.85
50	18.19	1.09
60	28.05	1.68
70	39.61	2.38
80	52.7	3.16
90	66.98	4.02
100	82.11	4.93
110	97.75	5.87
120	113.9	6.8
130	130.2	7.8
140	146.5	8.8
150	163	9.8
160	179.4	10.8
170	195.5	11.7
180	211.7	12.7
190	227.5	13.7
200	242.9	14.6
210	258.2	15.5
220	273.4	16.4
230	288	17.3
240	302.4	18.1
250	316.7	19
260	330.5	19.8
270	344.1	20.6
280	357.3	21.4
290	370.3	22.2
298.15	380.6	22.8

System: lithium silicide (Li13Si4); phases: Crystal
Fixed: Pressure, kPa = 101.325
Property: Molar enthalpy function {Hm(T)-Hm(0)}/T, J/K/mol (Crystal); method: relaxation calorimetry - PPMS
Temperature, K	Molar enthalpy function {Hm(T)-Hm(0)}/T, J/K/mol	uncertainty
5	0.0425	0.0068
10	0.1853	0.0297
15	0.5219	0.0835
20	1.122	0.18
25	2.108	0.084
30	3.519	0.141
35	5.338	0.214
40	7.48	0.299
45	10.2	0.41
50	13.09	0.52
60	19.89	0.8
70	27.88	1.12
80	36.72	1.47
90	46.07	1.84
100	55.76	2.23
110	65.79	2.63
120	75.65	3.03
130	85.51	3.42
140	95.2	3.81
150	104.7	4.2
160	114.1	4.6
170	123.1	4.9
180	131.9	5.3
190	140.3	5.6
200	148.4	5.9
210	156.4	6.3
220	163.9	6.6
230	171.2	6.8
240	178.2	7.1
250	185	7.4
260	191.4	7.7
270	197.5	7.9
280	203.5	8.1
290	209.3	8.4
298.15	213.9	8.6

System: lithium silicide (Li13Si4); phases: Crystal
Fixed: Pressure, kPa = 101.325
Property: Molar heat capacity at constant pressure, J/K/mol (Crystal); method: Small sample (50 mg) DSC
Temperature, K	Molar heat capacity at constant pressure, J/K/mol	uncertainty
300	377.2	16
320	385.2	16.3
340	393.4	16.7
360	401	17
380	408.2	17.3
400	415	17.6
420	421.4	17.9
440	427.7	18.1
460	433.7	18.4
480	439.3	18.6
500	444.7	18.9
520	450	19.1
540	455.3	19.3
560	460.2	19.5
580	465.1	19.7
600	470.1	19.9
620	475	20.2
640	479.9	20.4
660	484.7	20.6
680	489.6	20.8
700	494.7	21
720	499.8	21.2
740	505.2	21.4
760	510.7	21.7
780	516.3	21.9
800	522.2	22.2
820	528.4	22.4
840	534.8	22.7
860	541.6	23

System: lithium silicide (Li13Si4); phases: Crystal
Fixed: Pressure, kPa = 101.325
Property: Molar entropy, J/K/mol (Crystal); method: Small sample (50 mg) DSC
Temperature, K	Molar entropy, J/K/mol	uncertainty
300	383	24.4
320	407.5	25.9
340	431.1	27.4
360	453.9	28.9
380	475.7	30.3
400	496.7	31.6
420	517.1	32.9
440	537	34.2
460	556.1	35.4
480	574.8	36.6
500	592.8	37.7
520	610.3	38.8
540	627.3	39.9
560	644	41
580	660.3	42
600	676.1	43
620	691.6	44
640	706.7	45
660	721.7	45.9
680	736.1	46.8
700	750.4	47.8
720	764.5	48.7
740	778.3	49.5
760	791.7	50.4
780	805.1	51.2
800	818.2	52.1
820	831.1	52.9
840	844.1	53.7
860	856.6	54.5

System: lithium silicide (Li13Si4); phases: Crystal
Fixed: Pressure, kPa = 101.325
Property: Molar enthalpy function {Hm(T)-Hm(0)}/T, J/K/mol (Crystal); method: Small sample (50 mg) DSC
Temperature, K	Molar enthalpy function {Hm(T)-Hm(0)}/T, J/K/mol	uncertainty
300	214.9	9.1
320	225.3	9.6
340	234.8	10
360	244	10.4
380	252.3	10.7
400	260.3	11
420	267.8	11.4
440	274.9	11.7
460	281.7	12
480	288.2	12.2
500	294.3	12.5
520	300.2	12.7
540	305.8	13
560	311.3	13.2
580	316.5	13.4
600	321.5	13.6
620	326.4	13.8
640	331.2	14.1
660	335.8	14.2
680	340.2	14.4
700	344.6	14.6
720	348.7	14.8
740	352.9	15
760	357	15.1
780	361.1	15.3
800	365	15.5
820	368.9	15.7
840	372.8	15.8
860	376.6	16

System: lithium silicide (Li22Si5); phases: Crystal
Fixed: Pressure, kPa = 101.325
Property: Molar heat capacity at constant pressure, J/K/mol (Crystal); method: relaxation calorimetry - PPMS
Temperature, K	Molar heat capacity at constant pressure, J/K/mol	uncertainty
5	0.3051	0.0489
10	0.81	0.1296
15	2.017	0.323
20	4.455	0.713
25	8.883	0.356
30	15.58	0.62
35	24.6	0.98
40	35.64	1.43
45	48.87	1.96
50	63.72	2.55
60	96.12	3.85
70	133.1	5.3
80	170.6	6.8
90	207.6	8.3
100	243	9.7
110	276.5	11.1
120	307.8	12.3
130	337.2	13.5
140	364.8	14.6
150	389.9	15.6
160	413.4	16.5
170	435	17.4
180	454.7	18.2
190	473	18.9
200	489.8	19.6
210	504.9	20.2
220	518.9	20.8
230	531.9	21.3
240	543.8	21.8
250	554.6	22.2
260	564.8	22.6
270	574.3	23
280	583.5	23.3
290	592.1	23.7
298.15	599.1	24

System: lithium silicide (Li22Si5); phases: Crystal
Fixed: Pressure, kPa = 101.325
Property: Molar entropy, J/K/mol (Crystal); method: relaxation calorimetry - PPMS
Temperature, K	Molar entropy, J/K/mol	uncertainty
5	0.3105	0.0745
10	0.6507	0.1562
15	1.18	0.283
20	2.052	0.493
25	3.483	0.209
30	5.67	0.34
35	8.721	0.523
40	12.69	0.76
45	17.55	1.05
50	23.49	1.41
60	37.8	2.27
70	55.35	3.32
80	75.6	4.54
90	98.01	5.88
100	121.8	7.3
110	146.3	8.8
120	171.7	10.3
130	197.6	11.9
140	223.6	13.4
150	249.8	15
160	275.7	16.5
170	301.3	18.1
180	326.7	19.6
190	351.8	21.1
200	376.7	22.6
210	400.7	24
220	424.7	25.5
230	447.9	26.9
240	470.9	28.3
250	493.3	29.6
260	515.2	30.9
270	536.8	32.2
280	557.8	33.5
290	578.3	34.7
298.15	594.5	35.7

System: lithium silicide (Li22Si5); phases: Crystal
Fixed: Pressure, kPa = 101.325
Property: Molar enthalpy function {Hm(T)-Hm(0)}/T, J/K/mol (Crystal); method: relaxation calorimetry - PPMS
Temperature, K	Molar enthalpy function {Hm(T)-Hm(0)}/T, J/K/mol	uncertainty
5	0.1539	0.0246
10	0.3375	0.054
15	0.6723	0.1076
20	1.269	0.203
25	2.322	0.093
30	3.942	0.158
35	6.21	0.249
40	9.18	0.367
45	12.96	0.52
50	17.28	0.69
60	27.54	1.1
70	39.96	1.6
80	54	2.16
90	68.85	2.75
100	84.51	3.38
110	100.4	4
120	116.6	4.7
130	132.3	5.3
140	148	5.9
150	163.4	6.5
160	178.2	7.1
170	192.8	7.7
180	206.8	8.3
190	220.3	8.8
200	233.3	9.3
210	246	9.8
220	258.1	10.3
230	269.7	10.8
240	280.8	11.2
250	291.6	11.7
260	301.9	12.1
270	311.9	12.5
280	321.3	12.9
290	330.5	13.2
298.15	337.8	13.5

System: lithium silicide (Li22Si5); phases: Crystal
Fixed: Pressure, kPa = 101.325
Property: Molar heat capacity at constant pressure, J/K/mol (Crystal); method: Small sample (50 mg) DSC
Temperature, K	Molar heat capacity at constant pressure, J/K/mol	uncertainty
300	600.8	25.5
320	614.3	26.1
340	627.5	26.6
360	639.9	27.1
380	652.1	27.7
400	663.7	28.2
420	675.3	28.7
440	686.3	29.1
460	697.4	29.6
480	708.5	30.1
500	719	30.5
520	729.8	31
540	740.3	31.4
560	750.9	31.9
580	761.1	32.3
600	771.4	32.7
620	781.9	33.2
640	792.5	33.6
660	803.3	34.1
680	814.6	34.6
700	827.6	35.1
720	842.7	35.8
740	862.1	36.6
760	889.1	37.7
780	928	39.4
800	986.6	41.9
820	1075	46
830	1135	48

System: lithium silicide (Li22Si5); phases: Crystal
Fixed: Pressure, kPa = 101.325
Property: Molar entropy, J/K/mol (Crystal); method: Small sample (50 mg) DSC
Temperature, K	Molar entropy, J/K/mol	uncertainty
300	598.6	38.1
320	637.7	40.6
340	675.5	43
360	711.7	45.3
380	746.6	47.5
400	780.3	49.7
420	813	51.7
440	844.8	53.8
460	875.3	55.7
480	905.3	57.6
500	934.5	59.5
520	962.8	61.3
540	990.6	63
560	1018	65
580	1044	66
600	1070	68
620	1096	70
640	1121	71
660	1145	73
680	1169	74
700	1193	76
720	1217	77
740	1240	79
760	1263	80
780	1287	82
800	1311	83
820	1337	85
830	1350	86

System: lithium silicide (Li22Si5); phases: Crystal
Fixed: Pressure, kPa = 101.325
Property: Molar enthalpy function {Hm(T)-Hm(0)}/T, J/K/mol (Crystal); method: Small sample (50 mg) DSC
Temperature, K	Molar enthalpy function {Hm(T)-Hm(0)}/T, J/K/mol	uncertainty
300	339.4	14.4
320	356.1	15.1
340	371.8	15.8
360	386.4	16.4
380	399.9	17
400	412.8	17.5
420	425	18
440	436.6	18.5
460	447.7	19
480	458.5	19.5
500	468.7	19.9
520	478.4	20.3
540	487.9	20.7
560	497.1	21.1
580	506	21.5
600	514.9	21.8
620	523.3	22.2
640	531.4	22.5
660	539.5	22.9
680	547.6	23.2
700	555.4	23.6
720	563	23.9
740	570.8	24.2
760	578.9	24.6
780	587.3	24.9
800	596.4	25.3
820	607	25.8
830	612.9	26

System: lithium silicide (Li22Si5); phases: Crystal
Fixed: Pressure, kPa = 101.325
Property: Molar heat capacity at constant pressure, J/K/mol (Crystal); method: relaxation calorimetry - PPMS
Temperature, K	Molar heat capacity at constant pressure, J/K/mol	uncertainty
2.04	0.132	0.0212
2.25	0.1446	0.0232
2.46	0.1565	0.0251
2.67	0.1659	0.0266
2.88	0.1793	0.0287
3.09	0.1895	0.0303
3.3	0.2021	0.0324
3.51	0.2132	0.0341
3.72	0.2244	0.0359
3.93	0.2372	0.038
4.14	0.2507	0.0401
4.35	0.2659	0.0426
4.56	0.2777	0.0445
4.77	0.2913	0.0466
4.97	0.3059	0.049
5.18	0.318	0.0509
5.39	0.3325	0.0532
5.6	0.3458	0.0553
5.81	0.3597	0.0576
6.02	0.3769	0.0603
6.23	0.3924	0.0628
6.44	0.4048	0.0648
6.65	0.423	0.0677
6.86	0.4422	0.0708
7.07	0.4587	0.0734
7.28	0.481	0.077
7.49	0.4986	0.0798
7.69	0.5205	0.0833
7.9	0.5424	0.0868
8.11	0.5629	0.0901
8.32	0.5859	0.0938
8.53	0.6094	0.0975
8.73	0.6311	0.101
8.94	0.6587	0.1054
9.15	0.6876	0.11
10.21	0.8445	0.1352
13.31	1.4933	0.239
16.45	2.5505	0.4082
19.59	4.2139	0.6743
22.74	6.619	0.2654
25.83	9.837	0.3942
28.98	14.002	0.561
32.12	19.089	0.764
35.26	25.134	1.006
38.4	32.022	1.282
41.55	39.601	1.585
44.69	47.932	1.918
47.84	57.033	2.282
50.97	66.674	2.668
54.11	76.73	3.07
57.25	87.2	3.49
60.39	98.02	3.92
63.53	109.09	4.36
66.67	120.42	4.82
69.82	131.97	5.28
72.96	143.78	5.75
76.1	155.44	6.22
79.24	166.88	6.68
82.38	178.87	7.16
85.52	190.25	7.61
88.65	201.74	8.07
91.79	213.16	8.53
94.93	224.73	8.99
100.96	245.99	9.84
111.54	282.6	11.3
122.18	317.18	12.69
132.78	347.17	13.89
143.42	376.44	15.06
154.04	401.89	16.08
164.61	424.7	16.99
175.26	444.8	17.79
185.87	463.29	18.53
196.5	480.92	19.24
207.12	497.08	19.88
217.71	513.42	20.54
228.31	526.67	21.07
238.85	542.29	21.69
249.41	558.36	22.33
259.97	567.27	22.69
270.63	575.75	23.03
281.23	586.74	23.47
291.74	597.58	23.9
302.46	602.67	24.11

System: lithium silicide (Li22Si5); phases: Crystal
Fixed: Pressure, kPa = 101.325
Property: Molar heat capacity at constant pressure, J/K/mol (Crystal); method: Small sample (50 mg) DSC
Temperature, K	Molar heat capacity at constant pressure, J/K/mol	uncertainty
293.11	594.31	25.21
293.11	590.29	25.04
293.12	593.63	25.19
313.14	605.91	25.71
313.14	605.77	25.7
313.14	601.27	25.51
333.16	619.54	26.28
333.17	624.01	26.47
333.17	615.96	26.13
353.22	631.09	26.77
353.22	633.92	26.89
353.22	627.01	26.6

System: lithium silicide (Li22Si5); phases: Crystal
Fixed: Pressure, kPa = 101.325
Property: Molar heat capacity at constant pressure, J/K/mol (Crystal); method: Small sample (50 mg) DSC
Temperature, K	Molar heat capacity at constant pressure, J/K/mol	uncertainty
304.81	611.49	25.94
304.88	610.02	25.88
314.73	617.94	26.22
314.8	617.94	26.22
324.65	623.21	26.44
324.71	624.39	26.49
334.56	631.71	26.8
334.62	632.59	26.84
344.48	641.97	27.24
344.53	639.92	27.15
354.39	649.3	27.55
354.45	646.08	27.41
364.31	652.23	27.67
364.36	648.42	27.51
374.23	657.22	27.88
374.28	654.58	27.77
384.14	658.39	27.93
384.2	659.27	27.97
394.05	663.96	28.17
394.12	665.43	28.23
403.97	669.82	28.42
404.03	672.46	28.53
413.88	675.39	28.65
413.94	677.74	28.75
423.79	682.72	28.97
423.85	683.89	29.01
433.71	690.93	29.31
433.77	681.84	28.93
443.69	696.79	29.56
453.61	685.65	29.09
463.46	696.5	29.55
463.52	683.01	28.98
473.37	704.12	29.87
473.43	698.26	29.62
483.27	709.1	30.08
483.34	699.14	29.66
493.17	714.97	30.33
493.25	709.1	30.08
503.08	720.24	30.56
503.16	716.14	30.38
512.99	724.05	30.72
513.06	721.42	30.61
522.91	727.86	30.88
522.97	725.52	30.78
532.82	728.74	30.92
532.89	730.8	31.01
542.72	735.19	31.19
542.8	737.54	31.29
552.63	739.3	31.37
552.71	745.45	31.63
562.55	743.11	31.53
562.62	753.07	31.95
572.46	750.44	31.84
572.53	758.64	32.19
582.37	754.54	32.01
582.44	765.39	32.47
592.28	761.87	32.32
592.35	770.66	32.7
602.2	765.68	32.49
602.27	776.82	32.96
612.11	773.3	32.81
612.18	781.8	33.17
622.02	776.23	32.93
622.09	786.49	33.37
631.93	781.22	33.14
632	788.84	33.47
641.84	788.54	33.45
641.91	794.11	33.69
651.75	795.58	33.75
651.82	800.56	33.96
661.66	799.39	33.92
661.74	809.06	34.33
671.57	809.65	34.35
671.65	818.74	34.74
681.48	811.41	34.43
681.57	816.98	34.66
691.4	817.56	34.69
691.49	829.58	35.2
701.33	824.01	34.96
701.41	838.67	35.58
711.25	833.39	35.36
711.31	846.29	35.91
721.17	842.77	35.76
721.23	853.91	36.23
731.08	856.55	36.34
731.15	859.78	36.48
741	864.17	36.66
741.06	876.19	37.17
750.92	876.19	37.17
750.98	886.45	37.61
760.83	891.73	37.83
760.9	895.54	37.99
770.75	897.3	38.07
770.82	909.32	38.58
780.66	925.44	39.26
780.74	938.92	39.84
790.58	955.63	40.54
790.65	964.72	40.93
800.5	992.86	42.12
800.57	984.65	41.78
810.41	1012.8	42.97
810.49	1006.64	42.71
820.32	1073.48	45.54
820.41	1067.32	45.28
830.22	1133.28	48.08
830.32	1165.81	49.46
