Measured thermophysical data. Excess volumes and partial molar volumes of binary mixtures of 1,2-propanediol carbonate with xylene in the temperature range of (293.15 to 353.15) K
Source: J. Chem. Thermodyn., 2005, 10.1016/j.jct.2005.01.017
Compound 1: 4-methyl-1,3-dioxolan-2-one, C4H6O3, InChI=1S/C4H6O3/c1-3-2-6-4(5)7-3/h3H,2H2,1H3, purity 99.8%
Compound 2: 1,2-dimethylbenzene, C8H10, InChI=1S/C8H10/c1-7-5-3-4-6-8(7)2/h3-6H,1-2H3, purity 99.7%
Compound 3: 1,3-dimethylbenzene, C8H10, InChI=1S/C8H10/c1-7-4-3-5-8(2)6-7/h3-6H,1-2H3, purity 98%
Compound 4: 1,4-dimethylbenzene, C8H10, InChI=1S/C8H10/c1-7-3-5-8(2)6-4-7/h3-6H,1-2H3, purity 99%

System: 4-methyl-1,3-dioxolan-2-one; phases: Liquid
Fixed: Pressure, kPa = 101
Property: Mass density, kg/m3 (Liquid); method: VIBTUB:UFactor:16
Temperature, K	Mass density, kg/m3	uncertainty
293.15	1200.25	40.03
303.15	1180.55	40.03
303.15	1180.56	40.03
313.15	1161.28	40.02
323.15	1142.43	40.02
333.15	1123.99	40.02
343.15	1105.98	40.01
353.15	1088.38	40.01

System: 1,2-dimethylbenzene; phases: Liquid
Fixed: Pressure, kPa = 101
Property: Mass density, kg/m3 (Liquid); method: VIBTUB:UFactor:16
Temperature, K	Mass density, kg/m3	uncertainty
293.15	878.6	40.02
303.15	872.25	40.02
313.15	859.67	40.02
323.15	840.84	40.02
333.15	815.74	40.03
343.15	784.38	40.04
353.15	746.76	40.05

System: 1,3-dimethylbenzene; phases: Liquid
Fixed: Pressure, kPa = 101
Property: Mass density, kg/m3 (Liquid); method: VIBTUB:UFactor:16
Temperature, K	Mass density, kg/m3	uncertainty
293.15	864.2	1.95
303.15	855.76	2.01
313.15	847.11	2.07
323.15	838.27	2.13
333.15	829.22	2.19
343.15	819.97	2.26
353.15	810.51	2.33

System: 1,4-dimethylbenzene; phases: Liquid
Fixed: Pressure, kPa = 101
Property: Mass density, kg/m3 (Liquid); method: VIBTUB:UFactor:16
Temperature, K	Mass density, kg/m3	uncertainty
293.15	861	1.82
303.15	852.28	1.88
313.15	843.58	1.95
323.15	834.92	2.02
333.15	826.27	2.09
343.15	817.66	2.16
353.15	809.07	2.22

System: 1,4-dimethylbenzene + 4-methyl-1,3-dioxolan-2-one; phases: Liquid
Fixed: Pressure, kPa = 101
Property: Mass density, kg/m3 (Liquid); method: VIBTUB:UFactor:16
Temperature, K	Mole fraction of 1,4-dimethylbenzene	Mass density, kg/m3	uncertainty
293.15	0	1200.25	40.03
293.15	0.0487	1177.59	40.03
293.15	0.1238	1144.26	40.02
293.15	0.1793	1120.81	40.02
293.15	0.2482	1093.01	40.01
293.15	0.3125	1068.33	40.01
293.15	0.381	1043.26	40.01
293.15	0.4371	1023.64	40.01
293.15	0.4972	1003.44	40
293.15	0.5622	982.49	40.01
293.15	0.6329	960.71	40.01
293.15	0.6938	942.7	40.01
293.15	0.7421	928.88	40.01
293.15	0.8023	912.2	40.01
293.15	0.8592	896.93	40.02
293.15	0.9247	879.91	40.02
293.15	1	861	40.02
303.15	0	1180.56	40.03
303.15	0.0523	1157.1	40.02
303.15	0.123	1126.84	40.02
303.15	0.1836	1102.14	40.01
303.15	0.2381	1080.85	40.01
303.15	0.3263	1048.15	40.01
303.15	0.3741	1031.29	40.01
303.15	0.4233	1014.5	40
303.15	0.4794	996.06	40
303.15	0.5573	971.57	40.01
303.15	0.6233	951.77	40.01
303.15	0.6843	934.2	40.01
303.15	0.7538	914.94	40.01
303.15	0.8148	898.66	40.02
303.15	0.8731	883.59	40.02
303.15	0.9362	867.79	40.02
303.15	1	852.28	40.02
313.15	0	1161.28	40.02
313.15	0.0543	1137.8	40.02
313.15	0.1173	1111.72	40.02
313.15	0.1598	1094.8	40.01
313.15	0.2294	1068.21	40.01
313.15	0.2849	1047.95	40.01
313.15	0.3598	1021.87	40.01
313.15	0.4381	996.03	40
313.15	0.482	982.14	40.01
313.15	0.5359	965.64	40.01
313.15	0.6021	946.14	40.01
313.15	0.6721	926.39	40.01
313.15	0.7359	909.11	40.01
313.15	0.8243	886.17	40.02
313.15	0.8817	871.85	40.02
313.15	0.9274	860.74	40.02
313.15	1	843.58	40.02
323.15	0	1142.43	40.02
323.15	0.0623	1116.49	40.02
323.15	0.1246	1091.71	40.01
323.15	0.1822	1069.79	40.01
323.15	0.2483	1045.74	40.01
323.15	0.3193	1021.16	40.01
323.15	0.3719	1003.72	40
323.15	0.4389	982.42	40.01
323.15	0.5032	962.87	40.01
323.15	0.5579	946.88	40.01
323.15	0.6234	928.45	40.01
323.15	0.6972	908.56	40.01
323.15	0.7529	894.11	40.02
323.15	0.8137	878.84	40.02
323.15	0.8724	864.57	40.02
323.15	0.9378	849.15	40.02
323.15	1	834.92	40.03
333.15	0	1123.99	40.02
333.15	0.0598	1099.91	40.01
333.15	0.1387	1069.71	40.01
333.15	0.1738	1056.82	40.01
333.15	0.2384	1033.93	40.01
333.15	0.3283	1003.8	40
333.15	0.3918	983.64	40
333.15	0.452	965.32	40.01
333.15	0.5138	947.26	40.01
333.15	0.5821	928.14	40.01
333.15	0.6518	909.44	40.01
333.15	0.7139	893.44	40.02
333.15	0.783	876.29	40.02
333.15	0.8346	863.9	40.02
333.15	0.8814	852.95	40.02
333.15	0.9471	837.99	40.03
333.15	1	826.27	40.03
343.15	0	1105.98	40.01
343.15	0.0643	1081	40.01
343.15	0.1241	1058.78	40.01
343.15	0.1839	1037.51	40.01
343.15	0.245	1016.69	40
343.15	0.3183	992.89	40
343.15	0.3891	971.03	40.01
343.15	0.4498	953.11	40.01
343.15	0.5021	938.24	40.01
343.15	0.5721	919.11	40.01
343.15	0.6592	896.46	40.02
343.15	0.7134	882.94	40.02
343.15	0.7635	870.82	40.02
343.15	0.8247	856.45	40.02
343.15	0.8848	842.78	40.02
343.15	0.9522	827.92	40.03
343.15	1	817.66	40.03
353.15	0	1088.38	40.01
353.15	0.0505	1069.32	40.01
353.15	0.1184	1044.77	40.01
353.15	0.1739	1025.56	40.01
353.15	0.2289	1007.26	40
353.15	0.2847	989.41	40
353.15	0.3571	967.26	40.01
353.15	0.4248	947.53	40.01
353.15	0.4972	927.39	40.01
353.15	0.5539	912.26	40.01
353.15	0.6198	895.34	40.02
353.15	0.674	881.93	40.02
353.15	0.7354	867.23	40.02
353.15	0.7842	855.91	40.02
353.15	0.8527	840.5	40.03
353.15	0.9247	824.87	40.03
353.15	1	809.07	40.03

System: 1,2-dimethylbenzene + 4-methyl-1,3-dioxolan-2-one; phases: Liquid
Fixed: Pressure, kPa = 101
Property: Mass density, kg/m3 (Liquid); method: VIBTUB:UFactor:16
Temperature, K	Mole fraction of 1,2-dimethylbenzene	Mass density, kg/m3	uncertainty
293.15	0	1200.25	40.03
293.15	0.0538	1176.67	40.03
293.15	0.1287	1145.43	40.02
293.15	0.1843	1123.36	40.02
293.15	0.2358	1103.71	40.01
293.15	0.3149	1074.93	40.01
293.15	0.3559	1060.64	40.01
293.15	0.4247	1037.54	40.01
293.15	0.4792	1020.01	40
293.15	0.5345	1002.84	40
293.15	0.6031	982.36	40
293.15	0.6638	964.97	40.01
293.15	0.7213	949.05	40.01
293.15	0.7832	932.49	40.01
293.15	0.8529	914.51	40.01
293.15	0.9284	895.76	40.01
293.15	1	878.6	40.02
303.15	0	1180.55	40.03
303.15	0.0613	1155.03	40.02
303.15	0.1273	1128.84	40.02
303.15	0.1732	1111.36	40.02
303.15	0.2583	1080.45	40.01
303.15	0.3341	1054.45	40.01
303.15	0.3619	1045.26	40.01
303.15	0.4282	1024.01	40
303.15	0.4911	1004.69	40
303.15	0.5538	986.2	40
303.15	0.6132	969.33	40.01
303.15	0.6739	952.71	40.01
303.15	0.7428	934.53	40.01
303.15	0.8023	919.3	40.01
303.15	0.8631	904.39	40.01
303.15	0.9347	887.3	40.02
303.15	1	872.25	40.02
313.15	0	1161.28	40.02
313.15	0.0643	1135.09	40.02
313.15	0.1138	1115.77	40.02
313.15	0.1729	1093.62	40.01
313.15	0.2483	1066.72	40.01
313.15	0.3248	1040.87	40.01
313.15	0.3958	1018.07	40
313.15	0.4587	998.77	40
313.15	0.518	981.29	40
313.15	0.5628	968.51	40.01
313.15	0.6345	948.78	40.01
313.15	0.6948	932.83	40.01
313.15	0.7539	917.73	40.01
313.15	0.8039	905.34	40.01
313.15	0.8621	891.32	40.01
313.15	0.9357	874.17	40.02
313.15	1	859.67	40.02
323.15	0	1142.43	40.02
323.15	0.0527	1120.67	40.02
323.15	0.1328	1089.28	40.01
323.15	0.1842	1070.13	40.01
323.15	0.2487	1047.11	40.01
323.15	0.3398	1016.41	40
323.15	0.3781	1004.09	40
323.15	0.4487	982.22	40
323.15	0.5031	966.07	40.01
323.15	0.5529	951.78	40.01
323.15	0.6249	931.92	40.01
323.15	0.6843	916.18	40.01
323.15	0.7451	900.64	40.01
323.15	0.8146	883.52	40.02
323.15	0.8702	870.29	40.02
323.15	0.9429	853.56	40.02
323.15	1	840.84	40.02
333.15	0	1123.99	40.02
333.15	0.0578	1099.25	40.01
333.15	0.1298	1070.06	40.01
333.15	0.1844	1049.03	40.01
333.15	0.2358	1030.04	40.01
333.15	0.3139	1002.61	40
333.15	0.3847	979.1	40
333.15	0.4412	961.2	40.01
333.15	0.5055	941.69	40.01
333.15	0.5572	926.61	40.01
333.15	0.6148	910.43	40.01
333.15	0.6627	897.43	40.01
333.15	0.7365	878.16	40.02
333.15	0.7947	863.56	40.02
333.15	0.8634	846.95	40.02
333.15	0.9354	830.22	40.03
333.15	1	815.74	40.03
343.15	0	1105.98	40.01
343.15	0.0527	1081.81	40.01
343.15	0.1278	1049.31	40.01
343.15	0.1782	1028.67	40.01
343.15	0.2476	1001.67	40
343.15	0.3279	972.32	40.01
343.15	0.3841	952.89	40.01
343.15	0.4529	930.23	40.01
343.15	0.5139	911.13	40.01
343.15	0.5732	893.36	40.01
343.15	0.6241	878.7	40.02
343.15	0.6742	864.77	40.02
343.15	0.7246	851.23	40.02
343.15	0.7726	838.75	40.02
343.15	0.8523	818.84	40.03
343.15	0.9274	800.96	40.03
343.15	1	784.38	40.04
353.15	0	1088.38	40.01
353.15	0.0639	1056.4	40.01
353.15	0.1128	1033.26	40.01
353.15	0.1832	1001.84	40
353.15	0.2478	974.79	40
353.15	0.3255	944.31	40.01
353.15	0.3859	922.03	40.01
353.15	0.4628	895.28	40.01
353.15	0.5248	874.93	40.02
353.15	0.5819	857.07	40.02
353.15	0.6249	844.14	40.02
353.15	0.6829	827.36	40.03
353.15	0.7249	815.64	40.03
353.15	0.7821	800.25	40.03
353.15	0.8698	777.8	40.04
353.15	0.9247	764.4	40.04
353.15	1	746.76	40.05

System: 4-methyl-1,3-dioxolan-2-one + 1,3-dimethylbenzene; phases: Liquid
Fixed: Pressure, kPa = 101
Property: Mass density, kg/m3 (Liquid); method: VIBTUB:UFactor:16
Temperature, K	Mole fraction of 1,3-dimethylbenzene	Mass density, kg/m3	uncertainty
293.15	0	1200.25	40.03
293.15	0.0576	1173.76	40.03
293.15	0.1263	1143.64	40.02
293.15	0.1735	1123.83	40.02
293.15	0.2267	1102.36	40.02
293.15	0.2867	1079.14	40.01
293.15	0.3548	1054	40.01
293.15	0.4243	1029.6	40.01
293.15	0.4671	1015.15	40.01
293.15	0.5341	993.4	40.01
293.15	0.5811	978.7	40.01
293.15	0.6532	957.01	40.01
293.15	0.7213	937.38	40.01
293.15	0.7831	920.23	40.02
293.15	0.8421	904.39	40.02
293.15	0.9212	883.89	40.02
293.15	1	864.2	40.03
303.15	0	1180.56	40.03
303.15	0.0476	1159.4	40.02
303.15	0.1178	1129.53	40.02
303.15	0.1822	1103.48	40.01
303.15	0.2248	1086.93	40.01
303.15	0.2978	1059.75	40.01
303.15	0.3681	1034.91	40.01
303.15	0.4348	1012.48	40.01
303.15	0.5038	990.33	40.01
303.15	0.5598	973.11	40.01
303.15	0.6139	957.05	40.01
303.15	0.6738	939.89	40.01
303.15	0.7355	922.85	40.02
303.15	0.8021	905.11	40.02
303.15	0.8837	884.19	40.02
303.15	0.9475	868.42	40.03
303.15	1	855.76	40.03
313.15	0	1161.28	40.02
313.15	0.0564	1137.19	40.02
313.15	0.1291	1107.58	40.02
313.15	0.1781	1088.5	40.01
313.15	0.2378	1066.16	40.01
313.15	0.3021	1043.18	40.01
313.15	0.3614	1022.91	40.01
313.15	0.4243	1002.32	40.01
313.15	0.4861	982.96	40.01
313.15	0.5349	968.22	40.01
313.15	0.5924	951.44	40.01
313.15	0.6521	934.66	40.01
313.15	0.7134	918.04	40.02
313.15	0.7634	904.91	40.02
313.15	0.8325	887.34	40.02
313.15	0.9334	862.75	40.03
313.15	1	847.11	40.03
323.15	0	1142.43	40.02
323.15	0.0525	1120.74	40.02
323.15	0.1203	1093.93	40.01
323.15	0.1832	1070.24	40.01
323.15	0.2498	1046.31	40.01
323.15	0.3103	1025.54	40.01
323.15	0.3667	1006.98	40.01
323.15	0.4327	986.16	40.01
323.15	0.4962	967.01	40.01
323.15	0.5587	948.93	40.01
323.15	0.6148	933.3	40.01
323.15	0.6813	915.46	40.02
323.15	0.7539	896.75	40.02
323.15	0.8013	884.94	40.02
323.15	0.8625	870.1	40.03
323.15	0.9346	853.17	40.03
323.15	1	838.27	40.03
333.15	0	1123.99	40.02
333.15	0.0478	1104.87	40.01
333.15	0.1249	1075.39	40.01
333.15	0.1942	1050.25	40.01
333.15	0.2571	1028.52	40.01
333.15	0.3245	1006.29	40.01
333.15	0.3878	986.36	40.01
333.15	0.4313	973.16	40.01
333.15	0.5138	949.16	40.01
333.15	0.582	930.28	40.01
333.15	0.6842	903.43	40.02
333.15	0.7323	891.34	40.02
333.15	0.7723	881.53	40.02
333.15	0.8248	868.96	40.03
333.15	0.8833	855.34	40.03
333.15	0.9429	841.84	40.03
333.15	1	829.22	40.03
343.15	0	1105.98	40.01
343.15	0.0634	1081.55	40.01
343.15	0.1278	1057.84	40.01
343.15	0.1798	1039.5	40.01
343.15	0.2348	1020.82	40.01
343.15	0.3013	999.21	40
343.15	0.3703	977.83	40.01
343.15	0.4259	961.33	40.01
343.15	0.4829	945.05	40.01
343.15	0.5329	931.26	40.01
343.15	0.5928	915.31	40.02
343.15	0.6528	899.92	40.02
343.15	0.7132	884.96	40.02
343.15	0.7829	868.32	40.02
343.15	0.8532	852.13	40.03
343.15	0.9253	836.07	40.03
343.15	1	819.97	40.04
353.15	0	1088.38	40.01
353.15	0.0622	1065.11	40.01
353.15	0.1199	1044.44	40.01
353.15	0.1874	1021.32	40.01
353.15	0.2401	1004.03	40
353.15	0.3149	980.58	40.01
353.15	0.3871	959.07	40.01
353.15	0.451	940.91	40.01
353.15	0.5249	920.84	40.01
353.15	0.5832	905.67	40.02
353.15	0.6591	886.72	40.02
353.15	0.7249	870.97	40.02
353.15	0.7719	860.05	40.03
353.15	0.8529	841.86	40.03
353.15	0.8941	832.88	40.03
353.15	0.9483	821.31	40.04
353.15	1	810.51	40.04
