Measured thermophysical data. Thermodynamic properties of caesium magnesium monophosphate
Source: J. Chem. Thermodyn., 2008, 10.1016/j.jct.2007.11.001
Compound 1: caesium-magnesium monophosphate, CsMgO4P, InChI=1S/Cs.Mg.H3O4P/c;;1-5(2,3)4/h;;(H3,1,2,3,4)/q+1;+2;/p-3

System: caesium-magnesium monophosphate; phases: Crystal 2, Crystal 1, Gas
Property: Molar enthalpy of transition or fusion, kJ/mol (Crystal 2); method: Adiabatic calorimetry
Molar enthalpy of transition or fusion, kJ/mol	uncertainty
0.2713	0.0255

System: caesium-magnesium monophosphate; phases: Crystal 2, Crystal 1, Air at 1 atmosphere
Property: Triple point temperature, K (Crystal 2); method: Adiabatic calorimetry
Triple point temperature, K	uncertainty
235.69	0.2

System: caesium-magnesium monophosphate; phases: Crystal 2
Fixed: Pressure, kPa = 101.325
Property: Molar heat capacity at constant pressure, J/K/mol (Crystal 2); method: Small (less than 1 g) adiabatic calorimetry
Temperature, K	Molar heat capacity at constant pressure, J/K/mol	uncertainty
7.22	0.956	0.03
7.3	0.981	0.03
7.96	1.22	0.04
8	1.24	0.04
8.7	1.59	0.05
9.4	1.98	0.06
10.09	2.4	0.05
10.42	2.67	0.05
11.01	3.12	0.056
11.69	3.64	0.061
12.4	4.2	0.067
13.07	4.7	0.071
13.9	5.392	0.077
14.63	6.03	0.0831
15.35	6.706	0.0898
16.06	7.41	0.0956
16.84	8.22	0.1023
17.45	8.872	0.108
18.81	10.39	0.116
19.49	11.15	0.125
20.16	11.94	0.133
21.16	13.14	0.141
22.91	15.3	0.158
25.31	18.18	0.166
27.75	20.87	0.183
30.21	23.48	0.191
32.69	25.92	0.208
35.16	28.27	0.224
37.64	30.51	0.233
40.12	32.64	0.208
42.6	34.69	0.216
45.08	36.64	0.216
47.57	38.55	0.224
52.52	41.99	0.241
54.99	43.63	0.249
57.47	45.23	0.249
59.95	46.77	0.258
61.64	47.78	0.266
63.99	49.13	0.266
67.48	51.06	0.274
71.15	53	0.283
74.82	54.85	0.291
78.48	56.63	0.299
82.15	58.35	0.308
82.7	58.61	0.308
85.82	60.04	0.308
85.9	60.06	0.308
88.99	61.45	0.316
89.49	61.67	0.316
91.95	62.76	0.349
94.91	64.05	0.358
97.87	65.34	0.358
100.82	66.59	0.358
103.77	67.82	0.366
106.72	69.04	0.366
109.68	70.27	0.374
112.63	71.51	0.374
115.8	72.79	0.382
118.91	74.06	0.382
121.88	75.27	0.391
124.84	76.48	0.391
127.8	77.7	0.399
130.76	78.9	0.399
133.72	80.09	0.399
136.69	81.3	0.42
139.65	82.5	0.42
142.62	83.64	0.42
145.59	84.81	0.42
148.56	85.97	0.42
151.53	87.14	0.42
154.5	88.22	0.42
157.6	89.38	0.42
160.43	90.46	0.42
163.6	91.63	0.42
166.37	92.62	0.42
169.34	93.7	0.42
172.31	94.79	0.42
175.74	96.03	0.5
178.73	97.11	0.5
182.05	98.28	0.5
185.19	99.36	0.5
188.17	100.4	0.5
191.4	101.5	0.5
194.3	102.6	0.5
197.16	103.5	0.5
199.5	104.3	0.5
200.16	104.6	0.5
202.4	105.3	0.5
202.86	105.5	0.5
205.51	106.3	0.5
205.98	106.6	0.5
208.48	107.5	0.5
208.94	107.8	0.5
211.44	108.6	0.5
211.9	108.9	0.5
214.13	109.6	0.5
214.59	109.9	0.5
217.18	110.9	0.5
217.64	111.2	0.5
220.64	112.7	0.5
221.1	113	0.5
223.65	114.4	0.5
224.11	114.9	0.5
226.53	116.3	0.5
226.99	116.9	0.5
232.4	122.6	0.58
232.75	123.1	0.58
235.69	129.2	0.58

System: caesium-magnesium monophosphate; phases: Crystal 1
Fixed: Pressure, kPa = 101.325
Property: Molar heat capacity at constant pressure, J/K/mol (Crystal 1); method: Small (less than 1 g) adiabatic calorimetry
Temperature, K	Molar heat capacity at constant pressure, J/K/mol	uncertainty
235.7	129.1	0.58
237.89	126.1	0.58
238.55	124.9	0.58
240.77	121.7	0.58
241.43	120.9	0.58
243.77	118.8	0.5
244.43	118.3	0.5
246.72	116.9	0.5
247.38	116.7	0.5
249.24	115.8	0.5
249.9	115.7	0.5
252.35	115.1	0.5
253.01	114.9	0.5
255.27	114.7	0.5
255.8	114.7	0.5
257.91	114.8	0.5
258.57	114.8	0.5
260.67	115	0.5
261.33	115.1	0.5
263.41	115.3	0.5
264.07	115.4	0.5
266.23	115.7	0.5
266.89	115.8	0.5
268.97	116.1	0.5
269.63	116.2	0.5
271.52	116.5	0.5
272.18	116.7	0.5
274.19	117.1	0.5
274.85	117.2	0.5
276.83	117.7	0.5
277.49	117.8	0.5
280.12	118.3	0.5
282.5	118.8	0.5
285.44	119.4	0.5
287.8	119.8	0.5
289.7	120.3	0.5
292.8	121	0.58
294.9	121.5	0.58
297	121.9	0.58
298.84	122.3	0.58
300.7	122.7	0.58
303.3	123.3	0.58
305.9	123.9	0.58
308	124.4	0.58
310.1	124.8	0.58
312.4	125.4	0.58
314.7	125.9	0.58
316.4	126.2	0.58
318	126.5	0.58
321.1	127.2	0.58
324.2	128	0.58
325.3	128.2	0.58
326.4	128.5	0.58
329.66	129.1	0.58
330.5	128.9	0.58
332.91	129.7	0.58
333.99	129.9	0.58
334.4	129.7	0.58
335.08	130.1	0.58
338.2	130.6	0.58
338.3	130.5	0.58
341.8	131.2	0.58
342.2	131.4	0.58
343.4	131.5	0.58
345.83	132	0.58
346.1	132.2	0.58
348.25	132.5	0.58
350	133	0.58
350.05	132.7	0.58
351.85	133	0.58
353.9	133	0.58
357.8	133.9	0.58
361.7	134.7	0.58
365.5	135.5	0.58
369.2	136.4	0.58
372.9	136.4	0.58
376.6	137.2	0.58
380.2	138	0.58
383.7	138	0.58
387.2	138.9	0.58
390.7	139.7	0.58
394.2	140.5	0.58
397.7	140.5	0.58
401.3	141.3	0.58
404.8	141.3	0.58
408.5	142.2	0.58
412.1	143	0.58
415.8	143	0.58
419.6	143.8	0.58
423.3	144.7	0.67
427	145.5	0.67
430.6	145.5	0.67
434.3	146.3	0.67
437.9	146.3	0.67
441.6	147.2	0.67
445.2	148	0.67
448.8	148	0.67
452.5	148.8	0.67
456.1	148.8	0.67
459.8	149.7	0.67
463.4	150.5	0.67
467.1	150.5	0.67
470.7	151.3	0.67
474.4	151.3	0.67
478.1	152.2	0.67
481.8	152.2	0.67
485.4	153	0.67
489.1	153.8	0.67
492.7	153.8	0.67
496.4	154.6	0.67
500	154.6	0.67
503.7	155.5	0.67
507.3	155.5	0.67
511	156.3	0.67
514.6	156.3	0.67
518.3	157.1	0.67
521.8	157.1	0.67
525.4	158	0.67
529	158	0.67
532.6	158.8	0.67
536.1	158.8	0.67
539.8	159.6	0.67
543.3	159.6	0.67
546.9	160.5	0.67
550.5	160.5	0.67
554.1	161.3	0.67
557.7	161.3	0.67
561.4	162.1	0.67
565	162.1	0.67
568.7	163	0.67
572.4	163	0.67
576.1	163.8	0.67
579.8	163.8	0.67
583.4	164.6	0.67
587.1	164.6	0.67
590.7	165.5	0.67
594.3	165.5	0.67
597.9	166.3	0.67
603.4	166.3	0.67
607	167.1	0.67
610.6	167.1	0.67
614.2	168	0.67
617.7	168	0.67
621.4	168	0.67
625	168.8	0.67
628.6	168.8	0.67
632.3	169.6	0.75
636	169.6	0.75
639.7	170.4	0.75
643.3	170.4	0.75
648.9	171.3	0.75

System: caesium-magnesium monophosphate; phases: Crystal 2
Fixed: Pressure, kPa = 101.325
Property: Molar heat capacity at constant pressure, J/K/mol (Crystal 2); method: Small (less than 1 g) adiabatic calorimetry
Temperature, K	Molar heat capacity at constant pressure, J/K/mol	uncertainty
5	0.318	0.022
10	2.37	0.047
15	6.37	0.0865
20	11.77	0.125
25	17.83	0.158
30	23.25	0.166
35	28.13	0.191
40	32.56	0.208
45	36.59	0.216
50	40.28	0.233
60	46.81	0.258
70	52.41	0.283
80	57.35	0.299
90	61.9	0.349
100	66.24	0.358
110	70.41	0.374
120	74.51	0.382
130	78.58	0.399
140	82.59	0.407
150	86.47	0.42
160	90.3	0.42
170	93.95	0.42
180	97.53	0.5
190	101.1	0.5
200	104.5	0.5
210	107.9	0.5
220	111.2	0.5
230	114.6	0.5
235.69	116.4	0.5

System: caesium-magnesium monophosphate; phases: Crystal 1
Fixed: Pressure, kPa = 101.325
Property: Molar heat capacity at constant pressure, J/K/mol (Crystal 1); method: Small (less than 1 g) adiabatic calorimetry
Temperature, K	Molar heat capacity at constant pressure, J/K/mol	uncertainty
235.69	133.5	0.58
240	110.1	0.5
250	112.2	0.5
260	114.2	0.5
270	116.3	0.5
280	118.3	0.5
290	120.3	0.5
298.15	122.1	0.58
300	122.6	0.58
310	124.8	0.58
320	127	0.58
330	129.2	0.58
340	131	0.58
350	132.7	0.58
360	135	0.83
370	136	0.83
380	138	0.83
390	140	0.83
400	141	0.83
410	142	0.83
420	144	0.83
430	146	0.83
440	147	0.83
450	148	0.83
460	150	0.83
470	151	0.83
480	152	0.83
490	154	0.83
500	155	0.83
510	156	0.83
520	157	0.83
530	159	0.83
540	160	0.83
550	160	0.83
560	162	0.83
570	163	0.83
580	164	0.83
590	165	0.83
600	166	0.83
610	167	0.83
620	168	0.83
630	169	0.83
640	170	0.83
650	171	0.83

System: caesium-magnesium monophosphate; phases: Crystal 2
Fixed: Pressure, kPa = 101.325
Property: Molar enthalpy function {Hm(T)-Hm(0)}/T, J/K/mol (Crystal 2); method: Small (less than 1 g) adiabatic calorimetry
Temperature, K	Molar enthalpy function {Hm(T)-Hm(0)}/T, J/K/mol	uncertainty
5	0.08	0.0167
10	0.61	0.0233
15	1.773	0.035
20	3.585	0.05
25	5.828	0.062
30	8.29	0.1098
35	10.78	0.116
40	13.23	0.133
45	15.61	0.141
50	17.89	0.15
60	22.18	0.166
70	26.11	0.183
80	29.72	0.191
90	33.04	0.258
100	36.14	0.266
110	39.07	0.274
120	41.86	0.283
130	44.52	0.291
140	47.1	0.299
150	49.6	0.308
160	52.02	0.316
170	54.39	0.324
180	56.68	0.333
190	58.92	0.341
200	61.12	0.341
210	63.26	0.349
220	65.38	0.358
230	67.44	0.366
235.69	68.6	0.366

System: caesium-magnesium monophosphate; phases: Crystal 1
Fixed: Pressure, kPa = 101.325
Property: Molar enthalpy function {Hm(T)-Hm(0)}/T, J/K/mol (Crystal 1); method: Small (less than 1 g) adiabatic calorimetry
Temperature, K	Molar enthalpy function {Hm(T)-Hm(0)}/T, J/K/mol	uncertainty
235.69	69.75	0.374
240	70.47	0.374
250	72.09	0.382
260	73.67	0.382
270	75.21	0.391
280	76.72	0.391
290	78.19	0.399
298.15	79.36	0.399
300	79.63	0.399
310	81.05	0.407
320	82.45	0.407
330	83.81	0.42
340	85.22	0.42
350	86.55	0.42
360	88.1	0.83
370	89	0.83
380	90.6	0.83
390	91.5	0.83
400	93.1	0.83
410	94	0.83
420	94.8	0.83
430	96.4	0.83
440	97.3	0.83
450	98.9	0.83
460	99.8	0.83
470	101	0.83
480	101	0.83
490	103	0.83
500	104	0.83
510	105	0.83
520	106	0.83
530	107	0.83
540	108	0.83
550	109	0.83
560	110	0.83
570	111	0.83
580	111	0.83
590	112	0.83
600	113	0.83
610	114	0.83
620	115	0.83
630	116	0.83
640	116	0.83
650	117	0.83

System: caesium-magnesium monophosphate; phases: Crystal 2
Fixed: Pressure, kPa = 101.325
Property: Molar entropy, J/K/mol (Crystal 2); method: Small (less than 1 g) adiabatic calorimetry
Temperature, K	Molar entropy, J/K/mol	uncertainty
5	0.106	0.026
10	0.8204	0.0387
15	2.421	0.063
20	4.972	0.0931
25	8.251	0.1197
30	12	0.183
35	15.96	0.208
40	20	0.233
45	24.08	0.258
50	28.13	0.283
60	36.07	0.324
70	43.71	0.374
80	51.04	0.416
90	58.06	0.499
100	64.81	0.532
110	71.32	0.565
120	77.62	0.59
130	83.73	0.58
140	89.71	0.67
150	95.53	0.67
160	101.3	0.75
170	106.8	0.75
180	112.3	0.75
190	117.7	0.831
200	123	0.831
210	128.1	0.831
220	133.2	0.915
230	138.3	0.915
235.69	141.1	0.915

System: caesium-magnesium monophosphate; phases: Crystal 1
Fixed: Pressure, kPa = 101.325
Property: Molar entropy, J/K/mol (Crystal 1); method: Small (less than 1 g) adiabatic calorimetry
Temperature, K	Molar entropy, J/K/mol	uncertainty
235.69	142.3	0.915
240	144.2	0.915
250	148.7	0.915
260	153.2	0.998
270	157.6	0.998
280	158.9	0.998
290	161.8	0.998
298.15	166	1.081
300	169.4	1.081
310	170.1	1.081
320	174.2	1.081
330	178.2	1.081
340	182.1	1.164
350	186	1.164
360	190	1.66
370	194	1.66
380	197	1.66
390	201	1.66
400	205	1.66
410	208	1.66
420	211	1.66
430	215	1.66
440	219	1.66
450	222	1.66
460	225	1.66
470	229	1.66
480	232	1.66
490	234	1.66
500	238	1.66
510	241	1.66
520	244	1.66
530	247	1.66
540	250	1.66
550	254	1.66
560	256	1.66
570	259	1.66
580	262	1.66
590	264	1.66
600	268	1.66
610	270	1.66
620	273	1.66
630	276	1.66
640	279	1.66
650	281	1.66
