Measured thermophysical data. Thermochemical studies of three bis(O-alkyl-N-benzoylthiocarbamato)nickel(II) complexes
Source: J. Chem. Thermodyn., 2004, 10.1016/j.jct.2004.04.001
Compound 1: nickel, Ni, InChI=1S/Ni
Compound 2: graphite, C
Compound 3: sulfur, S, InChI=1S/S
Compound 4: hydrogen, H2, InChI=1S/H2/h1H
Compound 5: nitrogen, N2, InChI=1S/N2/c1-2
Compound 6: oxygen, O2, InChI=1S/O2/c1-2
Compound 7: bis(O-hexyl-N-benzoylthiocarbamato)nickel(II), C28H36N2NiO4S2, InChI=1S/2C14H19NO2S.Ni/c2*1-2-3-4-8-11-17-14(18)15-13(16)12-9-6-5-7-10-12;/h2*5-7,9-10H,2-4,8,11H2,1H3,(H,15,16,18);/q;;+2/p-2
Compound 8: bis(O-butyl-N-benzoylthiocarbamato)nickel(II), C24H28N2NiO4S2, InChI=1S/2C12H15NO2S.Ni/c2*1-2-3-9-15-12(16)13-11(14)10-7-5-4-6-8-10;/h2*4-8H,2-3,9H2,1H3,(H,13,14,16);/q;;+2/p-2
Compound 9: bis(O-ethyl-N-benzoylthiocarbamato)nickel(II), C20H20N2NiO4S2, InChI=1S/2C10H11NO2S.Ni/c2*1-2-13-10(14)11-9(12)8-6-4-3-5-7-8;/h2*3-7H,2H2,1H3,(H,11,12,14);/q;;+2/p-2

Reaction: -1 nickel + -24 graphite + -2 sulfur + 1 bis(O-butyl-N-benzoylthiocarbamato)nickel(II) + -14 hydrogen + -1 nitrogen + -2 oxygen
Property: Molar enthalpy of reaction, kJ/mol
-707.4

Reaction: -1 nickel + -28 graphite + -2 sulfur + 1 bis(O-hexyl-N-benzoylthiocarbamato)nickel(II) + -18 hydrogen + -1 nitrogen + -2 oxygen
Property: Molar enthalpy of reaction, kJ/mol
-802.6

Reaction: -1 nickel + -20 graphite + -2 sulfur + 1 bis(O-ethyl-N-benzoylthiocarbamato)nickel(II) + -10 hydrogen + -1 nitrogen + -2 oxygen
Property: Molar enthalpy of reaction, kJ/mol
-619.2
