Measured thermophysical data. Mass spectrometric study of the vaporization behaviour of alpha-Na2NpO4: Thermodynamic investigation of the enthalpy of formation
Source: J. Chem. Thermodyn., 2013, 10.1016/j.jct.2012.11.034
Compound 1: neptunium, Np, InChI=1S/Np
Compound 2: sodium, Na, InChI=1S/Na
Compound 3: oxygen, O2, InChI=1S/O2/c1-2
Compound 4: sodium neptunate, Na2NpO4, InChI=1S/2Na.Np.4O/q2*+1;;;;2*-1
Compound 5: silver, Ag, InChI=1S/Ag

System: silver; phases: Liquid, Gas
Property: Molar enthalpy of vaporization or sublimation, kJ/mol (Liquid); method: Derived by Second law
Temperature, K	Molar enthalpy of vaporization or sublimation, kJ/mol	uncertainty
1367	265.1	10.9

Reaction: -1 neptunium + -2 sodium + 1 sodium neptunate + -2 oxygen
Property: Molar enthalpy of reaction, kJ/mol
-1623.9

Reaction: -1 neptunium + -2 sodium + 1 sodium neptunate + -2 oxygen
Property: Molar enthalpy of reaction, kJ/mol
-1761
