Measured thermophysical data. Thermophysical characterization of aqueous ternary system  containing n-tris-[hydroxymethyl]methyl-3-amino propanesulfonic acid and  glycol (PG or DPG or TPG)
Source: J. Chem. Thermodyn., 2013, 10.1016/j.jct.2012.12.005
Compound 1: 1,2-propanediol, C3H8O2, InChI=1S/C3H8O2/c1-3(5)2-4/h3-5H,2H2,1H3, purity 99%
Compound 2: water, H2O, InChI=1S/H2O/h1H2, purity 99.9%
Compound 3: 3-[tris(hydroxymethyl)methylamino]-1-propanesulfonic acid, C7H17NO6S, InChI=1S/C7H17NO6S/c9-4-7(5-10,6-11)8-2-1-3-15(12,13)14/h8-11H,1-6H2,(H,12,13,14), purity 99%
Compound 4: 4-oxa-1,7-heptanediol, C6H14O3, InChI=1S/C6H14O3/c7-3-1-5-9-6-2-4-8/h7-8H,1-6H2, purity 99%
Compound 5: 2-[2-(2-hydroxypropoxy)propoxy]-1-propanol, C9H20O4, InChI=1S/C9H20O4/c1-7(11)5-12-9(3)6-13-8(2)4-10/h7-11H,4-6H2,1-3H3, purity 99%

System: 1,2-propanediol + water + 3-[tris(hydroxymethyl)methylamino]-1-propanesulfonic acid; phases: Liquid
Fixed: Pressure, kPa = 101
Property: Mass density, kg/m3 (Liquid); method: Vibrating tube method
Temperature, K	Mole fraction of 3-[tris(hydroxymethyl)methylamino]-1-propanesulfonic acid	Mole fraction of 1,2-propanediol	Mass density, kg/m3	uncertainty
298.15	0.0045	0.144	1072.4	1
303.15	0.0045	0.144	1069.7	1
308.15	0.0045	0.144	1066.9	1
313.15	0.0045	0.144	1064	1
318.15	0.0045	0.144	1061	1
323.15	0.0045	0.144	1057.9	1
328.15	0.0045	0.144	1054.8	1
333.15	0.0045	0.144	1051.5	1
338.15	0.0045	0.144	1048.2	1
343.15	0.0045	0.144	1044.7	1
298.15	0.0109	0.1549	1092.9	1
303.15	0.0109	0.1549	1090	1
308.15	0.0109	0.1549	1087.2	1
313.15	0.0109	0.1549	1084.2	1
318.15	0.0109	0.1549	1081.2	1
323.15	0.0109	0.1549	1078	1
328.15	0.0109	0.1549	1074.8	1
333.15	0.0109	0.1549	1071.6	1
338.15	0.0109	0.1549	1068.2	1
343.15	0.0109	0.1549	1064.8	1
298.15	0.0217	0.1733	1122.6	1
303.15	0.0217	0.1733	1119.8	1
308.15	0.0217	0.1733	1116.7	1
313.15	0.0217	0.1733	1113.7	1
318.15	0.0217	0.1733	1110.6	1
323.15	0.0217	0.1733	1107.4	1
328.15	0.0217	0.1733	1104.2	1
333.15	0.0217	0.1733	1100.9	1
338.15	0.0217	0.1733	1097.5	1
343.15	0.0217	0.1733	1094.1	1

System: 1,2-propanediol + water + 3-[tris(hydroxymethyl)methylamino]-1-propanesulfonic acid; phases: Liquid
Fixed: Pressure, kPa = 101
Property: Refractive index (Na D-line) (Liquid); method: Standard Abbe refractometry
Temperature, K	Mole fraction of 3-[tris(hydroxymethyl)methylamino]-1-propanesulfonic acid	Mole fraction of 1,2-propanediol	Refractive index (Na D-line)	uncertainty
298.15	0.0045	0.144	1.383281	0.000314
303.15	0.0045	0.144	1.382082	0.000314
308.15	0.0045	0.144	1.380966	0.000314
313.15	0.0045	0.144	1.379559	0.000314
318.15	0.0045	0.144	1.378371	0.000314
323.15	0.0045	0.144	1.377025	0.000314
328.15	0.0045	0.144	1.37574	0.000314
333.15	0.0045	0.144	1.374345	0.000314
338.15	0.0045	0.144	1.372964	0.000314
343.15	0.0045	0.144	1.371668	0.000314
298.15	0.0109	0.1549	1.392132	0.000315
303.15	0.0109	0.1549	1.390848	0.000315
308.15	0.0109	0.1549	1.389595	0.000315
313.15	0.0109	0.1549	1.388333	0.000315
318.15	0.0109	0.1549	1.387012	0.000315
323.15	0.0109	0.1549	1.385697	0.000315
328.15	0.0109	0.1549	1.384341	0.000315
333.15	0.0109	0.1549	1.382963	0.000315
338.15	0.0109	0.1549	1.38152	0.000315
343.15	0.0109	0.1549	1.380076	0.000315
298.15	0.0217	0.1733	1.404271	0.000316
303.15	0.0217	0.1733	1.403047	0.000316
308.15	0.0217	0.1733	1.40177	0.000316
313.15	0.0217	0.1733	1.400489	0.000316
318.15	0.0217	0.1733	1.399144	0.000316
323.15	0.0217	0.1733	1.39782	0.000316
328.15	0.0217	0.1733	1.396427	0.000316
333.15	0.0217	0.1733	1.395058	0.000316
338.15	0.0217	0.1733	1.393639	0.000316
343.15	0.0217	0.1733	1.392332	0.000316

System: 1,2-propanediol + water + 3-[tris(hydroxymethyl)methylamino]-1-propanesulfonic acid; phases: Liquid
Fixed: Pressure, kPa = 101
Property: Electrical conductivity, S/m (Liquid); method: Alternating current cell with electrodes
Temperature, K	Mole fraction of 3-[tris(hydroxymethyl)methylamino]-1-propanesulfonic acid	Mole fraction of 1,2-propanediol	Electrical conductivity, S/m	uncertainty
298.15	0.0047	0.1077	0.000583	1.2e-05
303.15	0.0047	0.1077	0.000707	1.4e-05
308.15	0.0047	0.1077	0.000849	1.7e-05
313.15	0.0047	0.1077	0.001018	2e-05
318.15	0.0047	0.1077	0.001204	2.4e-05
323.15	0.0047	0.1077	0.001414	2.8e-05
328.15	0.0047	0.1077	0.001655	3.3e-05
333.15	0.0047	0.1077	0.00192	4e-05
338.15	0.0047	0.1077	0.00219	4e-05
343.15	0.0047	0.1077	0.00253	5e-05
298.15	0.0114	0.1162	0.000841	1.7e-05
303.15	0.0114	0.1162	0.001019	2e-05
308.15	0.0114	0.1162	0.001245	2.5e-05
313.15	0.0114	0.1162	0.001492	3e-05
318.15	0.0114	0.1162	0.001759	3.5e-05
323.15	0.0114	0.1162	0.00206	4e-05
328.15	0.0114	0.1162	0.00242	5e-05
333.15	0.0114	0.1162	0.0028	6e-05
338.15	0.0114	0.1162	0.00323	6e-05
343.15	0.0114	0.1162	0.00371	7e-05
298.15	0.0228	0.1307	0.00124	2.5e-05
303.15	0.0228	0.1307	0.001517	3e-05
308.15	0.0228	0.1307	0.001806	3.6e-05
313.15	0.0228	0.1307	0.00216	4e-05
318.15	0.0228	0.1307	0.00257	5e-05
323.15	0.0228	0.1307	0.00303	6e-05
328.15	0.0228	0.1307	0.00352	7e-05
333.15	0.0228	0.1307	0.00407	8e-05
338.15	0.0228	0.1307	0.00466	9e-05
343.15	0.0228	0.1307	0.00533	0.00011

System: water + 4-oxa-1,7-heptanediol + 3-[tris(hydroxymethyl)methylamino]-1-propanesulfonic acid; phases: Liquid
Fixed: Pressure, kPa = 101
Property: Mass density, kg/m3 (Liquid); method: Vibrating tube method
Temperature, K	Mole fraction of 3-[tris(hydroxymethyl)methylamino]-1-propanesulfonic acid	Mole fraction of 4-oxa-1,7-heptanediol	Mass density, kg/m3	uncertainty
298.15	0.0048	0.0786	1044.9	1
303.15	0.0048	0.0786	1041.7	1
308.15	0.0048	0.0786	1038.4	1
313.15	0.0048	0.0786	1035.1	1
318.15	0.0048	0.0786	1031.7	1
323.15	0.0048	0.0786	1028.2	1
328.15	0.0048	0.0786	1024.6	1
333.15	0.0048	0.0786	1020.9	1
338.15	0.0048	0.0786	1017.2	1
343.15	0.0048	0.0786	1013.3	1
298.15	0.0118	0.085	1063.5	1
303.15	0.0118	0.085	1060.2	1
308.15	0.0118	0.085	1056.9	1
313.15	0.0118	0.085	1053.5	1
318.15	0.0118	0.085	1050.1	1
323.15	0.0118	0.085	1046.6	1
328.15	0.0118	0.085	1043	1
333.15	0.0118	0.085	1039.3	1
338.15	0.0118	0.085	1035.6	1
343.15	0.0118	0.085	1031.6	1
298.15	0.0237	0.096	1091.4	1
303.15	0.0237	0.096	1088.1	1
308.15	0.0237	0.096	1084.7	1
313.15	0.0237	0.096	1081.3	1
318.15	0.0237	0.096	1077.8	1
323.15	0.0237	0.096	1074.2	1
328.15	0.0237	0.096	1070.6	1
333.15	0.0237	0.096	1066.9	1
338.15	0.0237	0.096	1063.1	1
343.15	0.0237	0.096	1059.3	1

System: water + 4-oxa-1,7-heptanediol + 3-[tris(hydroxymethyl)methylamino]-1-propanesulfonic acid; phases: Liquid
Fixed: Pressure, kPa = 101
Property: Refractive index (Na D-line) (Liquid); method: Standard Abbe refractometry
Temperature, K	Mole fraction of 3-[tris(hydroxymethyl)methylamino]-1-propanesulfonic acid	Mole fraction of 4-oxa-1,7-heptanediol	Refractive index (Na D-line)	uncertainty
298.15	0.0048	0.0871	1.389069	0.000312
303.15	0.0048	0.0871	1.387761	0.000312
308.15	0.0048	0.0871	1.386458	0.000312
313.15	0.0048	0.0871	1.385107	0.000312
318.15	0.0048	0.0871	1.383765	0.000312
323.15	0.0048	0.0871	1.382364	0.000312
328.15	0.0048	0.0871	1.380946	0.000312
333.15	0.0048	0.0871	1.379572	0.000312
338.15	0.0048	0.0871	1.378206	0.000312
343.15	0.0048	0.0871	1.376899	0.000312
298.15	0.0117	0.0942	1.397491	0.000313
303.15	0.0117	0.0942	1.39618	0.000313
308.15	0.0117	0.0942	1.394823	0.000313
313.15	0.0117	0.0942	1.393495	0.000313
318.15	0.0117	0.0942	1.392083	0.000313
323.15	0.0117	0.0942	1.390682	0.000313
328.15	0.0117	0.0942	1.389262	0.000313
333.15	0.0117	0.0942	1.387828	0.000313
338.15	0.0117	0.0942	1.386479	0.000313
343.15	0.0117	0.0942	1.385067	0.000313
298.15	0.0234	0.1063	1.410111	0.000314
303.15	0.0234	0.1063	1.408814	0.000314
308.15	0.0234	0.1063	1.407576	0.000314
313.15	0.0234	0.1063	1.40613	0.000314
318.15	0.0234	0.1063	1.404783	0.000314
323.15	0.0234	0.1063	1.403368	0.000314
328.15	0.0234	0.1063	1.401941	0.000315
333.15	0.0234	0.1063	1.400472	0.000315
338.15	0.0234	0.1063	1.398886	0.000315
343.15	0.0234	0.1063	1.397491	0.000314

System: water + 4-oxa-1,7-heptanediol + 3-[tris(hydroxymethyl)methylamino]-1-propanesulfonic acid; phases: Liquid
Fixed: Pressure, kPa = 101
Property: Electrical conductivity, S/m (Liquid); method: Alternating current cell with electrodes
Temperature, K	Mole fraction of 3-[tris(hydroxymethyl)methylamino]-1-propanesulfonic acid	Mole fraction of 4-oxa-1,7-heptanediol	Electrical conductivity, S/m	uncertainty
303.15	0.0048	0.0786	0.00198	4e-05
308.15	0.0048	0.0786	0.00224	5e-05
313.15	0.0048	0.0786	0.00255	5e-05
318.15	0.0048	0.0786	0.00292	6e-05
323.15	0.0048	0.0786	0.0032	6e-05
328.15	0.0048	0.0786	0.0035	7e-05
333.15	0.0048	0.0786	0.00381	8e-05
338.15	0.0048	0.0786	0.00413	8e-05
343.15	0.0048	0.0786	0.00443	9e-05
303.15	0.0118	0.085	0.001723	3.4e-05
308.15	0.0118	0.085	0.00196	4e-05
313.15	0.0118	0.085	0.0023	5e-05
318.15	0.0118	0.085	0.0026	5e-05
323.15	0.0118	0.085	0.00298	6e-05
328.15	0.0118	0.085	0.00336	7e-05
333.15	0.0118	0.085	0.00377	8e-05
338.15	0.0118	0.085	0.0042	8e-05
343.15	0.0118	0.085	0.00459	9e-05
303.15	0.0237	0.096	0.001355	2.7e-05
308.15	0.0237	0.096	0.001594	3.2e-05
313.15	0.0237	0.096	0.001865	3.7e-05
318.15	0.0237	0.096	0.0022	4e-05
323.15	0.0237	0.096	0.00254	5e-05
328.15	0.0237	0.096	0.00289	6e-05
333.15	0.0237	0.096	0.00333	7e-05
338.15	0.0237	0.096	0.00375	8e-05
343.15	0.0237	0.096	0.00428	9e-05

System: water + 3-[tris(hydroxymethyl)methylamino]-1-propanesulfonic acid + 2-[2-(2-hydroxypropoxy)propoxy]-1-propanol; phases: Liquid
Fixed: Pressure, kPa = 101
Property: Mass density, kg/m3 (Liquid); method: Vibrating tube method
Temperature, K	Mole fraction of 3-[tris(hydroxymethyl)methylamino]-1-propanesulfonic acid	Mole fraction of 2-[2-(2-hydroxypropoxy)propoxy]-1-propanol	Mass density, kg/m3	uncertainty
298.15	0.0049	0.0618	1045.1	1
303.15	0.0049	0.0618	1041.8	1
308.15	0.0049	0.0618	1038.4	1
313.15	0.0049	0.0618	1034.9	1
318.15	0.0049	0.0618	1031.4	1
323.15	0.0049	0.0618	1027.8	1
328.15	0.0049	0.0618	1024.1	1
333.15	0.0049	0.0618	1020.3	1
338.15	0.0049	0.0618	1016.5	1
343.15	0.0049	0.0618	1012.6	1
298.15	0.012	0.067	1064.2	1
303.15	0.012	0.067	1060.8	1
308.15	0.012	0.067	1057.4	1
313.15	0.012	0.067	1053.8	1
318.15	0.012	0.067	1050.2	1
323.15	0.012	0.067	1046.6	1
328.15	0.012	0.067	1042.9	1
333.15	0.012	0.067	1039	1
338.15	0.012	0.067	1035.2	1
343.15	0.012	0.067	1031.3	1
298.15	0.0242	0.0759	1092.4	1
303.15	0.0242	0.0759	1088.9	1
308.15	0.0242	0.0759	1085.5	1
313.15	0.0242	0.0759	1081.9	1
318.15	0.0242	0.0759	1078.2	1
323.15	0.0242	0.0759	1074.5	1
328.15	0.0242	0.0759	1070.8	1
333.15	0.0242	0.0759	1067	1
338.15	0.0242	0.0759	1063	1
343.15	0.0242	0.0759	1059	1

System: water + 3-[tris(hydroxymethyl)methylamino]-1-propanesulfonic acid + 2-[2-(2-hydroxypropoxy)propoxy]-1-propanol; phases: Liquid
Fixed: Pressure, kPa = 101
Property: Refractive index (Na D-line) (Liquid); method: Standard Abbe refractometry
Temperature, K	Mole fraction of 3-[tris(hydroxymethyl)methylamino]-1-propanesulfonic acid	Mole fraction of 2-[2-(2-hydroxypropoxy)propoxy]-1-propanol	Refractive index (Na D-line)	uncertainty
298.15	0.0049	0.0624	1.391021	0.000312
303.15	0.0049	0.0624	1.389576	0.000312
308.15	0.0049	0.0624	1.38824	0.000312
313.15	0.0049	0.0624	1.386844	0.000312
318.15	0.0049	0.0624	1.385475	0.000312
323.15	0.0049	0.0624	1.384119	0.000312
328.15	0.0049	0.0624	1.382755	0.000312
333.15	0.0049	0.0624	1.381366	0.000312
338.15	0.0049	0.0624	1.380031	0.000312
343.15	0.0049	0.0624	1.378762	0.000312
298.15	0.012	0.0677	1.400163	0.000313
303.15	0.012	0.0677	1.398846	0.000313
308.15	0.012	0.0677	1.397436	0.000313
313.15	0.012	0.0677	1.395986	0.000313
318.15	0.012	0.0677	1.394613	0.000313
323.15	0.012	0.0677	1.393249	0.000313
328.15	0.012	0.0677	1.3918	0.000313
333.15	0.012	0.0677	1.390431	0.000313
338.15	0.012	0.0677	1.389096	0.000312
343.15	0.012	0.0677	1.387863	0.000312
298.15	0.0242	0.0766	1.412889	0.000314
303.15	0.0242	0.0766	1.411568	0.000314
308.15	0.0242	0.0766	1.410149	0.000314
313.15	0.0242	0.0766	1.408677	0.000314
318.15	0.0242	0.0766	1.407181	0.000314
323.15	0.0242	0.0766	1.405719	0.000314
328.15	0.0242	0.0766	1.40426	0.000314
333.15	0.0242	0.0766	1.402789	0.000314
338.15	0.0242	0.0766	1.40134	0.000314
343.15	0.0242	0.0766	1.399966	0.000314

System: water + 3-[tris(hydroxymethyl)methylamino]-1-propanesulfonic acid + 2-[2-(2-hydroxypropoxy)propoxy]-1-propanol; phases: Liquid
Fixed: Pressure, kPa = 101
Property: Electrical conductivity, S/m (Liquid); method: Alternating current cell with electrodes
Temperature, K	Mole fraction of 3-[tris(hydroxymethyl)methylamino]-1-propanesulfonic acid	Mole fraction of 2-[2-(2-hydroxypropoxy)propoxy]-1-propanol	Electrical conductivity, S/m	uncertainty
303.15	0.0049	0.0624	0.001253	2.5e-05
308.15	0.0049	0.0624	0.001452	2.9e-05
313.15	0.0049	0.0624	0.001671	3.3e-05
318.15	0.0049	0.0624	0.001884	3.8e-05
323.15	0.0049	0.0624	0.00208	4e-05
328.15	0.0049	0.0624	0.00232	5e-05
333.15	0.0049	0.0624	0.00259	5e-05
338.15	0.0049	0.0624	0.00286	6e-05
343.15	0.0049	0.0624	0.00313	6e-05
303.15	0.012	0.0677	0.001122	2.2e-05
308.15	0.012	0.0677	0.00134	2.7e-05
313.15	0.012	0.0677	0.001567	3.1e-05
318.15	0.012	0.0677	0.001837	3.7e-05
323.15	0.012	0.0677	0.0021	4e-05
328.15	0.012	0.0677	0.0024	5e-05
333.15	0.012	0.0677	0.00277	6e-05
338.15	0.012	0.0677	0.00315	6e-05
343.15	0.012	0.0677	0.00353	7e-05
303.15	0.0242	0.0766	0.00105	2.1e-05
308.15	0.0242	0.0766	0.001271	2.5e-05
313.15	0.0242	0.0766	0.00156	3.1e-05
318.15	0.0242	0.0766	0.00186	3.7e-05
323.15	0.0242	0.0766	0.00218	4e-05
328.15	0.0242	0.0766	0.00254	5e-05
333.15	0.0242	0.0766	0.00295	6e-05
338.15	0.0242	0.0766	0.0034	7e-05
343.15	0.0242	0.0766	0.00388	8e-05
