Measured thermophysical data. Isobaric (vapor + liquid) equilibria for the ternary system of (ethanol + water + 1,3-propanediol) and three constituent binary systems at P = 101.3 kPa
Source: J. Chem. Thermodyn., 2014, 10.1016/j.jct.2013.08.020
Compound 1: ethanol, C2H6O, InChI=1S/C2H6O/c1-2-3/h3H,2H2,1H3, purity 99.9%
Compound 2: water, H2O, InChI=1S/H2O/h1H2, purity 99.9%
Compound 3: propan-1,3-diol, C3H8O2, InChI=1S/C3H8O2/c4-2-1-3-5/h4-5H,1-3H2, purity 99%

System: ethanol; phases: Liquid
Property: Mass density, kg/m3 (Liquid); method: Vibrating tube method
Pressure, kPa	Temperature, K	Mass density, kg/m3	uncertainty
101	298.15	785.06	0.15

System: ethanol; phases: Liquid
Property: Refractive index (Na D-line) (Liquid); method: Standard Abbe refractometry
Pressure, kPa	Temperature, K	Refractive index (Na D-line)	uncertainty
101	298.15	1.35924	0.00032

System: ethanol; phases: Liquid, Gas
Property: Vapor or sublimation pressure, kPa (Liquid); method: Ebulliometric method (Recirculating still)
Temperature, K	Vapor or sublimation pressure, kPa	uncertainty
351.45	101.3	0.5

System: water; phases: Liquid
Property: Mass density, kg/m3 (Liquid); method: Vibrating tube method
Pressure, kPa	Temperature, K	Mass density, kg/m3	uncertainty
101	298.15	997.05	0.11

System: water; phases: Liquid
Property: Refractive index (Na D-line) (Liquid); method: Standard Abbe refractometry
Pressure, kPa	Temperature, K	Refractive index (Na D-line)	uncertainty
101	298.15	1.33237	0.00032

System: water; phases: Liquid, Gas
Property: Vapor or sublimation pressure, kPa (Liquid); method: Ebulliometric method (Recirculating still)
Temperature, K	Vapor or sublimation pressure, kPa	uncertainty
373.15	101.3	0.5

System: propan-1,3-diol; phases: Liquid
Property: Mass density, kg/m3 (Liquid); method: Vibrating tube method
Pressure, kPa	Temperature, K	Mass density, kg/m3	uncertainty
101	298.15	1049.68	0.27

System: propan-1,3-diol; phases: Liquid
Property: Refractive index (Na D-line) (Liquid); method: Standard Abbe refractometry
Pressure, kPa	Temperature, K	Refractive index (Na D-line)	uncertainty
101	298.15	1.43851	0.00037

System: ethanol + water; phases: Liquid, Gas
Fixed: Pressure, kPa = 101.3
Property: Boiling temperature at pressure P, K (Liquid); method: Ebulliometric method (Recirculating still)
Mole fraction of ethanol	Boiling temperature at pressure P, K	uncertainty
0	373.15	0.13
0.015	369.27	0.45
0.035	365.61	0.25
0.1	359.79	0.18
0.183	356.66	0.14
0.292	354.88	0.14
0.394	353.89	0.13
0.501	353.06	0.13
0.543	352.73	0.13
0.631	352.04	0.13
0.749	351.67	0.13
0.794	351.64	0.13
0.848	351.4	0.13
0.899	351.33	0.13
0.949	351.37	0.13
1	351.45	0.13

System: ethanol + water; phases: Gas, Liquid
Fixed: Pressure, kPa = 101.3
Property: Mole fraction of ethanol (Gas); method: Chromatography
Mole fraction of ethanol	Mole fraction of ethanol	uncertainty
0	0	
0.015	0.139	0.015
0.035	0.261	0.008
0.1	0.436	0.007
0.183	0.525	0.006
0.292	0.585	0.005
0.394	0.611	0.005
0.501	0.648	0.005
0.543	0.669	0.005
0.631	0.714	0.005
0.749	0.781	0.005
0.794	0.814	0.005
0.848	0.855	0.005
0.899	0.898	0.005
0.949	0.946	0.005
1	1	

System: ethanol + water; phases: Liquid, Gas
Property: Azeotropic temperature, K (Liquid); method: By X=Y
Pressure, kPa	Azeotropic temperature, K	uncertainty
101.3	351.32	0.23

System: ethanol + water; phases: Liquid, Gas
Property: Azeotropic composition: mole fraction of ethanol (Liquid); method: By X=Y
Pressure, kPa	Azeotropic composition: mole fraction of ethanol	uncertainty
101.3	0.891	0.004

System: ethanol + propan-1,3-diol; phases: Liquid, Gas
Fixed: Pressure, kPa = 101.3
Property: Boiling temperature at pressure P, K (Liquid); method: Ebulliometric method (Recirculating still)
Mole fraction of ethanol	Boiling temperature at pressure P, K	uncertainty
0.039	441.03	1.1
0.081	418.2	0.89
0.121	405.06	0.52
0.176	394.3	0.35
0.232	387.16	0.26
0.299	380.79	0.23
0.341	377.37	0.18
0.442	371.7	0.17
0.55	366.3	0.16
0.607	364.42	0.15
0.662	362.28	0.15
0.701	360.8	0.15
0.77	358.43	0.15
0.815	356.96	0.15
0.848	355.93	0.15
0.913	354.07	0.14
0.948	353.25	0.15
1	351.45	0.13

System: ethanol + propan-1,3-diol; phases: Gas, Liquid
Fixed: Pressure, kPa = 101.3
Property: Mole fraction of ethanol (Gas); method: Chromatography
Mole fraction of ethanol	Mole fraction of ethanol	uncertainty
0.039	0.798	0.007
0.081	0.923	0.006
0.121	0.959	0.004
0.176	0.977	0.004
0.232	0.985	0.004
0.299	0.99	0.004
0.341	0.992	0.004
0.442	0.995	0.004
0.55	0.997	0.003
0.607	1	
0.662	1	
0.701	1	
0.77	1	
0.815	1	
0.848	1	
0.913	1	
0.948	1	
1	1	

System: propan-1,3-diol + water; phases: Liquid, Gas
Fixed: Pressure, kPa = 101.3
Property: Boiling temperature at pressure P, K (Liquid); method: Ebulliometric method (Recirculating still)
Mole fraction of water	Boiling temperature at pressure P, K	uncertainty
0.078	446.27	0.52
0.175	421.88	0.44
0.247	411.12	0.28
0.341	401.2	0.24
0.402	396.38	0.2
0.459	392.63	0.18
0.527	388.89	0.17
0.571	386.85	0.16
0.633	384.18	0.16
0.682	382.36	0.15
0.733	380.81	0.15
0.778	379.38	0.15
0.821	378.22	0.15
0.88	376.45	0.14
0.932	375.04	0.14
0.98	373.76	0.14
1	373.15	0.13

System: propan-1,3-diol + water; phases: Gas, Liquid
Fixed: Pressure, kPa = 101.3
Property: Mole fraction of water (Gas); method: Chromatography
Mole fraction of water	Mole fraction of water	uncertainty
0.078	0.764	0.006
0.175	0.918	0.005
0.247	0.953	0.004
0.341	0.974	0.004
0.402	0.981	0.004
0.459	0.985	0.004
0.527	0.989	0.004
0.571	0.991	0.004
0.633	0.993	0.004
0.682	0.994	0.004
0.733	0.995	0.004
0.778	1	
0.821	1	
0.88	1	
0.932	1	
0.98	1	
1	1	

System: ethanol + propan-1,3-diol + water; phases: Liquid, Gas
Fixed: Pressure, kPa = 101.3
Property: Mole fraction of water (Liquid); method: Chromatography
Property: Mole fraction of water (Gas); method: Chromatography
Property: Mole fraction of ethanol (Gas); method: Chromatography
Temperature, K	Mole fraction of ethanol	Mole fraction of water	uncertainty	Mole fraction of water	uncertainty	Mole fraction of ethanol	uncertainty
369.65	0.018	0.957	0.002	0.856	0.004	0.144	
359.29	0.263	0.609	0.003	0.432	0.005	0.568	
358.42	0.343	0.517	0.004	0.385	0.005	0.615	
366.06	0.043	0.934	0.002	0.733	0.005	0.267	
357.84	0.427	0.428	0.004	0.324	0.005	0.676	
357.36	0.501	0.336	0.003	0.268	0.005	0.732	
357.11	0.578	0.256	0.003	0.213	0.004	0.787	
356.84	0.652	0.167	0.002	0.15	0.004	0.85	
356.8	0.692	0.124	0.002	0.114	0.004	0.886	
356.75	0.706	0.111	0.002	0.103	0.004	0.897	
356.85	0.745	0.069	0.002	0.066	0.004	0.934	
353.26	0.753	0.194	0.002	0.168	0.004	0.832	
375.81	0.019	0.786	0.003	0.885	0.004	0.115	
373.9	0.035	0.763	0.003	0.81	0.004	0.19	
371.56	0.069	0.707	0.003	0.695	0.005	0.305	
361.89	0.091	0.885	0.002	0.599	0.005	0.401	
367.79	0.145	0.607	0.004	0.545	0.006	0.455	
365.95	0.22	0.529	0.004	0.454	0.006	0.546	
365.14	0.283	0.442	0.004	0.392	0.005	0.608	
364.83	0.343	0.36	0.003	0.335	0.005	0.665	
364.65	0.399	0.282	0.003	0.274	0.005	0.726	
364.47	0.458	0.212	0.003	0.215	0.004	0.785	
353.19	0.79	0.174	0.002	0.151	0.004	0.849	
364.31	0.497	0.158	0.002	0.166	0.004	0.834	
364.12	0.524	0.123	0.002	0.13	0.004	0.87	
364.01	0.567	0.088	0.002	0.093	0.004	0.907	
364.15	0.59	0.075	0.002	0.081	0.004	0.919	
357.78	0.207	0.766	0.003	0.47	0.006	0.53	
356.1	0.297	0.673	0.003	0.415	0.005	0.585	
355.07	0.393	0.572	0.004	0.378	0.005	0.622	
354.35	0.505	0.461	0.004	0.325	0.005	0.675	
353.8	0.588	0.369	0.003	0.278	0.005	0.722	
353.34	0.68	0.282	0.003	0.229	0.004	0.771	
353.16	0.875	0.08	0.002	0.075	0.004	0.925	
353.29	0.881	0.076	0.002	0.074	0.004	0.926	
372.21	0.022	0.886	0.002	0.854	0.004	0.146	
369.44	0.039	0.863	0.002	0.772	0.004	0.228	
365.2	0.085	0.815	0.002	0.64	0.005	0.36	
361.31	0.175	0.705	0.003	0.506	0.006	0.494	
