Measured thermophysical data. Benchmark properties of biphenyl as a liquid organic hydrogen carrier: Evaluation of thermochemical data with complementary experimental and computational methods
Source: J. Chem. Thermodyn., 2018, 10.1016/j.jct.2018.02.025
Compound 1: carbon dioxide, CO2, InChI=1S/CO2/c2-1-3
Compound 2: water, H2O, InChI=1S/H2O/h1H2
Compound 3: oxygen, O2, InChI=1S/O2/c1-2
Compound 4: biphenyl, C12H10, InChI=1S/C12H10/c1-3-7-11(8-4-1)12-9-5-2-6-10-12/h1-10H

System: biphenyl; phases: Liquid, Gas
Property: Vapor or sublimation pressure, kPa (Liquid); method: Transpiration method
Temperature, K	Vapor or sublimation pressure, kPa	uncertainty
345.7	0.1041	0.0111
347.7	0.1176	0.0126
348.3	0.1226	0.0131
350.4	0.1376	0.0147
353.3	0.1597	0.0171
358.3	0.2153	0.023
363.3	0.2837	0.0302
368.2	0.3498	0.0373
368.2	0.3659	0.039
373.1	0.4791	0.0511
375.4	0.5425	0.0578
376.2	0.5682	0.0606

System: biphenyl; phases: Crystal, Gas
Property: Vapor or sublimation pressure, kPa (Crystal); method: Transpiration method
Temperature, K	Vapor or sublimation pressure, kPa	uncertainty
295.4	0.00091	7e-05
298.2	0.00126	0.0001
303.3	0.00236	0.00016
308.2	0.00383	0.00026
313.2	0.00653	0.00046
315.4	0.00777	0.00054
318.3	0.01045	0.00072
323.5	0.01637	0.00107
325.8	0.02135	0.00143
328.4	0.02749	0.00178
331.3	0.03389	0.00217
333.4	0.0404	0.00261
335.8	0.04928	0.00318
338.4	0.06189	0.00395

Reaction: -1 biphenyl + 12 carbon dioxide + 5 water + -14.5 oxygen
Property: Specific internal energy of reaction at constant volume, J/g
-40482.9
