Measured thermophysical data. Separation of thioglycolic acid from its aqueous solution by ionic liquids: Ionic liquids selection by the COSMO-SAC model and liquid-liquid phase equilibrium
Source: J. Chem. Thermodyn., 2018, 10.1016/j.jct.2017.12.007
Compound 1: 2-mercaptoacetic acid, C2H4O2S, InChI=1S/C2H4O2S/c3-2(4)1-5/h5H,1H2,(H,3,4), purity 99%
Compound 2: 1-octyl-3-methylimidazolium trifluoromethanesulfonate, C13H23F3N2O3S, InChI=1S/C12H23N2.CHF3O3S/c1-3-4-5-6-7-8-9-14-11-10-13(2)12-14;2-1(3,4)8(5,6)7/h10-12H,3-9H2,1-2H3;(H,5,6,7)/q+1;/p-1, purity 98.5%
Compound 3: 1-methyl-3-octyl-1H-imidazolium perchlorate, C12H23ClN2O4, InChI=1S/C12H23N2.ClHO4/c1-3-4-5-6-7-8-9-14-11-10-13(2)12-14;2-1(3,4)5/h10-12H,3-9H2,1-2H3;(H,2,3,4,5)/q+1;/p-1, purity 98.5%
Compound 4: 1-octyl-3-methylimidazolium hexafluorophosphate, C12H23F6N2P, InChI=1S/C12H23N2.F6P/c1-3-4-5-6-7-8-9-14-11-10-13(2)12-14;1-7(2,3,4,5)6/h10-12H,3-9H2,1-2H3;/q+1;-1, purity 98.5%
Compound 5: 1-methyl-3-octylimidazolium tetrachloroaluminate, C12H23AlCl4N2, InChI=1S/C12H23N2.Al.4ClH/c1-3-4-5-6-7-8-9-14-11-10-13(2)12-14;;;;;/h10-12H,3-9H2,1-2H3;;4*1H/q+1;+3;;;;/p-4, purity 98.5%
Compound 6: water, H2O, InChI=1S/H2O/h1H2, purity 99.8%

System: 1-octyl-3-methylimidazolium trifluoromethanesulfonate + 2-mercaptoacetic acid + water; phases: Liquid mixture 2, Liquid mixture 1
Fixed: Temperature, K = 298.15
Fixed: Pressure, kPa = 101.325
Property: Mass fraction of 1-octyl-3-methylimidazolium trifluoromethanesulfonate (Liquid mixture 2); method: Chromatography
Property: Mass fraction of 1-octyl-3-methylimidazolium trifluoromethanesulfonate (Liquid mixture 1); method: Chromatography
Property: Mass fraction of 2-mercaptoacetic acid (Liquid mixture 1); method: Chromatography
Mass fraction of 2-mercaptoacetic acid	Mass fraction of 1-octyl-3-methylimidazolium trifluoromethanesulfonate	uncertainty	Mass fraction of 1-octyl-3-methylimidazolium trifluoromethanesulfonate	uncertainty	Mass fraction of 2-mercaptoacetic acid	uncertainty
0.0335	0.9476	0.0072	0.0009	0.0009	0.0014	
0.1422	0.8219	0.0073	0.0032	0.002	0.0059	
0.2554	0.6916	0.0075	0.0055	0.002	0.0106	
0.3613	0.5687	0.0078	0.0076	0.002	0.015	
0.4722	0.4409	0.0079	0.01	0.002	0.0196	
0.5807	0.3153	0.0076	0.0122	0.002	0.0241	

System: 1-methyl-3-octyl-1H-imidazolium perchlorate + 2-mercaptoacetic acid + water; phases: Liquid mixture 2, Liquid mixture 1
Fixed: Temperature, K = 298.15
Fixed: Pressure, kPa = 101.325
Property: Mass fraction of 1-methyl-3-octyl-1H-imidazolium perchlorate (Liquid mixture 2); method: Chromatography
Property: Mass fraction of 1-methyl-3-octyl-1H-imidazolium perchlorate (Liquid mixture 1); method: Chromatography
Property: Mass fraction of 2-mercaptoacetic acid (Liquid mixture 1); method: Chromatography
Mass fraction of 2-mercaptoacetic acid	Mass fraction of 1-methyl-3-octyl-1H-imidazolium perchlorate	uncertainty	Mass fraction of 1-methyl-3-octyl-1H-imidazolium perchlorate	uncertainty	Mass fraction of 2-mercaptoacetic acid	uncertainty
0.0345	0.9478	0.0076	0.0004	0.0004	0.0022	
0.1188	0.8449	0.0077	0.0026	0.002	0.0077	
0.2032	0.7421	0.0078	0.0047	0.002	0.0131	
0.2874	0.6395	0.008	0.007	0.002	0.0183	
0.3716	0.5368	0.0083	0.0092	0.002	0.0236	
0.4562	0.4337	0.0082	0.0114	0.002	0.0292	

System: 1-octyl-3-methylimidazolium hexafluorophosphate + 2-mercaptoacetic acid + water; phases: Liquid mixture 2, Liquid mixture 1
Fixed: Temperature, K = 298.15
Fixed: Pressure, kPa = 101.325
Property: Mass fraction of 1-octyl-3-methylimidazolium hexafluorophosphate (Liquid mixture 2); method: Chromatography
Property: Mass fraction of 1-octyl-3-methylimidazolium hexafluorophosphate (Liquid mixture 1); method: Chromatography
Property: Mass fraction of 2-mercaptoacetic acid (Liquid mixture 1); method: Chromatography
Mass fraction of 2-mercaptoacetic acid	Mass fraction of 1-octyl-3-methylimidazolium hexafluorophosphate	uncertainty	Mass fraction of 1-octyl-3-methylimidazolium hexafluorophosphate	uncertainty	Mass fraction of 2-mercaptoacetic acid	uncertainty
0.1046	0.8802	0.008	0.0034	0.0025	0.0356	
0.1524	0.819	0.0082	0.0075	0.0025	0.0516	
0.1981	0.7579	0.0083	0.0116	0.0025	0.0678	
0.2466	0.6959	0.0082	0.0152	0.0025	0.0839	
0.2948	0.6353	0.0083	0.0194	0.0025	0.1001	
0.3418	0.5744	0.009	0.0233	0.0025	0.1163	
0.3854	0.5101	0.0089	0.0275	0.0025	0.132	
0.4346	0.4518	0.008	0.0313	0.0025	0.1483	

System: 1-methyl-3-octylimidazolium tetrachloroaluminate + 2-mercaptoacetic acid + water; phases: Liquid mixture 2, Liquid mixture 1
Fixed: Temperature, K = 298.15
Fixed: Pressure, kPa = 101.325
Property: Mass fraction of 2-mercaptoacetic acid (Liquid mixture 2); method: Chromatography
Property: Mass fraction of 2-mercaptoacetic acid (Liquid mixture 1); method: Chromatography
Property: Mass fraction of 1-methyl-3-octylimidazolium tetrachloroaluminate (Liquid mixture 1); method: Chromatography
Mass fraction of 1-methyl-3-octylimidazolium tetrachloroaluminate	Mass fraction of 2-mercaptoacetic acid	uncertainty	Mass fraction of 2-mercaptoacetic acid	uncertainty	Mass fraction of 1-methyl-3-octylimidazolium tetrachloroaluminate	uncertainty
0.8624	0.1049	0.0062	0.0784	0.0065	0.0305	
0.808	0.1417	0.0062	0.1035	0.0065	0.0508	
0.754	0.1782	0.0063	0.1284	0.0065	0.0712	
0.6904	0.2246	0.0064	0.1531	0.0065	0.0918	
0.638	0.2597	0.0064	0.177	0.0066	0.1124	
0.583	0.2974	0.0065	0.2029	0.0066	0.1328	
0.5294	0.3338	0.0066	0.2278	0.0067	0.1535	
0.9071	0.0773	0.0062	0.0534	0.0065	0.0098	
