Measured thermophysical data. (Vapor + liquid) phase equilibrium measurements for {trifluoroiodomethane (R13I1) + propane (R290)} from T = (258.150 to 283.150) K
Source: J. Chem. Thermodyn., 2014, 10.1016/j.jct.2014.07.013
Compound 1: propane, C3H8, InChI=1S/C3H8/c1-3-2/h3H2,1-2H3, purity 99.9%
Compound 2: trifluoroiodomethane, CF3I, InChI=1S/CF3I/c2-1(3,4)5, purity 99%

System: propane; phases: Liquid, Gas
Property: Vapor or sublimation pressure, kPa (Liquid); method: Closed cell (Static) method
Temperature, K	Vapor or sublimation pressure, kPa	uncertainty
258.15	291.6	1.1
263.15	345.3	1.1
273.15	474.5	1.2
283.15	636.8	1.4

System: trifluoroiodomethane; phases: Liquid, Gas
Property: Vapor or sublimation pressure, kPa (Liquid); method: Closed cell (Static) method
Temperature, K	Vapor or sublimation pressure, kPa	uncertainty
258.15	133	1
263.15	160.4	1
273.15	228.4	1.1
283.15	316.5	1.1

System: propane + trifluoroiodomethane; phases: Liquid, Gas
Property: Vapor or sublimation pressure, kPa (Liquid); method: Closed cell (Static) method
Mole fraction of trifluoroiodomethane	Temperature, K	Vapor or sublimation pressure, kPa	uncertainty
0	258.15	291.6	1.3
0.148	258.15	273.3	1.8
0.307	258.15	252.6	1.8
0.394	258.15	241.1	1.9
0.518	258.15	222.4	2
0.631	258.15	204.8	2.2
0.859	258.15	159.6	2.3
1	258.15	133	1.1
0	263.15	345.3	1.4
0.15	263.15	323.5	2
0.309	263.15	299.7	2
0.396	263.15	286	2.2
0.521	263.15	264.5	2.2
0.638	263.15	243.4	2.6
0.862	263.15	191	2.6
1	263.15	160.4	1.2
0	273.15	474.5	1.7
0.151	273.15	445.3	2.6
0.308	273.15	413.5	2.5
0.396	273.15	394.3	2.8
0.518	273.15	366	2.8
0.635	273.15	337	3.3
0.869	273.15	267.7	3.2
1	273.15	228.4	1.3
0	283.15	636.7	2.1
0.151	283.15	598.4	3.3
0.31	283.15	556.1	3.3
0.396	283.15	531.3	3.5
0.516	283.15	494.4	3.6
0.638	283.15	455.3	4.1
0.871	283.15	365.6	4.2
1	283.15	316.5	1.5

System: propane + trifluoroiodomethane; phases: Gas, Liquid
Property: Mole fraction of trifluoroiodomethane (Gas); method: Chromatography
Mole fraction of trifluoroiodomethane	Temperature, K	Mole fraction of trifluoroiodomethane	uncertainty
0	258.15	0	
0.148	258.15	0.089	0.012
0.307	258.15	0.196	0.012
0.394	258.15	0.246	0.012
0.518	258.15	0.338	0.013
0.631	258.15	0.433	0.015
0.859	258.15	0.712	0.018
1	258.15	1	
0	263.15	0	
0.15	263.15	0.093	0.012
0.309	263.15	0.2	0.012
0.396	263.15	0.249	0.012
0.521	263.15	0.343	0.013
0.638	263.15	0.442	0.016
0.862	263.15	0.719	0.018
1	263.15	1	
0	273.15	0	
0.151	273.15	0.096	0.012
0.308	273.15	0.207	0.012
0.396	273.15	0.261	0.013
0.518	273.15	0.356	0.013
0.635	273.15	0.458	0.016
0.869	273.15	0.736	0.018
1	273.15	1	
0	283.15	0	
0.151	283.15	0.1	0.012
0.31	283.15	0.215	0.012
0.396	283.15	0.27	0.013
0.516	283.15	0.367	0.014
0.638	283.15	0.475	0.015
0.871	283.15	0.752	0.018
1	283.15	1	
