Measured thermophysical data. Experimental and computational study of the energetics of hydantoin and  2-thiohydantoin
Source: J. Chem. Thermodyn., 2013, 10.1016/j.jct.2012.10.010
Compound 1: carbon dioxide, CO2, InChI=1S/CO2/c2-1-3
Compound 2: nitrogen, N2, InChI=1S/N2/c1-2
Compound 3: water, H2O, InChI=1S/H2O/h1H2
Compound 4: oxygen, O2, InChI=1S/O2/c1-2
Compound 5: sulfuric acid, H2O4S, InChI=1S/H2O4S/c1-5(2,3)4/h(H2,1,2,3,4)
Compound 6: 2,4-imidazolidinedione, C3H4N2O2, InChI=1S/C3H4N2O2/c6-2-1-4-3(7)5-2/h1H2,(H2,4,5,6,7), purity 99.4%
Compound 7: 2-thiohydantoin, C3H4N2OS, InChI=1S/C3H4N2OS/c6-2-1-4-3(7)5-2/h1H2,(H2,4,5,6,7), purity 99.7%

System: 2,4-imidazolidinedione; phases: Crystal, Liquid, Air at 1 atmosphere
Property: Normal melting temperature, K (Crystal); method: DTA
Normal melting temperature, K	uncertainty
495.8	0.5

System: 2,4-imidazolidinedione; phases: Crystal, Liquid, Air at 1 atmosphere
Property: Molar enthalpy of transition or fusion, kJ/mol (Crystal); method: DSC
Molar enthalpy of transition or fusion, kJ/mol	uncertainty
24.8	0.8

System: 2,4-imidazolidinedione; phases: Crystal, Gas
Property: Molar enthalpy of vaporization or sublimation, kJ/mol (Crystal); method: Static calorimetry
Temperature, K	Molar enthalpy of vaporization or sublimation, kJ/mol	uncertainty
298.15	113.3	3.1

System: 2,4-imidazolidinedione; phases: Crystal, Gas
Property: Vapor or sublimation pressure, kPa (Crystal); method: Calculated from knudsen effusion weight loss
Temperature, K	Vapor or sublimation pressure, kPa	uncertainty
379.15	0.0001906	9.6e-06
381.17	0.0002375	1.19e-05
383.13	0.0002876	1.44e-05
385.14	0.0003489	1.75e-05
387.15	0.0004082	2.04e-05
389.13	0.0004961	2.48e-05
391.15	0.0005862	2.93e-05
397.17	0.0010197	0.0001024
399.15	0.0012057	0.0001255
379.15	0.0001932	9.7e-06
381.17	0.0002332	1.17e-05
383.13	0.0002856	1.43e-05
385.14	0.0003359	1.68e-05
387.15	0.0004041	2.02e-05
389.13	0.0004914	2.46e-05
391.15	0.0005914	2.96e-05
393.17	0.0007115	3.56e-05
395.15	0.0008596	4.3e-05
397.17	0.0009952	4.98e-05
399.15	0.0011816	0.0001225

System: 2-thiohydantoin; phases: Crystal, Liquid, Air at 1 atmosphere
Property: Normal melting temperature, K (Crystal); method: DTA
Normal melting temperature, K	uncertainty
506.1	1.1

System: 2-thiohydantoin; phases: Crystal, Liquid, Air at 1 atmosphere
Property: Molar enthalpy of transition or fusion, kJ/mol (Crystal); method: DSC
Molar enthalpy of transition or fusion, kJ/mol	uncertainty
27.1	1.3

System: 2-thiohydantoin; phases: Crystal, Gas
Property: Vapor or sublimation pressure, kPa (Crystal); method: Calculated from knudsen effusion weight loss
Temperature, K	Vapor or sublimation pressure, kPa	uncertainty
388.11	0.0001655	8.3e-06
390.12	0.0002004	1e-05
392.15	0.0002404	1.2e-05
396.11	0.0003597	1.8e-05
398.14	0.000418	2.09e-05
400.12	0.0004995	2.5e-05
402.12	0.0005844	2.92e-05
404.15	0.0007095	3.55e-05
406.16	0.0008419	4.21e-05
408.12	0.0010008	0.0001001
410.16	0.0011752	0.0001217
388.11	0.0001641	8.2e-06
390.12	0.0001982	9.9e-06
392.15	0.0002461	1.23e-05
394.12	0.0002963	1.48e-05
396.11	0.000351	1.76e-05
398.14	0.0004058	2.03e-05
400.12	0.0004948	2.48e-05
402.12	0.0005914	2.96e-05
404.15	0.0006939	3.47e-05
406.16	0.0008254	4.13e-05
408.12	0.0009886	4.95e-05

System: 2-thiohydantoin; phases: Crystal, Gas
Property: Molar enthalpy of vaporization or sublimation, kJ/mol (Crystal); method: Static calorimetry
Temperature, K	Molar enthalpy of vaporization or sublimation, kJ/mol	uncertainty
298.15	115	2.1

Reaction: -1 2,4-imidazolidinedione + 3 carbon dioxide + 1 nitrogen + 2 water + -3 oxygen
Property: Specific internal energy of reaction at constant volume, J/g
-13050.83

Reaction: -1 2-thiohydantoin + 1 sulfuric acid + 3 carbon dioxide + 1 nitrogen + 1 water + -5 oxygen
Property: Specific internal energy of reaction at constant volume, J/g
-18487.13
