Measured thermophysical data. Synthesis, spectroscopic characterization and acoustic, volumetric, transport and thermal properties of hydroxyl ammonium based ionic liquids
Source: J. Chem. Thermodyn., 2016, 10.1016/j.jct.2015.09.016
Compound 1: N-(2-hydroxyethyl)butan-1-aminium 2,2,2-trifluoroacetate, C8H16F3NO3, InChI=1S/C6H15NO.C2HF3O2/c1-2-3-4-7-5-6-8;3-2(4,5)1(6)7/h7-8H,2-6H2,1H3;(H,6,7)
Compound 2: N-(2-hydroxyethyl)butan-1-aminium nitrate, C6H16N2O4, InChI=1S/C6H15NO.NO3/c1-2-3-4-7-5-6-8;2-1(3)4/h7-8H,2-6H2,1H3;/q;-1/p+1
Compound 3: water, H2O, InChI=1S/H2O/h1H2, purity 99.9%

System: N-(2-hydroxyethyl)butan-1-aminium 2,2,2-trifluoroacetate; phases: Liquid
Property: Refractive index (Na D-line) (Liquid); method: Standard Abbe refractometry
Temperature, K	Pressure, kPa	Refractive index (Na D-line)	uncertainty
303.15	101.325	1.4126	0.0012

System: N-(2-hydroxyethyl)butan-1-aminium 2,2,2-trifluoroacetate; phases: Liquid
Fixed: Pressure, kPa = 101.325
Property: Mass density, kg/m3 (Liquid); method: Vibrating tube method
Temperature, K	Mass density, kg/m3	uncertainty
303.15	1203.34	6.52
308.15	1198.07	6.51
313.15	1194.18	6.5
318.15	1190.28	6.5
323.15	1186.37	6.49
328.15	1182.48	6.48
333.15	1178.6	6.48
338.15	1174.73	6.47
343.15	1170.87	6.47

System: N-(2-hydroxyethyl)butan-1-aminium 2,2,2-trifluoroacetate; phases: Liquid
Fixed: Pressure, kPa = 101.325
Property: Speed of sound, m/s (Liquid); method: Sing-around technique in a fixed-path interferometer
Temperature, K	Speed of sound, m/s	uncertainty
303.15	1282.6	5
308.15	1270	5
313.15	1257.7	5
318.15	1245.7	5
323.15	1233.9	5
328.15	1222.4	5
333.15	1211	5
338.15	1199.8	5
343.15	1188.7	5

System: N-(2-hydroxyethyl)butan-1-aminium 2,2,2-trifluoroacetate; phases: Liquid
Fixed: Pressure, kPa = 101.325
Property: Viscosity, Pa*s (Liquid); method: Falling or rolling sphere viscometry
Temperature, K	Viscosity, Pa*s	uncertainty
303.15	0.2117	0.0108
308.15	0.1711	0.0078
313.15	0.1353	0.0056
318.15	0.1046	0.0043
323.15	0.0817	0.0036
328.15	0.0647	0.0034
333.15	0.0523	0.0033
338.15	0.0428	0.0033
343.15	0.0356	0.0032

System: N-(2-hydroxyethyl)butan-1-aminium 2,2,2-trifluoroacetate; phases: Liquid
Fixed: Pressure, kPa = 101.325
Property: Electrical conductivity, S/m (Liquid); method: Alternating current cell with electrodes
Temperature, K	Electrical conductivity, S/m	uncertainty
303.15	0.0391	0.0016
308.15	0.0494	0.002
313.15	0.0596	0.0024
318.15	0.0703	0.0028
323.15	0.0811	0.0032
328.15	0.0916	0.0037
333.15	0.103	0.0041
338.15	0.1162	0.0046
343.15	0.1283	0.0051

System: N-(2-hydroxyethyl)butan-1-aminium nitrate; phases: Liquid
Property: Refractive index (Na D-line) (Liquid); method: Standard Abbe refractometry
Temperature, K	Pressure, kPa	Refractive index (Na D-line)	uncertainty
303.15	101.325	1.4675	0.0012

System: N-(2-hydroxyethyl)butan-1-aminium nitrate; phases: Liquid
Fixed: Pressure, kPa = 101.325
Property: Mass density, kg/m3 (Liquid); method: Vibrating tube method
Temperature, K	Mass density, kg/m3	uncertainty
303.15	1114.69	6.38
308.15	1111.58	6.38
313.15	1108.47	6.37
318.15	1105.35	6.37
323.15	1102.25	6.36
328.15	1099.15	6.36
333.15	1096.07	6.36
338.15	1093	6.35
343.15	1089.95	6.35

System: N-(2-hydroxyethyl)butan-1-aminium nitrate; phases: Liquid
Fixed: Pressure, kPa = 101.325
Property: Speed of sound, m/s (Liquid); method: Sing-around technique in a fixed-path interferometer
Temperature, K	Speed of sound, m/s	uncertainty
303.15	1608.3	5.1
308.15	1595.7	5.1
313.15	1583.5	5
318.15	1571.5	5
323.15	1559.7	5
328.15	1548.1	5
333.15	1536.7	5
338.15	1525.4	5
343.15	1514.3	5

System: N-(2-hydroxyethyl)butan-1-aminium nitrate; phases: Liquid
Fixed: Pressure, kPa = 101.325
Property: Viscosity, Pa*s (Liquid); method: Falling or rolling sphere viscometry
Temperature, K	Viscosity, Pa*s	uncertainty
303.15	0.2721	0.016
308.15	0.2029	0.0101
313.15	0.154	0.0066
318.15	0.1192	0.0048
323.15	0.0933	0.0039
328.15	0.0741	0.0035
333.15	0.0596	0.0033
338.15	0.0488	0.0033
343.15	0.0406	0.0033

System: N-(2-hydroxyethyl)butan-1-aminium nitrate; phases: Liquid
Fixed: Pressure, kPa = 101.325
Property: Electrical conductivity, S/m (Liquid); method: Alternating current cell with electrodes
Temperature, K	Electrical conductivity, S/m	uncertainty
303.15	0.0583	0.0023
308.15	0.0701	0.0028
313.15	0.085	0.0034
318.15	0.0982	0.0039
323.15	0.1146	0.0046
328.15	0.1357	0.0054
333.15	0.16	0.0064
338.15	0.1824	0.0073
343.15	0.2001	0.008

System: N-(2-hydroxyethyl)butan-1-aminium 2,2,2-trifluoroacetate + water; phases: Liquid
Fixed: Pressure, kPa = 100
Fixed: Temperature, K = 303.15
Property: Mass density, kg/m3 (Liquid); method: Vibrating tube method
Mass fraction of water	Mass density, kg/m3	uncertainty
0.002186	1203.34	6.52
0.003864	1203.51	6.51
0.005373	1203.68	6.51
0.006759	1203.81	6.51
0.008675	1204	6.5

System: N-(2-hydroxyethyl)butan-1-aminium 2,2,2-trifluoroacetate + water; phases: Liquid
Fixed: Pressure, kPa = 100
Fixed: Temperature, K = 303.15
Fixed: Frequency, MHz = 3
Property: Speed of sound, m/s (Liquid); method: Sing-around technique in a fixed-path interferometer
Mass fraction of water	Speed of sound, m/s	uncertainty
0.002186	1282.6	5
0.003864	1282.9	5
0.005373	1283.2	5
0.006759	1283.4	5
0.008675	1283.7	5

System: N-(2-hydroxyethyl)butan-1-aminium 2,2,2-trifluoroacetate + water; phases: Liquid
Fixed: Pressure, kPa = 100
Fixed: Temperature, K = 303.15
Property: Viscosity, Pa*s (Liquid); method: Falling or rolling sphere viscometry
Mass fraction of water	Viscosity, Pa*s	uncertainty
0.002186	0.2117	0.0108
0.003864	0.2111	0.0108
0.005373	0.2104	0.0107
0.006759	0.2098	0.0107
0.008675	0.2091	0.0106

System: N-(2-hydroxyethyl)butan-1-aminium 2,2,2-trifluoroacetate + water; phases: Liquid
Fixed: Pressure, kPa = 100
Fixed: Temperature, K = 303.15
Property: Electrical conductivity, S/m (Liquid); method: Alternating current cell with electrodes
Mass fraction of water	Electrical conductivity, S/m	uncertainty
0.002186	0.0391	0.0016
0.003652	0.0393	0.0016
0.004819	0.0394	0.0016
0.006342	0.0396	0.0016
0.007483	0.0398	0.0016

System: N-(2-hydroxyethyl)butan-1-aminium nitrate + water; phases: Liquid
Fixed: Pressure, kPa = 100
Fixed: Temperature, K = 303.15
Property: Mass density, kg/m3 (Liquid); method: Vibrating tube method
Mass fraction of water	Mass density, kg/m3	uncertainty
0.002318	1114.69	6.38
0.003967	1114.88	6.38
0.005068	1115.01	6.37
0.006904	1115.21	6.37
0.008717	1115.39	6.37

System: N-(2-hydroxyethyl)butan-1-aminium nitrate + water; phases: Liquid
Fixed: Pressure, kPa = 100
Fixed: Temperature, K = 303.15
Fixed: Frequency, MHz = 3
Property: Speed of sound, m/s (Liquid); method: Sing-around technique in a fixed-path interferometer
Mass fraction of water	Speed of sound, m/s	uncertainty
0.002318	1608.3	5
0.003967	1608.7	5
0.005068	1609	5
0.006904	1609.4	5
0.008717	1609.8	5

System: N-(2-hydroxyethyl)butan-1-aminium nitrate + water; phases: Liquid
Fixed: Pressure, kPa = 100
Fixed: Temperature, K = 303.15
Property: Viscosity, Pa*s (Liquid); method: Falling or rolling sphere viscometry
Mass fraction of water	Viscosity, Pa*s	uncertainty
0.002318	0.2721	0.0161
0.003967	0.2715	0.016
0.005068	0.2711	0.016
0.006904	0.2705	0.0159
0.008717	0.2698	0.0159

System: N-(2-hydroxyethyl)butan-1-aminium nitrate + water; phases: Liquid
Fixed: Pressure, kPa = 100
Fixed: Temperature, K = 303.15
Property: Electrical conductivity, S/m (Liquid); method: Alternating current cell with electrodes
Mass fraction of water	Electrical conductivity, S/m	uncertainty
0.002318	0.0583	0.0023
0.003573	0.0585	0.0023
0.004837	0.0587	0.0023
0.006108	0.0589	0.0024
0.007452	0.0591	0.0024
