Measured thermophysical data. Thermodynamics of monoclinic Fe2(SO4)3
Source: J. Chem. Thermodyn., 2005, 10.1016/j.jct.2004.11.021
Compound 1: ferric sulfate, Fe2O12S3, InChI=1S/2Fe.3H2O4S/c;;3*1-5(2,3)4/h;;3*(H2,1,2,3,4)/q2*+3;;;/p-6

System: ferric sulfate; phases: Crystal
Fixed: Pressure, kPa = 101.325
Property: Molar heat capacity at constant pressure, J/K/mol (Crystal); method: Vacuum adiabatic calorimetry
Temperature, K	Molar heat capacity at constant pressure, J/K/mol	uncertainty
20.41	23.727	0.147
22.04	27.219	0.157
23.98	32.064	0.171
26.1	38.522	0.189
28.37	48.316	0.192
31.15	36.844	0.132
34.38	28.277	0.104
35.8	28.845	0.098
37.53	29.979	0.101
38.89	31.244	0.104
41.97	34.422	0.111
43.93	36.872	0.116
45.1	38.336	0.12
47.55	41.574	0.126
50.97	46.25	0.135
52.56	48.461	0.14
54.46	51.217	0.145
55.27	52.111	0.147
57.67	55.465	0.154
60.57	59.887	0.162
63.93	64.707	0.172
68.21	70.924	0.184
72.96	77.853	0.198
77.73	84.582	0.211
82.56	91.23	0.224
87.43	97.847	0.237
92.33	104.34	0.31
97.26	110.68	0.31
102.22	116.82	0.32
107.2	122.94	0.32
112.21	128.78	0.33
117.23	134.46	0.34
122.26	140.06	0.34
127.31	145.47	0.35
132.38	150.81	0.35
137.45	156.13	0.36
142.53	161.14	0.36
147.62	166.1	0.37
152.71	170.99	0.37
157.82	175.9	0.38
162.93	180.77	0.38
168.04	185.26	0.39
173.16	189.76	0.39
178.29	194.31	0.39
188.55	202.62	0.4
193.68	206.62	0.41
198.82	210.43	0.41
201.26	212.33	0.41
203.96	214.19	0.41
206.92	216.42	0.42
212.06	220.06	0.42
217.21	223.75	0.42
222.35	227.51	0.43
227.5	230.99	0.43
232.65	234.33	0.43
237.81	237.63	0.44
242.97	240.97	0.44
248.12	244.11	0.44
253.28	247.44	0.45
258.44	250.59	0.45
263.6	253.65	0.45
268.77	256.66	0.46
273.93	259.38	0.46
279.1	262.1	0.46
284.27	265.21	0.47
289.44	268.47	0.47
294.62	271.12	0.47
297.06	272.27	0.47
298.47	272.68	0.47
302.18	274.8	0.47
307.25	277.64	0.48
312.31	279.8	0.48
317.38	282.55	0.48
322.46	285.23	0.49
327.54	287.92	0.49
332.61	290.4	0.49
337.68	292.75	0.49
342.74	295.12	0.5
347.82	297.39	0.5
352.89	299.39	0.5
357.96	301.51	0.5
363.04	303.92	0.5
368.11	306.45	0.51
373.19	308.89	0.51
374.18	309.03	0.51
379.26	310.85	0.51
384.34	312.54	0.51
389.41	314.62	0.51
394.48	316.57	0.52

System: ferric sulfate; phases: Crystal
Fixed: Pressure, kPa = 101.325
Property: Molar heat capacity at constant pressure, J/K/mol (Crystal); method: Small (less than 1 g) adiabatic calorimetry
Temperature, K	Molar heat capacity at constant pressure, J/K/mol	uncertainty
0.472	0.001945	0.020039
0.495	0.00205	0.02004
0.519	0.001961	0.020039
0.544	0.00223	0.02004
0.572	0.002394	0.020048
0.608	0.002469	0.020049
0.629	0.002639	0.020053
0.676	0.00324	0.02006
0.693	0.00314	0.02006
0.764	0.003761	0.020075
0.772	0.003944	0.020079
0.84	0.004787	0.020096
0.88	0.005469	0.020111
0.923	0.006223	0.020125
0.968	0.006866	0.020138
1.01	0.008058	0.020162
1.06	0.008971	0.020181
1.12	0.01008	0.0202
1.17	0.01206	0.02025
1.23	0.01386	0.02029
1.29	0.01615	0.02033
1.35	0.01976	0.02041
1.41	0.02222	0.02046
1.48	0.02632	0.02054
1.55	0.03041	0.02063
1.63	0.03599	0.02074
1.71	0.04164	0.02086
1.72	0.04267	0.02089
1.79	0.04925	0.02103
1.81	0.05049	0.02108
1.88	0.05773	0.02122
1.89	0.05998	0.02127
1.97	0.06854	0.02149
2	0.07205	0.02156
2.07	0.08121	0.02176
2.09	0.08647	0.02186
2.2	0.1027	0.0222
2.3	0.1205	0.0226
2.42	0.1437	0.0232
2.66	0.2017	0.0244
2.78	0.2379	0.0252
2.93	0.2825	0.0261
3.07	0.3326	0.0273
3.22	0.3934	0.0287
3.37	0.4615	0.0301
3.54	0.5423	0.0318
3.71	0.6374	0.0338
3.9	0.7485	0.0361
4.08	0.8706	0.0385
4.29	1.0163	0.0414
4.49	1.1797	0.0444
4.72	1.3598	0.0477
4.94	1.5617	0.0517
5.19	1.7999	0.0559
5.43	2.046	0.0602
5.7	2.3344	0.0652
5.96	2.6289	0.07
6.27	2.9751	0.0758
6.56	3.3352	0.0818
6.9	3.7576	0.0885
7.24	4.1963	0.0953
7.61	4.6722	0.1027
7.98	5.1781	0.1103
8.38	5.6983	0.118
8.77	6.2483	0.126
9.21	6.8155	0.1339
9.65	7.4324	0.1427
9.77	7.5991	0.1446
10.13	8.0566	0.1509
10.27	8.2766	0.1542
10.61	8.7446	0.1601
10.75	8.9343	0.1626
11.21	9.5675	0.1706
11.87	10.464	0.182
12.27	11.012	0.188
13.07	12.083	0.2
13.57	12.767	0.208
14.35	13.849	0.219
15	14.782	0.229
15.78	15.909	0.24
16.55	17.078	0.25
17.36	18.344	0.261
18.24	19.802	0.274
19.09	21.312	0.286
20.04	23.079	0.299
20.98	24.9	0.312
22.03	27.178	0.327
23.07	29.706	0.344
24.21	32.699	0.358
24.48	32.872	0.36
25.36	35.776	0.373
25.5	35.928	0.373
26.25	38.276	0.389
26.5	39.083	0.397
26.61	39.893	0.399
26.75	39.962	0.397
27.24	41.906	0.41
27.44	42.807	0.415
27.73	43.978	0.439
27.86	46.327	0.436
28.1	45.668	0.42
28.22	46.11	0.429
28.32	46.531	0.437
28.41	47.127	0.438
28.51	47.459	0.441
28.7	48.632	0.457
28.71	48.656	0.457
28.89	50.144	0.461
29.08	51.008	0.463
29.21	52.144	0.478
29.22	51.191	0.471
29.27	52.53	0.498
29.36	53.14	0.513
29.42	54.454	0.495
29.46	53.814	0.492
29.47	54.036	0.548
29.56	54.831	0.584
29.62	56.862	0.533
29.66	57.299	0.524
29.7	57.606	0.636
29.73	56.843	0.586
29.76	56.794	0.6
29.84	60.542	0.745
29.87	61.002	0.775
29.9	62.788	0.801
29.95	62.829	0.827
30	63.846	1.429
30.05	58.223	2.23
30.06	53.508	2.186
30.11	43.934	2.098
30.18	38.115	1.478
30.21	42.348	0.975
30.25	34.901	0.788
30.27	35.046	0.502
30.32	34.334	0.767
30.39	33.594	0.36
30.47	32.62	0.368
30.49	32.406	0.64
30.49	36.745	0.598
30.54	31.452	0.573
30.67	41.055	0.338
30.69	30.962	0.259
30.74	30.986	0.845
30.89	30.621	0.262
31.26	29.248	0.254
31.55	28.627	0.246
31.76	28.291	0.246
31.91	27.723	0.25
32.57	27.742	0.239
33.57	27.54	0.238
34.49	27.867	0.24
34.91	28.692	0.244
35.5	28.539	0.243
36.56	29.186	0.246
37.54	30.185	0.255
38.16	32.962	0.28

System: ferric sulfate; phases: Crystal
Fixed: Pressure, kPa = 101.325
Property: Molar heat capacity at constant pressure, J/K/mol (Crystal); method: Vacuum adiabatic calorimetry
Temperature, K	Molar heat capacity at constant pressure, J/K/mol	uncertainty
5	1.621	0.035
10	7.907	0.076
15	14.775	0.113
20	23.006	0.144
25	34.364	0.184
30	63.839	0.168
35	28.136	0.115
40	32.21	0.106
45	38.213	0.119
50	44.923	0.133
60	59.033	0.161
70	73.517	0.189
80	87.751	0.217
90	101.312	0.302
100	114.091	0.315
110	126.139	0.327
120	137.53	0.338
130	148.355	0.349
140	158.69	0.359
150	168.551	0.369
160	177.963	0.378
170	186.951	0.387
180	195.498	0.396
190	203.638	0.404
200	211.387	0.412
210	218.77	0.419
220	225.821	0.426
230	232.581	0.433
240	239.074	0.439
250	245.335	0.446
260	251.38	0.452
270	257.233	0.457
273.15	259.046	0.459
280	262.912	0.463
290	268.416	0.469
298.15	272.79	0.473
300	273.771	0.474
310	278.959	0.479
320	284.014	0.484
330	288.92	0.489
340	293.692	0.494
350	298.332	0.498
360	302.805	0.503
370	307.095	0.507
380	311.152	0.511
390	314.952	0.515
400	318.469	0.519

System: ferric sulfate; phases: Crystal
Fixed: Pressure, kPa = 101.325
Property: Molar enthalpy function {Hm(T)-Hm(0)}/T, J/K/mol (Crystal); method: Vacuum adiabatic calorimetry
Temperature, K	Molar enthalpy function {Hm(T)-Hm(0)}/T, J/K/mol	uncertainty
5	0.391	0.016
10	2.494	0.031
15	5.438	0.048
20	8.747	0.061
25	12.671	0.069
30	17.934	0.077
35	19.581	0.079
40	20.894	0.082
45	22.474	0.085
50	24.378	0.089
60	28.959	0.098
70	34.289	0.109
80	40.092	0.121
90	46.145	0.246
100	52.306	0.253
110	58.476	0.259
120	64.595	0.265
130	70.623	0.271
140	76.551	0.277
150	82.355	0.283
160	88.042	0.288
170	93.596	0.294
180	99.017	0.299
190	104.313	0.304
200	109.477	0.31
210	114.507	0.315
220	119.404	0.32
230	124.185	0.324
240	128.833	0.329
250	133.372	0.333
260	137.796	0.338
270	142.111	0.342
273.15	143.45	0.344
280	146.326	0.346
290	150.442	0.351
298.15	153.726	0.354
300	154.458	0.355
310	158.391	0.358
320	162.24	0.362
330	166.007	0.366
340	169.69	0.37
350	173.299	0.373
360	176.832	0.377
370	180.299	0.38
380	183.692	0.384
390	187.009	0.387
400	190.252	0.39

System: ferric sulfate; phases: Crystal
Fixed: Pressure, kPa = 101.325
Property: Molar entropy, J/K/mol (Crystal); method: Vacuum adiabatic calorimetry
Temperature, K	Molar entropy, J/K/mol	uncertainty
5	0.499	0.025
10	3.442	0.057
15	7.94	0.097
20	13.262	0.129
25	19.539	0.15
30	27.538	0.145
35	32.102	0.157
40	36.118	0.169
45	40.242	0.182
50	44.615	0.195
60	54.027	0.223
70	64.213	0.254
80	74.963	0.286
90	86.088	0.43
100	97.437	0.447
110	108.878	0.464
120	120.344	0.481
130	131.784	0.498
140	143.159	0.515
150	154.45	0.532
160	165.633	0.549
170	176.691	0.565
180	187.624	0.582
190	198.408	0.598
200	209.059	0.614
210	219.552	0.63
220	229.887	0.645
230	240.08	0.66
240	250.116	0.675
250	260.002	0.69
260	269.738	0.705
270	279.341	0.719
273.15	282.335	0.724
280	288.795	0.733
290	298.124	0.747
298.15	305.623	0.759
300	307.311	0.761
310	316.374	0.775
320	325.312	0.788
330	334.125	0.801
340	342.822	0.814
350	351.403	0.827
360	359.867	0.84
370	368.223	0.852
380	376.471	0.865
390	384.603	0.877
400	392.618	0.889
