Measured thermophysical data. Viscosity measurements for squalane at high pressures to 350 MPa from T = (293.15 to 363.15) K
Source: J. Chem. Thermodyn., 2014, 10.1016/j.jct.2013.10.001
Compound 1: 2,6,10,15,19,23-hexamethyltetracosane, C30H62, InChI=1S/C30H62/c1-25(2)15-11-19-29(7)23-13-21-27(5)17-9-10-18-28(6)22-14-24-30(8)20-12-16-26(3)4/h25-30H,9-24H2,1-8H3

System: 2,6,10,15,19,23-hexamethyltetracosane; phases: Liquid
Property: Viscosity, Pa*s (Liquid); method: Falling or rolling sphere viscometry
Temperature, K	Pressure, kPa	Viscosity, Pa*s	uncertainty
338.15	50600	0.01556	0.00039
338.15	102800	0.03294	0.00081
338.15	150200	0.0609	0.00149
338.15	198400	0.1089	0.0037
338.15	249700	0.194	0.0093
338.15	272700	0.2438	0.0132
338.15	299800	0.3276	0.0208
338.15	349200	0.5385	0.0432
338.15	349200	0.531	0.0423
348.15	198300	0.07083	0.00183
348.15	200400	0.07263	0.0019
348.15	300600	0.2029	0.01
348.15	349800	0.3276	0.0208
363.15	10200	0.00436	0.00011
363.15	21000	0.00515	0.00013
363.15	30900	0.00597	0.00015
363.15	40700	0.00684	0.00017
363.15	50600	0.00782	0.00019
363.15	60600	0.00894	0.00022
363.15	70700	0.01018	0.00025
363.15	80600	0.01149	0.00029
363.15	91000	0.01306	0.00032
363.15	100000	0.01459	0.00036
363.15	120400	0.01836	0.00046
363.15	150300	0.02556	0.00063
363.15	200200	0.04282	0.00106
363.15	225600	0.05503	0.00131
363.15	246900	0.06623	0.00166

System: 2,6,10,15,19,23-hexamethyltetracosane; phases: Liquid
Property: Viscosity, Pa*s (Liquid); method: Falling or rolling sphere viscometry
Temperature, K	Pressure, kPa	Viscosity, Pa*s	uncertainty
303.15	20000	0.03478	0.00127
303.15	40000	0.05164	0.00184
303.15	60000	0.07496	0.00283
303.15	80000	0.10709	0.00456
303.15	100000	0.14647	0.00711
303.15	120000	0.21053	0.01194
303.15	140000	0.3054	0.02015
303.15	160000	0.42248	0.03149
323.15	20000	0.01577	0.00057
323.15	40000	0.02236	0.00081
323.15	60000	0.03117	0.00113
323.15	80000	0.04271	0.00155
323.15	100000	0.05775	0.00207
323.15	120000	0.07738	0.00294
323.15	140000	0.10235	0.00428
323.15	160000	0.1351	0.00633
323.15	180000	0.17594	0.00923
323.15	200000	0.22818	0.01336
348.15	20000	0.00745	0.00027
348.15	40000	0.01015	0.00037
348.15	60000	0.01351	0.00049
348.15	80000	0.01779	0.00065
348.15	100000	0.02308	0.00084
348.15	120000	0.02961	0.00107
348.15	140000	0.03763	0.00137
348.15	160000	0.04809	0.00175
348.15	180000	0.06038	0.00218
348.15	200000	0.07491	0.00283

System: 2,6,10,15,19,23-hexamethyltetracosane; phases: Liquid
Property: Viscosity, Pa*s (Liquid); method: Falling or rolling sphere viscometry
Temperature, K	Pressure, kPa	Viscosity, Pa*s	uncertainty
313.15	10000	0.0168	0.0009
313.15	15000	0.0189	0.001
313.15	25000	0.0238	0.0012
313.15	50000	0.0392	0.002
313.15	75000	0.0612	0.0032
313.15	100000	0.0923	0.0051
313.15	125000	0.1364	0.0082
313.15	150000	0.199	0.0133
343.15	10000	0.0073	0.0004
343.15	15000	0.008	0.0004
343.15	25000	0.0094	0.0005
343.15	50000	0.0136	0.0008
343.15	75000	0.0192	0.0012
343.15	100000	0.0265	0.0017
343.15	125000	0.0362	0.0025
343.15	150000	0.0491	0.0035

System: 2,6,10,15,19,23-hexamethyltetracosane; phases: Liquid
Property: Viscosity, Pa*s (Liquid); method: Falling or rolling sphere viscometry
Temperature, K	Pressure, kPa	Viscosity, Pa*s	uncertainty
313.15	50000	0.0363	0.002
313.15	75000	0.0596	0.0031
313.15	100000	0.0913	0.005
313.15	125000	0.1348	0.0081
313.15	150000	0.1941	0.0129
313.15	175000	0.2753	0.0203
313.15	200000	0.3862	0.0315
313.15	225000	0.5377	0.0482
313.15	250000	0.7447	0.0729
343.15	75000	0.0187	0.0012
343.15	100000	0.0272	0.0016
343.15	125000	0.0381	0.0023
343.15	150000	0.052	0.0032
343.15	175000	0.0699	0.0044
343.15	200000	0.0928	0.0062
343.15	225000	0.1221	0.0087
343.15	250000	0.1596	0.0121
363.15	100000	0.0142	0.0008
363.15	125000	0.0199	0.0011
363.15	150000	0.0268	0.0015
363.15	175000	0.0351	0.002
363.15	200000	0.045	0.0026
363.15	225000	0.0567	0.0033
363.15	250000	0.0704	0.0042

System: 2,6,10,15,19,23-hexamethyltetracosane; phases: Liquid
Property: Viscosity, Pa*s (Liquid); method: quartz resonator viscometer
Temperature, K	Pressure, kPa	Viscosity, Pa*s	uncertainty
293.15	10220	0.0458	0.0019
293.15	20250	0.0579	0.0023
293.15	30090	0.0708	0.0029
293.15	40100	0.087	0.0035
293.15	50070	0.1081	0.0044
293.15	60060	0.13	0.0053
293.15	71000	0.1604	0.0065
293.15	80600	0.1806	0.0073
313.15	10110	0.0182	0.0007
313.15	20170	0.0224	0.0009
313.15	29620	0.0266	0.0011
313.15	40550	0.0325	0.0013
313.15	49650	0.0385	0.0016
313.15	60500	0.047	0.0019
313.15	70400	0.0559	0.0023
313.15	80670	0.0664	0.0027
333.15	9160	0.009	0.0004
333.15	19900	0.0109	0.0004
333.15	30240	0.013	0.0005
333.15	40000	0.0153	0.0006
303.15	11300	0.0286	0.0012
303.15	19900	0.0341	0.0014
303.15	31400	0.0439	0.0018
303.15	40600	0.053	0.0022
303.15	50900	0.0647	0.0026
303.15	60000	0.0783	0.0032
303.15	71700	0.0947	0.0039
303.15	80000	0.1078	0.0044
323.15	10250	0.0128	0.0005
323.15	20340	0.0155	0.0006
323.15	30170	0.0184	0.0007
323.15	40160	0.0218	0.0009
323.15	50130	0.0258	0.001
323.15	60110	0.0308	0.0012
323.15	70120	0.0362	0.0015
323.15	80060	0.043	0.0017
333.15	49340	0.0177	0.0007
333.15	60990	0.0214	0.0009
333.15	70280	0.025	0.001
333.15	80900	0.0285	0.0012

System: 2,6,10,15,19,23-hexamethyltetracosane; phases: Liquid
Property: Viscosity, Pa*s (Liquid); method: quartz resonator viscometer
Temperature, K	Pressure, kPa	Viscosity, Pa*s	uncertainty
293.15	10220	0.0462	0.0019
293.15	20250	0.0585	0.0024
293.15	30090	0.0715	0.0029
293.15	40100	0.0879	0.0036
293.15	50070	0.1092	0.0044
293.15	60060	0.1313	0.0053
293.15	71000	0.1621	0.0066
293.15	80600	0.1824	0.0074
313.15	10110	0.0183	0.0007
313.15	20170	0.0226	0.0009
313.15	29620	0.0269	0.0011
313.15	40550	0.0328	0.0013
313.15	49650	0.0388	0.0016
313.15	60500	0.0474	0.0019
313.15	70400	0.0564	0.0023
313.15	80670	0.0669	0.0027
333.15	9160	0.009	0.0004
333.15	19900	0.0109	0.0004
333.15	30240	0.0131	0.0005
333.15	40000	0.0153	0.0006
303.15	11300	0.0285	0.0012
303.15	19900	0.034	0.0014
303.15	31400	0.0438	0.0018
303.15	40600	0.0529	0.0022
303.15	50900	0.0646	0.0026
303.15	60000	0.0781	0.0032
303.15	71700	0.0945	0.0038
303.15	80000	0.1075	0.0044
323.15	10250	0.0127	0.0005
323.15	20340	0.0155	0.0006
323.15	30170	0.0184	0.0007
323.15	40160	0.0218	0.0009
323.15	50130	0.0258	0.001
323.15	60110	0.0308	0.0013
323.15	70120	0.0362	0.0015
323.15	80060	0.043	0.0017
333.15	49340	0.0177	0.0007
333.15	60990	0.0214	0.0009
333.15	70280	0.025	0.001
333.15	80900	0.0286	0.0012
