Measured thermophysical data. Phase equilibria for mixtures containing nonionic surfactant systems: Modeling and experiments
Source: J. Chem. Thermodyn., 2008, 10.1016/j.jct.2008.02.016
Compound 1: 2-butoxyethan-1-ol, C6H14O2, InChI=1S/C6H14O2/c1-2-3-5-8-6-4-7/h7H,2-6H2,1H3
Compound 2: hexane, C6H14, InChI=1S/C6H14/c1-3-5-6-4-2/h3-6H2,1-2H3
Compound 3: heptane, C7H16, InChI=1S/C7H16/c1-3-5-7-6-4-2/h3-7H2,1-2H3

System: hexane; phases: Liquid, Gas
Property: Vapor or sublimation pressure, kPa (Liquid); method: CCELL:UFactor:4
Temperature, K	Vapor or sublimation pressure, kPa	uncertainty
303.15	25.01	0.37
313.15	37.54	0.53
323.15	54.39	0.74

System: heptane; phases: Liquid, Gas
Property: Vapor or sublimation pressure, kPa (Liquid); method: CCELL:UFactor:4
Temperature, K	Vapor or sublimation pressure, kPa	uncertainty
303.15	7.87	0.16
313.15	12.33	0.22
323.15	18.95	0.3

System: hexane + 2-butoxyethan-1-ol; phases: Liquid, Gas
Property: Vapor or sublimation pressure, kPa (Liquid); method: CCELL:UFactor:4
Temperature, K	Mole fraction of 2-butoxyethan-1-ol	Vapor or sublimation pressure, kPa	uncertainty
303.15	0	25.01	0.37
303.15	0.061	24.29	0.36
303.15	0.152	23.57	0.36
303.15	0.254	22.91	0.35
303.15	0.354	22.18	0.34
303.15	0.453	21.22	0.33
303.15	0.537	20.2	0.3
303.15	0.643	18.28	0.29
303.15	0.735	16.02	0.26
303.15	0.816	12.87	0.22
303.15	0.875	9.8	0.2
303.15	0.926	6.55	0.14
303.15	0.963	3.61	0.11
313.15	0	37.54	0.53
313.15	0.061	36.66	0.52
313.15	0.152	35.61	0.51
313.15	0.254	34.79	0.5
313.15	0.354	33.4	0.5
313.15	0.453	32.01	0.46
313.15	0.537	30.06	0.44
313.15	0.643	26.94	0.4
313.15	0.735	23.24	0.35
313.15	0.816	18.35	0.29
313.15	0.875	13.98	0.24
313.15	0.926	9.41	0.18
313.15	0.963	5.23	0.13
323.15	0	54.39	0.74
323.15	0.061	52.68	0.72
323.15	0.152	51.08	0.7
323.15	0.254	49.5	0.7
323.15	0.354	47.69	0.66
323.15	0.453	45.62	0.63
323.15	0.537	42.75	0.6
323.15	0.643	38.34	0.54
323.15	0.735	32.83	0.47
323.15	0.816	25.71	0.38
323.15	0.875	19.62	0.31
323.15	0.926	13.12	0.23
323.15	0.963	7.61	0.16

System: 2-butoxyethan-1-ol + heptane; phases: Liquid, Gas
Property: Vapor or sublimation pressure, kPa (Liquid); method: CCELL:UFactor:4
Temperature, K	Mole fraction of 2-butoxyethan-1-ol	Vapor or sublimation pressure, kPa	uncertainty
303.15	0	7.87	0.16
303.15	0.058	7.82	0.16
303.15	0.149	7.55	0.16
303.15	0.257	7.31	0.15
303.15	0.344	7.12	0.15
303.15	0.462	6.84	0.15
303.15	0.544	6.57	0.14
303.15	0.664	5.69	0.13
303.15	0.739	5.02	0.12
303.15	0.817	4.1	0.1
303.15	0.885	3.05	0.1
303.15	0.925	2.45	0.09
303.15	0.959	1.51	0.08
313.15	0	12.33	0.22
313.15	0.058	12.15	0.21
313.15	0.149	11.82	0.21
313.15	0.257	11.54	0.21
313.15	0.344	11.25	0.2
313.15	0.462	10.73	0.2
313.15	0.544	10.18	0.19
313.15	0.664	9.12	0.18
313.15	0.739	7.95	0.16
313.15	0.817	6.41	0.14
313.15	0.885	4.78	0.12
313.15	0.925	3.56	0.11
313.15	0.959	2.41	0.09
323.15	0	18.95	0.3
323.15	0.058	18.45	0.29
323.15	0.149	18.11	0.29
323.15	0.257	17.42	0.28
323.15	0.344	16.95	0.27
323.15	0.462	16.05	0.26
323.15	0.544	15.23	0.25
323.15	0.664	13.62	0.23
323.15	0.739	12.1	0.2
323.15	0.817	9.95	0.19
323.15	0.885	7.3	0.2
323.15	0.925	5.58	0.13
323.15	0.959	3.69	0.11
