Measured thermophysical data. Thermodynamic properties of solvation of aromatic compounds in cyclohexane, heptane, benzene, 1,4-dioxane, and chloroform at 298.15 K
Source: J. Chem. Thermodyn., 2009, 10.1016/j.jct.2009.06.001
Compound 1: benzene, C6H6, InChI=1S/C6H6/c1-2-4-6-5-3-1/h1-6H
Compound 2: naphthalene, C10H8, InChI=1S/C10H8/c1-2-6-10-8-4-3-7-9(10)5-1/h1-8H
Compound 3: phenanthrene, C14H10, InChI=1S/C14H10/c1-3-7-13-11(5-1)9-10-12-6-2-4-8-14(12)13/h1-10H
Compound 4: biphenyl, C12H10, InChI=1S/C12H10/c1-3-7-11(8-4-1)12-9-5-2-6-10-12/h1-10H
Compound 5: o-terphenyl, C18H14, InChI=1S/C18H14/c1-3-9-15(10-4-1)17-13-7-8-14-18(17)16-11-5-2-6-12-16/h1-14H
Compound 6: m-terphenyl, C18H14, InChI=1S/C18H14/c1-3-8-15(9-4-1)17-12-7-13-18(14-17)16-10-5-2-6-11-16/h1-14H
Compound 7: p-terphenyl, C18H14, InChI=1S/C18H14/c1-3-7-15(8-4-1)17-11-13-18(14-12-17)16-9-5-2-6-10-16/h1-14H
Compound 8: cyclohexane, C6H12, InChI=1S/C6H12/c1-2-4-6-5-3-1/h1-6H2
Compound 9: heptane, C7H16, InChI=1S/C7H16/c1-3-5-7-6-4-2/h3-7H2,1-2H3
Compound 10: 1,4-dioxane, C4H8O2, InChI=1S/C4H8O2/c1-2-6-4-3-5-1/h1-4H2
Compound 11: trichloromethane, CHCl3, InChI=1S/CHCl3/c2-1(3)4/h1H

System: cyclohexane; phases: Liquid
Property: Mass density, kg/m3 (Liquid); method: Vibrating tube method
Temperature, K	Pressure, kPa	Mass density, kg/m3	uncertainty
298.15	101.325	773.87	1.6

System: cyclohexane; phases: Liquid
Property: Speed of sound, m/s (Liquid); method: Sing-around technique in a fixed-path interferometer
Temperature, K	Pressure, kPa	Speed of sound, m/s	uncertainty
298.15	101.325	1255.3	1.78

System: heptane; phases: Liquid
Property: Mass density, kg/m3 (Liquid); method: Vibrating tube method
Temperature, K	Pressure, kPa	Mass density, kg/m3	uncertainty
298.15	101.325	679.55	1.61

System: heptane; phases: Liquid
Property: Speed of sound, m/s (Liquid); method: Sing-around technique in a fixed-path interferometer
Temperature, K	Pressure, kPa	Speed of sound, m/s	uncertainty
298.15	101.325	1131.42	1.76

System: biphenyl + cyclohexane; phases: Liquid
Fixed: Pressure, kPa = 101
Fixed: Temperature, K = 298.15
Property: Molar enthalpy of solution, kJ/mol (Liquid); method: Custom adiabatic calorimeter
Molality, mol/kg of biphenyl	Molar enthalpy of solution, kJ/mol	uncertainty
0.0776	23.35	0.5
0.0797	23.19	0.49
0.0812	23.34	0.5

System: biphenyl + cyclohexane; phases: Liquid
Fixed: Pressure, kPa = 101
Fixed: Temperature, K = 298.15
Property: Excess molar enthalpy (molar enthalpy of mixing), kJ/mol (Liquid); method: Custom adiabatic calorimeter
Molality, mol/kg of biphenyl	Excess molar enthalpy (molar enthalpy of mixing), kJ/mol	uncertainty
0.0776	151.5	3.3
0.0797	154.5	3.4
0.0812	158.4	3.5

System: biphenyl + cyclohexane; phases: Liquid
Fixed: Pressure, kPa = 101
Fixed: Temperature, K = 298.15
Property: Speed of sound, m/s (Liquid); method: Sing-around technique in a fixed-path interferometer
Molality, mol/kg of biphenyl	Speed of sound, m/s	uncertainty
0.0342	1256.03	1.78
0.0676	1256.72	1.78
0.1061	1257.51	1.78
0.1335	1258.09	1.78
0.1732	1258.96	1.78

System: biphenyl + cyclohexane; phases: Liquid
Fixed: Pressure, kPa = 101
Fixed: Temperature, K = 298.15
Property: Mass density, kg/m3 (Liquid); method: Vibrating tube method
Molality, mol/kg of biphenyl	Mass density, kg/m3	uncertainty
0.0342	774.82	1.6
0.0676	775.74	1.6
0.1061	776.79	1.6
0.1335	777.52	1.6
0.1732	778.61	1.6

System: o-terphenyl + cyclohexane; phases: Liquid
Fixed: Pressure, kPa = 101
Fixed: Temperature, K = 298.15
Property: Molar enthalpy of solution, kJ/mol (Liquid); method: Custom adiabatic calorimeter
Molality, mol/kg of o-terphenyl	Molar enthalpy of solution, kJ/mol	uncertainty
0.0505	22.73	0.48
0.0513	22.74	0.48
0.0514	22.75	0.48

System: o-terphenyl + cyclohexane; phases: Liquid
Fixed: Pressure, kPa = 101
Fixed: Temperature, K = 298.15
Property: Excess molar enthalpy (molar enthalpy of mixing), kJ/mol (Liquid); method: Flow calorimetry
Molality, mol/kg of o-terphenyl	Excess molar enthalpy (molar enthalpy of mixing), kJ/mol	uncertainty
0.0505	96.1	2
0.0513	97.8	2.1
0.0514	98	2.1

System: o-terphenyl + cyclohexane; phases: Liquid
Fixed: Pressure, kPa = 101
Fixed: Temperature, K = 298.15
Property: Speed of sound, m/s (Liquid); method: Sing-around technique in a fixed-path interferometer
Molality, mol/kg of o-terphenyl	Speed of sound, m/s	uncertainty
0.0245	1256.11	1.78
0.0451	1256.78	1.78
0.0688	1257.55	1.78
0.093	1258.39	1.79
0.1144	1259.05	1.79

System: o-terphenyl + cyclohexane; phases: Liquid
Fixed: Pressure, kPa = 101
Fixed: Temperature, K = 298.15
Property: Mass density, kg/m3 (Liquid); method: Vibrating tube method
Molality, mol/kg of o-terphenyl	Mass density, kg/m3	uncertainty
0.0245	775.07	1.61
0.0451	776.06	1.61
0.0688	777.19	1.61
0.093	778.35	1.61
0.1144	779.36	1.61

System: m-terphenyl + cyclohexane; phases: Liquid
Fixed: Pressure, kPa = 101
Fixed: Temperature, K = 298.15
Property: Molar enthalpy of solution, kJ/mol (Liquid); method: Custom adiabatic calorimeter
Molality, mol/kg of m-terphenyl	Molar enthalpy of solution, kJ/mol	uncertainty
0.0448	30.22	0.64
0.0449	29.96	0.64
0.045	30.39	0.64

System: m-terphenyl + cyclohexane; phases: Liquid
Fixed: Pressure, kPa = 101
Fixed: Temperature, K = 298.15
Property: Excess molar enthalpy (molar enthalpy of mixing), kJ/mol (Liquid); method: Custom adiabatic calorimeter
Molality, mol/kg of m-terphenyl	Excess molar enthalpy (molar enthalpy of mixing), kJ/mol	uncertainty
0.0448	113.5	2.4
0.0449	118.1	2.5
0.045	114.6	2.4

System: m-terphenyl + cyclohexane; phases: Liquid
Fixed: Pressure, kPa = 101
Fixed: Temperature, K = 298.15
Property: Speed of sound, m/s (Liquid); method: Sing-around technique in a fixed-path interferometer
Molality, mol/kg of m-terphenyl	Speed of sound, m/s	uncertainty
0.0253	1256.54	1.78
0.0482	1257.36	1.78
0.0693	1258.25	1.78
0.0928	1259.15	1.79
0.1161	1260.14	1.79

System: m-terphenyl + cyclohexane; phases: Liquid
Fixed: Pressure, kPa = 101
Fixed: Temperature, K = 298.15
Property: Mass density, kg/m3 (Liquid); method: Vibrating tube method
Molality, mol/kg of m-terphenyl	Mass density, kg/m3	uncertainty
0.0253	775.15	1.61
0.0482	776.28	1.61
0.0693	777.33	1.61
0.0928	778.48	1.61
0.1161	779.62	1.61

System: biphenyl + heptane; phases: Liquid
Fixed: Pressure, kPa = 101
Fixed: Temperature, K = 298.15
Property: Molar enthalpy of solution, kJ/mol (Liquid); method: Custom adiabatic calorimeter
Molality, mol/kg of biphenyl	Molar enthalpy of solution, kJ/mol	uncertainty
0.0874	22.11	0.47
0.0875	22.03	0.47
0.0892	22.05	0.47

System: biphenyl + heptane; phases: Liquid
Fixed: Pressure, kPa = 101
Fixed: Temperature, K = 298.15
Property: Excess molar enthalpy (molar enthalpy of mixing), kJ/mol (Liquid); method: Flow calorimetry
Molality, mol/kg of biphenyl	Excess molar enthalpy (molar enthalpy of mixing), kJ/mol	uncertainty
0.0874	191.9	4.1
0.0875	191.5	4.1
0.0892	195.3	4.1

System: biphenyl + heptane; phases: Liquid
Fixed: Pressure, kPa = 101
Fixed: Temperature, K = 298.15
Property: Speed of sound, m/s (Liquid); method: Sing-around technique in a fixed-path interferometer
Molality, mol/kg of biphenyl	Speed of sound, m/s	uncertainty
0.0409	1132.99	1.77
0.0772	1134.36	1.77
0.113	1135.56	1.77
0.1561	1136.96	1.77
0.1949	1138.3	1.77

System: biphenyl + heptane; phases: Liquid
Fixed: Pressure, kPa = 101
Fixed: Temperature, K = 298.15
Property: Mass density, kg/m3 (Liquid); method: Vibrating tube method
Molality, mol/kg of biphenyl	Mass density, kg/m3	uncertainty
0.0409	681.02	1.61
0.0772	682.37	1.61
0.113	683.67	1.61
0.1561	685.21	1.61
0.1949	686.6	1.61

System: o-terphenyl + heptane; phases: Liquid
Fixed: Pressure, kPa = 101
Fixed: Temperature, K = 298.15
Property: Molar enthalpy of solution, kJ/mol (Liquid); method: Custom adiabatic calorimeter
Molality, mol/kg of o-terphenyl	Molar enthalpy of solution, kJ/mol	uncertainty
0.0581	22.41	0.48
0.0583	22.56	0.48
0.0587	22.46	0.48

System: o-terphenyl + heptane; phases: Liquid
Fixed: Pressure, kPa = 101
Fixed: Temperature, K = 298.15
Property: Excess molar enthalpy (molar enthalpy of mixing), kJ/mol (Liquid); method: Custom adiabatic calorimeter
Molality, mol/kg of o-terphenyl	Excess molar enthalpy (molar enthalpy of mixing), kJ/mol	uncertainty
0.0581	129.7	2.8
0.0583	131.1	2.8
0.0587	131.3	2.8

System: o-terphenyl + heptane; phases: Liquid
Fixed: Pressure, kPa = 101
Fixed: Temperature, K = 298.15
Property: Speed of sound, m/s (Liquid); method: Sing-around technique in a fixed-path interferometer
Molality, mol/kg of o-terphenyl	Speed of sound, m/s	uncertainty
0.0267	1132.79	1.77
0.0392	1133.45	1.77
0.0544	1134.11	1.77
0.0652	1134.61	1.77
0.0763	1135.21	1.77

System: o-terphenyl + heptane; phases: Liquid
Fixed: Pressure, kPa = 101
Fixed: Temperature, K = 298.15
Property: Mass density, kg/m3 (Liquid); method: Vibrating tube method
Molality, mol/kg of o-terphenyl	Mass density, kg/m3	uncertainty
0.0267	681.11	1.61
0.0392	681.85	1.61
0.0544	682.75	1.61
0.0652	683.4	1.61
0.0763	684.05	1.61

System: m-terphenyl + heptane; phases: Liquid
Fixed: Pressure, kPa = 101
Fixed: Temperature, K = 298.15
Property: Molar enthalpy of solution, kJ/mol (Liquid); method: Custom adiabatic calorimeter
Molality, mol/kg of m-terphenyl	Molar enthalpy of solution, kJ/mol	uncertainty
0.0504	28.51	0.6
0.0526	28.47	0.6
0.0529	28.2	0.6

System: m-terphenyl + heptane; phases: Liquid
Fixed: Pressure, kPa = 101
Fixed: Temperature, K = 298.15
Property: Excess molar enthalpy (molar enthalpy of mixing), kJ/mol (Liquid); method: Custom adiabatic calorimeter
Molality, mol/kg of m-terphenyl	Excess molar enthalpy (molar enthalpy of mixing), kJ/mol	uncertainty
0.0504	143.2	3.2
0.0526	149.3	3.4
0.0529	150.3	3.4

System: m-terphenyl + heptane; phases: Liquid
Fixed: Pressure, kPa = 101
Fixed: Temperature, K = 298.15
Property: Speed of sound, m/s (Liquid); method: Sing-around technique in a fixed-path interferometer
Molality, mol/kg of m-terphenyl	Speed of sound, m/s	uncertainty
0.0245	1133	1.77
0.04	1133.84	1.77
0.0536	1134.56	1.77
0.0666	1135.26	1.77
0.076	1135.86	1.77

System: m-terphenyl + heptane; phases: Liquid
Fixed: Pressure, kPa = 101
Fixed: Temperature, K = 298.15
Property: Mass density, kg/m3 (Liquid); method: Vibrating tube method
Molality, mol/kg of m-terphenyl	Mass density, kg/m3	uncertainty
0.0245	681.04	1.61
0.04	682	1.61
0.0536	682.83	1.61
0.0666	683.63	1.61
0.076	684.21	1.61

System: benzene + biphenyl; phases: Liquid
Fixed: Pressure, kPa = 101
Fixed: Temperature, K = 298.15
Property: Molar enthalpy of solution, kJ/mol (Liquid); method: Custom adiabatic calorimeter
Molality, mol/kg of biphenyl	Molar enthalpy of solution, kJ/mol	uncertainty
0.0662	17.39	0.37
0.0663	17.43	0.37
0.071	17.48	0.37

System: benzene + biphenyl; phases: Liquid
Fixed: Pressure, kPa = 101
Fixed: Temperature, K = 298.15
Property: Excess molar enthalpy (molar enthalpy of mixing), kJ/mol (Liquid); method: Custom adiabatic calorimeter
Molality, mol/kg of biphenyl	Excess molar enthalpy (molar enthalpy of mixing), kJ/mol	uncertainty
0.0662	89.5	2
0.0663	89.8	2
0.071	96.4	2.1

System: benzene + o-terphenyl; phases: Liquid
Fixed: Pressure, kPa = 101
Fixed: Temperature, K = 298.15
Property: Molar enthalpy of solution, kJ/mol (Liquid); method: Custom adiabatic calorimeter
Molality, mol/kg of o-terphenyl	Molar enthalpy of solution, kJ/mol	uncertainty
0.045	14.93	0.32
0.0452	14.87	0.32
0.0458	14.82	0.31

System: benzene + o-terphenyl; phases: Liquid
Fixed: Pressure, kPa = 101
Fixed: Temperature, K = 298.15
Property: Excess molar enthalpy (molar enthalpy of mixing), kJ/mol (Liquid); method: Custom adiabatic calorimeter
Molality, mol/kg of o-terphenyl	Excess molar enthalpy (molar enthalpy of mixing), kJ/mol	uncertainty
0.045	52.3	1.1
0.0452	52.3	1.1
0.0458	52.8	1.1

System: benzene + m-terphenyl; phases: Liquid
Fixed: Pressure, kPa = 101
Fixed: Temperature, K = 298.15
Property: Molar enthalpy of solution, kJ/mol (Liquid); method: Custom adiabatic calorimeter
Molality, mol/kg of m-terphenyl	Molar enthalpy of solution, kJ/mol	uncertainty
0.0417	21.87	0.46
0.0419	21.94	0.47
0.0433	21.95	0.47

System: benzene + m-terphenyl; phases: Liquid
Fixed: Pressure, kPa = 101
Fixed: Temperature, K = 298.15
Property: Excess molar enthalpy (molar enthalpy of mixing), kJ/mol (Liquid); method: Custom adiabatic calorimeter
Molality, mol/kg of m-terphenyl	Excess molar enthalpy (molar enthalpy of mixing), kJ/mol	uncertainty
0.0417	71.1	1.5
0.0419	71.6	1.5
0.0433	73.9	1.6

System: benzene + p-terphenyl; phases: Liquid
Fixed: Pressure, kPa = 101
Fixed: Temperature, K = 298.15
Property: Molar enthalpy of solution, kJ/mol (Liquid); method: Custom adiabatic calorimeter
Molality, mol/kg of p-terphenyl	Molar enthalpy of solution, kJ/mol	uncertainty
0.0285	27.28	0.58
0.0286	27	0.57
0.0286	27.95	0.59

System: benzene + p-terphenyl; phases: Liquid
Fixed: Pressure, kPa = 101
Fixed: Temperature, K = 298.15
Property: Excess molar enthalpy (molar enthalpy of mixing), kJ/mol (Liquid); method: Custom adiabatic calorimeter
Molality, mol/kg of p-terphenyl	Excess molar enthalpy (molar enthalpy of mixing), kJ/mol	uncertainty
0.0285	60.6	1.3
0.0286	61.3	1.3
0.0286	62.4	1.3

System: biphenyl + 1,4-dioxane; phases: Liquid
Fixed: Pressure, kPa = 101
Fixed: Temperature, K = 298.15
Property: Molar enthalpy of solution, kJ/mol (Liquid); method: Custom adiabatic calorimeter
Molality, mol/kg of biphenyl	Molar enthalpy of solution, kJ/mol	uncertainty
0.0572	16.78	0.36
0.0573	16.71	0.35
0.06	16.79	0.36

System: biphenyl + 1,4-dioxane; phases: Liquid
Fixed: Pressure, kPa = 101
Fixed: Temperature, K = 298.15
Property: Excess molar enthalpy (molar enthalpy of mixing), kJ/mol (Liquid); method: Custom adiabatic calorimeter
Molality, mol/kg of biphenyl	Excess molar enthalpy (molar enthalpy of mixing), kJ/mol	uncertainty
0.0572	84.2	1.9
0.0573	83.9	1.9
0.06	88.3	2

System: trichloromethane + biphenyl; phases: Liquid
Fixed: Pressure, kPa = 101
Fixed: Temperature, K = 298.15
Property: Molar enthalpy of solution, kJ/mol (Liquid); method: Custom adiabatic calorimeter
Molality, mol/kg of biphenyl	Molar enthalpy of solution, kJ/mol	uncertainty
0.0396	14.27	0.3
0.0399	14.32	0.3
0.0408	14.3	0.3

System: trichloromethane + biphenyl; phases: Liquid
Fixed: Pressure, kPa = 101
Fixed: Temperature, K = 298.15
Property: Excess molar enthalpy (molar enthalpy of mixing), kJ/mol (Liquid); method: Custom adiabatic calorimeter
Molality, mol/kg of biphenyl	Excess molar enthalpy (molar enthalpy of mixing), kJ/mol	uncertainty
0.0396	67.1	1.4
0.0399	67.9	1.4
0.0408	69.4	1.5

System: trichloromethane + o-terphenyl; phases: Liquid
Fixed: Pressure, kPa = 101
Fixed: Temperature, K = 298.15
Property: Molar enthalpy of solution, kJ/mol (Liquid); method: Custom adiabatic calorimeter
Molality, mol/kg of o-terphenyl	Molar enthalpy of solution, kJ/mol	uncertainty
0.0266	11.39	0.24
0.0271	11.42	0.24
0.0274	11.34	0.24

System: trichloromethane + o-terphenyl; phases: Liquid
Fixed: Pressure, kPa = 101
Fixed: Temperature, K = 298.15
Property: Excess molar enthalpy (molar enthalpy of mixing), kJ/mol (Liquid); method: Custom adiabatic calorimeter
Molality, mol/kg of o-terphenyl	Excess molar enthalpy (molar enthalpy of mixing), kJ/mol	uncertainty
0.0266	36	0.8
0.0271	36.9	0.8
0.0274	37	0.8

System: trichloromethane + m-terphenyl; phases: Liquid
Fixed: Pressure, kPa = 101
Fixed: Temperature, K = 298.15
Property: Molar enthalpy of solution, kJ/mol (Liquid); method: Custom adiabatic calorimeter
Molality, mol/kg of m-terphenyl	Molar enthalpy of solution, kJ/mol	uncertainty
0.0235	17.77	0.38
0.0237	17.96	0.38
0.0239	17.74	0.38

System: trichloromethane + m-terphenyl; phases: Liquid
Fixed: Pressure, kPa = 101
Fixed: Temperature, K = 298.15
Property: Excess molar enthalpy (molar enthalpy of mixing), kJ/mol (Liquid); method: Custom adiabatic calorimeter
Molality, mol/kg of m-terphenyl	Excess molar enthalpy (molar enthalpy of mixing), kJ/mol	uncertainty
0.0235	49.7	1.1
0.0237	50.6	1.1
0.0239	50.5	1.1

System: trichloromethane + p-terphenyl; phases: Liquid
Fixed: Pressure, kPa = 101
Fixed: Temperature, K = 298.15
Property: Molar enthalpy of solution, kJ/mol (Liquid); method: Custom adiabatic calorimeter
Molality, mol/kg of p-terphenyl	Molar enthalpy of solution, kJ/mol	uncertainty
0.017	24.21	0.51
0.017	23.84	0.51
0.0171	24.3	0.52

System: trichloromethane + p-terphenyl; phases: Liquid
Fixed: Pressure, kPa = 101
Fixed: Temperature, K = 298.15
Property: Excess molar enthalpy (molar enthalpy of mixing), kJ/mol (Liquid); method: Custom adiabatic calorimeter
Molality, mol/kg of p-terphenyl	Excess molar enthalpy (molar enthalpy of mixing), kJ/mol	uncertainty
0.017	48.9	1
0.017	48.1	1
0.0171	49.4	1

System: benzene + cyclohexane; phases: Liquid
Fixed: Pressure, kPa = 101
Fixed: Temperature, K = 298.15
Property: Speed of sound, m/s (Liquid); method: Sing-around technique in a fixed-path interferometer
Molality, mol/kg of benzene	Speed of sound, m/s	uncertainty
0.162	1254.68	1.78
0.3316	1254.17	1.78
0.5187	1253.55	1.78
0.6616	1253.18	1.78
0.8272	1252.69	1.78

System: benzene + cyclohexane; phases: Liquid
Fixed: Pressure, kPa = 101
Fixed: Temperature, K = 298.15
Property: Mass density, kg/m3 (Liquid); method: Vibrating tube method
Molality, mol/kg of benzene	Mass density, kg/m3	uncertainty
0.162	774.73	1.6
0.3316	775.59	1.6
0.5187	776.54	1.6
0.6616	777.26	1.6
0.8272	778.07	1.6

System: naphthalene + cyclohexane; phases: Liquid
Fixed: Pressure, kPa = 101
Fixed: Temperature, K = 298.15
Property: Speed of sound, m/s (Liquid); method: Sing-around technique in a fixed-path interferometer
Molality, mol/kg of naphthalene	Speed of sound, m/s	uncertainty
0.0805	1256.51	1.78
0.1659	1257.81	1.78
0.2522	1259.11	1.78
0.3257	1260.2	1.78
0.4055	1261.45	1.78

System: naphthalene + cyclohexane; phases: Liquid
Fixed: Pressure, kPa = 101
Fixed: Temperature, K = 298.15
Property: Mass density, kg/m3 (Liquid); method: Vibrating tube method
Molality, mol/kg of naphthalene	Mass density, kg/m3	uncertainty
0.0805	775.71	1.6
0.1659	777.64	1.6
0.2522	779.56	1.6
0.3257	781.18	1.6
0.4055	782.91	1.6

System: phenanthrene + cyclohexane; phases: Liquid
Fixed: Pressure, kPa = 101
Fixed: Temperature, K = 298.15
Property: Speed of sound, m/s (Liquid); method: Sing-around technique in a fixed-path interferometer
Molality, mol/kg of phenanthrene	Speed of sound, m/s	uncertainty
0.0343	1256.36	1.78
0.0591	1257.17	1.78
0.0896	1258.21	1.78
0.1162	1258.95	1.79
0.1455	1259.75	1.79

System: phenanthrene + cyclohexane; phases: Liquid
Fixed: Pressure, kPa = 101
Fixed: Temperature, K = 298.15
Property: Mass density, kg/m3 (Liquid); method: Vibrating tube method
Molality, mol/kg of phenanthrene	Mass density, kg/m3	uncertainty
0.0343	775.27	1.6
0.0591	776.28	1.6
0.0896	777.54	1.6
0.1162	778.63	1.6
0.1455	779.78	1.6

System: benzene + heptane; phases: Liquid
Fixed: Pressure, kPa = 101
Fixed: Temperature, K = 298.15
Property: Speed of sound, m/s (Liquid); method: Sing-around technique in a fixed-path interferometer
Molality, mol/kg of benzene	Speed of sound, m/s	uncertainty
0.1915	1132.33	1.76
0.3783	1133.16	1.76
0.5615	1133.94	1.76
0.7515	1134.85	1.76
0.943	1135.85	1.76

System: benzene + heptane; phases: Liquid
Fixed: Pressure, kPa = 101
Fixed: Temperature, K = 298.15
Property: Mass density, kg/m3 (Liquid); method: Vibrating tube method
Molality, mol/kg of benzene	Mass density, kg/m3	uncertainty
0.1915	681.6	1.61
0.3783	683.56	1.61
0.5615	685.43	1.61
0.7515	687.34	1.61
0.943	689.24	1.61

System: o-terphenyl + 1,4-dioxane; phases: Liquid
Fixed: Pressure, kPa = 101
Fixed: Temperature, K = 298.15
Property: Molar enthalpy of solution, kJ/mol (Liquid); method: Custom adiabatic calorimeter
Molality, mol/kg of o-terphenyl	Molar enthalpy of solution, kJ/mol	uncertainty
0.0383	15.21	0.32
0.0384	15.11	0.32
0.0384	15.16	0.32

System: o-terphenyl + 1,4-dioxane; phases: Liquid
Fixed: Pressure, kPa = 101
Fixed: Temperature, K = 298.15
Property: Excess molar enthalpy (molar enthalpy of mixing), kJ/mol (Liquid); method: Custom adiabatic calorimeter
Molality, mol/kg of o-terphenyl	Excess molar enthalpy (molar enthalpy of mixing), kJ/mol	uncertainty
0.0383	51.1	1.1
0.0384	50.9	1.1
0.0384	51.1	1.1

System: m-terphenyl + 1,4-dioxane; phases: Liquid
Fixed: Pressure, kPa = 101
Fixed: Temperature, K = 298.15
Property: Molar enthalpy of solution, kJ/mol (Liquid); method: Custom adiabatic calorimeter
Molality, mol/kg of m-terphenyl	Molar enthalpy of solution, kJ/mol	uncertainty
0.0339	20.49	0.43
0.0341	20.66	0.44
0.0347	20.46	0.43

System: m-terphenyl + 1,4-dioxane; phases: Liquid
Fixed: Pressure, kPa = 101
Fixed: Temperature, K = 298.15
Property: Excess molar enthalpy (molar enthalpy of mixing), kJ/mol (Liquid); method: Custom adiabatic calorimeter
Molality, mol/kg of m-terphenyl	Excess molar enthalpy (molar enthalpy of mixing), kJ/mol	uncertainty
0.0339	61	1.3
0.0341	61.9	1.3
0.0347	62.4	1.3

System: p-terphenyl + 1,4-dioxane; phases: Liquid
Fixed: Pressure, kPa = 101
Fixed: Temperature, K = 298.15
Property: Molar enthalpy of solution, kJ/mol (Liquid); method: Custom adiabatic calorimeter
Molality, mol/kg of p-terphenyl	Molar enthalpy of solution, kJ/mol	uncertainty
0.0192	25.65	0.54
0.0194	25.88	0.55
0.0198	25.6	0.54

System: p-terphenyl + 1,4-dioxane; phases: Liquid
Fixed: Pressure, kPa = 101
Fixed: Temperature, K = 298.15
Property: Excess molar enthalpy (molar enthalpy of mixing), kJ/mol (Liquid); method: Custom adiabatic calorimeter
Molality, mol/kg of p-terphenyl	Excess molar enthalpy (molar enthalpy of mixing), kJ/mol	uncertainty
0.0192	43.3	0.9
0.0194	44.2	0.9
0.0198	44.6	0.9

System: naphthalene + heptane; phases: Liquid
Fixed: Pressure, kPa = 101
Fixed: Temperature, K = 298.15
Property: Speed of sound, m/s (Liquid); method: Sing-around technique in a fixed-path interferometer
Molality, mol/kg of naphthalene	Speed of sound, m/s	uncertainty
0.0934	1134.26	1.77
0.1975	1137.15	1.77
0.2708	1139.11	1.77
0.3725	1141.82	1.77
0.4561	1144.02	1.77

System: naphthalene + heptane; phases: Liquid
Fixed: Pressure, kPa = 101
Fixed: Temperature, K = 298.15
Property: Mass density, kg/m3 (Liquid); method: Vibrating tube method
Molality, mol/kg of naphthalene	Mass density, kg/m3	uncertainty
0.0934	682.41	1.61
0.1975	685.54	1.61
0.2708	687.7	1.61
0.3725	690.68	1.61
0.4561	693.03	1.61

System: phenanthrene + heptane; phases: Liquid
Fixed: Pressure, kPa = 101
Fixed: Temperature, K = 298.15
Property: Speed of sound, m/s (Liquid); method: Sing-around technique in a fixed-path interferometer
Molality, mol/kg of phenanthrene	Speed of sound, m/s	uncertainty
0.0349	1133.17	1.77
0.0513	1133.96	1.77
0.0739	1134.97	1.77
0.0812	1135.28	1.77
0.1012	1136.23	1.77

System: phenanthrene + heptane; phases: Liquid
Fixed: Pressure, kPa = 101
Fixed: Temperature, K = 298.15
Property: Mass density, kg/m3 (Liquid); method: Vibrating tube method
Molality, mol/kg of phenanthrene	Mass density, kg/m3	uncertainty
0.0349	681.3	1.61
0.0513	682.12	1.61
0.0739	683.26	1.61
0.0812	683.59	1.61
0.1012	684.63	1.61
