Measured thermophysical data. Densities and volumetric properties of (acetonitrile + alkyl acrylate monomer) binary mixtures at temperatures from 293.15 K to 318.15 K
Source: J. Chem. Thermodyn., 2016, 10.1016/j.jct.2016.08.026
Compound 1: acetonitrile, C2H3N, InChI=1S/C2H3N/c1-2-3/h1H3, purity 99.5%
Compound 2: methyl propenoate, C4H6O2, InChI=1S/C4H6O2/c1-3-4(5)6-2/h3H,1H2,2H3, purity 99%
Compound 3: ethyl propenoate, C5H8O2, InChI=1S/C5H8O2/c1-3-5(6)7-4-2/h3H,1,4H2,2H3, purity 99%
Compound 4: butyl 2-propenoate, C7H12O2, InChI=1S/C7H12O2/c1-3-5-6-9-7(8)4-2/h4H,2-3,5-6H2,1H3, purity 99%
Compound 5: tert-butyl acrylate, C7H12O2, InChI=1S/C7H12O2/c1-5-6(8)9-7(2,3)4/h5H,1H2,2-4H3, purity 99%

System: acetonitrile; phases: Liquid
Fixed: Pressure, kPa = 101
Property: Mass density, kg/m3 (Liquid); method: Pycnometric method
Temperature, K	Mass density, kg/m3	uncertainty
293.15	782.12	1.01
298.15	776.82	1.01
303.15	771.52	1.02
308.15	766.21	1.02
313.15	760.9	1.02
318.15	755.59	1.02

System: tert-butyl acrylate; phases: Liquid
Fixed: Pressure, kPa = 101
Property: Mass density, kg/m3 (Liquid); method: Pycnometric method
Temperature, K	Mass density, kg/m3	uncertainty
293.15	884.13	1.03
298.15	879.66	1.03
303.15	875.2	1.03
308.15	870.74	1.03
313.15	866.28	1.03
318.15	861.82	1.04

System: acetonitrile + methyl propenoate; phases: Liquid
Fixed: Pressure, kPa = 101
Property: Mass density, kg/m3 (Liquid); method: Pycnometric method
Temperature, K	Mole fraction of acetonitrile	Mass density, kg/m3	uncertainty
293.15	0	953.51	1.03
293.15	0.0591	948.65	1.03
293.15	0.1171	943.34	1.03
293.15	0.17	938.02	1.03
293.15	0.2356	930.83	1.02
293.15	0.2977	923.4	1.02
293.15	0.3615	915.12	1.02
293.15	0.4343	904.86	1.02
293.15	0.5014	894.57	1.02
293.15	0.5738	882.48	1.02
293.15	0.6537	867.83	1.02
293.15	0.7623	845.33	1.02
293.15	0.8155	833.04	1.02
293.15	0.9074	809.47	1.02
293.15	1	782.12	1.01
298.15	0	947.56	1.03
298.15	0.0591	942.78	1.03
298.15	0.1171	937.51	1.03
298.15	0.17	932.22	1.03
298.15	0.2356	925.06	1.03
298.15	0.2977	917.66	1.03
298.15	0.3615	909.41	1.02
298.15	0.4343	899.19	1.02
298.15	0.5014	888.94	1.02
298.15	0.5738	876.9	1.02
298.15	0.6537	862.31	1.02
298.15	0.7623	839.89	1.02
298.15	0.8155	827.65	1.02
298.15	0.9074	804.14	1.02
298.15	1	776.82	1.01
303.15	0	941.61	1.03
303.15	0.0591	936.9	1.03
303.15	0.1171	931.68	1.03
303.15	0.17	926.42	1.03
303.15	0.2356	919.29	1.03
303.15	0.2977	911.92	1.03
303.15	0.3615	903.7	1.03
303.15	0.4343	893.52	1.03
303.15	0.5014	883.31	1.02
303.15	0.5738	871.32	1.02
303.15	0.6537	856.79	1.02
303.15	0.7623	834.45	1.02
303.15	0.8155	822.26	1.02
303.15	0.9074	798.81	1.02
303.15	1	771.52	1.02
308.15	0	935.66	1.04
308.15	0.0591	931.02	1.03
308.15	0.1171	925.85	1.03
308.15	0.17	920.62	1.03
308.15	0.2356	913.52	1.03
308.15	0.2977	906.18	1.03
308.15	0.3615	897.99	1.03
308.15	0.4343	887.85	1.03
308.15	0.5014	877.67	1.03
308.15	0.5738	865.73	1.03
308.15	0.6537	851.26	1.02
308.15	0.7623	829.01	1.02
308.15	0.8155	816.87	1.02
308.15	0.9074	793.47	1.02
308.15	1	766.21	1.02
313.15	0	929.71	1.04
313.15	0.0591	925.14	1.04
313.15	0.1171	920.01	1.04
313.15	0.17	914.81	1.03
313.15	0.2356	907.75	1.03
313.15	0.2977	900.43	1.03
313.15	0.3615	892.28	1.03
313.15	0.4343	882.17	1.03
313.15	0.5014	872.03	1.03
313.15	0.5738	860.14	1.03
313.15	0.6537	845.73	1.03
313.15	0.7623	823.57	1.02
313.15	0.8155	811.47	1.02
313.15	0.9074	788.13	1.02
313.15	1	760.9	1.02
318.15	0	923.76	1.04
318.15	0.0591	919.27	1.04
318.15	0.1171	914.17	1.04
318.15	0.17	909	1.04
318.15	0.2356	901.97	1.04
318.15	0.2977	894.68	1.03
318.15	0.3615	886.56	1.03
318.15	0.4343	876.49	1.03
318.15	0.5014	866.39	1.03
318.15	0.5738	854.55	1.03
318.15	0.6537	840.2	1.03
318.15	0.7623	818.13	1.03
318.15	0.8155	806.07	1.03
318.15	0.9074	782.79	1.02
318.15	1	755.59	1.02

System: acetonitrile + ethyl propenoate; phases: Liquid
Fixed: Pressure, kPa = 101
Property: Mass density, kg/m3 (Liquid); method: Pycnometric method
Temperature, K	Mole fraction of acetonitrile	Mass density, kg/m3	uncertainty
293.15	0	921.76	1.02
293.15	0.0611	918.24	1.02
293.15	0.1197	914.45	1.02
293.15	0.1852	909.73	1.02
293.15	0.2385	905.48	1.02
293.15	0.2966	900.45	1.02
293.15	0.3675	893.69	1.02
293.15	0.436	886.46	1.02
293.15	0.4982	879.23	1.02
293.15	0.5745	869.38	1.02
293.15	0.6519	858.1	1.02
293.15	0.725	846	1.02
293.15	0.8185	828.05	1.02
293.15	0.9145	805.92	1.01
293.15	1	782.12	1.01
298.15	0	915.95	1.03
298.15	0.0611	912.49	1.02
298.15	0.1197	908.75	1.02
298.15	0.1852	904.07	1.02
298.15	0.2385	899.84	1.02
298.15	0.2966	894.83	1.02
298.15	0.3675	888.1	1.02
298.15	0.436	880.89	1.02
298.15	0.4982	873.69	1.02
298.15	0.5745	863.88	1.02
298.15	0.6519	852.64	1.02
298.15	0.725	840.58	1.02
298.15	0.8185	822.69	1.02
298.15	0.9145	800.6	1.02
298.15	1	776.82	1.01
303.15	0	910.14	1.03
303.15	0.0611	906.74	1.03
303.15	0.1197	903.05	1.03
303.15	0.1852	898.4	1.03
303.15	0.2385	894.2	1.02
303.15	0.2966	889.21	1.02
303.15	0.3675	882.5	1.02
303.15	0.436	875.32	1.02
303.15	0.4982	868.15	1.02
303.15	0.5745	858.38	1.02
303.15	0.6519	847.18	1.02
303.15	0.725	835.16	1.02
303.15	0.8185	817.33	1.02
303.15	0.9145	795.28	1.02
303.15	1	771.52	1.02
308.15	0	904.33	1.03
308.15	0.0611	900.99	1.03
308.15	0.1197	897.35	1.03
308.15	0.1852	892.73	1.03
308.15	0.2385	888.55	1.03
308.15	0.2966	883.58	1.03
308.15	0.3675	876.9	1.03
308.15	0.436	869.75	1.02
308.15	0.4982	862.61	1.02
308.15	0.5745	852.88	1.02
308.15	0.6519	841.72	1.02
308.15	0.725	829.74	1.02
308.15	0.8185	811.97	1.02
308.15	0.9145	789.96	1.02
308.15	1	766.21	1.02
313.15	0	898.52	1.03
313.15	0.0611	895.24	1.03
313.15	0.1197	891.64	1.03
313.15	0.1852	887.06	1.03
313.15	0.2385	882.9	1.03
313.15	0.2966	877.95	1.03
313.15	0.3675	871.3	1.03
313.15	0.436	864.18	1.03
313.15	0.4982	857.07	1.03
313.15	0.5745	847.38	1.03
313.15	0.6519	836.26	1.02
313.15	0.725	824.32	1.02
313.15	0.8185	806.6	1.02
313.15	0.9145	784.63	1.02
313.15	1	760.9	1.02
318.15	0	892.71	1.03
318.15	0.0611	889.48	1.03
318.15	0.1197	885.93	1.03
318.15	0.1852	881.39	1.03
318.15	0.2385	877.25	1.03
318.15	0.2966	872.32	1.03
318.15	0.3675	865.7	1.03
318.15	0.436	858.61	1.03
318.15	0.4982	851.53	1.03
318.15	0.5745	841.87	1.03
318.15	0.6519	830.8	1.03
318.15	0.725	818.9	1.03
318.15	0.8185	801.23	1.02
318.15	0.9145	779.3	1.02
318.15	1	755.59	1.02

System: acetonitrile + butyl 2-propenoate; phases: Liquid
Fixed: Pressure, kPa = 101
Property: Mass density, kg/m3 (Liquid); method: Pycnometric method
Temperature, K	Mole fraction of acetonitrile	Mass density, kg/m3	uncertainty
293.15	0	898.85	1.03
293.15	0.061	896.58	1.03
293.15	0.1168	894.23	1.03
293.15	0.1832	891.06	1.02
293.15	0.2571	887.05	1.02
293.15	0.3094	883.86	1.02
293.15	0.3825	878.86	1.02
293.15	0.4563	873.07	1.02
293.15	0.5282	866.62	1.02
293.15	0.5779	861.58	1.02
293.15	0.6483	853.47	1.02
293.15	0.7299	842.32	1.02
293.15	0.8143	828.2	1.02
293.15	0.9182	805.7	1.01
293.15	1	782.12	1.01
298.15	0	894.1	1.03
298.15	0.061	891.84	1.03
298.15	0.1168	889.49	1.03
298.15	0.1832	886.31	1.03
298.15	0.2571	882.28	1.03
298.15	0.3094	879.07	1.02
298.15	0.3825	874.05	1.02
298.15	0.4563	868.23	1.02
298.15	0.5282	861.75	1.02
298.15	0.5779	856.69	1.02
298.15	0.6483	848.54	1.02
298.15	0.7299	837.34	1.02
298.15	0.8143	823.15	1.02
298.15	0.9182	800.53	1.02
298.15	1	776.82	1.01
303.15	0	889.35	1.03
303.15	0.061	887.1	1.03
303.15	0.1168	884.75	1.03
303.15	0.1832	881.56	1.03
303.15	0.2571	877.51	1.03
303.15	0.3094	874.28	1.03
303.15	0.3825	869.23	1.03
303.15	0.4563	863.39	1.02
303.15	0.5282	856.88	1.02
303.15	0.5779	851.79	1.02
303.15	0.6483	843.6	1.02
303.15	0.7299	832.35	1.02
303.15	0.8143	818.1	1.02
303.15	0.9182	795.36	1.02
303.15	1	771.52	1.02
308.15	0	884.6	1.03
308.15	0.061	882.36	1.03
308.15	0.1168	880.01	1.03
308.15	0.1832	876.81	1.03
308.15	0.2571	872.73	1.03
308.15	0.3094	869.49	1.03
308.15	0.3825	864.41	1.03
308.15	0.4563	858.55	1.03
308.15	0.5282	852.01	1.02
308.15	0.5779	846.89	1.02
308.15	0.6483	838.66	1.02
308.15	0.7299	827.36	1.02
308.15	0.8143	813.05	1.02
308.15	0.9182	790.19	1.02
308.15	1	766.21	1.02
313.15	0	879.85	1.04
313.15	0.061	877.62	1.04
313.15	0.1168	875.26	1.03
313.15	0.1832	872.05	1.03
313.15	0.2571	867.95	1.03
313.15	0.3094	864.69	1.03
313.15	0.3825	859.59	1.03
313.15	0.4563	853.7	1.03
313.15	0.5282	847.13	1.03
313.15	0.5779	841.99	1.03
313.15	0.6483	833.72	1.03
313.15	0.7299	822.37	1.02
313.15	0.8143	807.99	1.02
313.15	0.9182	785.01	1.02
313.15	1	760.9	1.02
318.15	0	875.1	1.04
318.15	0.061	872.87	1.04
318.15	0.1168	870.51	1.04
318.15	0.1832	867.29	1.04
318.15	0.2571	863.17	1.03
318.15	0.3094	859.89	1.03
318.15	0.3825	854.77	1.03
318.15	0.4563	848.85	1.03
318.15	0.5282	842.25	1.03
318.15	0.5779	837.09	1.03
318.15	0.6483	828.79	1.03
318.15	0.7299	817.38	1.03
318.15	0.8143	802.93	1.03
318.15	0.9182	779.83	1.02
318.15	1	755.59	1.02

System: acetonitrile + tert-butyl acrylate; phases: Liquid
Fixed: Pressure, kPa = 101
Property: Mass density, kg/m3 (Liquid); method: Pycnometric method
Temperature, K	Mole fraction of acetonitrile	Mass density, kg/m3	uncertainty
293.15	0	884.13	1.03
293.15	0.0772	881.52	1.03
293.15	0.1496	878.71	1.02
293.15	0.2216	875.53	1.02
293.15	0.2983	871.66	1.02
293.15	0.3643	867.87	1.02
293.15	0.4345	863.31	1.02
293.15	0.5074	857.88	1.02
293.15	0.5769	851.91	1.02
293.15	0.6465	844.97	1.02
293.15	0.7141	837.1	1.02
293.15	0.7821	827.76	1.02
293.15	0.8603	814.71	1.01
293.15	0.9345	799.24	1.01
293.15	1	782.12	1.01
298.15	0	879.66	1.03
298.15	0.0772	877.05	1.03
298.15	0.1496	874.23	1.03
298.15	0.2216	871.02	1.02
298.15	0.2983	867.11	1.02
298.15	0.3643	863.28	1.02
298.15	0.4345	858.68	1.02
298.15	0.5074	853.2	1.02
298.15	0.5769	847.18	1.02
298.15	0.6465	840.18	1.02
298.15	0.7141	832.24	1.02
298.15	0.7821	822.83	1.02
298.15	0.8603	809.68	1.02
298.15	0.9345	794.08	1.02
298.15	1	776.82	1.01
303.15	0	875.2	1.03
303.15	0.0772	872.58	1.03
303.15	0.1496	869.74	1.03
303.15	0.2216	866.51	1.03
303.15	0.2983	862.56	1.03
303.15	0.3643	858.69	1.02
303.15	0.4345	854.05	1.02
303.15	0.5074	848.52	1.02
303.15	0.5769	842.45	1.02
303.15	0.6465	835.39	1.02
303.15	0.7141	827.38	1.02
303.15	0.7821	817.9	1.02
303.15	0.8603	804.64	1.02
303.15	0.9345	788.92	1.02
303.15	1	771.52	1.02
308.15	0	870.74	1.03
308.15	0.0772	868.11	1.03
308.15	0.1496	865.25	1.03
308.15	0.2216	861.99	1.03
308.15	0.2983	858	1.03
308.15	0.3643	854.1	1.03
308.15	0.4345	849.42	1.03
308.15	0.5074	843.84	1.02
308.15	0.5769	837.72	1.02
308.15	0.6465	830.6	1.02
308.15	0.7141	822.52	1.02
308.15	0.7821	812.96	1.02
308.15	0.8603	799.6	1.02
308.15	0.9345	783.75	1.02
308.15	1	766.21	1.02
313.15	0	866.28	1.03
313.15	0.0772	863.64	1.03
313.15	0.1496	860.76	1.03
313.15	0.2216	857.47	1.03
313.15	0.2983	853.44	1.03
313.15	0.3643	849.51	1.03
313.15	0.4345	844.78	1.03
313.15	0.5074	839.16	1.03
313.15	0.5769	832.98	1.03
313.15	0.6465	825.8	1.02
313.15	0.7141	817.66	1.02
313.15	0.7821	808.02	1.02
313.15	0.8603	794.56	1.02
313.15	0.9345	778.58	1.02
313.15	1	760.9	1.02
318.15	0	861.82	1.04
318.15	0.0772	859.17	1.04
318.15	0.1496	856.27	1.03
318.15	0.2216	852.95	1.03
318.15	0.2983	848.88	1.03
318.15	0.3643	844.91	1.03
318.15	0.4345	840.14	1.03
318.15	0.5074	834.47	1.03
318.15	0.5769	828.24	1.03
318.15	0.6465	821	1.03
318.15	0.7141	812.8	1.03
318.15	0.7821	803.08	1.02
318.15	0.8603	789.51	1.02
318.15	0.9345	773.41	1.02
318.15	1	755.59	1.02
