Measured thermophysical data. A calorimetric and thermodynamic investigation of A2[(UO2)2(MoO4)O2] compounds with A = K and Rb and calculated phase relations in the system (K2MoO4 + UO3 + H2O)
Source: J. Chem. Thermodyn., 2015, 10.1016/j.jct.2015.06.028
Compound 1: molybdenum, Mo, InChI=1S/Mo
Compound 2: potassium, K, InChI=1S/K
Compound 3: uranium, U, InChI=1S/U
Compound 4: oxygen, O2, InChI=1S/O2/c1-2
Compound 5: molybdenum potassium uranium oxide (MoK2U2O10), K2MoO10U2, InChI=1S/2K.Mo.10O.2U/q2*+1;;;;;;;;2*-2;2*-1;2*+2, purity 95%
Compound 6: molybdenum rubidium uranium oxide (MoRb2U2O10), MoO10Rb2U2, InChI=1S/Mo.10O.2Rb.2U/q;;;;;;;2*-2;2*-1;2*+1;2*+2, purity 95%

System: molybdenum potassium uranium oxide (MoK2U2O10); phases: Crystal
Fixed: Pressure, kPa = 101.325
Property: Molar heat capacity at constant pressure, J/K/mol (Crystal); method: Small (less than 1 g) adiabatic calorimetry
Temperature, K	Molar heat capacity at constant pressure, J/K/mol	uncertainty
20	6.458	0.201
40	43.77	0.38
60	88.75	0.49
80	139	0.7
100	170.6	0.7
120	195	0.8
140	215.3	0.9
160	232.6	0.9
180	247.1	1
200	260.3	1
220	272.4	1.1
240	282.4	1.1
260	292.4	1.1
273.15	298.3	1.2
280	301	1.2
298.15	308.5	1.2
300	309.3	1.2
320	316.1	1.2

System: molybdenum potassium uranium oxide (MoK2U2O10); phases: Crystal
Fixed: Pressure, kPa = 101.325
Property: Molar enthalpy, kJ/mol (Crystal); method: Small (less than 1 g) adiabatic calorimetry
Temperature, K	Molar enthalpy, kJ/mol	uncertainty
20	0.0413	0.0024
40	0.5005	0.007
60	1.813	0.015
80	4.091	0.026
100	7.204	0.042
120	10.87	0.06
140	14.98	0.07
160	19.46	0.09
180	24.26	0.11
200	29.34	0.13
220	34.67	0.15
240	40.21	0.17
260	45.96	0.2
273.15	49.85	0.21
280	51.9	0.22
298.15	57.44	0.24
300	58.01	0.24
320	64.27	0.27

System: molybdenum potassium uranium oxide (MoK2U2O10); phases: Crystal
Fixed: Pressure, kPa = 101.325
Property: Molar entropy, J/K/mol (Crystal); method: Small (less than 1 g) adiabatic calorimetry
Temperature, K	Molar entropy, J/K/mol	uncertainty
20	3.149	0.098
40	17.55	0.27
60	43.54	0.4
80	75.97	0.59
100	110.6	0.8
120	143.9	1
140	175.5	1.1
160	205.4	1.3
180	233.7	1.4
200	260.4	1.6
220	285.8	1.7
240	309.9	1.8
260	333	2
273.15	347.5	2
280	354.9	2.1
298.15	374.1	2.2
300	376	2.2
320	396.2	2.3

System: molybdenum potassium uranium oxide (MoK2U2O10); phases: Crystal
Fixed: Pressure, kPa = 101.325
Property: Molar heat capacity at constant pressure, J/K/mol (Crystal); method: Small (less than 1 g) adiabatic calorimetry
Temperature, K	Molar heat capacity at constant pressure, J/K/mol	uncertainty
6.6	0.979	0.041
6.7	1.06	0.04
7	1.12	0.04
7.2	1.15	0.04
7.6	1.22	0.04
7.8	1.26	0.04
8	1.28	0.04
8.2	1.3	0.04
8.6	1.33	0.04
8.8	1.4	0.05
9	1.45	0.05
9.4	1.56	0.05
10.1	1.76	0.06
10.6	1.86	0.06
11.4	2.08	0.06
12.1	2.24	0.07
12.5	2.27	0.07
14.2	3.02	0.09
16.2	3.893	0.077
18.7	5.347	0.097
20.6	7.022	0.133
22.5	9.374	0.162
25.7	13.56	0.19
28.2	17.63	0.23
30.5	21.94	0.27
31.5	24.29	0.32
33.2	28.62	0.33
35	32.61	0.35
37.1	38.07	0.37
38	39.89	0.35
40.2	44.33	0.33
42	48.7	0.32
45	52.83	0.33
47.1	57.91	0.38
49.6	63.73	0.4
50.5	66.01	0.45
51.7	69.92	0.44
52.7	71.83	0.41
54.3	75.02	0.46
55.5	79.76	0.51
56.2	81.23	0.44
57.6	84.08	0.45
59.3	87	0.49
61.8	94.56	0.53
63.5	99.28	0.53
65	102.5	0.5
67.4	106.5	0.5
69.6	111.5	0.6
71.3	116.2	0.6
73.7	123.3	0.6
75	127.5	0.6
77.1	130.3	0.6
79.7	138.2	0.7
81.4	141.9	0.7
82.7	144.3	0.7
83.4	144.9	0.7
85.4	149.3	0.7
87.4	152.2	0.7
89.4	155.2	0.7
91.4	158	0.7
93.4	161	0.7
95.4	163.8	0.7
97.3	166.6	0.7
99.3	169.3	0.7
101.8	173.6	0.7
104.7	176.5	0.7
107.7	180.3	0.8
110.7	184	0.8
113.7	187.7	0.8
116.8	191.3	0.8
119.8	194.7	0.8
122.8	198.1	0.8
125.8	201.4	0.8
128.8	204.6	0.8
131.9	207.5	0.8
134.9	210.6	0.9
138.1	213.4	0.9
141.1	216.4	0.9
144.2	219.1	0.9
147.2	221.9	0.9
150.3	224.5	0.9
153.3	227.2	0.9
156.4	229.7	0.9
159.4	232.2	0.9
162.5	234.5	0.9
165.6	237.3	0.9
168.7	239.1	1
171.7	241.4	1
174.8	243.7	1
177.9	245.6	1
180.9	247.8	1
184	249.9	1
187.1	252	1
190	253.9	1
193.1	256	1
196.1	257.9	1
199.2	259.7	1
202.8	262.2	1
206.9	264.5	1
211	266.8	1
215.1	269.2	1.1
219.3	272	1.1
223.4	273.7	1.1
227.5	276	1.1
231.6	278.4	1.1
235.7	280.6	1.1
240	282.4	1.1
244.1	284.6	1.1
248.2	286.8	1.1
252.3	288.7	1.1
256.4	290.6	1.1
260.6	292.6	1.1
264.7	294.4	1.1
268.8	296.4	1.1
272.9	298.2	1.2
277.1	299.8	1.2
281.2	301.6	1.2
285.4	304.7	1.2
289.5	305.3	1.2
293.6	306.9	1.2
297.7	308.3	1.2
302.4	310.6	1.2
307.8	312.7	1.2
313.3	313.8	1.2
318.6	315.5	1.2
324	317.8	1.2
329.3	319.5	1.2
334.6	320.6	1.2

System: molybdenum rubidium uranium oxide (MoRb2U2O10); phases: Crystal
Fixed: Pressure, kPa = 101.325
Property: Molar heat capacity at constant pressure, J/K/mol (Crystal); method: Small (less than 1 g) adiabatic calorimetry
Temperature, K	Molar heat capacity at constant pressure, J/K/mol	uncertainty
20	11.12	0.23
40	50.98	0.43
60	103.3	0.5
80	143	0.7
100	170.9	0.7
120	195.7	0.8
140	214.6	0.9
160	232	0.9
180	246.6	1
200	259.4	1
220	271.8	1.1
240	283.1	1.1
260	292.8	1.1
273.15	298.5	1.2
280	302	1.2
298.15	310.8	1.2
300	312.4	1.2
320	321.6	1.2

System: molybdenum rubidium uranium oxide (MoRb2U2O10); phases: Crystal
Fixed: Pressure, kPa = 101.325
Property: Molar enthalpy, kJ/mol (Crystal); method: Small (less than 1 g) adiabatic calorimetry
Temperature, K	Molar enthalpy, kJ/mol	uncertainty
20	0.08476	0.00307
40	0.6586	0.0083
60	2.222	0.017
80	4.708	0.028
100	7.849	0.044
120	11.53	0.06
140	15.63	0.08
160	20.1	0.09
180	24.9	0.11
200	29.96	0.13
220	35.28	0.15
240	40.84	0.18
260	46.6	0.2
273.15	50.49	0.21
280	52.54	0.22
298.15	58.09	0.24
300	58.67	0.25
320	65.02	0.27

System: molybdenum rubidium uranium oxide (MoRb2U2O10); phases: Crystal
Fixed: Pressure, kPa = 101.325
Property: Molar entropy, J/K/mol (Crystal); method: Small (less than 1 g) adiabatic calorimetry
Temperature, K	Molar entropy, J/K/mol	uncertainty
20	7.156	0.156
40	25.42	0.34
60	56.41	0.48
80	91.88	0.69
100	126.8	0.9
120	160.3	1.1
140	191.9	1.2
160	221.7	1.4
180	249.9	1.5
200	276.6	1.7
220	301.9	1.8
240	326.1	1.9
260	349.1	2.1
273.15	363.7	2.1
280	371.1	2.2
298.15	390.4	2.3
300	392.3	2.3
320	412.8	2.4

System: molybdenum rubidium uranium oxide (MoRb2U2O10); phases: Crystal
Fixed: Pressure, kPa = 101.325
Property: Molar heat capacity at constant pressure, J/K/mol (Crystal); method: Small (less than 1 g) adiabatic calorimetry
Temperature, K	Molar heat capacity at constant pressure, J/K/mol	uncertainty
6.6	1.99	0.06
7	2.1	0.07
7.5	2.29	0.07
8	2.4	0.07
8.4	2.51	0.07
8.8	2.61	0.08
9.2	2.7	0.08
9.5	2.81	0.08
10.1	3.12	0.09
11.4	3.75	0.11
13.3	4.83	0.14
15.7	6.711	0.124
17.3	8.396	0.144
19.1	10.22	0.16
21.2	12.43	0.18
25.6	18.57	0.22
27.5	21.38	0.26
29.1	25.04	0.32
31	30	0.34
33	34.73	0.36
35.3	40.48	0.37
37.2	44.34	0.38
39.1	48.69	0.42
40.2	51.5	0.39
41.6	55.52	0.4
42.7	58.46	0.44
45.8	68.78	0.47
47	72.27	0.42
49.4	76.74	0.42
51.6	81.25	0.47
53.2	86.65	0.49
55.7	92.22	0.51
58	99.31	0.54
59.6	102.8	0.5
61.3	105.1	0.5
63.2	109.7	0.6
65.4	114.7	0.6
67.4	119.4	0.6
69.2	124.6	0.6
71	127.4	0.6
73	131.5	0.6
75.9	135.5	0.6
77.7	139.7	0.7
81.2	144.4	0.7
83.9	148.2	0.7
86.9	153	0.7
89.9	157.1	0.7
92.8	161.4	0.7
95.8	165.3	0.7
98.8	169	0.7
101.8	174	0.7
104.8	177.6	0.7
107.8	181.5	0.8
110.7	184.8	0.8
113.7	188.8	0.8
116.7	192.2	0.8
119.7	195.4	0.8
122.7	198.5	0.8
125.8	200.6	0.8
128.8	203.9	0.8
131.8	206.7	0.8
134.8	209.7	0.9
137.9	212.9	0.9
140.9	215.3	0.9
143.9	218.3	0.9
147	221.1	0.9
150	223.8	0.9
153	226	0.9
156.1	228.7	0.9
159.1	231.2	0.9
162.1	233.8	0.9
165.2	236.4	0.9
168.2	238.6	0.9
171.2	240.5	1
174.3	242.9	1
177.4	245.4	1
180.4	246.8	1
183.4	249	1
186.5	251.2	1
189.5	253.1	1
192.5	254.9	1
195.6	256.8	1
198.6	258.5	1
201.6	260.4	1
204.7	262.5	1
208.2	265.3	1
212.2	267.3	1
216.2	269.7	1.1
220.2	271.9	1.1
224.2	274.4	1.1
228.3	276.7	1.1
232.3	280.1	1.1
236.2	281.2	1.1
240.2	283.2	1.1
244.2	285	1.1
248.2	286.8	1.1
252.2	289.3	1.1
256.1	291.2	1.1
260.1	292.9	1.1
264	294.8	1.1
267.9	296.4	1.1
271.8	297.9	1.2
275.7	299.7	1.2
279.6	301.7	1.2
283.4	303.9	1.2
287.2	305.1	1.2
291	306.1	1.2
294.6	308.4	1.2
298.4	311	1.2
302.5	314.4	1.2
307.5	316	1.2
312.3	318.5	1.2
317.1	320.2	1.2
321.8	322.5	1.2
326.4	324.7	1.2

Reaction: -1 molybdenum + -2 potassium + -2 uranium + 1 molybdenum potassium uranium oxide (MoK2U2O10) + -5 oxygen
Property: Molar enthalpy of reaction, kJ/mol
-4018
