Measured thermophysical data. Vapour-liquid equilibrium measurements and extractive distillation process design for separation of azeotropic mixture (dimethyl carbonate + ethanol)
Source: J. Chem. Thermodyn., 2019, 10.1016/j.jct.2019.01.027
Compound 1: dimethyl carbonate, C3H6O3, InChI=1S/C3H6O3/c1-5-3(4)6-2/h1-2H3, purity 99.5%
Compound 2: 1,4-dimethylbenzene, C8H10, InChI=1S/C8H10/c1-7-3-5-8(2)6-4-7/h3-6H,1-2H3, purity 99%
Compound 3: 2-methylpropyl ethanoate, C6H12O2, InChI=1S/C6H12O2/c1-5(2)4-8-6(3)7/h5H,4H2,1-3H3, purity 99%
Compound 4: butyl propanoate, C7H14O2, InChI=1S/C7H14O2/c1-3-5-6-9-7(8)4-2/h3-6H2,1-2H3, purity 99%
Compound 5: ethanol, C2H6O, InChI=1S/C2H6O/c1-2-3/h3H,2H2,1H3, purity 99.7%

System: dimethyl carbonate; phases: Liquid, Gas
Property: Vapor or sublimation pressure, kPa (Liquid); method: Ebulliometric method (Recirculating still)
Temperature, K	Vapor or sublimation pressure, kPa	uncertainty
363.35	101.3	1.2

System: 1,4-dimethylbenzene; phases: Liquid, Gas
Property: Vapor or sublimation pressure, kPa (Liquid); method: Ebulliometric method (Recirculating still)
Temperature, K	Vapor or sublimation pressure, kPa	uncertainty
411.45	101.3	1.2

System: 2-methylpropyl ethanoate; phases: Liquid, Gas
Property: Vapor or sublimation pressure, kPa (Liquid); method: Ebulliometric method (Recirculating still)
Temperature, K	Vapor or sublimation pressure, kPa	uncertainty
389.55	101.3	1.2

System: butyl propanoate; phases: Liquid, Gas
Property: Vapor or sublimation pressure, kPa (Liquid); method: Ebulliometric method (Recirculating still)
Temperature, K	Vapor or sublimation pressure, kPa	uncertainty
418.35	101.3	1.2

System: ethanol; phases: Liquid, Gas
Property: Vapor or sublimation pressure, kPa (Liquid); method: Ebulliometric method (Recirculating still)
Temperature, K	Vapor or sublimation pressure, kPa	uncertainty
351.45	101.3	1.2

System: dimethyl carbonate + 1,4-dimethylbenzene; phases: Liquid, Gas
Fixed: Pressure, kPa = 101.3
Property: Boiling temperature at pressure P, K (Liquid); method: Ebulliometric method (Recirculating still)
Mole fraction of dimethyl carbonate	Boiling temperature at pressure P, K	uncertainty
1	363.35	0.26
0.8276	366.65	0.28
0.7037	370.05	0.3
0.6075	372.95	0.31
0.4878	377.25	0.32
0.4007	380.65	0.34
0.3192	384.45	0.37
0.2637	387.65	0.41
0.2102	391.05	0.44
0.1608	394.65	0.49
0.1197	398.25	0.53
0.0897	401.05	0.56
0.0675	403.25	0.57
0.0429	405.65	0.62
0.024	407.95	0.75
0	411.45	0.26

System: dimethyl carbonate + 1,4-dimethylbenzene; phases: Gas, Liquid
Fixed: Pressure, kPa = 101.3
Property: Mole fraction of dimethyl carbonate (Gas); method: Chromatography
Mole fraction of dimethyl carbonate	Mole fraction of dimethyl carbonate	uncertainty
1	1	
0.8276	0.9399	0.0054
0.7037	0.8899	0.0056
0.6075	0.8517	0.0058
0.4878	0.7909	0.0062
0.4007	0.7355	0.0068
0.3192	0.673	0.0076
0.2637	0.616	0.0086
0.2102	0.5532	0.0099
0.1608	0.4728	0.0117
0.1197	0.388	0.013
0.0897	0.3157	0.0145
0.0675	0.2542	0.0157
0.0429	0.1831	0.0176
0.024	0.1129	0.0229
0	0	

System: dimethyl carbonate + 2-methylpropyl ethanoate; phases: Liquid, Gas
Fixed: Pressure, kPa = 101.3
Property: Boiling temperature at pressure P, K (Liquid); method: Ebulliometric method (Recirculating still)
Mole fraction of dimethyl carbonate	Boiling temperature at pressure P, K	uncertainty
1	363.35	0.26
0.8504	365.25	0.27
0.7411	366.85	0.27
0.6647	368.25	0.28
0.5568	370.25	0.28
0.4886	371.85	0.29
0.3901	374.35	0.29
0.3202	376.25	0.3
0.242	378.45	0.31
0.1905	380.35	0.32
0.1208	382.75	0.33
0.0908	384.2	0.37
0.0657	385.55	0.39
0.0296	387.55	0.41
0	389.55	0.26

System: dimethyl carbonate + 2-methylpropyl ethanoate; phases: Gas, Liquid
Fixed: Pressure, kPa = 101.3
Property: Mole fraction of dimethyl carbonate (Gas); method: Chromatography
Mole fraction of dimethyl carbonate	Mole fraction of dimethyl carbonate	uncertainty
1	1	
0.8504	0.9203	0.0058
0.7411	0.8629	0.0059
0.6647	0.819	0.0063
0.5568	0.7492	0.0067
0.4886	0.6963	0.0074
0.3901	0.6102	0.008
0.3202	0.5401	0.0087
0.242	0.4561	0.0092
0.1905	0.3834	0.0098
0.1208	0.2804	0.0099
0.0908	0.225	0.0117
0.0657	0.1704	0.0129
0.0296	0.0861	0.0144
0	0	

System: dimethyl carbonate + butyl propanoate; phases: Liquid, Gas
Fixed: Pressure, kPa = 101.3
Property: Boiling temperature at pressure P, K (Liquid); method: Ebulliometric method (Recirculating still)
Mole fraction of dimethyl carbonate	Boiling temperature at pressure P, K	uncertainty
1	363.35	0.26
0.855	366.85	0.29
0.7049	370.75	0.3
0.6041	374.1	0.32
0.5062	377.95	0.34
0.4216	381.75	0.36
0.3493	385.45	0.37
0.2738	389.45	0.4
0.2138	393.35	0.44
0.1629	397.05	0.48
0.1245	400.35	0.55
0.0882	404.05	0.65
0.0589	407.85	0.78
0.036	411.45	0.9
0.0161	414.95	1.03
0	418.35	0.26

System: dimethyl carbonate + butyl propanoate; phases: Gas, Liquid
Fixed: Pressure, kPa = 101.3
Property: Mole fraction of dimethyl carbonate (Gas); method: Chromatography
Mole fraction of dimethyl carbonate	Mole fraction of dimethyl carbonate	uncertainty
1	1	
0.855	0.9649	0.0052
0.7049	0.9247	0.0053
0.6041	0.8901	0.0056
0.5062	0.8435	0.0059
0.4216	0.7941	0.0064
0.3493	0.7411	0.0071
0.2738	0.6751	0.0079
0.2138	0.6083	0.0091
0.1629	0.5381	0.0106
0.1245	0.469	0.0123
0.0882	0.3901	0.0149
0.0589	0.2971	0.0197
0.036	0.1999	0.0246
0.0161	0.0992	0.0292
0	0	

System: ethanol + 2-methylpropyl ethanoate; phases: Liquid, Gas
Fixed: Pressure, kPa = 101.3
Property: Boiling temperature at pressure P, K (Liquid); method: Ebulliometric method (Recirculating still)
Mole fraction of ethanol	Boiling temperature at pressure P, K	uncertainty
1	351.45	0.26
0.8254	354.65	0.28
0.7025	357.35	0.28
0.6051	359.75	0.29
0.5257	361.85	0.3
0.4451	364.25	0.31
0.358	367.25	0.31
0.2762	370.05	0.33
0.2072	373.25	0.35
0.15	375.85	0.37
0.1097	378.35	0.44
0.0671	381.45	0.49
0.0399	384.05	0.64
0.0153	387.25	0.76
0	389.55	0.26

System: ethanol + 2-methylpropyl ethanoate; phases: Gas, Liquid
Fixed: Pressure, kPa = 101.3
Property: Mole fraction of ethanol (Gas); method: Chromatography
Mole fraction of ethanol	Mole fraction of ethanol	uncertainty
1	1	
0.8254	0.9423	0.0054
0.7025	0.8922	0.0056
0.6051	0.8452	0.0059
0.5257	0.8001	0.0062
0.4451	0.7475	0.0068
0.358	0.6767	0.0074
0.2762	0.6011	0.0084
0.2072	0.5159	0.0095
0.15	0.4398	0.0103
0.1097	0.3647	0.0123
0.0671	0.2691	0.0143
0.0399	0.1865	0.0196
0.0153	0.0809	0.0246
0	0	
