Measured thermophysical data. Study on enthalpy and molar heat capacity of solution for ionic liquid [C3mim][OAc] (1-propyl-3-methylimidazolium acetate)
Source: J. Chem. Thermodyn., 2013, 10.1016/j.jct.2013.05.045
Compound 1: 1-propyl-3-methylimidazolium acetate, C9H16N2O2, InChI=1S/C7H13N2.C2H4O2/c1-3-4-9-6-5-8(2)7-9;1-2(3)4/h5-7H,3-4H2,1-2H3;1H3,(H,3,4)/q+1;/p-1, purity 99%
Compound 2: water, H2O, InChI=1S/H2O/h1H2, purity 99.9%

System: water + 1-propyl-3-methylimidazolium acetate; phases: Liquid
Fixed: Pressure, kPa = 100
Property: Molar enthalpy of solution, kJ/mol (Liquid); method: ISOPERIBOL
Temperature, K	Molality, mol/kg of 1-propyl-3-methylimidazolium acetate	Molar enthalpy of solution, kJ/mol	uncertainty
288.15	0.01518	-49.81	0.39
288.15	0.01806	-49.76	0.39
288.15	0.02107	-49.69	0.38
288.15	0.02298	-49.64	0.38
288.15	0.02744	-49.52	0.38
288.15	0.03227	-49.41	0.38
288.15	0.03281	-49.35	0.38
288.15	0.03698	-49.3	0.38
288.15	0.04178	-49.17	0.38
288.15	0.04464	-49.06	0.38
288.15	0.04883	-49.01	0.38
288.15	0.05214	-48.9	0.38
293.15	0.01796	-48.9	0.38
293.15	0.02091	-48.84	0.38
293.15	0.02563	-48.79	0.38
293.15	0.02736	-48.73	0.38
293.15	0.03167	-48.68	0.38
293.15	0.03268	-48.61	0.38
293.15	0.03723	-48.54	0.38
293.15	0.0393	-48.5	0.38
293.15	0.04178	-48.46	0.38
293.15	0.04758	-48.35	0.37
293.15	0.05238	-48.26	0.37
293.15	0.0584	-48.15	0.37
298.15	0.01654	-47.84	0.37
298.15	0.02085	-47.72	0.37
298.15	0.02315	-47.69	0.37
298.15	0.02648	-47.58	0.37
298.15	0.03106	-47.41	0.37
298.15	0.03267	-47.33	0.37
298.15	0.03611	-47.24	0.37
298.15	0.03898	-47.17	0.37
298.15	0.04355	-47.07	0.36
298.15	0.04822	-46.98	0.36
298.15	0.04892	-46.9	0.36
298.15	0.05296	-46.84	0.36
303.15	0.01713	-46.54	0.36
303.15	0.02038	-46.46	0.36
303.15	0.02485	-46.41	0.36
303.15	0.02726	-46.34	0.36
303.15	0.03133	-46.26	0.36
303.15	0.03338	-46.22	0.36
303.15	0.03749	-46.13	0.36
303.15	0.04251	-46.02	0.36
303.15	0.04464	-45.94	0.36
303.15	0.04868	-45.89	0.36
303.15	0.0516	-45.8	0.35
303.15	0.05502	-45.72	0.35
308.15	0.01779	-45.88	0.36
308.15	0.02194	-45.77	0.35
308.15	0.02466	-45.74	0.35
308.15	0.02892	-45.67	0.35
308.15	0.03246	-45.58	0.35
308.15	0.0339	-45.5	0.35
308.15	0.03719	-45.42	0.35
308.15	0.04116	-45.32	0.35
308.15	0.04432	-45.24	0.35
308.15	0.05158	-45.15	0.35
308.15	0.05633	-45.03	0.35
308.15	0.07006	-44.74	0.35
