Measured thermophysical data. Thermochemistry of 2- and 4-biphenylmethanol
Source: J. Chem. Thermodyn., 2007, 10.1016/j.jct.2007.03.002
Compound 1: carbon dioxide, CO2, InChI=1S/CO2/c2-1-3
Compound 2: water, H2O, InChI=1S/H2O/h1H2
Compound 3: oxygen, O2, InChI=1S/O2/c1-2
Compound 4: 2-biphenylmethanol, C13H12O, InChI=1S/C13H12O/c14-10-12-8-4-5-9-13(12)11-6-2-1-3-7-11/h1-9,14H,10H2, purity 99%
Compound 5: 4-biphenylmethanol, C13H12O, InChI=1S/C13H12O/c14-10-11-6-8-13(9-7-11)12-4-2-1-3-5-12/h1-9,14H,10H2, purity 98%

System: 2-biphenylmethanol; phases: Crystal, Liquid, Air at 1 atmosphere
Property: Molar enthalpy of transition or fusion, kJ/mol (Crystal); method: DSC
Molar enthalpy of transition or fusion, kJ/mol	uncertainty
19.7	0.5

System: 2-biphenylmethanol; phases: Crystal, Liquid, Air at 1 atmosphere
Property: Normal melting temperature, K (Crystal); method: DTA
Normal melting temperature, K	uncertainty
322.4	0.7

System: 2-biphenylmethanol; phases: Crystal
Property: Molar heat capacity at constant pressure, J/K/mol (Crystal); method: Drop calorimetry
Temperature, K	Pressure, kPa	Molar heat capacity at constant pressure, J/K/mol	uncertainty
298.15	101.325	268.9813188	22.1080536

System: 2-biphenylmethanol; phases: Crystal, Gas
Property: Vapor or sublimation pressure, kPa (Crystal); method: Calculated from knudsen effusion weight loss
Temperature, K	Vapor or sublimation pressure, kPa	uncertainty
313	0.0001171	3.54e-05
313	0.0001179	3.56e-05
316	0.0001736	5.24e-05
316	0.0001736	5.24e-05
319	0.0002555	7.72e-05
319	0.0002537	7.66e-05
322	0.0003732	0.0001127
322	0.0003682	0.0001112

System: 2-biphenylmethanol; phases: Crystal, Gas
Property: Molar enthalpy of vaporization or sublimation, kJ/mol (Crystal); method: Static calorimetry
Temperature, K	Molar enthalpy of vaporization or sublimation, kJ/mol	uncertainty
298.15	107.1	1.3

System: 4-biphenylmethanol; phases: Crystal, Liquid, Air at 1 atmosphere
Property: Molar enthalpy of transition or fusion, kJ/mol (Crystal); method: DSC
Molar enthalpy of transition or fusion, kJ/mol	uncertainty
27	0.6

System: 4-biphenylmethanol; phases: Crystal, Liquid, Air at 1 atmosphere
Property: Normal melting temperature, K (Crystal); method: DTA
Normal melting temperature, K	uncertainty
373.7	0.7

System: 4-biphenylmethanol; phases: Crystal
Property: Molar heat capacity at constant pressure, J/K/mol (Crystal); method: Drop calorimetry
Temperature, K	Pressure, kPa	Molar heat capacity at constant pressure, J/K/mol	uncertainty
298.15	101.325	256.0849542	66.3241608

System: 4-biphenylmethanol; phases: Crystal, Gas
Property: Molar enthalpy of vaporization or sublimation, kJ/mol (Crystal); method: Static calorimetry
Temperature, K	Molar enthalpy of vaporization or sublimation, kJ/mol	uncertainty
298.15	107.3	3.6

System: 4-biphenylmethanol; phases: Crystal
Property: Mass density, kg/m3 (Crystal); method: mass and size of pellet
Temperature, K	Pressure, kPa	Mass density, kg/m3	uncertainty
298.15	101.325	1390	360

Reaction: -1 2-biphenylmethanol + 13 carbon dioxide + 6 water + -15.5 oxygen
Property: Specific internal energy of reaction at constant volume, J/g
-36456.44

Reaction: -1 4-biphenylmethanol + 13 carbon dioxide + 6 water + -15.5 oxygen
Property: Specific internal energy of reaction at constant volume, J/g
-36382.66
