Measured thermophysical data. Enthalpy of solution of CO2 in aqueous solutions of methyldiethanolamine at T = 322.5 K and pressure up to 5 MPa
Source: J. Chem. Thermodyn., 2008, 10.1016/j.jct.2008.01.028
Compound 1: N-methyldiethanolamine, C5H13NO2, InChI=1S/C5H13NO2/c1-6(2-4-7)3-5-8/h7-8H,2-5H2,1H3, purity 98.5%
Compound 2: water, H2O, InChI=1S/H2O/h1H2
Compound 3: carbon dioxide, CO2, InChI=1S/CO2/c2-1-3, purity 99.998%

System: N-methyldiethanolamine + water; phases: Liquid
Property: Mass density, kg/m3 (Liquid); method: VIBTUB:UFactor:12
Temperature, K	Pressure, kPa	Mass fraction of N-methyldiethanolamine	Mass density, kg/m3	uncertainty
298.31	205	0.3	1023.7	0.7
298.31	506	0.3	1023.8	0.7
298.31	1006	0.3	1024	0.7
298.31	2006	0.3	1024.3	0.8
298.32	5003	0.3	1025.5	0.8
298.33	206	0.15	1009.9	0.6
298.33	508	0.15	1010	0.6
298.33	1008	0.15	1010.2	0.6
298.33	2008	0.15	1010.6	0.6
298.34	5006	0.15	1011.9	0.6

System: N-methyldiethanolamine + carbon dioxide + water; phases: Liquid
Fixed: Temperature, K = 322.5
Property: Molar enthalpy of solution, kJ/mol (Liquid); method: Flow calorimetry
Pressure, kPa	Solvent: Mass fraction of N-methyldiethanolamine	Mole fraction of carbon dioxide	Molar enthalpy of solution, kJ/mol	uncertainty
520	0.1499	0.0113	-57.6	1.3
520	0.1499	0.0129	-58.2	1.1
520	0.1499	0.0157	-55.6	1.3
520	0.1499	0.0168	-56.2	1.3
520	0.1499	0.0197	-54.6	1.7
520	0.1499	0.0212	-55.6	1.3
520	0.1499	0.0231	-52.4	1.9
520	0.1499	0.0259	-51	1.3
980	0.1499	0.0084	-58.1	2
980	0.1499	0.0105	-58	1.7
980	0.1499	0.0126	-58.1	2
980	0.1499	0.0146	-57.6	1.5
980	0.1499	0.0163	-55.9	1.1
980	0.1499	0.0163	-55.2	2.4
980	0.1499	0.0179	-55.3	1.8
980	0.1499	0.0187	-55.1	1.3
980	0.1499	0.0207	-53.2	1.1
980	0.1499	0.0225	-53.9	1.3
980	0.1499	0.0248	-51.5	1.1
980	0.1499	0.0261	-50.8	1.9
5170	0.1499	0.0154	-51.3	0.7
5170	0.1499	0.0177	-50.7	2
5170	0.1499	0.0188	-48.4	0.9
5170	0.1499	0.021	-47.6	2
5170	0.1499	0.021	-48.5	0.7
5170	0.1499	0.0227	-49.6	0.9
5170	0.1499	0.0227	-49.3	1.1
5170	0.1499	0.0246	-48.2	1.3
5170	0.1499	0.0247	-47.5	3.2
5170	0.1499	0.0263	-48.9	1.6
5170	0.1499	0.0276	-48.5	0.7
5170	0.1499	0.0302	-44.9	1.4
5170	0.1499	0.0315	-44.9	0.7
520	0.3	0.0153	-59.4	1.5
520	0.3	0.021	-60.7	13
520	0.3	0.0211	-59.1	12.8
520	0.3	0.0261	-60.7	1.1
520	0.3	0.0311	-57.7	1.1
520	0.3	0.0368	-57.6	2.1
520	0.3	0.0382	-59.3	1.3
520	0.3	0.0416	-58.8	1.5
520	0.3	0.0545	-52.9	2.4
520	0.3	0.0549	-53.3	2.5
1020	0.3	0.0203	-57.5	1.7
1020	0.3	0.023	-56.7	1.3
1020	0.3	0.0258	-56.7	1.7
1020	0.3	0.0283	-57.1	1.6
1020	0.3	0.0296	-58.3	1.5
1020	0.3	0.0323	-57.1	1.5
1020	0.3	0.0347	-57.3	1.5
1020	0.3	0.0374	-56.8	1.7
1020	0.3	0.0406	-56.5	1.7
1020	0.3	0.0454	-56.1	1.5
1020	0.3	0.0502	-55.7	1.7
1020	0.3	0.053	-54.7	2.2
1020	0.3	0.058	-51.4	2.5
5140	0.3	0.018	-55.8	2
5140	0.3	0.0207	-57.3	1.1
5140	0.3	0.0239	-57	4
5140	0.3	0.0276	-57.3	0.9
5140	0.3	0.0329	-56	1.5
5140	0.3	0.0361	-56.3	1.3
5140	0.3	0.0401	-57.7	2.6
5140	0.3	0.0449	-57.1	2.5
5140	0.3	0.0454	-54	2.8
5140	0.3	0.0458	-55.4	6.6
5140	0.3	0.0521	-52	2.4
5140	0.3	0.06	-49.6	2
5140	0.3	0.0678	-45.2	1

System: N-methyldiethanolamine + carbon dioxide + water; phases: Liquid, Gas
Fixed: Temperature, K = 322.5
Property: Mole fraction of carbon dioxide (Liquid); method: Derived from the enthalpies of solution - plateau
Solvent: Mass fraction of N-methyldiethanolamine	Pressure, kPa	Mole fraction of carbon dioxide	uncertainty
0.1499	520	0.026	0.0016
0.1499	980	0.0278	0.002
0.1499	5170	0.0317	0.002
0.3	520	0.0557	0.0022
0.3	1020	0.0595	0.0046
0.3	5140	0.0681	0.0114

System: N-methyldiethanolamine + carbon dioxide + water; phases: Fluid (supercritical or subcritical phases)
Fixed: Temperature, K = 322.5
Property: Molar enthalpy of solution, kJ/mol (Fluid (supercritical or subcritical phases)); method: Flow calorimetry
Pressure, kPa	Solvent: Mass fraction of N-methyldiethanolamine	Mole fraction of carbon dioxide	Molar enthalpy of solution, kJ/mol	uncertainty
520	0.1499	0.0276	-47.3	1.8
520	0.1499	0.0304	-43.7	2.2
520	0.1499	0.032	-40.7	2
520	0.1499	0.0349	-37.7	1.8
520	0.1499	0.0378	-34.6	2
980	0.1499	0.0283	-47.9	1.5
980	0.1499	0.0291	-46.8	1.5
980	0.1499	0.0331	-41	1.5
980	0.1499	0.0375	-36	1.4
980	0.1499	0.0419	-32.1	1.4
980	0.1499	0.0459	-29	1.4
5170	0.1499	0.0339	-42.1	0.8
5170	0.1499	0.0366	-38.7	0.7
5170	0.1499	0.0393	-36.4	0.6
5170	0.1499	0.0435	-32.4	0.6
5170	0.1499	0.0527	-26.8	0.6
5170	0.1499	0.063	-21.9	0.7
520	0.3	0.0596	-49	2.1
520	0.3	0.0647	-44.5	2.2
1020	0.3	0.0625	-47.5	2.6
1020	0.3	0.0682	-43.4	2.5
1020	0.3	0.0748	-39.5	2.3
1020	0.3	0.08	-36.7	2.1
1020	0.3	0.0899	-32.4	1.9
1020	0.3	0.1015	-28.3	1.9
5140	0.3	0.077	-39.8	0.8
5140	0.3	0.0859	-35.6	0.7
5140	0.3	0.0885	-34.3	0.7
5140	0.3	0.1	-30	0.6
5140	0.3	0.111	-26.6	0.6
5140	0.3	0.121	-24.1	0.5
5140	0.3	0.1287	-22.6	0.5
