Measured thermophysical data. Experimental measurement and correlation of the solubility of aloe-emodin in seven pure solvents
Source: J. Chem. Thermodyn., 2016, 10.1016/j.jct.2016.02.020
Compound 1: 1,8-dihydroxy-3-(hydroxymethyl)anthracene-9,10-dione, C15H10O5, InChI=1S/C15H10O5/c16-6-7-4-9-13(11(18)5-7)15(20)12-8(14(9)19)2-1-3-10(12)17/h1-5,16-18H,6H2, purity 98%
Compound 2: water, H2O, InChI=1S/H2O/h1H2, purity 99.8%
Compound 3: methanol, CH4O, InChI=1S/CH4O/c1-2/h2H,1H3, purity 99.5%
Compound 4: ethanol, C2H6O, InChI=1S/C2H6O/c1-2-3/h3H,2H2,1H3, purity 99%
Compound 5: propan-1-ol, C3H8O, InChI=1S/C3H8O/c1-2-3-4/h4H,2-3H2,1H3, purity 99.8%
Compound 6: butan-1-ol, C4H10O, InChI=1S/C4H10O/c1-2-3-4-5/h5H,2-4H2,1H3, purity 99%
Compound 7: butan-2-ol, C4H10O, InChI=1S/C4H10O/c1-3-4(2)5/h4-5H,3H2,1-2H3, purity 99.8%
Compound 8: pentan-1-ol, C5H12O, InChI=1S/C5H12O/c1-2-3-4-5-6/h6H,2-5H2,1H3, purity 99.8%

System: 1,8-dihydroxy-3-(hydroxymethyl)anthracene-9,10-dione + water; phases: Liquid, Crystal
Fixed: Pressure, kPa = 100
Property: Mole fraction of 1,8-dihydroxy-3-(hydroxymethyl)anthracene-9,10-dione (Liquid); method: UV spectrophotometry
Temperature, K	Mole fraction of 1,8-dihydroxy-3-(hydroxymethyl)anthracene-9,10-dione	uncertainty
278.15	2.2e-07	2.2e-08
283.15	3.21e-07	3.2e-08
288.15	4.43e-07	4.5e-08
293.15	5.69e-07	5.7e-08
298.15	8.07e-07	8.2e-08
303.15	1.206e-06	1.22e-07
308.15	1.637e-06	1.65e-07
313.15	2.218e-06	2.23e-07
318.15	2.823e-06	2.83e-07

System: methanol + 1,8-dihydroxy-3-(hydroxymethyl)anthracene-9,10-dione; phases: Liquid, Crystal
Fixed: Pressure, kPa = 100
Property: Mole fraction of 1,8-dihydroxy-3-(hydroxymethyl)anthracene-9,10-dione (Liquid); method: UV spectrophotometry
Temperature, K	Mole fraction of 1,8-dihydroxy-3-(hydroxymethyl)anthracene-9,10-dione	uncertainty
278.15	1.661e-06	1.68e-07
283.15	2.234e-06	2.25e-07
288.15	3.104e-06	3.13e-07
293.15	4.29e-06	4.32e-07
298.15	5.39e-06	5.43e-07
303.15	7.71e-06	7.8e-07
308.15	1.134e-05	1.15e-06
313.15	1.595e-05	1.61e-06
318.15	2.327e-05	2.35e-06

System: ethanol + 1,8-dihydroxy-3-(hydroxymethyl)anthracene-9,10-dione; phases: Liquid, Crystal
Fixed: Pressure, kPa = 100
Property: Mole fraction of 1,8-dihydroxy-3-(hydroxymethyl)anthracene-9,10-dione (Liquid); method: UV spectrophotometry
Temperature, K	Mole fraction of 1,8-dihydroxy-3-(hydroxymethyl)anthracene-9,10-dione	uncertainty
278.15	1.723e-05	1.73e-06
283.15	2.11e-05	2.12e-06
288.15	2.449e-05	2.46e-06
293.15	3.086e-05	3.1e-06
298.15	3.744e-05	3.75e-06
303.15	4.355e-05	4.36e-06
308.15	5.046e-05	5.06e-06
313.15	6.196e-05	6.22e-06
318.15	7.56e-05	7.58e-06

System: propan-1-ol + 1,8-dihydroxy-3-(hydroxymethyl)anthracene-9,10-dione; phases: Liquid, Crystal
Fixed: Pressure, kPa = 100
Property: Mole fraction of 1,8-dihydroxy-3-(hydroxymethyl)anthracene-9,10-dione (Liquid); method: UV spectrophotometry
Temperature, K	Mole fraction of 1,8-dihydroxy-3-(hydroxymethyl)anthracene-9,10-dione	uncertainty
278.15	1.82e-05	1.8e-06
283.15	2.49e-05	2.5e-06
288.15	3.07e-05	3.1e-06
293.15	4e-05	4e-06
298.15	5.26e-05	5.3e-06
303.15	6.56e-05	6.6e-06
308.15	7.38e-05	7.4e-06
313.15	9.21e-05	9.3e-06
318.15	0.0001157	1.16e-05

System: butan-1-ol + 1,8-dihydroxy-3-(hydroxymethyl)anthracene-9,10-dione; phases: Liquid, Crystal
Fixed: Pressure, kPa = 100
Property: Mole fraction of 1,8-dihydroxy-3-(hydroxymethyl)anthracene-9,10-dione (Liquid); method: UV spectrophotometry
Temperature, K	Mole fraction of 1,8-dihydroxy-3-(hydroxymethyl)anthracene-9,10-dione	uncertainty
278.15	4.59e-05	4.6e-06
283.15	5.17e-05	5.2e-06
288.15	6.49e-05	6.5e-06
293.15	7.71e-05	7.7e-06
298.15	9.05e-05	9.1e-06
303.15	0.0001016	1.02e-05
308.15	0.0001222	1.22e-05
313.15	0.0001367	1.37e-05
318.15	0.00016	1.6e-05

System: butan-2-ol + 1,8-dihydroxy-3-(hydroxymethyl)anthracene-9,10-dione; phases: Liquid, Crystal
Fixed: Pressure, kPa = 100
Property: Mole fraction of 1,8-dihydroxy-3-(hydroxymethyl)anthracene-9,10-dione (Liquid); method: UV spectrophotometry
Temperature, K	Mole fraction of 1,8-dihydroxy-3-(hydroxymethyl)anthracene-9,10-dione	uncertainty
278.15	1.62e-05	1.6e-06
283.15	2.05e-05	2.1e-06
288.15	2.71e-05	2.7e-06
293.15	3.67e-05	3.7e-06
298.15	4.52e-05	4.5e-06
303.15	5.44e-05	5.5e-06
308.15	6.76e-05	6.8e-06
313.15	8.02e-05	8e-06
318.15	9.79e-05	9.8e-06

System: pentan-1-ol + 1,8-dihydroxy-3-(hydroxymethyl)anthracene-9,10-dione; phases: Liquid, Crystal
Fixed: Pressure, kPa = 100
Property: Mole fraction of 1,8-dihydroxy-3-(hydroxymethyl)anthracene-9,10-dione (Liquid); method: UV spectrophotometry
Temperature, K	Mole fraction of 1,8-dihydroxy-3-(hydroxymethyl)anthracene-9,10-dione	uncertainty
278.15	7e-05	7e-06
283.15	8.33e-05	8.4e-06
288.15	0.0001003	1.01e-05
293.15	0.0001176	1.18e-05
298.15	0.0001377	1.38e-05
303.15	0.0001582	1.58e-05
308.15	0.0001805	1.81e-05
313.15	0.0002072	2.08e-05
318.15	0.000245	2.46e-05
