Measured thermophysical data. Determination of the temperature dependence of Titanium(IV) hydrolysis and complexation constants in aqueous sulfuric or chlorhydric solutions
Source: J. Chem. Thermodyn., 2019, 10.1016/j.jct.2018.11.001
Compound 1: titanium(IV) oxide, O2Ti, InChI=1S/2O.Ti/q2*-2;+4
Compound 2: water, H2O, InChI=1S/H2O/h1H2
Compound 3: perchloric acid, ClHO4, InChI=1S/ClHO4/c2-1(3,4)5/h(H,2,3,4,5), purity 99.999%
Compound 4: sulfuric acid, H2O4S, InChI=1S/H2O4S/c1-5(2,3)4/h(H2,1,2,3,4), purity 99.999%
Compound 5: hydrogen chloride, ClH, InChI=1S/ClH/h1H, purity 99.999%

System: titanium(IV) oxide + water + perchloric acid; phases: Liquid, Metastable crystal
Fixed: Pressure, kPa = 100
Property: Amount concentration (molarity), mol/dm3 of titanium(IV) oxide (Liquid); method: SPECTR
Temperature, K	Solvent: Mass fraction of perchloric acid	Amount concentration (molarity), mol/dm3 of titanium(IV) oxide	uncertainty
298.15	0.0952	0.00504	0.00033
353.15	0.049	0.000325	6.3e-05

System: titanium(IV) oxide + water + sulfuric acid; phases: Liquid, Metastable crystal
Property: Amount concentration (molarity), mol/dm3 of titanium(IV) oxide (Liquid); method: SPECTR
Temperature, K	Solvent: Mass fraction of sulfuric acid	Pressure, kPa	Amount concentration (molarity), mol/dm3 of titanium(IV) oxide	uncertainty
353.15	0.048	100	0.00071	6.1e-05

System: titanium(IV) oxide + water + hydrogen chloride; phases: Liquid, Metastable crystal
Property: Amount concentration (molarity), mol/dm3 of titanium(IV) oxide (Liquid); method: SPECTR
Temperature, K	Solvent: Mass fraction of hydrogen chloride	Pressure, kPa	Amount concentration (molarity), mol/dm3 of titanium(IV) oxide	uncertainty
353.15	0.0183	100	0.0023	0.00082
