Measured thermophysical data. Measurement and thermodynamic modelling of ternary liquid-liquid equilibrium for extraction of (1R,2R)-(-)-1,2-Diaminocyclohexane from aqueous solution with C4-C5 alcohols at different temperatures
Source: J. Chem. Thermodyn., 2018, 10.1016/j.jct.2018.01.013
Compound 1: (1R,2R)-cyclohexane-1,2-diamine, C6H14N2, InChI=1S/C6H14N2/c7-5-3-1-2-4-6(5)8/h5-6H,1-4,7-8H2/t5-,6-/m1/s1, purity 98%
Compound 2: 2-methyl-1-propanol, C4H10O, InChI=1S/C4H10O/c1-4(2)3-5/h4-5H,3H2,1-2H3, purity 99.5%
Compound 3: 3-methylbutan-1-ol, C5H12O, InChI=1S/C5H12O/c1-5(2)3-4-6/h5-6H,3-4H2,1-2H3, purity 99%
Compound 4: water, H2O, InChI=1S/H2O/h1H2, purity 99.8%

System: 2-methyl-1-propanol + water; phases: Liquid mixture 1, Liquid mixture 2
Fixed: Pressure, kPa = 100.41
Property: Mass fraction of 2-methyl-1-propanol (Liquid mixture 1); method: Chromatography
Temperature, K	Mass fraction of 2-methyl-1-propanol	uncertainty
288.2	0.8413	0.0077
298.2	0.8278	0.0077
308.2	0.8209	0.0077
318.2	0.8133	0.0077

System: 2-methyl-1-propanol + water; phases: Liquid mixture 2, Liquid mixture 1
Fixed: Pressure, kPa = 100.41
Property: Mass fraction of 2-methyl-1-propanol (Liquid mixture 2); method: Chromatography
Temperature, K	Mass fraction of 2-methyl-1-propanol	uncertainty
288.2	0.0829	0.0074
298.2	0.0786	0.0074
308.2	0.0691	0.0074
318.2	0.0683	0.0074

System: 3-methylbutan-1-ol + water; phases: Liquid mixture 1, Liquid mixture 2
Fixed: Pressure, kPa = 100.41
Property: Mass fraction of 3-methylbutan-1-ol (Liquid mixture 1); method: Chromatography
Temperature, K	Mass fraction of 3-methylbutan-1-ol	uncertainty
288.2	0.9022	0.0076
298.2	0.9019	0.0076
308.2	0.8953	0.0076
318.2	0.8835	0.0076

System: 3-methylbutan-1-ol + water; phases: Liquid mixture 2, Liquid mixture 1
Fixed: Pressure, kPa = 100.41
Property: Mass fraction of 3-methylbutan-1-ol (Liquid mixture 2); method: Chromatography
Temperature, K	Mass fraction of 3-methylbutan-1-ol	uncertainty
288.2	0.0253	0.0074
298.2	0.0219	0.0074
308.2	0.0202	0.0074
318.2	0.0184	0.0074

System: 2-methyl-1-propanol + water + (1R,2R)-cyclohexane-1,2-diamine; phases: Liquid mixture 2, Liquid mixture 1
Fixed: Pressure, kPa = 100.41
Property: Mass fraction of (1R,2R)-cyclohexane-1,2-diamine (Liquid mixture 2); method: Chromatography
Property: Mass fraction of (1R,2R)-cyclohexane-1,2-diamine (Liquid mixture 1); method: Chromatography
Property: Mass fraction of 2-methyl-1-propanol (Liquid mixture 1); method: Chromatography
Temperature, K	Mass fraction of 2-methyl-1-propanol	Mass fraction of (1R,2R)-cyclohexane-1,2-diamine	uncertainty	Mass fraction of (1R,2R)-cyclohexane-1,2-diamine	uncertainty	Mass fraction of 2-methyl-1-propanol	uncertainty
288.2	0.0829	0		0		0.8413	
288.2	0.0856	0.0122	0.0122	0.0254	0.0098	0.7836	
288.2	0.0892	0.0166	0.016	0.0341	0.0093	0.7646	
288.2	0.0947	0.0277	0.0151	0.0566	0.0087	0.7041	
288.2	0.1029	0.041	0.016	0.0824	0.0085	0.6125	
288.2	0.1047	0.0511	0.0163	0.0952	0.0082	0.5717	
288.2	0.1165	0.0678	0.0134	0.1144	0.008	0.4794	
298.2	0.0786	0		0		0.8278	
298.2	0.0849	0.0114	0.0114	0.0292	0.0095	0.7603	
298.2	0.0916	0.0262	0.0145	0.0606	0.0094	0.6821	
298.2	0.1012	0.0364	0.0116	0.0763	0.0092	0.6418	
298.2	0.1114	0.0486	0.0115	0.0998	0.0084	0.5768	
298.2	0.1278	0.0662	0.0103	0.1186	0.0079	0.4864	
298.2	0.1406	0.0753	0.0092	0.1267	0.0077	0.4283	
308.2	0.0691	0		0		0.8209	
308.2	0.0746	0.0087	0.0087	0.0232	0.0098	0.7714	
308.2	0.0779	0.0204	0.0164	0.0504	0.0095	0.7054	
308.2	0.0879	0.0328	0.0113	0.0748	0.0092	0.6444	
308.2	0.0948	0.0415	0.0114	0.0905	0.0087	0.5957	
308.2	0.1185	0.0651	0.0101	0.1214	0.0084	0.4963	
308.2	0.1324	0.0743	0.009	0.1277	0.0077	0.4489	
318.2	0.0683	0		0		0.8133	
318.2	0.0743	0.0108	0.0108	0.0335	0.0102	0.7489	
318.2	0.0759	0.0194	0.0154	0.0522	0.0092	0.7032	
318.2	0.0784	0.0229	0.0177	0.0614	0.0097	0.674	
318.2	0.0835	0.032	0.0146	0.082	0.0095	0.6327	
318.2	0.0887	0.0412	0.0131	0.0947	0.0091	0.5921	
318.2	0.0995	0.0519	0.0107	0.1145	0.0094	0.5413	

System: 3-methylbutan-1-ol + water + (1R,2R)-cyclohexane-1,2-diamine; phases: Liquid mixture 2, Liquid mixture 1
Fixed: Pressure, kPa = 100.41
Property: Mass fraction of 3-methylbutan-1-ol (Liquid mixture 2); method: Chromatography
Property: Mass fraction of (1R,2R)-cyclohexane-1,2-diamine (Liquid mixture 1); method: Chromatography
Property: Mass fraction of 3-methylbutan-1-ol (Liquid mixture 1); method: Chromatography
Temperature, K	Mass fraction of (1R,2R)-cyclohexane-1,2-diamine	Mass fraction of 3-methylbutan-1-ol	uncertainty	Mass fraction of (1R,2R)-cyclohexane-1,2-diamine	uncertainty	Mass fraction of 3-methylbutan-1-ol	uncertainty
288.2	0	0.0253	0.0072	0		0.9022	
288.2	0.0192	0.0261	0.0073	0.0374	0.0122	0.839	
288.2	0.0411	0.031	0.0074	0.072	0.0115	0.7684	
288.2	0.0595	0.0357	0.0074	0.0926	0.0113	0.7268	
288.2	0.0708	0.0369	0.0074	0.1064	0.0107	0.6954	
288.2	0.0867	0.0413	0.0075	0.124	0.0104	0.6535	
288.2	0.1023	0.0461	0.0075	0.1353	0.01	0.6229	
298.2	0	0.0219	0.0072	0		0.9019	
298.2	0.0132	0.0247	0.0073	0.0282	0.0133	0.8563	
298.2	0.0221	0.0262	0.0072	0.0436	0.0125	0.8346	
298.2	0.0334	0.0272	0.0073	0.06151	0.0113	0.79708	
298.2	0.0512	0.0308	0.0074	0.0876	0.0108	0.7418	
298.2	0.0626	0.0335	0.0074	0.1047	0.0109	0.701	
298.2	0.0785	0.0362	0.0073	0.1282	0.0101	0.6494	
298.2	0.1069	0.0402	0.0073	0.1589	0.0097	0.5603	
308.2	0	0.0202	0.0072	0		0.8953	
308.2	0.0104	0.0189	0.0072	0.0306	0.0124	0.8224	
308.2	0.0285	0.0218	0.0073	0.0669	0.0134	0.7746	
308.2	0.0423	0.0243	0.0073	0.088	0.012	0.7294	
308.2	0.0582	0.0273	0.0074	0.1093	0.012	0.6924	
308.2	0.0855	0.0344	0.0075	0.1391	0.0103	0.6322	
308.2	0.1172	0.0447	0.0076	0.1693	0.0096	0.5418	
318.2	0	0.0184	0.0072	0		0.8835	
318.2	0.0137	0.0195	0.0072	0.0422	0.0127	0.8056	
318.2	0.0325	0.022	0.0073	0.0804	0.0134	0.7441	
318.2	0.0435	0.0233	0.0073	0.0954	0.0121	0.7196	
318.2	0.0562	0.0261	0.0074	0.1209	0.0116	0.6681	
318.2	0.08	0.0328	0.0074	0.1553	0.0105	0.5987	
318.2	0.1178	0.0414	0.0074	0.1759	0.0095	0.5344	
