Measured thermophysical data. Effect of glycine, DL-alanine and DL-2-aminobutyric acid on the temperature of maximum density of water
Source: J. Chem. Thermodyn., 2015, 10.1016/j.jct.2015.04.024
Compound 1: 2-aminoacetic acid, C2H5NO2, InChI=1S/C2H5NO2/c3-1-2(4)5/h1,3H2,(H,4,5), purity 98%
Compound 2: DL-2-aminopropanoic acid, C3H7NO2, InChI=1S/C3H7NO2/c1-2(4)3(5)6/h2H,4H2,1H3,(H,5,6), purity 99%
Compound 3: (.+-.)-.alpha.-aminobutyric acid, C4H9NO2, InChI=1S/C4H9NO2/c1-2-3(5)4(6)7/h3H,2,5H2,1H3,(H,6,7), purity 99%
Compound 4: water, H2O, InChI=1S/H2O/h1H2, purity 99.8%

System: 2-aminoacetic acid + water; phases: Liquid
Fixed: Pressure, kPa = 75
Property: Mass density, kg/m3 (Liquid); method: Buoyancy - hydrostatic balance with magnetic suspension - one sinker
Temperature, K	Molality, mol/kg of 2-aminoacetic acid	Mass density, kg/m3	uncertainty
275.63	0.02975	1000.978	0.164
275.63	0.03917	1001.303	0.164
275.63	0.05033	1001.692	0.164
275.63	0.0596	1002.004	0.164
275.63	0.07025	1002.368	0.164
275.63	0.07948	1002.68	0.165
275.63	0.089	1003.011	0.165
275.63	0.09846	1003.342	0.165
276.13	0.03055	1001.013	0.164
276.13	0.04004	1001.339	0.164
276.13	0.05063	1001.708	0.164
276.13	0.05984	1002.025	0.164
276.13	0.06886	1002.319	0.164
276.13	0.08159	1002.763	0.165
276.13	0.08976	1003.048	0.165
276.13	0.10009	1003.39	0.165
276.69	0.02962	1000.979	0.164
276.69	0.03964	1001.318	0.164
276.69	0.04889	1001.63	0.164
276.69	0.06028	1002.023	0.164
276.69	0.06972	1002.338	0.164
276.69	0.07961	1002.678	0.165
276.69	0.0885	1002.978	0.165
276.69	0.10077	1003.394	0.165
277.12	0.02962	1000.964	0.164
277.12	0.03964	1001.313	0.164
277.12	0.04889	1001.62	0.164
277.12	0.06028	1002.014	0.164
277.12	0.06972	1002.323	0.164
277.12	0.07961	1002.664	0.165
277.12	0.0885	1002.968	0.165
277.12	0.10077	1003.379	0.165
277.67	0.02975	1000.984	0.164
277.67	0.03917	1001.298	0.164
277.67	0.05033	1001.68	0.164
277.67	0.0596	1001.995	0.164
277.67	0.07025	1002.357	0.164
277.67	0.07948	1002.67	0.165
277.67	0.085	1002.852	0.165
277.67	0.09846	1003.315	0.165
278.12	0.02966	1000.966	0.164
278.12	0.04207	1001.385	0.164
278.12	0.05006	1001.653	0.164
278.12	0.06152	1002.038	0.164
278.12	0.06869	1002.28	0.164
278.12	0.0814	1002.709	0.165
278.12	0.08635	1002.875	0.165
278.12	0.09984	1003.33	0.165
278.65	0.02951	1000.946	0.164
278.65	0.04154	1001.346	0.164
278.65	0.04986	1001.642	0.164
278.65	0.05429	1001.776	0.164
278.65	0.07168	1002.359	0.164
278.65	0.08119	1002.671	0.165
278.65	0.0895	1002.956	0.165
278.65	0.09674	1003.198	0.165

System: DL-2-aminopropanoic acid + water; phases: Liquid
Fixed: Pressure, kPa = 75
Property: Mass density, kg/m3 (Liquid); method: Buoyancy - hydrostatic balance with magnetic suspension - one sinker
Temperature, K	Molality, mol/kg of DL-2-aminopropanoic acid	Mass density, kg/m3	uncertainty
275.63	0.04005	1001.174	0.164
275.63	0.04974	1001.469	0.164
275.63	0.0592	1001.756	0.164
275.63	0.0695	1002.071	0.164
275.63	0.08475	1002.527	0.164
275.63	0.0911	1002.724	0.164
275.63	0.10195	1003.055	0.164
275.63	0.0294	1000.849	0.163
276.13	0.03044	1000.876	0.163
276.13	0.04034	1001.191	0.164
276.13	0.04918	1001.462	0.164
276.13	0.05989	1001.781	0.164
276.13	0.07063	1002.105	0.164
276.13	0.07952	1002.373	0.164
276.13	0.09022	1002.691	0.164
276.13	0.09952	1002.98	0.164
276.69	0.03006	1000.883	0.163
276.69	0.04009	1001.186	0.164
276.69	0.04963	1001.475	0.164
276.69	0.0606	1001.806	0.164
276.69	0.0711	1002.133	0.164
276.69	0.07938	1002.373	0.164
276.69	0.08509	1002.538	0.164
276.69	0.09839	1002.948	0.164
277.12	0.03044	1000.893	0.163
277.12	0.04034	1001.192	0.164
277.12	0.05989	1001.78	0.164
277.12	0.07063	1002.099	0.164
277.12	0.07952	1002.371	0.164
277.12	0.09022	1002.696	0.164
277.12	0.09952	1002.971	0.164
277.12	0.0492	1001.456	0.164
277.67	0.02944	1000.853	0.163
277.67	0.04005	1001.166	0.164
277.67	0.04974	1001.459	0.164
277.67	0.0592	1001.741	0.164
277.67	0.0695	1002.057	0.164
277.67	0.08475	1002.514	0.164
277.67	0.0911	1002.704	0.164
277.67	0.10195	1003.036	0.164
278.12	0.03078	1000.9	0.163
278.12	0.03875	1001.112	0.164
278.12	0.04963	1001.451	0.164
278.12	0.05968	1001.761	0.164
278.12	0.0709	1002.093	0.164
278.12	0.07928	1002.342	0.164
278.12	0.09099	1002.693	0.164
278.12	0.10056	1002.98	0.164
278.65	0.03078	1000.888	0.163
278.65	0.03875	1001.126	0.164
278.65	0.04963	1001.45	0.164
278.65	0.05968	1001.753	0.164
278.65	0.0709	1002.086	0.164
278.65	0.07928	1002.335	0.164
278.65	0.09099	1002.678	0.164
278.65	0.1006	1002.964	0.164

System: (.+-.)-.alpha.-aminobutyric acid + water; phases: Liquid
Fixed: Pressure, kPa = 75
Property: Mass density, kg/m3 (Liquid); method: Buoyancy - hydrostatic balance with magnetic suspension - one sinker
Temperature, K	Molality, mol/kg of (.+-.)-.alpha.-aminobutyric acid	Mass density, kg/m3	uncertainty
275.63	0.03017	1000.84	0.163
275.63	0.03851	1001.087	0.164
275.63	0.04794	1001.364	0.164
275.63	0.06041	1001.724	0.164
275.63	0.072	1002.065	0.164
275.63	0.07612	1002.185	0.164
275.63	0.08971	1002.582	0.164
275.63	0.0967	1002.785	0.164
276.13	0.03035	1000.845	0.163
276.13	0.03896	1001.101	0.164
276.13	0.04967	1001.417	0.164
276.13	0.05823	1001.671	0.164
276.13	0.07075	1002.029	0.164
276.13	0.08046	1002.308	0.164
276.13	0.0968	1002.784	0.164
276.13	0.0901	1002.599	0.164
276.69	0.0256	1000.72	0.163
276.69	0.03484	1000.989	0.164
276.69	0.04383	1001.245	0.164
276.69	0.05138	1001.472	0.164
276.69	0.06131	1001.775	0.164
276.69	0.06872	1001.988	0.164
276.69	0.0783	1002.243	0.164
276.69	0.08694	1002.51	0.164
277.12	0.03035	1000.858	0.163
277.12	0.03896	1001.115	0.164
277.12	0.04967	1001.423	0.164
277.12	0.05823	1001.678	0.164
277.12	0.07075	1002.037	0.164
277.12	0.08046	1002.314	0.164
277.12	0.0968	1002.792	0.164
277.12	0.0901	1002.601	0.164
277.67	0.0256	1000.705	0.163
277.67	0.03484	1000.988	0.164
277.67	0.04383	1001.25	0.164
277.67	0.05138	1001.468	0.164
277.67	0.06131	1001.76	0.164
277.67	0.06872	1001.989	0.164
277.67	0.0783	1002.25	0.164
277.67	0.08694	1002.507	0.164
278.12	0.03122	1000.86	0.163
278.12	0.04081	1001.156	0.164
278.12	0.04913	1001.384	0.164
278.12	0.05983	1001.719	0.164
278.12	0.07098	1002.046	0.164
278.12	0.08031	1002.296	0.164
278.12	0.09051	1002.595	0.164
278.12	0.09974	1002.849	0.164
278.65	0.04081	1001.124	0.164
278.65	0.04913	1001.352	0.164
278.65	0.05983	1001.672	0.164
278.65	0.07098	1001.996	0.164
278.65	0.08031	1002.266	0.164
278.65	0.09051	1002.567	0.164
278.65	0.0997	1002.851	0.164
278.65	0.0312	1000.863	0.163
