Measured thermophysical data. Excess enthalpies and isothermal (vapour + liquid) equilibria of (1-methyl-2-pyrrolidone + 1-chloroalkane or +,?-dichloroalkane) mixtures
Source: J. Chem. Thermodyn., 2008, 10.1016/j.jct.2008.01.024
Compound 1: N-methylpyrrolidone, C5H9NO, InChI=1S/C5H9NO/c1-6-4-2-3-5(6)7/h2-4H2,1H3, purity 99%
Compound 2: 1-chlorobutane, C4H9Cl, InChI=1S/C4H9Cl/c1-2-3-4-5/h2-4H2,1H3, purity 99.8%
Compound 3: 1-chlorooctane, C8H17Cl, InChI=1S/C8H17Cl/c1-2-3-4-5-6-7-8-9/h2-8H2,1H3, purity 98%
Compound 4: 1,2-dichloroethane, C2H4Cl2, InChI=1S/C2H4Cl2/c3-1-2-4/h1-2H2, purity 99.5%
Compound 5: 1,4-dichlorobutane, C4H8Cl2, InChI=1S/C4H8Cl2/c5-3-1-2-4-6/h1-4H2, purity 97%
Compound 6: 1-chlorohexane, C6H13Cl, InChI=1S/C6H13Cl/c1-2-3-4-5-6-7/h2-6H2,1H3, purity 99%
Compound 7: 1,6-dichlorohexane, C6H12Cl2, InChI=1S/C6H12Cl2/c7-5-3-1-2-4-6-8/h1-6H2, purity 98%

System: N-methylpyrrolidone; phases: Liquid
Property: Mass density, kg/m3 (Liquid); method: VIBTUB:UFactor:6
Temperature, K	Pressure, kPa	Mass density, kg/m3	uncertainty
298.15	101.325	1028.55	0.6

System: 1-chlorobutane; phases: Liquid, Gas
Property: Vapor or sublimation pressure, kPa (Liquid); method: Ebulliometric method (Recirculating still)
Temperature, K	Vapor or sublimation pressure, kPa	uncertainty
313.15	25.722	0.028

System: 1-chlorobutane; phases: Liquid
Property: Mass density, kg/m3 (Liquid); method: VIBTUB:UFactor:2
Temperature, K	Pressure, kPa	Mass density, kg/m3	uncertainty
298.15	101.325	880.72	0.21

System: 1-chlorooctane; phases: Liquid
Property: Mass density, kg/m3 (Liquid); method: VIBTUB:UFactor:8
Temperature, K	Pressure, kPa	Mass density, kg/m3	uncertainty
298.15	101.325	868.98	1.65

System: 1,2-dichloroethane; phases: Liquid, Gas
Property: Vapor or sublimation pressure, kPa (Liquid); method: Ebulliometric method (Recirculating still)
Temperature, K	Vapor or sublimation pressure, kPa	uncertainty
313.15	20.752	0.025

System: 1,2-dichloroethane; phases: Liquid
Property: Mass density, kg/m3 (Liquid); method: VIBTUB:UFactor:4
Temperature, K	Pressure, kPa	Mass density, kg/m3	uncertainty
298.15	101.325	1245.6	0.76

System: 1,4-dichlorobutane; phases: Liquid, Gas
Property: Vapor or sublimation pressure, kPa (Liquid); method: Ebulliometric method (Recirculating still)
Temperature, K	Vapor or sublimation pressure, kPa	uncertainty
323.15	2.205	0.011

System: 1,4-dichlorobutane; phases: Liquid
Property: Mass density, kg/m3 (Liquid); method: VIBTUB:UFactor:12
Temperature, K	Pressure, kPa	Mass density, kg/m3	uncertainty
298.15	101.325	1133.63	4.81

System: 1-chlorohexane; phases: Liquid, Gas
Property: Vapor or sublimation pressure, kPa (Liquid); method: Ebulliometric method (Recirculating still)
Temperature, K	Vapor or sublimation pressure, kPa	uncertainty
313.15	2.857	0.009

System: 1-chlorohexane; phases: Liquid
Property: Mass density, kg/m3 (Liquid); method: VIBTUB:UFactor:6
Temperature, K	Pressure, kPa	Mass density, kg/m3	uncertainty
298.15	101.325	873.21	0.83

System: 1,6-dichlorohexane; phases: Liquid
Property: Mass density, kg/m3 (Liquid); method: VIBTUB:UFactor:12
Temperature, K	Pressure, kPa	Mass density, kg/m3	uncertainty
298.15	101.325	1063.7	2.05

System: 1-chlorobutane + N-methylpyrrolidone; phases: Liquid
Fixed: Pressure, kPa = 101
Property: Excess molar enthalpy (molar enthalpy of mixing), kJ/mol (Liquid); method: Flow calorimetry
Temperature, K	Mole fraction of N-methylpyrrolidone	Excess molar enthalpy (molar enthalpy of mixing), kJ/mol	uncertainty
298.15	0.063	0.019	0.004
298.15	0.113	0.041	0.004
298.15	0.213	0.081	0.004
298.15	0.312	0.113	0.004
298.15	0.411	0.137	0.004
298.15	0.51	0.152	0.004
298.15	0.608	0.155	0.004
298.15	0.706	0.145	0.004
298.15	0.804	0.119	0.004
298.15	0.901	0.07	0.004
298.15	0.949	0.038	0.004
308.15	0.06	0.034	0.004
308.15	0.11	0.064	0.004
308.15	0.208	0.115	0.004
308.15	0.307	0.152	0.004
308.15	0.406	0.176	0.005
308.15	0.504	0.191	0.005
308.15	0.603	0.191	0.005
308.15	0.701	0.176	0.005
308.15	0.799	0.142	0.004
308.15	0.897	0.083	0.004
308.15	0.946	0.046	0.004
308.15	0.965	0.025	0.005

System: 1-chlorobutane + N-methylpyrrolidone; phases: Liquid, Gas
Property: Vapor or sublimation pressure, kPa (Liquid); method: EBULLIO:UFactor:4
Temperature, K	Mole fraction of N-methylpyrrolidone	Vapor or sublimation pressure, kPa	uncertainty
313.15	0.6171	12.445	0.348
313.15	0.6762	11.319	0.331
313.15	0.7491	9.445	0.302
313.15	0.7928	8.248	0.283
313.15	0.8353	6.859	0.262
323.15	0.6774	17.079	0.421
323.15	0.7928	12.076	0.343
323.15	0.8354	9.82	0.308
323.15	0.8698	7.783	0.277

System: 1-chlorobutane + N-methylpyrrolidone; phases: Gas, Liquid
Property: Vapor or sublimation pressure, kPa (Gas); method: EBULLIO:UFactor:4
Mole fraction of N-methylpyrrolidone	Temperature, K	Vapor or sublimation pressure, kPa	uncertainty
0.1063	313.15	23.271	0.517
0.1072	323.15	34.85	0.696
0.2073	313.15	21.309	0.486
0.2073	323.15	31.93	0.651
0.3345	323.15	27.812	0.587
0.3346	313.15	18.423	0.441
0.4554	313.15	15.601	0.397
0.4556	323.15	24.132	0.53
0.5604	313.15	13.588	0.366
0.5628	323.15	20.906	0.48
0.6171	323.15	19.184	0.453

System: 1-chlorobutane + N-methylpyrrolidone; phases: Gas, Liquid
Property: Mole fraction of N-methylpyrrolidone (Gas); method: Density calibration data
Mole fraction of N-methylpyrrolidone	Temperature, K	Mole fraction of N-methylpyrrolidone	uncertainty
0.1063	313.15	0.0055	0.004
0.1072	323.15	0.0054	0.004
0.2073	313.15	0.0058	0.004
0.2073	323.15	0.0058	0.004
0.3345	323.15	0.007	0.004
0.3346	313.15	0.0098	0.004
0.4554	313.15	0.0129	0.004
0.4556	323.15	0.0128	0.004
0.5604	313.15	0.0173	0.004
0.5628	323.15	0.0152	0.004
0.6171	323.15	0.0198	0.004

System: 1-chlorohexane + N-methylpyrrolidone; phases: Liquid
Fixed: Pressure, kPa = 101
Property: Excess molar enthalpy (molar enthalpy of mixing), kJ/mol (Liquid); method: Flow calorimetry
Temperature, K	Mole fraction of N-methylpyrrolidone	Excess molar enthalpy (molar enthalpy of mixing), kJ/mol	uncertainty
298.15	0.064	0.053	0.005
298.15	0.113	0.12	0.005
298.15	0.21	0.232	0.005
298.15	0.308	0.324	0.005
298.15	0.406	0.382	0.005
298.15	0.503	0.416	0.005
298.15	0.601	0.419	0.005
298.15	0.699	0.389	0.005
298.15	0.797	0.319	0.005
298.15	0.895	0.195	0.005
298.15	0.944	0.111	0.006
308.15	0.062	0.069	0.005
308.15	0.111	0.146	0.005
308.15	0.208	0.273	0.005
308.15	0.306	0.373	0.006
308.15	0.404	0.437	0.006
308.15	0.502	0.469	0.006
308.15	0.601	0.469	0.006
308.15	0.699	0.433	0.006
308.15	0.798	0.352	0.006
308.15	0.897	0.212	0.006
308.15	0.947	0.113	0.006
308.15	0.967	0.073	0.006

System: 1-chlorohexane + N-methylpyrrolidone; phases: Liquid, Gas
Property: Vapor or sublimation pressure, kPa (Liquid); method: EBULLIO:UFactor:4
Temperature, K	Mole fraction of N-methylpyrrolidone	Vapor or sublimation pressure, kPa	uncertainty
313.15	0.2464	2.476	0.193
313.15	0.3133	2.361	0.192
313.15	0.443	2.082	0.187
313.15	0.5511	1.834	0.183
313.15	0.6153	1.688	0.181
323.15	0.2463	4.105	0.219
323.15	0.3138	3.863	0.215
323.15	0.4432	3.476	0.209
323.15	0.5499	3.168	0.204
323.15	0.6153	2.949	0.201
323.15	0.6945	2.611	0.195
323.15	0.745	2.361	0.192
323.15	0.7704	2.172	0.189
323.15	0.826	1.934	0.185
323.15	0.8731	1.703	0.181
323.15	0.9358	1.474	0.178
333.15	0.2467	6.608	0.258
333.15	0.3144	6.328	0.253
333.15	0.443	5.607	0.242
333.15	0.5497	5.111	0.234
333.15	0.6153	4.727	0.228
333.15	0.6944	4.244	0.221
333.15	0.7445	3.877	0.215
333.15	0.7702	3.701	0.212
333.15	0.8262	3.366	0.207
333.15	0.8729	3.047	0.202
333.15	0.9359	2.375	0.192

System: 1-chlorooctane + N-methylpyrrolidone; phases: Liquid
Fixed: Pressure, kPa = 101
Property: Excess molar enthalpy (molar enthalpy of mixing), kJ/mol (Liquid); method: Flow calorimetry
Temperature, K	Mole fraction of N-methylpyrrolidone	Excess molar enthalpy (molar enthalpy of mixing), kJ/mol	uncertainty
298.15	0.073	0.096	0.006
298.15	0.121	0.198	0.006
298.15	0.217	0.371	0.006
298.15	0.314	0.502	0.006
298.15	0.411	0.591	0.006
298.15	0.507	0.638	0.007
298.15	0.604	0.644	0.007
298.15	0.701	0.6	0.007
298.15	0.798	0.5	0.007
298.15	0.895	0.318	0.007
298.15	0.943	0.177	0.007
308.15	0.068	0.112	0.006
308.15	0.116	0.223	0.006
308.15	0.213	0.41	0.006
308.15	0.309	0.551	0.007
308.15	0.406	0.649	0.007
308.15	0.504	0.699	0.007
308.15	0.602	0.702	0.007
308.15	0.7	0.654	0.007
308.15	0.799	0.54	0.007
308.15	0.898	0.339	0.007
308.15	0.948	0.188	0.008
308.15	0.968	0.11	0.009

System: 1,2-dichloroethane + N-methylpyrrolidone; phases: Liquid
Fixed: Pressure, kPa = 101
Property: Excess molar enthalpy (molar enthalpy of mixing), kJ/mol (Liquid); method: Flow calorimetry
Temperature, K	Mole fraction of N-methylpyrrolidone	Excess molar enthalpy (molar enthalpy of mixing), kJ/mol	uncertainty
298.15	0.057	-0.228	0.011
298.15	0.105	-0.466	0.01
298.15	0.203	-0.827	0.01
298.15	0.301	-1.098	0.01
298.15	0.4	-1.234	0.01
298.15	0.5	-1.264	0.011
298.15	0.601	-1.182	0.01
298.15	0.702	-0.994	0.01
298.15	0.805	-0.732	0.009
298.15	0.909	-0.391	0.009
298.15	0.961	-0.181	0.009
308.15	0.058	-0.242	0.011
308.15	0.107	-0.474	0.01
308.15	0.207	-0.844	0.01
308.15	0.307	-1.113	0.01
308.15	0.407	-1.249	0.011
308.15	0.507	-1.273	0.011
308.15	0.607	-1.187	0.01
308.15	0.708	-0.994	0.01
308.15	0.808	-0.73	0.009
308.15	0.909	-0.388	0.009
308.15	0.95	-0.219	0.009
308.15	0.97	-0.144	0.009

System: 1,2-dichloroethane + N-methylpyrrolidone; phases: Liquid, Gas
Property: Vapor or sublimation pressure, kPa (Liquid); method: EBULLIO:UFactor:4
Mole fraction of N-methylpyrrolidone	Temperature, K	Vapor or sublimation pressure, kPa	uncertainty
0.1227	323.15	27.604	0.584
0.1228	313.15	17.9	0.433
0.1878	313.15	16.393	0.41
0.1878	323.15	25.087	0.545
0.2455	323.15	22.73	0.508
0.2457	313.15	14.774	0.385
0.2986	313.15	13.068	0.358
0.2987	323.15	20.127	0.468
0.3639	323.15	17.473	0.427
0.4242	323.15	15.194	0.391

System: 1,2-dichloroethane + N-methylpyrrolidone; phases: Liquid, Gas
Property: Vapor or sublimation pressure, kPa (Liquid); method: EBULLIO:UFactor:4
Temperature, K	Mole fraction of N-methylpyrrolidone	Vapor or sublimation pressure, kPa	uncertainty
313.15	0.3639	11.527	0.334
313.15	0.4234	9.981	0.31
313.15	0.4714	8.692	0.29
313.15	0.5202	7.395	0.27
313.15	0.5611	6.301	0.253
313.15	0.611	5.331	0.238
313.15	0.6541	4.49	0.225
323.15	0.4725	13.296	0.362
323.15	0.5202	11.401	0.332
323.15	0.561	10.32	0.315
323.15	0.611	8.85	0.293
323.15	0.6543	7.664	0.274
323.15	0.8243	2.895	0.2

System: 1,2-dichloroethane + N-methylpyrrolidone; phases: Gas, Liquid
Property: Mole fraction of N-methylpyrrolidone (Gas); method: Density calibration data
Mole fraction of N-methylpyrrolidone	Temperature, K	Mole fraction of N-methylpyrrolidone	uncertainty
0.1227	323.15	0.0035	0.0035
0.1228	313.15	0.004	0.004
0.1878	313.15	0.0044	0.004
0.1878	323.15	0.0041	0.004
0.2455	323.15	0.0048	0.004
0.2457	313.15	0.0055	0.004
0.2986	313.15	0.0058	0.004
0.2987	323.15	0.0087	0.004
0.3639	323.15	0.0093	0.004
0.4242	323.15	0.0101	0.004

System: 1,4-dichlorobutane + N-methylpyrrolidone; phases: Liquid
Fixed: Pressure, kPa = 101
Property: Excess molar enthalpy (molar enthalpy of mixing), kJ/mol (Liquid); method: Flow calorimetry
Temperature, K	Mole fraction of N-methylpyrrolidone	Excess molar enthalpy (molar enthalpy of mixing), kJ/mol	uncertainty
298.15	0.064	-0.126	0.006
298.15	0.113	-0.224	0.006
298.15	0.21	-0.406	0.006
298.15	0.308	-0.548	0.007
298.15	0.406	-0.638	0.007
298.15	0.505	-0.678	0.007
298.15	0.604	-0.663	0.007
298.15	0.703	-0.583	0.007
298.15	0.803	-0.449	0.007
298.15	0.903	-0.253	0.006
298.15	0.954	-0.134	0.006
308.15	0.06	-0.117	0.006
308.15	0.109	-0.219	0.006
308.15	0.207	-0.394	0.006
308.15	0.305	-0.525	0.006
308.15	0.403	-0.615	0.007
308.15	0.501	-0.653	0.007
308.15	0.599	-0.636	0.007
308.15	0.698	-0.563	0.007
308.15	0.797	-0.431	0.006
308.15	0.895	-0.245	0.006
308.15	0.945	-0.123	0.006
308.15	0.964	-0.079	0.006

System: N-methylpyrrolidone + 1,6-dichlorohexane; phases: Liquid
Fixed: Pressure, kPa = 101
Property: Excess molar enthalpy (molar enthalpy of mixing), kJ/mol (Liquid); method: Flow calorimetry
Temperature, K	Mole fraction of N-methylpyrrolidone	Excess molar enthalpy (molar enthalpy of mixing), kJ/mol	uncertainty
298.15	0.068	-0.045	0.004
298.15	0.116	-0.08	0.004
298.15	0.212	-0.13	0.004
298.15	0.309	-0.169	0.005
298.15	0.405	-0.191	0.005
298.15	0.503	-0.2	0.005
298.15	0.6	-0.191	0.005
298.15	0.699	-0.165	0.005
298.15	0.797	-0.123	0.004
298.15	0.896	-0.065	0.004
298.15	0.946	-0.032	0.004
308.15	0.041	-0.023	0.004
308.15	0.06	-0.033	0.004
308.15	0.109	-0.062	0.004
308.15	0.207	-0.102	0.004
308.15	0.305	-0.136	0.004
308.15	0.403	-0.155	0.004
308.15	0.502	-0.162	0.004
308.15	0.6	-0.152	0.004
308.15	0.699	-0.134	0.004
308.15	0.799	-0.101	0.004
308.15	0.898	-0.053	0.004
308.15	0.948	-0.025	0.004
308.15	0.968	-0.014	0.004
