Measured thermophysical data. Solubility of Li2CO3 in Na-K-Li-Cl brines from 20 to 90  C
Source: J. Chem. Thermodyn., 2013, 10.1016/j.jct.2013.07.024
Compound 1: lithium carbonate, CLi2O3, InChI=1S/CH2O3.2Li/c2-1(3)4;;/h(H2,2,3,4);;/q;2*+1/p-2
Compound 2: sodium chloride, ClNa, InChI=1S/ClH.Na/h1H;/q;+1/p-1
Compound 3: potassium chloride, ClK, InChI=1S/ClH.K/h1H;/q;+1/p-1
Compound 4: lithium chloride, ClLi, InChI=1S/ClH.Li/h1H;/q;+1/p-1
Compound 5: water, H2O, InChI=1S/H2O/h1H2

System: lithium carbonate + water; phases: Liquid, Crystal
Fixed: Pressure, kPa = 101
Property: Molality, mol/kg of lithium carbonate (Liquid); method: TOC (total organic carbon) analysis
Temperature, K	Molality, mol/kg of lithium carbonate	uncertainty
293.15	0.18041	0.00363
298.15	0.17353	0.00349
303.15	0.16893	0.0034
313.15	0.15648	0.00315
323.15	0.14819	0.00298
333.15	0.13706	0.00276
343.15	0.12596	0.00253
353.15	0.11542	0.00232
363.15	0.10622	0.00214

System: lithium carbonate + sodium chloride + water; phases: Liquid, Crystal
Fixed: Pressure, kPa = 101
Property: Molality, mol/kg of lithium carbonate (Liquid); method: TOC (total organic carbon) analysis
Temperature, K	Molality, mol/kg of sodium chloride	Molality, mol/kg of lithium carbonate	uncertainty
298.15	0.1005	0.18782	0.00378
298.15	0.3025	0.19342	0.00389
298.15	0.5061	0.20643	0.00415
298.15	0.7113	0.20518	0.00413
298.15	0.9181	0.20704	0.00416
298.15	1.0221	0.21017	0.00423
298.15	1.3368	0.21005	0.00422
298.15	1.5489	0.20693	0.00416
298.15	1.7627	0.21154	0.00425
298.15	2.087	0.21155	0.00425
298.15	2.6372	0.19996	0.00402
298.15	3.2001	0.19102	0.00384
303.15	0.1006	0.1751	0.00352
303.15	0.303	0.18528	0.00373
303.15	0.507	0.19091	0.00384
303.15	0.7126	0.19217	0.00387
303.15	0.9198	0.19567	0.00394
303.15	1.0241	0.19835	0.00399
303.15	1.3397	0.19857	0.00399
303.15	1.5524	0.20121	0.00405
303.15	1.767	0.1984	0.00399
303.15	2.0925	0.19961	0.00401
303.15	2.6451	0.19489	0.00392
303.15	3.211	0.18832	0.00379
313.15	0.101	0.17036	0.00343
313.15	0.3041	0.18368	0.00369
313.15	0.5089	0.18687	0.00376
313.15	0.7154	0.18134	0.00365
313.15	0.9237	0.18603	0.00374
313.15	1.0286	0.19172	0.00386
313.15	1.3459	0.1882	0.00379
313.15	1.56	0.18936	0.00381
313.15	1.776	0.18818	0.00378
313.15	2.104	0.17976	0.00362
313.15	2.6613	0.17418	0.0035
313.15	3.2328	0.17105	0.00344
323.15	0.1014	0.15159	0.00305
323.15	0.3054	0.16653	0.00335
323.15	0.5111	0.17068	0.00343
323.15	0.7187	0.17185	0.00346
323.15	0.9281	0.17991	0.00362
323.15	1.0335	0.17622	0.00354
323.15	1.3527	0.17472	0.00351
323.15	1.5681	0.1759	0.00354
323.15	1.7856	0.17215	0.00346
323.15	2.1159	0.16922	0.0034
323.15	2.6778	0.16412	0.0033
323.15	3.2546	0.15938	0.00321
333.15	0.1019	0.13962	0.00281
333.15	0.3069	0.14638	0.00294
333.15	0.5137	0.15398	0.0031
333.15	0.7223	0.15944	0.00321
333.15	0.9328	0.16162	0.00325
333.15	1.0389	0.16416	0.0033
333.15	1.36	0.16854	0.00339
333.15	1.5768	0.16883	0.0034
333.15	1.7957	0.1682	0.00338
333.15	2.1284	0.16379	0.00329
333.15	2.6946	0.15558	0.00313
333.15	3.2765	0.15434	0.0031
343.15	0.1024	0.131	0.00263
343.15	0.3086	0.1439	0.00289
343.15	0.5165	0.15127	0.00304
343.15	0.7263	0.15343	0.00309
343.15	0.9381	0.15743	0.00317
343.15	1.0448	0.15953	0.00321
343.15	1.3679	0.15933	0.0032
343.15	1.586	0.15837	0.00319
343.15	1.8064	0.1565	0.00315
343.15	2.1414	0.15553	0.00313
343.15	2.7118	0.14977	0.00301
343.15	3.2983	0.14485	0.00291

System: lithium carbonate + sodium chloride + water; phases: Liquid
Fixed: Pressure, kPa = 101
Property: Mass density, kg/m3 (Liquid); method: Vibrating tube method
Temperature, K	Molality, mol/kg of sodium chloride	Molality, mol/kg of lithium carbonate	Mass density, kg/m3	uncertainty
298.15	0.1005	0.18782	1019.3	4
298.15	0.3025	0.19342	1020.9	4
298.15	0.5061	0.20643	1029.6	4
298.15	0.7113	0.20518	1037	4
298.15	0.9181	0.20704	1052.6	4
298.15	1.0221	0.21017	1048.2	4
298.15	1.3368	0.21005	1060.6	4
298.15	1.5489	0.20693	1066.9	4
298.15	1.7627	0.21154	1083.2	4
298.15	2.087	0.21155	1085.9	4
298.15	2.6372	0.19996	1104	4
298.15	3.2001	0.19102	1121.2	4
303.15	0.1006	0.1751	1017.2	4
303.15	0.303	0.18528	1018.3	4
303.15	0.507	0.19091	1027	4
303.15	0.7126	0.19217	1035.3	4
303.15	0.9198	0.19567	1050.6	4
303.15	1.0241	0.19835	1046.6	4
303.15	1.3397	0.19857	1057.9	4
303.15	1.5524	0.20121	1065.3	4
303.15	1.767	0.1984	1080	4
303.15	2.0925	0.19961	1083.2	4
303.15	2.6451	0.19489	1100.8	4
303.15	3.211	0.18832	1118.4	4
313.15	0.101	0.17036	1013.3	4
313.15	0.3041	0.18368	1014.9	4
313.15	0.5089	0.18687	1023.4	4
313.15	0.7154	0.18134	1031	4
313.15	0.9237	0.18603	1045.8	4
313.15	1.0286	0.19172	1041.9	4
313.15	1.3459	0.1882	1053.8	4
313.15	1.56	0.18936	1060.9	4
313.15	1.776	0.18818	1075.9	4
313.15	2.104	0.17976	1078.4	4
313.15	2.6613	0.17418	1096.4	4
313.15	3.2328	0.17105	1113.7	4
323.15	0.1014	0.15159	1009.2	4
323.15	0.3054	0.16653	1009.9	4
323.15	0.5111	0.17068	1018.5	4
323.15	0.7187	0.17185	1026	4
323.15	0.9281	0.17991	1039.6	4
323.15	1.0335	0.17622	1034.8	4
323.15	1.3527	0.17472	1047	4
323.15	1.5681	0.1759	1053.7	4
323.15	1.7856	0.17215	1070	4
323.15	2.1159	0.16922	1073.2	4
323.15	2.6778	0.16412	1091.2	4
323.15	3.2546	0.15938	1108	4
333.15	0.1019	0.13962	1004.4	4
333.15	0.3069	0.14638	1005.6	4
333.15	0.5137	0.15398	1014.4	4
333.15	0.7223	0.15944	1021.8	4
333.15	0.9328	0.16162	1037.2	4
333.15	1.0389	0.16416	1033.1	4
333.15	1.36	0.16854	1044.2	4
333.15	1.5768	0.16883	1052.7	4
333.15	1.7957	0.1682	1065.9	4
333.15	2.1284	0.16379	1068	4
333.15	2.6946	0.15558	1086.1	4
333.15	3.2765	0.15434	1113.5	4
343.15	0.1024	0.131	1000.1	4
343.15	0.3086	0.1439	1000.8	4
343.15	0.5165	0.15127	1009	4
343.15	0.7263	0.15343	1016.4	4
343.15	0.9381	0.15743	1032	4
343.15	1.0448	0.15953	1027.2	4
343.15	1.3679	0.15933	1039.6	4
343.15	1.586	0.15837	1046.4	4
343.15	1.8064	0.1565	1059.2	4
343.15	2.1414	0.15553	1061	4
343.15	2.7118	0.14977	1079.4	4
343.15	3.2983	0.14485	1107.4	4

System: lithium carbonate + potassium chloride + water; phases: Liquid, Crystal
Fixed: Pressure, kPa = 101
Property: Molality, mol/kg of lithium carbonate (Liquid); method: TOC (total organic carbon) analysis
Temperature, K	Molality, mol/kg of potassium chloride	Molality, mol/kg of lithium carbonate	uncertainty
298.15	0.5085	0.18745	0.00377
298.15	1.0315	0.18872	0.0038
298.15	1.5699	0.18741	0.00377
298.15	2.1244	0.1786	0.00359
298.15	2.6959	0.17114	0.00344
298.15	3.2853	0.16966	0.00341
298.15	3.8935	0.15953	0.00321
298.15	4.5215	0.15387	0.00309
323.15	0.5134	0.1615	0.00325
323.15	1.0423	0.16323	0.00328
323.15	1.5876	0.16154	0.00325
323.15	2.1505	0.15435	0.0031
323.15	2.7318	0.15093	0.00304
323.15	3.3328	0.1511	0.00304
323.15	3.9545	0.14361	0.00289
323.15	4.5983	0.13454	0.00271
343.15	0.5187	0.14457	0.00291
343.15	1.0534	0.14176	0.00285
343.15	1.605	0.14338	0.00288
343.15	2.1748	0.1405	0.00283
343.15	2.7638	0.14133	0.00284
343.15	3.3733	0.13303	0.00268
343.15	4.0047	0.12871	0.00259
343.15	4.6592	0.11595	0.00233

System: lithium carbonate + potassium chloride + water; phases: Liquid
Fixed: Pressure, kPa = 101
Property: Mass density, kg/m3 (Liquid); method: Vibrating tube method
Temperature, K	Molality, mol/kg of potassium chloride	Molality, mol/kg of lithium carbonate	Mass density, kg/m3	uncertainty
298.15	0.5085	0.18745	1042.9	4
298.15	1.0315	0.18872	1064.6	4
298.15	1.5699	0.18741	1075.9	4
298.15	2.1244	0.1786	1106.2	4
298.15	2.6959	0.17114	1128.4	4
298.15	3.2853	0.16966	1148	4
298.15	3.8935	0.15953	1156.8	4
298.15	4.5215	0.15387	1188.4	4
323.15	0.5134	0.1615	1031.2	4
323.15	1.0423	0.16323	1052.7	4
323.15	1.5876	0.16154	1063.5	4
323.15	2.1505	0.15435	1094.1	4
323.15	2.7318	0.15093	1116.4	4
323.15	3.3328	0.1511	1135.2	4
323.15	3.9545	0.14361	1144.5	4
323.15	4.5983	0.13454	1176.4	4
343.15	0.5187	0.14457	1020.3	4
343.15	1.0534	0.14176	1041.4	4
343.15	1.605	0.14338	1052.1	4
343.15	2.1748	0.1405	1082.6	4
343.15	2.7638	0.14133	1105.7	4
343.15	3.3733	0.13303	1122.1	4
343.15	4.0047	0.12871	1133.9	4
343.15	4.6592	0.11595	1166.6	4

System: lithium carbonate + lithium chloride + water; phases: Liquid, Crystal
Fixed: Pressure, kPa = 101
Property: Molality, mol/kg of lithium carbonate (Liquid); method: TOC (total organic carbon) analysis
Temperature, K	Molality, mol/kg of lithium chloride	Molality, mol/kg of lithium carbonate	uncertainty
298.15	0.506	0.06842	0.00138
298.15	1.0214	0.03279	0.00066
298.15	1.5468	0.01864	0.00038
298.15	2.0826	0.01404	0.00028
298.15	2.6294	0.00979	0.0002
298.15	3.1877	0.00691	0.00016
298.15	3.758	0.00357	0.00016
298.15	4.3408	0.00339	0.00016
323.15	0.5106	0.04517	0.00091
323.15	1.031	0.02432	0.00049
323.15	1.5619	0.01448	0.00029
323.15	2.1038	0.01115	0.00022
323.15	2.6574	0.00521	0.00016
323.15	3.2233	0.00383	0.00016
323.15	3.8022	0.00427	0.00016
323.15	4.3947	0.00301	0.00016
343.15	0.5158	0.03562	0.00072
343.15	1.0412	0.01713	0.00034
343.15	1.5771	0.01112	0.00022
343.15	2.124	0.00896	0.00018
343.15	2.6828	0.00675	0.00016
343.15	3.254	0.00519	0.00016
343.15	3.8384	0.00263	0.00016
343.15	4.4368	0.00317	0.00016

System: lithium carbonate + lithium chloride + water; phases: Liquid
Fixed: Pressure, kPa = 101
Property: Mass density, kg/m3 (Liquid); method: Vibrating tube method
Temperature, K	Molality, mol/kg of lithium chloride	Molality, mol/kg of lithium carbonate	Mass density, kg/m3	uncertainty
298.15	0.506	0.06842	1022.2	4
298.15	1.0214	0.03279	1031.6	4
298.15	1.5468	0.01864	1031.6	4
298.15	2.0826	0.01404	1052.6	4
298.15	2.6294	0.00979	1064.8	4
298.15	3.1877	0.00691	1074.8	4
298.15	3.758	0.00357	1074	4
298.15	4.3408	0.00339	1095.4	4
323.15	0.5106	0.04517	1012.8	4
323.15	1.031	0.02432	1023	4
323.15	1.5619	0.01448	1025	4
323.15	2.1038	0.01115	1045.2	4
323.15	2.6574	0.00521	1055.6	4
323.15	3.2233	0.00383	1065.7	4
323.15	3.8022	0.00427	1066.1	4
323.15	4.3947	0.00301	1086.3	4
343.15	0.5158	0.03562	1003.2	4
343.15	1.0412	0.01713	1012.5	4
343.15	1.5771	0.01112	1014.8	4
343.15	2.124	0.00896	1035.4	4
343.15	2.6828	0.00675	1047.9	4
343.15	3.254	0.00519	1058.4	4
343.15	3.8384	0.00263	1059.1	4
343.15	4.4368	0.00317	1080.2	4
