Measured thermophysical data. Solubility of diosgenin in different solvents
Source: J. Chem. Thermodyn., 2012, 10.1016/j.jct.2011.11.009
Compound 1: ethanol, C2H6O, InChI=1S/C2H6O/c1-2-3/h3H,2H2,1H3, purity 95%
Compound 2: Diosgenin, C27H42O3, InChI=1S/C27H42O3/c1-16-7-12-27(29-15-16)17(2)24-23(30-27)14-22-20-6-5-18-13-19(28)8-10-25(18,3)21(20)9-11-26(22,24)4/h5,16-17,19-24,28H,6-15H2,1-4H3/t16-,17+,19+,20-,21+,22+,23+,24+,25+,26+,27-/m1/s1, purity 99.5%
Compound 3: methanol, CH4O, InChI=1S/CH4O/c1-2/h2H,1H3, purity 99%
Compound 4: acetone, C3H6O, InChI=1S/C3H6O/c1-3(2)4/h1-2H3, purity 99%
Compound 5: ethyl acetate, C4H8O2, InChI=1S/C4H8O2/c1-3-6-4(2)5/h3H2,1-2H3, purity 99%
Compound 6: propyl ethanoate, C5H10O2, InChI=1S/C5H10O2/c1-3-4-7-5(2)6/h3-4H2,1-2H3, purity 99%
Compound 7: propan-2-ol, C3H8O, InChI=1S/C3H8O/c1-3(2)4/h3-4H,1-2H3, purity 99%

System: methanol + Diosgenin; phases: Liquid, Crystal
Fixed: Pressure, kPa = 101.3
Property: Mole fraction of Diosgenin (Liquid); method: Synthetic
Temperature, K	Mole fraction of Diosgenin	uncertainty
291.15	0.0001866	6.8e-06
298.15	0.0002566	8.6e-06
300.15	0.0003254	1.01e-05
308.15	0.0004013	1.23e-05
312.65	0.0004693	1.45e-05
315.15	0.0005099	1.57e-05
317.65	0.0005557	1.72e-05
319.65	0.0006002	1.85e-05
322.15	0.0006432	1.99e-05
323.65	0.000694	2.16e-05
325.65	0.0007432	2.31e-05
327.15	0.0007948	2.53e-05
328.15	0.0008471	2.8e-05
329.15	0.0009096	2.85e-05
331.65	0.0009936	3.07e-05

System: ethanol + Diosgenin; phases: Liquid, Crystal
Fixed: Pressure, kPa = 101.3
Property: Mole fraction of Diosgenin (Liquid); method: Synthetic
Temperature, K	Mole fraction of Diosgenin	uncertainty
299.15	0.0013298	2.84e-05
303.15	0.0014409	3.07e-05
306.15	0.0015272	3.26e-05
308.65	0.001608	3.42e-05
311.65	0.0016923	3.59e-05
313.65	0.0017478	3.73e-05
315.65	0.0018356	3.98e-05
317.15	0.0019255	4.14e-05
319.15	0.0019976	4.28e-05
320.65	0.0020793	4.44e-05
322.65	0.0021484	4.59e-05
324.15	0.0022372	4.8e-05
326.15	0.0023269	4.98e-05
327.65	0.0024146	5.23e-05
328.65	0.0024902	5.49e-05
329.65	0.0025849	5.73e-05
330.65	0.0026776	5.87e-05
331.65	0.0027557	5.99e-05
332.65	0.0028368	6.17e-05

System: propan-2-ol + Diosgenin; phases: Liquid, Crystal
Fixed: Pressure, kPa = 101.3
Property: Mole fraction of Diosgenin (Liquid); method: Synthetic
Temperature, K	Mole fraction of Diosgenin	uncertainty
293.15	0.0008353	1.56e-05
296.65	0.0009747	1.73e-05
300.65	0.0011088	1.94e-05
303.15	0.001226	2.26e-05
304.65	0.0013364	2.51e-05
306.65	0.0014536	2.61e-05
308.65	0.0015692	2.69e-05
311.15	0.00167	2.77e-05
314.65	0.0017841	2.98e-05
317.15	0.0019187	3.27e-05
319.15	0.0020269	3.47e-05
321.15	0.00216	3.6e-05
324.65	0.0022997	3.82e-05
326.15	0.0024129	4.09e-05
328.15	0.0025312	4.26e-05
330.15	0.0026657	4.53e-05
332.15	0.0028236	4.81e-05

System: acetone + Diosgenin; phases: Liquid, Crystal
Fixed: Pressure, kPa = 101.3
Property: Mole fraction of Diosgenin (Liquid); method: Synthetic
Temperature, K	Mole fraction of Diosgenin	uncertainty
295.15	0.0009036	1.66e-05
302.15	0.0011534	2.06e-05
304.65	0.0012712	2.27e-05
308.15	0.0014024	2.46e-05
310.15	0.0014903	2.65e-05
312.15	0.0015895	2.9e-05
313.65	0.0017008	3.16e-05
315.65	0.0018368	3.33e-05
317.15	0.0019353	3.41e-05
319.15	0.0020351	3.58e-05
321.15	0.0021668	3.9e-05
322.65	0.0022978	4.1e-05
324.65	0.0024287	4.25e-05
326.65	0.0025603	4.54e-05
327.65	0.00267	4.79e-05
329.15	0.0027881	5.05e-05
330.15	0.0029245	5.1e-05
332.15	0.0030298	5.15e-05

System: ethyl acetate + Diosgenin; phases: Liquid, Crystal
Fixed: Pressure, kPa = 101.3
Property: Mole fraction of Diosgenin (Liquid); method: Synthetic
Temperature, K	Mole fraction of Diosgenin	uncertainty
300.65	0.002402	3.57e-05
302.15	0.0025829	3.99e-05
303.15	0.0027582	5.5e-05
303.65	0.0029409	5e-05
305.15	0.0031657	4.27e-05
307.15	0.0033782	4.45e-05
308.65	0.0036009	4.71e-05
310.65	0.0038301	5.01e-05
311.65	0.0040218	5.13e-05
313.65	0.004233	5.15e-05
315.65	0.0044665	5.64e-05
316.65	0.0046608	6.25e-05
318.15	0.0049156	6.29e-05
320.15	0.0052271	6.52e-05
321.65	0.0054528	6.99e-05
323.15	0.0057659	7.39e-05
324.65	0.006021	7.24e-05
326.65	0.0062798	7.57e-05
327.65	0.0064975	8.13e-05
328.95	0.0067263	8.2e-05

System: propyl ethanoate + Diosgenin; phases: Liquid, Crystal
Fixed: Pressure, kPa = 101.3
Property: Mole fraction of Diosgenin (Liquid); method: Synthetic
Temperature, K	Mole fraction of Diosgenin	uncertainty
296.15	0.0020975	3.31e-05
300.15	0.002627	3.14e-05
306.65	0.0031255	4.44e-05
307.15	0.0032082	4.49e-05
310.15	0.0035583	3.99e-05
314.65	0.0040157	4.44e-05
317.65	0.0044228	5.01e-05
319.65	0.0047026	5.04e-05
322.15	0.0049531	5.52e-05
323.65	0.005302	5.94e-05
325.15	0.0054287	5.76e-05
327.15	0.005747	6.83e-05
328.65	0.0061581	7.17e-05
329.15	0.0061213	5.99e-05
