Measured thermophysical data. (Vapor + liquid) equilibria of binary mixtures formed by iso-octane with a variety of compounds at 95.8 kPa
Source: J. Chem. Thermodyn., 2006, 10.1016/j.jct.2005.04.006
Compound 1: 2,2,4-trimethylpentane, C8H18, InChI=1S/C8H18/c1-7(2)6-8(3,4)5/h7H,6H2,1-5H3
Compound 2: ethanol, C2H6O, InChI=1S/C2H6O/c1-2-3/h3H,2H2,1H3
Compound 3: 2-methylpropan-2-ol, C4H10O, InChI=1S/C4H10O/c1-4(2,3)5/h5H,1-3H3
Compound 4: 1,3-dimethylbenzene, C8H10, InChI=1S/C8H10/c1-7-4-3-5-8(2)6-7/h3-6H,1-2H3
Compound 5: 1,4-dimethylbenzene, C8H10, InChI=1S/C8H10/c1-7-3-5-8(2)6-4-7/h3-6H,1-2H3
Compound 6: hexane, C6H14, InChI=1S/C6H14/c1-3-5-6-4-2/h3-6H2,1-2H3
Compound 7: chlorobenzene, C6H5Cl, InChI=1S/C6H5Cl/c7-6-4-2-1-3-5-6/h1-5H

System: 2,2,4-trimethylpentane; phases: Liquid
Property: Refractive index (Na D-line) (Liquid); method: ABBE:UFactor:4
Temperature, K	Pressure, kPa	Refractive index (Na D-line)	uncertainty
298.15	101.325	1.3889	0.0016

System: 2,2,4-trimethylpentane; phases: Liquid
Property: Mass density, kg/m3 (Liquid); method: PYCNOM:UFactor:8
Temperature, K	Pressure, kPa	Mass density, kg/m3	uncertainty
298.15	101.325	687.8	1.53

System: 2,2,4-trimethylpentane; phases: Liquid, Gas
Property: Vapor or sublimation pressure, kPa (Liquid); method: EBULLIO:UFactor:32
Temperature, K	Vapor or sublimation pressure, kPa	uncertainty
370.55	95.8	5

System: ethanol; phases: Liquid
Property: Refractive index (Na D-line) (Liquid); method: ABBE:UFactor:4
Temperature, K	Pressure, kPa	Refractive index (Na D-line)	uncertainty
298.15	101.325	1.3594	0.0016

System: ethanol; phases: Liquid
Property: Mass density, kg/m3 (Liquid); method: PYCNOM:UFactor:8
Temperature, K	Pressure, kPa	Mass density, kg/m3	uncertainty
298.15	101.325	784.9	1.84

System: ethanol; phases: Liquid, Gas
Property: Vapor or sublimation pressure, kPa (Liquid); method: EBULLIO:UFactor:32
Temperature, K	Vapor or sublimation pressure, kPa	uncertainty
350.05	95.8	5

System: 2-methylpropan-2-ol; phases: Liquid
Property: Refractive index (Na D-line) (Liquid); method: ABBE:UFactor:4
Temperature, K	Pressure, kPa	Refractive index (Na D-line)	uncertainty
298.15	101.325	1.3852	0.0016

System: 2-methylpropan-2-ol; phases: Liquid
Property: Mass density, kg/m3 (Liquid); method: PYCNOM:UFactor:8
Temperature, K	Pressure, kPa	Mass density, kg/m3	uncertainty
298.15	101.325	781.2	1.83

System: 2-methylpropan-2-ol; phases: Liquid, Gas
Property: Vapor or sublimation pressure, kPa (Liquid); method: EBULLIO:UFactor:32
Temperature, K	Vapor or sublimation pressure, kPa	uncertainty
354.15	95.8	5

System: 1,3-dimethylbenzene; phases: Liquid
Property: Refractive index (Na D-line) (Liquid); method: ABBE:UFactor:4
Temperature, K	Pressure, kPa	Refractive index (Na D-line)	uncertainty
298.15	101.325	1.4946	0.0016

System: 1,3-dimethylbenzene; phases: Liquid
Property: Mass density, kg/m3 (Liquid); method: PYCNOM:UFactor:8
Temperature, K	Pressure, kPa	Mass density, kg/m3	uncertainty
298.15	101.325	860.1	2.08

System: 1,3-dimethylbenzene; phases: Liquid, Gas
Property: Vapor or sublimation pressure, kPa (Liquid); method: EBULLIO:UFactor:32
Temperature, K	Vapor or sublimation pressure, kPa	uncertainty
409.35	95.8	5

System: 1,4-dimethylbenzene; phases: Liquid
Property: Refractive index (Na D-line) (Liquid); method: ABBE:UFactor:4
Temperature, K	Pressure, kPa	Refractive index (Na D-line)	uncertainty
298.15	101.325	1.4933	0.0016

System: 1,4-dimethylbenzene; phases: Liquid
Property: Mass density, kg/m3 (Liquid); method: PYCNOM:UFactor:8
Temperature, K	Pressure, kPa	Mass density, kg/m3	uncertainty
298.15	101.325	856.6	2.07

System: 1,4-dimethylbenzene; phases: Liquid, Gas
Property: Vapor or sublimation pressure, kPa (Liquid); method: EBULLIO:UFactor:32
Temperature, K	Vapor or sublimation pressure, kPa	uncertainty
409.35	95.8	5

System: hexane; phases: Liquid
Property: Refractive index (Na D-line) (Liquid); method: ABBE:UFactor:4
Temperature, K	Pressure, kPa	Refractive index (Na D-line)	uncertainty
298.15	101.325	1.3723	0.0016

System: hexane; phases: Liquid
Property: Mass density, kg/m3 (Liquid); method: PYCNOM:UFactor:8
Temperature, K	Pressure, kPa	Mass density, kg/m3	uncertainty
298.15	101.325	654.8	1.42

System: hexane; phases: Liquid, Gas
Property: Vapor or sublimation pressure, kPa (Liquid); method: EBULLIO:UFactor:32
Temperature, K	Vapor or sublimation pressure, kPa	uncertainty
340.25	95.8	5

System: chlorobenzene; phases: Liquid
Property: Refractive index (Na D-line) (Liquid); method: ABBE:UFactor:4
Temperature, K	Pressure, kPa	Refractive index (Na D-line)	uncertainty
298.15	101.325	1.5219	0.0016

System: chlorobenzene; phases: Liquid
Property: Mass density, kg/m3 (Liquid); method: PYCNOM:UFactor:8
Temperature, K	Pressure, kPa	Mass density, kg/m3	uncertainty
298.15	101.325	1100.9	2.85

System: chlorobenzene; phases: Liquid, Gas
Property: Vapor or sublimation pressure, kPa (Liquid); method: EBULLIO:UFactor:32
Temperature, K	Vapor or sublimation pressure, kPa	uncertainty
402.95	95.8	5

System: 1,3-dimethylbenzene + 2,2,4-trimethylpentane; phases: Liquid, Gas
Fixed: Pressure, kPa = 95.8
Property: Boiling temperature at pressure P, K (Liquid); method: EBULLIO:UFactor:32
Mole fraction of 2,2,4-trimethylpentane	Boiling temperature at pressure P, K	uncertainty
0	409.35	1.01
0.1107	400.65	1.01
0.3034	392.05	1.01
0.4473	386.55	1.01
0.6181	380.75	1.01
0.7639	376.55	1.01
0.9066	372.05	1.01
1	370.55	1.01

System: 1,4-dimethylbenzene + 2,2,4-trimethylpentane; phases: Liquid, Gas
Fixed: Pressure, kPa = 95.8
Property: Boiling temperature at pressure P, K (Liquid); method: EBULLIO:UFactor:32
Mole fraction of 2,2,4-trimethylpentane	Boiling temperature at pressure P, K	uncertainty
0	409.35	1.01
0.1107	401.65	1.01
0.3034	392.05	1.01
0.4473	386.55	1.01
0.6181	380.75	1.01
0.7639	376.55	1.01
0.9066	372.75	1.01
1	370.55	1.01

System: hexane + 2,2,4-trimethylpentane; phases: Liquid, Gas
Fixed: Pressure, kPa = 95.8
Property: Boiling temperature at pressure P, K (Liquid); method: EBULLIO:UFactor:32
Mole fraction of hexane	Boiling temperature at pressure P, K	uncertainty
0	370.55	1.01
0.1138	366.05	1.01
0.2961	359.35	1.01
0.4569	353.85	1.01
0.6023	349.15	1.01
0.7518	344.95	1.01
0.8833	341.95	1.01
1	340.25	1.01

System: chlorobenzene + 2,2,4-trimethylpentane; phases: Liquid, Gas
Fixed: Pressure, kPa = 95.8
Property: Boiling temperature at pressure P, K (Liquid); method: EBULLIO:UFactor:32
Mole fraction of 2,2,4-trimethylpentane	Boiling temperature at pressure P, K	uncertainty
0	402.95	1.01
0.1439	395.25	1.01
0.3095	388.35	1.01
0.4396	383.85	1.01
0.6158	378.95	1.01
0.7276	376.25	1.01
0.889	372.75	1.01
1	370.55	1.01

System: ethanol + 2,2,4-trimethylpentane; phases: Liquid, Gas
Fixed: Pressure, kPa = 95.8
Property: Boiling temperature at pressure P, K (Liquid); method: EBULLIO:UFactor:32
Mole fraction of ethanol	Boiling temperature at pressure P, K	uncertainty
0	370.55	1.01
0.1186	352.55	1.01
0.2876	346.55	1.01
0.4468	344.55	1.01
0.6079	344.05	1.01
0.7502	343.95	1.01
0.9087	344.65	1.01
1	350.05	1.01

System: 2-methylpropan-2-ol + 2,2,4-trimethylpentane; phases: Liquid, Gas
Fixed: Pressure, kPa = 95.8
Property: Boiling temperature at pressure P, K (Liquid); method: EBULLIO:UFactor:32
Mole fraction of 2-methylpropan-2-ol	Boiling temperature at pressure P, K	uncertainty
0	370.55	1.01
0.1189	360.25	1.01
0.2882	356.25	1.01
0.4475	354.55	1.01
0.6184	353.65	1.01
0.7918	353.35	1.01
0.8838	353.55	1.01
0.958	353.85	1.01
1	354.15	1.01
