Measured thermophysical data. Experimental determination of vapor liquid equilibrium for methanol + methyl propionate + 1-butyl-3-methylimidazo-lium bis(trifluoromethylsulfonyl)imide at atmospheric pressure
Source: J. Chem. Thermodyn., 2019, 10.1016/j.jct.2019.01.004
Compound 1: methanol, CH4O, InChI=1S/CH4O/c1-2/h2H,1H3, purity 99.5%
Compound 2: methyl propanoate, C4H8O2, InChI=1S/C4H8O2/c1-3-4(5)6-2/h3H2,1-2H3, purity 99%
Compound 3: 1-butyl-3-methylimidazolium bis(trifluoromethylsulfonyl)imide, C10H15F6N3O4S2, InChI=1S/C8H15N2.C2F6NO4S2/c1-3-4-5-10-7-6-9(2)8-10;3-1(4,5)14(10,11)9-15(12,13)2(6,7)8/h6-8H,3-5H2,1-2H3;/q+1;-1, purity 99%
Compound 4: water, H2O, InChI=1S/H2O/h1H2, purity 99%

System: methanol; phases: Liquid, Gas
Property: Vapor or sublimation pressure, kPa (Liquid); method: Ebulliometric method (Recirculating still)
Temperature, K	Vapor or sublimation pressure, kPa	uncertainty
337.68	101.3	3.7

System: methyl propanoate; phases: Liquid, Gas
Property: Vapor or sublimation pressure, kPa (Liquid); method: Ebulliometric method (Recirculating still)
Temperature, K	Vapor or sublimation pressure, kPa	uncertainty
352.62	101.3	3.7

System: methanol + methyl propanoate; phases: Gas, Liquid
Fixed: Pressure, kPa = 101.3
Property: Mole fraction of methanol (Gas); method: Chromatography
Mole fraction of methanol	Mole fraction of methanol	uncertainty
0	0	
0.045	0.16	0.026
0.096	0.291	0.017
0.19	0.43	0.013
0.29	0.519	0.011
0.395	0.583	0.01
0.5	0.633	0.01
0.605	0.678	0.009
0.711	0.728	0.01
0.814	0.789	0.01
0.915	0.877	0.011
0.966	0.939	0.014
1	1	

System: methanol + methyl propanoate; phases: Liquid, Gas
Fixed: Pressure, kPa = 101.3
Property: Boiling temperature at pressure P, K (Liquid); method: Ebulliometric method (Recirculating still)
Mole fraction of methanol	Boiling temperature at pressure P, K	uncertainty
0	352.62	0.74
0.045	348.55	0.93
0.096	345.7	0.83
0.19	341.66	0.78
0.29	339.16	0.75
0.395	337.57	0.74
0.5	336.57	0.74
0.605	336.01	0.74
0.711	335.68	0.74
0.814	335.71	0.74
0.915	336.34	0.74
0.966	337.04	0.75
1	337.68	0.74

System: methanol + methyl propanoate + 1-butyl-3-methylimidazolium bis(trifluoromethylsulfonyl)imide; phases: Liquid, Gas
Fixed: Pressure, kPa = 101.3
Property: Mole fraction of methyl propanoate (Liquid); method: Chromatography
Property: Mole fraction of methyl propanoate (Gas); method: Chromatography
Property: Mole fraction of methanol (Gas); method: Chromatography
Temperature, K	Mole fraction of methanol	Mole fraction of methyl propanoate	uncertainty	Mole fraction of methyl propanoate	uncertainty	Mole fraction of methanol	uncertainty
351.34	0.042	0.844	0.008	0.869	0.008	0.131	
339.37	0.807	0.085	0.008	0.103	0.008	0.897	
339.73	0.848	0.043	0.008	0.056	0.008	0.944	
355.55	0.035	0.754	0.008	0.883	0.008	0.117	
353.62	0.074	0.716	0.008	0.787	0.008	0.213	
350.51	0.145	0.645	0.009	0.657	0.009	0.343	
347.77	0.228	0.564	0.009	0.54	0.009	0.46	
345.82	0.309	0.486	0.009	0.451	0.009	0.549	
344.27	0.391	0.405	0.009	0.369	0.009	0.631	
343.57	0.476	0.321	0.008	0.303	0.008	0.697	
342.92	0.557	0.241	0.008	0.234	0.008	0.766	
349	0.08	0.807	0.008	0.776	0.009	0.224	
342.81	0.636	0.162	0.008	0.165	0.008	0.835	
343.19	0.714	0.083	0.008	0.091	0.008	0.909	
343.41	0.756	0.041	0.008	0.047	0.008	0.953	
358.86	0.029	0.71	0.008	0.904	0.008	0.096	
357.71	0.055	0.682	0.008	0.843	0.008	0.157	
353.86	0.137	0.6	0.009	0.666	0.009	0.334	
351.41	0.204	0.536	0.009	0.557	0.009	0.443	
349.01	0.284	0.458	0.009	0.456	0.009	0.544	
347.63	0.365	0.379	0.008	0.372	0.009	0.628	
346.47	0.439	0.307	0.008	0.302	0.008	0.698	
345.06	0.171	0.718	0.008	0.614	0.009	0.386	
345.88	0.517	0.23	0.008	0.23	0.008	0.77	
345.8	0.594	0.154	0.008	0.159	0.008	0.841	
345.66	0.671	0.078	0.008	0.084	0.008	0.916	
346.39	0.707	0.04	0.008	0.043	0.008	0.957	
342.49	0.263	0.628	0.009	0.517	0.009	0.483	
340.79	0.352	0.541	0.009	0.441	0.009	0.559	
339.59	0.45	0.444	0.009	0.376	0.009	0.624	
338.88	0.542	0.352	0.008	0.313	0.008	0.687	
338.72	0.632	0.262	0.008	0.253	0.008	0.747	
338.8	0.72	0.173	0.008	0.185	0.008	0.815	

System: methanol + water; phases: Liquid, Gas
Fixed: Pressure, kPa = 101.3
Property: Boiling temperature at pressure P, K (Liquid); method: Ebulliometric method (Recirculating still)
Mole fraction of methanol	Boiling temperature at pressure P, K	uncertainty
0.046	366.1	1.07
0.089	361.92	0.92
0.193	355.59	0.84
0.298	351.57	0.78
0.401	348.68	0.76
0.515	346.23	0.75
0.604	344.6	0.75
0.705	342.83	0.75
0.804	341.01	0.75
0.896	339.42	0.75
0.946	338.5	0.75

System: methanol + water; phases: Gas, Liquid
Fixed: Pressure, kPa = 101.3
Property: Mole fraction of methanol (Gas); method: Chromatography
Mole fraction of methanol	Mole fraction of methanol	uncertainty
0.046	0.274	0.027
0.089	0.41	0.018
0.193	0.565	0.013
0.298	0.654	0.011
0.401	0.715	0.01
0.515	0.777	0.009
0.604	0.811	0.009
0.705	0.87	0.009
0.804	0.909	0.009
0.896	0.954	0.009
0.946	0.973	0.009
