Measured thermophysical data. Measurements of the liquid-liquid coexistence curves of {(1 - x) dimethyl carbonate + x pentadecane} and {(1 - x) dimethyl carbonate + x heptadecane} in the critical region
Source: J. Chem. Thermodyn., 2019, 10.1016/j.jct.2018.08.003
Compound 1: dimethyl carbonate, C3H6O3, InChI=1S/C3H6O3/c1-5-3(4)6-2/h1-2H3, purity 99%
Compound 2: pentadecane, C15H32, InChI=1S/C15H32/c1-3-5-7-9-11-13-15-14-12-10-8-6-4-2/h3-15H2,1-2H3, purity 99%
Compound 3: heptadecane, C17H36, InChI=1S/C17H36/c1-3-5-7-9-11-13-15-17-16-14-12-10-8-6-4-2/h3-17H2,1-2H3, purity 99%

System: dimethyl carbonate; phases: Liquid
Fixed: Pressure, kPa = 100
Fixed: Wavelength, nm = 632.8
Property: Refractive index (other wavelength) (Liquid); method: Minimum deviations angle
Temperature, K	Refractive index (other wavelength)	uncertainty
305.5	1.362	0.0003
308.52	1.3606	0.0003
311.56	1.3591	0.0003
315.36	1.3574	0.0003
318.24	1.356	0.0003
306.44	1.3615	0.0003
309.7	1.36	0.0003
312.48	1.3587	0.0003
316.24	1.3569	0.0003
319.32	1.3555	0.0003
307.48	1.361	0.0003
310.67	1.3596	0.0003
314.41	1.3578	0.0003
317.25	1.3565	0.0003
320.71	1.3548	0.0003
312.48	1.3587	0.0003
320.7	1.3548	0.0003

System: pentadecane; phases: Liquid
Fixed: Pressure, kPa = 100
Fixed: Wavelength, nm = 632.8
Property: Refractive index (other wavelength) (Liquid); method: Minimum deviations angle
Temperature, K	Refractive index (other wavelength)	uncertainty
305.24	1.4256	0.0003
308.33	1.4243	0.0003
311.47	1.423	0.0003
306.29	1.4252	0.0003
309.46	1.4238	0.0003
312.49	1.4225	0.0003
307.26	1.4248	0.0003
310.49	1.4234	0.0003
312.48	1.4226	0.0003

System: heptadecane; phases: Liquid
Fixed: Pressure, kPa = 100
Fixed: Wavelength, nm = 632.8
Property: Refractive index (other wavelength) (Liquid); method: Minimum deviations angle
Temperature, K	Refractive index (other wavelength)	uncertainty
307.35	1.4302	0.0003
313.26	1.4278	0.0003
319.2	1.4253	0.0003
309.07	1.4295	0.0003
315.22	1.4269	0.0003
320.01	1.425	0.0003
311.26	1.4286	0.0003
317.26	1.4261	0.0003
321.04	1.4245	0.0003
320.7	1.4246	0.0003

System: dimethyl carbonate + pentadecane; phases: Liquid mixture 1, Liquid mixture 2, Air at 1 atmosphere
Property: Upper consolute temperature, K (Liquid mixture 1); method: Equal volume method
Upper consolute temperature, K	uncertainty
312.234	0.1

System: dimethyl carbonate + pentadecane; phases: Liquid mixture 1, Liquid mixture 2
Property: Upper consolute composition: mole fraction of pentadecane (Liquid mixture 1); method: Equal volume method
Pressure, kPa	Upper consolute composition: mole fraction of pentadecane	uncertainty
101	0.21	0.002

System: dimethyl carbonate + pentadecane; phases: Liquid mixture 1, Liquid mixture 2
Fixed: Pressure, kPa = 100
Fixed: Wavelength, nm = 632.8
Property: Refractive index (other wavelength) (Liquid mixture 1); method: Minimum deviations angle
Temperature, K	Refractive index (other wavelength)	uncertainty
312.23	1.3855	0.0018
312.228	1.3859	0.0015
312.224	1.3862	0.0014
312.22	1.3864	0.0012
312.216	1.3866	0.0011
312.21	1.3869	0.001
312.198	1.3872	0.0008
312.183	1.3876	0.001
312.159	1.3881	0.0008
312.129	1.3885	0.0006
312.092	1.389	0.0005
312.054	1.3894	0.0005
312.013	1.3898	0.0005
311.965	1.3902	0.0004
311.909	1.3905	0.0004
311.842	1.3909	0.0004
311.768	1.3914	0.0004
311.677	1.3919	0.0004
311.572	1.3924	0.0003
311.417	1.393	0.0003
311.218	1.3938	0.0003
310.966	1.3946	0.0003
310.652	1.3955	0.0003
310.26	1.3965	0.0003
309.678	1.3978	0.0003
308.866	1.3994	0.0003
307.948	1.401	0.0003
306.964	1.4025	0.0003
305.929	1.4039	0.0003
304.919	1.4053	0.0003
303.894	1.4066	0.0003
302.902	1.4081	0.0003

System: dimethyl carbonate + pentadecane; phases: Liquid mixture 2, Liquid mixture 1
Fixed: Pressure, kPa = 100
Fixed: Wavelength, nm = 632.8
Property: Refractive index (other wavelength) (Liquid mixture 2); method: Minimum deviations angle
Temperature, K	Refractive index (other wavelength)	uncertainty
312.23	1.3827	0.0017
312.228	1.3825	0.0016
312.224	1.3821	0.0014
312.22	1.3819	0.0011
312.216	1.3817	0.001
312.21	1.3814	0.0009
312.198	1.381	0.0007
312.183	1.3807	0.001
312.159	1.3803	0.0007
312.129	1.3799	0.0006
312.092	1.3794	0.0005
312.054	1.3791	0.0005
312.013	1.3788	0.0004
311.965	1.3784	0.0004
311.909	1.3781	0.0003
311.842	1.3778	0.0004
311.768	1.3774	0.0003
311.677	1.3771	0.0003
311.572	1.3767	0.0003
311.417	1.3762	0.0003
311.218	1.3758	0.0003
310.966	1.3753	0.0003
310.652	1.3748	0.0003
310.26	1.3742	0.0003
309.678	1.3737	0.0003
308.866	1.3731	0.0003
307.948	1.3726	0.0003
306.964	1.3722	0.0003
305.929	1.3719	0.0003
304.919	1.3718	0.0003
303.894	1.3717	0.0003
302.902	1.3717	0.0003

System: dimethyl carbonate + pentadecane; phases: Liquid mixture 1, Liquid mixture 2
Fixed: Pressure, kPa = 100
Property: Mole fraction of pentadecane (Liquid mixture 1); method: Index of refraction calibration data
Temperature, K	Mole fraction of pentadecane	uncertainty
312.23	0.228	0.021
312.228	0.232	0.019
312.224	0.236	0.017
312.22	0.238	0.015
312.216	0.24	0.014
312.21	0.244	0.013
312.198	0.247	0.011
312.183	0.252	0.013
312.159	0.258	0.011
312.129	0.263	0.01
312.092	0.269	0.009
312.054	0.274	0.009
312.013	0.279	0.008
311.965	0.284	0.008
311.909	0.287	0.008
311.842	0.292	0.008
311.768	0.299	0.008
311.677	0.305	0.008
311.572	0.311	0.008
311.417	0.318	0.008
311.218	0.329	0.008
310.966	0.339	0.008
310.652	0.35	0.009
310.26	0.362	0.009
309.678	0.379	0.009
308.866	0.399	0.009
307.948	0.419	0.01
306.964	0.438	0.01
305.929	0.455	0.011
304.919	0.472	0.011
303.894	0.488	0.011
302.902	0.509	0.011

System: dimethyl carbonate + pentadecane; phases: Liquid mixture 2, Liquid mixture 1
Fixed: Pressure, kPa = 100
Property: Mole fraction of pentadecane (Liquid mixture 2); method: Index of refraction calibration data
Temperature, K	Mole fraction of pentadecane	uncertainty
312.23	0.197	0.019
312.228	0.195	0.018
312.224	0.19	0.015
312.22	0.188	0.012
312.216	0.186	0.011
312.21	0.183	0.01
312.198	0.179	0.009
312.183	0.176	0.011
312.159	0.172	0.009
312.129	0.167	0.007
312.092	0.162	0.007
312.054	0.159	0.007
312.013	0.156	0.006
311.965	0.152	0.006
311.909	0.149	0.005
311.842	0.146	0.005
311.768	0.142	0.005
311.677	0.139	0.005
311.572	0.135	0.005
311.417	0.129	0.005
311.218	0.125	0.005
310.966	0.12	0.005
310.652	0.114	0.005
310.26	0.107	0.005
309.678	0.101	0.005
308.866	0.093	0.005
307.948	0.085	0.004
306.964	0.078	0.004
305.929	0.072	0.004
304.919	0.068	0.004
303.894	0.063	0.004
302.902	0.06	0.004

System: dimethyl carbonate + pentadecane; phases: Liquid
Fixed: Pressure, kPa = 100
Fixed: Temperature, K = 312.48
Fixed: Wavelength, nm = 632.8
Property: Refractive index (other wavelength) (Liquid); method: Minumum deviations angle
Mole fraction of pentadecane	Refractive index (other wavelength)	uncertainty
0	1.3587	0.0003
0.3029	1.3914	0.0003
0.5801	1.4072	0.0003
0.8689	1.4186	0.0003
0.1003	1.3723	0.0004
0.4103	1.3984	0.0003
0.7085	1.4127	0.0003
1	1.4226	0.0003
0.2038	1.3833	0.0003
0.5197	1.4043	0.0003
0.7949	1.416	0.0003

System: dimethyl carbonate + heptadecane; phases: Liquid mixture 1, Liquid mixture 2, Air at 1 atmosphere
Property: Upper consolute temperature, K (Liquid mixture 1); method: Equal volume method
Upper consolute temperature, K	uncertainty
320.496	0.1

System: dimethyl carbonate + heptadecane; phases: Liquid mixture 1, Liquid mixture 2
Property: Upper consolute composition: mole fraction of heptadecane (Liquid mixture 1); method: Equal volume method
Pressure, kPa	Upper consolute composition: mole fraction of heptadecane	uncertainty
101	0.183	0.002

System: dimethyl carbonate + heptadecane; phases: Liquid mixture 1, Liquid mixture 2
Fixed: Pressure, kPa = 100
Fixed: Wavelength, nm = 632.8
Property: Refractive index (other wavelength) (Liquid mixture 1); method: Minimum deviations angle
Temperature, K	Refractive index (other wavelength)	uncertainty
320.488	1.3837	0.0017
320.484	1.384	0.0013
320.48	1.3841	0.0013
320.472	1.3846	0.0011
320.462	1.3849	0.0009
320.447	1.3854	0.0012
320.429	1.3857	0.0009
320.404	1.3862	0.0007
320.376	1.3867	0.0006
320.347	1.387	0.0006
320.315	1.3873	0.0005
320.264	1.3879	0.0005
320.22	1.3883	0.0004
320.168	1.3886	0.0004
320.106	1.3891	0.0004
320.025	1.3895	0.0004
319.943	1.39	0.0004
319.824	1.3906	0.0003
319.668	1.3913	0.0003
319.483	1.392	0.0003
319.281	1.3927	0.0003
318.976	1.3937	0.0003
318.61	1.3947	0.0003
318.053	1.3961	0.0003
316.412	1.3994	0.0003
315.617	1.4007	0.0003
314.695	1.4023	0.0003
312.997	1.4046	0.0003
311.814	1.4062	0.0003
310.809	1.4072	0.0003

System: dimethyl carbonate + heptadecane; phases: Liquid mixture 2, Liquid mixture 1
Fixed: Pressure, kPa = 100
Fixed: Wavelength, nm = 632.8
Property: Refractive index (other wavelength) (Liquid mixture 2); method: Minimum deviations angle
Temperature, K	Refractive index (other wavelength)	uncertainty
320.488	1.3797	0.0017
320.484	1.3794	0.0013
320.48	1.3793	0.0013
320.472	1.3788	0.0011
320.462	1.3784	0.0009
320.447	1.378	0.0012
320.429	1.3777	0.0008
320.404	1.3772	0.0006
320.376	1.3769	0.0006
320.347	1.3766	0.0005
320.315	1.3762	0.0005
320.264	1.3758	0.0004
320.22	1.3755	0.0004
320.168	1.3752	0.0004
320.106	1.3749	0.0003
320.025	1.3745	0.0003
319.943	1.3741	0.0003
319.824	1.3737	0.0003
319.668	1.3732	0.0003
319.483	1.3727	0.0003
319.281	1.3722	0.0003
318.976	1.3716	0.0003
318.61	1.3712	0.0003
318.053	1.3705	0.0003
316.412	1.3693	0.0003
315.617	1.3689	0.0003
314.695	1.3686	0.0003
312.997	1.3684	0.0003
311.814	1.3682	0.0003
310.809	1.3682	0.0003

System: dimethyl carbonate + heptadecane; phases: Liquid mixture 2, Liquid mixture 1
Fixed: Pressure, kPa = 100
Property: Mole fraction of heptadecane (Liquid mixture 2); method: Index of refraction calibration data
Temperature, K	Mole fraction of heptadecane	uncertainty
320.488	0.168	0.015
320.484	0.166	0.012
320.48	0.165	0.012
320.472	0.16	0.01
320.462	0.157	0.009
320.447	0.154	0.011
320.429	0.151	0.008
320.404	0.147	0.007
320.376	0.144	0.007
320.347	0.142	0.006
320.315	0.138	0.006
320.264	0.135	0.006
320.22	0.132	0.005
320.168	0.13	0.005
320.106	0.127	0.005
320.025	0.124	0.005
319.943	0.121	0.005
319.824	0.117	0.005
319.668	0.113	0.005
319.483	0.109	0.005
319.281	0.104	0.005
318.976	0.099	0.005
318.61	0.095	0.005
318.053	0.088	0.004
316.412	0.075	0.004
315.617	0.07	0.004
314.695	0.065	0.004
312.997	0.058	0.004
311.814	0.054	0.004
310.809	0.051	0.004

System: dimethyl carbonate + heptadecane; phases: Liquid mixture 1, Liquid mixture 2
Fixed: Pressure, kPa = 100
Property: Mole fraction of heptadecane (Liquid mixture 1); method: Index of refraction calibration data
Temperature, K	Mole fraction of heptadecane	uncertainty
320.488	0.205	0.017
320.484	0.208	0.013
320.48	0.209	0.013
320.472	0.214	0.011
320.462	0.217	0.01
320.447	0.221	0.013
320.429	0.224	0.011
320.404	0.229	0.009
320.376	0.235	0.009
320.347	0.238	0.008
320.315	0.241	0.008
320.264	0.247	0.008
320.22	0.251	0.007
320.168	0.254	0.007
320.106	0.259	0.007
320.025	0.263	0.007
319.943	0.269	0.007
319.824	0.275	0.007
319.668	0.282	0.007
319.483	0.29	0.008
319.281	0.297	0.008
318.976	0.308	0.008
318.61	0.319	0.008
318.053	0.334	0.008
316.412	0.371	0.009
315.617	0.385	0.009
314.695	0.404	0.009
312.997	0.429	0.01
311.814	0.448	0.01
310.809	0.458	0.011

System: dimethyl carbonate + heptadecane; phases: Liquid
Fixed: Pressure, kPa = 100
Fixed: Temperature, K = 320.7
Fixed: Wavelength, nm = 632.8
Property: Refractive index (other wavelength) (Liquid); method: Minumum deviations angle
Mole fraction of heptadecane	Refractive index (other wavelength)	uncertainty
0	1.3548	0.0003
0.3079	1.3928	0.0003
0.6083	1.4104	0.0003
0.9316	1.4224	0.0003
0.1008	1.3712	0.0004
0.4018	1.3994	0.0003
0.7398	1.4158	0.0003
1	1.4246	0.0003
0.2154	1.3848	0.0004
0.5061	1.4054	0.0003
0.7806	1.4173	0.0003
