Measured thermophysical data. Thermodynamics and activity coefficients at infinite dilution for organic compounds in the ionic liquid 1-hexyl-3-methylimidazolium chloride
Source: J. Chem. Thermodyn., 2019, 10.1016/j.jct.2018.08.028
Compound 1: pentan-1-ol, C5H12O, InChI=1S/C5H12O/c1-2-3-4-5-6/h6H,2-5H2,1H3, purity 99%
Compound 2: 1-hexyl-3-methylimidazolium chloride, C10H19ClN2, InChI=1S/C10H19N2.ClH/c1-3-4-5-6-7-12-9-8-11(2)10-12;/h8-10H,3-7H2,1-2H3;1H/q+1;/p-1, purity 99%
Compound 3: hexane, C6H14, InChI=1S/C6H14/c1-3-5-6-4-2/h3-6H2,1-2H3, purity 99%
Compound 4: heptane, C7H16, InChI=1S/C7H16/c1-3-5-7-6-4-2/h3-7H2,1-2H3, purity 99%
Compound 5: octane, C8H18, InChI=1S/C8H18/c1-3-5-7-8-6-4-2/h3-8H2,1-2H3, purity 99%
Compound 6: 2,2,4-trimethylpentane, C8H18, InChI=1S/C8H18/c1-7(2)6-8(3,4)5/h7H,6H2,1-5H3, purity 99%
Compound 7: nonane, C9H20, InChI=1S/C9H20/c1-3-5-7-9-8-6-4-2/h3-9H2,1-2H3, purity 99%
Compound 8: decane, C10H22, InChI=1S/C10H22/c1-3-5-7-9-10-8-6-4-2/h3-10H2,1-2H3, purity 99%
Compound 9: cyclohexane, C6H12, InChI=1S/C6H12/c1-2-4-6-5-3-1/h1-6H2, purity 99%
Compound 10: methylcyclohexane, C7H14, InChI=1S/C7H14/c1-7-5-3-2-4-6-7/h7H,2-6H2,1H3, purity 99%
Compound 11: methanol, CH4O, InChI=1S/CH4O/c1-2/h2H,1H3, purity 99%
Compound 12: ethanol, C2H6O, InChI=1S/C2H6O/c1-2-3/h3H,2H2,1H3, purity 99%
Compound 13: propan-1-ol, C3H8O, InChI=1S/C3H8O/c1-2-3-4/h4H,2-3H2,1H3, purity 99%
Compound 14: propan-2-ol, C3H8O, InChI=1S/C3H8O/c1-3(2)4/h3-4H,1-2H3, purity 99%
Compound 15: butan-1-ol, C4H10O, InChI=1S/C4H10O/c1-2-3-4-5/h5H,2-4H2,1H3, purity 99%
Compound 16: 2-methyl-1-propanol, C4H10O, InChI=1S/C4H10O/c1-4(2)3-5/h4-5H,3H2,1-2H3, purity 99%
Compound 17: 3-methylbutan-1-ol, C5H12O, InChI=1S/C5H12O/c1-5(2)3-4-6/h5-6H,3-4H2,1-2H3, purity 99%
Compound 18: benzene, C6H6, InChI=1S/C6H6/c1-2-4-6-5-3-1/h1-6H, purity 99%
Compound 19: toluene, C7H8, InChI=1S/C7H8/c1-7-5-3-2-4-6-7/h2-6H,1H3, purity 99%
Compound 20: ethylbenzene, C8H10, InChI=1S/C8H10/c1-2-8-6-4-3-5-7-8/h3-7H,2H2,1H3, purity 99%
Compound 21: 1,2-dimethylbenzene, C8H10, InChI=1S/C8H10/c1-7-5-3-4-6-8(7)2/h3-6H,1-2H3, purity 99%
Compound 22: 1,3-dimethylbenzene, C8H10, InChI=1S/C8H10/c1-7-4-3-5-8(2)6-7/h3-6H,1-2H3, purity 99%
Compound 23: 1,4-dimethylbenzene, C8H10, InChI=1S/C8H10/c1-7-3-5-8(2)6-4-7/h3-6H,1-2H3, purity 99%
Compound 24: styrene, C8H8, InChI=1S/C8H8/c1-2-8-6-4-3-5-7-8/h2-7H,1H2, purity 99%
Compound 25: acetonitrile, C2H3N, InChI=1S/C2H3N/c1-2-3/h1H3, purity 99%
Compound 26: acetone, C3H6O, InChI=1S/C3H6O/c1-3(2)4/h1-2H3, purity 99%
Compound 27: tetrahydrofuran, C4H8O, InChI=1S/C4H8O/c1-2-4-5-3-1/h1-4H2, purity 99%
Compound 28: 1,4-dioxane, C4H8O2, InChI=1S/C4H8O2/c1-2-6-4-3-5-1/h1-4H2, purity 99%
Compound 29: ethyl acetate, C4H8O2, InChI=1S/C4H8O2/c1-3-6-4(2)5/h3H2,1-2H3, purity 99%
Compound 30: hex-1-ene, C6H12, InChI=1S/C6H12/c1-3-5-6-4-2/h3H,1,4-6H2,2H3, purity 99%
Compound 31: cyclohexene, C6H10, InChI=1S/C6H10/c1-2-4-6-5-3-1/h1-2H,3-6H2, purity 99%
Compound 32: dichloromethane, CH2Cl2, InChI=1S/CH2Cl2/c2-1-3/h1H2, purity 99%
Compound 33: trichloromethane, CHCl3, InChI=1S/CHCl3/c2-1(3)4/h1H, purity 99%
Compound 34: tetrachloromethane, CCl4, InChI=1S/CCl4/c2-1(3,4)5, purity 99%

System: 1-hexyl-3-methylimidazolium chloride; phases: Liquid
Fixed: Pressure, kPa = 101.325
Property: Mass density, kg/m3 (Liquid); method: Vibrating tube method
Temperature, K	Mass density, kg/m3	uncertainty
313.15	1031.91	2.41
323.15	1026.23	2.41
333.15	1020.68	2.41
343.15	1015.13	2.41
353.15	1009.58	2.41
363.15	1004.07	2.41

System: 1-hexyl-3-methylimidazolium chloride + hexane; phases: Liquid
Fixed: Mole fraction of hexane = 0
Fixed: Pressure, kPa = 101.325
Property: Activity coefficient of hexane (Liquid); method: Chromatography
Temperature, K	Activity coefficient of hexane	uncertainty
313.15	90.13	9.5
323.15	87.85	9.25
333.15	85.92	9.05
343.15	83.75	8.82
353.15	82.17	8.66
363.15	80.87	8.52

System: 1-hexyl-3-methylimidazolium chloride + heptane; phases: Liquid
Fixed: Mole fraction of heptane = 0
Fixed: Pressure, kPa = 101.325
Property: Activity coefficient of heptane (Liquid); method: Chromatography
Temperature, K	Activity coefficient of heptane	uncertainty
313.15	101	10.64
323.15	98.12	10.34
333.15	94.43	9.95
343.15	91.27	9.62
353.15	88.44	9.32
363.15	87.01	9.17

System: 1-hexyl-3-methylimidazolium chloride + octane; phases: Liquid
Fixed: Mole fraction of octane = 0
Fixed: Pressure, kPa = 101.325
Property: Activity coefficient of octane (Liquid); method: Chromatography
Temperature, K	Activity coefficient of octane	uncertainty
313.15	110.52	11.65
323.15	104.89	11.05
333.15	100.39	10.58
343.15	96.6	10.18
353.15	93.49	9.85
363.15	91.61	9.65

System: 1-hexyl-3-methylimidazolium chloride + 2,2,4-trimethylpentane; phases: Liquid
Fixed: Mole fraction of 2,2,4-trimethylpentane = 0
Fixed: Pressure, kPa = 101.325
Property: Activity coefficient of 2,2,4-trimethylpentane (Liquid); method: Chromatography
Temperature, K	Activity coefficient of 2,2,4-trimethylpentane	uncertainty
313.15	124.72	13.14
323.15	117.82	12.42
333.15	112.86	11.89
343.15	107.51	11.33
353.15	102.54	10.8
363.15	100.41	10.58

System: 1-hexyl-3-methylimidazolium chloride + nonane; phases: Liquid
Fixed: Mole fraction of nonane = 0
Fixed: Pressure, kPa = 101.325
Property: Activity coefficient of nonane (Liquid); method: Chromatography
Temperature, K	Activity coefficient of nonane	uncertainty
313.15	137.3	14.47
323.15	129.6	13.66
333.15	123.37	13
343.15	117.19	12.35
353.15	111.92	11.79
363.15	107.79	11.36

System: 1-hexyl-3-methylimidazolium chloride + decane; phases: Liquid
Fixed: Mole fraction of decane = 0
Fixed: Pressure, kPa = 101.325
Property: Activity coefficient of decane (Liquid); method: Chromatography
Temperature, K	Activity coefficient of decane	uncertainty
313.15	184.89	19.49
323.15	170.25	17.95
333.15	158.39	16.7
343.15	148.69	15.67
353.15	138.46	14.59
363.15	130.17	13.72

System: 1-hexyl-3-methylimidazolium chloride + cyclohexane; phases: Liquid
Fixed: Mole fraction of cyclohexane = 0
Fixed: Pressure, kPa = 101.325
Property: Activity coefficient of cyclohexane (Liquid); method: Chromatography
Temperature, K	Activity coefficient of cyclohexane	uncertainty
313.15	31.74	3.34
323.15	30.25	3.18
333.15	28.87	3.04
343.15	27.93	2.94
353.15	27.29	2.87
363.15	26.88	2.83

System: 1-hexyl-3-methylimidazolium chloride + methylcyclohexane; phases: Liquid
Fixed: Mole fraction of methylcyclohexane = 0
Fixed: Pressure, kPa = 101.325
Property: Activity coefficient of methylcyclohexane (Liquid); method: Chromatography
Temperature, K	Activity coefficient of methylcyclohexane	uncertainty
313.15	44.56	4.69
323.15	41.59	4.38
333.15	39.01	4.11
343.15	37	3.89
353.15	35.21	3.71
363.15	33.91	3.57

System: 1-hexyl-3-methylimidazolium chloride + methanol; phases: Liquid
Fixed: Mole fraction of methanol = 0
Fixed: Pressure, kPa = 101.325
Property: Activity coefficient of methanol (Liquid); method: Chromatography
Temperature, K	Activity coefficient of methanol	uncertainty
313.15	0.146	0.0305
323.15	0.1404	0.0303
333.15	0.1356	0.0301
343.15	0.1324	0.03
353.15	0.129	0.0298
363.15	0.1264	0.0298

System: 1-hexyl-3-methylimidazolium chloride + ethanol; phases: Liquid
Fixed: Mole fraction of ethanol = 0
Fixed: Pressure, kPa = 101.325
Property: Activity coefficient of ethanol (Liquid); method: Chromatography
Temperature, K	Activity coefficient of ethanol	uncertainty
313.15	0.2713	0.0372
323.15	0.251	0.0359
333.15	0.2357	0.0349
343.15	0.2242	0.0343
353.15	0.2138	0.0337
363.15	0.207	0.0333

System: 1-hexyl-3-methylimidazolium chloride + propan-1-ol; phases: Liquid
Fixed: Mole fraction of propan-1-ol = 0
Fixed: Pressure, kPa = 101.325
Property: Activity coefficient of propan-1-ol (Liquid); method: Chromatography
Temperature, K	Activity coefficient of propan-1-ol	uncertainty
313.15	0.3096	0.0398
323.15	0.2862	0.0382
333.15	0.2678	0.0369
343.15	0.2531	0.036
353.15	0.2427	0.0354
363.15	0.2328	0.0348

System: 1-hexyl-3-methylimidazolium chloride + propan-2-ol; phases: Liquid
Fixed: Mole fraction of propan-2-ol = 0
Fixed: Pressure, kPa = 101.325
Property: Activity coefficient of propan-2-ol (Liquid); method: Chromatography
Temperature, K	Activity coefficient of propan-2-ol	uncertainty
313.15	0.3412	0.0421
323.15	0.3161	0.0403
333.15	0.294	0.0387
343.15	0.2786	0.0377
353.15	0.2637	0.0367
363.15	0.2517	0.0359

System: 1-hexyl-3-methylimidazolium chloride + butan-1-ol; phases: Liquid
Fixed: Mole fraction of butan-1-ol = 0
Fixed: Pressure, kPa = 101.325
Property: Activity coefficient of butan-1-ol (Liquid); method: Chromatography
Temperature, K	Activity coefficient of butan-1-ol	uncertainty
313.15	0.4225	0.0485
323.15	0.3854	0.0455
333.15	0.3539	0.0431
343.15	0.3279	0.0411
353.15	0.3096	0.0398
363.15	0.2921	0.0386

System: 1-hexyl-3-methylimidazolium chloride + 2-methyl-1-propanol; phases: Liquid
Fixed: Mole fraction of 2-methyl-1-propanol = 0
Fixed: Pressure, kPa = 101.325
Property: Activity coefficient of 2-methyl-1-propanol (Liquid); method: Chromatography
Temperature, K	Activity coefficient of 2-methyl-1-propanol	uncertainty
313.15	0.3768	0.0448
323.15	0.3506	0.0428
333.15	0.3248	0.0409
343.15	0.305	0.0395
353.15	0.2867	0.0382
363.15	0.2735	0.0373

System: 1-hexyl-3-methylimidazolium chloride + pentan-1-ol; phases: Liquid
Fixed: Mole fraction of pentan-1-ol = 0
Fixed: Pressure, kPa = 101.325
Property: Activity coefficient of pentan-1-ol (Liquid); method: Chromatography
Temperature, K	Activity coefficient of pentan-1-ol	uncertainty
313.15	0.5439	0.0589
323.15	0.4918	0.0543
333.15	0.4431	0.0502
343.15	0.4087	0.0474
353.15	0.3764	0.0448
363.15	0.3561	0.0432

System: 1-hexyl-3-methylimidazolium chloride + 3-methylbutan-1-ol; phases: Liquid
Fixed: Mole fraction of 3-methylbutan-1-ol = 0
Fixed: Pressure, kPa = 101.325
Property: Activity coefficient of 3-methylbutan-1-ol (Liquid); method: Chromatography
Temperature, K	Activity coefficient of 3-methylbutan-1-ol	uncertainty
313.15	0.4855	0.0538
323.15	0.4403	0.05
333.15	0.4031	0.0469
343.15	0.3695	0.0443
353.15	0.3414	0.0421
363.15	0.3238	0.0408

System: 1-hexyl-3-methylimidazolium chloride + benzene; phases: Liquid
Fixed: Mole fraction of benzene = 0
Fixed: Pressure, kPa = 101.325
Property: Activity coefficient of benzene (Liquid); method: Chromatography
Temperature, K	Activity coefficient of benzene	uncertainty
313.15	3.199	0.336
323.15	3.123	0.328
333.15	3.058	0.321
343.15	2.999	0.315
353.15	2.943	0.309
363.15	2.902	0.305

System: 1-hexyl-3-methylimidazolium chloride + toluene; phases: Liquid
Fixed: Mole fraction of toluene = 0
Fixed: Pressure, kPa = 101.325
Property: Activity coefficient of toluene (Liquid); method: Chromatography
Temperature, K	Activity coefficient of toluene	uncertainty
313.15	5.307	0.558
323.15	5.071	0.533
333.15	4.864	0.511
343.15	4.658	0.489
353.15	4.472	0.47
363.15	4.28	0.45

System: 1-hexyl-3-methylimidazolium chloride + ethylbenzene; phases: Liquid
Fixed: Mole fraction of ethylbenzene = 0
Fixed: Pressure, kPa = 101.325
Property: Activity coefficient of ethylbenzene (Liquid); method: Chromatography
Temperature, K	Activity coefficient of ethylbenzene	uncertainty
313.15	8.033	0.844
323.15	7.605	0.799
333.15	7.27	0.764
343.15	6.981	0.734
353.15	6.721	0.706
363.15	6.496	0.683

System: 1-hexyl-3-methylimidazolium chloride + 1,2-dimethylbenzene; phases: Liquid
Fixed: Mole fraction of 1,2-dimethylbenzene = 0
Fixed: Pressure, kPa = 101.325
Property: Activity coefficient of 1,2-dimethylbenzene (Liquid); method: Chromatography
Temperature, K	Activity coefficient of 1,2-dimethylbenzene	uncertainty
313.15	7.337	0.771
323.15	6.944	0.73
333.15	6.598	0.694
343.15	6.304	0.663
353.15	6.009	0.632
363.15	5.761	0.605

System: 1-hexyl-3-methylimidazolium chloride + 1,3-dimethylbenzene; phases: Liquid
Fixed: Mole fraction of 1,3-dimethylbenzene = 0
Fixed: Pressure, kPa = 101.325
Property: Activity coefficient of 1,3-dimethylbenzene (Liquid); method: Chromatography
Temperature, K	Activity coefficient of 1,3-dimethylbenzene	uncertainty
313.15	8.705	0.915
323.15	8.329	0.876
333.15	7.918	0.832
343.15	7.631	0.802
353.15	7.308	0.768
363.15	7.069	0.743

System: 1-hexyl-3-methylimidazolium chloride + 1,4-dimethylbenzene; phases: Liquid
Fixed: Mole fraction of 1,4-dimethylbenzene = 0
Fixed: Pressure, kPa = 101.325
Property: Activity coefficient of 1,4-dimethylbenzene (Liquid); method: Chromatography
Temperature, K	Activity coefficient of 1,4-dimethylbenzene	uncertainty
313.15	8.41	0.884
323.15	8.021	0.843
333.15	7.673	0.807
343.15	7.325	0.77
353.15	7.065	0.743
363.15	6.809	0.716

System: 1-hexyl-3-methylimidazolium chloride + styrene; phases: Liquid
Fixed: Mole fraction of styrene = 0
Fixed: Pressure, kPa = 101.325
Property: Activity coefficient of styrene (Liquid); method: Chromatography
Temperature, K	Activity coefficient of styrene	uncertainty
313.15	3.424	0.36
323.15	3.334	0.35
333.15	3.259	0.342
343.15	3.195	0.336
353.15	3.151	0.331
363.15	3.118	0.328

System: 1-hexyl-3-methylimidazolium chloride + acetone; phases: Liquid
Fixed: Mole fraction of acetone = 0
Fixed: Pressure, kPa = 101.325
Property: Activity coefficient of acetone (Liquid); method: Chromatography
Temperature, K	Activity coefficient of acetone	uncertainty
313.15	2.337	0.245
323.15	2.384	0.25
333.15	2.438	0.256
343.15	2.476	0.26
353.15	2.536	0.266
363.15	2.59	0.272

System: 1-hexyl-3-methylimidazolium chloride + acetonitrile; phases: Liquid
Fixed: Mole fraction of acetonitrile = 0
Fixed: Pressure, kPa = 101.325
Property: Activity coefficient of acetonitrile (Liquid); method: Chromatography
Temperature, K	Activity coefficient of acetonitrile	uncertainty
313.15	1.223	0.125
323.15	1.169	0.12
333.15	1.119	0.114
343.15	1.087	0.111
353.15	1.062	0.108
363.15	1.036	0.105

System: 1-hexyl-3-methylimidazolium chloride + tetrahydrofuran; phases: Liquid
Fixed: Mole fraction of tetrahydrofuran = 0
Fixed: Pressure, kPa = 101.325
Property: Activity coefficient of tetrahydrofuran (Liquid); method: Chromatography
Temperature, K	Activity coefficient of tetrahydrofuran	uncertainty
313.15	3.962	0.416
323.15	3.862	0.406
333.15	3.772	0.396
343.15	3.681	0.387
353.15	3.582	0.376
363.15	3.48	0.366

System: 1-hexyl-3-methylimidazolium chloride + 1,4-dioxane; phases: Liquid
Fixed: Mole fraction of 1,4-dioxane = 0
Fixed: Pressure, kPa = 101.325
Property: Activity coefficient of 1,4-dioxane (Liquid); method: Chromatography
Temperature, K	Activity coefficient of 1,4-dioxane	uncertainty
313.15	2.637	0.277
323.15	2.681	0.282
333.15	2.705	0.284
343.15	2.745	0.288
353.15	2.789	0.293
363.15	2.849	0.299

System: 1-hexyl-3-methylimidazolium chloride + ethyl acetate; phases: Liquid
Fixed: Mole fraction of ethyl acetate = 0
Fixed: Pressure, kPa = 101.325
Property: Activity coefficient of ethyl acetate (Liquid); method: Chromatography
Temperature, K	Activity coefficient of ethyl acetate	uncertainty
313.15	5.058	0.532
323.15	5.201	0.547
333.15	5.343	0.561
343.15	5.488	0.577
353.15	5.632	0.592
363.15	5.77	0.606

System: 1-hexyl-3-methylimidazolium chloride + hex-1-ene; phases: Liquid
Fixed: Mole fraction of hex-1-ene = 0
Fixed: Pressure, kPa = 101.325
Property: Activity coefficient of hex-1-ene (Liquid); method: Chromatography
Temperature, K	Activity coefficient of hex-1-ene	uncertainty
313.15	44.44	4.68
323.15	42.44	4.47
333.15	40.54	4.27
343.15	39.01	4.11
353.15	37.5	3.95
363.15	36.14	3.8

System: 1-hexyl-3-methylimidazolium chloride + cyclohexene; phases: Liquid
Fixed: Mole fraction of cyclohexene = 0
Fixed: Pressure, kPa = 101.325
Property: Activity coefficient of cyclohexene (Liquid); method: Chromatography
Temperature, K	Activity coefficient of cyclohexene	uncertainty
313.15	15.9	1.67
323.15	15.11	1.59
333.15	14.34	1.51
343.15	13.76	1.45
353.15	13.29	1.4
363.15	12.9	1.36

System: 1-hexyl-3-methylimidazolium chloride + dichloromethane; phases: Liquid
Fixed: Mole fraction of dichloromethane = 0
Fixed: Pressure, kPa = 101.325
Property: Activity coefficient of dichloromethane (Liquid); method: Chromatography
Temperature, K	Activity coefficient of dichloromethane	uncertainty
313.15	0.3548	0.0431
323.15	0.3826	0.0453
333.15	0.4154	0.0479
343.15	0.4439	0.0503
353.15	0.4762	0.053
363.15	0.5098	0.0559

System: 1-hexyl-3-methylimidazolium chloride + trichloromethane; phases: Liquid
Fixed: Mole fraction of trichloromethane = 0
Fixed: Pressure, kPa = 101.325
Property: Activity coefficient of trichloromethane (Liquid); method: Chromatography
Temperature, K	Activity coefficient of trichloromethane	uncertainty
313.15	0.239	0.0351
323.15	0.2477	0.0357
333.15	0.2552	0.0361
343.15	0.2627	0.0366
353.15	0.2739	0.0373
363.15	0.2873	0.0382

System: 1-hexyl-3-methylimidazolium chloride + tetrachloromethane; phases: Liquid
Fixed: Mole fraction of tetrachloromethane = 0
Fixed: Pressure, kPa = 101.325
Property: Activity coefficient of tetrachloromethane (Liquid); method: Chromatography
Temperature, K	Activity coefficient of tetrachloromethane	uncertainty
313.15	1.739	0.181
323.15	1.817	0.19
333.15	1.913	0.2
343.15	2.019	0.212
353.15	2.135	0.224
363.15	2.242	0.235
