Measured thermophysical data. Solubility of hydrofluorocarbons in phosphonium-based ionic liquids: Experimental and modelling study
Source: J. Chem. Thermodyn., 2014, 10.1016/j.jct.2014.08.001
Compound 1: trihexyl(tetradecyl)phosphonium chloride, C32H68ClP, InChI=1S/C32H68P.ClH/c1-5-9-13-17-18-19-20-21-22-23-24-28-32-33(29-25-14-10-6-2,30-26-15-11-7-3)31-27-16-12-8-4;/h5-32H2,1-4H3;1H/q+1;/p-1, purity 95%
Compound 2: tributylmethylphosphonium methyl sulfate, C14H33O4PS, InChI=1S/C13H30P.CH4O4S/c1-5-8-11-14(4,12-9-6-2)13-10-7-3;1-5-6(2,3)4/h5-13H2,1-4H3;1H3,(H,2,3,4)/q+1;/p-1, purity 97%
Compound 3: tributylethylphosphonium diethylphosphate, C18H42O4P2, InChI=1S/C14H32P.C4H11O4P/c1-5-9-12-15(8-4,13-10-6-2)14-11-7-3;1-3-7-9(5,6)8-4-2/h5-14H2,1-4H3;3-4H2,1-2H3,(H,5,6)/q+1;/p-1, purity 97%
Compound 4: fluoromethane, CH3F, InChI=1S/CH3F/c1-2/h1H3, purity 99%
Compound 5: difluoromethane, CH2F2, InChI=1S/CH2F2/c2-1-3/h1H2, purity 99%
Compound 6: trifluoromethane, CHF3, InChI=1S/CHF3/c2-1(3)4/h1H, purity 99%

System: fluoromethane + trihexyl(tetradecyl)phosphonium chloride; phases: Liquid, Gas
Property: Mole fraction of fluoromethane (Liquid); method: Volumetric
Pressure, kPa	Temperature, K	Mole fraction of fluoromethane	uncertainty
106	288.15	0.06752	0.0002
100.81	293.35	0.0618	0.00018
103.03	298.66	0.05918	0.00017
102.12	303.21	0.05326	0.00015
102.32	308.55	0.04901	0.00013

System: difluoromethane + trihexyl(tetradecyl)phosphonium chloride; phases: Liquid, Gas
Property: Mole fraction of difluoromethane (Liquid); method: Volumetric
Pressure, kPa	Temperature, K	Mole fraction of difluoromethane	uncertainty
105.89	288.15	0.1705	0.001
104.06	293.17	0.152	0.0008
99.97	298.37	0.1363	0.0006
101.53	303.15	0.1291	0.0006
102.51	308.15	0.121	0.0005

System: trifluoromethane + trihexyl(tetradecyl)phosphonium chloride; phases: Liquid, Gas
Property: Mole fraction of trifluoromethane (Liquid); method: Volumetric
Pressure, kPa	Temperature, K	Mole fraction of trifluoromethane	uncertainty
107.59	288.17	0.2299	0.0017
99.76	293.36	0.2004	0.0013
100.85	298.95	0.1922	0.0012
101.16	303.19	0.1787	0.0011
100.5	308.17	0.1704	0.001

System: fluoromethane + tributylmethylphosphonium methyl sulfate; phases: Liquid, Gas
Property: Mole fraction of fluoromethane (Liquid); method: Volumetric
Pressure, kPa	Temperature, K	Mole fraction of fluoromethane	uncertainty
100.24	288.15	0.04397	0.0001
99.53	293.39	0.03903	9e-05
99.53	298.36	0.03519	8e-05
101.65	303.15	0.03334	7e-05
106.33	308.33	0.03176	7e-05

System: difluoromethane + tributylmethylphosphonium methyl sulfate; phases: Liquid, Gas
Property: Mole fraction of difluoromethane (Liquid); method: Volumetric
Pressure, kPa	Temperature, K	Mole fraction of difluoromethane	uncertainty
100.54	288.15	0.1174	0.0004
103.56	293.15	0.1097	0.0003
102	298.19	0.09925	0.00028
101.32	303.17	0.0878	0.00034
101	308.39	0.08052	0.00023

System: trifluoromethane + tributylmethylphosphonium methyl sulfate; phases: Liquid, Gas
Property: Mole fraction of trifluoromethane (Liquid); method: Volumetric
Pressure, kPa	Temperature, K	Mole fraction of trifluoromethane	uncertainty
104.01	288.15	0.09487	0.00027
99.81	293.31	0.0791	0.0002
100.6	298.33	0.07188	0.00018
102.8	303.15	0.06215	0.00015
101.18	308.45	0.05197	0.00012

System: fluoromethane + tributylethylphosphonium diethylphosphate; phases: Liquid, Gas
Property: Mole fraction of fluoromethane (Liquid); method: Volumetric
Pressure, kPa	Temperature, K	Mole fraction of fluoromethane	uncertainty
100.92	288.15	0.05634	0.00013
101.39	293.15	0.05145	0.00012
102.28	298.17	0.04657	0.00011
102.2	303.21	0.04296	0.0001
100.86	308.15	0.03891	9e-05

System: difluoromethane + tributylethylphosphonium diethylphosphate; phases: Liquid, Gas
Property: Mole fraction of difluoromethane (Liquid); method: Volumetric
Pressure, kPa	Temperature, K	Mole fraction of difluoromethane	uncertainty
103.11	288.15	0.195	0.0008
100.79	293.15	0.1767	0.0007
101.48	298.37	0.1514	0.0006
99.93	303.19	0.1397	0.0005
103.44	308.21	0.1306	0.0004

System: trifluoromethane + tributylethylphosphonium diethylphosphate; phases: Liquid, Gas
Property: Mole fraction of trifluoromethane (Liquid); method: Volumetric
Pressure, kPa	Temperature, K	Mole fraction of trifluoromethane	uncertainty
99.58	288.15	0.2512	0.0012
99.08	293.17	0.2284	0.0011
101.44	298.35	0.2191	0.001
100.16	303.23	0.2031	0.0009
103.63	308.27	0.1942	0.0008
