Measured thermophysical data. Non-ideal behaviour of imidazolium based room temperature ionic liquids in ethylene glycol at T = (298.15 to 318.15) K
Source: J. Chem. Thermodyn., 2009, 10.1016/j.jct.2008.12.002
Compound 1: 1-butyl-3-methylimidazolium tetrafluoroborate, C8H15BF4N2, InChI=1S/C8H15N2.BF4/c1-3-4-5-10-7-6-9(2)8-10;2-1(3,4)5/h6-8H,3-5H2,1-2H3;/q+1;-1, purity 99%
Compound 2: 1-methyl-3-octylimidazolium tetrafluoroborate, C12H23BF4N2, InChI=1S/C12H23N2.BF4/c1-3-4-5-6-7-8-9-14-11-10-13(2)12-14;2-1(3,4)5/h10-12H,3-9H2,1-2H3;/q+1;-1, purity 98%
Compound 3: 1-butyl-3-methylimidazolium octyl sulfate, C16H32N2O4S, InChI=1S/C8H15N2.C8H18O4S/c1-3-4-5-10-7-6-9(2)8-10;1-2-3-4-5-6-7-8-12-13(9,10)11/h6-8H,3-5H2,1-2H3;2-8H2,1H3,(H,9,10,11)/q+1;/p-1, purity 98%
Compound 4: 1,2-ethanediol, C2H6O2, InChI=1S/C2H6O2/c3-1-2-4/h3-4H,1-2H2, purity 99%

System: 1,2-ethanediol + 1-methyl-3-octylimidazolium tetrafluoroborate; phases: Liquid
Fixed: Pressure, kPa = 101
Property: Mass density, kg/m3 (Liquid); method: Vibrating tube method
Temperature, K	Mole fraction of 1-methyl-3-octylimidazolium tetrafluoroborate	Mass density, kg/m3	uncertainty
298.15	0	1110	0.4
298.15	0.0027	1109.9	0.4
298.15	0.0046	1109.7	0.4
298.15	0.0081	1109.5	0.4
298.15	0.0151	1109	0.4
298.15	0.0316	1108	0.4
298.15	0.0614	1106.4	0.4
298.15	0.083	1105.4	0.4
298.15	0.1341	1103.5	0.4
298.15	0.2026	1101.7	0.4
298.15	0.273	1100.4	0.5
298.15	0.4125	1099.2	0.6
298.15	0.5198	1099	0.6
298.15	0.6306	1099.3	0.7
298.15	0.7919	1100.3	0.9
298.15	0.9583	1101.6	1
298.15	1	1101.9	1.1
308.15	0	1102.9	0.4
308.15	0.0027	1102.8	0.4
308.15	0.0046	1102.7	0.4
308.15	0.0081	1102.4	0.4
308.15	0.0151	1101.9	0.4
308.15	0.0316	1100.8	0.4
308.15	0.0614	1099.2	0.4
308.15	0.083	1098	0.4
308.15	0.1341	1096	0.4
308.15	0.2026	1094	0.4
308.15	0.273	1092.7	0.5
308.15	0.4125	1091.5	0.5
308.15	0.5198	1091.3	0.6
308.15	0.6306	1091.6	0.7
308.15	0.7919	1092.6	0.8
308.15	0.9583	1094	1
308.15	1	1094.32	1.03
318.15	0	1095.8	0.3
318.15	0.0027	1095.7	0.3
318.15	0.0046	1095.4	0.3
318.15	0.0081	1095.2	0.4
318.15	0.0151	1094.6	0.4
318.15	0.0316	1093.4	0.4
318.15	0.0614	1091.7	0.4
318.15	0.083	1090.6	0.4
318.15	0.1341	1088.6	0.4
318.15	0.2026	1086.8	0.4
318.15	0.273	1085.3	0.5
318.15	0.4125	1084.2	0.5
318.15	0.5198	1084.1	0.6
318.15	0.6306	1084.5	0.7
318.15	0.7919	1085.5	0.8
318.15	0.9583	1087.1	1
318.15	1	1087.5	1

System: 1,2-ethanediol + 1-butyl-3-methylimidazolium octyl sulfate; phases: Liquid
Fixed: Pressure, kPa = 101
Property: Mass density, kg/m3 (Liquid); method: Vibrating tube method
Temperature, K	Mole fraction of 1-butyl-3-methylimidazolium octyl sulfate	Mass density, kg/m3	uncertainty
298.15	0	1110	0.4
298.15	0.0003	1109.9	0.4
298.15	0.0008	1109.8	0.4
298.15	0.0012	1109.6	0.4
298.15	0.0017	1109.5	0.4
298.15	0.002	1109.4	0.4
298.15	0.0038	1108.8	0.4
298.15	0.007	1107.8	0.4
298.15	0.0119	1106.3	0.4
298.15	0.0174	1104.7	0.4
298.15	0.0258	1102.5	0.4
298.15	0.0508	1096.8	0.4
298.15	0.19	1079.9	0.4
298.15	0.301	1074.2	0.5
298.15	0.3712	1072.2	0.5
298.15	0.4591	1070.5	0.5
298.15	0.5435	1069.4	0.6
298.15	0.6225	1068.7	0.7
298.15	0.7366	1068.2	0.7
298.15	0.8073	1067.9	0.8
298.15	0.9007	1067.7	0.9
298.15	1	1067.6	1
308.15	0	1102.9	0.4
308.15	0.0003	1102.8	0.4
308.15	0.0008	1102.6	0.4
308.15	0.0012	1102.5	0.4
308.15	0.0017	1102.4	0.4
308.15	0.002	1102.3	0.4
308.15	0.0038	1101.7	0.4
308.15	0.007	1100.7	0.4
308.15	0.0119	1099.2	0.4
308.15	0.0174	1097.7	0.4
308.15	0.0258	1095.5	0.4
308.15	0.0508	1089.8	0.4
308.15	0.19	1072.9	0.4
308.15	0.301	1067.3	0.5
308.15	0.3712	1065.3	0.5
308.15	0.4591	1063.6	0.5
308.15	0.5435	1062.7	0.6
308.15	0.6225	1062.1	0.7
308.15	0.7366	1061.5	0.7
308.15	0.8073	1061.3	0.8
308.15	0.9007	1061.2	0.9
308.15	1	1061	1
318.15	0	1095.6	0.3
318.15	0.0003	1095.5	0.4
318.15	0.0008	1095.3	0.4
318.15	0.0012	1095.2	0.4
318.15	0.0017	1095.1	0.4
318.15	0.002	1095	0.4
318.15	0.0038	1094.4	0.4
318.15	0.007	1093.4	0.4
318.15	0.0119	1092	0.4
318.15	0.0174	1090.5	0.4
318.15	0.0258	1088.2	0.4
318.15	0.0508	1082.6	0.4
318.15	0.19	1065.9	0.4
318.15	0.301	1060.4	0.4
318.15	0.3712	1058.4	0.5
318.15	0.4591	1056.8	0.5
318.15	0.5435	1055.9	0.6
318.15	0.6225	1055.4	0.6
318.15	0.7366	1054.9	0.7
318.15	0.8073	1054.8	0.8
318.15	0.9007	1054.6	0.9
318.15	1	1054.5	1

System: 1,2-ethanediol + 1-butyl-3-methylimidazolium tetrafluoroborate; phases: Liquid
Fixed: Pressure, kPa = 101
Property: Mass density, kg/m3 (Liquid); method: Vibrating tube method
Temperature, K	Mole fraction of 1-butyl-3-methylimidazolium tetrafluoroborate	Mass density, kg/m3	uncertainty
298.15	0	1110	0.4
298.15	0.0266	1116.7	0.4
298.15	0.0766	1127.3	0.4
298.15	0.1017	1131.9	0.4
298.15	0.1678	1142.4	0.4
298.15	0.2425	1152.1	0.4
298.15	0.3825	1166	0.4
298.15	0.4389	1170.5	0.4
298.15	0.5207	1176.4	0.4
298.15	0.6049	1181.7	0.4
298.15	0.7196	1188.1	0.4
298.15	0.8106	1192.7	0.4
298.15	0.8978	1196.8	0.4
298.15	1	1201.2	0.4
308.15	0	1102.9	0.4
308.15	0.0266	1109.4	0.4
308.15	0.0766	1119.9	0.4
308.15	0.1017	1124.4	0.4
308.15	0.1678	1134.7	0.4
308.15	0.2425	1144.1	0.4
308.15	0.3825	1157.8	0.4
308.15	0.4389	1162.4	0.4
308.15	0.5207	1168.3	0.4
308.15	0.6049	1173.7	0.4
308.15	0.7196	1180.4	0.4
308.15	0.8106	1185.1	0.4
308.15	0.8978	1189.4	0.4
308.15	1	1194	0.4
318.15	0	1095.8	0.3
318.15	0.0266	1102.2	0.4
318.15	0.0766	1112.5	0.4
318.15	0.1017	1116.9	0.4
318.15	0.1678	1126.9	0.4
318.15	0.2425	1136.2	0.4
318.15	0.3825	1149.7	0.4
318.15	0.4389	1154.3	0.4
318.15	0.5207	1160.3	0.4
318.15	0.6049	1165.8	0.4
318.15	0.7196	1172.7	0.4
318.15	0.8106	1177.6	0.4
318.15	0.8978	1182.1	0.4
318.15	1	1186.9	0.4
