Measured thermophysical data. Thermodynamic functions of a,a-trehalose dihydrate and of a,b-trehalose monohydrate at temperatures from 13 K to 300 K
Source: J. Chem. Thermodyn., 2006, 10.1016/j.jct.2006.03.021
Compound 1: D-(+)-trehalose dihydrate, C12H26O13, InChI=1S/C12H22O11.2H2O/c13-1-3-5(15)7(17)9(19)11(21-3)23-12-10(20)8(18)6(16)4(2-14)22-12;;/h3-20H,1-2H2;2*1H2/t3-,4-,5-,6-,7+,8+,9-,10-,11-,12-;;/m1../s1
Compound 2: .alpha.,.beta.-trehalose monohydrate, C12H24O12, InChI=1S/C12H22O11.H2O/c13-1-3-5(15)7(17)9(19)11(21-3)23-12-10(20)8(18)6(16)4(2-14)22-12;/h3-20H,1-2H2;1H2/t3-,4-,5-,6-,7+,8+,9-,10-,11-,12+;/m1./s1

System: D-(+)-trehalose dihydrate; phases: Crystal
Fixed: Pressure, kPa = 101.325
Property: Molar heat capacity at constant pressure, J/K/mol (Crystal); method: Vacuum adiabatic calorimetry
Temperature, K	Molar heat capacity at constant pressure, J/K/mol	uncertainty
15	8.51	0.08
20	16.78	0.13
30	37.06	0.24
40	58.13	0.37
50	78.42	0.49
60	98.14	0.61
70	117.19	0.73
80	135.65	0.84
90	153.54	0.96
100	170.91	0.43
110	187.82	0.47
120	204.35	0.5
130	220.6	0.53
140	236.57	0.57
150	252.32	0.6
160	267.93	0.63
170	283.46	0.66
180	299	0.7
190	314.53	0.73
200	330.09	0.76
210	345.69	0.79
220	361.36	0.83
230	377.12	0.86
240	392.98	0.89
250	408.95	0.92
260	425.06	0.96
270	441.31	0.99
280	457.7	1.03
290	474.26	1.06
298.15	487.87	1.09
300	490.98	1.1

System: D-(+)-trehalose dihydrate; phases: Crystal
Fixed: Pressure, kPa = 101.325
Property: Molar heat capacity at constant pressure, J/K/mol (Crystal); method: Vacuum adiabatic calorimetry
Temperature, K	Molar heat capacity at constant pressure, J/K/mol	uncertainty
13.55	6.3849	0.0611
14.6	7.8382	0.0711
15.59	9.3453	0.0816
16.61	10.96	0.092
17.67	12.731	0.104
18.75	14.645	0.117
19.81	16.569	0.129
20.85	18.511	0.141
21.9	20.531	0.153
22.93	22.567	0.165
23.97	24.625	0.177
25.02	26.77	0.19
26.11	28.996	0.202
27.24	31.352	0.215
28.42	33.792	0.228
29.57	36.218	0.241
30.71	38.611	0.25
31.92	41.146	0.265
33.18	43.815	0.281
34.5	46.578	0.298
35.82	49.358	0.315
37.15	52.14	0.332
38.46	54.897	0.348
39.78	57.617	0.365
41.15	60.449	0.382
42.54	63.328	0.4
43.91	66.142	0.417
45.27	68.904	0.434
46.63	71.674	0.451
48.02	74.49	0.468
49.43	77.321	0.486
50.88	80.242	0.503
52.39	83.222	0.522
53.93	86.273	0.54
55.51	89.393	0.56
56.3	90.955	0.569
57.99	94.255	0.589
59.66	97.529	0.61
61.39	100.85	0.63
63.18	104.27	0.65
64.99	107.74	0.67
66.83	111.22	0.69
68.66	114.67	0.71
70.49	118.11	0.74
72.33	121.52	0.76
74.17	124.94	0.78
76.04	128.4	0.8
77.89	131.81	0.82
79.75	135.21	0.84
81.63	138.61	0.86
83.51	142.01	0.88
85.4	145.39	0.9
87.31	148.81	0.92
89.22	152.17	0.95
91.14	155.56	0.97
93.09	158.95	0.99
95.06	162.41	1.01
97.04	165.84	1.03
98.99	169.18	1.05
100.9	172.45	0.44
102.78	175.65	0.44
104.63	178.78	0.45
106.45	181.89	0.45
108.25	184.88	0.46
110.03	187.85	0.47
111.78	190.76	0.47
113.51	193.65	0.48
115.22	196.52	0.48
116.9	199.3	0.49
118.57	202	0.5
120.3	204.92	0.5
122.1	207.75	0.51
123.94	210.99	0.51
125.83	213.81	0.52
127.75	216.99	0.53
129.72	220.18	0.53
131.71	223.29	0.54
133.7	226.52	0.55
135.72	229.81	0.55
137.73	232.95	0.56
139.73	236.18	0.57
141.73	239.27	0.57
143.74	242.56	0.58
145.72	245.6	0.58
147.72	248.78	0.59
149.71	251.89	0.6
151.71	254.95	0.6
153.75	258.14	0.61
155.79	261.37	0.62
157.84	264.6	0.62
159.89	267.82	0.63
161.93	270.95	0.64
163.96	274.13	0.64
165.96	277.24	0.65
167.95	280.33	0.66
169.92	283.36	0.66
171.88	286.43	0.67
173.83	289.42	0.68
175.76	292.43	0.68
177.63	295.3	0.69
179.56	298.22	0.69
181.49	301.33	0.7
183.41	304.3	0.71
185.35	307.28	0.71
187.29	310.3	0.72
189.22	313.27	0.72
191.14	316.25	0.73
193.07	319.27	0.74
195.02	322.27	0.74
196.95	325.32	0.75
198.87	328.28	0.76
200.8	331.37	0.76
202.74	334.35	0.77
204.67	337.37	0.78
206.6	340.29	0.78
208.53	343.33	0.79
210.48	346.48	0.79
212.42	349.61	0.8
214.34	352.52	0.81
216.28	355.42	0.81
220.18	361.71	0.83
222.12	364.67	0.83
224.04	367.73	0.84
225.95	370.88	0.85
227.85	373.65	0.85
229.74	376.66	0.86
231.62	379.52	0.86
233.49	382.68	0.87
235.35	385.55	0.88
237.2	388.42	0.88
239.04	391.36	0.89
240.87	394.34	0.89
242.69	397.3	0.9
244.52	400.18	0.91
246.37	403.04	0.91
248.24	406.16	0.92
250.12	409.17	0.93
252	412.27	0.93
253.8	415.1	0.94
255.61	417.77	0.94
257.43	420.98	0.95
259.28	423.94	0.96
261.14	426.99	0.96
263.01	430.01	0.97
264.88	433.05	0.98
266.76	435.05	0.98
268.64	439.07	0.99
270.53	442.21	0.99
272.4	445.33	1
274.28	448.34	1.01
276.17	451.18	1.01
278.06	454.48	1.02
279.95	457.55	1.03
281.85	460.72	1.03
283.75	463.95	1.04
285.66	466.99	1.05
287.57	470.12	1.05
289.49	473.55	1.06
291.41	476.85	1.07
293.32	479.88	1.07
295.23	482.95	1.08
297.16	486.02	1.09
299.07	489.45	1.09
300.98	492.63	1.1

System: D-(+)-trehalose dihydrate; phases: Crystal
Fixed: Pressure, kPa = 101.325
Property: Molar enthalpy, kJ/mol (Crystal); method: Vacuum adiabatic calorimetry
Temperature, K	Molar enthalpy, kJ/mol	uncertainty
15	0.03422	0.00045
20	0.09658	0.00087
30	0.3635	0.0021
40	0.8399	0.0035
50	1.5234	0.0053
60	2.4067	0.0075
70	3.4838	0.01
80	4.7486	0.013
90	6.195	0.0244
100	7.8176	0.028
110	9.6117	0.0318
120	11.573	0.036
130	13.698	0.04
140	15.984	0.044
150	18.429	0.049
160	21.03	0.053
170	23.787	0.058
180	26.699	0.063
190	29.767	0.068
200	32.99	0.073
210	36.369	0.079
220	39.904	0.084
230	43.596	0.09
240	47.447	0.096
250	51.456	0.102
260	55.626	0.108
270	59.958	0.114
280	64.453	0.121
290	69.112	0.127
298.15	73.033	0.133
300	73.938	0.134

System: D-(+)-trehalose dihydrate; phases: Crystal
Fixed: Pressure, kPa = 101.325
Property: Molar entropy, J/K/mol (Crystal); method: Vacuum adiabatic calorimetry
Temperature, K	Molar entropy, J/K/mol	uncertainty
15	3.083	0.048
20	6.614	0.073
30	17.16	0.11
40	30.72	0.15
50	45.89	0.2
60	61.94	0.25
70	78.5	0.3
80	95.37	0.35
90	112.38	0.47
100	129.46	0.5
110	146.55	0.52
120	163.6	0.55
130	180.6	0.57
140	197.54	0.6
150	214.4	0.62
160	231.18	0.65
170	247.89	0.67
180	264.53	0.7
190	281.11	0.72
200	297.64	0.75
210	314.12	0.77
220	330.57	0.8
230	346.98	0.82
240	363.36	0.85
250	379.73	0.87
260	396.08	0.89
270	412.43	0.92
280	428.77	0.94
290	445.12	0.97
298.15	458.45	0.99
300	461.48	0.99

System: .alpha.,.beta.-trehalose monohydrate; phases: Crystal
Fixed: Pressure, kPa = 101.325
Property: Molar heat capacity at constant pressure, J/K/mol (Crystal); method: Vacuum adiabatic calorimetry
Temperature, K	Molar heat capacity at constant pressure, J/K/mol	uncertainty
12.15	6.7014	0.0588
12.87	6.3503	0.0563
13.89	7.7736	0.0718
15.06	9.6875	0.0855
16.13	11.539	0.098
17.15	13.353	0.11
18.14	15.211	0.122
19.1	17.061	0.134
20.02	18.865	0.145
20.99	20.811	0.157
21.98	22.871	0.17
22.97	24.928	0.182
23.99	27.057	0.194
25.09	29.373	0.207
26.28	31.893	0.221
27.52	34.522	0.235
28.79	37.223	0.25
30.14	40.071	0.258
31.48	42.927	0.276
32.83	45.732	0.293
34.23	48.62	0.31
35.64	51.525	0.328
37.04	54.431	0.346
38.44	57.193	0.362
39.85	59.965	0.379
41.25	62.714	0.396
42.67	65.483	0.413
44.14	68.28	0.43
45.66	71.102	0.447
47.22	74.003	0.465
48.83	76.908	0.483
50.46	79.856	0.501
52.14	82.799	0.519
53.84	85.766	0.537
55.55	88.728	0.555
56.47	90.178	0.564
58.33	93.357	0.584
60.17	96.48	0.603
62	99.526	0.622
63.81	102.56	0.64
65.62	105.58	0.66
67.43	108.53	0.68
69.25	111.51	0.7
71.08	114.46	0.71
72.92	117.44	0.73
74.76	120.43	0.75
76.6	123.41	0.77
78.42	126.41	0.79
80.24	129.3	0.8
82.05	132.24	0.82
83.88	135.15	0.84
85.74	138.11	0.86
87.62	141.12	0.88
89.52	144.11	0.9
91.42	147.15	0.92
93.33	150.17	0.93
95.28	153.24	0.95
97.28	156.4	0.97
99.29	159.5	0.99
101.26	162.58	0.42
103.21	165.61	0.42
105.12	168.61	0.43
107.01	171.53	0.43
108.87	174.41	0.44
110.71	177.24	0.44
112.52	180.05	0.45
114.31	182.82	0.46
116.08	185.5	0.46
117.84	188.16	0.47
119.57	190.8	0.47
121.29	193.41	0.48
122.99	196.08	0.48
124.68	198.72	0.49
126.4	201.25	0.49
128.14	203.9	0.5
129.89	206.59	0.5
131.7	209.4	0.51
133.54	212.03	0.52
135.4	214.95	0.52
137.31	217.83	0.53
139.29	220.87	0.53
141.32	223.89	0.54
143.36	226.95	0.55
145.42	229.87	0.55
147.49	232.93	0.56
149.55	235.92	0.56
151.6	238.94	0.57
153.65	242.05	0.58
155.7	244.94	0.58
157.76	248.08	0.59
159.82	250.99	0.6
161.88	253.84	0.6
163.94	256.98	0.61
166.01	260.01	0.61
168.09	262.9	0.62
170.15	265.9	0.63
172.2	268.93	0.63
174.23	271.83	0.64
176.25	274.9	0.64
178.26	277.71	0.65
180.26	280.35	0.66
182.24	283.42	0.66
184.22	286.13	0.67
186.18	288.99	0.67
188.13	291.83	0.68
190.07	294.5	0.69
191.99	297.33	0.69
193.92	300.26	0.7
195.86	302.94	0.7
197.82	305.58	0.71
199.78	308.6	0.71
201.75	311.51	0.72
203.73	314.35	0.73
205.72	317.15	0.73
207.72	320.03	0.74
209.73	323.23	0.75
211.76	326.07	0.75
213.79	328.83	0.76
215.82	331.74	0.76
217.85	335.14	0.77
219.89	337.71	0.78
221.94	340.79	0.78
223.97	343.7	0.79
226.01	346.53	0.79
228.06	349.68	0.8
230.09	352.7	0.81
232.12	355.67	0.81
234.16	358.66	0.82
236.2	361.46	0.83
238.24	364.57	0.83
240.3	367.64	0.84
242.38	370.71	0.84
244.44	373.64	0.85
246.49	376.59	0.86
248.54	379.8	0.86
250.58	382.78	0.87
252.6	385.78	0.88
254.62	388.6	0.88
256.63	391.62	0.89
258.63	394.61	0.89
260.63	397.5	0.9
262.91	400.41	0.91
264.59	403.48	0.91
266.56	406.35	0.92
268.52	409.35	0.93
270.48	412.29	0.93
272.46	415.5	0.94
274.46	418.09	0.94
276.47	421.07	0.95
278.49	424.17	0.96
280.52	427.38	0.96
282.54	430.46	0.97
284.56	433.56	0.98
286.58	436.49	0.98
288.58	439.62	0.99
290.63	443	1
292.65	445.73	1
294.68	448.7	1.01
296.7	451.81	1.01
298.72	454.95	1.02
300.74	457.97	1.03

System: .alpha.,.beta.-trehalose monohydrate; phases: Crystal
Fixed: Pressure, kPa = 101.325
Property: Molar heat capacity at constant pressure, J/K/mol (Crystal); method: Vacuum adiabatic calorimetry
Temperature, K	Molar heat capacity at constant pressure, J/K/mol	uncertainty
15	9.56	0.09
20	18.85	0.15
30	39.76	0.26
40	60.3	0.38
50	78.98	0.5
60	96.14	0.6
70	112.73	0.7
80	128.94	0.8
90	144.87	0.9
100	160.59	0.41
110	176.15	0.44
120	191.54	0.47
130	206.76	0.5
140	221.8	0.54
150	236.64	0.57
160	251.27	0.6
170	265.74	0.63
180	280.12	0.66
190	294.51	0.69
200	308.94	0.72
210	323.42	0.75
220	337.95	0.78
230	352.54	0.81
240	367.19	0.84
250	381.89	0.87
260	396.69	0.9
270	411.55	0.93
280	426.56	0.96
290	441.71	0.99
298.15	454.11	1.02
300	456.92	1.03

System: .alpha.,.beta.-trehalose monohydrate; phases: Crystal
Fixed: Pressure, kPa = 101.325
Property: Molar enthalpy, kJ/mol (Crystal); method: Vacuum adiabatic calorimetry
Temperature, K	Molar enthalpy, kJ/mol	uncertainty
15	0.03844	0.0005
20	0.10886	0.00095
30	0.4009	0.00215
40	0.9025	0.00361
50	1.6005	0.0054
60	2.4769	0.0076
70	3.5217	0.0101
80	4.7303	0.0129
90	6.0996	0.0243
100	7.627	0.0278
110	9.3109	0.0315
120	11.149	0.035
130	13.141	0.039
140	15.284	0.044
150	17.576	0.048
160	20.016	0.052
170	22.601	0.057
180	25.33	0.062
190	28.204	0.066
200	31.221	0.071
210	34.383	0.077
220	37.689	0.082
230	41.142	0.087
240	44.74	0.093
250	48.485	0.099
260	52.379	0.105
270	56.42	0.111
280	60.61	0.117
290	64.952	0.123
298.15	68.602	0.129
300	69.445	0.13

System: .alpha.,.beta.-trehalose monohydrate; phases: Crystal
Fixed: Pressure, kPa = 101.325
Property: Molar entropy, J/K/mol (Crystal); method: Vacuum adiabatic calorimetry
Temperature, K	Molar entropy, J/K/mol	uncertainty
15	3.463	0.052
20	7.45	0.08
30	19	0.12
40	33.29	0.16
50	48.79	0.21
60	64.72	0.26
70	80.8	0.3
80	96.91	0.35
90	113.02	0.47
100	129.1	0.49
110	145.14	0.52
120	161.12	0.54
130	177.06	0.57
140	192.93	0.59
150	208.74	0.61
160	224.48	0.64
170	240.15	0.66
180	255.74	0.68
190	271.27	0.71
200	286.75	0.73
210	302.17	0.75
220	317.55	0.78
230	332.89	0.8
240	348.21	0.82
250	363.49	0.85
260	378.76	0.87
270	394.01	0.89
280	409.25	0.91
290	424.48	0.94
298.15	436.9	0.96
300	439.71	0.96
