Measured thermophysical data. Thermochemical properties of two mixed alkali-alkaline earth metal borates with NLO properties for NaCaBO3 and Li4CaB2O6
Source: J. Chem. Thermodyn., 2018, 10.1016/j.jct.2018.02.020
Compound 1: sodium, Na, InChI=1S/Na
Compound 2: boron, B, InChI=1S/B
Compound 3: calcium, Ca, InChI=1S/Ca
Compound 4: oxygen, O2, InChI=1S/O2/c1-2
Compound 5: lithium, Li, InChI=1S/Li
Compound 6: calcium sodium borate (NaCaBO3), BCaNaO3, InChI=1S/BO3.Ca.Na/c2-1(3)4;;/q-3;+2;+1, purity 99.3%
Compound 7: calcium lithium borate (Li4CaB2O6), B2CaLi4O6, InChI=1S/2BO3.Ca.4Li/c2*2-1(3)4;;;;;/q2*-3;+2;4*+1, purity 99.2%

Reaction: 1 calcium sodium borate (NaCaBO3) + -1 sodium + -1 boron + -1 calcium + -1.5 oxygen
Property: Molar enthalpy of reaction, kJ/mol
-1664.5

Reaction: 1 calcium lithium borate (Li4CaB2O6) + -4 lithium + -2 boron + -1 calcium + -3 oxygen
Property: Molar enthalpy of reaction, kJ/mol
-3391.7
