Measured thermophysical data. Vapour pressure measurement for binary and ternary systems containing water methanol ethanol and an ionic liquid 1-ethyl-3-ethylimidazolium diethylphosphate
Source: J. Chem. Thermodyn., 2007, 10.1016/j.jct.2006.11.013
Compound 1: water, H2O, InChI=1S/H2O/h1H2
Compound 2: methanol, CH4O, InChI=1S/CH4O/c1-2/h2H,1H3, purity 99.8%
Compound 3: ethanol, C2H6O, InChI=1S/C2H6O/c1-2-3/h3H,2H2,1H3, purity 99.8%
Compound 4: 1-ethyl-3-methylimidazolium diethyl phosphate, C10H21N2O4P, InChI=1S/C6H11N2.C4H11O4P/c1-3-8-5-4-7(2)6-8;1-3-7-9(5,6)8-4-2/h4-6H,3H2,1-2H3;3-4H2,1-2H3,(H,5,6)/q+1;/p-1

System: water + 1-ethyl-3-methylimidazolium diethyl phosphate; phases: Liquid, Gas
Property: Vapor or sublimation pressure, kPa (Liquid); method: Twin ebulliometer
Mole fraction of water	Temperature, K	Vapor or sublimation pressure, kPa	uncertainty
0.7348	335.67	9.576	0.138
0.7348	343.03	13.588	0.156
0.7348	348.57	17.498	0.204
0.7348	354.81	22.917	0.232
0.7348	360.4	29.158	0.265
0.7348	366.55	37.269	0.281
0.7348	371.31	44.949	0.304
0.9392	322.37	9.999	0.126
0.9392	328.73	13.708	0.134
0.9392	334.78	18.237	0.153
0.9392	340.58	23.74	0.174
0.9392	346.28	30.475	0.21
0.9392	350.76	36.793	0.24
0.9392	355.06	43.825	0.288
0.9392	359.05	51.389	0.35
0.9734	318.64	9.352	0.119
0.9734	328.63	15.336	0.149
0.9734	333.95	19.706	0.183
0.9734	338.47	24.119	0.137
0.9734	344.41	31.311	0.152
0.9734	349.69	38.853	0.256
0.9734	354.52	47.442	0.299
0.9734	358.11	54.915	0.329
0.9929	317.63	9.313	0.117
0.9929	323.32	12.417	0.133
0.9929	330.04	17.104	0.161
0.9929	337.05	23.601	0.197
0.9929	343.15	30.859	0.217
0.9929	348.44	38.586	0.275
0.9929	353.97	48.377	0.3
0.9929	358.1	57.075	0.28

System: methanol + 1-ethyl-3-methylimidazolium diethyl phosphate; phases: Liquid, Gas
Property: Vapor or sublimation pressure, kPa (Liquid); method: Twin ebulliometer
Mole fraction of methanol	Temperature, K	Vapor or sublimation pressure, kPa	uncertainty
0.6052	330.07	14.336	0.303
0.6052	335.85	18.745	0.304
0.6052	341.15	23.771	0.315
0.6052	346.66	29.985	0.335
0.6052	351.65	37.048	0.373
0.6052	356.22	44.985	0.415
0.6052	361.2	54.429	0.153
0.6052	366.19	65.452	0.169
0.8968	304.41	15.977	0.186
0.8968	309.04	20.32	0.199
0.8968	312.75	24.418	0.23
0.8968	316.39	29.051	0.264
0.8968	320.25	34.773	0.305
0.8968	324.51	42.231	0.357
0.8968	327.72	48.525	0.407
0.8968	331.26	56.515	0.304
0.953	300.9	17.011	0.155
0.953	303.56	19.485	0.183
0.953	307.06	23.24	0.172
0.953	311.51	28.841	0.234
0.953	315.46	34.748	0.268
0.953	319.41	41.695	0.309
0.953	323.44	49.95	0.362
0.953	326.85	57.898	0.426
0.9874	299.2	17.386	0.159
0.9874	302.9	21.011	0.177
0.9874	306.7	25.347	0.196
0.9874	310.58	30.529	0.222
0.9874	314.13	36.039	0.251
0.9874	317.92	42.869	0.279
0.9874	321.32	49.884	0.278
0.9874	324.75	57.891	0.311

System: ethanol + 1-ethyl-3-methylimidazolium diethyl phosphate; phases: Liquid, Gas
Property: Vapor or sublimation pressure, kPa (Liquid); method: Twin ebulliometer
Mole fraction of ethanol	Temperature, K	Vapor or sublimation pressure, kPa	uncertainty
0.5151	344.56	9.139	0.289
0.5151	349.59	11.648	0.291
0.5151	355.84	15.641	0.298
0.5151	359.82	18.686	0.31
0.5151	365.11	23.205	0.333
0.5151	370.8	29.875	0.126
0.858	310.59	11.648	0.122
0.858	316.24	15.641	0.144
0.858	318.57	17.646	0.141
0.858	323.93	22.978	0.163
0.858	329.23	29.635	0.183
0.858	333.85	36.689	0.212
0.858	339.15	46.313	0.255
0.858	342.93	54.503	0.314
0.9338	309.8	13.49	0.121
0.9338	313.92	16.741	0.118
0.9338	318.49	21.17	0.141
0.9338	321.24	24.276	0.139
0.9338	325.4	29.674	0.166
0.9338	329.03	35.216	0.189
0.9338	333.54	43.29	0.216
0.9338	338.72	54.395	0.246
0.9817	309.96	14.808	0.116
0.9817	314	18.301	0.129
0.9817	319.06	23.625	0.141
0.9817	323.19	28.909	0.145
0.9817	327.26	35.06	0.171
0.9817	330.78	41.264	0.173
0.9817	334.37	48.506	0.2
0.9817	337.91	56.716	0.216

System: methanol + water + 1-ethyl-3-methylimidazolium diethyl phosphate; phases: Liquid, Gas
Property: Vapor or sublimation pressure, kPa (Liquid); method: Twin ebulliometer
Mole fraction of water	Mole fraction of methanol	Temperature, K	Vapor or sublimation pressure, kPa	uncertainty
0.1528	0.7985	307.13	21.296	0.121
0.1528	0.7985	309.27	23.689	0.123
0.1528	0.7985	312.25	27.356	0.126
0.1528	0.7985	316.21	33.057	0.13
0.1528	0.7985	319.98	39.246	0.134
0.1528	0.7985	324.03	46.915	0.139
0.1528	0.7985	327.26	53.915	0.145
0.1528	0.7985	330.29	61.177	0.149
0.5228	0.4009	309.03	17.437	0.121
0.5228	0.4009	312.89	21.098	0.124
0.5228	0.4009	315.76	24.248	0.127
0.5228	0.4009	319.76	29.422	0.135
0.5228	0.4009	323.72	35.377	0.147
0.5228	0.4009	328.18	43.197	0.165
0.5228	0.4009	331.26	49.418	0.185
0.5228	0.4009	334.76	57.313	0.204
0.7036	0.2639	312.9	16.315	0.208
0.7036	0.2639	315.25	18.794	0.179
0.7036	0.2639	317.88	21.302	0.148
0.7036	0.2639	321.85	25.687	0.155
0.7036	0.2639	326.63	31.881	0.164
0.7036	0.2639	331.21	38.869	0.218
0.7036	0.2639	335.99	47.656	0.285
0.7036	0.2639	340.23	56.413	0.255
0.8508	0.1196	319.03	16.216	0.136
0.8508	0.1196	321.86	18.498	0.147
0.8508	0.1196	325.97	22.407	0.163
0.8508	0.1196	331.12	28.258	0.185
0.8508	0.1196	333.8	31.795	0.214
0.8508	0.1196	336.92	36.326	0.215
0.8508	0.1196	344.29	49.295	0.244
0.8508	0.1196	347.46	55.865	0.265

System: ethanol + water + 1-ethyl-3-methylimidazolium diethyl phosphate; phases: Liquid, Gas
Property: Vapor or sublimation pressure, kPa (Liquid); method: Twin ebulliometer
Mole fraction of water	Mole fraction of ethanol	Temperature, K	Vapor or sublimation pressure, kPa	uncertainty
0.2193	0.7299	316.49	19.076	0.109
0.2193	0.7299	319.28	21.888	0.111
0.2193	0.7299	321.07	23.916	0.112
0.2193	0.7299	324.24	27.909	0.114
0.2193	0.7299	328.47	34.097	0.118
0.2193	0.7299	332.31	40.629	0.122
0.2193	0.7299	336.77	49.568	0.127
0.2193	0.7299	340.23	57.584	0.132
0.6038	0.3544	316.89	18.226	0.112
0.6038	0.3544	321.59	22.792	0.116
0.6038	0.3544	323.17	24.589	0.119
0.6038	0.3544	325.7	27.811	0.122
0.6038	0.3544	329.8	33.722	0.13
0.6038	0.3544	333.27	39.564	0.138
0.6038	0.3544	336.55	45.788	0.151
0.6038	0.3544	341.03	56.173	0.165
0.765	0.1996	317.1	16.644	0.121
0.765	0.1996	320.63	19.846	0.13
0.765	0.1996	324.6	24.038	0.139
0.765	0.1996	328.64	29.042	0.126
0.765	0.1996	333.33	36.163	0.136
0.765	0.1996	337.06	42.591	0.186
0.765	0.1996	340.8	50.19	0.217
0.765	0.1996	343.73	56.853	0.222
0.883	0.0864	318.19	14.564	0.119
0.883	0.0864	322	17.518	0.124
0.883	0.0864	326.2	21.573	0.133
0.883	0.0864	331.03	26.931	0.158
0.883	0.0864	335.94	33.593	0.173
0.883	0.0864	341.98	43.663	0.199
0.883	0.0864	345.69	50.996	0.226
0.883	0.0864	349.53	59.606	0.242

System: ethanol + methanol + 1-ethyl-3-methylimidazolium diethyl phosphate; phases: Liquid, Gas
Property: Vapor or sublimation pressure, kPa (Liquid); method: Twin ebulliometer
Mole fraction of ethanol	Mole fraction of methanol	Temperature, K	Vapor or sublimation pressure, kPa	uncertainty
0.0682	0.8834	303.01	18.507	0.11
0.0682	0.8834	307.02	22.574	0.112
0.0682	0.8834	310.03	26.132	0.115
0.0682	0.8834	313.31	30.532	0.119
0.0682	0.8834	316.82	35.919	0.124
0.0682	0.8834	321.04	43.427	0.13
0.0682	0.8834	324.82	51.215	0.137
0.0682	0.8834	328.01	58.696	0.144
0.3	0.6467	306.1	18.527	0.112
0.3	0.6467	309.67	22.007	0.114
0.3	0.6467	313.06	25.955	0.118
0.3	0.6467	316.01	29.856	0.121
0.3	0.6467	319.73	35.468	0.127
0.3	0.6467	323.47	41.97	0.135
0.3	0.6467	327.63	50.343	0.143
0.3	0.6467	330.81	57.627	0.149
0.4816	0.4615	308.12	17.495	0.111
0.4816	0.4615	311.07	20.305	0.112
0.4816	0.4615	314.95	24.571	0.117
0.4816	0.4615	318.99	29.839	0.122
0.4816	0.4615	324	37.62	0.128
0.4816	0.4615	327.58	44.184	0.137
0.4816	0.4615	330.69	50.56	0.145
0.6906	0.2482	309.63	16.265	0.109
0.6906	0.2482	313.28	19.559	0.111
0.6906	0.2482	317.59	24.189	0.115
0.6906	0.2482	321.83	29.629	0.121
0.6906	0.2482	326.41	36.675	0.126
0.6906	0.2482	330.81	44.732	0.133
0.6906	0.2482	333.61	50.576	0.139
0.6906	0.2482	336.58	57.492	0.144
