Measured thermophysical data. Volumetric properties of monoethanolamine and alcohol binary mixtures at different temperatures and 0.1 MPa
Source: J. Chem. Thermodyn., 2019, 10.1016/j.jct.2019.01.025
Compound 1: 2-aminoethan-1-ol, C2H7NO, InChI=1S/C2H7NO/c3-1-2-4/h4H,1-3H2, purity 99%
Compound 2: ethanol, C2H6O, InChI=1S/C2H6O/c1-2-3/h3H,2H2,1H3, purity 99.7%
Compound 3: propan-1-ol, C3H8O, InChI=1S/C3H8O/c1-2-3-4/h4H,2-3H2,1H3, purity 99.8%
Compound 4: propan-2-ol, C3H8O, InChI=1S/C3H8O/c1-3(2)4/h3-4H,1-2H3, purity 99.7%
Compound 5: butan-1-ol, C4H10O, InChI=1S/C4H10O/c1-2-3-4-5/h5H,2-4H2,1H3, purity 99.5%
Compound 6: 2-methyl-1-propanol, C4H10O, InChI=1S/C4H10O/c1-4(2)3-5/h4-5H,3H2,1-2H3, purity 99%
Compound 7: 2-methylpropan-2-ol, C4H10O, InChI=1S/C4H10O/c1-4(2,3)5/h5H,1-3H3, purity 99%

System: 2-aminoethan-1-ol; phases: Liquid
Fixed: Pressure, kPa = 101.325
Property: Mass density, kg/m3 (Liquid); method: Vibrating tube method
Temperature, K	Mass density, kg/m3	uncertainty
293.15	1016.47	4.01
298.15	1012.53	4.01
303.15	1008.47	4.01
308.15	1004.49	4.01
313.15	1000.5	4.01
318.15	996.39	4.01
323.15	992.41	4.01

System: ethanol; phases: Liquid
Fixed: Pressure, kPa = 101.325
Property: Mass density, kg/m3 (Liquid); method: Vibrating tube method
Temperature, K	Mass density, kg/m3	uncertainty
293.15	789.4	4
298.15	785.13	4
303.15	780.75	4
308.15	776.41	4
313.15	772.04	4
318.15	767.52	4
323.15	763.04	4

System: propan-1-ol; phases: Liquid
Fixed: Pressure, kPa = 101.325
Property: Mass density, kg/m3 (Liquid); method: Vibrating tube method
Temperature, K	Mass density, kg/m3	uncertainty
293.15	803.77	4
298.15	799.69	4
303.15	795.58	4
308.15	791.52	4
313.15	787.42	4
318.15	783.17	4
323.15	778.96	4

System: propan-2-ol; phases: Liquid
Fixed: Pressure, kPa = 101.325
Property: Mass density, kg/m3 (Liquid); method: Vibrating tube method
Temperature, K	Mass density, kg/m3	uncertainty
293.15	785.1	4
298.15	780.91	4
303.15	776.57	4
308.15	772.24	4
313.15	767.82	4
318.15	763.19	4
323.15	758.55	4

System: butan-1-ol; phases: Liquid
Fixed: Pressure, kPa = 101.325
Property: Mass density, kg/m3 (Liquid); method: Vibrating tube method
Temperature, K	Mass density, kg/m3	uncertainty
293.15	809.77	4
298.15	805.92	4
303.15	802	4
308.15	798.14	4
313.15	794.24	4
318.15	790.2	4
323.15	786.21	4

System: 2-methyl-1-propanol; phases: Liquid
Fixed: Pressure, kPa = 101.325
Property: Mass density, kg/m3 (Liquid); method: Vibrating tube method
Temperature, K	Mass density, kg/m3	uncertainty
293.15	801.85	4.01
298.15	797.99	4.01
303.15	794.03	4.01
308.15	790.09	4.01
313.15	786.12	4.01
318.15	781.97	4.01
323.15	777.86	4.01

System: 2-methylpropan-2-ol; phases: Liquid
Fixed: Pressure, kPa = 101.325
Property: Mass density, kg/m3 (Liquid); method: Vibrating tube method
Temperature, K	Mass density, kg/m3	uncertainty
298.15	780.61	4.01
303.15	775.42	4.01
308.15	770.21	4.01
313.15	764.92	4.01
318.15	759.42	4.01
323.15	753.95	4.01

System: ethanol + 2-aminoethan-1-ol; phases: Liquid
Fixed: Pressure, kPa = 100
Property: Mass density, kg/m3 (Liquid); method: Vibrating tube method
Temperature, K	Mole fraction of 2-aminoethan-1-ol	Mass density, kg/m3	uncertainty
293.15	0.0773	810.46	6.69
293.15	0.1586	831.93	6.51
293.15	0.2443	853.39	6.42
293.15	0.3346	876.12	6.34
293.15	0.43	899.09	6.15
293.15	0.5308	921.99	5.97
293.15	0.6377	945.08	5.83
293.15	0.7511	968.64	5.7
293.15	0.8716	992.58	5.55
298.15	0.0773	806.22	6.7
298.15	0.1586	827.71	6.52
298.15	0.2443	849.2	6.43
298.15	0.3346	871.96	6.35
298.15	0.43	894.95	6.16
298.15	0.5308	917.9	5.97
298.15	0.6377	941.02	5.83
298.15	0.7511	964.62	5.71
298.15	0.8716	988.58	5.55
303.15	0.0773	801.86	6.7
303.15	0.1586	823.37	6.52
303.15	0.2443	844.9	6.43
303.15	0.3346	867.69	6.35
303.15	0.43	890.7	6.16
303.15	0.5308	913.65	5.98
303.15	0.6377	936.83	5.84
303.15	0.7511	960.48	5.71
303.15	0.8716	984.46	5.56
308.15	0.0773	797.55	6.7
308.15	0.1586	819.07	6.53
308.15	0.2443	840.65	6.44
308.15	0.3346	863.47	6.35
308.15	0.43	886.5	6.17
308.15	0.5308	909.55	5.98
308.15	0.6377	932.73	5.84
308.15	0.7511	956.42	5.71
308.15	0.8716	980.42	5.56
313.15	0.0773	793.21	6.71
313.15	0.1586	814.75	6.54
313.15	0.2443	836.38	6.45
313.15	0.3346	859.23	6.36
313.15	0.43	882.29	6.18
313.15	0.5308	905.4	5.99
313.15	0.6377	928.6	5.85
313.15	0.7511	952.34	5.72
313.15	0.8716	976.38	5.57
318.15	0.0773	788.71	6.71
318.15	0.1586	810.29	6.54
318.15	0.2443	831.96	6.45
318.15	0.3346	854.85	6.37
318.15	0.43	877.94	6.18
318.15	0.5308	901.1	6
318.15	0.6377	924.34	5.85
318.15	0.7511	948.13	5.72
318.15	0.8716	972.21	5.57
323.15	0.0773	784.27	6.72
323.15	0.1586	805.9	6.55
323.15	0.2443	827.62	6.46
323.15	0.3346	850.55	6.37
323.15	0.43	873.69	6.19
323.15	0.5308	896.9	6
323.15	0.6377	920.19	5.86
323.15	0.7511	944.04	5.73
323.15	0.8716	968.17	5.58
293.15	1	1016.47	4.01
298.15	1	1012.53	4.01
303.15	1	1008.47	4.01
308.15	1	1004.49	4.01
313.15	1	1000.5	4.01
318.15	1	996.39	4.01
323.15	1	992.41	4.01
293.15	0	789.4	4
298.15	0	785.13	4
303.15	0	780.75	4
308.15	0	776.41	4
313.15	0	772.04	4
318.15	0	767.52	4
323.15	0	763.04	4

System: propan-1-ol + 2-aminoethan-1-ol; phases: Liquid
Fixed: Pressure, kPa = 100
Property: Mass density, kg/m3 (Liquid); method: Vibrating tube method
Temperature, K	Mole fraction of 2-aminoethan-1-ol	Mass density, kg/m3	uncertainty
293.15	0.0986	823.05	5.6
293.15	0.1974	842.4	5.62
293.15	0.2966	862.05	5.69
293.15	0.3961	882.56	5.79
293.15	0.496	903.81	5.79
293.15	0.5961	924.46	5.88
293.15	0.6966	946.99	6.03
293.15	0.7974	969.87	6.06
293.15	0.8985	992.94	6.1
298.15	0.0986	818.95	5.59
298.15	0.1974	838.27	5.61
298.15	0.2966	857.94	5.69
298.15	0.3961	878.51	5.8
298.15	0.496	899.73	5.8
298.15	0.5961	920.46	5.88
298.15	0.6966	942.97	6.03
298.15	0.7974	965.86	6.06
298.15	0.8985	988.96	6.1
303.15	0.0986	814.83	5.59
303.15	0.1974	834.12	5.61
303.15	0.2966	853.8	5.69
303.15	0.3961	874.37	5.8
303.15	0.496	895.6	5.8
303.15	0.5961	916.36	5.88
303.15	0.6966	938.85	6.03
303.15	0.7974	961.75	6.07
303.15	0.8985	984.88	6.11
308.15	0.0986	810.75	5.59
308.15	0.1974	830.03	5.61
308.15	0.2966	849.74	5.7
308.15	0.3961	870.31	5.8
308.15	0.496	891.55	5.8
308.15	0.5961	912.32	5.88
308.15	0.6966	934.79	6.03
308.15	0.7974	957.71	6.07
308.15	0.8985	980.88	6.11
313.15	0.0986	806.64	5.59
313.15	0.1974	825.91	5.61
313.15	0.2966	845.63	5.7
313.15	0.3961	866.21	5.8
313.15	0.496	887.47	5.81
313.15	0.5961	908.27	5.88
313.15	0.6966	930.72	6.03
313.15	0.7974	953.68	6.08
313.15	0.8985	976.87	6.12
318.15	0.0986	802.38	5.59
318.15	0.1974	821.65	5.62
318.15	0.2966	841.39	5.7
318.15	0.3961	861.99	5.8
318.15	0.496	883.26	5.81
318.15	0.5961	904.08	5.88
318.15	0.6966	926.53	6.03
318.15	0.7974	949.53	6.08
318.15	0.8985	972.75	6.12
323.15	0.0986	798.19	5.59
323.15	0.1974	817.46	5.62
323.15	0.2966	837.23	5.7
323.15	0.3961	857.84	5.8
323.15	0.496	879.14	5.81
323.15	0.5961	899.9	5.89
323.15	0.6966	922.45	6.04
323.15	0.7974	945.49	6.09
323.15	0.8985	968.76	6.12
293.15	1	1016.47	4.01
298.15	1	1012.53	4.01
303.15	1	1008.47	4.01
308.15	1	1004.49	4.01
313.15	1	1000.5	4.01
318.15	1	996.39	4.01
323.15	1	992.41	4.01
293.15	0	803.77	4
298.15	0	799.69	4
303.15	0	795.58	4
308.15	0	791.52	4
313.15	0	787.42	4
318.15	0	783.17	4
323.15	0	778.96	4

System: propan-2-ol + 2-aminoethan-1-ol; phases: Liquid
Fixed: Pressure, kPa = 100
Property: Mass density, kg/m3 (Liquid); method: Vibrating tube method
Temperature, K	Mole fraction of 2-aminoethan-1-ol	Mass density, kg/m3	uncertainty
293.15	0.0986	804.43	5.64
293.15	0.1974	824.39	5.73
293.15	0.2966	844.97	6.01
293.15	0.3961	868.88	6.16
293.15	0.496	891.61	6.16
293.15	0.5961	915.69	6.23
293.15	0.6966	939.56	6.35
293.15	0.7974	965.29	6.4
293.15	0.8985	989.95	6.45
298.15	0.0986	800.28	5.65
298.15	0.1974	820.25	5.73
298.15	0.2966	840.83	6.01
298.15	0.3961	864.78	6.16
298.15	0.496	887.55	6.16
298.15	0.5961	911.65	6.24
298.15	0.6966	935.53	6.35
298.15	0.7974	961.29	6.4
298.15	0.8985	985.96	6.45
303.15	0.0986	795.98	5.65
303.15	0.1974	815.98	5.73
303.15	0.2966	836.58	6.01
303.15	0.3961	860.58	6.17
303.15	0.496	883.37	6.17
303.15	0.5961	907.48	6.24
303.15	0.6966	931.4	6.36
303.15	0.7974	957.17	6.4
303.15	0.8985	981.86	6.46
308.15	0.0986	791.72	5.66
308.15	0.1974	811.76	5.73
308.15	0.2966	832.38	6.02
308.15	0.3961	856.42	6.17
308.15	0.496	879.25	6.17
308.15	0.5961	903.38	6.24
308.15	0.6966	927.32	6.36
308.15	0.7974	953.13	6.41
308.15	0.8985	977.84	6.46
313.15	0.0986	787.39	5.67
313.15	0.1974	807.48	5.74
313.15	0.2966	828.13	6.03
313.15	0.3961	852.23	6.18
313.15	0.496	875.1	6.17
313.15	0.5961	899.25	6.25
313.15	0.6966	923.23	6.37
313.15	0.7974	949.07	6.41
313.15	0.8985	973.81	6.47
318.15	0.0986	782.87	5.68
318.15	0.1974	803.04	5.75
318.15	0.2966	823.74	6.03
318.15	0.3961	847.9	6.19
318.15	0.496	870.82	6.18
318.15	0.5961	895	6.25
318.15	0.6966	919	6.37
318.15	0.7974	944.88	6.42
318.15	0.8985	969.66	6.47
323.15	0.0986	778.38	5.7
323.15	0.1974	798.63	5.76
323.15	0.2966	819.42	6.05
323.15	0.3961	843.64	6.2
323.15	0.496	866.61	6.19
323.15	0.5961	890.84	6.26
323.15	0.6966	914.87	6.38
323.15	0.7974	940.8	6.43
323.15	0.8985	965.62	6.48
293.15	1	1016.47	4.01
298.15	1	1012.53	4.01
303.15	1	1008.47	4.01
308.15	1	1004.49	4.01
313.15	1	1000.5	4.01
318.15	1	996.39	4.01
323.15	1	992.41	4.01
293.15	0	785.1	4
298.15	0	780.91	4
303.15	0	776.57	4
308.15	0	772.24	4
313.15	0	767.82	4
318.15	0	763.19	4
323.15	0	758.55	4

System: butan-1-ol + 2-aminoethan-1-ol; phases: Liquid
Fixed: Pressure, kPa = 100
Property: Mass density, kg/m3 (Liquid); method: Vibrating tube method
Temperature, K	Mole fraction of 2-aminoethan-1-ol	Mass density, kg/m3	uncertainty
293.15	0.1188	828.26	5.08
293.15	0.2328	846.15	5.16
293.15	0.3421	864.71	5.37
293.15	0.4472	884.56	5.58
293.15	0.5482	904.81	5.78
293.15	0.6454	925.84	5.97
293.15	0.739	947.05	6.24
293.15	0.8291	969.79	6.57
293.15	0.9161	993.15	6.77
298.15	0.1188	824.33	5.07
298.15	0.2328	842.24	5.16
298.15	0.3421	860.76	5.37
298.15	0.4472	880.66	5.58
298.15	0.5482	900.83	5.77
298.15	0.6454	921.87	5.97
298.15	0.739	943.04	6.24
298.15	0.8291	965.8	6.57
298.15	0.9161	989.15	6.78
303.15	0.1188	820.32	5.07
303.15	0.2328	838.27	5.16
303.15	0.3421	856.75	5.37
303.15	0.4472	876.66	5.58
303.15	0.5482	896.78	5.77
303.15	0.6454	917.83	5.97
303.15	0.739	938.98	6.23
303.15	0.8291	961.75	6.57
303.15	0.9161	985.1	6.78
308.15	0.1188	816.39	5.07
308.15	0.2328	834.35	5.16
308.15	0.3421	852.81	5.37
308.15	0.4472	872.72	5.58
308.15	0.5482	892.82	5.77
308.15	0.6454	913.86	5.96
308.15	0.739	935	6.23
308.15	0.8291	957.78	6.57
308.15	0.9161	981.13	6.78
313.15	0.1188	812.46	5.07
313.15	0.2328	830.41	5.16
313.15	0.3421	848.84	5.37
313.15	0.4472	868.77	5.57
313.15	0.5482	888.83	5.76
313.15	0.6454	909.88	5.96
313.15	0.739	931	6.23
313.15	0.8291	953.79	6.57
313.15	0.9161	977.14	6.78
318.15	0.1188	808.37	5.06
318.15	0.2328	826.33	5.16
318.15	0.3421	844.74	5.37
318.15	0.4472	864.67	5.57
318.15	0.5482	884.72	5.76
318.15	0.6454	905.76	5.96
318.15	0.739	926.88	6.23
318.15	0.8291	949.68	6.57
318.15	0.9161	973.04	6.78
323.15	0.1188	804.35	5.06
323.15	0.2328	822.32	5.16
323.15	0.3421	840.73	5.37
323.15	0.4472	860.67	5.57
323.15	0.5482	880.7	5.76
323.15	0.6454	901.75	5.96
323.15	0.739	922.86	6.24
323.15	0.8291	945.68	6.58
323.15	0.9161	969.05	6.78
293.15	1	1016.47	4.01
298.15	1	1012.53	4.01
303.15	1	1008.47	4.01
308.15	1	1004.49	4.01
313.15	1	1000.5	4.01
318.15	1	996.39	4.01
323.15	1	992.41	4.01
293.15	0	809.77	4
298.15	0	805.92	4
303.15	0	802	4
308.15	0	798.14	4
313.15	0	794.24	4
318.15	0	790.2	4
323.15	0	786.21	4

System: 2-methyl-1-propanol + 2-aminoethan-1-ol; phases: Liquid
Fixed: Pressure, kPa = 100
Property: Mass density, kg/m3 (Liquid); method: Vibrating tube method
Temperature, K	Mole fraction of 2-aminoethan-1-ol	Mass density, kg/m3	uncertainty
293.15	0.1188	819.76	5.19
293.15	0.2328	840.36	5.38
293.15	0.3421	859.83	5.46
293.15	0.4472	880.16	5.68
293.15	0.5482	901.41	5.91
293.15	0.6454	923.2	6.2
293.15	0.739	946.54	6.23
293.15	0.8291	967.04	6.53
293.15	0.9161	992.18	7.04
298.15	0.1188	815.85	5.19
298.15	0.2328	836.42	5.38
298.15	0.3421	855.88	5.46
298.15	0.4472	876.22	5.68
298.15	0.5482	897.44	5.91
298.15	0.6454	919.26	6.19
298.15	0.739	942.54	6.23
298.15	0.8291	963.08	6.53
298.15	0.9161	988.22	7.04
303.15	0.1188	811.84	5.19
303.15	0.2328	832.41	5.37
303.15	0.3421	851.83	5.46
303.15	0.4472	872.2	5.68
303.15	0.5482	893.38	5.91
303.15	0.6454	915.22	6.19
303.15	0.739	938.44	6.23
303.15	0.8291	959.04	6.53
303.15	0.9161	984.12	7.04
308.15	0.1188	807.88	5.19
308.15	0.2328	828.46	5.37
308.15	0.3421	847.85	5.46
308.15	0.4472	868.25	5.68
308.15	0.5482	889.39	5.9
308.15	0.6454	911.26	6.19
308.15	0.739	934.38	6.23
308.15	0.8291	955.07	6.53
308.15	0.9161	980.15	7.04
313.15	0.1188	803.87	5.19
313.15	0.2328	824.49	5.37
313.15	0.3421	843.85	5.46
313.15	0.4472	864.27	5.68
313.15	0.5482	885.38	5.9
313.15	0.6454	907.27	6.19
313.15	0.739	930.38	6.23
313.15	0.8291	951.07	6.53
313.15	0.9161	976.15	7.04
318.15	0.1188	799.72	5.19
318.15	0.2328	820.35	5.37
318.15	0.3421	839.71	5.46
318.15	0.4472	860.15	5.68
318.15	0.5482	881.25	5.9
318.15	0.6454	903.15	6.18
318.15	0.739	926.19	6.23
318.15	0.8291	946.97	6.54
318.15	0.9161	972.04	7.04
323.15	0.1188	795.62	5.19
323.15	0.2328	816.29	5.38
323.15	0.3421	835.65	5.46
323.15	0.4472	856.12	5.68
323.15	0.5482	877.2	5.91
323.15	0.6454	899.14	6.18
323.15	0.739	922.11	6.23
323.15	0.8291	942.97	6.55
323.15	0.9161	968.05	7.04
293.15	1	1016.47	4.01
298.15	1	1012.53	4.01
303.15	1	1008.47	4.01
308.15	1	1004.49	4.01
313.15	1	1000.5	4.01
318.15	1	996.39	4.01
323.15	1	992.41	4.01
293.15	0	801.85	4.01
298.15	0	797.99	4.01
303.15	0	794.03	4.01
308.15	0	790.09	4.01
313.15	0	786.12	4.01
318.15	0	781.97	4.01
323.15	0	777.86	4.01

System: 2-methylpropan-2-ol + 2-aminoethan-1-ol; phases: Liquid
Fixed: Pressure, kPa = 100
Property: Mass density, kg/m3 (Liquid); method: Vibrating tube method
Temperature, K	Mole fraction of 2-aminoethan-1-ol	Mass density, kg/m3	uncertainty
298.15	0.1188	801.37	5.31
298.15	0.2328	821.17	5.46
298.15	0.3421	842.86	5.79
298.15	0.4472	865.97	5.93
298.15	0.5482	887.94	6.16
298.15	0.6454	912.32	6.63
298.15	0.739	938.36	6.79
298.15	0.8291	962.65	6.98
298.15	0.9161	988.97	7.08
303.15	0.1188	796.64	5.35
303.15	0.2328	816.75	5.49
303.15	0.3421	838.57	5.8
303.15	0.4472	861.74	5.94
303.15	0.5482	883.79	6.16
303.15	0.6454	908.2	6.63
303.15	0.739	934.25	6.79
303.15	0.8291	958.59	6.98
303.15	0.9161	984.91	7.08
308.15	0.1188	791.93	5.4
308.15	0.2328	812.34	5.52
308.15	0.3421	834.31	5.81
308.15	0.4472	857.55	5.95
308.15	0.5482	879.69	6.17
308.15	0.6454	904.13	6.64
308.15	0.739	930.2	6.8
308.15	0.8291	954.6	6.99
308.15	0.9161	980.92	7.08
313.15	0.1188	787.14	5.45
313.15	0.2328	807.85	5.55
313.15	0.3421	829.98	5.83
313.15	0.4472	853.33	5.97
313.15	0.5482	875.55	6.18
313.15	0.6454	900.04	6.64
313.15	0.739	926.15	6.81
313.15	0.8291	950.59	6.99
313.15	0.9161	976.92	7.08
318.15	0.1188	782.16	5.49
318.15	0.2328	803.17	5.58
318.15	0.3421	825.49	5.85
318.15	0.4472	848.95	5.98
318.15	0.5482	871.27	6.19
318.15	0.6454	895.8	6.65
318.15	0.739	921.97	6.82
318.15	0.8291	946.45	7
318.15	0.9161	972.81	7.09
323.15	0.1188	777.17	5.54
323.15	0.2328	798.52	5.61
323.15	0.3421	821.03	5.88
323.15	0.4472	844.64	6
323.15	0.5482	867.05	6.21
323.15	0.6454	891.65	6.66
323.15	0.739	917.86	6.83
323.15	0.8291	942.41	7.01
323.15	0.9161	968.8	7.09
298.15	1	1012.53	4.01
303.15	1	1008.47	4.01
308.15	1	1004.49	4.01
313.15	1	1000.5	4.01
318.15	1	996.39	4.01
323.15	1	992.41	4.01
298.15	0	780.61	4.01
303.15	0	775.42	4.01
308.15	0	770.21	4.01
313.15	0	764.92	4.01
318.15	0	759.42	4.01
323.15	0	753.95	4.01
