Measured thermophysical data. Isobaric specific heat capacity of water and aqueous cesium chloride solutions for temperatures between 298K and 370K at p = 0.1 MPa
Source: J. Chem. Thermodyn., 2006, 10.1016/j.jct.2005.10.010
Compound 1: cesium chloride, ClCs, InChI=1S/ClH.Cs/h1H;/q;+1/p-1
Compound 2: water, H2O, InChI=1S/H2O/h1H2

System: water; phases: Liquid
Fixed: Pressure, kPa = 101.325
Property: Molar heat capacity at constant pressure, J/K/mol (Liquid); method: Large sample (1 g) DSC
Temperature, K	Molar heat capacity at constant pressure, J/K/mol	uncertainty
299.62	74.956175496	1.34210232944
304.09	75.156145104	1.34570538544
310.02	74.954373968	1.34210232944
315.16	75.035442728	1.34390385744
320.06	74.831870064	1.34030080144
325.02	74.318434584	1.33129316144
330.16	74.73638908	1.33849927344
335.04	74.8534884	1.34030080144
340.09	75.075076344	1.34570538544
345.04	75.239015392	1.34750691344
350.2	75.903779224	1.36020768584
355.07	75.876756304	1.36020768584
360.03	75.626343912	1.35469501016
365.21	75.566893488	1.35469501016
370.11	75.855137968	1.35840615784

System: cesium chloride + water; phases: Liquid
Fixed: Pressure, kPa = 101.3
Property: Molar heat capacity at constant pressure, J/K/mol (Liquid); method: Large sample (1 g) DSC
Temperature, K	Molality, mol/kg of cesium chloride	Molar heat capacity at constant pressure, J/K/mol	uncertainty
299.85	2.01953	68.50732	1.2299
300.04	0.49553	75.71261	1.3561
300.19	3.19364	64.88656	1.1657
304.67	2.01953	68.97085	1.2369
305.04	0.49553	75.00843	1.3445
305.14	3.19364	67.09476	1.2049
310.08	3.19364	68.42544	1.2259
310.12	2.01953	69.8886	1.2532
310.17	0.49553	74.99102	1.3445
315.08	3.19364	68.17136	1.2207
315.12	0.49553	74.52286	1.3348
320.01	2.01953	68.50266	1.2275
320.06	3.19364	67.86226	1.2154
320.16	0.49553	75.41275	1.3523
325.11	0.49553	75.54237	1.3542
325.11	2.01953	70.07262	1.2555
325.11	3.19364	68.30495	1.2233
325.24	0.71564	73.52767	1.3173
330.16	0.49553	74.46869	1.3348
330.16	3.19364	68.92314	1.2338
330.21	2.01953	70.00973	1.2555
330.29	0.71564	74.52411	1.3352
335.04	3.19364	67.88322	1.2154
335.24	0.49553	75.10903	1.3464
335.31	0.71564	74.02788	1.3273
340.09	3.19364	68.37305	1.2259
340.12	0.49553	74.5306	1.3348
340.29	0.71564	74.48425	1.3352
340.49	2.01953	72.21092	1.2951
345.04	3.19364	69.65921	1.2469
345.2	0.49553	74.29845	1.331
345.32	0.71564	73.88639	1.3233
345.5	2.01953	71.23494	1.2765
350.32	0.49553	75.12451	1.3464
350.42	2.01953	71.00201	1.2718
350.54	3.19364	69.24009	1.2416
350.64	0.71564	74.75728	1.3392
355.28	0.49553	75.1632	1.3464
355.42	2.01953	70.70619	1.2671
355.58	0.71564	74.54603	1.3352
355.63	3.19364	69.23224	1.2416
360.38	2.01953	71.0882	1.2741
360.39	0.49553	75.10903	1.3464
360.63	0.71564	74.89878	1.3412
360.63	3.19364	69.00434	1.2364
365.35	0.49553	75.10709	1.3464
365.43	2.01953	70.51984	1.2625
365.61	3.19364	68.54856	1.2285
365.65	0.71564	74.88881	1.3412
370.33	0.49553	75.08001	1.3445
370.4	2.01953	71.11615	1.2765
370.56	3.19364	69.42608	1.2442
370.61	0.71564	73.62133	1.3193
