Measured thermophysical data. Enthalpy of cooperative hydrogen bonding in complexes of tertiary amines with aliphatic alcohols: Calorimetric study
Source: J. Chem. Thermodyn., 2011, 10.1016/j.jct.2011.02.019
Compound 1: potassium chloride, ClK, InChI=1S/ClH.K/h1H;/q;+1/p-1, purity 99.9%
Compound 2: water, H2O, InChI=1S/H2O/h1H2, purity 99.8%
Compound 3: tripropylamine, C9H21N, InChI=1S/C9H21N/c1-4-7-10(8-5-2)9-6-3/h4-9H2,1-3H3, purity 98%
Compound 4: 2-methylpyridine, C6H7N, InChI=1S/C6H7N/c1-6-4-2-3-5-7-6/h2-5H,1H3, purity 98%
Compound 5: 3-methylpyridine, C6H7N, InChI=1S/C6H7N/c1-6-3-2-4-7-5-6/h2-5H,1H3, purity 98%
Compound 6: 1-methylimidazole, C4H6N2, InChI=1S/C4H6N2/c1-6-3-2-5-4-6/h2-4H,1H3, purity 98%
Compound 7: methanol, CH4O, InChI=1S/CH4O/c1-2/h2H,1H3, purity 98%
Compound 8: ethanol, C2H6O, InChI=1S/C2H6O/c1-2-3/h3H,2H2,1H3, purity 98%
Compound 9: propan-1-ol, C3H8O, InChI=1S/C3H8O/c1-2-3-4/h4H,2-3H2,1H3, purity 98%
Compound 10: butan-1-ol, C4H10O, InChI=1S/C4H10O/c1-2-3-4-5/h5H,2-4H2,1H3, purity 98%
Compound 11: hexan-1-ol, C6H14O, InChI=1S/C6H14O/c1-2-3-4-5-6-7/h7H,2-6H2,1H3, purity 98%
Compound 12: octan-1-ol, C8H18O, InChI=1S/C8H18O/c1-2-3-4-5-6-7-8-9/h9H,2-8H2,1H3, purity 98%

System: potassium chloride + water; phases: Liquid
Fixed: Temperature, K = 298.15
Fixed: Pressure, kPa = 101
Property: Molar enthalpy of solution, kJ/mol (Liquid); method: adiabatic solution calorimetry
Molality, mol/kg of potassium chloride	Molar enthalpy of solution, kJ/mol	uncertainty
0.0277	17.4	0.15
0.0277	17.47	0.15
0.0278	17.42	0.15
0.0278	17.39	0.15
0.0279	17.37	0.15
0.0279	17.44	0.15
0.0279	17.35	0.15
0.0279	17.41	0.15

System: methanol + tripropylamine; phases: Liquid
Property: Molar enthalpy of solution, kJ/mol (Liquid); method: adiabatic solution calorimetry
Temperature, K	Pressure, kPa	Mole fraction of tripropylamine	Molar enthalpy of solution, kJ/mol	uncertainty
298.15	101	0	-8.32	0.21

System: methanol + tripropylamine; phases: Liquid
Property: Molar enthalpy of solution, kJ/mol (Liquid); method: adiabatic solution calorimeter
Temperature, K	Pressure, kPa	Mole fraction of methanol	Molar enthalpy of solution, kJ/mol	uncertainty
298.15	101	0	-1.45	0.14

System: methanol + 2-methylpyridine; phases: Liquid
Property: Molar enthalpy of solution, kJ/mol (Liquid); method: adiabatic solution calorimeter
Temperature, K	Mole fraction of methanol	Pressure, kPa	Molar enthalpy of solution, kJ/mol	uncertainty
298.15	0	100	-3.72	0.12

System: methanol + 3-methylpyridine; phases: Liquid
Property: Molar enthalpy of solution, kJ/mol (Liquid); method: adiabatic solution calorimeter
Temperature, K	Mole fraction of methanol	Pressure, kPa	Molar enthalpy of solution, kJ/mol	uncertainty
298.15	0	100	-2.83	0.08

System: methanol + 3-methylpyridine; phases: Liquid
Property: Molar enthalpy of solution, kJ/mol (Liquid); method: adiabatic solution calorimetry
Temperature, K	Mole fraction of 3-methylpyridine	Pressure, kPa	Molar enthalpy of solution, kJ/mol	uncertainty
298.15	0	100	-5.32	0.04

System: methanol + 1-methylimidazole; phases: Liquid
Property: Molar enthalpy of solution, kJ/mol (Liquid); method: adiabatic solution calorimeter
Temperature, K	Mole fraction of methanol	Pressure, kPa	Molar enthalpy of solution, kJ/mol	uncertainty
298.15	0	100	-5.51	0.13

System: ethanol + tripropylamine; phases: Liquid
Property: Molar enthalpy of solution, kJ/mol (Liquid); method: adiabatic solution calorimeter
Temperature, K	Mole fraction of ethanol	Pressure, kPa	Molar enthalpy of solution, kJ/mol	uncertainty
298.15	0	100	1.01	0.16

System: ethanol + tripropylamine; phases: Liquid
Property: Molar enthalpy of solution, kJ/mol (Liquid); method: adiabatic solution calorimetry
Temperature, K	Mole fraction of tripropylamine	Pressure, kPa	Molar enthalpy of solution, kJ/mol	uncertainty
298.15	0	100	-5.67	0.06

System: ethanol + 2-methylpyridine; phases: Liquid
Property: Molar enthalpy of solution, kJ/mol (Liquid); method: adiabatic solution calorimeter
Temperature, K	Mole fraction of ethanol	Pressure, kPa	Molar enthalpy of solution, kJ/mol	uncertainty
298.15	0	100	-2.08	0.04

System: ethanol + 2-methylpyridine; phases: Liquid
Property: Molar enthalpy of solution, kJ/mol (Liquid); method: adiabatic solution calorimetry
Temperature, K	Mole fraction of 2-methylpyridine	Pressure, kPa	Molar enthalpy of solution, kJ/mol	uncertainty
298.15	0	100	-5.84	0.06

System: ethanol + 3-methylpyridine; phases: Liquid
Property: Molar enthalpy of solution, kJ/mol (Liquid); method: adiabatic solution calorimeter
Temperature, K	Mole fraction of ethanol	Pressure, kPa	Molar enthalpy of solution, kJ/mol	uncertainty
298.15	0	100	-0.93	0.12

System: ethanol + 3-methylpyridine; phases: Liquid
Property: Molar enthalpy of solution, kJ/mol (Liquid); method: adiabatic solution calorimetry
Temperature, K	Mole fraction of 3-methylpyridine	Pressure, kPa	Molar enthalpy of solution, kJ/mol	uncertainty
298.15	0	100	-3.69	0.14

System: ethanol + 1-methylimidazole; phases: Liquid
Property: Molar enthalpy of solution, kJ/mol (Liquid); method: adiabatic solution calorimeter
Temperature, K	Mole fraction of ethanol	Pressure, kPa	Molar enthalpy of solution, kJ/mol	uncertainty
298.15	0	100	-3.58	0.24

System: ethanol + 1-methylimidazole; phases: Liquid
Property: Molar enthalpy of solution, kJ/mol (Liquid); method: adiabatic solution calorimetry
Temperature, K	Mole fraction of 1-methylimidazole	Pressure, kPa	Molar enthalpy of solution, kJ/mol	uncertainty
298.15	0	101	-5.01	0.22

System: propan-1-ol + tripropylamine; phases: Liquid
Property: Molar enthalpy of solution, kJ/mol (Liquid); method: adiabatic solution calorimeter
Temperature, K	Mole fraction of propan-1-ol	Pressure, kPa	Molar enthalpy of solution, kJ/mol	uncertainty
298.15	0	100	0.55	0.18

System: propan-1-ol + tripropylamine; phases: Liquid
Property: Molar enthalpy of solution, kJ/mol (Liquid); method: adiabatic solution calorimetry
Temperature, K	Mole fraction of tripropylamine	Pressure, kPa	Molar enthalpy of solution, kJ/mol	uncertainty
298.15	0	100	-5.43	0.04

System: propan-1-ol + 2-methylpyridine; phases: Liquid
Property: Molar enthalpy of solution, kJ/mol (Liquid); method: adiabatic solution calorimeter
Temperature, K	Mole fraction of propan-1-ol	Pressure, kPa	Molar enthalpy of solution, kJ/mol	uncertainty
298.15	0	101	-1.95	0.04

System: propan-1-ol + 2-methylpyridine; phases: Liquid
Property: Molar enthalpy of solution, kJ/mol (Liquid); method: adiabatic solution calorimetry
Temperature, K	Mole fraction of 2-methylpyridine	Pressure, kPa	Molar enthalpy of solution, kJ/mol	uncertainty
298.15	0	100	-4.54	0.05

System: propan-1-ol + 3-methylpyridine; phases: Liquid
Property: Molar enthalpy of solution, kJ/mol (Liquid); method: adiabatic solution calorimeter
Temperature, K	Mole fraction of propan-1-ol	Pressure, kPa	Molar enthalpy of solution, kJ/mol	uncertainty
298.15	0	101	-0.7	0.28

System: propan-1-ol + 3-methylpyridine; phases: Liquid
Property: Molar enthalpy of solution, kJ/mol (Liquid); method: adiabatic solution calorimetry
Temperature, K	Mole fraction of 3-methylpyridine	Pressure, kPa	Molar enthalpy of solution, kJ/mol	uncertainty
298.15	0	100	-2.07	0.04

System: propan-1-ol + 1-methylimidazole; phases: Liquid
Property: Molar enthalpy of solution, kJ/mol (Liquid); method: adiabatic solution calorimeter
Temperature, K	Mole fraction of propan-1-ol	Pressure, kPa	Molar enthalpy of solution, kJ/mol	uncertainty
298.15	0	100	-2.99	0.06

System: butan-1-ol + tripropylamine; phases: Liquid
Property: Molar enthalpy of solution, kJ/mol (Liquid); method: adiabatic solution calorimeter
Temperature, K	Mole fraction of butan-1-ol	Pressure, kPa	Molar enthalpy of solution, kJ/mol	uncertainty
298.15	0	101	0.61	0.1

System: butan-1-ol + tripropylamine; phases: Liquid
Property: Molar enthalpy of solution, kJ/mol (Liquid); method: adiabatic solution calorimetry
Temperature, K	Mole fraction of tripropylamine	Pressure, kPa	Molar enthalpy of solution, kJ/mol	uncertainty
298.15	0	100	-5.2	0.05

System: butan-1-ol + 2-methylpyridine; phases: Liquid
Property: Molar enthalpy of solution, kJ/mol (Liquid); method: adiabatic solution calorimeter
Temperature, K	Mole fraction of butan-1-ol	Pressure, kPa	Molar enthalpy of solution, kJ/mol	uncertainty
298.15	0	100	-1.45	0.16

System: butan-1-ol + 2-methylpyridine; phases: Liquid
Property: Molar enthalpy of solution, kJ/mol (Liquid); method: adiabatic solution calorimetry
Temperature, K	Mole fraction of 2-methylpyridine	Pressure, kPa	Molar enthalpy of solution, kJ/mol	uncertainty
298.15	0	100	-3.69	0.03

System: butan-1-ol + 3-methylpyridine; phases: Liquid
Property: Molar enthalpy of solution, kJ/mol (Liquid); method: adiabatic solution calorimeter
Temperature, K	Mole fraction of butan-1-ol	Pressure, kPa	Molar enthalpy of solution, kJ/mol	uncertainty
298.15	0	101	0.03	0.04

System: butan-1-ol + 3-methylpyridine; phases: Liquid
Property: Molar enthalpy of solution, kJ/mol (Liquid); method: adiabatic solution calorimetry
Temperature, K	Mole fraction of 3-methylpyridine	Pressure, kPa	Molar enthalpy of solution, kJ/mol	uncertainty
298.15	0	100	-1.51	0.02

System: butan-1-ol + 1-methylimidazole; phases: Liquid
Property: Molar enthalpy of solution, kJ/mol (Liquid); method: adiabatic solution calorimeter
Temperature, K	Mole fraction of butan-1-ol	Pressure, kPa	Molar enthalpy of solution, kJ/mol	uncertainty
298.15	0	100	-1.31	0.26

System: tripropylamine + hexan-1-ol; phases: Liquid
Property: Molar enthalpy of solution, kJ/mol (Liquid); method: adiabatic solution calorimeter
Temperature, K	Mole fraction of hexan-1-ol	Pressure, kPa	Molar enthalpy of solution, kJ/mol	uncertainty
298.15	0	100	0.39	0.1

System: tripropylamine + hexan-1-ol; phases: Liquid
Property: Molar enthalpy of solution, kJ/mol (Liquid); method: adiabatic solution calorimetry
Temperature, K	Mole fraction of tripropylamine	Pressure, kPa	Molar enthalpy of solution, kJ/mol	uncertainty
298.15	0	100	-4.7	0.04

System: 2-methylpyridine + hexan-1-ol; phases: Liquid
Property: Molar enthalpy of solution, kJ/mol (Liquid); method: adiabatic solution calorimeter
Temperature, K	Mole fraction of hexan-1-ol	Pressure, kPa	Molar enthalpy of solution, kJ/mol	uncertainty
298.15	0	101	-0.93	0.04

System: 2-methylpyridine + hexan-1-ol; phases: Liquid
Property: Molar enthalpy of solution, kJ/mol (Liquid); method: adiabatic solution calorimetry
Temperature, K	Mole fraction of 2-methylpyridine	Pressure, kPa	Molar enthalpy of solution, kJ/mol	uncertainty
298.15	0	101	-3.59	0.03

System: 3-methylpyridine + hexan-1-ol; phases: Liquid
Property: Molar enthalpy of solution, kJ/mol (Liquid); method: adiabatic solution calorimeter
Temperature, K	Mole fraction of hexan-1-ol	Pressure, kPa	Molar enthalpy of solution, kJ/mol	uncertainty
298.15	0	100	0.72	0.08

System: 3-methylpyridine + hexan-1-ol; phases: Liquid
Property: Molar enthalpy of solution, kJ/mol (Liquid); method: adiabatic solution calorimetry
Temperature, K	Mole fraction of 3-methylpyridine	Pressure, kPa	Molar enthalpy of solution, kJ/mol	uncertainty
298.15	0	101	-1.31	0.02

System: hexan-1-ol + 1-methylimidazole; phases: Liquid
Property: Molar enthalpy of solution, kJ/mol (Liquid); method: adiabatic solution calorimeter
Temperature, K	Mole fraction of hexan-1-ol	Pressure, kPa	Molar enthalpy of solution, kJ/mol	uncertainty
298.15	0	100	0.44	0.22

System: hexan-1-ol + 1-methylimidazole; phases: Liquid
Property: Molar enthalpy of solution, kJ/mol (Liquid); method: adiabatic solution calorimetry
Temperature, K	Mole fraction of 1-methylimidazole	Pressure, kPa	Molar enthalpy of solution, kJ/mol	uncertainty
298.15	0	100	-1.83	0.04

System: tripropylamine + octan-1-ol; phases: Liquid
Property: Molar enthalpy of solution, kJ/mol (Liquid); method: adiabatic solution calorimeter
Temperature, K	Mole fraction of octan-1-ol	Pressure, kPa	Molar enthalpy of solution, kJ/mol	uncertainty
298.15	0	100	-0.07	0.04

System: tripropylamine + octan-1-ol; phases: Liquid
Property: Molar enthalpy of solution, kJ/mol (Liquid); method: adiabatic solution calorimetry
Temperature, K	Mole fraction of tripropylamine	Pressure, kPa	Molar enthalpy of solution, kJ/mol	uncertainty
298.15	0	100	-3.21	0.1

System: 2-methylpyridine + octan-1-ol; phases: Liquid
Property: Molar enthalpy of solution, kJ/mol (Liquid); method: adiabatic solution calorimeter
Temperature, K	Mole fraction of octan-1-ol	Pressure, kPa	Molar enthalpy of solution, kJ/mol	uncertainty
298.15	0	100	-0.57	0.04

System: 2-methylpyridine + octan-1-ol; phases: Liquid
Property: Molar enthalpy of solution, kJ/mol (Liquid); method: adiabatic solution calorimetry
Temperature, K	Mole fraction of 2-methylpyridine	Pressure, kPa	Molar enthalpy of solution, kJ/mol	uncertainty
298.15	0	100	-3	0.16

System: 3-methylpyridine + octan-1-ol; phases: Liquid
Property: Molar enthalpy of solution, kJ/mol (Liquid); method: adiabatic solution calorimeter
Temperature, K	Mole fraction of octan-1-ol	Pressure, kPa	Molar enthalpy of solution, kJ/mol	uncertainty
298.15	0	100	1.32	0.12

System: 3-methylpyridine + octan-1-ol; phases: Liquid
Property: Molar enthalpy of solution, kJ/mol (Liquid); method: adiabatic solution calorimetry
Temperature, K	Mole fraction of 3-methylpyridine	Pressure, kPa	Molar enthalpy of solution, kJ/mol	uncertainty
298.15	0	100	-1.06	0.02

System: octan-1-ol + 1-methylimidazole; phases: Liquid
Property: Molar enthalpy of solution, kJ/mol (Liquid); method: adiabatic solution calorimeter
Temperature, K	Mole fraction of octan-1-ol	Pressure, kPa	Molar enthalpy of solution, kJ/mol	uncertainty
298.15	0	100	2.97	0.16
