Measured thermophysical data. Densities, viscosities, and excess properties of (N-methylmorpholine + cyclohexane, + benzene, and + toluene) at T = (298.15, 303.15, 313.15, 323.15) K
Source: J. Chem. Thermodyn., 2008, 10.1016/j.jct.2007.11.002
Compound 1: N-methylmorpholine, C5H11NO, InChI=1S/C5H11NO/c1-6-2-4-7-5-3-6/h2-5H2,1H3, purity 98%
Compound 2: benzene, C6H6, InChI=1S/C6H6/c1-2-4-6-5-3-1/h1-6H, purity 99.8%
Compound 3: toluene, C7H8, InChI=1S/C7H8/c1-7-5-3-2-4-6-7/h2-6H,1H3, purity 99%
Compound 4: cyclohexane, C6H12, InChI=1S/C6H12/c1-2-4-6-5-3-1/h1-6H2, purity 99%

System: N-methylmorpholine; phases: Liquid
Fixed: Pressure, kPa = 101.325
Property: Viscosity, Pa*s (Liquid); method: Capillary tube (Ostwald; Ubbelohde) method
Temperature, K	Viscosity, Pa*s	uncertainty
298.15	0.000881	1.2e-05
303.15	0.000864	1.2e-05
313.15	0.000833	1.1e-05
323.15	0.000814	1.1e-05

System: N-methylmorpholine; phases: Liquid
Fixed: Pressure, kPa = 101.325
Property: Mass density, kg/m3 (Liquid); method: Vibrating tube method
Temperature, K	Mass density, kg/m3	uncertainty
298.15	914.06	0.74
303.15	909.44	0.73
313.15	899.76	0.72
323.15	890.85	0.71

System: benzene; phases: Liquid
Fixed: Pressure, kPa = 101.325
Property: Viscosity, Pa*s (Liquid); method: Capillary tube (Ostwald; Ubbelohde) method
Temperature, K	Viscosity, Pa*s	uncertainty
298.15	0.000601	7e-06
303.15	0.000563	7e-06
313.15	0.000494	7e-06
323.15	0.000436	7e-06

System: benzene; phases: Liquid
Fixed: Pressure, kPa = 101.325
Property: Mass density, kg/m3 (Liquid); method: Vibrating tube method
Temperature, K	Mass density, kg/m3	uncertainty
298.15	873.58	0.09
303.15	868.23	0.09
313.15	857.38	0.1
323.15	846.62	0.1

System: toluene; phases: Liquid
Fixed: Pressure, kPa = 101.325
Property: Viscosity, Pa*s (Liquid); method: Capillary tube (Ostwald; Ubbelohde) method
Temperature, K	Viscosity, Pa*s	uncertainty
298.15	0.000553	7e-06
303.15	0.000523	7e-06
313.15	0.000471	7e-06
323.15	0.000422	7e-06

System: toluene; phases: Liquid
Fixed: Pressure, kPa = 101.325
Property: Mass density, kg/m3 (Liquid); method: Vibrating tube method
Temperature, K	Mass density, kg/m3	uncertainty
298.15	862.11	0.23
303.15	857.62	0.23
313.15	847.87	0.25
323.15	838.42	0.29

System: cyclohexane; phases: Liquid
Fixed: Pressure, kPa = 101.325
Property: Viscosity, Pa*s (Liquid); method: Capillary tube (Ostwald; Ubbelohde) method
Temperature, K	Viscosity, Pa*s	uncertainty
298.15	0.000904	9e-06
303.15	0.000809	9e-06
313.15	0.000698	8e-06
323.15	0.000604	8e-06

System: cyclohexane; phases: Liquid
Fixed: Pressure, kPa = 101.325
Property: Mass density, kg/m3 (Liquid); method: Vibrating tube method
Temperature, K	Mass density, kg/m3	uncertainty
298.15	773.25	0.24
303.15	769.18	0.24
313.15	759.58	0.24
323.15	750.03	0.24

System: benzene + N-methylmorpholine; phases: Liquid
Fixed: Pressure, kPa = 101
Property: Viscosity, Pa*s (Liquid); method: Capillary tube (Ostwald; Ubbelohde) method
Temperature, K	Mole fraction of benzene	Viscosity, Pa*s	uncertainty
298.15	0.0554	0.000847	1.1e-05
298.15	0.1167	0.000814	1.1e-05
298.15	0.1798	0.000783	1e-05
298.15	0.2477	0.000753	9e-06
298.15	0.2855	0.000737	9e-06
298.15	0.3422	0.000715	9e-06
298.15	0.3762	0.000704	9e-06
298.15	0.4244	0.000687	8e-06
298.15	0.479	0.000672	8e-06
298.15	0.5466	0.000655	8e-06
298.15	0.5911	0.000646	8e-06
298.15	0.6201	0.000641	8e-06
298.15	0.6822	0.000631	8e-06
298.15	0.7094	0.000628	7e-06
298.15	0.7655	0.000625	7e-06
298.15	0.7901	0.000621	7e-06
298.15	0.8439	0.000618	7e-06
298.15	0.8933	0.000613	7e-06
298.15	0.9278	0.00061	7e-06
298.15	0.9641	0.000606	7e-06
303.15	0.0554	0.000836	1.1e-05
303.15	0.1167	0.000805	1e-05
303.15	0.1798	0.000772	1e-05
303.15	0.2477	0.000741	9e-06
303.15	0.2855	0.000725	9e-06
303.15	0.3422	0.0007	9e-06
303.15	0.3762	0.000688	9e-06
303.15	0.4244	0.000671	8e-06
303.15	0.479	0.000656	8e-06
303.15	0.5466	0.000637	8e-06
303.15	0.5911	0.000628	8e-06
303.15	0.6201	0.000622	8e-06
303.15	0.6822	0.00061	7e-06
303.15	0.7094	0.000606	7e-06
303.15	0.7655	0.0006	7e-06
303.15	0.7901	0.000597	7e-06
303.15	0.8439	0.000589	7e-06
303.15	0.8933	0.000583	7e-06
303.15	0.9278	0.000578	7e-06
303.15	0.9641	0.000571	7e-06
313.15	0.0554	0.000811	1.1e-05
313.15	0.1167	0.000781	1e-05
313.15	0.1798	0.000746	1e-05
313.15	0.2477	0.000713	9e-06
313.15	0.2855	0.000695	9e-06
313.15	0.3422	0.000668	9e-06
313.15	0.3762	0.000654	8e-06
313.15	0.4244	0.000636	8e-06
313.15	0.479	0.000617	8e-06
313.15	0.5466	0.000598	8e-06
313.15	0.5911	0.000587	8e-06
313.15	0.6201	0.000579	7e-06
313.15	0.6822	0.000565	7e-06
313.15	0.7094	0.000561	7e-06
313.15	0.7655	0.000551	7e-06
313.15	0.7901	0.000548	7e-06
313.15	0.8439	0.000535	7e-06
313.15	0.8933	0.000521	7e-06
313.15	0.9278	0.000512	7e-06
313.15	0.9641	0.000503	7e-06
323.15	0.0554	0.000789	1.1e-05
323.15	0.1167	0.000761	1e-05
323.15	0.1798	0.000731	1e-05
323.15	0.2477	0.000695	9e-06
323.15	0.2855	0.000676	9e-06
323.15	0.3422	0.000647	8e-06
323.15	0.3762	0.000632	8e-06
323.15	0.4244	0.000613	8e-06
323.15	0.479	0.000592	8e-06
323.15	0.5466	0.000568	8e-06
323.15	0.5911	0.000556	7e-06
323.15	0.6201	0.000548	7e-06
323.15	0.6822	0.000531	7e-06
323.15	0.7094	0.000525	7e-06
323.15	0.7655	0.000509	7e-06
323.15	0.7901	0.000503	7e-06
323.15	0.8439	0.000486	7e-06
323.15	0.8933	0.000468	7e-06
323.15	0.9278	0.000458	7e-06
323.15	0.9641	0.000448	7e-06

System: benzene + N-methylmorpholine; phases: Liquid
Fixed: Pressure, kPa = 101
Property: Mass density, kg/m3 (Liquid); method: VIBTUB:UFactor:6
Temperature, K	Mole fraction of benzene	Mass density, kg/m3	uncertainty
298.15	0.0554	912.69	1
298.15	0.1167	911.11	0.93
298.15	0.1798	909.39	0.86
298.15	0.2477	907.18	0.8
298.15	0.2855	906.2	0.77
298.15	0.3422	904.33	0.72
298.15	0.3762	903.31	0.7
298.15	0.4244	901.72	0.66
298.15	0.479	899.69	0.63
298.15	0.5466	897	0.59
298.15	0.5911	895.2	0.57
298.15	0.6201	893.8	0.56
298.15	0.6822	891	0.54
298.15	0.7094	889.5	0.53
298.15	0.7655	886.8	0.51
298.15	0.7901	885.2	0.51
298.15	0.8439	882.2	0.5
298.15	0.8933	879.6	0.49
298.15	0.9278	877.5	0.49
298.15	0.9641	875.4	0.49
303.15	0.0554	907.91	1
303.15	0.1167	906.07	0.93
303.15	0.1798	904.33	0.87
303.15	0.2477	902.35	0.81
303.15	0.2855	901.15	0.78
303.15	0.3422	899.41	0.73
303.15	0.3762	898.32	0.71
303.15	0.4244	896.71	0.67
303.15	0.479	894.8	0.64
303.15	0.5466	892.15	0.6
303.15	0.5911	890.3	0.58
303.15	0.6201	889.05	0.57
303.15	0.6822	886.21	0.55
303.15	0.7094	884.9	0.54
303.15	0.7655	882.04	0.52
303.15	0.7901	880.63	0.52
303.15	0.8439	877.64	0.51
303.15	0.8933	874.81	0.5
303.15	0.9278	872.82	0.5
303.15	0.9641	870.63	0.5
313.15	0.0554	898.27	1.01
313.15	0.1167	896.38	0.95
313.15	0.1798	894.47	0.88
313.15	0.2477	892.51	0.82
313.15	0.2855	891.26	0.79
313.15	0.3422	889.48	0.75
313.15	0.3762	888.33	0.72
313.15	0.4244	886.67	0.69
313.15	0.479	884.72	0.66
313.15	0.5466	881.97	0.62
313.15	0.5911	880.1	0.6
313.15	0.6201	878.76	0.59
313.15	0.6822	875.84	0.57
313.15	0.7094	874.61	0.56
313.15	0.7655	871.56	0.55
313.15	0.7901	870.14	0.54
313.15	0.8439	867.09	0.53
313.15	0.8933	864.21	0.53
313.15	0.9278	862.18	0.53
313.15	0.9641	859.95	0.53
323.15	0.0554	879.87	1.03
323.15	0.1167	878.41	0.97
323.15	0.1798	876.92	0.91
323.15	0.2477	875.44	0.85
323.15	0.2855	874.46	0.82
323.15	0.3422	873.1	0.78
323.15	0.3762	872.2	0.75
323.15	0.4244	870.91	0.72
323.15	0.479	869.39	0.69
323.15	0.5466	867.18	0.65
323.15	0.5911	865.69	0.63
323.15	0.6201	864.58	0.62
323.15	0.6822	862.22	0.6
323.15	0.7094	861.22	0.59
323.15	0.7655	858.69	0.57
323.15	0.7901	857.49	0.57
323.15	0.8439	854.96	0.56
323.15	0.8933	852.55	0.55
323.15	0.9278	850.86	0.55
323.15	0.9641	848.96	0.55

System: toluene + N-methylmorpholine; phases: Liquid
Fixed: Pressure, kPa = 101
Property: Viscosity, Pa*s (Liquid); method: Capillary tube (Ostwald; Ubbelohde) method
Temperature, K	Mole fraction of toluene	Viscosity, Pa*s	uncertainty
298.15	0.0457	0.000847	1.1e-05
298.15	0.1167	0.000806	1.1e-05
298.15	0.1822	0.000772	1e-05
298.15	0.2455	0.000739	1e-05
298.15	0.2843	0.000721	1e-05
298.15	0.3211	0.000704	9e-06
298.15	0.3862	0.000678	9e-06
298.15	0.4327	0.000659	9e-06
298.15	0.4841	0.000643	9e-06
298.15	0.5512	0.000622	8e-06
298.15	0.5943	0.000612	8e-06
298.15	0.6341	0.000602	8e-06
298.15	0.6877	0.000594	8e-06
298.15	0.7129	0.000588	8e-06
298.15	0.7648	0.000583	8e-06
298.15	0.7895	0.000581	8e-06
298.15	0.8444	0.000571	8e-06
298.15	0.8873	0.000569	8e-06
298.15	0.9348	0.000558	8e-06
298.15	0.9741	0.000554	7e-06
303.15	0.0457	0.000839	1.1e-05
303.15	0.1167	0.000798	1.1e-05
303.15	0.1822	0.000765	1e-05
303.15	0.2455	0.000732	1e-05
303.15	0.2843	0.000712	1e-05
303.15	0.3211	0.000692	9e-06
303.15	0.3862	0.000664	9e-06
303.15	0.4327	0.000645	9e-06
303.15	0.4841	0.000627	9e-06
303.15	0.5512	0.000606	8e-06
303.15	0.5943	0.000594	8e-06
303.15	0.6341	0.000586	8e-06
303.15	0.6877	0.000575	8e-06
303.15	0.7129	0.000571	8e-06
303.15	0.7648	0.000561	8e-06
303.15	0.7895	0.000559	8e-06
303.15	0.8444	0.000549	8e-06
303.15	0.8873	0.000543	8e-06
303.15	0.9348	0.000536	7e-06
303.15	0.9741	0.000527	7e-06
313.15	0.0457	0.000807	1.1e-05
313.15	0.1167	0.000774	1e-05
313.15	0.1822	0.000739	1e-05
313.15	0.2455	0.000705	1e-05
313.15	0.2843	0.000684	9e-06
313.15	0.3211	0.000664	9e-06
313.15	0.3862	0.000634	9e-06
313.15	0.4327	0.000614	9e-06
313.15	0.4841	0.000596	8e-06
313.15	0.5512	0.000573	8e-06
313.15	0.5943	0.00056	8e-06
313.15	0.6341	0.000551	8e-06
313.15	0.6877	0.000539	8e-06
313.15	0.7129	0.000535	8e-06
313.15	0.7648	0.000524	8e-06
313.15	0.7895	0.000521	8e-06
313.15	0.8444	0.00051	7e-06
313.15	0.8873	0.000503	7e-06
313.15	0.9348	0.00049	7e-06
313.15	0.9741	0.000477	7e-06
323.15	0.0457	0.000795	1.1e-05
323.15	0.1167	0.000759	1e-05
323.15	0.1822	0.000723	1e-05
323.15	0.2455	0.000687	9e-06
323.15	0.2843	0.000665	9e-06
323.15	0.3211	0.000643	9e-06
323.15	0.3862	0.000612	9e-06
323.15	0.4327	0.00059	8e-06
323.15	0.4841	0.00057	8e-06
323.15	0.5512	0.000546	8e-06
323.15	0.5943	0.000531	8e-06
323.15	0.6341	0.000521	8e-06
323.15	0.6877	0.000507	8e-06
323.15	0.7129	0.000503	8e-06
323.15	0.7648	0.000488	7e-06
323.15	0.7895	0.000487	7e-06
323.15	0.8444	0.000474	7e-06
323.15	0.8873	0.000458	7e-06
323.15	0.9348	0.000444	7e-06
323.15	0.9741	0.000429	7e-06

System: toluene + N-methylmorpholine; phases: Liquid
Fixed: Pressure, kPa = 101
Property: Mass density, kg/m3 (Liquid); method: VIBTUB:UFactor:6
Temperature, K	Mole fraction of toluene	Mass density, kg/m3	uncertainty
298.15	0.0457	912.04	1.03
298.15	0.1167	908.88	0.99
298.15	0.1822	905.97	0.95
298.15	0.2455	903.08	0.92
298.15	0.2843	901.28	0.9
298.15	0.3211	899.58	0.88
298.15	0.3862	896.61	0.85
298.15	0.4327	894.39	0.83
298.15	0.4841	891.92	0.8
298.15	0.5512	888.55	0.78
298.15	0.5943	886.32	0.76
298.15	0.6341	884.21	0.75
298.15	0.6877	881.26	0.73
298.15	0.7129	879.83	0.72
298.15	0.7648	876.73	0.71
298.15	0.7895	875.15	0.7
298.15	0.8444	871.87	0.69
298.15	0.8873	869.14	0.68
298.15	0.9348	866.19	0.67
298.15	0.9741	863.67	0.66
303.15	0.0457	907.63	1.04
303.15	0.1167	904.69	0.99
303.15	0.1822	901.78	0.96
303.15	0.2455	898.89	0.92
303.15	0.2843	897.11	0.9
303.15	0.3211	895.42	0.88
303.15	0.3862	892.43	0.85
303.15	0.4327	890.21	0.83
303.15	0.4841	887.74	0.81
303.15	0.5512	884.36	0.78
303.15	0.5943	882.15	0.77
303.15	0.6341	880.05	0.76
303.15	0.6877	877.11	0.74
303.15	0.7129	875.68	0.73
303.15	0.7648	872.59	0.72
303.15	0.7895	871.01	0.71
303.15	0.8444	867.75	0.7
303.15	0.8873	865.03	0.69
303.15	0.9348	862.08	0.68
303.15	0.9741	859.57	0.67
313.15	0.0457	898.17	1.05
313.15	0.1167	895.22	1
313.15	0.1822	892.37	0.97
313.15	0.2455	889.47	0.93
313.15	0.2843	887.68	0.91
313.15	0.3211	885.99	0.9
313.15	0.3862	882.99	0.87
313.15	0.4327	880.77	0.85
313.15	0.4841	878.29	0.83
313.15	0.5512	874.87	0.8
313.15	0.5943	872.61	0.79
313.15	0.6341	870.53	0.77
313.15	0.6877	867.65	0.75
313.15	0.7129	866.2	0.75
313.15	0.7648	863.14	0.73
313.15	0.7895	861.57	0.73
313.15	0.8444	858.32	0.71
313.15	0.8873	855.6	0.7
313.15	0.9348	852.67	0.7
313.15	0.9741	850.02	0.69
323.15	0.0457	879.98	1.06
323.15	0.1167	877.67	1.02
323.15	0.1822	875.42	0.99
323.15	0.2455	873.11	0.96
323.15	0.2843	871.67	0.94
323.15	0.3211	870.33	0.92
323.15	0.3862	867.93	0.89
323.15	0.4327	866.14	0.87
323.15	0.4841	864.14	0.85
323.15	0.5512	861.34	0.82
323.15	0.5943	859.47	0.81
323.15	0.6341	857.79	0.79
323.15	0.6877	855.41	0.78
323.15	0.7129	854.17	0.77
323.15	0.7648	851.63	0.75
323.15	0.7895	850.28	0.75
323.15	0.8444	847.56	0.73
323.15	0.8873	845.26	0.72
323.15	0.9348	842.77	0.71
323.15	0.9741	840.51	0.71

System: N-methylmorpholine + cyclohexane; phases: Liquid
Fixed: Pressure, kPa = 101
Property: Viscosity, Pa*s (Liquid); method: Capillary tube (Ostwald; Ubbelohde) method
Temperature, K	Mole fraction of cyclohexane	Viscosity, Pa*s	uncertainty
298.15	0.0453	0.000868	1.2e-05
298.15	0.1276	0.00085	1.1e-05
298.15	0.1689	0.00084	1.1e-05
298.15	0.2217	0.00083	1.1e-05
298.15	0.2763	0.000824	1e-05
298.15	0.3217	0.000821	1e-05
298.15	0.3873	0.000819	1e-05
298.15	0.4326	0.000819	1e-05
298.15	0.4833	0.000821	1e-05
298.15	0.5218	0.000824	1e-05
298.15	0.5943	0.000829	1e-05
298.15	0.6341	0.000835	1e-05
298.15	0.6877	0.000842	1e-05
298.15	0.7129	0.000847	9e-06
298.15	0.7648	0.000855	9e-06
298.15	0.7895	0.000861	9e-06
298.15	0.8444	0.000868	9e-06
298.15	0.8873	0.000875	9e-06
298.15	0.9348	0.000889	9e-06
298.15	0.9741	0.000898	9e-06
303.15	0.0453	0.000854	1.1e-05
303.15	0.1276	0.000838	1.1e-05
303.15	0.1689	0.000828	1.1e-05
303.15	0.2217	0.000814	1.1e-05
303.15	0.2763	0.000804	1e-05
303.15	0.3217	0.000797	1e-05
303.15	0.3873	0.000791	1e-05
303.15	0.4326	0.000786	1e-05
303.15	0.4833	0.000784	1e-05
303.15	0.5218	0.000784	1e-05
303.15	0.5844	0.000785	9e-06
303.15	0.6328	0.000786	9e-06
303.15	0.6911	0.000789	9e-06
303.15	0.7428	0.00079	9e-06
303.15	0.7944	0.000794	9e-06
303.15	0.8392	0.000797	9e-06
303.15	0.8643	0.000797	9e-06
303.15	0.9033	0.000801	9e-06
303.15	0.9532	0.000805	9e-06
303.15	0.9823	0.000805	9e-06
313.15	0.0453	0.000824	1.1e-05
313.15	0.1276	0.000803	1.1e-05
313.15	0.1689	0.000792	1e-05
313.15	0.2217	0.000779	1e-05
313.15	0.2763	0.000765	1e-05
313.15	0.3217	0.000755	1e-05
313.15	0.3873	0.000742	1e-05
313.15	0.4326	0.000736	9e-06
313.15	0.4833	0.000729	9e-06
313.15	0.5218	0.000726	9e-06
313.15	0.5844	0.000721	9e-06
313.15	0.6328	0.000719	9e-06
313.15	0.6911	0.000717	9e-06
313.15	0.7428	0.000714	9e-06
313.15	0.7944	0.00071	9e-06
313.15	0.8392	0.000708	8e-06
313.15	0.8643	0.000706	8e-06
313.15	0.9033	0.000704	8e-06
313.15	0.9532	0.0007	8e-06
313.15	0.9823	0.000698	8e-06
323.15	0.0453	0.000802	1.1e-05
323.15	0.1276	0.000778	1e-05
323.15	0.1689	0.000764	1e-05
323.15	0.2217	0.00075	1e-05
323.15	0.2763	0.000732	1e-05
323.15	0.3217	0.000718	1e-05
323.15	0.3873	0.000701	9e-06
323.15	0.4326	0.000691	9e-06
323.15	0.4833	0.000681	9e-06
323.15	0.5218	0.000673	9e-06
323.15	0.5844	0.000665	9e-06
323.15	0.6328	0.000659	9e-06
323.15	0.6911	0.000653	8e-06
323.15	0.7428	0.000646	8e-06
323.15	0.7944	0.000638	8e-06
323.15	0.8392	0.000631	8e-06
323.15	0.8643	0.000626	8e-06
323.15	0.9033	0.000619	8e-06
323.15	0.9532	0.000611	8e-06
323.15	0.9823	0.000607	8e-06

System: N-methylmorpholine + cyclohexane; phases: Liquid
Fixed: Pressure, kPa = 101
Property: Mass density, kg/m3 (Liquid); method: VIBTUB:UFactor:6
Temperature, K	Mole fraction of cyclohexane	Mass density, kg/m3	uncertainty
298.15	0.0453	907.59	1.04
298.15	0.1276	895.48	1
298.15	0.1689	889.43	0.98
298.15	0.2217	881.74	0.96
298.15	0.2763	873.94	0.94
298.15	0.3217	867.42	0.92
298.15	0.3873	857.99	0.9
298.15	0.4326	851.46	0.89
298.15	0.4833	844.29	0.88
298.15	0.5218	838.78	0.87
298.15	0.5844	829.95	0.86
298.15	0.6328	823.16	0.85
298.15	0.6911	815.03	0.85
298.15	0.7428	807.87	0.84
298.15	0.7944	800.77	0.84
298.15	0.8392	794.64	0.84
298.15	0.8643	791.35	0.84
298.15	0.9033	786.15	0.84
298.15	0.9532	779.63	0.84
298.15	0.9823	775.75	0.84
303.15	0.0453	902.83	1.04
303.15	0.1276	890.66	1
303.15	0.1689	884.59	0.98
303.15	0.2217	876.96	0.96
303.15	0.2763	869.13	0.94
303.15	0.3217	862.66	0.93
303.15	0.3873	853.23	0.91
303.15	0.4326	846.82	0.9
303.15	0.4833	839.67	0.89
303.15	0.5218	834.2	0.88
303.15	0.5844	825.42	0.87
303.15	0.6328	818.66	0.86
303.15	0.6911	810.51	0.86
303.15	0.7428	803.38	0.85
303.15	0.7944	796.31	0.85
303.15	0.8392	790.27	0.85
303.15	0.8643	786.94	0.84
303.15	0.9033	781.75	0.84
303.15	0.9532	775.19	0.84
303.15	0.9823	771.51	0.84
313.15	0.0453	893.49	1.05
313.15	0.1276	882.09	1.01
313.15	0.1689	876.36	0.99
313.15	0.2217	869.02	0.97
313.15	0.2763	861.42	0.95
313.15	0.3217	855.1	0.94
313.15	0.3873	845.94	0.92
313.15	0.4326	839.61	0.91
313.15	0.4833	832.51	0.9
313.15	0.5218	827.11	0.89
313.15	0.5844	818.32	0.88
313.15	0.6328	811.52	0.87
313.15	0.6911	803.31	0.87
313.15	0.7428	796.01	0.86
313.15	0.7944	788.72	0.86
313.15	0.8392	782.38	0.86
313.15	0.8643	778.83	0.86
313.15	0.9033	773.3	0.86
313.15	0.9532	766.22	0.86
313.15	0.9823	762.08	0.86
323.15	0.0453	874.42	1.07
323.15	0.1276	863.12	1.03
323.15	0.1689	857.48	1.02
323.15	0.2217	850.4	1
323.15	0.2763	843.13	0.98
323.15	0.3217	837.1	0.96
323.15	0.3873	828.33	0.95
323.15	0.4326	822.36	0.94
323.15	0.4833	815.69	0.93
323.15	0.5218	810.59	0.92
323.15	0.5844	802.4	0.91
323.15	0.6328	796.08	0.9
323.15	0.6911	788.47	0.9
323.15	0.7428	781.8	0.89
323.15	0.7944	775.2	0.89
323.15	0.8392	769.54	0.89
323.15	0.8643	766.42	0.89
323.15	0.9033	761.57	0.88
323.15	0.9532	755.42	0.88
323.15	0.9823	751.98	0.88
