Measured thermophysical data. Measurement and correlation for phase equilibrium of HFO1234yf with three pentaerythritol esters from 293.15 K to 348.15 K
Source: J. Chem. Thermodyn., 2017, 10.1016/j.jct.2017.04.020
Compound 1: 2,3,3,3-tetrafluoro-1-propene, C3H2F4, InChI=1S/C3H2F4/c1-2(4)3(5,6)7/h1H2, purity 99.9%
Compound 2: pentaerythritol tetrahexanoate, C29H52O8, InChI=1S/C29H52O8/c1-5-9-13-17-25(30)34-21-29(22-35-26(31)18-14-10-6-2,23-36-27(32)19-15-11-7-3)24-37-28(33)20-16-12-8-4/h5-24H2,1-4H3, purity 98%
Compound 3: pentaerythritol tetraheptanoate, C33H60O8, InChI=1S/C33H60O8/c1-5-9-13-17-21-29(34)38-25-33(26-39-30(35)22-18-14-10-6-2,27-40-31(36)23-19-15-11-7-3)28-41-32(37)24-20-16-12-8-4/h5-28H2,1-4H3, purity 98%
Compound 4: pentaerythritol tetraoctanoate, C37H68O8, InChI=1S/C37H68O8/c1-5-9-13-17-21-25-33(38)42-29-37(30-43-34(39)26-22-18-14-10-6-2,31-44-35(40)27-23-19-15-11-7-3)32-45-36(41)28-24-20-16-12-8-4/h5-32H2,1-4H3, purity 98%

System: 2,3,3,3-tetrafluoro-1-propene + pentaerythritol tetrahexanoate; phases: Liquid, Gas
Property: Mole fraction of 2,3,3,3-tetrafluoro-1-propene (Liquid); method: volumetric
Pressure, kPa	Temperature, K	Mole fraction of 2,3,3,3-tetrafluoro-1-propene	uncertainty
75	293.15	0.1014	0.004
172	293.15	0.2276	0.0074
270	293.15	0.3515	0.0111
366	293.15	0.4707	0.0147
456	293.15	0.5874	0.013
528	293.15	0.7025	0.0099
564	293.15	0.7891	0.0088
578	293.15	0.8593	0.0131
584	293.15	0.9176	0.0196
81	303.15	0.0849	0.0033
191	303.15	0.1951	0.0063
303	303.15	0.3063	0.0096
419	303.15	0.4167	0.013
536	303.15	0.5287	0.0146
651	303.15	0.6482	0.0111
724	303.15	0.7506	0.0084
758	303.15	0.8407	0.0084
768	303.15	0.9118	0.0145
88	313.15	0.0714	0.0027
208	313.15	0.1681	0.0054
323	313.15	0.2613	0.0082
465	313.15	0.368	0.0114
607	313.15	0.4715	0.0146
762	313.15	0.5851	0.0129
887	313.15	0.6952	0.0096
972	313.15	0.8094	0.0069
995	313.15	0.9028	0.0087
92	323.15	0.0611	0.0023
223	323.15	0.1459	0.0046
360	323.15	0.2339	0.0073
506	323.15	0.3257	0.0101
668	323.15	0.4199	0.013
855	323.15	0.5255	0.0146
1031	323.15	0.6302	0.0114
1200	323.15	0.7574	0.0077
1270	323.15	0.8877	0.0051
96	333.15	0.0536	0.002
235	333.15	0.1281	0.0041
384	333.15	0.2072	0.0064
544	333.15	0.2896	0.0089
722	333.15	0.3767	0.0116
935	333.15	0.4735	0.0146
1148	333.15	0.5703	0.0133
1399	333.15	0.6902	0.0096
1595	333.15	0.8585	0.0047
100	343.15	0.0477	0.0017
248	343.15	0.1137	0.0036
405	343.15	0.1865	0.0058
577	343.15	0.26	0.008
770	343.15	0.3412	0.0105
1005	343.15	0.4303	0.0132
1248	343.15	0.5202	0.0148
1557	343.15	0.6286	0.0115
1937	343.15	0.7979	0.0063
102	348.15	0.0445	0.0016
255	348.15	0.1106	0.0035
416	348.15	0.1772	0.0055
593	348.15	0.2476	0.0076
793	348.15	0.326	0.01
1038	348.15	0.4122	0.0127
1293	348.15	0.499	0.0154
1626	348.15	0.6027	0.0122
2079	348.15	0.7612	0.0074

System: 2,3,3,3-tetrafluoro-1-propene + pentaerythritol tetraheptanoate; phases: Liquid, Gas
Property: Mole fraction of 2,3,3,3-tetrafluoro-1-propene (Liquid); method: volumetric
Temperature, K	Pressure, kPa	Mole fraction of 2,3,3,3-tetrafluoro-1-propene	uncertainty
293.15	78	0.1092	0.0043
293.15	177	0.2412	0.0078
293.15	266	0.3537	0.0111
293.15	364	0.4712	0.0147
293.15	451	0.5757	0.0133
293.15	528	0.6844	0.0103
293.15	573	0.7848	0.0088
293.15	586	0.8677	0.0135
293.15	590	0.9197	0.0162
303.15	84	0.0918	0.0035
303.15	195	0.2072	0.0067
303.15	297	0.3082	0.0096
303.15	413	0.4157	0.0129
303.15	523	0.515	0.015
303.15	637	0.6233	0.0117
303.15	732	0.7375	0.0087
303.15	773	0.8474	0.0071
303.15	775	0.9117	0.0086
313.15	91	0.077	0.0029
313.15	212	0.179	0.0057
313.15	324	0.2692	0.0084
313.15	455	0.3671	0.0114
313.15	585	0.4586	0.0142
313.15	731	0.5596	0.0136
313.15	881	0.6738	0.0102
313.15	994	0.8113	0.0128
313.15	1010	0.9022	0.0118
323.15	97	0.0657	0.0024
323.15	227	0.156	0.005
323.15	348	0.2367	0.0074
323.15	492	0.3257	0.0101
323.15	638	0.4095	0.0126
323.15	809	0.5017	0.0154
323.15	1003	0.6077	0.0121
323.15	1220	0.7505	0.0079
323.15	1300	0.8831	0.005
333.15	103	0.0571	0.0021
333.15	240	0.1378	0.0044
333.15	370	0.2106	0.0065
333.15	526	0.2917	0.009
333.15	685	0.368	0.0113
333.15	876	0.4527	0.0139
333.15	1104	0.5495	0.0139
333.15	1402	0.6793	0.0099
333.15	1621	0.8408	0.0051
343.15	108	0.0504	0.0018
343.15	253	0.1237	0.0039
343.15	391	0.1899	0.0059
343.15	557	0.2633	0.0081
343.15	729	0.3334	0.0103
343.15	937	0.412	0.0127
343.15	1191	0.5016	0.0153
343.15	1544	0.6191	0.0117
343.15	1925	0.7626	0.0073
348.15	110	0.0481	0.0018
348.15	258	0.119	0.0038
348.15	400	0.1809	0.0056
348.15	572	0.2513	0.0077
348.15	749	0.3188	0.0098
348.15	965	0.3949	0.0122
348.15	1231	0.4815	0.0148
348.15	1607	0.5945	0.0125
348.15	2040	0.7274	0.0084

System: 2,3,3,3-tetrafluoro-1-propene + pentaerythritol tetraoctanoate; phases: Liquid, Gas
Property: Mole fraction of 2,3,3,3-tetrafluoro-1-propene (Liquid); method: volumetric
Temperature, K	Pressure, kPa	Mole fraction of 2,3,3,3-tetrafluoro-1-propene	uncertainty
293.15	83	0.1	0.0039
293.15	191	0.2345	0.0076
293.15	288	0.35	0.011
293.15	380	0.4718	0.0147
293.15	476	0.589	0.0129
293.15	556	0.7088	0.0097
293.15	588	0.8017	0.0084
293.15	589	0.8737	0.0107
293.15	590	0.929	0.0131
303.15	91	0.091	0.0034
303.15	202	0.1991	0.0064
303.15	319	0.3013	0.0094
303.15	430	0.4138	0.0129
303.15	551	0.5257	0.0147
303.15	677	0.646	0.0111
303.15	760	0.7547	0.0134
303.15	778	0.8542	0.012
303.15	779	0.9236	0.018
313.15	96	0.0753	0.0028
313.15	208	0.1682	0.0054
313.15	329	0.2592	0.0081
313.15	473	0.362	0.0112
313.15	616	0.4661	0.0144
313.15	779	0.5791	0.013
313.15	921	0.6892	0.0098
313.15	1010	0.8172	0.0063
313.15	1011	0.9152	0.0058
323.15	101	0.0633	0.0024
323.15	216	0.1438	0.0046
323.15	341	0.2247	0.007
323.15	511	0.3169	0.0098
323.15	672	0.4129	0.0127
323.15	863	0.5181	0.0149
323.15	1051	0.6198	0.0117
323.15	1223	0.7504	0.008
323.15	1291	0.9008	0.0055
333.15	110	0.0545	0.0021
333.15	222	0.125	0.004
333.15	365	0.1972	0.0061
333.15	513	0.2806	0.0087
333.15	691	0.368	0.0113
333.15	920	0.4658	0.0144
333.15	1128	0.5591	0.0136
333.15	1382	0.6764	0.01
333.15	1626	0.8708	0.0043
343.15	115	0.0481	0.0018
343.15	227	0.1104	0.0035
343.15	371	0.1771	0.0055
343.15	546	0.2494	0.0077
343.15	735	0.3308	0.0102
343.15	982	0.4223	0.013
343.15	1208	0.5091	0.0151
343.15	1525	0.6155	0.0119
343.15	1973	0.8032	0.0061
348.15	118	0.0465	0.0018
348.15	235	0.1069	0.0034
348.15	383	0.168	0.0052
348.15	553	0.2364	0.0073
348.15	746	0.3151	0.0097
348.15	1000	0.4039	0.0124
348.15	1256	0.4885	0.015
348.15	1573	0.5907	0.0126
348.15	2088	0.7796	0.0068
