Measured thermophysical data. High pressure phase behaviour of carbon dioxide and two ionic liquids based on a benzyl functionalized cation
Source: J. Chem. Thermodyn., 2018, 10.1016/j.jct.2018.02.015
Compound 1: 1-benzyl-3-methyl-1H-imidazol-3-ium bis((trifluoromethyl)sulfonyl)amide, C13H13F6N3O4S2, InChI=1S/C11H13N2.C2F6NO4S2/c1-12-7-8-13(10-12)9-11-5-3-2-4-6-11;3-1(4,5)14(10,11)9-15(12,13)2(6,7)8/h2-8,10H,9H2,1H3;/q+1;-1, purity 98%
Compound 2: N-benzylpyridinium bis(trifluoromethylsulfonyl)amide, C14H12F6N2O4S2, InChI=1S/C12H12N.C2F6NO4S2/c1-3-7-12(8-4-1)11-13-9-5-2-6-10-13;3-1(4,5)14(10,11)9-15(12,13)2(6,7)8/h1-10H,11H2;/q+1;-1, purity 98%
Compound 3: carbon dioxide, CO2, InChI=1S/CO2/c2-1-3, purity 99.99%

System: 1-benzyl-3-methyl-1H-imidazol-3-ium bis((trifluoromethyl)sulfonyl)amide + carbon dioxide; phases: Liquid, Gas
Property: Vapor or sublimation pressure, kPa (Liquid); method: Closed cell (Static) method
Temperature, K	Mole fraction of carbon dioxide	Vapor or sublimation pressure, kPa	uncertainty
293.2	0.197	730	300
293.2	0.29	1220	310
293.2	0.406	2020	320
293.2	0.512	3310	330
293.2	0.595	4450	320
293.2	0.691	5220	320
293.2	0.718	5740	380
298.2	0.197	790	310
298.2	0.29	1390	310
298.2	0.406	2220	320
298.2	0.512	3630	340
298.2	0.595	4920	330
298.2	0.691	5840	320
303.2	0.197	870	310
303.2	0.29	1500	310
303.2	0.406	2410	320
303.2	0.512	3990	350
303.2	0.595	5460	340
303.2	0.691	6550	330
308.2	0.197	950	310
308.2	0.29	1630	310
308.2	0.406	2600	330
308.2	0.512	4380	370
308.2	0.595	6060	360
308.2	0.691	7360	340
313.2	0.197	1040	310
313.2	0.29	1740	310
313.2	0.406	2850	340
313.2	0.512	4770	380
313.2	0.595	6650	380
313.2	0.691	8280	370
318.2	0.197	1140	310
318.2	0.29	1880	320
318.2	0.406	3130	350
318.2	0.512	5210	390
318.2	0.595	7250	410
318.2	0.691	9500	410
323.2	0.197	1230	310
323.2	0.29	2030	320
323.2	0.406	3390	360
323.2	0.512	5680	410
323.2	0.595	7930	440

System: 1-benzyl-3-methyl-1H-imidazol-3-ium bis((trifluoromethyl)sulfonyl)amide + carbon dioxide; phases: Liquid mixture 1, Liquid mixture 2
Property: Vapor or sublimation pressure, kPa (Liquid mixture 1); method: Closed cell (Static) method
Temperature, K	Mole fraction of carbon dioxide	Vapor or sublimation pressure, kPa	uncertainty
298.2	0.718	7400	300
323.2	0.691	13500	300

System: N-benzylpyridinium bis(trifluoromethylsulfonyl)amide + carbon dioxide; phases: Liquid, Gas
Property: Vapor or sublimation pressure, kPa (Liquid); method: Closed cell (Static) method
Temperature, K	Mole fraction of carbon dioxide	Vapor or sublimation pressure, kPa	uncertainty
293.2	0.1	600	300
293.2	0.205	720	300
293.2	0.297	1190	310
293.2	0.404	2160	310
293.2	0.499	2750	310
293.2	0.615	3760	330
293.2	0.646	4790	500
298.2	0.1	640	300
298.2	0.205	810	300
298.2	0.297	1300	310
298.2	0.404	2370	310
298.2	0.499	3060	310
298.2	0.615	4200	340
298.2	0.646	5380	550
303.2	0.1	670	300
303.2	0.205	900	300
303.2	0.297	1430	310
303.2	0.404	2600	320
303.2	0.499	3360	320
303.2	0.615	4700	350
303.2	0.646	6050	610
308.2	0.1	750	300
308.2	0.205	1010	300
308.2	0.297	1580	320
308.2	0.404	2840	320
308.2	0.499	3650	330
308.2	0.615	5170	370
308.2	0.646	6820	710
313.2	0.1	800	300
313.2	0.205	1100	300
313.2	0.297	1710	320
313.2	0.404	3050	330
313.2	0.499	3980	330
313.2	0.615	5750	390
313.2	0.646	7640	790
318.2	0.1	850	300
318.2	0.205	1210	300
318.2	0.297	1890	320
318.2	0.404	3360	330
318.2	0.499	4340	340
318.2	0.615	6360	410
318.2	0.646	8440	890
323.2	0.1	920	300
323.2	0.205	1310	300
323.2	0.297	2050	330
323.2	0.404	3580	340
323.2	0.499	4700	360
323.2	0.615	6980	460
323.2	0.646	9510	1020

System: N-benzylpyridinium bis(trifluoromethylsulfonyl)amide + carbon dioxide; phases: Liquid mixture 1, Liquid mixture 2
Property: Vapor or sublimation pressure, kPa (Liquid mixture 1); method: Closed cell (Static) method
Temperature, K	Mole fraction of carbon dioxide	Vapor or sublimation pressure, kPa	uncertainty
293.2	0.702	10200	800
295	0.72	16900	800
