Measured thermophysical data. Study of the impact of high temperatures and pressures on the equilibrium densities and interfacial tension of the carbon dioxide/water system
Source: J. Chem. Thermodyn., 2016, 10.1016/j.jct.2015.05.005
Compound 1: carbon dioxide, CO2, InChI=1S/CO2/c2-1-3, purity 99.995%
Compound 2: water, H2O, InChI=1S/H2O/h1H2

System: carbon dioxide + water; phases: Liquid, Gas
Property: Surface tension liquid-gas, N/m (Liquid); method: Pendant drop shape
Temperature, K	Pressure, kPa	Surface tension liquid-gas, N/m	uncertainty
298.5	700	0.06695	0.00079
298.5	1690	0.06056	0.00073
298.5	3680	0.0487	0.00065
298.5	5640	0.03774	0.00064
298.5	6060	0.03506	0.00064
298.5	6400	0.03297	0.00086
298.6	6490	0.03169	0.00135
313.3	460	0.06852	0.0008
313.3	1850	0.0596	0.00074
313.3	3570	0.05067	0.00071
313.3	5340	0.04275	0.00054
313.3	7010	0.03665	0.00054
313.2	9300	0.03062	0.00089
313.2	10440	0.02991	0.00065
313.3	13920	0.02959	0.00049
313.3	20820	0.0292	0.00042
313.3	25680	0.02896	0.00049
313.3	29110	0.02905	0.00054
313.2	31190	0.02888	0.00058
333	920	0.06231	0.00065
333	1790	0.05898	0.0006
333	3660	0.05228	0.00056
333	5000	0.04796	0.00055
333	5850	0.0453	0.00047
333	7180	0.04129	0.00047
333	8890	0.03676	0.00044
333.1	10040	0.03408	0.00046
333.2	11420	0.0301	0.00054
333.1	15010	0.02946	0.00045
333.2	21120	0.02813	0.0004
333.2	24270	0.02739	0.00042
333.2	29580	0.027	0.00044
333.2	31290	0.02725	0.00049
333.2	39640	0.02626	0.00048
333.2	50310	0.02627	0.0006
333.2	59910	0.02616	0.00079
373.8	340	0.05679	0.00055
373.9	1300	0.05502	0.00054
373.9	3860	0.04903	0.00049
374	5600	0.04562	0.00046
374	7570	0.04188	0.00042
374	12090	0.03414	0.00038
374	16960	0.029	0.00034
374	25150	0.02641	0.00031
373.9	40030	0.02435	0.00036
374	50180	0.02364	0.00036
374.1	62070	0.02338	0.00043
374	69120	0.02342	0.00042
424.4	1550	0.04634	0.00045
424.4	5810	0.0401	0.0004
424.4	10210	0.0346	0.00036
424.4	16430	0.029	0.00031
424.5	23830	0.02555	0.0003
424.6	30050	0.02282	0.00026
424.6	39680	0.02089	0.00025
424.5	50110	0.01982	0.00033
424.6	60190	0.01883	0.00032
424.6	69140	0.01842	0.00033
469	5900	0.03291	0.00035
469.2	10080	0.02869	0.00031
469.1	10790	0.02849	0.0003
469.2	14910	0.02488	0.00028
469.2	17700	0.02314	0.00026
469.2	20710	0.02182	0.00025
469.2	29970	0.01822	0.00027
469.2	40060	0.01545	0.00023
469.2	50160	0.01384	0.00021
469.4	59960	0.01273	0.0002
469.2	69090	0.01265	0.00024

System: carbon dioxide + water; phases: Liquid mixture 1, Liquid mixture 2
Property: Interfacial tension, N/m (Liquid mixture 1); method: Pendant drop shape
Temperature, K	Pressure, kPa	Interfacial tension, N/m	uncertainty
298.6	6490	0.03079	0.00187
298.4	6830	0.031	0.00049
298.5	7200	0.03099	0.0004
298.5	8100	0.03109	0.00033
298.6	8970	0.03098	0.00034
298.6	10630	0.03073	0.00034
298.6	13180	0.03062	0.00037
298.6	15150	0.03081	0.00042
298.6	20830	0.02984	0.00049

System: carbon dioxide + water; phases: Liquid mixture 1, Liquid mixture 2
Fixed: Temperature, K = 298.3
Property: Mass density, kg/m3 (Liquid mixture 1); method: Vibrating tube method
Pressure, kPa	Mass density, kg/m3	uncertainty
10780	830.9	6.8
12750	853.2	6.8
14880	878.5	6.8
15080	880.5	6.8
16970	897.7	6.7
18960	912.7	6.7
20790	924.6	6.7
23830	941.3	6.7
25930	951.4	6.7

System: carbon dioxide + water; phases: Liquid mixture 2, Liquid mixture 1
Property: Mass density, kg/m3 (Liquid mixture 2); method: Vibrating tube method
Temperature, K	Pressure, kPa	Mass density, kg/m3	uncertainty
298.5	8950	1017.4	0.7
298.4	10520	1018.6	0.7
298.4	11890	1019.2	0.7
298.4	18910	1020.6	0.7
298.3	21230	1020.8	0.7

System: carbon dioxide + water; phases: Gas, Liquid
Property: Mass density, kg/m3 (Gas); method: Vibrating tube method
Temperature, K	Pressure, kPa	Mass density, kg/m3	uncertainty
333.4	9960	292.3	7.2
333.2	26230	804.6	7
333.1	34590	863	6.8
332.9	41700	900.9	6.7
332.7	44660	914.8	6.7
373.2	1780	33	6.9
373.2	9410	180.3	6.9
373.2	14600	323.2	7
373.5	30900	678	6.9
373.5	44280	789.7	6.8
373.7	56490	854.4	6.9
373.7	68710	900	7

System: carbon dioxide + water; phases: Liquid, Gas
Property: Mass density, kg/m3 (Liquid); method: Vibrating tube method
Temperature, K	Pressure, kPa	Mass density, kg/m3	uncertainty
333.4	730	985.8	0.7
333.4	1820	987.2	0.7
333.4	3740	989.4	0.7
333.4	5990	991.9	0.7
333.4	7670	994.2	0.7
333.5	11730	995.9	0.7
333.5	14520	999.2	0.7
333.4	17680	1001.9	0.7
333.5	21050	1003.7	0.7
333.4	28170	1006.4	0.7
333.4	35680	1010.7	0.7
333.4	41010	1014.1	0.7
333.5	47900	1017.5	0.7
333.5	55290	1020.8	0.7
333.5	62190	1023.2	0.7
333.4	69130	1025.8	0.7
373.7	7040	967	0.7
373.2	13930	971.5	0.7
373.5	20820	976.6	0.7
373.4	28070	980.1	0.7
373.4	34220	983.4	0.7
373.3	41610	987	0.7
373.3	49730	992.6	0.7
374.1	55500	995.9	0.7
374.1	61790	999.6	0.7
374.1	68730	1002.6	0.7
393.3	860	945.2	0.7
393.6	3560	947	0.7
393.5	5500	949.8	0.7
393.5	7450	951.5	0.7
393.5	10600	954	0.7
393.5	13920	956.6	0.7
393.4	24310	962.9	0.7
393.4	34810	969.2	0.7
393.2	55190	979.6	0.7
393.2	68800	986.2	0.7
423.7	870	918.9	0.7
423.7	1460	919.7	0.7
423.7	3750	920.9	0.7
423.5	5180	921.7	0.7
423.5	6230	922.5	0.7
423.5	7360	923.2	0.7
423.5	7420	923.4	0.7
423.5	9330	925	0.7
423.5	10410	925.8	0.7
423.5	12280	927.1	0.7
423.5	14610	928.5	0.7
423.5	21600	933.6	0.7
423.3	28820	937.6	0.7
423.2	55200	952.7	0.7
298.5	320	999.3	0.8
298.5	750	1000.8	0.8
298.4	1820	1004.5	0.7
298.4	3770	1009.8	0.7
298.4	5600	1014.1	0.7

System: carbon dioxide + water; phases: Liquid mixture 1, Liquid mixture 2, Gas
Property: Vapor or sublimation pressure, kPa (Liquid mixture 1); method: Closed cell (Static) method
Temperature, K	Vapor or sublimation pressure, kPa	uncertainty
298.6	6490	100
