Measured thermophysical data. The buffering-out effect and phase separation in aqueous solutions of EPPS buffer with 1-propanol, 2-propanol, or 2-methyl-2-propanol at T = 298.15 K
Source: J. Chem. Thermodyn., 2012, 10.1016/j.jct.2011.10.024
Compound 1: 4-(2-hydroxyethyl)-1-piperazinepropanesulfonic acid, C9H20N2O4S, InChI=1S/C9H20N2O4S/c12-8-7-11-5-3-10(4-6-11)2-1-9-16(13,14)15/h12H,1-9H2,(H,13,14,15), purity 99.5%
Compound 2: propan-1-ol, C3H8O, InChI=1S/C3H8O/c1-2-3-4/h4H,2-3H2,1H3, purity 99%
Compound 3: 2-methylpropan-2-ol, C4H10O, InChI=1S/C4H10O/c1-4(2,3)5/h5H,1-3H3, purity 99.5%
Compound 4: propan-2-ol, C3H8O, InChI=1S/C3H8O/c1-3(2)4/h3-4H,1-2H3, purity 99.8%
Compound 5: water, H2O, InChI=1S/H2O/h1H2, purity 99.9%

System: water + 4-(2-hydroxyethyl)-1-piperazinepropanesulfonic acid; phases: Liquid
Fixed: Temperature, K = 298.15
Fixed: Pressure, kPa = 101
Property: Mass density, kg/m3 (Liquid); method: Vibrating tube method
Molality, mol/kg of 4-(2-hydroxyethyl)-1-piperazinepropanesulfonic acid	Mass density, kg/m3	uncertainty
2.1808	1103.79	0.41
3.1509	1140.08	0.42
4.159	1165.28	0.42
5.9083	1197.83	0.42
6.6946	1208.87	0.43
7.4584	1218.32	0.43
7.9617	1223.45	0.43
8.4566	1228.54	0.43

System: propan-1-ol + water + 4-(2-hydroxyethyl)-1-piperazinepropanesulfonic acid; phases: Liquid, Crystal
Fixed: Pressure, kPa = 101
Fixed: Temperature, K = 298.15
Property: Molality, mol/kg of 4-(2-hydroxyethyl)-1-piperazinepropanesulfonic acid (Liquid); method: mass of residual crystal after oven drying
Solvent: Mass fraction of propan-1-ol	Molality, mol/kg of 4-(2-hydroxyethyl)-1-piperazinepropanesulfonic acid	uncertainty
0	8.93	0.14
0.1	7.72	0.13

System: propan-1-ol + water + 4-(2-hydroxyethyl)-1-piperazinepropanesulfonic acid; phases: Liquid
Fixed: Temperature, K = 298.15
Fixed: Pressure, kPa = 101
Fixed: Solvent: Mass fraction of propan-1-ol = 0.1
Property: Mass density, kg/m3 (Liquid); method: Vibrating tube method
Molality, mol/kg of 4-(2-hydroxyethyl)-1-piperazinepropanesulfonic acid	Mass density, kg/m3	uncertainty
2.8991	1122.98	0.43
4.1025	1155.04	0.43
5.2386	1177.92	0.44
6.0242	1191.02	0.44
7.0942	1205.66	0.44

System: propan-1-ol + water + 4-(2-hydroxyethyl)-1-piperazinepropanesulfonic acid; phases: Liquid mixture 1, Liquid mixture 2, Crystal
Fixed: Temperature, K = 298.15
Property: Mass fraction of 4-(2-hydroxyethyl)-1-piperazinepropanesulfonic acid (Liquid mixture 1); method: Titration method
Mass fraction of propan-1-ol	Mass fraction of 4-(2-hydroxyethyl)-1-piperazinepropanesulfonic acid	uncertainty
0.118	0.6068	0.0037
0.174	0.5653	0.0031
0.2469	0.5064	0.0025
0.3244	0.4592	0.0022
0.5055	0.3163	0.0016
0.6684	0.1945	0.0014
0.8528	0.0524	0.0015
0.8889	0.0143	0.0015

System: propan-1-ol + water + 4-(2-hydroxyethyl)-1-piperazinepropanesulfonic acid; phases: Liquid mixture 1, Liquid mixture 2
Fixed: Pressure, kPa = 101
Fixed: Temperature, K = 298.15
Property: Mass fraction of 4-(2-hydroxyethyl)-1-piperazinepropanesulfonic acid (Liquid mixture 1); method: Titration method
Mass fraction of propan-1-ol	Mass fraction of 4-(2-hydroxyethyl)-1-piperazinepropanesulfonic acid	uncertainty
0.1249	0.3761	0.0117
0.2332	0.2231	0.007
0.3348	0.1635	0.0051
0.45	0.1005	0.0031
0.5623	0.0626	0.0021
0.6684	0.0437	0.0016
0.7504	0.0615	0.002

System: propan-1-ol + water + 4-(2-hydroxyethyl)-1-piperazinepropanesulfonic acid; phases: Liquid, Crystal
Fixed: Temperature, K = 298.15
Fixed: Pressure, kPa = 101
Property: Mass fraction of 4-(2-hydroxyethyl)-1-piperazinepropanesulfonic acid (Liquid); method: Titration method
Mass fraction of propan-1-ol	Mass fraction of 4-(2-hydroxyethyl)-1-piperazinepropanesulfonic acid	uncertainty
0	0.6926	0.0052
0.034	0.6607	0.0046

System: propan-1-ol + water + 4-(2-hydroxyethyl)-1-piperazinepropanesulfonic acid; phases: Liquid
Fixed: Temperature, K = 298.15
Fixed: Pressure, kPa = 101
Property: Mass density, kg/m3 (Liquid); method: Vibrating tube method
Solvent: Mass fraction of propan-1-ol	Molality, mol/kg of 4-(2-hydroxyethyl)-1-piperazinepropanesulfonic acid	Mass density, kg/m3	uncertainty
0	8.93	1234.6	0.5
0.1	7.72	1213.5	0.5

System: propan-1-ol + water + 4-(2-hydroxyethyl)-1-piperazinepropanesulfonic acid; phases: Liquid mixture 2, Liquid mixture 1
Property: Mass fraction of water (Liquid mixture 2); method: Chromatography
Property: Mass fraction of water (Liquid mixture 1); method: Chromatography
Property: Mass fraction of propan-1-ol (Liquid mixture 1); method: Chromatography
Temperature, K	Pressure, kPa	Mass fraction of propan-1-ol	Mass fraction of water	uncertainty	Mass fraction of water	uncertainty	Mass fraction of propan-1-ol	uncertainty
298.15	101.3	0.0701	0.2959	0.0023	0.0968	0.0012	0.8889	

System: propan-1-ol + water + 4-(2-hydroxyethyl)-1-piperazinepropanesulfonic acid; phases: Liquid mixture 1, Liquid mixture 2
Fixed: Temperature, K = 298.15
Fixed: Pressure, kPa = 101.3
Property: Mass fraction of water (Liquid mixture 1); method: Chromatography
Property: Mass fraction of water (Liquid mixture 2); method: Chromatography
Property: Mass fraction of propan-1-ol (Liquid mixture 2); method: Chromatography
Mass fraction of propan-1-ol	Mass fraction of water	uncertainty	Mass fraction of water	uncertainty	Mass fraction of propan-1-ol	uncertainty
0.6119	0.339	0.0026	0.5467	0.0035	0.1866	
0.6487	0.3093	0.0024	0.5389	0.0036	0.1691	
0.6571	0.3042	0.0024	0.5358	0.0038	0.1585	
0.7396	0.2342	0.0021	0.4885	0.0041	0.1255	
0.7846	0.195	0.0019	0.4429	0.0041	0.1044	
0.8258	0.157	0.0015	0.4018	0.0031	0.0873	

System: 2-methylpropan-2-ol + water + 4-(2-hydroxyethyl)-1-piperazinepropanesulfonic acid; phases: Liquid, Crystal
Fixed: Pressure, kPa = 101
Fixed: Temperature, K = 298.15
Property: Molality, mol/kg of 4-(2-hydroxyethyl)-1-piperazinepropanesulfonic acid (Liquid); method: mass of residual crystal after oven drying
Solvent: Mass fraction of 2-methylpropan-2-ol	Molality, mol/kg of 4-(2-hydroxyethyl)-1-piperazinepropanesulfonic acid	uncertainty
0	8.93	0.14
0.1	7.79	0.13

System: 2-methylpropan-2-ol + water + 4-(2-hydroxyethyl)-1-piperazinepropanesulfonic acid; phases: Liquid
Fixed: Temperature, K = 298.15
Fixed: Pressure, kPa = 101
Fixed: Solvent: Mass fraction of 2-methylpropan-2-ol = 0.1
Property: Mass density, kg/m3 (Liquid); method: Vibrating tube method
Molality, mol/kg of 4-(2-hydroxyethyl)-1-piperazinepropanesulfonic acid	Mass density, kg/m3	uncertainty
2.8424	1121.17	0.42
3.6035	1143.19	0.42
4.5944	1167.28	0.42
5.9954	1190.49	0.42
7.4362	1209.65	0.43

System: 2-methylpropan-2-ol + water + 4-(2-hydroxyethyl)-1-piperazinepropanesulfonic acid; phases: Liquid mixture 1, Liquid mixture 2
Fixed: Temperature, K = 298.15
Fixed: Pressure, kPa = 101
Property: Mass fraction of 4-(2-hydroxyethyl)-1-piperazinepropanesulfonic acid (Liquid mixture 1); method: Titration method
Mass fraction of 2-methylpropan-2-ol	Mass fraction of 4-(2-hydroxyethyl)-1-piperazinepropanesulfonic acid	uncertainty
0.0828	0.4478	0.0142
0.1472	0.265	0.0084
0.2535	0.1552	0.0049
0.3562	0.1094	0.0034
0.4666	0.0668	0.0022
0.5794	0.034	0.0014
0.7917	0.0103	0.001

System: 2-methylpropan-2-ol + water + 4-(2-hydroxyethyl)-1-piperazinepropanesulfonic acid; phases: Liquid mixture 1, Liquid mixture 2, Crystal
Fixed: Temperature, K = 298.15
Property: Mass fraction of 4-(2-hydroxyethyl)-1-piperazinepropanesulfonic acid (Liquid mixture 1); method: Titration method
Mass fraction of 2-methylpropan-2-ol	Mass fraction of 4-(2-hydroxyethyl)-1-piperazinepropanesulfonic acid	uncertainty
0.072	0.6361	0.0041
0.1195	0.6019	0.0036
0.1781	0.5547	0.003
0.2502	0.4996	0.0025
0.3475	0.4206	0.002
0.4692	0.3312	0.0016
0.6392	0.2009	0.0014
0.8656	0.0376	0.0012

System: 2-methylpropan-2-ol + water + 4-(2-hydroxyethyl)-1-piperazinepropanesulfonic acid; phases: Liquid, Crystal
Fixed: Temperature, K = 298.15
Fixed: Pressure, kPa = 101
Property: Mass fraction of 4-(2-hydroxyethyl)-1-piperazinepropanesulfonic acid (Liquid); method: Titration method
Mass fraction of 2-methylpropan-2-ol	Mass fraction of 4-(2-hydroxyethyl)-1-piperazinepropanesulfonic acid	uncertainty
0	0.6926	0.0052
0.0338	0.6628	0.0047

System: 2-methylpropan-2-ol + water + 4-(2-hydroxyethyl)-1-piperazinepropanesulfonic acid; phases: Liquid
Fixed: Temperature, K = 298.15
Fixed: Pressure, kPa = 101
Property: Mass density, kg/m3 (Liquid); method: Vibrating tube method
Solvent: Mass fraction of 2-methylpropan-2-ol	Molality, mol/kg of 4-(2-hydroxyethyl)-1-piperazinepropanesulfonic acid	Mass density, kg/m3	uncertainty
0	8.93	1234.6	0.5
0.1	7.79	1214	0.5

System: 2-methylpropan-2-ol + water + 4-(2-hydroxyethyl)-1-piperazinepropanesulfonic acid; phases: Liquid mixture 2, Liquid mixture 1
Fixed: Temperature, K = 298.15
Fixed: Pressure, kPa = 101.3
Property: Mass fraction of water (Liquid mixture 2); method: Chromatography
Property: Mass fraction of water (Liquid mixture 1); method: Chromatography
Property: Mass fraction of 2-methylpropan-2-ol (Liquid mixture 1); method: Chromatography
Mass fraction of 2-methylpropan-2-ol	Mass fraction of water	uncertainty	Mass fraction of water	uncertainty	Mass fraction of 2-methylpropan-2-ol	uncertainty
0.2005	0.6072	0.003	0.3864	0.003	0.5778	
0.139	0.5772	0.0033	0.292	0.0024	0.6903	
0.1188	0.5504	0.0038	0.2571	0.0023	0.7295	
0.1018	0.5232	0.0041	0.227	0.0021	0.7624	
0.0881	0.4969	0.0047	0.2006	0.002	0.7908	
0.0649	0.4275	0.0033	0.1484	0.0015	0.8462	

System: 2-methylpropan-2-ol + water + 4-(2-hydroxyethyl)-1-piperazinepropanesulfonic acid; phases: Liquid mixture 2, Liquid mixture 1
Property: Mass fraction of water (Liquid mixture 2); method: Chromatography
Property: Mass fraction of water (Liquid mixture 1); method: Chromatography
Property: Mass fraction of 2-methylpropan-2-ol (Liquid mixture 1); method: Chromatography
Temperature, K	Pressure, kPa	Mass fraction of 2-methylpropan-2-ol	Mass fraction of water	uncertainty	Mass fraction of water	uncertainty	Mass fraction of 2-methylpropan-2-ol	uncertainty
298.15	101.3	0.0436	0.3065	0.0024	0.0884	0.0012	0.9082	

System: propan-2-ol + water + 4-(2-hydroxyethyl)-1-piperazinepropanesulfonic acid; phases: Liquid, Crystal
Fixed: Pressure, kPa = 101
Fixed: Temperature, K = 298.15
Property: Molality, mol/kg of 4-(2-hydroxyethyl)-1-piperazinepropanesulfonic acid (Liquid); method: mass of residual crystal after oven drying
Solvent: Mass fraction of propan-2-ol	Molality, mol/kg of 4-(2-hydroxyethyl)-1-piperazinepropanesulfonic acid	uncertainty
0	8.93	0.14
0.1	8.09	0.13
0.2	7.3	0.12

System: propan-2-ol + water + 4-(2-hydroxyethyl)-1-piperazinepropanesulfonic acid; phases: Liquid mixture 1, Liquid mixture 2
Fixed: Temperature, K = 298.15
Fixed: Pressure, kPa = 101
Property: Mass fraction of 4-(2-hydroxyethyl)-1-piperazinepropanesulfonic acid (Liquid mixture 1); method: Titration method
Mass fraction of propan-2-ol	Mass fraction of 4-(2-hydroxyethyl)-1-piperazinepropanesulfonic acid	uncertainty
0.1301	0.5034	0.0155
0.1877	0.375	0.0117
0.2929	0.268	0.0083
0.4045	0.1911	0.006
0.5294	0.1177	0.0037
0.6611	0.0555	0.0019

System: propan-2-ol + water + 4-(2-hydroxyethyl)-1-piperazinepropanesulfonic acid; phases: Liquid mixture 1, Liquid mixture 2, Crystal
Fixed: Temperature, K = 298.15
Property: Mass fraction of 4-(2-hydroxyethyl)-1-piperazinepropanesulfonic acid (Liquid mixture 1); method: Titration method
Mass fraction of propan-2-ol	Mass fraction of 4-(2-hydroxyethyl)-1-piperazinepropanesulfonic acid	uncertainty
0.1156	0.6151	0.0038
0.1688	0.5781	0.0033
0.2443	0.5114	0.0026
0.3324	0.4459	0.0021
0.4504	0.3565	0.0017
0.6249	0.2189	0.0014
0.7913	0.0826	0.0013

System: propan-2-ol + water + 4-(2-hydroxyethyl)-1-piperazinepropanesulfonic acid; phases: Liquid, Crystal
Fixed: Temperature, K = 298.15
Fixed: Pressure, kPa = 101
Property: Mass fraction of 4-(2-hydroxyethyl)-1-piperazinepropanesulfonic acid (Liquid); method: Titration method
Mass fraction of propan-2-ol	Mass fraction of 4-(2-hydroxyethyl)-1-piperazinepropanesulfonic acid	uncertainty
0	0.3074	0.0014
0.033	0.2958	0.0014
0.0704	0.2815	0.0014

System: propan-2-ol + water + 4-(2-hydroxyethyl)-1-piperazinepropanesulfonic acid; phases: Liquid
Fixed: Temperature, K = 298.15
Fixed: Pressure, kPa = 101
Property: Mass density, kg/m3 (Liquid); method: Vibrating tube method
Solvent: Mass fraction of propan-2-ol	Molality, mol/kg of 4-(2-hydroxyethyl)-1-piperazinepropanesulfonic acid	Mass density, kg/m3	uncertainty
0.1	0.913	1039.94	0.41
0.1	1.549	1072.88	0.41
0.1	2.1752	1096.74	0.41
0.1	2.8703	1120.7	0.41
0.1	4.4584	1161.97	0.42
0.1	5.603	1182.28	0.42
0.1	6.7467	1199.4	0.42
0.1	7.6504	1210.05	0.42
0.2	1.5297	1057.5	0.41
0.2	2.1314	1082.49	0.41
0.2	4.017	1139.74	0.42
0.2	4.9841	1160.63	0.42
0.2	5.9861	1177.46	0.42
0.2	6.6786	1187.43	0.42

System: propan-2-ol + water + 4-(2-hydroxyethyl)-1-piperazinepropanesulfonic acid; phases: Liquid
Fixed: Temperature, K = 298.15
Fixed: Pressure, kPa = 101
Property: Mass density, kg/m3 (Liquid); method: Vibrating tube method
Solvent: Mass fraction of propan-2-ol	Molality, mol/kg of 4-(2-hydroxyethyl)-1-piperazinepropanesulfonic acid	Mass density, kg/m3	uncertainty
0	8.93	1234.6	0.5
0.1	8.09	1215.9	0.5
0.2	7.3	1195.9	0.5

System: propan-2-ol + water + 4-(2-hydroxyethyl)-1-piperazinepropanesulfonic acid; phases: Liquid mixture 2, Liquid mixture 1
Fixed: Temperature, K = 298.15
Fixed: Pressure, kPa = 101.3
Property: Mass fraction of water (Liquid mixture 2); method: Chromatography
Property: Mass fraction of water (Liquid mixture 1); method: Chromatography
Property: Mass fraction of propan-2-ol (Liquid mixture 1); method: Chromatography
Mass fraction of propan-2-ol	Mass fraction of water	uncertainty	Mass fraction of water	uncertainty	Mass fraction of propan-2-ol	uncertainty
0.233	0.4536	0.0035	0.3187	0.0025	0.605	
0.1892	0.4399	0.0034	0.274	0.0023	0.6763	
0.1519	0.419	0.0032	0.2292	0.0019	0.7375	
0.1509	0.4171	0.0032	0.2281	0.0021	0.7396	
0.1459	0.4135	0.0032	0.2228	0.0019	0.7459	
0.1185	0.3707	0.0029	0.1738	0.0016	0.8061	

System: propan-2-ol + water + 4-(2-hydroxyethyl)-1-piperazinepropanesulfonic acid; phases: Liquid mixture 2, Liquid mixture 1
Property: Mass fraction of water (Liquid mixture 2); method: Chromatography
Property: Mass fraction of water (Liquid mixture 1); method: Chromatography
Property: Mass fraction of propan-2-ol (Liquid mixture 1); method: Chromatography
Temperature, K	Pressure, kPa	Mass fraction of propan-2-ol	Mass fraction of water	uncertainty	Mass fraction of water	uncertainty	Mass fraction of propan-2-ol	uncertainty
298.15	101.3	0.0894	0.2872	0.0023	0.109	0.0013	0.8785	
