Measured thermophysical data. Density, speed of sound, and refractive index measurements for the binary  systems (butanoic acid + propanoic acid, or 2-methyl-propanoic acid)  at T = (293.15 to 313.15) K
Source: J. Chem. Thermodyn., 2013, 10.1016/j.jct.2012.07.019
Compound 1: butanoic acid, C4H8O2, InChI=1S/C4H8O2/c1-2-3-4(5)6/h2-3H2,1H3,(H,5,6), purity 99%
Compound 2: 2-methylpropanoic acid, C4H8O2, InChI=1S/C4H8O2/c1-3(2)4(5)6/h3H,1-2H3,(H,5,6), purity 99%
Compound 3: propanoic acid, C3H6O2, InChI=1S/C3H6O2/c1-2-3(4)5/h2H2,1H3,(H,4,5), purity 99%
Compound 4: water, H2O, InChI=1S/H2O/h1H2, purity 99.8%

System: butanoic acid; phases: Liquid
Fixed: Pressure, kPa = 101.325
Property: Mass density, kg/m3 (Liquid); method: Vibrating tube method
Temperature, K	Mass density, kg/m3	uncertainty
293.15	957.78	0.23
298.15	952.81	0.23
303.15	947.84	0.23
308.15	942.87	0.23
313.15	937.91	0.23

System: butanoic acid; phases: Liquid
Fixed: Pressure, kPa = 101.325
Property: Speed of sound, m/s (Liquid); method: Linear variable-path acoustic interferometer
Temperature, K	Speed of sound, m/s	uncertainty
293.15	1195.5	1.7
298.15	1176.9	1.6
303.15	1158.2	1.6
308.15	1139.6	1.6
313.15	1121.3	1.6

System: butanoic acid; phases: Liquid
Fixed: Pressure, kPa = 101.325
Property: Refractive index (Na D-line) (Liquid); method: Standard Abbe refractometry
Temperature, K	Refractive index (Na D-line)	uncertainty
293.15	1.39826	0.00037
298.15	1.39614	0.00037
303.15	1.39398	0.00037
308.15	1.39183	0.00037
313.15	1.38969	0.00037
298.15	1.39615	0.00037

System: butanoic acid; phases: Liquid
Fixed: Pressure, kPa = 101
Property: Mass density, kg/m3 (Liquid); method: Vibrating tube method
Temperature, K	Mass density, kg/m3	uncertainty
298.15	952.82	0.23
308.15	942.88	0.23

System: butanoic acid; phases: Liquid
Property: Speed of sound, m/s (Liquid); method: Linear variable-path acoustic interferometer
Temperature, K	Pressure, kPa	Speed of sound, m/s	uncertainty
308.15	101	1139.7	1.8

System: 2-methylpropanoic acid; phases: Liquid
Fixed: Pressure, kPa = 101.325
Property: Mass density, kg/m3 (Liquid); method: Vibrating tube method
Temperature, K	Mass density, kg/m3	uncertainty
293.15	948.23	0.23
298.15	943.19	0.23
303.15	938.12	0.23
308.15	933.05	0.23
313.15	927.96	0.23

System: 2-methylpropanoic acid; phases: Liquid
Fixed: Pressure, kPa = 101.325
Property: Speed of sound, m/s (Liquid); method: Linear variable-path acoustic interferometer
Temperature, K	Speed of sound, m/s	uncertainty
293.15	1152.3	1.6
298.15	1133.4	1.6
303.15	1114.5	1.6
308.15	1095.7	1.6
313.15	1077.1	1.6

System: 2-methylpropanoic acid; phases: Liquid
Fixed: Pressure, kPa = 101.325
Property: Refractive index (Na D-line) (Liquid); method: Standard Abbe refractometry
Temperature, K	Refractive index (Na D-line)	uncertainty
293.15	1.39326	0.00037
298.15	1.39115	0.00037
303.15	1.38892	0.00037
308.15	1.38674	0.00037
313.15	1.38454	0.00037

System: 2-methylpropanoic acid; phases: Liquid
Fixed: Pressure, kPa = 101
Property: Mass density, kg/m3 (Liquid); method: Vibrating tube method
Temperature, K	Mass density, kg/m3	uncertainty
293.15	948.24	0.23
313.15	927.97	0.23

System: 2-methylpropanoic acid; phases: Liquid
Fixed: Pressure, kPa = 101
Property: Speed of sound, m/s (Liquid); method: Linear variable-path acoustic interferometer
Temperature, K	Speed of sound, m/s	uncertainty
293.15	1152.4	1.8
298.15	1133.5	1.8
313.15	1077.2	1.8

System: propanoic acid; phases: Liquid
Fixed: Pressure, kPa = 101.325
Property: Mass density, kg/m3 (Liquid); method: Vibrating tube method
Temperature, K	Mass density, kg/m3	uncertainty
293.15	993.88	0.23
298.15	988.48	0.23
303.15	983.07	0.23
308.15	977.67	0.23
313.15	972.27	0.23

System: propanoic acid; phases: Liquid
Fixed: Pressure, kPa = 101.325
Property: Speed of sound, m/s (Liquid); method: Linear variable-path acoustic interferometer
Temperature, K	Speed of sound, m/s	uncertainty
293.15	1165.6	1.6
298.15	1146.7	1.6
303.15	1127.7	1.6
308.15	1108.9	1.6
313.15	1090.2	1.6

System: propanoic acid; phases: Liquid
Fixed: Pressure, kPa = 101.325
Property: Refractive index (Na D-line) (Liquid); method: Standard Abbe refractometry
Temperature, K	Refractive index (Na D-line)	uncertainty
293.15	1.38682	0.00037
298.15	1.38471	0.00037
303.15	1.38255	0.00037
308.15	1.38039	0.00037
313.15	1.37825	0.00037
308.15	1.3804	0.00037

System: water; phases: Liquid
Property: Mass density, kg/m3 (Liquid); method: Vibrating tube method
Temperature, K	Pressure, kPa	Mass density, kg/m3	uncertainty
298.15	101.325	997.04	0.04

System: water; phases: Liquid
Property: Speed of sound, m/s (Liquid); method: Linear variable-path acoustic interferometer
Temperature, K	Pressure, kPa	Speed of sound, m/s	uncertainty
298.15	101.325	1497	1.6

System: water; phases: Liquid
Property: Refractive index (Na D-line) (Liquid); method: Standard Abbe refractometry
Temperature, K	Pressure, kPa	Refractive index (Na D-line)	uncertainty
298.15	101.325	1.33249	0.00031

System: propanoic acid + butanoic acid; phases: Liquid
Fixed: Pressure, kPa = 101
Property: Mass density, kg/m3 (Liquid); method: Vibrating tube method
Temperature, K	Mole fraction of butanoic acid	Mass density, kg/m3	uncertainty
293.15	0	993.88	0.23
293.15	0.0501	991.58	0.23
293.15	0.0985	989.44	0.23
293.15	0.1995	985.13	0.23
293.15	0.2996	981.1	0.23
293.15	0.3999	977.25	0.23
293.15	0.4999	973.59	0.23
293.15	0.6	970.11	0.23
293.15	0.6997	966.82	0.23
293.15	0.7993	963.67	0.23
293.15	0.8944	960.82	0.23
293.15	0.9497	959.21	0.23
293.15	1	957.78	0.23
298.15	0	988.48	0.23
298.15	0.0501	986.21	0.23
298.15	0.0985	984.09	0.23
298.15	0.1995	979.83	0.23
298.15	0.2996	975.85	0.23
298.15	0.3999	972.05	0.23
298.15	0.4999	968.43	0.23
298.15	0.6	964.99	0.23
298.15	0.6997	961.74	0.23
298.15	0.7993	958.63	0.23
298.15	0.8944	955.81	0.23
298.15	0.9497	954.22	0.23
298.15	1	952.82	0.23
303.15	0	983.07	0.23
303.15	0.0501	980.83	0.23
303.15	0.0985	978.73	0.23
303.15	0.1995	974.52	0.23
303.15	0.2996	970.59	0.23
303.15	0.3999	966.83	0.23
303.15	0.4999	963.26	0.23
303.15	0.6	959.86	0.23
303.15	0.6997	956.66	0.23
303.15	0.7993	953.58	0.23
303.15	0.8944	950.8	0.23
303.15	0.9497	949.23	0.23
303.15	1	947.84	0.23
308.15	0	977.67	0.23
308.15	0.0501	975.45	0.23
308.15	0.0985	973.38	0.23
308.15	0.1995	969.22	0.23
308.15	0.2996	965.34	0.23
308.15	0.3999	961.63	0.23
308.15	0.4999	958.1	0.23
308.15	0.6	954.74	0.23
308.15	0.6997	951.57	0.23
308.15	0.7993	948.54	0.23
308.15	0.8944	945.8	0.23
308.15	0.9497	944.25	0.23
308.15	1	942.88	0.23
313.15	0	972.27	0.23
313.15	0.0501	970.08	0.23
313.15	0.0985	968.03	0.23
313.15	0.1995	963.92	0.23
313.15	0.2996	960.08	0.23
313.15	0.3999	956.42	0.23
313.15	0.4999	952.94	0.23
313.15	0.6	949.62	0.23
313.15	0.6997	946.5	0.23
313.15	0.7993	943.5	0.23
313.15	0.8944	940.8	0.23
313.15	0.9497	939.26	0.23
313.15	1	937.91	0.23

System: propanoic acid + butanoic acid; phases: Liquid
Fixed: Pressure, kPa = 101
Property: Speed of sound, m/s (Liquid); method: Linear variable-path acoustic interferometer
Temperature, K	Mole fraction of butanoic acid	Speed of sound, m/s	uncertainty
293.15	0	1165.6	1.8
293.15	0.0501	1167.3	1.8
293.15	0.0985	1168.9	1.8
293.15	0.1995	1172	1.8
293.15	0.2996	1175.1	1.8
293.15	0.3999	1178.1	1.8
293.15	0.4999	1181.2	1.8
293.15	0.6	1184.2	1.9
293.15	0.6997	1187.1	1.9
293.15	0.7993	1190	1.9
293.15	0.8944	1192.7	1.9
293.15	0.9497	1194.2	1.9
293.15	1	1195.5	1.9
298.15	0	1146.7	1.8
298.15	0.0501	1148.4	1.8
298.15	0.0985	1150	1.8
298.15	0.1995	1153.3	1.8
298.15	0.2996	1156.4	1.8
298.15	0.3999	1159.5	1.8
298.15	0.4999	1162.5	1.8
298.15	0.6	1165.5	1.8
298.15	0.6997	1168.4	1.8
298.15	0.7993	1171.4	1.8
298.15	0.8944	1174	1.8
298.15	0.9497	1175.6	1.8
298.15	1	1176.9	1.8
303.15	0	1127.7	1.8
303.15	0.0501	1129.5	1.8
303.15	0.0985	1131.1	1.8
303.15	0.1995	1134.4	1.8
303.15	0.2996	1137.5	1.8
303.15	0.3999	1140.6	1.8
303.15	0.4999	1143.7	1.8
303.15	0.6	1146.7	1.8
303.15	0.6997	1149.7	1.8
303.15	0.7993	1152.6	1.8
303.15	0.8944	1155.3	1.8
303.15	0.9497	1156.9	1.8
303.15	1	1158.2	1.8
308.15	0	1108.9	1.8
308.15	0.0501	1110.7	1.8
308.15	0.0985	1112.3	1.8
308.15	0.1995	1115.7	1.8
308.15	0.2996	1118.8	1.8
308.15	0.3999	1121.9	1.8
308.15	0.4999	1125	1.8
308.15	0.6	1128.1	1.8
308.15	0.6997	1131	1.8
308.15	0.7993	1134	1.8
308.15	0.8944	1136.7	1.8
308.15	0.9497	1138.3	1.8
308.15	1	1139.7	1.8
313.15	0	1090.2	1.8
313.15	0.0501	1092	1.8
313.15	0.0985	1093.7	1.8
313.15	0.1995	1097.1	1.8
313.15	0.2996	1100.2	1.8
313.15	0.3999	1103.4	1.8
313.15	0.4999	1106.5	1.8
313.15	0.6	1109.6	1.8
313.15	0.6997	1112.6	1.8
313.15	0.7993	1115.6	1.8
313.15	0.8944	1118.3	1.8
313.15	0.9497	1119.9	1.8
313.15	1	1121.3	1.8

System: propanoic acid + butanoic acid; phases: Liquid
Fixed: Pressure, kPa = 101
Property: Refractive index (Na D-line) (Liquid); method: Standard Abbe refractometry
Temperature, K	Mole fraction of butanoic acid	Refractive index (Na D-line)	uncertainty
293.15	0	1.38682	0.00037
293.15	0.0501	1.38747	0.00037
293.15	0.0985	1.38809	0.00037
293.15	0.1995	1.38937	0.00037
293.15	0.2996	1.39062	0.00037
293.15	0.3999	1.39182	0.00037
293.15	0.4999	1.39297	0.00037
293.15	0.6	1.3941	0.00037
293.15	0.6997	1.39518	0.00037
293.15	0.7993	1.39624	0.00037
293.15	0.8944	1.39722	0.00037
293.15	0.9497	1.39777	0.00037
293.15	1	1.39826	0.00037
298.15	0	1.38471	0.00037
298.15	0.0501	1.38535	0.00037
298.15	0.0985	1.38597	0.00037
298.15	0.1995	1.38725	0.00037
298.15	0.2996	1.38849	0.00037
298.15	0.3999	1.38969	0.00037
298.15	0.4999	1.39085	0.00037
298.15	0.6	1.39197	0.00037
298.15	0.6997	1.39306	0.00037
298.15	0.7993	1.39411	0.00037
298.15	0.8944	1.3951	0.00037
298.15	0.9497	1.39566	0.00037
298.15	1	1.39615	0.00037
303.15	0	1.38255	0.00037
303.15	0.0501	1.38318	0.00037
303.15	0.0985	1.3838	0.00037
303.15	0.1995	1.38508	0.00037
303.15	0.2996	1.38632	0.00037
303.15	0.3999	1.38752	0.00037
303.15	0.4999	1.38867	0.00037
303.15	0.6	1.38979	0.00037
303.15	0.6997	1.39088	0.00037
303.15	0.7993	1.39194	0.00037
303.15	0.8944	1.39293	0.00037
303.15	0.9497	1.39348	0.00037
303.15	1	1.39398	0.00037
308.15	0	1.3804	0.00037
308.15	0.0501	1.38102	0.00037
308.15	0.0985	1.38164	0.00037
308.15	0.1995	1.38292	0.00037
308.15	0.2996	1.38416	0.00037
308.15	0.3999	1.38536	0.00037
308.15	0.4999	1.38651	0.00037
308.15	0.6	1.38763	0.00037
308.15	0.6997	1.38872	0.00037
308.15	0.7993	1.38979	0.00037
308.15	0.8944	1.39078	0.00037
308.15	0.9497	1.39133	0.00037
308.15	1	1.39183	0.00037
313.15	0	1.37825	0.00037
313.15	0.0501	1.37886	0.00037
313.15	0.0985	1.37948	0.00037
313.15	0.1995	1.38076	0.00037
313.15	0.2996	1.382	0.00037
313.15	0.3999	1.3832	0.00037
313.15	0.4999	1.38436	0.00037
313.15	0.6	1.38548	0.00037
313.15	0.6997	1.38656	0.00037
313.15	0.7993	1.38763	0.00037
313.15	0.8944	1.38863	0.00037
313.15	0.9497	1.38919	0.00037
313.15	1	1.38969	0.00037

System: 2-methylpropanoic acid + butanoic acid; phases: Liquid
Fixed: Pressure, kPa = 101
Property: Mass density, kg/m3 (Liquid); method: Vibrating tube method
Temperature, K	Mole fraction of butanoic acid	Mass density, kg/m3	uncertainty
293.15	0	948.24	0.23
293.15	0.049	948.73	0.23
293.15	0.1012	949.25	0.23
293.15	0.2	950.21	0.23
293.15	0.3	951.19	0.23
293.15	0.4	952.17	0.23
293.15	0.5	953.16	0.23
293.15	0.6	954.14	0.23
293.15	0.7	955.11	0.23
293.15	0.8	956.05	0.23
293.15	0.9	956.96	0.23
293.15	0.95	957.36	0.23
293.15	1	957.78	0.23
298.15	0	943.19	0.23
298.15	0.049	943.68	0.23
298.15	0.1012	944.2	0.23
298.15	0.2	945.17	0.23
298.15	0.3	946.16	0.23
298.15	0.4	947.15	0.23
298.15	0.5	948.15	0.23
298.15	0.6	949.14	0.23
298.15	0.7	950.12	0.23
298.15	0.8	951.06	0.23
298.15	0.9	951.98	0.23
298.15	0.95	952.39	0.23
298.15	1	952.82	0.23
303.15	0	938.12	0.23
303.15	0.049	938.62	0.23
303.15	0.1012	939.14	0.23
303.15	0.2	940.12	0.23
303.15	0.3	941.13	0.23
303.15	0.4	942.13	0.23
303.15	0.5	943.14	0.23
303.15	0.6	944.13	0.23
303.15	0.7	945.12	0.23
303.15	0.8	946.08	0.23
303.15	0.9	947.01	0.23
303.15	0.95	947.41	0.23
303.15	1	947.84	0.23
308.15	0	933.05	0.23
308.15	0.049	933.55	0.23
308.15	0.1012	934.08	0.23
308.15	0.2	935.07	0.23
308.15	0.3	936.08	0.23
308.15	0.4	937.09	0.23
308.15	0.5	938.12	0.23
308.15	0.6	939.13	0.23
308.15	0.7	940.12	0.23
308.15	0.8	941.09	0.23
308.15	0.9	942.03	0.23
308.15	0.95	942.44	0.23
308.15	1	942.88	0.23
313.15	0	927.97	0.23
313.15	0.049	928.47	0.23
313.15	0.1012	929.01	0.23
313.15	0.2	930.01	0.23
313.15	0.3	931.04	0.23
313.15	0.4	932.06	0.23
313.15	0.5	933.1	0.23
313.15	0.6	934.12	0.23
313.15	0.7	935.13	0.23
313.15	0.8	936.11	0.23
313.15	0.9	937.06	0.23
313.15	0.95	937.47	0.23
313.15	1	937.91	0.23

System: 2-methylpropanoic acid + butanoic acid; phases: Liquid
Fixed: Pressure, kPa = 101
Property: Speed of sound, m/s (Liquid); method: Linear variable-path acoustic interferometer
Temperature, K	Mole fraction of butanoic acid	Speed of sound, m/s	uncertainty
293.15	0	1152.4	1.8
293.15	0.049	1154.2	1.8
293.15	0.1012	1156.7	1.8
293.15	0.2	1160.2	1.8
293.15	0.3	1164.3	1.8
293.15	0.4	1168.6	1.8
293.15	0.5	1172.8	1.8
293.15	0.6	1177.2	1.8
293.15	0.7	1181.7	1.8
293.15	0.8	1186.2	1.9
293.15	0.9	1190.8	1.9
293.15	0.95	1193.2	1.9
293.15	1	1195.5	1.9
298.15	0	1133.5	1.8
298.15	0.049	1135.4	1.8
298.15	0.1012	1137.5	1.8
298.15	0.2	1141.5	1.8
298.15	0.3	1145.6	1.8
298.15	0.4	1149.9	1.8
298.15	0.5	1154.2	1.8
298.15	0.6	1158.6	1.8
298.15	0.7	1163	1.8
298.15	0.8	1167.6	1.8
298.15	0.9	1172.2	1.8
298.15	0.95	1174.6	1.8
298.15	1	1176.9	1.8
303.15	0	1114.5	1.8
303.15	0.049	1116.5	1.8
303.15	0.1012	1118.6	1.8
303.15	0.2	1122.6	1.8
303.15	0.3	1126.8	1.8
303.15	0.4	1131	1.8
303.15	0.5	1135.4	1.8
303.15	0.6	1139.8	1.8
303.15	0.7	1144.3	1.8
303.15	0.8	1148.8	1.8
303.15	0.9	1153.5	1.8
303.15	0.95	1155.8	1.8
303.15	1	1158.2	1.8
308.15	0	1095.7	1.8
308.15	0.049	1097.7	1.8
308.15	0.1012	1099.8	1.8
308.15	0.2	1103.9	1.8
308.15	0.3	1108.1	1.8
308.15	0.4	1112.4	1.8
308.15	0.5	1116.7	1.8
308.15	0.6	1121.2	1.8
308.15	0.7	1125.7	1.8
308.15	0.8	1130.2	1.8
308.15	0.9	1134.9	1.8
308.15	0.95	1137.3	1.8
308.15	1	1139.7	1.8
313.15	0	1077.2	1.8
313.15	0.049	1079.2	1.8
313.15	0.1012	1081.3	1.8
313.15	0.2	1085.4	1.8
313.15	0.3	1089.6	1.8
313.15	0.4	1093.9	1.8
313.15	0.5	1098.3	1.8
313.15	0.6	1102.7	1.8
313.15	0.7	1107.2	1.8
313.15	0.8	1111.8	1.8
313.15	0.9	1116.5	1.8
313.15	0.95	1118.9	1.8
313.15	1	1121.3	1.8

System: 2-methylpropanoic acid + butanoic acid; phases: Liquid
Fixed: Pressure, kPa = 101
Property: Refractive index (Na D-line) (Liquid); method: Standard Abbe refractometry
Temperature, K	Mole fraction of butanoic acid	Refractive index (Na D-line)	uncertainty
293.15	0	1.39326	0.00037
293.15	0.049	1.39352	0.00037
293.15	0.1012	1.39378	0.00037
293.15	0.2	1.39429	0.00037
293.15	0.3	1.39481	0.00037
293.15	0.4	1.39533	0.00037
293.15	0.5	1.39584	0.00037
293.15	0.6	1.39634	0.00037
293.15	0.7	1.39684	0.00037
293.15	0.8	1.39733	0.00037
293.15	0.9	1.39781	0.00037
293.15	0.95	1.39804	0.00037
293.15	1	1.39826	0.00037
298.15	0	1.39115	0.00037
298.15	0.049	1.3914	0.00037
298.15	0.1012	1.39166	0.00037
298.15	0.2	1.39217	0.00037
298.15	0.3	1.39269	0.00037
298.15	0.4	1.3932	0.00037
298.15	0.5	1.39372	0.00037
298.15	0.6	1.39422	0.00037
298.15	0.7	1.39472	0.00037
298.15	0.8	1.39521	0.00037
298.15	0.9	1.39569	0.00037
298.15	0.95	1.39592	0.00037
298.15	1	1.39615	0.00037
303.15	0	1.38892	0.00037
303.15	0.049	1.38917	0.00037
303.15	0.1012	1.38944	0.00037
303.15	0.2	1.38995	0.00037
303.15	0.3	1.39047	0.00037
303.15	0.4	1.39099	0.00037
303.15	0.5	1.39151	0.00037
303.15	0.6	1.39202	0.00037
303.15	0.7	1.39252	0.00037
303.15	0.8	1.39301	0.00037
303.15	0.9	1.3935	0.00037
303.15	0.95	1.39374	0.00037
303.15	1	1.39398	0.00037
308.15	0	1.38674	0.00037
308.15	0.049	1.38699	0.00037
308.15	0.1012	1.38726	0.00037
308.15	0.2	1.38777	0.00037
308.15	0.3	1.38829	0.00037
308.15	0.4	1.38881	0.00037
308.15	0.5	1.38933	0.00037
308.15	0.6	1.38985	0.00037
308.15	0.7	1.39036	0.00037
308.15	0.8	1.39086	0.00037
308.15	0.9	1.39135	0.00037
308.15	0.95	1.39159	0.00037
308.15	1	1.39183	0.00037
313.15	0	1.38454	0.00037
313.15	0.049	1.38479	0.00037
313.15	0.1012	1.38506	0.00037
313.15	0.2	1.38558	0.00037
313.15	0.3	1.3861	0.00037
313.15	0.4	1.38663	0.00037
313.15	0.5	1.38715	0.00037
313.15	0.6	1.38768	0.00037
313.15	0.7	1.38819	0.00037
313.15	0.8	1.38869	0.00037
313.15	0.9	1.38919	0.00037
313.15	0.95	1.38944	0.00037
313.15	1	1.38969	0.00037
