Measured thermophysical data. Ultrasound velocity in dissolving alkali halide melts
Source: J. Chem. Thermodyn., 2011, 10.1016/j.jct.2010.10.021
Compound 1: lithium fluoride, FLi, InChI=1S/FH.Li/h1H;/q;+1/p-1
Compound 2: cesium chloride, ClCs, InChI=1S/ClH.Cs/h1H;/q;+1/p-1
Compound 3: potassium bromide, BrK, InChI=1S/BrH.K/h1H;/q;+1/p-1
Compound 4: rubidium bromide, BrRb, InChI=1S/BrH.Rb/h1H;/q;+1/p-1
Compound 5: cesium bromide, BrCs, InChI=1S/BrH.Cs/h1H;/q;+1/p-1
Compound 6: potassium iodide, IK, InChI=1S/HI.K/h1H;/q;+1/p-1
Compound 7: rubidium iodide (RbI), IRb, InChI=1S/HI.Rb/h1H;/q;+1/p-1
Compound 8: cesium iodide, CsI, InChI=1S/Cs.HI/h;1H/q+1;/p-1

System: lithium fluoride + potassium bromide; phases: Liquid mixture 1, Liquid mixture 2, Air at 1 atmosphere
Property: Upper consolute temperature, K (Liquid mixture 1); method: From speed of sound measurements
Upper consolute temperature, K	uncertainty
1243	1

System: lithium fluoride + potassium bromide; phases: Liquid mixture 1, Liquid mixture 2
Fixed: Pressure, kPa = 100
Fixed: Frequency, MHz = 5
Property: Speed of sound, m/s (Liquid mixture 1); method: Single path-length method
Temperature, K	Speed of sound, m/s	uncertainty
1109	2185	44
1126	2105	42
1153	2010	40
1168	1914	38
1185	1834	37
1188	1766	35
1199	1670	33
1213	1525	31
1219	1515	30
1229	1492	30
1237	1440	29

System: lithium fluoride + potassium bromide; phases: Liquid mixture 2, Liquid mixture 1
Fixed: Pressure, kPa = 100
Fixed: Frequency, MHz = 5
Property: Speed of sound, m/s (Liquid mixture 2); method: Single path-length method
Temperature, K	Speed of sound, m/s	uncertainty
1109	1230	25
1126	1231	25
1153	1247	25
1168	1256	25
1185	1322	26
1188	1322	26
1199	1360	27
1213	1350	27
1219	1370	27
1229	1390	28
1237	1410	28

System: lithium fluoride + potassium bromide; phases: Liquid
Fixed: Pressure, kPa = 100
Fixed: Mole fraction of lithium fluoride = 0.7
Fixed: Frequency, MHz = 5
Property: Speed of sound, m/s (Liquid); method: Single path-length method
Temperature, K	Speed of sound, m/s	uncertainty
1243	1408	28
1254	1394	28
1260	1385	28

System: lithium fluoride + rubidium bromide; phases: Liquid mixture 1, Liquid mixture 2
Fixed: Pressure, kPa = 100
Fixed: Frequency, MHz = 5
Property: Speed of sound, m/s (Liquid mixture 1); method: Single path-length method
Temperature, K	Speed of sound, m/s	uncertainty
1123	2339	47
1133	2310	46
1153	2242	45
1173	2212	44
1193	2150	43
1211	2115	42
1228	2074	41
1243	1992	40
1251	1984	40

System: lithium fluoride + rubidium bromide; phases: Liquid mixture 2, Liquid mixture 1
Fixed: Pressure, kPa = 100
Fixed: Frequency, MHz = 5
Property: Speed of sound, m/s (Liquid mixture 2); method: Single path-length method
Temperature, K	Speed of sound, m/s	uncertainty
1123	1031	21
1133	1033	21
1153	1020	20
1173	1002	20
1193	1005	20
1211	1000	20
1228	987	20
1243	978	20
1251	980	20

System: lithium fluoride + cesium bromide; phases: Liquid mixture 1, Liquid mixture 2
Fixed: Pressure, kPa = 100
Fixed: Frequency, MHz = 5
Property: Speed of sound, m/s (Liquid mixture 1); method: Single path-length method
Temperature, K	Speed of sound, m/s	uncertainty
1133	2370	47
1143	2360	47
1166	2222	44
1183	2200	44
1203	2120	42
1220	2020	40
1243	2000	40

System: lithium fluoride + cesium bromide; phases: Liquid mixture 2, Liquid mixture 1
Fixed: Pressure, kPa = 100
Fixed: Frequency, MHz = 5
Property: Speed of sound, m/s (Liquid mixture 2); method: Single path-length method
Temperature, K	Speed of sound, m/s	uncertainty
1133	900	18
1143	892	18
1166	870	17
1183	876	18
1203	863	17
1220	857	17
1243	855	17

System: lithium fluoride + potassium iodide; phases: Liquid mixture 1, Liquid mixture 2
Fixed: Pressure, kPa = 100
Fixed: Frequency, MHz = 5
Property: Speed of sound, m/s (Liquid mixture 1); method: Single path-length method
Temperature, K	Speed of sound, m/s	uncertainty
1135	2217	44
1144	2205	44
1156	2183	44
1165	2152	43
1186	2084	42
1200	2043	41
1219	2003	40
1236	1955	39
1251	1915	38

System: lithium fluoride + potassium iodide; phases: Liquid mixture 2, Liquid mixture 1
Fixed: Pressure, kPa = 100
Fixed: Frequency, MHz = 5
Property: Speed of sound, m/s (Liquid mixture 2); method: Single path-length method
Temperature, K	Speed of sound, m/s	uncertainty
1135	995	20
1144	1015	20
1156	1011	20
1165	1018	20
1186	1025	21
1200	1033	21
1219	1041	21
1236	1050	21
1251	1062	21

System: lithium fluoride + rubidium iodide (RbI); phases: Liquid mixture 1, Liquid mixture 2
Fixed: Pressure, kPa = 100
Fixed: Frequency, MHz = 5
Property: Speed of sound, m/s (Liquid mixture 1); method: Single path-length method
Temperature, K	Speed of sound, m/s	uncertainty
1128	2400	48
1143	2365	47
1164	2330	47
1183	2300	46
1201	2260	45
1219	2225	45
1241	2180	44
1258	2140	43

System: lithium fluoride + rubidium iodide (RbI); phases: Liquid mixture 2, Liquid mixture 1
Fixed: Pressure, kPa = 100
Fixed: Frequency, MHz = 5
Property: Speed of sound, m/s (Liquid mixture 2); method: Single path-length method
Temperature, K	Speed of sound, m/s	uncertainty
1128	915	18
1143	904	18
1164	880	18
1183	865	17
1201	854	17
1219	840	17
1241	835	17
1258	831	17

System: lithium fluoride + cesium iodide; phases: Liquid mixture 1, Liquid mixture 2
Fixed: Pressure, kPa = 100
Fixed: Frequency, MHz = 5
Property: Speed of sound, m/s (Liquid mixture 1); method: Single path-length method
Temperature, K	Speed of sound, m/s	uncertainty
1135	2520	50
1146	2501	50
1165	2462	49
1183	2405	48
1201	2347	47
1220	2290	46
1243	2240	45
1253	2200	44

System: lithium fluoride + cesium iodide; phases: Liquid mixture 2, Liquid mixture 1
Fixed: Pressure, kPa = 100
Fixed: Frequency, MHz = 5
Property: Speed of sound, m/s (Liquid mixture 2); method: Single path-length method
Temperature, K	Speed of sound, m/s	uncertainty
1135	830	17
1146	824	16
1165	814	16
1183	803	16
1201	795	16
1220	785	16
1243	780	16
1253	781	16

System: lithium fluoride + cesium chloride; phases: Liquid mixture 1, Liquid mixture 2, Air at 1 atmosphere
Property: Upper consolute temperature, K (Liquid mixture 1); method: From speed of sound measurements
Upper consolute temperature, K	uncertainty
1257	1

System: lithium fluoride + cesium chloride; phases: Liquid mixture 1, Liquid mixture 2
Fixed: Pressure, kPa = 100
Fixed: Frequency, MHz = 5
Property: Speed of sound, m/s (Liquid mixture 1); method: Single path-length method
Temperature, K	Speed of sound, m/s	uncertainty
1143	2105	42
1173	2000	40
1203	1850	37
1225	1600	32
1243	1340	27
1253	1245	25

System: lithium fluoride + cesium chloride; phases: Liquid mixture 2, Liquid mixture 1
Fixed: Pressure, kPa = 100
Fixed: Frequency, MHz = 5
Property: Speed of sound, m/s (Liquid mixture 2); method: Single path-length method
Temperature, K	Speed of sound, m/s	uncertainty
1143	1100	22
1173	1140	23
1203	1160	23
1225	1190	24
1243	1230	25
1253	1240	25

System: lithium fluoride + cesium chloride; phases: Liquid
Fixed: Pressure, kPa = 100
Fixed: Mole fraction of lithium fluoride = 0.7
Fixed: Frequency, MHz = 5
Property: Speed of sound, m/s (Liquid); method: Single path-length method
Temperature, K	Speed of sound, m/s	uncertainty
1261	1236	25
1271	1226	25
1278	1220	24
1261	1235	25
