Measured thermophysical data. Effect of temperature on intermolecular interactions between the organic solvents: Insights from density and excess volume
Source: J. Chem. Thermodyn., 2019, 10.1016/j.jct.2017.07.035
Compound 1: toluene, C7H8, InChI=1S/C7H8/c1-7-5-3-2-4-6-7/h2-6H,1H3, purity 99.9%
Compound 2: acetic acid, C2H4O2, InChI=1S/C2H4O2/c1-2(3)4/h1H3,(H,3,4), purity 99.9%
Compound 3: hexan-1-ol, C6H14O, InChI=1S/C6H14O/c1-2-3-4-5-6-7/h7H,2-6H2,1H3, purity 99.8%
Compound 4: 2-octanol, C8H18O, InChI=1S/C8H18O/c1-3-4-5-6-7-8(2)9/h8-9H,3-7H2,1-2H3, purity 99.8%
Compound 5: heptane, C7H16, InChI=1S/C7H16/c1-3-5-7-6-4-2/h3-7H2,1-2H3, purity 99.9%
Compound 6: cyclohexane, C6H12, InChI=1S/C6H12/c1-2-4-6-5-3-1/h1-6H2, purity 99.9%

System: toluene; phases: Liquid
Fixed: Pressure, kPa = 100
Property: Mass density, kg/m3 (Liquid); method: Vibrating tube method
Temperature, K	Mass density, kg/m3	uncertainty
288.15	871	4
293.15	868	4
298.15	862	4
303.15	858	4
313.15	848	4
323.15	840	4
333.15	831	4
343.15	821	4
293.15	867	4

System: acetic acid; phases: Liquid
Fixed: Pressure, kPa = 100
Property: Mass density, kg/m3 (Liquid); method: Vibrating tube method
Temperature, K	Mass density, kg/m3	uncertainty
288.15	1053	4
293.15	1052	4
298.15	1042	4
303.15	1037	4
313.15	1025	4
323.15	1015	4
333.15	1004	4
343.15	993	4

System: hexan-1-ol; phases: Liquid
Fixed: Pressure, kPa = 100
Property: Mass density, kg/m3 (Liquid); method: Vibrating tube method
Temperature, K	Mass density, kg/m3	uncertainty
288.15	822	4
293.15	819	4
298.15	815	4
303.15	812	4
313.15	805	4
323.15	798	4
333.15	791	4
343.15	783	4

System: 2-octanol; phases: Liquid
Fixed: Pressure, kPa = 100
Property: Mass density, kg/m3 (Liquid); method: Vibrating tube method
Temperature, K	Mass density, kg/m3	uncertainty
288.15	824	4
293.15	820	4
298.15	817	4
303.15	813	4
313.15	805	4
323.15	798	4
333.15	791	4
343.15	782	4

System: heptane; phases: Liquid
Fixed: Pressure, kPa = 100
Property: Mass density, kg/m3 (Liquid); method: Vibrating tube method
Temperature, K	Mass density, kg/m3	uncertainty
288.15	689	4
293.15	685	4
298.15	680	4
303.15	676	4
313.15	668	4
323.15	660	4
333.15	651	4
343.15	642	4

System: cyclohexane; phases: Liquid
Fixed: Pressure, kPa = 100
Property: Mass density, kg/m3 (Liquid); method: Vibrating tube method
Temperature, K	Mass density, kg/m3	uncertainty
288.15	783	4
293.15	779	4
298.15	774	4
303.15	769	4
313.15	760	4
323.15	751	4
333.15	741	4
343.15	731	4

System: acetic acid + toluene; phases: Liquid
Fixed: Pressure, kPa = 100
Property: Mass density, kg/m3 (Liquid); method: Vibrating tube method
Temperature, K	Mole fraction of toluene	Mass density, kg/m3	uncertainty
288.15	0	1053	4
288.15	0.1003	1018	4
288.15	0.2037	988	4
288.15	0.3072	964	4
288.15	0.3947	946	4
288.15	0.4941	929	4
288.15	0.594	914	4
288.15	0.6934	902	4
288.15	0.7935	890	4
288.15	0.8937	881	4
288.15	1	871	4
293.15	0	1052	4
293.15	0.1003	1016	4
293.15	0.2037	986	4
293.15	0.3072	961	4
293.15	0.3947	944	4
293.15	0.4941	927	4
293.15	0.594	912	4
293.15	0.6934	899	4
293.15	0.7935	888	4
293.15	0.8937	878	4
293.15	1	868	4
298.15	0	1042	4
298.15	0.1003	1008	4
298.15	0.2037	978	4
298.15	0.3072	953	4
298.15	0.3947	936	4
298.15	0.4941	919	4
298.15	0.594	904	4
298.15	0.6934	892	4
298.15	0.7935	881	4
298.15	0.8937	871	4
298.15	1	862	4
303.15	0	1037	4
303.15	0.1003	1002	4
303.15	0.2037	972	4
303.15	0.3072	948	4
303.15	0.3947	930	4
303.15	0.4941	914	4
303.15	0.594	899	4
303.15	0.6934	887	4
303.15	0.7935	876	4
303.15	0.8937	867	4
303.15	1	858	4
313.15	0	1025	4
313.15	0.1003	991	4
313.15	0.2037	961	4
313.15	0.3072	937	4
313.15	0.3947	920	4
313.15	0.4941	903	4
313.15	0.594	889	4
313.15	0.6934	877	4
313.15	0.7935	867	4
313.15	0.8937	857	4
313.15	1	848	4
323.15	0	1015	4
323.15	0.1003	981	4
323.15	0.2037	951	4
323.15	0.3072	928	4
323.15	0.3947	911	4
323.15	0.4941	894	4
323.15	0.594	880	4
323.15	0.6934	868	4
323.15	0.7935	858	4
323.15	0.8937	849	4
323.15	1	840	4
333.15	0	1004	4
333.15	0.1003	970	4
333.15	0.2037	941	4
333.15	0.3072	917	4
333.15	0.3947	900	4
333.15	0.4941	884	4
333.15	0.594	870	4
333.15	0.6934	858	4
333.15	0.7935	848	4
333.15	0.8937	840	4
333.15	1	831	4
343.15	0	993	4
343.15	0.1003	959	4
343.15	0.2037	929	4
343.15	0.3072	906	4
343.15	0.3947	889	4
343.15	0.4941	873	4
343.15	0.594	860	4
343.15	0.6934	848	4
343.15	0.7935	838	4
343.15	0.8937	829	4
343.15	1	821	4

System: acetic acid + cyclohexane; phases: Liquid
Fixed: Pressure, kPa = 100
Property: Mass density, kg/m3 (Liquid); method: Vibrating tube method
Temperature, K	Mole fraction of cyclohexane	Mass density, kg/m3	uncertainty
288.15	0	1053	4
288.15	0.1032	997	4
288.15	0.2053	950	4
288.15	0.3076	914	4
288.15	0.3892	890	4
288.15	0.4908	865	4
288.15	0.5957	842	4
288.15	0.6921	824	4
288.15	0.7919	808	4
288.15	0.8894	795	4
288.15	1	783	4
293.15	0	1052	4
293.15	0.1032	995	4
293.15	0.2053	948	4
293.15	0.3076	911	4
293.15	0.3892	887	4
293.15	0.4908	861	4
293.15	0.5957	838	4
293.15	0.6921	820	4
293.15	0.7919	805	4
293.15	0.8894	792	4
293.15	1	779	4
298.15	0	1042	4
298.15	0.1032	986	4
298.15	0.2053	940	4
298.15	0.3076	904	4
298.15	0.3892	879	4
298.15	0.4908	854	4
298.15	0.5957	832	4
298.15	0.6921	814	4
298.15	0.7919	799	4
298.15	0.8894	786	4
298.15	1	774	4
303.15	0	1037	4
303.15	0.1032	980	4
303.15	0.2053	934	4
303.15	0.3076	898	4
303.15	0.3892	874	4
303.15	0.4908	848	4
303.15	0.5957	826	4
303.15	0.6921	809	4
303.15	0.7919	794	4
303.15	0.8894	781	4
303.15	1	769	4
313.15	0	1025	4
313.15	0.1032	969	4
313.15	0.2053	923	4
313.15	0.3076	887	4
313.15	0.3892	863	4
313.15	0.4908	838	4
313.15	0.5957	816	4
313.15	0.6921	798	4
313.15	0.7919	783	4
313.15	0.8894	771	4
313.15	1	760	4
323.15	0	1015	4
323.15	0.1032	959	4
323.15	0.2053	913	4
323.15	0.3076	876	4
323.15	0.3892	853	4
323.15	0.4908	828	4
323.15	0.5957	806	4
323.15	0.6921	789	4
323.15	0.7919	774	4
323.15	0.8894	763	4
323.15	1	751	4
333.15	0	1004	4
333.15	0.1032	948	4
333.15	0.2053	901	4
333.15	0.3076	865	4
333.15	0.3892	842	4
333.15	0.4908	817	4
333.15	0.5957	795	4
333.15	0.6921	779	4
333.15	0.7919	764	4
333.15	0.8894	753	4
333.15	1	741	4
343.15	0	993	4
343.15	0.1032	936	4
343.15	0.2053	890	4
343.15	0.3076	854	4
343.15	0.3892	830	4
343.15	0.4908	806	4
343.15	0.5957	784	4
343.15	0.6921	768	4
343.15	0.7919	754	4
343.15	0.8894	742	4
343.15	1	731	4

System: toluene + hexan-1-ol; phases: Liquid
Fixed: Pressure, kPa = 100
Property: Mass density, kg/m3 (Liquid); method: Vibrating tube method
Temperature, K	Mole fraction of toluene	Mass density, kg/m3	uncertainty
288.15	0	822	4
288.15	0.1001	827	4
288.15	0.2034	831	4
288.15	0.3042	836	4
288.15	0.3604	838	4
288.15	0.4968	845	4
288.15	0.5929	849	4
288.15	0.6989	854	4
288.15	0.7982	860	4
288.15	0.8984	865	4
288.15	1	871	4
293.15	0	819	4
293.15	0.1001	823	4
293.15	0.2034	828	4
293.15	0.3042	832	4
293.15	0.3604	834	4
293.15	0.4968	840	4
293.15	0.5929	845	4
293.15	0.6989	850	4
293.15	0.7982	855	4
293.15	0.8984	861	4
293.15	1	867	4
298.15	0	815	4
298.15	0.1001	819	4
298.15	0.2034	824	4
298.15	0.3042	828	4
298.15	0.3604	830	4
298.15	0.4968	836	4
298.15	0.5929	840	4
298.15	0.6989	846	4
298.15	0.7982	850	4
298.15	0.8984	856	4
298.15	1	862	4
303.15	0	812	4
303.15	0.1001	816	4
303.15	0.2034	820	4
303.15	0.3042	824	4
303.15	0.3604	826	4
303.15	0.4968	832	4
303.15	0.5929	836	4
303.15	0.6989	841	4
303.15	0.7982	846	4
303.15	0.8984	852	4
303.15	1	858	4
313.15	0	805	4
313.15	0.1001	808	4
313.15	0.2034	812	4
313.15	0.3042	816	4
313.15	0.3604	818	4
313.15	0.4968	824	4
313.15	0.5929	828	4
313.15	0.6989	833	4
313.15	0.7982	837	4
313.15	0.8984	842	4
313.15	1	848	4
323.15	0	798	4
323.15	0.1001	802	4
323.15	0.2034	805	4
323.15	0.3042	809	4
323.15	0.3604	811	4
323.15	0.4968	816	4
323.15	0.5929	820	4
323.15	0.6989	824	4
323.15	0.7982	829	4
323.15	0.8984	834	4
323.15	1	840	4
333.15	0	791	4
333.15	0.1001	794	4
333.15	0.2034	798	4
333.15	0.3042	801	4
333.15	0.3604	803	4
333.15	0.4968	808	4
333.15	0.5929	811	4
333.15	0.6989	816	4
333.15	0.7982	820	4
333.15	0.8984	825	4
333.15	1	831	4
343.15	0	783	4
343.15	0.1001	786	4
343.15	0.2034	789	4
343.15	0.3042	792	4
343.15	0.3604	794	4
343.15	0.4968	799	4
343.15	0.5929	802	4
343.15	0.6989	806	4
343.15	0.7982	810	4
343.15	0.8984	815	4
343.15	1	821	4

System: toluene + 2-octanol; phases: Liquid
Fixed: Pressure, kPa = 100
Property: Mass density, kg/m3 (Liquid); method: Vibrating tube method
Temperature, K	Mole fraction of toluene	Mass density, kg/m3	uncertainty
288.15	0	824	4
288.15	0.0963	827	4
288.15	0.2016	830	4
288.15	0.3046	834	4
288.15	0.4026	837	4
288.15	0.5032	841	4
288.15	0.5923	845	4
288.15	0.6963	851	4
288.15	0.7925	856	4
288.15	0.8956	863	4
288.15	1	871	4
293.15	0	820	4
293.15	0.0963	823	4
293.15	0.2016	826	4
293.15	0.3046	829	4
293.15	0.4026	833	4
293.15	0.5032	837	4
293.15	0.5923	841	4
293.15	0.6963	846	4
293.15	0.7925	852	4
293.15	0.8956	859	4
293.15	1	867	4
298.15	0	817	4
298.15	0.0963	819	4
298.15	0.2016	822	4
298.15	0.3046	825	4
298.15	0.4026	829	4
298.15	0.5032	833	4
298.15	0.5923	837	4
298.15	0.6963	842	4
298.15	0.7925	847	4
298.15	0.8956	854	4
298.15	1	862	4
303.15	0	813	4
303.15	0.0963	815	4
303.15	0.2016	818	4
303.15	0.3046	822	4
303.15	0.4026	825	4
303.15	0.5032	829	4
303.15	0.5923	833	4
303.15	0.6963	838	4
303.15	0.7925	843	4
303.15	0.8956	850	4
303.15	1	858	4
313.15	0	805	4
313.15	0.0963	808	4
313.15	0.2016	811	4
313.15	0.3046	814	4
313.15	0.4026	817	4
313.15	0.5032	820	4
313.15	0.5923	824	4
313.15	0.6963	829	4
313.15	0.7925	834	4
313.15	0.8956	840	4
313.15	1	848	4
323.15	0	798	4
323.15	0.0963	801	4
323.15	0.2016	803	4
323.15	0.3046	806	4
323.15	0.4026	809	4
323.15	0.5032	813	4
323.15	0.5923	816	4
323.15	0.6963	821	4
323.15	0.7925	826	4
323.15	0.8956	832	4
323.15	1	840	4
333.15	0	791	4
333.15	0.0963	793	4
333.15	0.2016	795	4
333.15	0.3046	798	4
333.15	0.4026	801	4
333.15	0.5032	804	4
333.15	0.5923	808	4
333.15	0.6963	812	4
333.15	0.7925	817	4
333.15	0.8956	823	4
333.15	1	831	4
343.15	0	782	4
343.15	0.0963	784	4
343.15	0.2016	787	4
343.15	0.3046	789	4
343.15	0.4026	792	4
343.15	0.5032	795	4
343.15	0.5923	799	4
343.15	0.6963	803	4
343.15	0.7925	807	4
343.15	0.8956	813	4
343.15	1	821	4

System: hexan-1-ol + heptane; phases: Liquid
Fixed: Pressure, kPa = 100
Property: Mass density, kg/m3 (Liquid); method: Vibrating tube method
Temperature, K	Mole fraction of heptane	Mass density, kg/m3	uncertainty
288.15	0	822	4
288.15	0.098	808	4
288.15	0.2032	792	4
288.15	0.3056	778	4
288.15	0.3941	765	4
288.15	0.5004	750	4
288.15	0.5984	738	4
288.15	0.6973	725	4
288.15	0.7966	713	4
288.15	0.8968	701	4
288.15	1	689	4
293.15	0	819	4
293.15	0.098	804	4
293.15	0.2032	788	4
293.15	0.3056	774	4
293.15	0.3941	761	4
293.15	0.5004	746	4
293.15	0.5984	734	4
293.15	0.6973	720	4
293.15	0.7966	708	4
293.15	0.8968	696	4
293.15	1	685	4
298.15	0	815	4
298.15	0.098	800	4
298.15	0.2032	785	4
298.15	0.3056	770	4
298.15	0.3941	757	4
298.15	0.5004	742	4
298.15	0.5984	729	4
298.15	0.6973	716	4
298.15	0.7966	704	4
298.15	0.8968	692	4
298.15	1	680	4
303.15	0	812	4
303.15	0.098	797	4
303.15	0.2032	781	4
303.15	0.3056	766	4
303.15	0.3941	754	4
303.15	0.5004	738	4
303.15	0.5984	726	4
303.15	0.6973	712	4
303.15	0.7966	700	4
303.15	0.8968	688	4
303.15	1	676	4
313.15	0	805	4
313.15	0.098	789	4
313.15	0.2032	773	4
313.15	0.3056	759	4
313.15	0.3941	745	4
313.15	0.5004	730	4
313.15	0.5984	717	4
313.15	0.6973	704	4
313.15	0.7966	692	4
313.15	0.8968	679	4
313.15	1	668	4
323.15	0	798	4
323.15	0.098	783	4
323.15	0.2032	767	4
323.15	0.3056	751	4
323.15	0.3941	738	4
323.15	0.5004	723	4
323.15	0.5984	709	4
323.15	0.6973	696	4
323.15	0.7966	684	4
323.15	0.8968	671	4
323.15	1	660	4
333.15	0	791	4
333.15	0.098	775	4
333.15	0.2032	759	4
333.15	0.3056	744	4
333.15	0.3941	730	4
333.15	0.5004	715	4
333.15	0.5984	701	4
333.15	0.6973	688	4
333.15	0.7966	675	4
333.15	0.8968	663	4
333.15	1	651	4
343.15	0	783	4
343.15	0.098	767	4
343.15	0.2032	750	4
343.15	0.3056	735	4
343.15	0.3941	721	4
343.15	0.5004	706	4
343.15	0.5984	692	4
343.15	0.6973	678	4
343.15	0.7966	666	4
343.15	0.8968	653	4
343.15	1	642	4
