Measured thermophysical data. Thermophysical and thermodynamic properties of ionic liquids over an extended pressure range: [bmim][NTf2] and [hmim][NTf2]
Source: J. Chem. Thermodyn., 2005, 10.1016/j.jct.2005.04.018
Compound 1: 1-butyl-3-methylimidazolium bis(trifluoromethylsulfonyl)imide, C10H15F6N3O4S2, InChI=1S/C8H15N2.C2F6NO4S2/c1-3-4-5-10-7-6-9(2)8-10;3-1(4,5)14(10,11)9-15(12,13)2(6,7)8/h6-8H,3-5H2,1-2H3;/q+1;-1
Compound 2: 1-hexyl-3-methylimidazolium bis[(trifluoromethyl)sulfonyl]imide, C12H19F6N3O4S2, InChI=1S/C10H19N2.C2F6NO4S2/c1-3-4-5-6-7-12-9-8-11(2)10-12;3-1(4,5)14(10,11)9-15(12,13)2(6,7)8/h8-10H,3-7H2,1-2H3;/q+1;-1

System: 1-butyl-3-methylimidazolium bis(trifluoromethylsulfonyl)imide; phases: Liquid
Property: Speed of sound, m/s (Liquid); method: Linear variable-path acoustic interferometer
Temperature, K	Pressure, kPa	Speed of sound, m/s	uncertainty
283.15	100	1264.55	5.31
283.15	5090	1280.8	5.38
283.15	9980	1296.79	5.44
283.15	20020	1327.89	5.56
283.15	29950	1357.26	5.68
283.15	44830	1398.7	5.86
283.15	59710	1437.55	6
283.15	79700	1486.76	6.2
283.15	98920	1531.26	6.38
283.15	124410	1586.58	6.6
283.15	151000	1640.47	6.82
293.15	100	1238.06	5.2
293.15	5000	1254.63	5.27
293.15	10020	1271.15	5.34
293.15	20010	1302.51	5.46
293.15	59650	1411.77	5.9
293.15	99720	1505.9	6.28
293.15	151200	1611.94	6.71
303.15	100	1217.51	5.12
303.15	5030	1233.96	5.19
303.15	10000	1250.67	5.25
303.15	20030	1282.84	5.38
303.15	59720	1393.47	5.82
303.15	98960	1485.86	6.2
303.15	150840	1592.89	6.63
313.15	100	1194.5	5.03
313.15	5010	1211.49	5.1
313.15	10010	1228.65	5.17
313.15	19960	1261.1	5.3
313.15	59730	1373.46	5.74
313.15	98970	1466.37	6.12
313.15	150890	1573.23	6.55
323.15	100	1172.58	4.94
323.15	5050	1190.18	5.01
323.15	10030	1207.77	5.08
323.15	19940	1240.95	5.22
323.15	59810	1355.93	5.68
323.15	99220	1450.79	6.06
323.15	150840	1557.39	6.48

System: 1-butyl-3-methylimidazolium bis(trifluoromethylsulfonyl)imide; phases: Liquid
Property: Mass density, kg/m3 (Liquid); method: Vibrating tube method
Temperature, K	Pressure, kPa	Mass density, kg/m3	uncertainty
298.15	100	1437.04	0.94
298.15	5000	1440.78	0.97
298.15	7460	1442.64	0.98
298.15	9920	1444.45	0.99
298.15	12380	1446.22	1.01
298.15	14840	1447.99	1.02
298.15	17300	1449.71	1.04
298.15	19760	1451.41	1.06
298.15	22210	1453.09	1.08
298.15	24670	1454.75	1.11
298.15	27130	1456.4	1.13
298.15	29590	1458.04	1.16
298.15	32050	1459.61	1.18
298.15	34510	1461.19	1.21
298.15	36970	1462.78	1.24
298.15	39430	1464.31	1.27
298.15	41880	1465.81	1.3
298.15	44340	1467.33	1.33
298.15	46800	1468.8	1.36
298.15	49260	1470.28	1.39
298.15	51720	1471.69	1.43
298.15	54180	1473.13	1.46
298.15	56640	1474.55	1.49
298.15	59100	1475.94	1.53
303.14	100	1432.49	0.94
303.14	5000	1436.13	0.96
303.14	7460	1437.93	0.97
303.14	9920	1439.73	0.99
303.14	12380	1441.51	1
303.14	14840	1443.23	1.02
303.14	17300	1444.96	1.04
303.14	19760	1446.65	1.06
303.14	22210	1448.37	1.08
303.14	24670	1449.99	1.1
303.14	27130	1451.64	1.12
303.14	29590	1453.25	1.15
303.14	32050	1454.87	1.17
303.14	34510	1456.47	1.2
303.14	36970	1458.05	1.23
303.14	39430	1459.6	1.26
303.14	41880	1461.17	1.29
303.14	44340	1462.67	1.32
303.14	46800	1464.2	1.35
303.14	49260	1465.69	1.38
303.14	51720	1467.16	1.42
303.14	54180	1468.67	1.45
303.14	56640	1470.14	1.49
303.14	59100	1471.59	1.52
308.09	100	1427.92	0.94
308.09	5000	1431.5	0.96
308.09	7460	1433.28	0.97
308.09	9920	1435.07	0.98
308.09	12380	1436.81	1
308.09	14840	1438.55	1.02
308.09	17300	1440.27	1.03
308.09	19760	1441.96	1.05
308.09	22210	1443.64	1.07
308.09	24670	1445.32	1.1
308.09	27130	1446.94	1.12
308.09	29590	1448.61	1.14
308.09	32050	1450.21	1.17
308.09	34510	1451.8	1.19
308.09	36970	1453.43	1.22
308.09	39430	1454.99	1.25
308.09	41880	1456.59	1.28
308.09	44340	1458.14	1.31
308.09	46800	1459.69	1.34
308.09	49260	1461.21	1.37
308.09	51720	1462.74	1.41
308.09	54180	1464.26	1.44
308.09	56640	1465.8	1.48
308.09	59100	1467.28	1.51
313.15	100	1422.99	0.94
313.15	5000	1426.56	0.95
313.15	7460	1428.4	0.97
313.15	9920	1430.14	0.98
313.15	12380	1431.97	1
313.15	14840	1433.7	1.01
313.15	17300	1435.41	1.03
313.15	19760	1437.1	1.05
313.15	22210	1438.8	1.07
313.15	24670	1440.5	1.09
313.15	27130	1442.16	1.11
313.15	29590	1443.8	1.14
313.15	32050	1445.44	1.16
313.15	34510	1447.05	1.19
313.15	36970	1448.67	1.21
313.15	39430	1450.26	1.24
313.15	41880	1451.88	1.27
313.15	44340	1453.41	1.3
313.15	46800	1455.01	1.33
313.15	49260	1456.51	1.37
313.15	51720	1458.07	1.4
313.15	54180	1459.64	1.43
313.15	56640	1461.15	1.47
313.15	59100	1462.71	1.5
318.14	100	1418.06	0.93
318.14	5000	1421.63	0.95
318.14	7460	1423.41	0.96
318.14	9920	1425.23	0.98
318.14	12380	1427	0.99
318.14	14840	1428.76	1.01
318.14	17300	1430.5	1.02
318.14	19760	1432.21	1.04
318.14	22210	1433.93	1.06
318.14	24670	1435.62	1.08
318.14	27130	1437.31	1.11
318.14	29590	1439.01	1.13
318.14	32050	1440.66	1.15
318.14	34510	1442.31	1.18
318.14	36970	1443.93	1.21
318.14	39430	1445.59	1.24
318.14	41880	1447.2	1.26
318.14	44340	1448.84	1.29
318.14	46800	1450.43	1.32
318.14	49260	1452.03	1.36
318.14	51720	1453.64	1.39
318.14	54180	1455.23	1.42
318.14	56640	1456.83	1.46
318.14	59100	1458.39	1.49
323.14	100	1413.69	0.93
323.14	5000	1417.31	0.95
323.14	7460	1419.14	0.96
323.14	9920	1420.97	0.97
323.14	12380	1422.8	0.99
323.14	14840	1424.57	1
323.14	17300	1426.35	1.02
323.14	19760	1428.11	1.04
323.14	22210	1429.82	1.06
323.14	24670	1431.56	1.08
323.14	27130	1433.26	1.1
323.14	29590	1434.96	1.12
323.14	32050	1436.63	1.15
323.14	34510	1438.32	1.17
323.14	36970	1439.98	1.2
323.14	39430	1441.63	1.23
323.14	41880	1443.28	1.26
323.14	44340	1444.91	1.29
323.14	46800	1446.54	1.32
323.14	49260	1448.18	1.35
323.14	51720	1449.79	1.38
323.14	54180	1451.4	1.41
323.14	56640	1453.01	1.45
323.14	59100	1454.62	1.48
328.2	100	1408.32	0.93
328.2	5000	1412.04	0.94
328.2	7460	1413.97	0.96
328.2	9920	1415.75	0.97
328.2	12380	1417.61	0.98
328.2	14840	1419.44	1
328.2	17300	1421.25	1.02
328.2	19760	1423.05	1.03
328.2	22210	1424.84	1.05
328.2	24670	1426.58	1.07
328.2	27130	1428.34	1.1
328.2	29590	1430.04	1.12
328.2	32050	1431.76	1.14
328.2	34510	1433.46	1.17
328.2	36970	1435.15	1.19
328.2	39430	1436.83	1.22
328.2	41880	1438.52	1.25
328.2	44340	1440.15	1.28
328.2	46800	1441.79	1.31
328.2	49260	1443.46	1.34
328.2	51720	1445.11	1.37
328.2	54180	1446.72	1.41
328.2	56640	1448.35	1.44
328.2	59100	1449.96	1.47

System: 1-hexyl-3-methylimidazolium bis[(trifluoromethyl)sulfonyl]imide; phases: Liquid
Property: Mass density, kg/m3 (Liquid); method: Vibrating tube method
Temperature, K	Pressure, kPa	Mass density, kg/m3	uncertainty
298.15	100	1370.81	0.9
298.15	1830	1372.13	0.9
298.15	10020	1378.18	0.94
298.15	14980	1381.7	0.96
298.15	19750	1384.98	0.99
298.15	25860	1389.1	1.04
298.15	31480	1392.73	1.08
298.15	37770	1396.74	1.14
298.15	44170	1400.64	1.21
298.15	50750	1404.48	1.28
298.15	59590	1409.53	1.38
299.15	100	1369.96	0.9
299.15	1830	1371.27	0.9
299.15	10020	1377.3	0.94
299.15	14980	1380.81	0.96
299.15	19750	1384.12	0.99
299.15	25860	1388.22	1.04
299.15	31480	1391.88	1.08
299.15	37770	1395.86	1.14
299.15	44170	1399.77	1.21
299.15	50750	1403.7	1.28
299.15	59590	1408.77	1.38
300.15	100	1368.97	0.9
300.15	1830	1370.29	0.9
300.15	10020	1376.36	0.94
300.15	14980	1379.86	0.96
300.15	19750	1383.21	0.99
300.15	25860	1387.32	1.04
300.15	31480	1391	1.08
300.15	37770	1395.01	1.14
300.15	44170	1398.88	1.2
300.15	50750	1402.84	1.28
300.15	59590	1407.93	1.38
301.15	100	1368.11	0.9
301.15	1830	1369.42	0.9
301.15	10020	1375.49	0.93
301.15	14980	1379.01	0.96
301.15	19750	1382.28	0.99
301.15	25860	1386.44	1.03
301.15	31480	1390.11	1.08
301.15	37770	1394.07	1.14
301.15	44170	1398.06	1.2
301.15	50750	1401.99	1.27
301.15	59590	1407.14	1.38
302.15	100	1367.15	0.9
302.15	1830	1368.47	0.9
302.15	10020	1374.56	0.93
302.15	14980	1378.1	0.96
302.15	19750	1381.43	0.99
302.15	25860	1385.56	1.03
302.15	31480	1389.24	1.08
302.15	37770	1393.28	1.14
302.15	44170	1397.22	1.2
302.15	50750	1401.19	1.27
302.15	59590	1406.37	1.38
303.15	100	1366.24	0.9
303.15	1830	1367.56	0.9
303.15	10020	1373.64	0.93
303.15	14980	1377.17	0.96
303.15	19750	1380.47	0.99
303.15	25860	1384.59	1.03
303.15	31480	1388.3	1.08
303.15	44170	1396.31	1.2
303.15	50750	1400.29	1.27
303.15	59590	1405.51	1.38
308.15	100	1361.65	0.89
308.15	1830	1362.96	0.9
308.15	10020	1369.05	0.93
308.15	14980	1372.62	0.95
308.15	19750	1375.95	0.98
308.15	25860	1380.12	1.03
308.15	31480	1383.86	1.07
308.15	37770	1387.93	1.13
308.15	44170	1391.98	1.19
308.15	50750	1396.05	1.26
308.15	59590	1401.4	1.37
313.15	100	1357.01	0.89
313.15	1830	1358.32	0.89
313.15	10020	1364.45	0.93
313.15	14980	1368.01	0.95
313.15	19750	1371.36	0.98
313.15	25860	1375.57	1.02
313.15	31480	1379.34	1.07
313.15	37770	1383.47	1.12
313.15	44170	1387.6	1.18
313.15	50750	1391.76	1.25
313.15	59590	1397.25	1.36
318.15	100	1352.32	0.89
318.15	1830	1353.62	0.89
318.15	10020	1359.84	0.92
318.15	14980	1363.45	0.95
318.15	25860	1371.1	1.02
318.15	31480	1374.91	1.06
318.15	37770	1379.09	1.11
318.15	44170	1383.28	1.18
318.15	50750	1387.51	1.25
323.15	100	1348.05	0.88
323.15	1830	1349.36	0.89
323.15	10020	1355.55	0.92
323.15	14980	1359.13	0.94
323.15	19750	1362.5	1
323.15	25860	1366.73	1.01
323.15	31480	1370.56	1.05
323.15	37770	1374.72	1.11
323.15	44170	1378.88	1.17
323.15	50750	1383.17	1.24
325.15	100	1346.34	0.88
325.15	1830	1347.7	0.89
325.15	10020	1354.03	0.92
325.15	14980	1357.71	0.94
325.15	19750	1361.18	0.97
325.15	25860	1365.48	1.01
325.15	31480	1369.35	1.05
325.15	37770	1373.57	1.11
325.15	44170	1377.76	1.17
325.15	50750	1382.02	1.24
327.15	100	1344.39	0.88
327.15	1830	1345.74	0.89
327.15	10020	1352.05	0.92
327.15	14980	1355.75	0.94
327.15	19750	1359.21	0.97
327.15	25860	1363.58	1.01
327.15	31480	1367.53	1.05
327.15	37770	1371.82	1.1
327.15	44170	1376.09	1.16
327.15	50750	1380.39	1.23
329.15	100	1342.33	0.88
329.15	1830	1343.71	0.88
329.15	10020	1350.14	0.91
329.15	14980	1353.87	0.94
329.15	19750	1357.38	0.96
329.15	25860	1361.77	1.01
329.15	31480	1365.68	1.05
329.15	37770	1369.99	1.1
329.15	44170	1374.26	1.16
329.15	50750	1378.59	1.23
331.15	100	1340.37	0.88
331.15	1830	1341.75	0.88
331.15	10020	1348.2	0.9
331.15	14980	1351.91	0.94
331.15	19750	1355.44	0.96
331.15	25860	1359.84	1
331.15	31480	1363.79	1.05
331.15	37770	1368.1	1.1
331.15	44170	1372.39	1.16
331.15	50750	1376.72	1.23
333.15	100	1338.24	0.88
333.15	1830	1339.65	0.88
333.15	10020	1346.2	0.91
333.15	14980	1349.99	0.93
333.15	19750	1353.57	0.96
333.15	25860	1358.01	1
333.15	31480	1361.98	1.04
333.15	37770	1366.34	1.1
333.15	44170	1370.63	1.16
333.15	50750	1374.95	1.22
