Measured thermophysical data. The difference between aspired and acquired hydrate volumes - A laboratory study of THF hydrate formation in dependence on initial THF:H2O ratios
Source: J. Chem. Thermodyn., 2018, 10.1016/j.jct.2017.09.013
Compound 1: water, H2O, InChI=1S/H2O/h1H2, purity 99.9%
Compound 2: tetrahydrofuran, C4H8O, InChI=1S/C4H8O/c1-2-4-5-3-1/h1-4H2

System: water; phases: Crystal, Liquid, Air at 1 atmosphere
Property: Normal melting temperature, K (Crystal); method: DTA
Normal melting temperature, K	uncertainty
273.4	1.1

System: water; phases: Crystal, Liquid, Air at 1 atmosphere
Property: Molar enthalpy of transition or fusion, kJ/mol (Crystal); method: DSC
Molar enthalpy of transition or fusion, kJ/mol	uncertainty
6.074752416	0.444977416

System: tetrahydrofuran; phases: Crystal, Liquid, Air at 1 atmosphere
Property: Normal melting temperature, K (Crystal); method: DTA
Normal melting temperature, K	uncertainty
163.4	1.1

System: tetrahydrofuran; phases: Crystal, Liquid, Air at 1 atmosphere
Property: Molar enthalpy of transition or fusion, kJ/mol (Crystal); method: DSC
Molar enthalpy of transition or fusion, kJ/mol	uncertainty
8.14794636	0.68500434

System: water + tetrahydrofuran; phases: Crystal, Crystal of intercomponent compound 1, Liquid, Air at 1 atmosphere
Property: Eutectic temperature, K (Crystal); method: DTA
Eutectic temperature, K	uncertainty
271.8	1.1

System: water + tetrahydrofuran; phases: Crystal, Crystal of intercomponent compound 1, Liquid, Air at 1 atmosphere
Property: Eutectic temperature, K (Crystal); method: DTA
Eutectic temperature, K	uncertainty
163.5	1.1

System: water + tetrahydrofuran; phases: Liquid, Crystal of intercomponent compound 1
Fixed: Pressure, kPa = 100
Property: Solid-liquid equilibrium temperature, K (Liquid); method: DTA
Mass fraction of tetrahydrofuran	Solid-liquid equilibrium temperature, K	uncertainty
0.067	275.3	1.1
0.087	275.5	1.1
0.094	275.6	1.1
0.107	275.8	1.1
0.124	276	1.1
0.143	276.1	1.1
0.159	276.3	1.1
0.178	276.8	1.1
0.191	277	1.1
0.192	277.1	1.1
0.261	276.9	1.1
0.345	276	1.1
0.426	275.9	1.1
0.49	274.9	1.1
0.573	274.2	1.1
0.656	273.8	1.1
0.745	272	1.1
0.826	266.7	1.1
