Measured thermophysical data. Thermal and odd even behaviour in a homologous series of lithium n-alkanoates
Source: J. Chem. Thermodyn., 2011, 10.1016/j.jct.2010.11.011
Compound 1: lithium octanoate, C8H15LiO2, InChI=1S/C8H16O2.Li/c1-2-3-4-5-6-7-8(9)10;/h2-7H2,1H3,(H,9,10);/q;+1/p-1
Compound 2: lithium nonanoate, C9H17LiO2, InChI=1S/C9H18O2.Li/c1-2-3-4-5-6-7-8-9(10)11;/h2-8H2,1H3,(H,10,11);/q;+1/p-1
Compound 3: lithium decanoate, C10H19LiO2, InChI=1S/C10H20O2.Li/c1-2-3-4-5-6-7-8-9-10(11)12;/h2-9H2,1H3,(H,11,12);/q;+1/p-1
Compound 4: lithium undecanoate, C11H21LiO2, InChI=1S/C11H22O2.Li/c1-2-3-4-5-6-7-8-9-10-11(12)13;/h2-10H2,1H3,(H,12,13);/q;+1/p-1
Compound 5: lithium dodecanoate, C12H23LiO2, InChI=1S/C12H24O2.Li/c1-2-3-4-5-6-7-8-9-10-11-12(13)14;/h2-11H2,1H3,(H,13,14);/q;+1/p-1
Compound 6: lithium tridecanoate, C13H25LiO2, InChI=1S/C13H26O2.Li/c1-2-3-4-5-6-7-8-9-10-11-12-13(14)15;/h2-12H2,1H3,(H,14,15);/q;+1/p-1
Compound 7: lithium tetradecanoate, C14H27LiO2, InChI=1S/C14H28O2.Li/c1-2-3-4-5-6-7-8-9-10-11-12-13-14(15)16;/h2-13H2,1H3,(H,15,16);/q;+1/p-1
Compound 8: lithium pentadecanoate, C15H29LiO2, InChI=1S/C15H30O2.Li/c1-2-3-4-5-6-7-8-9-10-11-12-13-14-15(16)17;/h2-14H2,1H3,(H,16,17);/q;+1/p-1
Compound 9: lithium hexadecanoate, C16H31LiO2, InChI=1S/C16H32O2.Li/c1-2-3-4-5-6-7-8-9-10-11-12-13-14-15-16(17)18;/h2-15H2,1H3,(H,17,18);/q;+1/p-1
Compound 10: lithium heptadecanoate, C17H33LiO2, InChI=1S/C17H34O2.Li/c1-2-3-4-5-6-7-8-9-10-11-12-13-14-15-16-17(18)19;/h2-16H2,1H3,(H,18,19);/q;+1/p-1
Compound 11: lithium octadecanoate, C18H35LiO2, InChI=1S/C18H36O2.Li/c1-2-3-4-5-6-7-8-9-10-11-12-13-14-15-16-17-18(19)20;/h2-17H2,1H3,(H,19,20);/q;+1/p-1
Compound 12: lithium nonadecanoate, C19H37LiO2, InChI=1S/C19H38O2.Li/c1-2-3-4-5-6-7-8-9-10-11-12-13-14-15-16-17-18-19(20)21;/h2-18H2,1H3,(H,20,21);/q;+1/p-1

System: lithium octanoate; phases: Crystal
Property: Mass density, kg/m3 (Crystal); method: Flotation in CCl4 and Heptane
Temperature, K	Pressure, kPa	Mass density, kg/m3	uncertainty
293	101.325	1080	40

System: lithium octanoate; phases: Crystal, Liquid, Air at 1 atmosphere
Property: Triple point temperature, K (Crystal); method: DTA
Triple point temperature, K	uncertainty
536.8	0.7

System: lithium octanoate; phases: Crystal, Liquid, Air at 1 atmosphere
Property: Molar enthalpy of transition or fusion, kJ/mol (Crystal); method: DSC
Molar enthalpy of transition or fusion, kJ/mol	uncertainty
23.41	0.95

System: lithium nonanoate; phases: Crystal 2
Property: Mass density, kg/m3 (Crystal 2); method: Flotation in CCl4 and Heptane
Temperature, K	Pressure, kPa	Mass density, kg/m3	uncertainty
293	101.325	1120	50

System: lithium nonanoate; phases: Crystal 1, Liquid, Air at 1 atmosphere
Property: Triple point temperature, K (Crystal 1); method: DTA
Triple point temperature, K	uncertainty
524.1	1.17

System: lithium nonanoate; phases: Crystal 1, Liquid, Air at 1 atmosphere
Property: Molar enthalpy of transition or fusion, kJ/mol (Crystal 1); method: DSC
Molar enthalpy of transition or fusion, kJ/mol	uncertainty
22.59	1.68

System: lithium decanoate; phases: Crystal 2
Property: Mass density, kg/m3 (Crystal 2); method: Flotation in CCl4 and Heptane
Temperature, K	Pressure, kPa	Mass density, kg/m3	uncertainty
293	101.325	1080	40

System: lithium decanoate; phases: Crystal 1, Liquid, Air at 1 atmosphere
Property: Triple point temperature, K (Crystal 1); method: DTA
Triple point temperature, K	uncertainty
516.6	1.3

System: lithium decanoate; phases: Crystal 1, Liquid, Air at 1 atmosphere
Property: Molar enthalpy of transition or fusion, kJ/mol (Crystal 1); method: DSC
Molar enthalpy of transition or fusion, kJ/mol	uncertainty
24.75	5.98

System: lithium undecanoate; phases: Crystal 2
Property: Mass density, kg/m3 (Crystal 2); method: Flotation in CCl4 and Heptane
Temperature, K	Pressure, kPa	Mass density, kg/m3	uncertainty
293	101.325	1120	50

System: lithium undecanoate; phases: Crystal, Liquid, Air at 1 atmosphere
Property: Triple point temperature, K (Crystal); method: DTA
Triple point temperature, K	uncertainty
507.27	3.11

System: lithium undecanoate; phases: Crystal, Liquid, Air at 1 atmosphere
Property: Molar enthalpy of transition or fusion, kJ/mol (Crystal); method: DSC
Molar enthalpy of transition or fusion, kJ/mol	uncertainty
24.49	0.85

System: lithium dodecanoate; phases: Crystal 2
Property: Mass density, kg/m3 (Crystal 2); method: Flotation in CCl4 and Heptane
Temperature, K	Pressure, kPa	Mass density, kg/m3	uncertainty
293	101.325	1060	40

System: lithium dodecanoate; phases: Crystal 1, Liquid, Air at 1 atmosphere
Property: Triple point temperature, K (Crystal 1); method: DTA
Triple point temperature, K	uncertainty
501.95	1.79

System: lithium dodecanoate; phases: Crystal 1, Liquid, Air at 1 atmosphere
Property: Molar enthalpy of transition or fusion, kJ/mol (Crystal 1); method: DSC
Molar enthalpy of transition or fusion, kJ/mol	uncertainty
26.2	5.66

System: lithium tridecanoate; phases: Crystal 2
Property: Mass density, kg/m3 (Crystal 2); method: Flotation in CCl4 and Heptane
Temperature, K	Pressure, kPa	Mass density, kg/m3	uncertainty
293	101.325	1100	40

System: lithium tridecanoate; phases: Crystal 1, Liquid, Air at 1 atmosphere
Property: Triple point temperature, K (Crystal 1); method: DTA
Triple point temperature, K	uncertainty
504.27	0.4

System: lithium tridecanoate; phases: Crystal 1, Liquid, Air at 1 atmosphere
Property: Molar enthalpy of transition or fusion, kJ/mol (Crystal 1); method: DSC
Molar enthalpy of transition or fusion, kJ/mol	uncertainty
13.87	2.26

System: lithium tetradecanoate; phases: Crystal 2
Property: Mass density, kg/m3 (Crystal 2); method: Flotation in CCl4 and Heptane
Temperature, K	Pressure, kPa	Mass density, kg/m3	uncertainty
293	101.325	1050	40

System: lithium tetradecanoate; phases: Crystal 1, Liquid, Air at 1 atmosphere
Property: Triple point temperature, K (Crystal 1); method: DTA
Triple point temperature, K	uncertainty
502.4	1.02

System: lithium tetradecanoate; phases: Crystal 1, Liquid, Air at 1 atmosphere
Property: Molar enthalpy of transition or fusion, kJ/mol (Crystal 1); method: DSC
Molar enthalpy of transition or fusion, kJ/mol	uncertainty
25.34	36.47

System: lithium pentadecanoate; phases: Crystal 2
Property: Mass density, kg/m3 (Crystal 2); method: Flotation in CCl4 and Heptane
Temperature, K	Pressure, kPa	Mass density, kg/m3	uncertainty
293	101.325	1100	40

System: lithium pentadecanoate; phases: Crystal 1, Liquid, Air at 1 atmosphere
Property: Triple point temperature, K (Crystal 1); method: DTA
Triple point temperature, K	uncertainty
501.25	0.39

System: lithium pentadecanoate; phases: Crystal 1, Liquid, Air at 1 atmosphere
Property: Molar enthalpy of transition or fusion, kJ/mol (Crystal 1); method: DSC
Molar enthalpy of transition or fusion, kJ/mol	uncertainty
16.16	1.08

System: lithium hexadecanoate; phases: Crystal 2
Property: Mass density, kg/m3 (Crystal 2); method: Flotation in CCl4 and Heptane
Temperature, K	Pressure, kPa	Mass density, kg/m3	uncertainty
293	101.325	1050	40

System: lithium hexadecanoate; phases: Crystal 1, Liquid, Air at 1 atmosphere
Property: Triple point temperature, K (Crystal 1); method: DTA
Triple point temperature, K	uncertainty
500.89	2.82

System: lithium hexadecanoate; phases: Crystal 1, Liquid, Air at 1 atmosphere
Property: Molar enthalpy of transition or fusion, kJ/mol (Crystal 1); method: DSC
Molar enthalpy of transition or fusion, kJ/mol	uncertainty
15.78	4.98

System: lithium heptadecanoate; phases: Crystal 2
Property: Mass density, kg/m3 (Crystal 2); method: Flotation in CCl4 and Heptane
Temperature, K	Pressure, kPa	Mass density, kg/m3	uncertainty
293	101.325	1090	40

System: lithium heptadecanoate; phases: Crystal 1, Liquid, Air at 1 atmosphere
Property: Triple point temperature, K (Crystal 1); method: DTA
Triple point temperature, K	uncertainty
498.85	0.59

System: lithium heptadecanoate; phases: Crystal 1, Liquid, Air at 1 atmosphere
Property: Molar enthalpy of transition or fusion, kJ/mol (Crystal 1); method: DSC
Molar enthalpy of transition or fusion, kJ/mol	uncertainty
13.4	2.14

System: lithium octadecanoate; phases: Crystal 2
Property: Mass density, kg/m3 (Crystal 2); method: Flotation in CCl4 and Heptane
Temperature, K	Pressure, kPa	Mass density, kg/m3	uncertainty
293	101.325	1040	40

System: lithium octadecanoate; phases: Crystal 1, Liquid, Air at 1 atmosphere
Property: Triple point temperature, K (Crystal 1); method: DTA
Triple point temperature, K	uncertainty
499.85	0.59

System: lithium octadecanoate; phases: Crystal 1, Liquid, Air at 1 atmosphere
Property: Molar enthalpy of transition or fusion, kJ/mol (Crystal 1); method: DSC
Molar enthalpy of transition or fusion, kJ/mol	uncertainty
16.93	1.26

System: lithium nonadecanoate; phases: Crystal 2
Property: Mass density, kg/m3 (Crystal 2); method: Flotation in CCl4 and Heptane
Temperature, K	Pressure, kPa	Mass density, kg/m3	uncertainty
293	101.325	1080	40

System: lithium nonadecanoate; phases: Crystal 1, Liquid, Air at 1 atmosphere
Property: Triple point temperature, K (Crystal 1); method: DTA
Triple point temperature, K	uncertainty
496.35	1.17

System: lithium nonadecanoate; phases: Crystal 1, Liquid, Air at 1 atmosphere
Property: Molar enthalpy of transition or fusion, kJ/mol (Crystal 1); method: DSC
Molar enthalpy of transition or fusion, kJ/mol	uncertainty
15.44	4.89
