Measured thermophysical data. Mutual diffusion coefficients of isopropanol + n-heptane and isobutanol + n-heptane
Source: J. Chem. Thermodyn., 2016, 10.1016/j.jct.2015.12.026
Compound 1: potassium chloride, ClK, InChI=1S/ClH.K/h1H;/q;+1/p-1, purity 99.5%
Compound 2: water, H2O, InChI=1S/H2O/h1H2, purity 99.8%
Compound 3: heptane, C7H16, InChI=1S/C7H16/c1-3-5-7-6-4-2/h3-7H2,1-2H3, purity 99%
Compound 4: propan-2-ol, C3H8O, InChI=1S/C3H8O/c1-3(2)4/h3-4H,1-2H3, purity 99.7%
Compound 5: 2-methyl-1-propanol, C4H10O, InChI=1S/C4H10O/c1-4(2)3-5/h4-5H,3H2,1-2H3, purity 99%

System: potassium chloride + water; phases: Liquid
Property: Binary diffusion coefficient, m2/s (Liquid); method: digital holographic interferometry
Temperature, K	Amount concentration (molarity), mol/dm3 of potassium chloride	Pressure, kPa	Binary diffusion coefficient, m2/s	uncertainty
298.15	0.33	101	1.844e-09	0.028

System: propan-2-ol + heptane; phases: Liquid
Fixed: Pressure, kPa = 101
Property: Binary diffusion coefficient, m2/s (Liquid); method: digital holographic interferometry
Temperature, K	Mass fraction of propan-2-ol	Binary diffusion coefficient, m2/s	uncertainty
283.15	0.05	1.44e-09	0.05
283.15	0.15	1.05e-09	0.05
283.15	0.25	8.1e-10	0.03
283.15	0.35	6.6e-10	0.03
283.15	0.45	6.2e-10	0.02
283.15	0.55	6.7e-10	0.03
283.15	0.65	6.8e-10	0.03
283.15	0.75	7.1e-10	0.03
283.15	0.85	7.3e-10	0.03
283.15	0.95	7.5e-10	0.03
293.15	0.05	1.57e-09	0.05
293.15	0.15	1.28e-09	0.04
293.15	0.25	1e-09	0.04
293.15	0.35	9e-10	0.03
293.15	0.45	8.5e-10	0.03
293.15	0.55	8.8e-10	0.03
293.15	0.65	9.2e-10	0.03
293.15	0.75	9.7e-10	0.03
293.15	0.85	9.7e-10	0.03
293.15	0.95	9.8e-10	0.03
303.15	0.05	1.85e-09	0.06
303.15	0.15	1.46e-09	0.04
303.15	0.25	1.29e-09	0.03
303.15	0.35	1.13e-09	0.03
303.15	0.45	1.06e-09	0.03
303.15	0.55	1.06e-09	0.03
303.15	0.65	1.16e-09	0.03
303.15	0.75	1.2e-09	0.03
303.15	0.85	1.16e-09	0.03
303.15	0.95	1.2e-09	0.03
313.15	0.05	2.19e-09	0.05
313.15	0.15	1.86e-09	0.05
313.15	0.25	1.6e-09	0.04
313.15	0.35	1.41e-09	0.03
313.15	0.45	1.35e-09	0.03
313.15	0.55	1.37e-09	0.03
313.15	0.65	1.45e-09	0.03
313.15	0.75	1.48e-09	0.03
313.15	0.85	1.51e-09	0.03
313.15	0.95	1.47e-09	0.03
323.15	0.05	2.57e-09	0.06
323.15	0.15	2.13e-09	0.05
323.15	0.25	1.98e-09	0.03
323.15	0.35	1.83e-09	0.03
323.15	0.45	1.75e-09	0.03
323.15	0.55	1.76e-09	0.03
323.15	0.65	1.76e-09	0.03
323.15	0.75	1.87e-09	0.03
323.15	0.85	1.85e-09	0.03
323.15	0.95	1.85e-09	0.03

System: 2-methyl-1-propanol + heptane; phases: Liquid
Fixed: Pressure, kPa = 101
Property: Binary diffusion coefficient, m2/s (Liquid); method: digital holographic interferometry
Temperature, K	Mass fraction of 2-methyl-1-propanol	Binary diffusion coefficient, m2/s	uncertainty
283.15	0.05	1.3e-09	0.05
283.15	0.15	9.7e-10	0.04
283.15	0.25	7.1e-10	0.03
283.15	0.35	5.9e-10	0.03
283.15	0.45	5.6e-10	0.02
283.15	0.55	5.8e-10	0.02
283.15	0.65	6.1e-10	0.03
283.15	0.75	6.4e-10	0.02
283.15	0.85	6.2e-10	0.02
283.15	0.95	6.2e-10	0.02
293.15	0.05	1.43e-09	0.05
293.15	0.15	1.13e-09	0.04
293.15	0.25	9.4e-10	0.03
293.15	0.35	7.6e-10	0.03
293.15	0.45	7.1e-10	0.02
293.15	0.55	7.3e-10	0.03
293.15	0.65	8e-10	0.03
293.15	0.75	8e-10	0.02
293.15	0.85	8.2e-10	0.02
293.15	0.95	8e-10	0.02
303.15	0.05	1.66e-09	0.05
303.15	0.15	1.35e-09	0.05
303.15	0.25	1.05e-09	0.03
303.15	0.35	1e-09	0.03
303.15	0.45	9.1e-10	0.03
303.15	0.55	9.5e-10	0.03
303.15	0.65	9.8e-10	0.03
303.15	0.75	1.05e-09	0.03
303.15	0.85	1.04e-09	0.03
303.15	0.95	1.02e-09	0.03
313.15	0.05	1.95e-09	0.05
313.15	0.15	1.64e-09	0.04
313.15	0.25	1.36e-09	0.04
313.15	0.35	1.2e-09	0.03
313.15	0.45	1.15e-09	0.03
313.15	0.55	1.19e-09	0.03
313.15	0.65	1.27e-09	0.03
313.15	0.75	1.3e-09	0.03
313.15	0.85	1.3e-09	0.03
313.15	0.95	1.29e-09	0.03
323.15	0.05	2.29e-09	0.05
323.15	0.15	1.98e-09	0.05
323.15	0.25	1.69e-09	0.04
323.15	0.35	1.56e-09	0.03
323.15	0.45	1.45e-09	0.03
323.15	0.55	1.51e-09	0.03
323.15	0.65	1.57e-09	0.03
323.15	0.75	1.61e-09	0.03
323.15	0.85	1.62e-09	0.03
323.15	0.95	1.59e-09	0.03
