Measured thermophysical data. Experimental and computational thermochemical study of the tri-, tetra-, and pentachloronitrobenzene isomers
Source: J. Chem. Thermodyn., 2009, 10.1016/j.jct.2009.03.014
Compound 1: hydrogen chloride, ClH, InChI=1S/ClH/h1H
Compound 2: carbon dioxide, CO2, InChI=1S/CO2/c2-1-3
Compound 3: nitrogen, N2, InChI=1S/N2/c1-2
Compound 4: water, H2O, InChI=1S/H2O/h1H2
Compound 5: oxygen, O2, InChI=1S/O2/c1-2
Compound 6: 1,3,5-trichloro-2-nitrobenzene, C6H2Cl3NO2, InChI=1S/C6H2Cl3NO2/c7-3-1-4(8)6(10(11)12)5(9)2-3/h1-2H, purity 98%
Compound 7: 2,3,5,6-tetrachloronitrobenzene, C6HCl4NO2, InChI=1S/C6HCl4NO2/c7-2-1-3(8)5(10)6(4(2)9)11(12)13/h1H, purity 99%
Compound 8: pentachloronitrobenzene, C6Cl5NO2, InChI=1S/C6Cl5NO2/c7-1-2(8)4(10)6(12(13)14)5(11)3(1)9, purity 99%

System: 1,3,5-trichloro-2-nitrobenzene; phases: Crystal, Gas
Property: Molar enthalpy of vaporization or sublimation, kJ/mol (Crystal); method: Drop-Microcalorimetry
Temperature, K	Molar enthalpy of vaporization or sublimation, kJ/mol	uncertainty
298.15	84.3	3.8

System: 1,3,5-trichloro-2-nitrobenzene; phases: Crystal, Gas
Property: Vapor or sublimation pressure, kPa (Crystal); method: Calculated from knudsen effusion weight loss
Temperature, K	Vapor or sublimation pressure, kPa	uncertainty
287.13	0.000143	7e-06
287.13	0.000137	7e-06
287.13	0.000136	7e-06
289.15	0.000183	9e-06
289.15	0.000176	9e-06
289.15	0.000174	9e-06
291.14	0.000231	1.2e-05
291.14	0.000224	1.1e-05
291.14	0.000217	1.1e-05
293.13	0.000301	1.5e-05
293.13	0.000295	1.5e-05
293.13	0.000293	1.5e-05
295.15	0.000387	1.9e-05
295.15	0.000371	1.9e-05
295.15	0.000369	1.8e-05
297.15	0.000487	2.4e-05
297.15	0.000435	2.2e-05
297.15	0.000445	2.2e-05
299.14	0.000651	3.3e-05
299.14	0.000582	2.9e-05
299.14	0.000577	2.9e-05
301.13	0.0008	4e-05
301.13	0.000723	3.6e-05
301.13	0.000725	3.6e-05
303.14	0.000992	5e-05
303.14	0.000924	4.6e-05
303.14	0.000927	4.6e-05

System: 1,3,5-trichloro-2-nitrobenzene; phases: Gas
Property: Molar enthalpy, kJ/mol (Gas); method: Drop Microcalorimetry
Temperature, K	Pressure, kPa	Molar enthalpy, kJ/mol	uncertainty
334.8	100	90.7	0.6

System: 2,3,5,6-tetrachloronitrobenzene; phases: Crystal, Gas
Property: Molar enthalpy of vaporization or sublimation, kJ/mol (Crystal); method: Drop Microcalorimetry
Temperature, K	Molar enthalpy of vaporization or sublimation, kJ/mol	uncertainty
298.15	91.3	5

System: 2,3,5,6-tetrachloronitrobenzene; phases: Gas
Property: Molar enthalpy, kJ/mol (Gas); method: Drop Microcalorimetry
Temperature, K	Pressure, kPa	Molar enthalpy, kJ/mol	uncertainty
360	100	103.4	1.2

System: pentachloronitrobenzene; phases: Crystal, Gas
Property: Molar enthalpy of vaporization or sublimation, kJ/mol (Crystal); method: Drop Microcalorimetry
Temperature, K	Molar enthalpy of vaporization or sublimation, kJ/mol	uncertainty
298.15	96.3	4.2

System: pentachloronitrobenzene; phases: Crystal, Gas
Property: Vapor or sublimation pressure, kPa (Crystal); method: Calculated from knudsen effusion weight loss
Temperature, K	Vapor or sublimation pressure, kPa	uncertainty
317.11	0.000102	5e-06
317.11	0.000102	5e-06
317.11	0.000101	5e-06
319.18	0.000129	6e-06
319.18	0.000127	6e-06
319.18	0.000124	6e-06
321.2	0.00015	8e-06
321.2	0.000155	8e-06
321.2	0.000154	8e-06
323.11	0.000199	1e-05
323.11	0.000197	1e-05
323.11	0.000196	1e-05
325.18	0.000246	1.2e-05
325.18	0.000245	1.2e-05
325.18	0.000241	1.2e-05
327.2	0.000289	1.4e-05
327.2	0.000296	1.5e-05
327.2	0.000292	1.5e-05
329.11	0.000372	1.9e-05
329.11	0.000367	1.8e-05
329.11	0.000366	1.8e-05
331.17	0.000462	2.3e-05
331.17	0.000453	2.3e-05
331.17	0.000447	2.2e-05
333.2	0.000531	2.7e-05
333.2	0.000549	2.7e-05
333.2	0.00054	2.7e-05
335.11	0.000692	3.5e-05
335.11	0.000673	3.4e-05
335.11	0.000671	3.4e-05
337.18	0.000844	4.2e-05
337.18	0.000833	4.2e-05
337.18	0.000818	4.1e-05
339.2	0.000971	4.9e-05
339.2	0.001009	0.000101
339.2	0.000993	5e-05

System: pentachloronitrobenzene; phases: Gas
Property: Molar enthalpy, kJ/mol (Gas); method: Drop Microcalorimetry
Temperature, K	Pressure, kPa	Molar enthalpy, kJ/mol	uncertainty
407	100	120	1.6

Reaction: 3 hydrogen chloride + -1 1,3,5-trichloro-2-nitrobenzene + 6 carbon dioxide + .5 nitrogen + -.5 water + -4.75 oxygen
Property: Specific internal energy of reaction at constant volume, J/g
-11762

Reaction: -1 2,3,5,6-tetrachloronitrobenzene + 4 hydrogen chloride + 6 carbon dioxide + .5 nitrogen + -1.5 water + -4.25 oxygen
Property: Specific internal energy of reaction at constant volume, J/g
-9724.9

Reaction: -1 pentachloronitrobenzene + 5 hydrogen chloride + 6 carbon dioxide + .5 nitrogen + -2.5 water + -3.75 oxygen
Property: Specific internal energy of reaction at constant volume, J/g
-8083.6
