Measured thermophysical data. Thermodynamic modeling of high salinary phosphate solutions II. Ternary and higher systems
Source: J. Chem. Thermodyn., 2015, 10.1016/j.jct.2013.12.017
Compound 1: disodium hydrogen phosphate, HNa2O4P, InChI=1S/2Na.H3O4P/c;;1-5(2,3)4/h;;(H3,1,2,3,4)/q2*+1;/p-2, purity 99.99%
Compound 2: sodium dihydrogen phosphate, H2NaO4P, InChI=1S/Na.H3O4P/c;1-5(2,3)4/h;(H3,1,2,3,4)/q+1;/p-1, purity 99.99%
Compound 3: dipotassium hydrogen phosphate, HK2O4P, InChI=1S/2K.H3O4P/c;;1-5(2,3)4/h;;(H3,1,2,3,4)/q2*+1;/p-2, purity 99.99%
Compound 4: monopotassium phosphate, H2KO4P, InChI=1S/K.H3O4P/c;1-5(2,3)4/h;(H3,1,2,3,4)/q+1;/p-1, purity 99.995%
Compound 5: sodium chloride, ClNa, InChI=1S/ClH.Na/h1H;/q;+1/p-1, purity 99.99%
Compound 6: potassium chloride, ClK, InChI=1S/ClH.K/h1H;/q;+1/p-1, purity 99.999%
Compound 7: sodium sulfate, Na2O4S, InChI=1S/2Na.H2O4S/c;;1-5(2,3)4/h;;(H2,1,2,3,4)/q2*+1;/p-2, purity 99.99%
Compound 8: potassium sulfate, K2O4S, InChI=1S/2K.H2O4S/c;;1-5(2,3)4/h;;(H2,1,2,3,4)/q2*+1;/p-2, purity 99.999%
Compound 9: water, H2O, InChI=1S/H2O/h1H2, purity 99.9%

System: disodium hydrogen phosphate + sodium dihydrogen phosphate + water; phases: Liquid
Fixed: Pressure, kPa = 100
Fixed: Temperature, K = 298.15
Property: (Relative) activity of water (Liquid); method: isopiestic method
Molality, mol/kg of sodium dihydrogen phosphate	Molality, mol/kg of disodium hydrogen phosphate	(Relative) activity of water	uncertainty
0.8422	0.0509	0.97501	0.03873
0.8061	0.0911	0.97501	0.03873
0.7621	0.1384	0.97501	0.03873
0.7178	0.1841	0.97501	0.03873
0.7174	0.1841	0.97501	0.03873
0.6193	0.2822	0.97501	0.03873
0.6177	0.282	0.97501	0.03873
0.5676	0.3284	0.97501	0.03873
0.5115	0.3783	0.97501	0.03873
0.5116	0.3776	0.97501	0.03873
0.4573	0.4238	0.97501	0.03873
0.3979	0.4713	0.97501	0.03873
0.3399	0.5166	0.97501	0.03873
0.2809	0.5593	0.97501	0.03873
0.2806	0.56	0.97501	0.03873
0.2231	0.604	0.97501	0.03873
0.1676	0.6381	0.97501	0.03873
0.1115	0.6741	0.97501	0.03873
0.0537	0.7091	0.97501	0.03873
0.6724	0.037	0.97955	0.03873
0.6417	0.0703	0.97955	0.03873
0.6025	0.1085	0.97955	0.03873
0.5673	0.1449	0.97955	0.03873
0.565	0.1456	0.97955	0.03873
0.527	0.1818	0.97955	0.03873
0.4857	0.2198	0.97955	0.03873
0.4443	0.2566	0.97955	0.03873
0.3989	0.2953	0.97955	0.03873
0.3999	0.2943	0.97955	0.03873
0.354	0.332	0.97955	0.03873
0.3017	0.3739	0.97955	0.03873
0.2633	0.4034	0.97955	0.03873
0.2171	0.4359	0.97955	0.03873
0.2178	0.437	0.97955	0.03873
0.1743	0.4679	0.97955	0.03873
0.1268	0.4999	0.97955	0.03873
0.0868	0.5265	0.97955	0.03873
0.042	0.5548	0.97955	0.03873
0.498	0.0262	0.98438	0.03873
0.4711	0.051	0.98438	0.03873
0.4416	0.0786	0.98438	0.03873
0.4129	0.1039	0.98438	0.03873
0.4104	0.1041	0.98438	0.03873
0.3823	0.131	0.98438	0.03873
0.3492	0.1589	0.98438	0.03873
0.3166	0.1866	0.98438	0.03873
0.282	0.217	0.98438	0.03873
0.2841	0.2104	0.98438	0.03873
0.2555	0.2357	0.98438	0.03873
0.2236	0.2628	0.98438	0.03873
0.1892	0.2895	0.98438	0.03873
0.1541	0.3141	0.98438	0.03873
0.1561	0.3146	0.98438	0.03873
0.1241	0.3386	0.98438	0.03873
0.0932	0.361	0.98438	0.03873
0.0604	0.3839	0.98438	0.03873
0.0286	0.4054	0.98438	0.03873
0.3066	0.027	0.9896	0.03873
0.2983	0.0332	0.9896	0.03873
0.2774	0.0511	0.9896	0.03873
0.258	0.0671	0.9896	0.03873
0.2572	0.0664	0.9896	0.03873
0.2397	0.083	0.9896	0.03873
0.2185	0.0995	0.9896	0.03873
0.1989	0.1158	0.9896	0.03873
0.1819	0.1297	0.9896	0.03873
0.1785	0.1311	0.9896	0.03873
0.1579	0.1492	0.9896	0.03873
0.137	0.1654	0.9896	0.03873
0.1185	0.181	0.9896	0.03873
0.0952	0.1988	0.9896	0.03873
0.098	0.1948	0.9896	0.03873
0.0776	0.2109	0.9896	0.03873
0.0582	0.2265	0.9896	0.03873
0.038	0.2404	0.9896	0.03873
0.0186	0.2542	0.9896	0.03873

System: water + dipotassium hydrogen phosphate + monopotassium phosphate; phases: Liquid
Fixed: Pressure, kPa = 100
Fixed: Temperature, K = 298.15
Property: (Relative) activity of water (Liquid); method: isopiestic method
Molality, mol/kg of monopotassium phosphate	Molality, mol/kg of dipotassium hydrogen phosphate	(Relative) activity of water	uncertainty
1.5715	0.0692	0.96056	0.03873
1.5096	0.1392	0.96056	0.03873
1.4466	0.2055	0.96056	0.03873
1.37	0.2805	0.96056	0.03873
1.3654	0.2827	0.96056	0.03873
1.2587	0.3795	0.96056	0.03873
1.1951	0.436	0.96056	0.03873
1.0929	0.5092	0.96056	0.03873
0.9845	0.5861	0.96056	0.03873
0.982	0.5869	0.96056	0.03873
0.878	0.6559	0.96056	0.03873
0.7636	0.7252	0.96056	0.03873
0.6238	0.8014	0.96056	0.03873
0.5355	0.8479	0.96056	0.03873
0.5324	0.8494	0.96056	0.03873
0.4198	0.9038	0.96056	0.03873
0.3069	0.9548	0.96056	0.03873
0.1991	0.9991	0.96056	0.03873
0.1004	1.0376	0.96056	0.03873
1.1126	0.0463	0.97032	0.03873
1.0671	0.0954	0.97032	0.03873
1.0104	0.1514	0.97032	0.03873
0.9608	0.1977	0.97032	0.03873
0.9615	0.1964	0.97032	0.03873
0.9031	0.2499	0.97032	0.03873
0.7964	0.3392	0.97032	0.03873
0.7718	0.3579	0.97032	0.03873
0.6963	0.4131	0.97032	0.03873
0.6945	0.4128	0.97032	0.03873
0.5966	0.4819	0.97032	0.03873
0.5427	0.5163	0.97032	0.03873
0.4608	0.5667	0.97032	0.03873
0.3843	0.6095	0.97032	0.03873
0.3771	0.6134	0.97032	0.03873
0.2993	0.6555	0.97032	0.03873
0.2386	0.6858	0.97032	0.03873
0.1494	0.7341	0.97032	0.03873
0.0735	0.7637	0.97032	0.03873
0.6649	0.0284	0.98074	0.03873
0.6405	0.0532	0.98074	0.03873
0.604	0.0868	0.98074	0.03873
0.5676	0.1192	0.98074	0.03873
0.5696	0.1164	0.98074	0.03873
0.5357	0.1458	0.98074	0.03873
0.4942	0.1806	0.98074	0.03873
0.4549	0.2112	0.98074	0.03873
0.4096	0.2459	0.98074	0.03873
0.4125	0.242	0.98074	0.03873
0.3688	0.2733	0.98074	0.03873
0.3235	0.3052	0.98074	0.03873
0.2615	0.3463	0.98074	0.03873
0.2311	0.3657	0.98074	0.03873
0.2305	0.3655	0.98074	0.03873
0.1806	0.3979	0.98074	0.03873
0.1367	0.4243	0.98074	0.03873
0.0922	0.4519	0.98074	0.03873
0.0479	0.4736	0.98074	0.03873
0.2249	0.013	0.99263	0.03873
0.2114	0.0243	0.99263	0.03873
0.2021	0.0309	0.99263	0.03873
0.1901	0.0403	0.99263	0.03873
0.1898	0.0397	0.99263	0.03873
0.1758	0.0514	0.99263	0.03873
0.164	0.0605	0.99263	0.03873
0.152	0.0688	0.99263	0.03873
0.1367	0.0807	0.99263	0.03873
0.1305	0.0847	0.99263	0.03873
0.1206	0.0916	0.99263	0.03873
0.105	0.1025	0.99263	0.03873
0.0906	0.1133	0.99263	0.03873
0.077	0.1232	0.99263	0.03873
0.0762	0.1239	0.99263	0.03873
0.0618	0.1347	0.99263	0.03873
0.0476	0.145	0.99263	0.03873
0.017	0.166	0.99263	0.03873

System: disodium hydrogen phosphate + water + dipotassium hydrogen phosphate; phases: Liquid
Fixed: Pressure, kPa = 100
Fixed: Temperature, K = 298.15
Property: (Relative) activity of water (Liquid); method: isopiestic method
Molality, mol/kg of dipotassium hydrogen phosphate	Molality, mol/kg of disodium hydrogen phosphate	(Relative) activity of water	uncertainty
0.9461	0.0337	0.96419	0.03873
0.914	0.0689	0.96419	0.03873
0.883	0.1067	0.96419	0.03873
0.8574	0.1377	0.96419	0.03873
0.8562	0.1391	0.96419	0.03873
0.828	0.1744	0.96419	0.03873
0.7989	0.2102	0.96419	0.03873
0.771	0.2438	0.96419	0.03873
0.7391	0.2828	0.96419	0.03873
0.7414	0.2805	0.96419	0.03873
0.7132	0.3193	0.96419	0.03873
0.6802	0.3544	0.96419	0.03873
0.6525	0.388	0.96419	0.03873
0.6212	0.4261	0.96419	0.03873
0.6318	0.414	0.96419	0.03873
0.6034	0.4478	0.96419	0.03873
0.5589	0.5009	0.96419	0.03873
0.5283	0.5379	0.96419	0.03873
0.4943	0.5785	0.96419	0.03873
0.6537	0.0452	0.97385	0.03873
0.615	0.0901	0.97385	0.03873
0.5741	0.1372	0.97385	0.03873
0.5373	0.1803	0.97385	0.03873
0.5355	0.1819	0.97385	0.03873
0.4954	0.2283	0.97385	0.03873
0.4536	0.276	0.97385	0.03873
0.4152	0.3192	0.97385	0.03873
0.3738	0.3666	0.97385	0.03873
0.3775	0.3626	0.97385	0.03873
0.338	0.4076	0.97385	0.03873
0.2929	0.4587	0.97385	0.03873
0.2515	0.5053	0.97385	0.03873
0.2118	0.5495	0.97385	0.03873
0.2118	0.5499	0.97385	0.03873
0.1654	0.6024	0.97385	0.03873
0.1297	0.6437	0.97385	0.03873
0.0835	0.6939	0.97385	0.03873
0.0723	0.7062	0.97385	0.03873
0.4219	0.0309	0.98252	0.03873
0.3957	0.0587	0.98252	0.03873
0.3709	0.0863	0.98252	0.03873
0.3448	0.1137	0.98252	0.03873
0.3425	0.1147	0.98252	0.03873
0.314	0.1442	0.98252	0.03873
0.2891	0.1746	0.98252	0.03873
0.2616	0.2051	0.98252	0.03873
0.2379	0.2297	0.98252	0.03873
0.2372	0.232	0.98252	0.03873
0.2079	0.2636	0.98252	0.03873
0.1929	0.2839	0.98252	0.03873
0.1577	0.3183	0.98252	0.03873
0.1322	0.3457	0.98252	0.03873
0.1309	0.3456	0.98252	0.03873
0.1037	0.3757	0.98252	0.03873
0.0784	0.4031	0.98252	0.03873
0.0534	0.4301	0.98252	0.03873
0.0279	0.4555	0.98252	0.03873
0.1937	0.0134	0.99156	0.03873
0.1864	0.0245	0.99156	0.03873
0.1681	0.0403	0.99156	0.03873
0.1571	0.0537	0.99156	0.03873
0.1566	0.0524	0.99156	0.03873
0.1398	0.0674	0.99156	0.03873
0.1313	0.0786	0.99156	0.03873
0.1189	0.0917	0.99156	0.03873
0.1062	0.1043	0.99156	0.03873
0.106	0.1056	0.99156	0.03873
0.0945	0.1175	0.99156	0.03873
0.0866	0.1274	0.99156	0.03873
0.0713	0.1425	0.99156	0.03873
0.058	0.156	0.99156	0.03873
0.0595	0.153	0.99156	0.03873
0.0458	0.1677	0.99156	0.03873
0.0366	0.1792	0.99156	0.03873
0.032	0.1868	0.99156	0.03873
0.0277	0.1938	0.99156	0.03873

System: disodium hydrogen phosphate + sodium chloride + water; phases: Liquid
Fixed: Pressure, kPa = 100
Fixed: Temperature, K = 298.15
Property: (Relative) activity of water (Liquid); method: isopiestic method
Molality, mol/kg of disodium hydrogen phosphate	Molality, mol/kg of sodium chloride	(Relative) activity of water	uncertainty
0.0514	0.7384	0.97368	0.03873
0.0906	0.6952	0.97368	0.03873
0.1372	0.6445	0.97368	0.03873
0.1818	0.5963	0.97368	0.03873
0.1806	0.5966	0.97368	0.03873
0.2285	0.5475	0.97368	0.03873
0.2716	0.5022	0.97368	0.03873
0.3136	0.459	0.97368	0.03873
0.3601	0.4109	0.97368	0.03873
0.3604	0.4078	0.97368	0.03873
0.3881	0.3822	0.97368	0.03873
0.4509	0.3197	0.97368	0.03873
0.4823	0.2886	0.97368	0.03873
0.5432	0.2299	0.97368	0.03873
0.5458	0.2246	0.97368	0.03873
0.59	0.1848	0.97368	0.03873
0.6429	0.1354	0.97368	0.03873
0.6902	0.0919	0.97368	0.03873
0.742	0.0448	0.97368	0.03873
0.0367	0.5668	0.97993	0.03873
0.0675	0.5312	0.97993	0.03873
0.1069	0.4875	0.97993	0.03873
0.1381	0.4524	0.97993	0.03873
0.138	0.4505	0.97993	0.03873
0.1727	0.4145	0.97993	0.03873
0.2042	0.3801	0.97993	0.03873
0.2379	0.344	0.97993	0.03873
0.2711	0.3082	0.97993	0.03873
0.2714	0.305	0.97993	0.03873
0.3003	0.2763	0.97993	0.03873
0.3342	0.2371	0.97993	0.03873
0.3682	0.2064	0.97993	0.03873
0.4023	0.1717	0.97993	0.03873
0.4013	0.1698	0.97993	0.03873
0.434	0.1385	0.97993	0.03873
0.4699	0.1026	0.97993	0.03873
0.5055	0.0677	0.97993	0.03873
0.5398	0.0333	0.97993	0.03873
0.0246	0.3853	0.98627	0.03873
0.0452	0.3607	0.98627	0.03873
0.0691	0.3318	0.98627	0.03873
0.0929	0.3035	0.98627	0.03873
0.0921	0.3036	0.98627	0.03873
0.1129	0.2801	0.98627	0.03873
0.1364	0.253	0.98627	0.03873
0.159	0.2272	0.98627	0.03873
0.181	0.2022	0.98627	0.03873
0.1809	0.2025	0.98627	0.03873
0.2021	0.1786	0.98627	0.03873
0.2226	0.156	0.98627	0.03873
0.2447	0.1315	0.98627	0.03873
0.2627	0.1113	0.98627	0.03873
0.2636	0.1099	0.98627	0.03873
0.2841	0.0871	0.98627	0.03873
0.302	0.0675	0.98627	0.03873
0.3237	0.044	0.98627	0.03873
0.3407	0.0262	0.98627	0.03873
0.0125	0.1951	0.99308	0.03873
0.026	0.1777	0.99308	0.03873
0.0362	0.1652	0.99308	0.03873
0.0462	0.1525	0.99308	0.03873
0.046	0.146	0.99308	0.03873
0.0571	0.137	0.99308	0.03873
0.0675	0.1257	0.99308	0.03873
0.0938	0.0929	0.99308	0.03873
0.0856	0.1023	0.99308	0.03873
0.0934	0.0938	0.99308	0.03873
0.1082	0.0762	0.99308	0.03873
0.1176	0.0654	0.99308	0.03873
0.1295	0.0519	0.99308	0.03873
0.1283	0.053	0.99308	0.03873
0.1382	0.0409	0.99308	0.03873
0.1457	0.0315	0.99308	0.03873
0.153	0.0235	0.99308	0.03873
0.1637	0.0109	0.99308	0.03873

System: disodium hydrogen phosphate + water + sodium sulfate; phases: Liquid
Fixed: Pressure, kPa = 100
Fixed: Temperature, K = 298.15
Property: (Relative) activity of water (Liquid); method: isopiestic method
Molality, mol/kg of disodium hydrogen phosphate	Molality, mol/kg of sodium sulfate	(Relative) activity of water	uncertainty
0.0463	0.6905	0.97377	0.03873
0.0904	0.6475	0.97377	0.03873
0.1384	0.6017	0.97377	0.03873
0.1819	0.5602	0.97377	0.03873
0.1849	0.5572	0.97377	0.03873
0.2351	0.5098	0.97377	0.03873
0.2761	0.4712	0.97377	0.03873
0.3165	0.4332	0.97377	0.03873
0.3618	0.3905	0.97377	0.03873
0.3643	0.3878	0.97377	0.03873
0.4105	0.3445	0.97377	0.03873
0.4538	0.304	0.97377	0.03873
0.499	0.2621	0.97377	0.03873
0.5469	0.2177	0.97377	0.03873
0.5927	0.1753	0.97377	0.03873
0.594	0.1743	0.97377	0.03873
0.6431	0.1294	0.97377	0.03873
0.6865	0.0897	0.97377	0.03873
0.7336	0.0472	0.97377	0.03873
0.0361	0.5422	0.97881	0.03873
0.0741	0.5052	0.97881	0.03873
0.1051	0.4748	0.97881	0.03873
0.1518	0.4296	0.97881	0.03873
0.1779	0.4044	0.97881	0.03873
0.1742	0.4078	0.97881	0.03873
0.2124	0.371	0.97881	0.03873
0.2533	0.3318	0.97881	0.03873
0.2875	0.2993	0.97881	0.03873
0.3213	0.2671	0.97881	0.03873
0.3229	0.2666	0.97881	0.03873
0.3551	0.2352	0.97881	0.03873
0.3874	0.2047	0.97881	0.03873
0.4227	0.1707	0.97881	0.03873
0.4648	0.1316	0.97881	0.03873
0.4624	0.1335	0.97881	0.03873
0.4958	0.1025	0.97881	0.03873
0.5325	0.0687	0.97881	0.03873
0.5699	0.0337	0.97881	0.03873
0.0265	0.386	0.9843	0.03873
0.0533	0.3597	0.9843	0.03873
0.0739	0.3396	0.9843	0.03873
0.1058	0.3119	0.9843	0.03873
0.1037	0.31	0.9843	0.03873
0.1251	0.2891	0.9843	0.03873
0.1526	0.2624	0.9843	0.03873
0.1855	0.2305	0.9843	0.03873
0.2023	0.2137	0.9843	0.03873
0.2005	0.2169	0.9843	0.03873
0.227	0.1895	0.9843	0.03873
0.2523	0.1654	0.9843	0.03873
0.282	0.1373	0.9843	0.03873
0.3026	0.1167	0.9843	0.03873
0.2999	0.1188	0.9843	0.03873
0.3254	0.0955	0.9843	0.03873
0.3499	0.0713	0.9843	0.03873
0.3722	0.0497	0.9843	0.03873
0.3995	0.0236	0.9843	0.03873
0.0225	0.2238	0.99031	0.03873
0.0299	0.2158	0.99031	0.03873
0.047	0.1991	0.99031	0.03873
0.0603	0.187	0.99031	0.03873
0.0578	0.1854	0.99031	0.03873
0.0731	0.171	0.99031	0.03873
0.0904	0.1544	0.99031	0.03873
0.1035	0.141	0.99031	0.03873
0.1211	0.1259	0.99031	0.03873
0.117	0.1265	0.99031	0.03873
0.1333	0.1129	0.99031	0.03873
0.1495	0.0976	0.99031	0.03873
0.1735	0.0787	0.99031	0.03873
0.1789	0.0708	0.99031	0.03873
0.1762	0.0698	0.99031	0.03873
0.1932	0.0549	0.99031	0.03873
0.2062	0.0425	0.99031	0.03873
0.2225	0.028	0.99031	0.03873
0.2343	0.0143	0.99031	0.03873

System: potassium chloride + water + dipotassium hydrogen phosphate; phases: Liquid
Fixed: Pressure, kPa = 100
Fixed: Temperature, K = 298.15
Property: (Relative) activity of water (Liquid); method: isopiestic method
Molality, mol/kg of dipotassium hydrogen phosphate	Molality, mol/kg of potassium chloride	(Relative) activity of water	uncertainty
0.1355	2.3739	0.91855	0.03873
0.2647	2.2088	0.91855	0.03873
0.3988	2.0473	0.91855	0.03873
0.5304	1.8901	0.91855	0.03873
0.6507	1.7474	0.91855	0.03873
0.6417	1.7589	0.91855	0.03873
0.7795	1.5991	0.91855	0.03873
0.9055	1.4575	0.91855	0.03873
1.0411	1.2976	0.91855	0.03873
1.1583	1.1612	0.91855	0.03873
1.2874	1.0156	0.91855	0.03873
1.4174	0.8695	0.91855	0.03873
1.4174	0.8693	0.91855	0.03873
1.548	0.7222	0.91855	0.03873
1.6747	0.5799	0.91855	0.03873
1.7983	0.4412	0.91855	0.03873
1.94	0.2841	0.91855	0.03873
2.0635	0.1458	0.91855	0.03873
2.065	0.1444	0.91855	0.03873
0.0996	1.7914	0.93883	0.03873
0.2081	1.6603	0.93883	0.03873
0.3044	1.5457	0.93883	0.03873
0.4128	1.4163	0.93883	0.03873
0.4938	1.3304	0.93883	0.03873
0.4948	1.3278	0.93883	0.03873
0.5844	1.2176	0.93883	0.03873
0.6804	1.1074	0.93883	0.03873
0.7832	0.9891	0.93883	0.03873
0.8814	0.8794	0.93883	0.03873
0.9843	0.764	0.93883	0.03873
1.0942	0.6423	0.93883	0.03873
1.0802	0.6555	0.93883	0.03873
1.173	0.5521	0.93883	0.03873
1.2781	0.4365	0.93883	0.03873
1.3595	0.3462	0.93883	0.03873
1.4658	0.2302	0.93883	0.03873
1.5775	0.1103	0.93883	0.03873
1.5761	0.1112	0.93883	0.03873
0.0621	1.1405	0.9612	0.03873
0.1326	1.0558	0.9612	0.03873
0.1944	0.9802	0.9612	0.03873
0.2526	0.9074	0.9612	0.03873
0.3176	0.8338	0.9612	0.03873
0.3732	0.7686	0.9612	0.03873
0.373	0.7691	0.9612	0.03873
0.4354	0.697	0.9612	0.03873
0.4966	0.627	0.9612	0.03873
0.5593	0.5534	0.9612	0.03873
0.6146	0.4908	0.9612	0.03873
0.6795	0.4174	0.9612	0.03873
0.6811	0.4228	0.9612	0.03873
0.7414	0.3479	0.9612	0.03873
0.8067	0.2748	0.9612	0.03873
0.8632	0.2107	0.9612	0.03873
0.922	0.1476	0.9612	0.03873
0.9922	0.0697	0.9612	0.03873
0.858	0.2174	0.9612	0.03873
0.0396	0.664	0.97719	0.03873
0.0705	0.6265	0.97719	0.03873
0.1057	0.5834	0.97719	0.03873
0.1431	0.5381	0.97719	0.03873
0.1425	0.5387	0.97719	0.03873
0.1779	0.4953	0.97719	0.03873
0.2122	0.4528	0.97719	0.03873
0.2474	0.4093	0.97719	0.03873
0.2814	0.3684	0.97719	0.03873
0.2801	0.3692	0.97719	0.03873
0.3172	0.3252	0.97719	0.03873
0.3528	0.2836	0.97719	0.03873
0.3867	0.2437	0.97719	0.03873
0.4226	0.2026	0.97719	0.03873
0.4234	0.2024	0.97719	0.03873
0.4525	0.1686	0.97719	0.03873
0.4905	0.1256	0.97719	0.03873
0.5281	0.0829	0.97719	0.03873
0.5646	0.0411	0.97719	0.03873
0.0146	0.2743	0.99038	0.03873
0.0296	0.2564	0.99038	0.03873
0.0442	0.2385	0.99038	0.03873
0.059	0.2204	0.99038	0.03873
0.0594	0.2203	0.99038	0.03873
0.071	0.2058	0.99038	0.03873
0.0869	0.1857	0.99038	0.03873
0.1002	0.1684	0.99038	0.03873
0.1175	0.1451	0.99038	0.03873
0.1178	0.1461	0.99038	0.03873
0.1294	0.1311	0.99038	0.03873
0.1434	0.1132	0.99038	0.03873
0.1538	0.0998	0.99038	0.03873
0.1687	0.0816	0.99038	0.03873
0.1684	0.0813	0.99038	0.03873
0.1837	0.0627	0.99038	0.03873
0.1936	0.0481	0.99038	0.03873
0.2092	0.0324	0.99038	0.03873
0.2226	0.0164	0.99038	0.03873

System: water + dipotassium hydrogen phosphate + potassium sulfate; phases: Liquid
Fixed: Pressure, kPa = 100
Fixed: Temperature, K = 298.15
Property: (Relative) activity of water (Liquid); method: isopiestic method
Molality, mol/kg of dipotassium hydrogen phosphate	Molality, mol/kg of potassium sulfate	(Relative) activity of water	uncertainty
0.0395	0.6195	0.97616	0.03873
0.0765	0.5798	0.97616	0.03873
0.1114	0.5429	0.97616	0.03873
0.1509	0.5009	0.97616	0.03873
0.151	0.5031	0.97616	0.03873
0.1872	0.462	0.97616	0.03873
0.2236	0.4228	0.97616	0.03873
0.262	0.3821	0.97616	0.03873
0.2976	0.3438	0.97616	0.03873
0.2993	0.3412	0.97616	0.03873
0.333	0.3052	0.97616	0.03873
0.3707	0.2677	0.97616	0.03873
0.4052	0.229	0.97616	0.03873
0.4427	0.1896	0.97616	0.03873
0.4436	0.1894	0.97616	0.03873
0.4808	0.1527	0.97616	0.03873
0.5184	0.1137	0.97616	0.03873
0.5549	0.0762	0.97616	0.03873
0.5914	0.0381	0.97616	0.03873
0.0288	0.478	0.98122	0.03873
0.059	0.4454	0.98122	0.03873
0.0868	0.4147	0.98122	0.03873
0.1147	0.3843	0.98122	0.03873
0.1153	0.3831	0.98122	0.03873
0.1422	0.3549	0.98122	0.03873
0.1726	0.323	0.98122	0.03873
0.2027	0.2917	0.98122	0.03873
0.2317	0.2614	0.98122	0.03873
0.2373	0.2561	0.98122	0.03873
0.2598	0.2333	0.98122	0.03873
0.2824	0.2101	0.98122	0.03873
0.317	0.1754	0.98122	0.03873
0.3435	0.1468	0.98122	0.03873
0.3456	0.1441	0.98122	0.03873
0.3734	0.1145	0.98122	0.03873
0.3993	0.087	0.98122	0.03873
0.4276	0.0573	0.98122	0.03873
0.4511	0.0325	0.98122	0.03873
0.0218	0.3343	0.98641	0.03873
0.0388	0.3163	0.98641	0.03873
0.0624	0.2921	0.98641	0.03873
0.0838	0.2698	0.98641	0.03873
0.0833	0.2693	0.98641	0.03873
0.1004	0.2521	0.98641	0.03873
0.1208	0.231	0.98641	0.03873
0.1486	0.2025	0.98641	0.03873
0.1618	0.188	0.98641	0.03873
0.1609	0.1877	0.98641	0.03873
0.1825	0.1659	0.98641	0.03873
0.2017	0.1459	0.98641	0.03873
0.2246	0.1226	0.98641	0.03873
0.241	0.1044	0.98641	0.03873
0.2413	0.1036	0.98641	0.03873
0.2608	0.0842	0.98641	0.03873
0.2842	0.06	0.98641	0.03873
0.3021	0.042	0.98641	0.03873
0.3227	0.0209	0.98641	0.03873
0.0137	0.1899	0.99188	0.03873
0.0296	0.1743	0.99188	0.03873
0.0341	0.1678	0.99188	0.03873
0.045	0.1576	0.99188	0.03873
0.0511	0.1502	0.99188	0.03873
0.0572	0.1454	0.99188	0.03873
0.0689	0.1316	0.99188	0.03873
0.0825	0.1185	0.99188	0.03873
0.0929	0.1073	0.99188	0.03873
0.0943	0.1049	0.99188	0.03873
0.1036	0.0965	0.99188	0.03873
0.1172	0.0818	0.99188	0.03873
0.1265	0.072	0.99188	0.03873
0.1382	0.0606	0.99188	0.03873
0.1396	0.0585	0.99188	0.03873
0.15	0.0482	0.99188	0.03873
0.1612	0.0361	0.99188	0.03873
0.1732	0.0245	0.99188	0.03873
0.1853	0.0119	0.99188	0.03873

System: sodium dihydrogen phosphate + water + monopotassium phosphate; phases: Liquid
Fixed: Pressure, kPa = 100
Fixed: Temperature, K = 298.15
Property: (Relative) activity of water (Liquid); method: isopiestic method
Molality, mol/kg of sodium dihydrogen phosphate	Molality, mol/kg of monopotassium phosphate	(Relative) activity of water	uncertainty
1.3237	0.0872	0.96281	0.03873
1.2455	0.1744	0.96281	0.03873
1.1656	0.264	0.96281	0.03873
1.0848	0.3537	0.96281	0.03873
0.9999	0.4473	0.96281	0.03873
0.9251	0.5302	0.96281	0.03873
0.8398	0.6241	0.96281	0.03873
0.7603	0.711	0.96281	0.03873
0.6761	0.8029	0.96281	0.03873
0.5942	0.8924	0.96281	0.03873
0.5023	0.9912	0.96281	0.03873
0.4275	1.0723	0.96281	0.03873
0.3386	1.1668	0.96281	0.03873
0.2526	1.259	0.96281	0.03873
0.1718	1.3441	0.96281	0.03873
0.0803	1.4404	0.96281	0.03873
1.0651	0.0697	0.96914	0.03873
1.0009	0.1422	0.96914	0.03873
0.9389	0.2097	0.96914	0.03873
0.8716	0.2847	0.96914	0.03873
0.804	0.3578	0.96914	0.03873
0.7256	0.4434	0.96914	0.03873
0.6743	0.4999	0.96914	0.03873
0.6074	0.5707	0.96914	0.03873
0.5396	0.6437	0.96914	0.03873
0.4692	0.719	0.96914	0.03873
0.4028	0.79	0.96914	0.03873
0.3379	0.8594	0.96914	0.03873
0.2592	0.9435	0.96914	0.03873
0.2021	1.0023	0.96914	0.03873
0.1341	1.0746	0.96914	0.03873
0.0675	1.1445	0.96914	0.03873
0.685	0.0447	0.97912	0.03873
0.6405	0.0915	0.97912	0.03873
0.6005	0.1346	0.97912	0.03873
0.5559	0.1809	0.97912	0.03873
0.5145	0.2252	0.97912	0.03873
0.4707	0.2711	0.97912	0.03873
0.4291	0.3158	0.97912	0.03873
0.3767	0.3705	0.97912	0.03873
0.3378	0.4111	0.97912	0.03873
0.2998	0.4512	0.97912	0.03873
0.255	0.4982	0.97912	0.03873
0.2138	0.5414	0.97912	0.03873
0.1696	0.5879	0.97912	0.03873
0.1273	0.6314	0.97912	0.03873
0.0843	0.6763	0.97912	0.03873
0.0423	0.7189	0.97912	0.03873

System: sodium dihydrogen phosphate + water + sodium sulfate; phases: Liquid
Fixed: Pressure, kPa = 100
Fixed: Temperature, K = 298.15
Property: (Relative) activity of water (Liquid); method: isopiestic method
Molality, mol/kg of sodium dihydrogen phosphate	Molality, mol/kg of sodium sulfate	(Relative) activity of water	uncertainty
2.1526	0.1492	0.94104	0.03873
2.0531	0.2191	0.94104	0.03873
1.9117	0.319	0.94104	0.03873
1.7563	0.43	0.94104	0.03873
1.7598	0.4274	0.94104	0.03873
1.6236	0.5256	0.94104	0.03873
1.4715	0.6366	0.94104	0.03873
1.3426	0.7311	0.94104	0.03873
1.2081	0.8311	0.94104	0.03873
1.205	0.8345	0.94104	0.03873
1.0697	0.9362	0.94104	0.03873
0.9358	1.0377	0.94104	0.03873
0.8022	1.1411	0.94104	0.03873
0.6753	1.2407	0.94104	0.03873
0.6669	1.2472	0.94104	0.03873
0.5344	1.3527	0.94104	0.03873
0.4011	1.4597	0.94104	0.03873
0.2712	1.5667	0.94104	0.03873
0.1399	1.6768	0.94104	0.03873
1.2387	0.0611	0.96462	0.03873
1.1622	0.1173	0.96462	0.03873
1.0795	0.1787	0.96462	0.03873
0.9962	0.24	0.96462	0.03873
0.9999	0.2372	0.96462	0.03873
0.9219	0.2959	0.96462	0.03873
0.8436	0.3552	0.96462	0.03873
0.7686	0.4124	0.96462	0.03873
0.6906	0.4727	0.96462	0.03873
0.6846	0.4771	0.96462	0.03873
0.6097	0.5362	0.96462	0.03873
0.5325	0.5965	0.96462	0.03873
0.4588	0.6554	0.96462	0.03873
0.385	0.7141	0.96462	0.03873
0.3843	0.7153	0.96462	0.03873
0.3085	0.776	0.96462	0.03873
0.2314	0.8392	0.96462	0.03873
0.1522	0.9054	0.96462	0.03873
0.0723	0.9724	0.96462	0.03873
0.7673	0.0363	0.97684	0.03873
0.7178	0.0732	0.97684	0.03873
0.6694	0.1099	0.97684	0.03873
0.6076	0.1566	0.97684	0.03873
0.6162	0.1501	0.97684	0.03873
0.5734	0.183	0.97684	0.03873
0.5224	0.2221	0.97684	0.03873
0.4757	0.2574	0.97684	0.03873
0.4274	0.2953	0.97684	0.03873
0.4277	0.2948	0.97684	0.03873
0.3812	0.331	0.97684	0.03873
0.3317	0.3703	0.97684	0.03873
0.2846	0.4077	0.97684	0.03873
0.2348	0.4476	0.97684	0.03873
0.2366	0.4463	0.97684	0.03873
0.1913	0.4824	0.97684	0.03873
0.1401	0.5247	0.97684	0.03873
0.0948	0.5616	0.97684	0.03873
0.0501	0.5987	0.97684	0.03873
0.4776	0.0329	0.98452	0.03873
0.4545	0.0502	0.98452	0.03873
0.4221	0.0748	0.98452	0.03873
0.3944	0.096	0.98452	0.03873
0.3948	0.0955	0.98452	0.03873
0.3532	0.1274	0.98452	0.03873
0.3385	0.139	0.98452	0.03873
0.3039	0.1654	0.98452	0.03873
0.2715	0.1906	0.98452	0.03873
0.2736	0.1889	0.98452	0.03873
0.2451	0.2115	0.98452	0.03873
0.2142	0.2356	0.98452	0.03873
0.1829	0.2603	0.98452	0.03873
0.1533	0.2837	0.98452	0.03873
0.1515	0.285	0.98452	0.03873
0.1248	0.3062	0.98452	0.03873
0.0839	0.339	0.98452	0.03873
0.0637	0.3551	0.98452	0.03873
0.0265	0.3859	0.98452	0.03873

System: potassium chloride + water + monopotassium phosphate; phases: Liquid
Fixed: Pressure, kPa = 100
Fixed: Temperature, K = 298.15
Property: (Relative) activity of water (Liquid); method: isopiestic method
Molality, mol/kg of monopotassium phosphate	Molality, mol/kg of potassium chloride	(Relative) activity of water	uncertainty
1.7065	0.0877	0.95643	0.03873
1.5623	0.1767	0.95643	0.03873
1.433	0.259	0.95643	0.03873
1.305	0.3429	0.95643	0.03873
1.1937	0.4194	0.95643	0.03873
1.075	0.5006	0.95643	0.03873
0.9706	0.5745	0.95643	0.03873
0.8628	0.6528	0.95643	0.03873
0.7633	0.7275	0.95643	0.03873
0.6617	0.8049	0.95643	0.03873
0.566	0.8798	0.95643	0.03873
0.4674	0.9583	0.95643	0.03873
0.3722	1.0366	0.95643	0.03873
0.2804	1.1159	0.95643	0.03873
0.1875	1.1953	0.95643	0.03873
0.0882	1.2837	0.95643	0.03873
1.5408	0.0813	0.95984	0.03873
1.4172	0.1607	0.95984	0.03873
1.3034	0.2359	0.95984	0.03873
1.1954	0.3089	0.95984	0.03873
1.0843	0.3861	0.95984	0.03873
0.9858	0.4555	0.95984	0.03873
0.8833	0.5298	0.95984	0.03873
0.7904	0.5981	0.95984	0.03873
0.696	0.6701	0.95984	0.03873
0.6096	0.7366	0.95984	0.03873
0.5177	0.8092	0.95984	0.03873
0.4286	0.8817	0.95984	0.03873
0.3432	0.9524	0.95984	0.03873
0.2576	1.0259	0.95984	0.03873
0.1748	1.098	0.95984	0.03873
0.0851	1.1807	0.95984	0.03873
1.0152	0.0536	0.97174	0.03873
0.9395	0.1077	0.97174	0.03873
0.8695	0.1591	0.97174	0.03873
0.797	0.2131	0.97174	0.03873
0.735	0.2601	0.97174	0.03873
0.6692	0.3108	0.97174	0.03873
0.6053	0.3609	0.97174	0.03873
0.5429	0.4112	0.97174	0.03873
0.4788	0.4626	0.97174	0.03873
0.4288	0.5039	0.97174	0.03873
0.3595	0.5617	0.97174	0.03873
0.2979	0.6153	0.97174	0.03873
0.2444	0.661	0.97174	0.03873
0.1901	0.7088	0.97174	0.03873
0.122	0.7702	0.97174	0.03873
0.0599	0.8278	0.97174	0.03873
0.4273	0.0215	0.98672	0.03873
0.4016	0.0431	0.98672	0.03873
0.3721	0.0689	0.98672	0.03873
0.349	0.0889	0.98672	0.03873
0.3193	0.1149	0.98672	0.03873
0.2973	0.1343	0.98672	0.03873
0.2701	0.1586	0.98672	0.03873
0.2422	0.184	0.98672	0.03873
0.2166	0.2071	0.98672	0.03873
0.1898	0.2311	0.98672	0.03873
0.1636	0.2554	0.98672	0.03873
0.1369	0.2802	0.98672	0.03873
0.1086	0.3064	0.98672	0.03873
0.087	0.3266	0.98672	0.03873
0.0595	0.3523	0.98672	0.03873
0.028	0.3824	0.98672	0.03873

System: water + monopotassium phosphate + potassium sulfate; phases: Liquid
Fixed: Pressure, kPa = 100
Fixed: Temperature, K = 298.15
Property: (Relative) activity of water (Liquid); method: isopiestic method
Molality, mol/kg of monopotassium phosphate	Molality, mol/kg of potassium sulfate	(Relative) activity of water	uncertainty
0.8053	0.0505	0.97653	0.03873
0.7669	0.0782	0.97653	0.03873
0.6977	0.1284	0.97653	0.03873
0.6667	0.1512	0.97653	0.03873
0.6623	0.155	0.97653	0.03873
0.6116	0.1913	0.97653	0.03873
0.5425	0.242	0.97653	0.03873
0.5076	0.2677	0.97653	0.03873
0.4593	0.3032	0.97653	0.03873
0.4612	0.3001	0.97653	0.03873
0.4066	0.3419	0.97653	0.03873
0.3583	0.3782	0.97653	0.03873
0.2986	0.423	0.97653	0.03873
0.2576	0.4537	0.97653	0.03873
0.2567	0.4534	0.97653	0.03873
0.2057	0.4937	0.97653	0.03873
0.1519	0.5352	0.97653	0.03873
0.1048	0.5714	0.97653	0.03873
0.0528	0.6124	0.97653	0.03873
0.6114	0.0297	0.98183	0.03873
0.5756	0.0562	0.98183	0.03873
0.5363	0.0849	0.98183	0.03873
0.4942	0.1175	0.98183	0.03873
0.4895	0.1186	0.98183	0.03873
0.4592	0.1425	0.98183	0.03873
0.4205	0.1711	0.98183	0.03873
0.3828	0.1992	0.98183	0.03873
0.3428	0.2295	0.98183	0.03873
0.3453	0.2259	0.98183	0.03873
0.3081	0.2555	0.98183	0.03873
0.2664	0.2877	0.98183	0.03873
0.2317	0.3136	0.98183	0.03873
0.193	0.343	0.98183	0.03873
0.1929	0.3415	0.98183	0.03873
0.1553	0.372	0.98183	0.03873
0.1191	0.3993	0.98183	0.03873
0.0777	0.4319	0.98183	0.03873
0.0382	0.4604	0.98183	0.03873
0.4079	0.019	0.98729	0.03873
0.3816	0.0391	0.98729	0.03873
0.3575	0.057	0.98729	0.03873
0.3315	0.0766	0.98729	0.03873
0.334	0.0747	0.98729	0.03873
0.3065	0.0955	0.98729	0.03873
0.2672	0.1257	0.98729	0.03873
0.2566	0.1344	0.98729	0.03873
0.2314	0.1524	0.98729	0.03873
0.2296	0.1533	0.98729	0.03873
0.2047	0.1725	0.98729	0.03873
0.1813	0.1924	0.98729	0.03873
0.1557	0.2104	0.98729	0.03873
0.1301	0.2302	0.98729	0.03873
0.13	0.2297	0.98729	0.03873
0.1039	0.2504	0.98729	0.03873
0.0748	0.2736	0.98729	0.03873
0.0522	0.291	0.98729	0.03873
0.0258	0.3116	0.98729	0.03873
0.1992	0.0118	0.99333	0.03873
0.1894	0.0187	0.99333	0.03873
0.1652	0.0375	0.99333	0.03873
0.1567	0.044	0.99333	0.03873
0.1526	0.0471	0.99333	0.03873
0.1396	0.0573	0.99333	0.03873
0.1277	0.0662	0.99333	0.03873
0.1152	0.0756	0.99333	0.03873
0.1134	0.0764	0.99333	0.03873
0.1007	0.0862	0.99333	0.03873
0.0892	0.0954	0.99333	0.03873
0.0761	0.1055	0.99333	0.03873
0.0642	0.1142	0.99333	0.03873
0.0639	0.1142	0.99333	0.03873
0.051	0.1247	0.99333	0.03873
0.0381	0.1347	0.99333	0.03873
0.0256	0.1443	0.99333	0.03873
0.0139	0.1536	0.99333	0.03873

System: sodium chloride + water + monopotassium phosphate; phases: Liquid
Fixed: Pressure, kPa = 100
Fixed: Temperature, K = 298.15
Property: (Relative) activity of water (Liquid); method: isopiestic method
Molality, mol/kg of monopotassium phosphate	Molality, mol/kg of sodium chloride	(Relative) activity of water	uncertainty
1.6473	0.0866	0.95748	0.03873
1.5498	0.1455	0.95748	0.03873
1.433	0.2177	0.95748	0.03873
1.3234	0.2882	0.95748	0.03873
1.3206	0.2906	0.95748	0.03873
1.21	0.3612	0.95748	0.03873
1.1042	0.4316	0.95748	0.03873
1.0031	0.5001	0.95748	0.03873
0.9024	0.569	0.95748	0.03873
0.9072	0.5652	0.95748	0.03873
0.8019	0.6391	0.95748	0.03873
0.7041	0.7099	0.95748	0.03873
0.6039	0.7835	0.95748	0.03873
0.5076	0.8569	0.95748	0.03873
0.5007	0.8615	0.95748	0.03873
0.4061	0.9342	0.95748	0.03873
0.3025	1.0165	0.95748	0.03873
0.2028	1.098	0.95748	0.03873
0.1045	1.1798	0.95748	0.03873
1.2641	0.0554	0.96629	0.03873
1.1735	0.1146	0.96629	0.03873
1.101	0.1638	0.96629	0.03873
1.0004	0.2327	0.96629	0.03873
1.0017	0.2318	0.96629	0.03873
0.9352	0.2784	0.96629	0.03873
0.8578	0.3327	0.96629	0.03873
0.7825	0.3865	0.96629	0.03873
0.7048	0.4439	0.96629	0.03873
0.6984	0.4487	0.96629	0.03873
0.6365	0.4947	0.96629	0.03873
0.5589	0.5533	0.96629	0.03873
0.4702	0.622	0.96629	0.03873
0.3909	0.6849	0.96629	0.03873
0.3959	0.6809	0.96629	0.03873
0.3233	0.7393	0.96629	0.03873
0.2489	0.7998	0.96629	0.03873
0.1639	0.8717	0.96629	0.03873
0.0823	0.9421	0.96629	0.03873
0.8578	0.0381	0.97541	0.03873
0.799	0.0903	0.97541	0.03873
0.7649	0.1157	0.97541	0.03873
0.712	0.1555	0.97541	0.03873
0.709	0.1573	0.97541	0.03873
0.656	0.1976	0.97541	0.03873
0.6055	0.2367	0.97541	0.03873
0.5564	0.2746	0.97541	0.03873
0.4989	0.3199	0.97541	0.03873
0.5042	0.3156	0.97541	0.03873
0.449	0.3596	0.97541	0.03873
0.3991	0.4002	0.97541	0.03873
0.352	0.4389	0.97541	0.03873
0.2895	0.4914	0.97541	0.03873
0.2915	0.4893	0.97541	0.03873
0.2363	0.5359	0.97541	0.03873
0.1752	0.588	0.97541	0.03873
0.1281	0.6292	0.97541	0.03873
0.0663	0.6842	0.97541	0.03873
0.4943	0.0223	0.985	0.03873
0.467	0.0441	0.985	0.03873
0.4385	0.0676	0.985	0.03873
0.4106	0.0903	0.985	0.03873
0.4093	0.0902	0.985	0.03873
0.3931	0.1041	0.985	0.03873
0.3519	0.1389	0.985	0.03873
0.3267	0.158	0.985	0.03873
0.2805	0.2009	0.985	0.03873
0.2974	0.185	0.985	0.03873
0.2664	0.212	0.985	0.03873
0.2339	0.2403	0.985	0.03873
0.2023	0.2681	0.985	0.03873
0.173	0.2943	0.985	0.03873
0.1708	0.2966	0.985	0.03873
0.1431	0.3219	0.985	0.03873
0.1022	0.3585	0.985	0.03873
0.0737	0.3847	0.985	0.03873
0.0393	0.4165	0.985	0.03873

System: water + sodium sulfate + dipotassium hydrogen phosphate; phases: Liquid
Fixed: Pressure, kPa = 100
Fixed: Temperature, K = 298.15
Property: (Relative) activity of water (Liquid); method: isopiestic method
Molality, mol/kg of dipotassium hydrogen phosphate	Molality, mol/kg of sodium sulfate	(Relative) activity of water	uncertainty
0.0837	1.3952	0.95129	0.03873
0.1599	1.3253	0.95129	0.03873
0.2439	1.2464	0.95129	0.03873
0.3273	1.1676	0.95129	0.03873
0.4122	1.0836	0.95129	0.03873
0.4962	0.9989	0.95129	0.03873
0.5814	0.9102	0.95129	0.03873
0.6652	0.8205	0.95129	0.03873
0.7492	0.7303	0.95129	0.03873
0.8315	0.6356	0.95129	0.03873
0.9101	0.5437	0.95129	0.03873
0.9872	0.4516	0.95129	0.03873
1.0625	0.3587	0.95129	0.03873
1.1351	0.2673	0.95129	0.03873
1.206	0.1759	0.95129	0.03873
1.2737	0.0863	0.95129	0.03873
0.067	1.1758	0.95872	0.03873
0.1358	1.1115	0.95872	0.03873
0.204	1.0456	0.95872	0.03873
0.2736	0.9747	0.95872	0.03873
0.3418	0.8982	0.95872	0.03873
0.4133	0.8307	0.95872	0.03873
0.4833	0.7563	0.95872	0.03873
0.5537	0.6809	0.95872	0.03873
0.6215	0.6055	0.95872	0.03873
0.6887	0.5297	0.95872	0.03873
0.7581	0.4524	0.95872	0.03873
0.8237	0.3765	0.95872	0.03873
0.8893	0.3003	0.95872	0.03873
0.9527	0.224	0.95872	0.03873
1.0155	0.1484	0.95872	0.03873
1.0693	0.0743	0.95872	0.03873
0.0533	0.9269	0.96642	0.03873
0.1045	0.8789	0.96642	0.03873
0.1602	0.8261	0.96642	0.03873
0.2168	0.7703	0.96642	0.03873
0.2714	0.7172	0.96642	0.03873
0.3269	0.6614	0.96642	0.03873
0.3836	0.6046	0.96642	0.03873
0.4399	0.5434	0.96642	0.03873
0.4956	0.4833	0.96642	0.03873
0.55	0.4233	0.96642	0.03873
0.6055	0.3611	0.96642	0.03873
0.6585	0.3009	0.96642	0.03873
0.7106	0.2397	0.96642	0.03873
0.7619	0.1789	0.96642	0.03873
0.8107	0.119	0.96642	0.03873
0.8595	0.0584	0.96642	0.03873
0.0421	0.7435	0.97237	0.03873
0.087	0.7021	0.97237	0.03873
0.1289	0.6618	0.97237	0.03873
0.1717	0.6166	0.97237	0.03873
0.2182	0.5739	0.97237	0.03873
0.2627	0.5295	0.97237	0.03873
0.3089	0.4814	0.97237	0.03873
0.3539	0.4345	0.97237	0.03873
0.3967	0.389	0.97237	0.03873
0.4419	0.3398	0.97237	0.03873
0.4844	0.2926	0.97237	0.03873
0.5321	0.2393	0.97237	0.03873
0.5718	0.1942	0.97237	0.03873
0.6139	0.1455	0.97237	0.03873
0.6553	0.0961	0.97237	0.03873
0.696	0.0491	0.97237	0.03873
