Measured thermophysical data. Ternary (liquid + liquid) equilibria of {trifluorotris(perfluoroethyl)phosphate  based ionic liquids + thiophene + heptane}
Source: J. Chem. Thermodyn., 2012, 10.1016/j.jct.2012.01.026
Compound 1: 4-(2-methoxyethyl)-4-methylmorpholinium trifluorotris(perfluoroethyl)phosphate, C14H18F18NO2P, InChI=1S/C8H18NO2.C6F18P/c1-9(3-6-10-2)4-7-11-8-5-9;7-1(8,9)4(16,17)25(22,23,24,5(18,19)2(10,11)12)6(20,21)3(13,14)15/h3-8H2,1-2H3;/q+1;-1, purity 99.5%
Compound 2: 1-(2-methoxyethyl)-1-methylpiperidinium trifluorotris(perfluoroethyl)phosphate, C15H20F18NOP, InChI=1S/C9H20NO.C6F18P/c1-10(8-9-11-2)6-4-3-5-7-10;7-1(8,9)4(16,17)25(22,23,24,5(18,19)2(10,11)12)6(20,21)3(13,14)15/h3-9H2,1-2H3;/q+1;-1, purity 99.5%
Compound 3: 1-(2-methoxyethyl)-1-methylpyrrolidinium tris(pentafluoroethyl)trifluorophosphate, C14H18F18NOP, InChI=1S/C8H18NO.C6F18P/c1-9(7-8-10-2)5-3-4-6-9;7-1(8,9)4(16,17)25(22,23,24,5(18,19)2(10,11)12)6(20,21)3(13,14)15/h3-8H2,1-2H3;/q+1;-1, purity 99.5%
Compound 4: thiophene, C4H4S, InChI=1S/C4H4S/c1-2-4-5-3-1/h1-4H, purity 99.88%
Compound 5: heptane, C7H16, InChI=1S/C7H16/c1-3-5-7-6-4-2/h3-7H2,1-2H3, purity 99.79%

System: 4-(2-methoxyethyl)-4-methylmorpholinium trifluorotris(perfluoroethyl)phosphate; phases: Liquid
Fixed: Pressure, kPa = 101.325
Property: Viscosity, Pa*s (Liquid); method: Falling or rolling sphere viscometry
Temperature, K	Viscosity, Pa*s	uncertainty
298.15	0.7224	0.065
308.15	0.3337	0.0215
318.15	0.168	0.007
328.15	0.09794	0.00229
338.15	0.06011	0.00049
348.15	0.04013	0.00038

System: 4-(2-methoxyethyl)-4-methylmorpholinium trifluorotris(perfluoroethyl)phosphate; phases: Liquid
Fixed: Pressure, kPa = 101.325
Property: Mass density, kg/m3 (Liquid); method: Vibrating tube method
Temperature, K	Mass density, kg/m3	uncertainty
298.15	1675.7	0.44
308.15	1664.66	0.43
318.15	1653.58	0.43
328.15	1642.95	0.42
338.15	1632.33	0.42
348.15	1621.69	0.41

System: 1-(2-methoxyethyl)-1-methylpiperidinium trifluorotris(perfluoroethyl)phosphate; phases: Liquid
Fixed: Pressure, kPa = 101.325
Property: Viscosity, Pa*s (Liquid); method: Falling or rolling sphere viscometry
Temperature, K	Viscosity, Pa*s	uncertainty
298.15	0.1939	0.0089
308.15	0.1093	0.003
318.15	0.06746	0.00077
328.15	0.0447	0.00041
338.15	0.03132	0.00028
348.15	0.0227	0.0002

System: 1-(2-methoxyethyl)-1-methylpiperidinium trifluorotris(perfluoroethyl)phosphate; phases: Liquid
Fixed: Pressure, kPa = 101.325
Property: Mass density, kg/m3 (Liquid); method: Vibrating tube method
Temperature, K	Mass density, kg/m3	uncertainty
298.15	1607.35	0.4
308.15	1596.57	0.39
318.15	1585.91	0.39
328.15	1575.27	0.38
338.15	1564.65	0.38
348.15	1554.09	0.37

System: 1-(2-methoxyethyl)-1-methylpyrrolidinium tris(pentafluoroethyl)trifluorophosphate; phases: Crystal, Liquid, Air at 1 atmosphere
Property: Normal melting temperature, K (Crystal); method: DTA
Normal melting temperature, K	uncertainty
273.3	1

System: 1-(2-methoxyethyl)-1-methylpyrrolidinium tris(pentafluoroethyl)trifluorophosphate; phases: Crystal, Liquid, Air at 1 atmosphere
Property: Molar enthalpy of transition or fusion, kJ/mol (Crystal); method: DSC
Molar enthalpy of transition or fusion, kJ/mol	uncertainty
14.3	0.5

System: 1-(2-methoxyethyl)-1-methylpyrrolidinium tris(pentafluoroethyl)trifluorophosphate; phases: Liquid
Fixed: Pressure, kPa = 101.325
Property: Viscosity, Pa*s (Liquid); method: Falling or rolling sphere viscometry
Temperature, K	Viscosity, Pa*s	uncertainty
298.15	0.1107	0.003
308.15	0.06901	0.00083
318.15	0.0459	0.00042
328.15	0.03231	0.00029
338.15	0.02355	0.00021
348.15	0.01783	0.00016

System: 1-(2-methoxyethyl)-1-methylpyrrolidinium tris(pentafluoroethyl)trifluorophosphate; phases: Liquid
Fixed: Pressure, kPa = 101.325
Property: Mass density, kg/m3 (Liquid); method: Vibrating tube method
Temperature, K	Mass density, kg/m3	uncertainty
298.15	1630.36	0.41
308.15	1619.3	0.41
318.15	1608.27	0.4
328.15	1597.3	0.4
338.15	1586.38	0.39
348.15	1575.5	0.38

System: thiophene + heptane + 4-(2-methoxyethyl)-4-methylmorpholinium trifluorotris(perfluoroethyl)phosphate; phases: Liquid mixture 2, Liquid mixture 1
Fixed: Temperature, K = 298.15
Fixed: Pressure, kPa = 101
Property: Mole fraction of thiophene (Liquid mixture 2); method: Chromatography
Property: Mole fraction of 4-(2-methoxyethyl)-4-methylmorpholinium trifluorotris(perfluoroethyl)phosphate (Liquid mixture 1); method: Chromatography
Property: Mole fraction of thiophene (Liquid mixture 1); method: Chromatography
Mole fraction of 4-(2-methoxyethyl)-4-methylmorpholinium trifluorotris(perfluoroethyl)phosphate	Mole fraction of thiophene	uncertainty	Mole fraction of 4-(2-methoxyethyl)-4-methylmorpholinium trifluorotris(perfluoroethyl)phosphate	uncertainty	Mole fraction of thiophene	uncertainty
0.996	0		0		0	
0.909	0.067	0.005	0		0.025	
0.79	0.183	0.006	0		0.076	
0.696	0.276	0.006	0		0.128	
0.61	0.361	0.006	0		0.192	
0.529	0.442	0.006	0		0.271	
0.486	0.485	0.007	0		0.314	
0.422	0.546	0.006	0		0.397	
0.376	0.592	0.006	0		0.495	
0.341	0.626	0.006	0		0.565	
0.315	0.652	0.006	0		0.627	
0.282	0.685	0.006	0		0.692	
0.241	0.729	0.007	0		0.809	
0.187	0.797	0.012	0		0.94	
0.178	0.822	0.012	0		1	

System: thiophene + heptane + 1-(2-methoxyethyl)-1-methylpiperidinium trifluorotris(perfluoroethyl)phosphate; phases: Liquid mixture 2, Liquid mixture 1
Fixed: Pressure, kPa = 101
Fixed: Temperature, K = 298.15
Property: Mole fraction of thiophene (Liquid mixture 2); method: Chromatography
Property: Mole fraction of 1-(2-methoxyethyl)-1-methylpiperidinium trifluorotris(perfluoroethyl)phosphate (Liquid mixture 1); method: Chromatography
Property: Mole fraction of thiophene (Liquid mixture 1); method: Chromatography
Mole fraction of 1-(2-methoxyethyl)-1-methylpiperidinium trifluorotris(perfluoroethyl)phosphate	Mole fraction of thiophene	uncertainty	Mole fraction of 1-(2-methoxyethyl)-1-methylpiperidinium trifluorotris(perfluoroethyl)phosphate	uncertainty	Mole fraction of thiophene	uncertainty
0.931	0		0		0	
0.833	0.099	0.006	0		0.025	
0.708	0.225	0.006	0		0.072	
0.561	0.376	0.006	0		0.148	
0.505	0.433	0.006	0		0.186	
0.406	0.532	0.007	0		0.279	
0.304	0.637	0.006	0		0.462	
0.257	0.687	0.006	0		0.583	
0.224	0.723	0.006	0		0.679	
0.21	0.74	0.007	0		0.747	
0.19	0.766	0.007	0		0.803	
0.18	0.783	0.007	0		0.855	
0.152	0.823	0.009	0		0.929	
0.143	0.857	0.016	0		1	

System: thiophene + heptane + 1-(2-methoxyethyl)-1-methylpyrrolidinium tris(pentafluoroethyl)trifluorophosphate; phases: Liquid mixture 2, Liquid mixture 1
Fixed: Pressure, kPa = 101
Fixed: Temperature, K = 298.15
Property: Mole fraction of thiophene (Liquid mixture 2); method: Chromatography
Property: Mole fraction of 1-(2-methoxyethyl)-1-methylpyrrolidinium tris(pentafluoroethyl)trifluorophosphate (Liquid mixture 1); method: Chromatography
Property: Mole fraction of thiophene (Liquid mixture 1); method: Chromatography
Mole fraction of 1-(2-methoxyethyl)-1-methylpyrrolidinium tris(pentafluoroethyl)trifluorophosphate	Mole fraction of thiophene	uncertainty	Mole fraction of 1-(2-methoxyethyl)-1-methylpyrrolidinium tris(pentafluoroethyl)trifluorophosphate	uncertainty	Mole fraction of thiophene	uncertainty
0.946	0		0		0	
0.89	0.056	0.006	0		0.018	
0.847	0.099	0.006	0		0.033	
0.731	0.216	0.006	0		0.078	
0.645	0.302	0.006	0		0.12	
0.531	0.416	0.006	0		0.19	
0.462	0.485	0.007	0		0.252	
0.372	0.577	0.006	0		0.372	
0.331	0.618	0.006	0		0.436	
0.318	0.631	0.006	0		0.473	
0.28	0.671	0.006	0		0.573	
0.247	0.707	0.006	0		0.657	
0.235	0.72	0.006	0		0.705	
0.196	0.764	0.007	0		0.818	
0.172	0.81	0.009	0		0.941	
0.16	0.84	0.011	0		1	
