Measured thermophysical data. Vapor pressures and enthalpies of vaporization of azides
Source: J. Chem. Thermodyn., 2011, 10.1016/j.jct.2011.05.028
Compound 1: (azidoethoxy)ethane, C4H9N3O, InChI=1S/C4H9N3O/c1-2-8-4-3-6-7-5/h2-4H2,1H3, purity 70%
Compound 2: 2-azidoethanol, C2H5N3O, InChI=1S/C2H5N3O/c3-5-4-1-2-6/h6H,1-2H2, purity 85%
Compound 3: ethyl azidoacetate, C4H7N3O2, InChI=1S/C4H7N3O2/c1-2-9-4(8)3-6-7-5/h2-3H2,1H3, purity 73%
Compound 4: 2-azidoacetonitrile, C2H2N4, InChI=1S/C2H2N4/c3-1-2-5-6-4/h2H2, purity 93%
Compound 5: azidomethyl phenyl sulfide, C7H7N3S, InChI=1S/C7H7N3S/c8-10-9-6-11-7-4-2-1-3-5-7/h1-5H,6H2
Compound 6: cyclopentyl azide, C5H9N3, InChI=1S/C5H9N3/c6-8-7-5-3-1-2-4-5/h5H,1-4H2, purity 87%
Compound 7: azidocyclohexane, C6H11N3, InChI=1S/C6H11N3/c7-9-8-6-4-2-1-3-5-6/h6H,1-5H2, purity 80%
Compound 8: cyclopentyl ethanoate, C7H12O2, InChI=1S/C7H12O2/c1-6(8)9-7-4-2-3-5-7/h7H,2-5H2,1H3

System: (azidoethoxy)ethane; phases: Liquid, Gas
Property: Molar enthalpy of vaporization or sublimation, kJ/mol (Liquid); method: derived form transpriration measurements
Temperature, K	Molar enthalpy of vaporization or sublimation, kJ/mol	uncertainty
298.15	46.6	3.2

System: (azidoethoxy)ethane; phases: Liquid, Gas
Property: Vapor or sublimation pressure, kPa (Liquid); method: Transpiration method
Temperature, K	Vapor or sublimation pressure, kPa	uncertainty
274.1	0.2423	0.019
275.7	0.2804	0.0219
277.1	0.3181	0.0244
277.9	0.3191	0.0243
278.7	0.3325	0.0253
279.4	0.3333	0.0264
280.2	0.3892	0.0303
281.5	0.4113	0.0315
282.4	0.4364	0.0338
283.2	0.4705	0.0366
284.8	0.5331	0.0413
286.2	0.5994	0.0464
287.8	0.6765	0.052
289.2	0.7246	0.0554
290.7	0.7842	0.06
292.2	0.8444	0.0652
292.3	0.8535	0.0659
293.7	0.9715	0.075
295.2	1.0608	0.0816
296.7	1.1735	0.0906
298.2	1.3133	0.1013
300.7	1.5498	0.119

System: 2-azidoethanol; phases: Liquid, Gas
Property: Molar enthalpy of vaporization or sublimation, kJ/mol (Liquid); method: derived from transpriration measurements
Temperature, K	Molar enthalpy of vaporization or sublimation, kJ/mol	uncertainty
298.15	62.2	1.6

System: 2-azidoethanol; phases: Liquid, Gas
Property: Vapor or sublimation pressure, kPa (Liquid); method: Transpiration method
Temperature, K	Vapor or sublimation pressure, kPa	uncertainty
284.6	0.021	0.0016
287.3	0.0267	0.0021
288.8	0.0298	0.0023
291.8	0.0398	0.0031
294.8	0.052	0.004
297.7	0.0664	0.0052
300.7	0.088	0.0068
303.6	0.1076	0.0083
306.6	0.1398	0.0108
309	0.1676	0.0129
309.6	0.1718	0.0133
312	0.2073	0.016
312.6	0.2168	0.0167
316	0.2782	0.0214
316.1	0.2882	0.0222

System: ethyl azidoacetate; phases: Liquid, Gas
Property: Molar enthalpy of vaporization or sublimation, kJ/mol (Liquid); method: derived from transpriration measurements
Temperature, K	Molar enthalpy of vaporization or sublimation, kJ/mol	uncertainty
298.15	56.3	2.8

System: ethyl azidoacetate; phases: Liquid, Gas
Property: Vapor or sublimation pressure, kPa (Liquid); method: Transpiration method
Temperature, K	Vapor or sublimation pressure, kPa	uncertainty
301.4	0.1784	0.0161
304.8	0.2378	0.0213
308.3	0.3083	0.0276
314.3	0.4549	0.0405
320.2	0.6452	0.0573
323.2	0.7874	0.0702
326.2	0.9687	0.0864
332.2	1.3797	0.1227
338.1	1.9292	0.1715
341.1	2.3971	0.2128
344.3	2.7144	0.24

System: 2-azidoacetonitrile; phases: Liquid, Gas
Property: Molar enthalpy of vaporization or sublimation, kJ/mol (Liquid); method: derived from transpriration measurements
Temperature, K	Molar enthalpy of vaporization or sublimation, kJ/mol	uncertainty
298.15	52.6	0.8

System: 2-azidoacetonitrile; phases: Liquid, Gas
Property: Vapor or sublimation pressure, kPa (Liquid); method: Transpiration method
Temperature, K	Vapor or sublimation pressure, kPa	uncertainty
289.9	0.1504	0.011
292.8	0.1904	0.0138
295.8	0.2321	0.0168
298.8	0.2903	0.021
301.8	0.3584	0.0259
304.7	0.4324	0.0313
307.7	0.5299	0.0383
310.7	0.6414	0.0464
313.6	0.7834	0.0566
316.6	0.944	0.0681
320.6	1.1883	0.0858
324.6	1.5548	0.112

System: azidomethyl phenyl sulfide; phases: Liquid, Gas
Property: Molar enthalpy of vaporization or sublimation, kJ/mol (Liquid); method: derived from tranpriration measurements
Temperature, K	Molar enthalpy of vaporization or sublimation, kJ/mol	uncertainty
298.15	68.9	1.3

System: azidomethyl phenyl sulfide; phases: Liquid, Gas
Property: Vapor or sublimation pressure, kPa (Liquid); method: Transpiration method
Temperature, K	Vapor or sublimation pressure, kPa	uncertainty
299.6	0.00448	0.00033
303.5	0.0064	0.00046
307.3	0.00918	0.00066
310.3	0.01158	0.00083
313.3	0.01502	0.00108
316.2	0.01866	0.00134
319.2	0.02463	0.00177
324.2	0.03511	0.00249

System: cyclopentyl azide; phases: Liquid, Gas
Property: Molar enthalpy of vaporization or sublimation, kJ/mol (Liquid); method: derived from transpiration measurements
Temperature, K	Molar enthalpy of vaporization or sublimation, kJ/mol	uncertainty
298.15	41.3	1.5

System: cyclopentyl azide; phases: Liquid, Gas
Property: Vapor or sublimation pressure, kPa (Liquid); method: Transpiration method
Temperature, K	Vapor or sublimation pressure, kPa	uncertainty
275.5	0.3701	0.0278
279.2	0.4454	0.0333
281.3	0.48	0.0362
283.2	0.5664	0.0427
285.3	0.6268	0.0473
287	0.722	0.0541
288.7	0.7419	0.0556
291.1	0.8591	0.0649
293	0.9879	0.0744
293	0.9833	0.0741
295.1	1.1022	0.0824
295.8	1.1003	0.0854
297.2	1.3417	0.1025
298.5	1.4184	0.1061
299.1	1.4498	0.1078
300.8	1.4664	0.1475
301.1	1.6154	0.1558
303.1	1.8804	0.1405
303.3	1.8994	0.1419
305.8	1.9529	0.1637
306.1	2.0663	0.1712
308.2	2.2391	0.1675
310.7	2.4944	0.1872
313.3	2.8982	0.2191
317.9	3.9129	0.2937
323.1	4.8961	0.3663
327.7	5.9507	0.4461
333.4	7.8537	0.5876

System: azidocyclohexane; phases: Liquid, Gas
Property: Molar enthalpy of vaporization or sublimation, kJ/mol (Liquid); method: derived from transpiration measurements
Temperature, K	Molar enthalpy of vaporization or sublimation, kJ/mol	uncertainty
298.15	49.2	2.2

System: azidocyclohexane; phases: Liquid, Gas
Property: Vapor or sublimation pressure, kPa (Liquid); method: Transpiration method
Temperature, K	Vapor or sublimation pressure, kPa	uncertainty
279.6	0.0856	0.007
281.6	0.1002	0.0082
283.4	0.1159	0.0095
285.3	0.1366	0.0111
286.6	0.1432	0.0117
287.2	0.1571	0.0129
288.9	0.1754	0.0142
290.2	0.1885	0.0154
291.9	0.2153	0.0175
293.2	0.231	0.0189
295.5	0.2749	0.0224
297.1	0.3013	0.0245
298.3	0.3332	0.0274
300.1	0.3875	0.0314
301.3	0.3917	0.0318
303.1	0.4574	0.0375

System: cyclopentyl ethanoate; phases: Liquid, Gas
Property: Molar enthalpy of vaporization or sublimation, kJ/mol (Liquid); method: derived from tranpriration measurements
Temperature, K	Molar enthalpy of vaporization or sublimation, kJ/mol	uncertainty
298.15	48.5	1.1

System: cyclopentyl ethanoate; phases: Liquid, Gas
Property: Vapor or sublimation pressure, kPa (Liquid); method: Transpiration method
Temperature, K	Vapor or sublimation pressure, kPa	uncertainty
274.1	0.0795	0.0056
276.1	0.0894	0.0064
278.2	0.1067	0.0076
281.3	0.1295	0.0093
283.2	0.1597	0.0115
286.3	0.1983	0.0141
288.4	0.2248	0.016
291.2	0.278	0.0197
293.2	0.3029	0.0217
296.4	0.4022	0.0287
298.2	0.4443	0.0316
303.2	0.6114	0.0434
308.4	0.8519	0.0602
