Measured thermophysical data. Thermophysical properties of fatty acid methyl and ethyl esters
Source: J. Chem. Thermodyn., 2019, 10.1016/j.jct.2019.02.025
Compound 1: methyl hexanoate, C7H14O2, InChI=1S/C7H14O2/c1-3-4-5-6-7(8)9-2/h3-6H2,1-2H3, purity 99.428%
Compound 2: methyl heptanoate, C8H16O2, InChI=1S/C8H16O2/c1-3-4-5-6-7-8(9)10-2/h3-7H2,1-2H3, purity 98.78%
Compound 3: methyl octanoate, C9H18O2, InChI=1S/C9H18O2/c1-3-4-5-6-7-8-9(10)11-2/h3-8H2,1-2H3, purity 99.899%
Compound 4: methyl decanoate, C11H22O2, InChI=1S/C11H22O2/c1-3-4-5-6-7-8-9-10-11(12)13-2/h3-10H2,1-2H3, purity 99.16%
Compound 5: methyl dodecanoate, C13H26O2, InChI=1S/C13H26O2/c1-3-4-5-6-7-8-9-10-11-12-13(14)15-2/h3-12H2,1-2H3, purity 99.578%
Compound 6: methyl tetradecanoate, C15H30O2, InChI=1S/C15H30O2/c1-3-4-5-6-7-8-9-10-11-12-13-14-15(16)17-2/h3-14H2,1-2H3, purity 99.876%
Compound 7: ethyl hexanoate, C8H16O2, InChI=1S/C8H16O2/c1-3-5-6-7-8(9)10-4-2/h3-7H2,1-2H3, purity 99.05%
Compound 8: ethyl heptanoate, C9H18O2, InChI=1S/C9H18O2/c1-3-5-6-7-8-9(10)11-4-2/h3-8H2,1-2H3, purity 98.53%
Compound 9: ethyl octanoate, C10H20O2, InChI=1S/C10H20O2/c1-3-5-6-7-8-9-10(11)12-4-2/h3-9H2,1-2H3, purity 99.08%
Compound 10: ethyl decanoate, C12H24O2, InChI=1S/C12H24O2/c1-3-5-6-7-8-9-10-11-12(13)14-4-2/h3-11H2,1-2H3, purity 99.2%
Compound 11: ethyl dodecanoate, C14H28O2, InChI=1S/C14H28O2/c1-3-5-6-7-8-9-10-11-12-13-14(15)16-4-2/h3-13H2,1-2H3, purity 99.32%
Compound 12: ethyl tetradecanoate, C16H32O2, InChI=1S/C16H32O2/c1-3-5-6-7-8-9-10-11-12-13-14-15-16(17)18-4-2/h3-15H2,1-2H3, purity 99.7%
Compound 13: dodecane, C12H26, InChI=1S/C12H26/c1-3-5-7-9-11-12-10-8-6-4-2/h3-12H2,1-2H3, purity 99.025%

System: methyl hexanoate; phases: Liquid
Fixed: Pressure, kPa = 101.325
Property: Refractive index (Na D-line) (Liquid); method: Standard Abbe refractometry
Temperature, K	Refractive index (Na D-line)	uncertainty
278.15	1.412115	0.000503
283.15	1.409843	0.000503
288.15	1.407573	0.000503
293.15	1.40529	0.000503
298.15	1.403003	0.000503
303.15	1.400703	0.000503
308.15	1.398412	0.000503
313.15	1.396103	0.000503
318.15	1.393733	0.000503
323.15	1.391363	0.000503
328.15	1.389017	0.000503
333.15	1.386674	0.000503
338.15	1.384318	0.000503
343.15	1.381694	0.000503
348.15	1.379609	0.000503
353.15	1.377247	0.000503
358.15	1.374901	0.000503

System: methyl hexanoate; phases: Liquid
Fixed: Pressure, kPa = 101.325
Property: Mass density, kg/m3 (Liquid); method: Vibrating tube method
Temperature, K	Mass density, kg/m3	uncertainty
293.15	884.44	1.77
303.15	874.79	1.75
313.15	865.12	1.73
323.15	855.4	1.72
333.15	845.68	1.7
343.15	835.87	1.68
353.15	825.97	1.66
363.15	815.95	1.64
373.15	805.49	1.62
383.15	795.6	1.6
393.15	785.23	1.58
403.15	774.67	1.56
413.15	763.86	1.54

System: methyl hexanoate; phases: Liquid
Fixed: Pressure, kPa = 101.325
Property: Kinematic viscosity, m2/s (Liquid); method: Surface laser light scattering (SLLS)
Temperature, K	Kinematic viscosity, m2/s	uncertainty
298.14	1.0184e-06	3.43e-08
323.17	7.486e-07	2.52e-08
348.18	5.742e-07	2.31e-08
373.21	4.534e-07	1.83e-08
398.2	3.737e-07	1.65e-08
423.17	3.248e-07	1.53e-08
448.17	2.824e-07	1.48e-08

System: methyl hexanoate; phases: Liquid, Air at 1 atmosphere
Property: Surface tension liquid-gas, N/m (Liquid); method: Surface laser light scattering (SLLS)
Temperature, K	Surface tension liquid-gas, N/m	uncertainty
298.14	0.02458	0.00052
323.17	0.02244	0.00016
348.18	0.02035	9e-05
373.21	0.01803	0.00015
398.2	0.01563	8e-05
423.17	0.01336	0.0001
448.17	0.01118	0.00026

System: methyl heptanoate; phases: Liquid
Fixed: Pressure, kPa = 101.325
Property: Refractive index (Na D-line) (Liquid); method: Standard Abbe refractometry
Temperature, K	Refractive index (Na D-line)	uncertainty
278.15	1.418648	0.000547
283.15	1.41643	0.000547
288.15	1.414206	0.000547
293.15	1.411989	0.000547
298.15	1.409764	0.000547
303.15	1.40753	0.000547
308.15	1.405297	0.000547
313.15	1.403011	0.000547
318.15	1.400699	0.000547
323.15	1.39841	0.000547
328.15	1.39614	0.000547
333.15	1.393887	0.000547
338.15	1.39167	0.000547
343.15	1.389462	0.000547
348.15	1.387244	0.000547
353.15	1.385012	0.000547
358.15	1.382756	0.000547

System: methyl heptanoate; phases: Liquid
Fixed: Pressure, kPa = 101.325
Property: Mass density, kg/m3 (Liquid); method: Vibrating tube method
Temperature, K	Mass density, kg/m3	uncertainty
293.15	879.29	1.78
303.15	870.75	1.76
313.15	861.6	1.75
323.15	852.39	1.73
333.15	843.15	1.71
343.15	833.87	1.69
353.15	824.55	1.67
363.15	814.17	1.65
373.15	805.69	1.63
383.15	796.11	1.62
393.15	786.44	1.6
403.15	776.63	1.58
413.15	766.7	1.56
423.15	756.62	1.54
433.15	746.31	1.52

System: methyl heptanoate; phases: Liquid
Fixed: Pressure, kPa = 101.325
Property: Kinematic viscosity, m2/s (Liquid); method: Surface laser light scattering (SLLS)
Temperature, K	Kinematic viscosity, m2/s	uncertainty
298.13	1.2212e-06	3.79e-08
323.17	8.921e-07	2.9e-08
348.19	6.789e-07	2.39e-08
373.26	5.315e-07	2.04e-08
398.29	4.339e-07	1.8e-08
423.26	3.66e-07	1.64e-08
448.29	3.138e-07	1.52e-08

System: methyl heptanoate; phases: Liquid, Gas
Property: Surface tension liquid-gas, N/m (Liquid); method: Surface laser light scattering (SLLS)
Temperature, K	Surface tension liquid-gas, N/m	uncertainty
298.13	0.02475	0.00052
323.17	0.023	0.00035
348.19	0.02102	0.00031
373.26	0.01872	0.00017
398.29	0.01666	0.00012
423.26	0.01443	0.00013
448.29	0.01233	0.00012

System: methyl octanoate; phases: Liquid
Fixed: Pressure, kPa = 101.325
Property: Refractive index (Na D-line) (Liquid); method: Standard Abbe refractometry
Temperature, K	Refractive index (Na D-line)	uncertainty
278.15	1.423853	0.00049
283.15	1.42168	0.00049
288.15	1.419509	0.00049
293.15	1.417339	0.00049
298.15	1.415164	0.00049
303.15	1.412984	0.00049
308.15	1.41079	0.00049
313.15	1.408543	0.000491
318.15	1.40629	0.00049
323.15	1.404054	0.00049
328.15	1.401835	0.00049
333.15	1.399648	0.00049
338.15	1.397498	0.00049
343.15	1.395351	0.00049
348.15	1.393204	0.00049
353.15	1.391042	0.00049
358.15	1.388861	0.00049

System: methyl octanoate; phases: Liquid
Fixed: Pressure, kPa = 101.325
Property: Mass density, kg/m3 (Liquid); method: Vibrating tube method
Temperature, K	Mass density, kg/m3	uncertainty
293.15	876.58	1.76
303.15	866.75	1.74
313.15	858.95	1.72
323.15	850.13	1.7
333.15	841.3	1.69
343.15	832.44	1.67
353.15	823.54	1.65
363.15	814.59	1.63
373.15	805.56	1.61
383.15	796.52	1.6
393.15	787.36	1.58
403.15	778.1	1.56
413.15	768.72	1.54
423.15	759.27	1.52
433.15	749.61	1.5
443.15	739.56	1.49
453.15	729.82	1.47

System: methyl octanoate; phases: Liquid
Fixed: Pressure, kPa = 101.325
Property: Kinematic viscosity, m2/s (Liquid); method: Surface laser light scattering (SLLS)
Temperature, K	Kinematic viscosity, m2/s	uncertainty
298.19	1.5089e-06	4.43e-08
323.21	1.0905e-06	4.39e-08
348.23	8.309e-07	2.81e-08
373.28	6.505e-07	2.29e-08
398.31	5.188e-07	2e-08
423.31	4.304e-07	1.77e-08
448.33	3.587e-07	1.78e-08

System: methyl octanoate; phases: Liquid, Gas
Property: Surface tension liquid-gas, N/m (Liquid); method: Surface laser light scattering (SLLS)
Temperature, K	Surface tension liquid-gas, N/m	uncertainty
298.19	0.02465	0.00028
323.21	0.02302	0.00038
348.23	0.02161	0.00015
373.28	0.01962	0.00016
398.31	0.01762	0.00028
423.31	0.01547	5e-05
448.33	0.01344	0.0003

System: methyl decanoate; phases: Liquid
Fixed: Pressure, kPa = 101.325
Property: Refractive index (Na D-line) (Liquid); method: Standard Abbe refractometry
Temperature, K	Refractive index (Na D-line)	uncertainty
278.15	1.432087	0.000518
283.15	1.429952	0.000518
288.15	1.427829	0.000518
293.15	1.425713	0.000518
298.15	1.423588	0.000518
303.15	1.421479	0.000518
308.15	1.41938	0.000518
313.15	1.417261	0.000518
318.15	1.415097	0.000518
323.15	1.412946	0.000518
328.15	1.410826	0.000518
333.15	1.408709	0.000518
338.15	1.406591	0.000518
343.15	1.404483	0.000518
348.15	1.402371	0.000518
353.15	1.400284	0.000518
358.15	1.398188	0.000518

System: methyl decanoate; phases: Liquid
Fixed: Pressure, kPa = 101.325
Property: Mass density, kg/m3 (Liquid); method: Vibrating tube method
Temperature, K	Mass density, kg/m3	uncertainty
293.15	872.34	1.75
303.15	864.01	1.74
313.15	855.73	1.72
323.15	847.47	1.7
333.15	839.2	1.69
343.15	830.94	1.67
353.15	822.61	1.66
363.15	814.38	1.64
373.15	806.06	1.62
383.15	797.7	1.61
393.15	789.29	1.59
403.15	780.82	1.57
413.15	771.74	1.56
423.15	763.71	1.54
433.15	755	1.52
443.15	746.3	1.51
453.15	737.39	1.49

System: methyl decanoate; phases: Liquid
Fixed: Pressure, kPa = 101.325
Property: Kinematic viscosity, m2/s (Liquid); method: Surface laser light scattering (SLLS)
Temperature, K	Kinematic viscosity, m2/s	uncertainty
298.14	2.0872e-06	7.37e-08
323.16	1.4801e-06	4.26e-08
348.16	1.1289e-06	4.02e-08
373.17	8.738e-07	3.12e-08
398.08	6.875e-07	2.39e-08
422.99	5.607e-07	2.09e-08
447.95	4.522e-07	2.06e-08

System: methyl decanoate; phases: Liquid, Gas
Property: Surface tension liquid-gas, N/m (Liquid); method: Surface laser light scattering (SLLS)
Temperature, K	Surface tension liquid-gas, N/m	uncertainty
298.14	0.02473	0.00067
323.16	0.02328	0.00032
348.16	0.02196	0.00027
373.17	0.02049	0.00029
398.08	0.01881	0.00022
422.99	0.01683	0.00022
447.95	0.01487	0.00019

System: methyl dodecanoate; phases: Liquid
Fixed: Pressure, kPa = 101.325
Property: Refractive index (Na D-line) (Liquid); method: Standard Abbe refractometry
Temperature, K	Refractive index (Na D-line)	uncertainty
278.15	1.438364	0.000497
283.15	1.436294	0.000497
288.15	1.434215	0.000497
293.15	1.432155	0.000497
298.15	1.430085	0.000497
303.15	1.428015	0.000497
308.15	1.42594	0.000497
313.15	1.423833	0.000497
318.15	1.421707	0.000497
323.15	1.41959	0.000497
328.15	1.4175	0.000497
333.15	1.415416	0.000497
338.15	1.413341	0.000497
343.15	1.411272	0.000497
348.15	1.409219	0.000497
353.15	1.40717	0.000497
358.15	1.405129	0.000497

System: methyl dodecanoate; phases: Liquid
Fixed: Pressure, kPa = 101.325
Property: Mass density, kg/m3 (Liquid); method: Vibrating tube method
Temperature, K	Mass density, kg/m3	uncertainty
293.15	869.26	1.74
303.15	861.25	1.73
313.15	853.32	1.71
323.15	845.42	1.69
333.15	837.53	1.68
343.15	829.63	1.66
353.15	820.84	1.65
363.15	813.94	1.63
373.15	806.11	1.62
383.15	798.22	1.6
393.15	790.34	1.59
403.15	782.4	1.57
413.15	774.39	1.55
423.15	766.34	1.54
433.15	758.26	1.52
443.15	750.06	1.51
453.15	741.94	1.49

System: methyl dodecanoate; phases: Liquid
Fixed: Pressure, kPa = 101.325
Property: Kinematic viscosity, m2/s (Liquid); method: Surface laser light scattering (SLLS)
Temperature, K	Kinematic viscosity, m2/s	uncertainty
298.14	2.8113e-06	1.613e-07
323.16	1.9031e-06	7.58e-08
348.15	1.4403e-06	4.35e-08
373.17	1.1355e-06	3.42e-08
398.27	9.1e-07	3.23e-08
423.25	7.361e-07	2.67e-08
448.25	5.991e-07	2.17e-08

System: methyl dodecanoate; phases: Liquid, Gas
Property: Surface tension liquid-gas, N/m (Liquid); method: Surface laser light scattering (SLLS)
Temperature, K	Surface tension liquid-gas, N/m	uncertainty
298.14	0.02349	0.0011
323.16	0.02202	0.00079
348.15	0.02112	0.00027
373.17	0.01982	0.00038
398.27	0.01866	0.00026
423.25	0.01748	0.00012
448.25	0.01599	9e-05

System: methyl tetradecanoate; phases: Liquid
Fixed: Pressure, kPa = 101.325
Property: Refractive index (Na D-line) (Liquid); method: Standard Abbe refractometry
Temperature, K	Refractive index (Na D-line)	uncertainty
293.15	1.437042	0.000491
298.15	1.43499	0.000491
303.15	1.432958	0.000491
308.15	1.430932	0.000491
313.15	1.428904	0.000491
318.15	1.426812	0.000491
323.15	1.424717	0.000491
328.15	1.422535	0.000491
333.15	1.420202	0.000491
338.15	1.417826	0.000491
343.15	1.416295	0.000491
348.15	1.41474	0.000491
353.15	1.412816	0.000491
358.15	1.41083	0.000491

System: methyl tetradecanoate; phases: Liquid
Fixed: Pressure, kPa = 101.325
Property: Mass density, kg/m3 (Liquid); method: Vibrating tube method
Temperature, K	Mass density, kg/m3	uncertainty
293.15	867.06	1.74
303.15	859.28	1.72
313.15	851.61	1.71
323.15	843.97	1.69
333.15	836.37	1.68
343.15	828.8	1.66
353.15	821.26	1.65
363.15	813.71	1.63
373.15	806.17	1.62
383.15	798.64	1.6
393.15	791.09	1.59
403.15	783.52	1.57
413.15	775.91	1.56
423.15	768.24	1.54
433.15	760.61	1.53
443.15	752.95	1.51
453.15	745.22	1.5

System: methyl tetradecanoate; phases: Liquid
Fixed: Pressure, kPa = 101.325
Property: Kinematic viscosity, m2/s (Liquid); method: Surface laser light scattering (SLLS)
Temperature, K	Kinematic viscosity, m2/s	uncertainty
323.17	2.411e-06	7.56e-08
348.16	1.7646e-06	1.089e-07
373.18	1.3834e-06	7.38e-08
398.2	1.0792e-06	3.28e-08
423.17	8.634e-07	2.78e-08
448.17	6.995e-07	2.49e-08

System: methyl tetradecanoate; phases: Liquid, Gas
Property: Surface tension liquid-gas, N/m (Liquid); method: Surface laser light scattering (SLLS)
Temperature, K	Surface tension liquid-gas, N/m	uncertainty
323.17	0.02337	0.00083
348.16	0.02183	0.00042
373.18	0.02078	0.00056
398.2	0.01971	9e-05
423.17	0.01831	0.00015
448.17	0.01682	9e-05

System: ethyl hexanoate; phases: Liquid
Fixed: Pressure, kPa = 101.325
Property: Refractive index (Na D-line) (Liquid); method: Standard Abbe refractometry
Temperature, K	Refractive index (Na D-line)	uncertainty
278.15	1.414384	0.000526
283.15	1.412103	0.000526
288.15	1.409818	0.000526
293.15	1.407535	0.000526
298.15	1.405246	0.000526
303.15	1.402952	0.000526
308.15	1.400631	0.000526
313.15	1.398285	0.000526
318.15	1.395941	0.000526
323.15	1.393599	0.000526
328.15	1.391281	0.000526
333.15	1.38897	0.000526
338.15	1.386666	0.000526
343.15	1.38438	0.000526
348.15	1.382102	0.000526
353.15	1.379832	0.000526
358.15	1.37754	0.000526

System: ethyl hexanoate; phases: Liquid
Fixed: Pressure, kPa = 101.325
Property: Mass density, kg/m3 (Liquid); method: Vibrating tube method
Temperature, K	Mass density, kg/m3	uncertainty
293.15	871.07	1.75
303.15	861.61	1.73
313.15	851.2	1.71
323.15	842.71	1.7
333.15	833.25	1.68
343.15	823.72	1.66
353.15	814.13	1.64
363.15	804.45	1.62
373.15	794.69	1.6
383.15	784.83	1.58
393.15	774.87	1.56
403.15	764.77	1.54
413.15	754.53	1.52
423.15	744.07	1.5

System: ethyl hexanoate; phases: Liquid
Fixed: Pressure, kPa = 101.325
Property: Kinematic viscosity, m2/s (Liquid); method: Surface laser light scattering (SLLS)
Temperature, K	Kinematic viscosity, m2/s	uncertainty
298.26	1.133e-06	4.49e-08
323.06	8.138e-07	3.48e-08
348.04	6.246e-07	2.38e-08
372.96	4.995e-07	1.95e-08
397.73	4.11e-07	1.74e-08
422.94	3.464e-07	1.59e-08
447.88	3.03e-07	1.52e-08

System: ethyl hexanoate; phases: Liquid, Gas
Property: Surface tension liquid-gas, N/m (Liquid); method: Surface laser light scattering (SLLS)
Temperature, K	Surface tension liquid-gas, N/m	uncertainty
298.26	0.02465	0.00038
323.06	0.02227	0.0004
348.04	0.02008	0.00034
372.96	0.01781	0.00024
397.73	0.01568	0.00011
422.94	0.01351	0.00015
447.88	0.01143	0.00025

System: ethyl heptanoate; phases: Liquid
Fixed: Pressure, kPa = 101.325
Property: Refractive index (Na D-line) (Liquid); method: Standard Abbe refractometry
Temperature, K	Refractive index (Na D-line)	uncertainty
278.15	1.420063	0.000572
283.15	1.417843	0.000572
288.15	1.415625	0.000572
293.15	1.41341	0.000572
298.15	1.411188	0.000572
303.15	1.408961	0.000572
308.15	1.406726	0.000572
313.15	1.404446	0.000572
318.15	1.402158	0.000572
323.15	1.399879	0.000572
328.15	1.397612	0.000572
333.15	1.395353	0.000572
338.15	1.393107	0.000572
343.15	1.390882	0.000572
348.15	1.388664	0.000572
353.15	1.386446	0.000572
358.15	1.384209	0.000572

System: ethyl heptanoate; phases: Liquid
Fixed: Pressure, kPa = 101.325
Property: Mass density, kg/m3 (Liquid); method: Vibrating tube method
Temperature, K	Mass density, kg/m3	uncertainty
293.15	869.42	1.78
303.15	860.36	1.76
313.15	851.32	1.74
323.15	842.26	1.72
333.15	833.07	1.71
343.15	824.1	1.69
353.15	814.99	1.67
363.15	805.81	1.65
373.15	796.55	1.63
383.15	787.24	1.61
393.15	777.81	1.59
403.15	768.3	1.58
413.15	758.65	1.56
423.15	748.89	1.54
433.15	738.95	1.52
443.15	728.84	1.5

System: ethyl heptanoate; phases: Liquid
Fixed: Pressure, kPa = 101.325
Property: Kinematic viscosity, m2/s (Liquid); method: Surface laser light scattering (SLLS)
Temperature, K	Kinematic viscosity, m2/s	uncertainty
298.25	1.3253e-06	4.41e-08
323.03	9.549e-07	3.07e-08
347.8	7.3e-07	2.53e-08
372.91	5.735e-07	2.15e-08
397.51	4.701e-07	1.9e-08
421.88	3.949e-07	1.72e-08
448	3.394e-07	1.58e-08

System: ethyl heptanoate; phases: Liquid, Gas
Property: Surface tension liquid-gas, N/m (Liquid); method: Surface laser light scattering (SLLS)
Temperature, K	Surface tension liquid-gas, N/m	uncertainty
298.25	0.02488	0.00034
323.03	0.02307	0.0003
347.8	0.02071	0.00023
372.91	0.01861	0.00023
397.51	0.01627	0.00019
421.88	0.01443	0.00014
448	0.01231	0.00014

System: ethyl octanoate; phases: Liquid
Fixed: Pressure, kPa = 101.325
Property: Refractive index (Na D-line) (Liquid); method: Standard Abbe refractometry
Temperature, K	Refractive index (Na D-line)	uncertainty
278.15	1.42461	0.000523
283.15	1.422423	0.000523
288.15	1.420249	0.000523
293.15	1.418072	0.000523
298.15	1.415872	0.000523
303.15	1.413672	0.000523
308.15	1.411477	0.000523
313.15	1.409256	0.000523
318.15	1.407027	0.000523
323.15	1.404808	0.000523
328.15	1.402611	0.000523
333.15	1.400424	0.000523
338.15	1.398225	0.000523
343.15	1.396032	0.000523
348.15	1.393856	0.000523
353.15	1.391698	0.000523
358.15	1.389545	0.000523

System: ethyl octanoate; phases: Liquid
Fixed: Pressure, kPa = 101.325
Property: Mass density, kg/m3 (Liquid); method: Vibrating tube method
Temperature, K	Mass density, kg/m3	uncertainty
293.15	866.99	1.74
303.15	858.27	1.73
313.15	849.55	1.71
323.15	839.92	1.69
333.15	832	1.68
343.15	823.46	1.66
353.15	814.74	1.64
363.15	805.97	1.62
373.15	797.16	1.61
383.15	788.08	1.59
393.15	779.34	1.57
403.15	770.31	1.55
413.15	761.18	1.54
423.15	751.94	1.52
433.15	742.64	1.5
443.15	733.17	1.48
453.15	723.58	1.46

System: ethyl octanoate; phases: Liquid
Fixed: Pressure, kPa = 101.325
Property: Kinematic viscosity, m2/s (Liquid); method: Surface laser light scattering (SLLS)
Temperature, K	Kinematic viscosity, m2/s	uncertainty
298.15	1.5212e-06	5.75e-08
323.14	1.1456e-06	7.06e-08
348.17	8.92e-07	3.8e-08
373.19	6.877e-07	2.57e-08
398.2	5.446e-07	2.23e-08
423.18	4.534e-07	1.84e-08
448.17	3.858e-07	1.68e-08

System: ethyl octanoate; phases: Liquid, Gas
Property: Surface tension liquid-gas, N/m (Liquid); method: Surface laser light scattering (SLLS)
Temperature, K	Surface tension liquid-gas, N/m	uncertainty
298.15	0.02538	0.00057
323.14	0.02334	0.00048
348.17	0.0215	0.00032
373.19	0.0195	0.00033
398.2	0.01744	0.00011
423.18	0.01536	0.00012
448.17	0.01316	0.00017

System: ethyl decanoate; phases: Liquid
Fixed: Pressure, kPa = 101.325
Property: Refractive index (Na D-line) (Liquid); method: Standard Abbe refractometry
Temperature, K	Refractive index (Na D-line)	uncertainty
278.15	1.432135	0.000516
283.15	1.430004	0.000516
288.15	1.427885	0.000516
293.15	1.425771	0.000516
298.15	1.423658	0.000516
303.15	1.421546	0.000516
308.15	1.419436	0.000516
313.15	1.41729	0.000516
318.15	1.415118	0.000516
323.15	1.412965	0.000516
328.15	1.410844	0.000516
333.15	1.408727	0.000516
338.15	1.40661	0.000516
343.15	1.404511	0.000516
348.15	1.402414	0.000516
353.15	1.40034	0.000516
358.15	1.398258	0.000516

System: ethyl decanoate; phases: Liquid
Fixed: Pressure, kPa = 101.325
Property: Mass density, kg/m3 (Liquid); method: Vibrating tube method
Temperature, K	Mass density, kg/m3	uncertainty
293.15	864.08	1.74
303.15	855.82	1.72
313.15	847.62	1.7
323.15	839.41	1.69
333.15	830.71	1.67
343.15	822.79	1.65
353.15	814.9	1.64
363.15	806.72	1.62
373.15	798.5	1.61
383.15	790.26	1.59
393.15	781.97	1.57
403.15	773.63	1.56
413.15	765.29	1.54
423.15	756.81	1.53
433.15	748.26	1.51
443.15	739.7	1.49
453.15	731.01	1.48

System: ethyl decanoate; phases: Liquid
Fixed: Pressure, kPa = 101.325
Property: Kinematic viscosity, m2/s (Liquid); method: Surface laser light scattering (SLLS)
Temperature, K	Kinematic viscosity, m2/s	uncertainty
298.13	2.2042e-06	8.66e-08
323.11	1.5856e-06	6.12e-08
348.1	1.2203e-06	4.64e-08
373.17	9.554e-07	3.84e-08
398.16	7.477e-07	2.53e-08
423.12	6.177e-07	2.55e-08
448.1	4.921e-07	1.93e-08

System: ethyl decanoate; phases: Liquid, Gas
Property: Surface tension liquid-gas, N/m (Liquid); method: Surface laser light scattering (SLLS)
Temperature, K	Surface tension liquid-gas, N/m	uncertainty
298.13	0.02387	0.0003
323.11	0.02257	0.00035
348.1	0.02138	0.00027
373.17	0.01981	0.0003
398.16	0.01826	0.00019
423.12	0.0168	0.0003
448.1	0.01486	0.00035

System: ethyl dodecanoate; phases: Liquid
Fixed: Pressure, kPa = 101.325
Property: Refractive index (Na D-line) (Liquid); method: Standard Abbe refractometry
Temperature, K	Refractive index (Na D-line)	uncertainty
278.15	1.437911	0.000509
283.15	1.435833	0.000509
288.15	1.433752	0.000509
293.15	1.431689	0.000509
298.15	1.429613	0.000509
303.15	1.427545	0.000509
308.15	1.425472	0.000509
313.15	1.423352	0.000509
318.15	1.421245	0.000509
323.15	1.419149	0.000509
328.15	1.417071	0.000509
333.15	1.415014	0.000509
338.15	1.412948	0.000509
343.15	1.410901	0.000509
348.15	1.408858	0.000509
353.15	1.406839	0.000509
358.15	1.404793	0.000509

System: ethyl dodecanoate; phases: Liquid
Fixed: Pressure, kPa = 101.325
Property: Mass density, kg/m3 (Liquid); method: Vibrating tube method
Temperature, K	Mass density, kg/m3	uncertainty
293.15	862	1.73
303.15	853.15	1.71
313.15	845.31	1.7
323.15	838.31	1.68
333.15	830.53	1.67
343.15	822.74	1.65
353.15	814.95	1.64
363.15	807.16	1.62
373.15	799.37	1.61
383.15	791.55	1.59
393.15	783.72	1.58
403.15	775.85	1.56
413.15	767.94	1.54
423.15	759.99	1.53
433.15	751.6	1.51
443.15	744.05	1.5
453.15	735.97	1.48

System: ethyl dodecanoate; phases: Liquid
Fixed: Pressure, kPa = 101.325
Property: Kinematic viscosity, m2/s (Liquid); method: Surface laser light scattering (SLLS)
Temperature, K	Kinematic viscosity, m2/s	uncertainty
298.03	3.1127e-06	1.114e-07
323.15	1.9804e-06	7.72e-08
348.25	1.4445e-06	6.91e-08
373.4	1.0924e-06	3.57e-08
398.14	8.715e-07	2.82e-08
423.13	7.192e-07	2.58e-08
448.22	5.906e-07	2.16e-08

System: ethyl dodecanoate; phases: Liquid, Gas
Property: Surface tension liquid-gas, N/m (Liquid); method: Surface laser light scattering (SLLS)
Temperature, K	Surface tension liquid-gas, N/m	uncertainty
298.03	0.02684	0.00088
323.15	0.02454	0.00035
348.25	0.02285	0.00051
373.4	0.02117	0.0002
398.14	0.01932	0.00012
423.13	0.01783	0.00013
448.22	0.01595	0.00022

System: ethyl tetradecanoate; phases: Liquid
Fixed: Pressure, kPa = 101.325
Property: Refractive index (Na D-line) (Liquid); method: Standard Abbe refractometry
Temperature, K	Refractive index (Na D-line)	uncertainty
288.15	1.438406	0.000494
293.15	1.436365	0.000494
298.15	1.434317	0.000494
303.15	1.432295	0.000494
308.15	1.43026	0.000494
313.15	1.428196	0.000494
318.15	1.426131	0.000494
323.15	1.42407	0.000494
328.15	1.422051	0.000494
333.15	1.420036	0.000494
338.15	1.418031	0.000494
343.15	1.416031	0.000494
348.15	1.414064	0.000494
353.15	1.412083	0.000494
358.15	1.410098	0.000494

System: ethyl tetradecanoate; phases: Liquid
Fixed: Pressure, kPa = 101.325
Property: Mass density, kg/m3 (Liquid); method: Vibrating tube method
Temperature, K	Mass density, kg/m3	uncertainty
293.15	860.8	1.72
303.15	853.07	1.71
313.15	845.46	1.69
323.15	837.86	1.68
333.15	830.3	1.66
343.15	822.77	1.65
353.15	815.26	1.63
363.15	807.75	1.62
373.15	799.27	1.6
383.15	792.77	1.59
393.15	785.27	1.58
403.15	777.75	1.56
413.15	770.21	1.55
423.15	762.65	1.53
433.15	755.04	1.52
443.15	747.42	1.5
453.15	739.78	1.49

System: ethyl tetradecanoate; phases: Liquid
Fixed: Pressure, kPa = 101.325
Property: Kinematic viscosity, m2/s (Liquid); method: Surface laser light scattering (SLLS)
Temperature, K	Kinematic viscosity, m2/s	uncertainty
323.14	2.6319e-06	8.85e-08
348.16	1.8967e-06	7.85e-08
373.22	1.4253e-06	7.17e-08
398.24	1.1247e-06	4.31e-08
423.26	8.968e-07	3.2e-08
448.28	7.245e-07	2.52e-08

System: ethyl tetradecanoate; phases: Liquid, Gas
Property: Surface tension liquid-gas, N/m (Liquid); method: Surface laser light scattering (SLLS)
Temperature, K	Surface tension liquid-gas, N/m	uncertainty
323.14	0.02408	0.00047
348.16	0.02225	0.00052
373.22	0.02056	0.00024
398.24	0.01948	0.00018
423.26	0.01815	0.0003
448.28	0.01653	0.0001

System: dodecane; phases: Liquid
Fixed: Pressure, kPa = 101.325
Property: Mass density, kg/m3 (Liquid); method: Vibrating tube method
Temperature, K	Mass density, kg/m3	uncertainty
293.15	748.81	1.51
303.15	741.42	1.5
313.15	734.08	1.48
323.15	726.74	1.47
333.15	719.38	1.46
343.15	711.32	1.44
353.15	704.62	1.43
363.15	697.21	1.41
373.15	689.75	1.4
383.15	682.25	1.38
393.15	674.68	1.37
403.15	667.04	1.35
413.15	659.32	1.34
423.15	651.53	1.32
433.15	643.6	1.31
443.15	635.55	1.29
453.15	627.38	1.28
463.15	619.09	1.26
473.15	610.6	1.25

System: dodecane; phases: Liquid
Fixed: Pressure, kPa = 101.325
Property: Kinematic viscosity, m2/s (Liquid); method: Surface laser light scattering (SLLS)
Temperature, K	Kinematic viscosity, m2/s	uncertainty
298.16	1.7635e-06	7.1e-08
323.23	1.248e-06	4.79e-08
348.21	9.239e-07	2.96e-08
373.29	7.236e-07	3.19e-08
398.25	5.874e-07	2.16e-08
423.26	4.887e-07	1.93e-08
448.27	4.162e-07	1.81e-08

System: dodecane; phases: Liquid, Air at 1 atmosphere
Property: Surface tension liquid-gas, N/m (Liquid); method: Surface laser light scattering (SLLS)
Temperature, K	Surface tension liquid-gas, N/m	uncertainty
298.16	0.02337	0.00073
323.23	0.0219	0.00017
348.21	0.02009	0.00021
373.29	0.01802	0.00022
398.25	0.0161	0.00016
423.26	0.01425	0.00011
448.27	0.01232	9e-05
