Measured thermophysical data. Isobaric heat capacity of nanostructured liquids with potential use as lubricants
Source: J. Chem. Thermodyn., 2018, 10.1016/j.jct.2018.03.031
Compound 1: 1-butyl-2,3-dimethyl-1H-imidazolium trifluorotris(perfluoroethyl)phosphate(V), C15H17F18N2P, InChI=1S/C9H17N2.C6F18P/c1-4-5-6-11-8-7-10(3)9(11)2;7-1(8,9)4(16,17)25(22,23,24,5(18,19)2(10,11)12)6(20,21)3(13,14)15/h7-8H,4-6H2,1-3H3;/q+1;-1, purity 98%
Compound 2: 1-ethyl-3-methylimidazolium bis((trifluoromethyl)sulfonyl)imide, C8H11F6N3O4S2, InChI=1S/C6H11N2.C2F6NO4S2/c1-3-8-5-4-7(2)6-8;3-1(4,5)14(10,11)9-15(12,13)2(6,7)8/h4-6H,3H2,1-2H3;/q+1;-1, purity 98%
Compound 3: 1-butyl-2,3-dimethylimidazolium trifluoromethanesulfonate, C10H17F3N2O3S, InChI=1S/C9H17N2.CHF3O3S/c1-4-5-6-11-8-7-10(3)9(11)2;2-1(3,4)8(5,6)7/h7-8H,4-6H2,1-3H3;(H,5,6,7)/q+1;/p-1, purity 98%
Compound 4: 3-ethyl-1-methyl-1H-imidazolium hexyl sulfate, C12H24N2O4S, InChI=1S/C6H11N2.C6H14O4S/c1-3-8-5-4-7(2)6-8;1-2-3-4-5-6-10-11(7,8)9/h4-6H,3H2,1-2H3;2-6H2,1H3,(H,7,8,9)/q+1;/p-1, purity 98.4%
Compound 5: 1-(2-methoxyethyl)-1-methylpyrrolidinium tris(pentafluoroethyl)trifluorophosphate, C14H18F18NOP, InChI=1S/C8H18NO.C6F18P/c1-9(7-8-10-2)5-3-4-6-9;7-1(8,9)4(16,17)25(22,23,24,5(18,19)2(10,11)12)6(20,21)3(13,14)15/h3-8H2,1-2H3;/q+1;-1, purity 99%
Compound 6: 1-(2-methoxyethyl)-1-methylpyrrolidinium bis((trifluoromethyl)sulfonyl)amide, C10H18F6N2O5S2, InChI=1S/C8H18NO.C2F6NO4S2/c1-9(7-8-10-2)5-3-4-6-9;3-1(4,5)14(10,11)9-15(12,13)2(6,7)8/h3-8H2,1-2H3;/q+1;-1, purity 99.3%
Compound 7: 1-butyl-1-methylpyrrolidinium trifluoromethanesulfonate, C10H20F3NO3S, InChI=1S/C9H20N.CHF3O3S/c1-3-4-7-10(2)8-5-6-9-10;2-1(3,4)8(5,6)7/h3-9H2,1-2H3;(H,5,6,7)/q+1;/p-1, purity 98%
Compound 8: tetrabutylphosphonium tris(pentafluoroethyl)trifluorophosphate, C22H36F18P2, InChI=1S/C16H36P.C6F18P/c1-5-9-13-17(14-10-6-2,15-11-7-3)16-12-8-4;7-1(8,9)4(16,17)25(22,23,24,5(18,19)2(10,11)12)6(20,21)3(13,14)15/h5-16H2,1-4H3;/q+1;-1, purity 98%
Compound 9: butan-1-ol, C4H10O, InChI=1S/C4H10O/c1-2-3-4-5/h5H,2-4H2,1H3, purity 99.8%

System: 1-butyl-2,3-dimethyl-1H-imidazolium trifluorotris(perfluoroethyl)phosphate(V); phases: Liquid
Fixed: Pressure, kPa = 101.325
Property: Molar heat capacity at constant pressure, J/K/mol (Liquid); method: Large sample (1 g) DSC
Temperature, K	Molar heat capacity at constant pressure, J/K/mol	uncertainty
283.15	748.2	18.3
288.15	753.1	18.4
293.15	759.3	18.6
298.15	764.6	18.7
303.15	770.2	18.9
308.15	775.3	19
313.15	779.2	19.1
318.15	783	19.2
323.15	786.3	19.3
328.15	791.4	19.4
333.15	794.5	19.5
338.15	799.6	19.6

System: 1-ethyl-3-methylimidazolium bis((trifluoromethyl)sulfonyl)imide; phases: Liquid
Fixed: Pressure, kPa = 101.325
Property: Molar heat capacity at constant pressure, J/K/mol (Liquid); method: Large sample (1 g) DSC
Temperature, K	Molar heat capacity at constant pressure, J/K/mol	uncertainty
283.15	521	12.8
288.15	522.6	12.8
293.15	524.2	12.8
298.15	526.4	12.9
303.15	528.5	12.9
308.15	530.7	13
313.15	532.5	13
318.15	534.8	13.1
323.15	536.3	13.1
328.15	538.9	13.2
333.15	540.2	13.2
338.15	541.7	13.3

System: 1-butyl-2,3-dimethylimidazolium trifluoromethanesulfonate; phases: Crystal 2, Crystal 1, Air at 1 atmosphere
Property: Triple point temperature, K (Crystal 2); method: DSC
Triple point temperature, K	uncertainty
307.45	0.8

System: 1-butyl-2,3-dimethylimidazolium trifluoromethanesulfonate; phases: Crystal 1, Liquid, Air at 1 atmosphere
Property: Triple point temperature, K (Crystal 1); method: DSC
Triple point temperature, K	uncertainty
315.25	0.8

System: 1-butyl-2,3-dimethylimidazolium trifluoromethanesulfonate; phases: Crystal 2, Crystal 1, Air at 1 atmosphere
Property: Triple point temperature, K (Crystal 2); method: DSC
Triple point temperature, K	uncertainty
306.15	1

System: 1-butyl-2,3-dimethylimidazolium trifluoromethanesulfonate; phases: Crystal 1, Liquid, Air at 1 atmosphere
Property: Triple point temperature, K (Crystal 1); method: DSC
Triple point temperature, K	uncertainty
316.15	1

System: 1-butyl-2,3-dimethylimidazolium trifluoromethanesulfonate; phases: Crystal 2, Crystal 1, Liquid
Property: Molar enthalpy of transition or fusion, kJ/mol (Crystal 2); method: DSC
Molar enthalpy of transition or fusion, kJ/mol	uncertainty
5.4	0.9

System: 1-butyl-2,3-dimethylimidazolium trifluoromethanesulfonate; phases: Crystal 1, Liquid, Air at 1 atmosphere
Property: Molar enthalpy of transition or fusion, kJ/mol (Crystal 1); method: DSC
Molar enthalpy of transition or fusion, kJ/mol	uncertainty
15	1

System: 1-butyl-2,3-dimethylimidazolium trifluoromethanesulfonate; phases: Crystal 2, Crystal 1, Liquid
Property: Molar enthalpy of transition or fusion, kJ/mol (Crystal 2); method: DSC
Molar enthalpy of transition or fusion, kJ/mol	uncertainty
7.1	0.3

System: 1-butyl-2,3-dimethylimidazolium trifluoromethanesulfonate; phases: Crystal 1, Liquid, Air at 1 atmosphere
Property: Molar enthalpy of transition or fusion, kJ/mol (Crystal 1); method: DSC
Molar enthalpy of transition or fusion, kJ/mol	uncertainty
15	0.5

System: 1-butyl-2,3-dimethylimidazolium trifluoromethanesulfonate; phases: Liquid
Fixed: Pressure, kPa = 101.325
Property: Molar heat capacity at constant pressure, J/K/mol (Liquid); method: Large sample (1 g) DSC
Temperature, K	Molar heat capacity at constant pressure, J/K/mol	uncertainty
323.15	472.2	11.6
328.15	474.3	11.6
333.15	475.2	11.6
338.15	478.7	11.7

System: 1-butyl-2,3-dimethylimidazolium trifluoromethanesulfonate; phases: Crystal 2
Fixed: Pressure, kPa = 101.325
Property: Molar heat capacity at constant pressure, J/K/mol (Crystal 2); method: Large sample (1 g) DSC
Temperature, K	Molar heat capacity at constant pressure, J/K/mol	uncertainty
283.15	381.1	9.4
288.15	394.6	9.7
293.15	407.1	10

System: 3-ethyl-1-methyl-1H-imidazolium hexyl sulfate; phases: Liquid
Fixed: Pressure, kPa = 101.325
Property: Molar heat capacity at constant pressure, J/K/mol (Liquid); method: Large sample (1 g) DSC
Temperature, K	Molar heat capacity at constant pressure, J/K/mol	uncertainty
283.15	505.2	12.4
288.15	508.3	12.5
293.15	509.1	12.5
298.15	513.9	12.6
303.15	517.4	12.7
308.15	520.2	12.7
313.15	523.1	12.8
318.15	526	12.9
323.15	528.4	12.9
328.15	531.5	13
333.15	534	13.1
338.15	537.6	13.2

System: 1-(2-methoxyethyl)-1-methylpyrrolidinium tris(pentafluoroethyl)trifluorophosphate; phases: Liquid
Fixed: Pressure, kPa = 101.325
Property: Molar heat capacity at constant pressure, J/K/mol (Liquid); method: Large sample (1 g) DSC
Temperature, K	Molar heat capacity at constant pressure, J/K/mol	uncertainty
283.15	719.4	17.6
288.15	724.1	17.7
293.15	728.7	17.9
298.15	732.6	17.9
303.15	736.5	18
308.15	740.3	18.1
313.15	746	18.3
318.15	749.9	18.4
323.15	754	18.5
328.15	759.3	18.6
333.15	762.6	18.7
338.15	769.1	18.8

System: 1-(2-methoxyethyl)-1-methylpyrrolidinium bis((trifluoromethyl)sulfonyl)amide; phases: Liquid
Fixed: Pressure, kPa = 101.325
Property: Molar heat capacity at constant pressure, J/K/mol (Liquid); method: Large sample (1 g) DSC
Temperature, K	Molar heat capacity at constant pressure, J/K/mol	uncertainty
283.15	575.3	14.1
288.15	578.9	14.2
293.15	580.3	14.2
298.15	582.3	14.3
303.15	584.7	14.3
308.15	586.5	14.4
313.15	588.9	14.4
318.15	591.3	14.5
323.15	593.2	14.5
328.15	596.3	14.6
333.15	597.5	14.6
338.15	602.6	14.8

System: 1-butyl-1-methylpyrrolidinium trifluoromethanesulfonate; phases: Liquid
Fixed: Pressure, kPa = 101.325
Property: Molar heat capacity at constant pressure, J/K/mol (Liquid); method: Large sample (1 g) DSC
Temperature, K	Molar heat capacity at constant pressure, J/K/mol	uncertainty
283.15	436.5	10.7
288.15	438.3	10.7
293.15	439.9	10.8
298.15	442.7	10.8
303.15	445.3	10.9
308.15	447.8	11
313.15	452.2	11.1
318.15	455.3	11.2
323.15	457.2	11.2
328.15	460	11.3
333.15	461.9	11.3
338.15	464.6	11.4

System: tetrabutylphosphonium tris(pentafluoroethyl)trifluorophosphate; phases: Crystal 2, Crystal 1, Air at 1 atmosphere
Property: Triple point temperature, K (Crystal 2); method: DSC
Triple point temperature, K	uncertainty
313.75	0.8

System: tetrabutylphosphonium tris(pentafluoroethyl)trifluorophosphate; phases: Crystal 2, Crystal 1, Air at 1 atmosphere
Property: Triple point temperature, K (Crystal 2); method: DSC
Triple point temperature, K	uncertainty
313.15	1

System: tetrabutylphosphonium tris(pentafluoroethyl)trifluorophosphate; phases: Crystal 1, Liquid, Air at 1 atmosphere
Property: Triple point temperature, K (Crystal 1); method: DSC
Triple point temperature, K	uncertainty
342.15	1

System: tetrabutylphosphonium tris(pentafluoroethyl)trifluorophosphate; phases: Crystal 2, Crystal 1, Air at 1 atmosphere
Property: Molar enthalpy of transition or fusion, kJ/mol (Crystal 2); method: DSC
Molar enthalpy of transition or fusion, kJ/mol	uncertainty
8.9	0.3

System: tetrabutylphosphonium tris(pentafluoroethyl)trifluorophosphate; phases: Crystal 1, Liquid, Air at 1 atmosphere
Property: Molar enthalpy of transition or fusion, kJ/mol (Crystal 1); method: DSC
Molar enthalpy of transition or fusion, kJ/mol	uncertainty
7.8	0.3

System: tetrabutylphosphonium tris(pentafluoroethyl)trifluorophosphate; phases: Crystal 2, Crystal 1, Air at 1 atmosphere
Property: Molar enthalpy of transition or fusion, kJ/mol (Crystal 2); method: DSC
Molar enthalpy of transition or fusion, kJ/mol	uncertainty
8.7	0.3

System: tetrabutylphosphonium tris(pentafluoroethyl)trifluorophosphate; phases: Crystal 1
Fixed: Pressure, kPa = 101.325
Property: Molar heat capacity at constant pressure, J/K/mol (Crystal 1); method: Large sample (1 g) DSC
Temperature, K	Molar heat capacity at constant pressure, J/K/mol	uncertainty
323.15	1029.4	25.2
328.15	1049.8	25.7

System: tetrabutylphosphonium tris(pentafluoroethyl)trifluorophosphate; phases: Crystal 2
Fixed: Pressure, kPa = 101.325
Property: Molar heat capacity at constant pressure, J/K/mol (Crystal 2); method: Large sample (1 g) DSC
Temperature, K	Molar heat capacity at constant pressure, J/K/mol	uncertainty
283.15	971	23.8
288.15	981.2	24
293.15	990.3	24.3
298.15	1003.2	24.6
303.15	1018.4	25

System: butan-1-ol; phases: Liquid
Fixed: Pressure, kPa = 101.325
Property: Molar heat capacity at constant pressure, J/K/mol (Liquid); method: Large sample (1 g) DSC
Temperature, K	Molar heat capacity at constant pressure, J/K/mol	uncertainty
283.15	168	4.1
288.15	171	4.2
293.15	174.1	4.3
298.15	177.9	4.4
303.15	181.1	4.4
308.15	184.5	4.5
313.15	187.8	4.6
318.15	191.4	4.7
323.15	196	4.8
328.15	200.1	4.9
333.15	204.1	5
338.15	208.4	5.1
