Measured thermophysical data. Excess enthalpies of binary mixtures of 1-hexene with some branched alkanes at the temperature 298.15 K
Source: J. Chem. Thermodyn., 2004, 10.1016/j.jct.2003.09.004
Compound 1: hex-1-ene, C6H12, InChI=1S/C6H12/c1-3-5-6-4-2/h3H,1,4-6H2,2H3, purity 99%
Compound 2: 2-methylpentane, C6H14, InChI=1S/C6H14/c1-4-5-6(2)3/h6H,4-5H2,1-3H3, purity 99%
Compound 3: 3-methylpentane, C6H14, InChI=1S/C6H14/c1-4-6(3)5-2/h6H,4-5H2,1-3H3, purity 99%
Compound 4: 2,2-dimethylbutane, C6H14, InChI=1S/C6H14/c1-5-6(2,3)4/h5H2,1-4H3, purity 99%
Compound 5: 2,3-dimethylbutane, C6H14, InChI=1S/C6H14/c1-5(2)6(3)4/h5-6H,1-4H3, purity 99%
Compound 6: 2,2,4-trimethylpentane, C8H18, InChI=1S/C8H18/c1-7(2)6-8(3,4)5/h7H,6H2,1-5H3, purity 99%

System: hex-1-ene; phases: Liquid
Property: Mass density, kg/m3 (Liquid); method: VIBTUB:UFactor:4
Temperature, K	Pressure, kPa	Mass density, kg/m3	uncertainty
298.15	101.325	668.73	0.91

System: 2-methylpentane; phases: Liquid
Property: Mass density, kg/m3 (Liquid); method: VIBTUB:UFactor:4
Temperature, K	Pressure, kPa	Mass density, kg/m3	uncertainty
298.15	101.325	650.22	0.94

System: 3-methylpentane; phases: Liquid
Property: Mass density, kg/m3 (Liquid); method: VIBTUB:UFactor:4
Temperature, K	Pressure, kPa	Mass density, kg/m3	uncertainty
298.15	101.325	659.94	0.92

System: 2,2-dimethylbutane; phases: Liquid
Property: Mass density, kg/m3 (Liquid); method: VIBTUB:UFactor:4
Temperature, K	Pressure, kPa	Mass density, kg/m3	uncertainty
298.15	101.325	644.92	0.95

System: 2,3-dimethylbutane; phases: Liquid
Property: Mass density, kg/m3 (Liquid); method: VIBTUB:UFactor:4
Temperature, K	Pressure, kPa	Mass density, kg/m3	uncertainty
298.15	101.325	662.36	3.08

System: 2,2,4-trimethylpentane; phases: Liquid
Property: Mass density, kg/m3 (Liquid); method: Vibrating tube method
Temperature, K	Pressure, kPa	Mass density, kg/m3	uncertainty
298.15	101.325	688.03	0.4

System: 3-methylpentane + hex-1-ene; phases: Liquid
Fixed: Temperature, K = 298.15
Fixed: Pressure, kPa = 101.325
Property: Excess molar enthalpy (molar enthalpy of mixing), kJ/mol (Liquid); method: Flow calorimetry
Mole fraction of hex-1-ene	Excess molar enthalpy (molar enthalpy of mixing), kJ/mol	uncertainty
0.0501	0.01019	0.00086
0.1001	0.01998	0.00094
0.1533	0.02873	0.00101
0.2001	0.03525	0.00105
0.2501	0.04128	0.0011
0.3	0.04631	0.00114
0.3495	0.04997	0.00117
0.3995	0.05267	0.00119
0.45	0.05422	0.0012
0.4995	0.05488	0.0012
0.5498	0.05415	0.0012
0.5997	0.05241	0.00119
0.6501	0.04965	0.00116
0.6994	0.04566	0.00113
0.7509	0.04066	0.0011
0.7999	0.0351	0.00105
0.85	0.02758	0.001
0.9	0.01904	0.00093
0.95	0.00983	0.00086

System: 2,2-dimethylbutane + hex-1-ene; phases: Liquid
Fixed: Temperature, K = 298.15
Fixed: Pressure, kPa = 101.325
Property: Excess molar enthalpy (molar enthalpy of mixing), kJ/mol (Liquid); method: Flow calorimetry
Mole fraction of hex-1-ene	Excess molar enthalpy (molar enthalpy of mixing), kJ/mol	uncertainty
0.05	0.01197	0.00088
0.1	0.02344	0.00097
0.1576	0.0347	0.00105
0.2005	0.04182	0.00111
0.2501	0.0485	0.00116
0.3002	0.05403	0.0012
0.3501	0.05793	0.00123
0.4002	0.06049	0.00125
0.4507	0.06246	0.00126
0.4999	0.06237	0.00126
0.5498	0.06164	0.00126
0.5996	0.05952	0.00124
0.6496	0.05625	0.00122
0.7	0.05189	0.00118
0.7501	0.04558	0.00113
0.7999	0.04069	0.0011
0.85	0.0334	0.00104
0.9	0.02194	0.00096
0.95	0.01139	0.00087

System: 2,3-dimethylbutane + hex-1-ene; phases: Liquid
Fixed: Temperature, K = 298.15
Fixed: Pressure, kPa = 101.325
Property: Excess molar enthalpy (molar enthalpy of mixing), kJ/mol (Liquid); method: Flow calorimetry
Mole fraction of hex-1-ene	Excess molar enthalpy (molar enthalpy of mixing), kJ/mol	uncertainty
0.05	0.01494	0.00091
0.1001	0.02883	0.00101
0.1535	0.04224	0.00111
0.2	0.05209	0.00119
0.2508	0.06137	0.00126
0.2997	0.06799	0.00131
0.3499	0.07338	0.00135
0.3997	0.07765	0.00138
0.4498	0.07952	0.00139
0.4998	0.07919	0.00139
0.5498	0.07803	0.00138
0.5996	0.0749	0.00136
0.6497	0.0706	0.00133
0.6997	0.06459	0.00128
0.7498	0.0568	0.00122
0.8001	0.04891	0.00116
0.8501	0.03866	0.00108
0.9	0.02672	0.00099
0.9499	0.01388	0.0009

System: 2-methylpentane + hex-1-ene; phases: Liquid
Fixed: Temperature, K = 298.15
Fixed: Pressure, kPa = 101.325
Property: Excess molar enthalpy (molar enthalpy of mixing), kJ/mol (Liquid); method: Flow calorimetry
Mole fraction of hex-1-ene	Excess molar enthalpy (molar enthalpy of mixing), kJ/mol	uncertainty
0.0501	0.01072	0.00087
0.1	0.02074	0.00095
0.1504	0.03015	0.00102
0.2	0.03783	0.00107
0.2499	0.04435	0.00112
0.3001	0.04965	0.00116
0.3495	0.05344	0.00119
0.4001	0.05655	0.00122
0.4498	0.058	0.00123
0.4997	0.05867	0.00123
0.5501	0.05819	0.00123
0.6	0.05643	0.00122
0.6501	0.0534	0.00119
0.6993	0.04954	0.00116
0.7503	0.04364	0.00112
0.8001	0.03926	0.00109
0.8575	0.0288	0.00101
0.9	0.02145	0.00095
0.95	0.01125	0.00087

System: 2,2,4-trimethylpentane + hex-1-ene; phases: Liquid
Fixed: Temperature, K = 298.15
Fixed: Pressure, kPa = 101.325
Property: Excess molar enthalpy (molar enthalpy of mixing), kJ/mol (Liquid); method: Flow calorimetry
Mole fraction of hex-1-ene	Excess molar enthalpy (molar enthalpy of mixing), kJ/mol	uncertainty
0.0501	0.01006	0.00086
0.1001	0.01876	0.00093
0.1501	0.02708	0.00099
0.2075	0.03502	0.00105
0.2499	0.04048	0.00109
0.2998	0.04545	0.00113
0.35	0.04987	0.00117
0.3998	0.05337	0.00119
0.4498	0.05434	0.0012
0.4998	0.0559	0.00121
0.5497	0.05589	0.00121
0.5997	0.05475	0.0012
0.6499	0.05246	0.00119
0.6997	0.04886	0.00116
0.75	0.04398	0.00112
0.7994	0.03786	0.00107
0.8498	0.03096	0.00102
0.9	0.02192	0.00095
0.95	0.01143	0.00088
