Measured thermophysical data. (Vapor + liquid + liquid) equilibrium measurements and correlation for {1,1,2,2-tetrafluoroethane (R134) + isobutane (R600a)} system
Source: J. Chem. Thermodyn., 2014, 10.1016/j.jct.2014.06.010
Compound 1: 1,1,2,2-tetrafluoroethane, C2H2F4, InChI=1S/C2H2F4/c3-1(4)2(5)6/h1-2H, purity 99.5%
Compound 2: 2-methylpropane, C4H10, InChI=1S/C4H10/c1-4(2)3/h4H,1-3H3, purity 99.99%

System: 2-methylpropane + 1,1,2,2-tetrafluoroethane; phases: Liquid mixture 1, Liquid mixture 2, Gas
Property: Upper consolute temperature, K (Liquid mixture 1); method: Derived from LLE data
Upper consolute temperature, K	uncertainty
241.737	0.1

System: 2-methylpropane + 1,1,2,2-tetrafluoroethane; phases: Liquid mixture 1, Liquid mixture 2, Gas
Property: Upper consolute composition: mole fraction of 1,1,2,2-tetrafluoroethane (Liquid mixture 1); method: Derived from LLE data
Upper consolute composition: mole fraction of 1,1,2,2-tetrafluoroethane	uncertainty
0.574	0.042

System: 2-methylpropane + 1,1,2,2-tetrafluoroethane; phases: Liquid mixture 1, Liquid mixture 2, Gas
Property: Upper consolute pressure, kPa (Liquid mixture 1); method: Derived from LLE data
Upper consolute pressure, kPa	uncertainty
91.21	7.07

System: 2-methylpropane + 1,1,2,2-tetrafluoroethane; phases: Liquid mixture 1, Liquid mixture 2, Gas
Property: Vapor or sublimation pressure, kPa (Liquid mixture 1); method: Closed cell (Static) method
Temperature, K	Vapor or sublimation pressure, kPa	uncertainty
235.437	67.66	1.02
236.057	69.77	1.02
236.476	71.12	1.02
237.054	73.23	1.03
237.467	74.64	1.03
238.43	78.24	1.03
239.472	82.06	1.03
240.229	85.01	1.04
240.945	87.89	1.04
241.147	88.74	1.04
241.337	89.53	1.04
241.417	89.86	1.04
241.483	90.12	1.04
241.54	90.35	1.04
241.578	90.51	1.04
241.617	90.66	1.04
241.638	90.75	1.04
241.67	90.9	1.04
241.689	91.01	1.04
241.72	91.09	1.04
241.72	91.09	1.04
241.702	91.03	1.04
241.678	90.92	1.04
241.646	90.79	1.04
241.618	90.67	1.04
241.608	90.63	1.04
241.582	90.62	1.04
241.512	90.35	1.04
241.47	90.15	1.04
241.393	89.89	1.04
241.195	89.08	1.04
240.8	87.54	1.04
240.406	85.98	1.03
240.3	85.68	1.03
239.302	81.48	1.03
238.306	77.59	1.03
237.3	74.02	1.03
235.311	67.16	1.02

System: 2-methylpropane + 1,1,2,2-tetrafluoroethane; phases: Liquid mixture 1, Liquid mixture 2, Gas
Property: Mole fraction of 1,1,2,2-tetrafluoroethane (Liquid mixture 1); method: Chromatography
Temperature, K	Mole fraction of 1,1,2,2-tetrafluoroethane	uncertainty
235.437	0.2652	0.0102
236.057	0.2786	0.0102
236.476	0.2844	0.0102
237.054	0.2941	0.0102
237.467	0.302	0.0102
238.43	0.3262	0.0103
239.472	0.3516	0.0103
240.229	0.384	0.0104
240.945	0.4216	0.0104
241.147	0.433	0.0105
241.337	0.4556	0.0105
241.417	0.4635	0.0105
241.483	0.4757	0.0106
241.54	0.4777	0.0106
241.578	0.4892	0.0106
241.617	0.4969	0.0106
241.638	0.5026	0.0106
241.67	0.514	0.0106
241.689	0.5326	0.0105
241.72	0.5614	0.0105
241.72	0.578	0.0104
241.702	0.6081	0.0104
241.678	0.623	0.0103
241.646	0.6388	0.0103
241.618	0.6453	0.0103
241.608	0.6511	0.0103
241.582	0.661	0.0103
241.512	0.6638	0.0103
241.47	0.679	0.0103
241.393	0.6836	0.0102
241.195	0.7074	0.0102
240.8	0.7264	0.0102
240.406	0.7422	0.0102
240.3	0.7456	0.0102
239.302	0.7753	0.0101
238.306	0.7966	0.0101
237.3	0.8138	0.0101
235.311	0.8439	0.0101

System: 2-methylpropane + 1,1,2,2-tetrafluoroethane; phases: Gas, Liquid mixture 1, Liquid mixture 2
Property: Mole fraction of 1,1,2,2-tetrafluoroethane (Gas); method: Chromatography
Temperature, K	Mole fraction of 1,1,2,2-tetrafluoroethane	uncertainty
235.31	0.5716	0.0104
237.297	0.5744	0.0104
238.306	0.5744	0.0104
239.3	0.5752	0.0104
240.303	0.5792	0.0104
240.406	0.5784	0.0105
240.42	0.577	0.0105
241.19	0.5812	0.0104
241.391	0.5801	0.0104
241.5	0.5802	0.0104
241.518	0.5798	0.0104
241.587	0.5805	0.0104
241.617	0.5786	0.0104
241.647	0.5801	0.0104
241.66	0.5809	0.0104
241.674	0.5818	0.0104
241.695	0.5805	0.0104
241.702	0.5813	0.0104
241.72	0.5818	0.0104

System: 2-methylpropane + 1,1,2,2-tetrafluoroethane; phases: Liquid mixture 1, Liquid mixture 2, Gas
Property: Vapor or sublimation pressure, kPa (Liquid mixture 1); method: Closed cell (Static) method
Temperature, K	Vapor or sublimation pressure, kPa	uncertainty
235.31	67.15	1.02
237.297	74.01	1.03
238.306	77.68	1.03
239.3	81.48	1.03
240.303	85.7	1.03
240.406	85.99	1.04
240.42	86.08	1.04
241.19	89.04	1.04
241.391	89.89	1.04
241.5	90.22	1.04
241.518	90.3	1.04
241.587	90.63	1.04
241.617	90.66	1.04
241.647	90.79	1.04
241.66	90.86	1.04
241.674	90.92	1.04
241.695	91	1.04
241.702	91.03	1.04
241.72	91.1	1.04
