Measured thermophysical data. Partial molar volumes and viscosity B-coefficients of arginine in aqueous glucose, sucrose and L-ascorbic acid solutions at T = 298.15 K
Source: J. Chem. Thermodyn., 2005, 10.1016/j.jct.2004.07.030
Compound 1: L-arginine, C6H14N4O2, InChI=1S/C6H14N4O2/c7-4(5(11)12)2-1-3-10-6(8)9/h4H,1-3,7H2,(H,11,12)(H4,8,9,10)/t4-/m0/s1, purity 99.9%
Compound 2: D-sucrose, C12H22O11, InChI=1S/C12H22O11/c13-1-4-6(16)8(18)9(19)11(21-4)23-12(3-15)10(20)7(17)5(2-14)22-12/h4-11,13-20H,1-3H2/t4-,5-,6-,7-,8+,9-,10+,11-,12+/m1/s1, purity 99.9%
Compound 3: D-glucose, C6H12O6, InChI=1S/C6H12O6/c7-1-3(9)5(11)6(12)4(10)2-8/h1,3-6,8-12H,2H2/t3-,4+,5+,6+/m0/s1, purity 99.9%
Compound 4: L-ascorbic acid, C6H8O6, InChI=1S/C6H8O6/c7-1-2(8)5-3(9)4(10)6(11)12-5/h2,5,7-10H,1H2/t2-,5+/m0/s1, purity 99.7%
Compound 5: water, H2O, InChI=1S/H2O/h1H2

System: D-glucose + L-arginine + water; phases: Liquid
Fixed: Temperature, K = 298.15
Fixed: Pressure, kPa = 101
Property: Mass density, kg/m3 (Liquid); method: VIBTUB:UFactor:4
Solvent: Mass fraction of D-glucose	Molality, mol/kg of L-arginine	Mass density, kg/m3	uncertainty
0	0	997.01	0.14
0	0.02987	998.54	0.14
0	0.05962	1000.06	0.14
0	0.1043	1002.33	0.14
0	0.1496	1004.61	0.15
0	0.2003	1007.15	0.15
0	0.2498	1009.59	0.15
0	0.2996	1012.03	0.16
0.05	0	1014.8	0.16
0.05	0.02997	1016.28	0.16
0.05	0.06088	1017.8	0.16
0.05	0.09957	1019.69	0.17
0.05	0.1518	1022.21	0.17
0.05	0.2025	1024.63	0.17
0.05	0.2497	1026.96	0.18
0.05	0.3036	1029.51	0.18
0.1	0	1033.2	0.19
0.1	0.0302	1034.64	0.19
0.1	0.06019	1036.07	0.19
0.1	0.1001	1037.95	0.19
0.1	0.1498	1040.27	0.2
0.1	0.2002	1042.61	0.2
0.1	0.2502	1044.92	0.21
0.1	0.2972	1047.13	0.22
0.15	0	1052.43	0.22
0.15	0.02975	1053.79	0.22
0.15	0.06028	1055.19	0.22
0.15	0.1011	1057.06	0.22
0.15	0.1502	1059.27	0.23
0.15	0.1988	1061.44	0.23
0.15	0.2512	1063.76	0.23
0.15	0.3216	1066.95	0.24
0.2	0	1079.89	0.26
0.2	0.02991	1081.16	0.26
0.2	0.06024	1082.44	0.26
0.2	0.1003	1084.13	0.26
0.2	0.1498	1086.19	0.27
0.2	0.1999	1088.26	0.27
0.2	0.2384	1089.84	0.27
0.2	0.2999	1092.46	0.28
0.25	0	1113.91	0.31
0.25	0.02967	1115.04	0.31
0.25	0.06191	1116.26	0.31
0.25	0.09994	1117.69	0.32
0.25	0.1501	1119.58	0.32
0.25	0.2005	1121.45	0.32
0.25	0.2491	1123.27	0.32
0.25	0.2961	1125.16	0.33

System: D-glucose + L-arginine + water; phases: Liquid
Fixed: Pressure, kPa = 101
Fixed: Temperature, K = 298.15
Property: Viscosity, Pa*s (Liquid); method: CAPTUB:UFactor:3
Solvent: Mass fraction of D-glucose	Molality, mol/kg of L-arginine	Viscosity, Pa*s	uncertainty
0	0	0.0008937	2.17e-05
0	0.2987	0.0008987	2.18e-05
0	0.5962	0.0009042	2.19e-05
0	1.043	0.0009105	2.2e-05
0	1.496	0.0009317	2.25e-05
0	2.003	0.0009606	2.31e-05
0	2.498	0.0009841	2.36e-05
0	2.996	0.0010174	2.43e-05
0.05	0	0.0009771	2.34e-05
0.05	0.2997	0.0009915	2.37e-05
0.05	0.6088	0.0010183	2.43e-05
0.05	0.9957	0.0010264	2.44e-05
0.05	1.518	0.0010659	2.53e-05
0.05	2.025	0.0010845	2.56e-05
0.05	2.497	0.0011158	2.63e-05
0.05	3.036	0.0011612	2.72e-05
0.1	0	0.0011167	2.63e-05
0.1	0.302	0.0011316	2.66e-05
0.1	0.6019	0.0011722	2.75e-05
0.1	1.001	0.0011935	2.79e-05
0.1	1.498	0.0012064	2.82e-05
0.1	2.002	0.0012614	2.93e-05
0.1	2.502	0.0013064	3.02e-05
0.1	2.972	0.0013467	3.11e-05
0.15	0	0.0013157	3.04e-05
0.15	0.2975	0.0013321	3.08e-05
0.15	0.6028	0.0013655	3.15e-05
0.15	1.011	0.0013963	3.21e-05
0.15	1.502	0.0014448	3.31e-05
0.15	1.988	0.0015003	3.43e-05
0.15	2.512	0.0015397	3.51e-05
0.15	3.216	0.0016212	3.68e-05
0.2	0	0.0016697	3.78e-05
0.2	0.2991	0.0017072	3.86e-05
0.2	0.6024	0.0017453	3.94e-05
0.2	1.003	0.0017956	4.04e-05
0.2	1.498	0.0018577	4.17e-05
0.2	1.999	0.0019206	4.3e-05
0.2	2.384	0.0019689	4.4e-05
0.2	2.999	0.0020461	4.56e-05
0.25	0	0.0023064	5.09e-05
0.25	0.2967	0.0023605	5.2e-05
0.25	0.6191	0.0024194	5.32e-05
0.25	0.9994	0.0024888	5.47e-05
0.25	1.501	0.0025803	5.65e-05
0.25	2.005	0.0026723	5.84e-05
0.25	2.491	0.0027612	6.02e-05
0.25	2.961	0.0028467	6.2e-05

System: D-sucrose + L-arginine + water; phases: Liquid
Fixed: Pressure, kPa = 101
Fixed: Temperature, K = 298.15
Property: Mass density, kg/m3 (Liquid); method: VIBTUB:UFactor:4
Solvent: Mass fraction of D-sucrose	Molality, mol/kg of L-arginine	Mass density, kg/m3	uncertainty
0	0	997.01	0.14
0	0.02987	998.54	0.14
0	0.05962	1000.06	0.14
0	0.1043	1002.33	0.14
0	0.1496	1004.61	0.15
0	0.2003	1007.15	0.15
0	0.2498	1009.59	0.15
0	0.2996	1012.03	0.16
0.05	0	1017.14	0.16
0.05	0.03219	1018.69	0.17
0.05	0.05952	1020	0.17
0.05	0.1014	1021.99	0.17
0.05	0.1509	1024.35	0.17
0.05	0.1996	1026.63	0.18
0.05	0.2488	1029.03	0.18
0.05	0.2972	1031.31	0.19
0.1	0	1037.48	0.19
0.1	0.03093	1038.91	0.2
0.1	0.05969	1040.24	0.2
0.1	0.09954	1042.07	0.2
0.1	0.1495	1044.35	0.2
0.1	0.2007	1046.66	0.21
0.1	0.2501	1049	0.21
0.1	0.3015	1051.34	0.22
0.15	0	1058.48	0.22
0.15	0.0296	1059.78	0.23
0.15	0.0598	1061.11	0.23
0.15	0.1005	1062.9	0.23
0.15	0.1473	1064.94	0.24
0.15	0.1991	1067.18	0.24
0.15	0.2518	1069.54	0.24
0.15	0.2967	1071.47	0.25
0.2	0	1080.79	0.26
0.2	0.02956	1082.01	0.26
0.2	0.06116	1083.31	0.26
0.2	0.101	1084.94	0.27
0.2	0.1496	1086.92	0.27
0.2	0.2014	1089.02	0.27
0.2	0.2494	1091.1	0.28
0.2	0.3031	1093.41	0.28
0.25	0	1103.68	0.29
0.25	0.03189	1104.91	0.3
0.25	0.0633	1106.13	0.3
0.25	0.1002	1107.55	0.3
0.25	0.1507	1109.49	0.3
0.25	0.1982	1111.3	0.31
0.25	0.2494	1113.34	0.31
0.25	0.3033	1115.48	0.31

System: D-sucrose + L-arginine + water; phases: Liquid
Fixed: Pressure, kPa = 101
Fixed: Temperature, K = 298.15
Property: Viscosity, Pa*s (Liquid); method: CAPTUB:UFactor:3
Solvent: Mass fraction of D-sucrose	Molality, mol/kg of L-arginine	Viscosity, Pa*s	uncertainty
0	0	0.0008937	2.17e-05
0	0.02987	0.0008987	2.18e-05
0	0.05962	0.0009042	2.19e-05
0	0.1043	0.0009105	2.2e-05
0	0.1496	0.0009317	2.25e-05
0	0.2003	0.0009606	2.31e-05
0	0.2498	0.0009841	2.36e-05
0	0.2996	0.0010174	2.43e-05
0.05	0	0.0010116	2.41e-05
0.05	0.03219	0.0010315	2.45e-05
0.05	0.05952	0.0010484	2.49e-05
0.05	0.1014	0.0010744	2.54e-05
0.05	0.1509	0.0011052	2.61e-05
0.05	0.1996	0.0011352	2.67e-05
0.05	0.2488	0.0011656	2.73e-05
0.05	0.2972	0.0011956	2.8e-05
0.1	0	0.0011818	2.77e-05
0.1	0.03093	0.0011925	2.79e-05
0.1	0.05969	0.0012136	2.83e-05
0.1	0.09954	0.0012462	2.9e-05
0.1	0.1495	0.0013112	3.03e-05
0.1	0.2007	0.0013544	3.12e-05
0.1	0.2501	0.0014098	3.24e-05
0.1	0.3015	0.0014378	3.3e-05
0.15	0	0.0014204	3.26e-05
0.15	0.0296	0.0014353	3.29e-05
0.15	0.0598	0.0014565	3.34e-05
0.15	0.1005	0.0015302	3.49e-05
0.15	0.1473	0.0015851	3.6e-05
0.15	0.1991	0.0016303	3.7e-05
0.15	0.2518	0.0017146	3.87e-05
0.15	0.2967	0.0017404	3.92e-05
0.2	0	0.0017563	3.96e-05
0.2	0.02956	0.0017974	4.04e-05
0.2	0.06116	0.0018414	4.13e-05
0.2	0.101	0.0018969	4.25e-05
0.2	0.1496	0.0019645	4.39e-05
0.2	0.2014	0.0020366	4.53e-05
0.2	0.2494	0.0021034	4.67e-05
0.2	0.3031	0.0021781	4.82e-05
0.25	0	0.0021503	4.77e-05
0.25	0.03189	0.0022181	4.91e-05
0.25	0.0633	0.0022664	5.01e-05
0.25	0.1002	0.0023192	5.11e-05
0.25	0.1507	0.0024286	5.34e-05
0.25	0.1982	0.0024963	5.48e-05
0.25	0.2494	0.0025662	5.62e-05
0.25	0.3033	0.0027204	5.94e-05

System: L-ascorbic acid + L-arginine + water; phases: Liquid
Fixed: Pressure, kPa = 101
Fixed: Temperature, K = 298.15
Property: Mass density, kg/m3 (Liquid); method: VIBTUB:UFactor:4
Solvent: Mass fraction of L-ascorbic acid	Molality, mol/kg of L-arginine	Mass density, kg/m3	uncertainty
0	0	997.01	0.15
0	0.02987	998.54	0.15
0	0.05962	1000.06	0.14
0	0.1043	1002.33	0.15
0	0.1496	1004.61	0.15
0	0.2003	1007.15	0.15
0	0.2498	1009.59	0.16
0	0.2996	1012.03	0.16
0.05	0	1017.66	0.17
0.05	0.03138	1019.56	0.18
0.05	0.0597	1021.27	0.18
0.05	0.09989	1023.68	0.18
0.05	0.1486	1026.59	0.19
0.05	0.2003	1029.64	0.19
0.05	0.2495	1032.52	0.19
0.05	0.2991	1035.4	0.19
0.1	0	1039.08	0.2
0.1	0.02975	1040.77	0.21
0.1	0.05907	1042.44	0.21
0.1	0.09953	1044.73	0.21
0.1	0.1503	1047.58	0.22
0.1	0.2011	1050.65	0.22
0.1	0.2511	1053.59	0.23
0.1	0.2999	1056.4	0.23
0.15	0	1061.43	0.24
0.15	0.03192	1063.17	0.24
0.15	0.05883	1064.63	0.24
0.15	0.09965	1066.86	0.25
0.15	0.1482	1069.53	0.25
0.15	0.2002	1072.46	0.25
0.15	0.2488	1075.26	0.26
0.15	0.2998	1078.01	0.26
0.2	0	1083.91	0.27
0.2	0.02878	1085.42	0.27
0.2	0.05961	1087.05	0.28
0.2	0.09931	1089.15	0.28
0.2	0.1504	1091.86	0.28
0.2	0.2023	1094.59	0.29
0.2	0.2513	1097.11	0.29
0.2	0.3006	1099.76	0.3

System: L-ascorbic acid + L-arginine + water; phases: Liquid
Fixed: Pressure, kPa = 101
Fixed: Temperature, K = 298.15
Property: Viscosity, Pa*s (Liquid); method: CAPTUB:UFactor:3
Solvent: Mass fraction of L-ascorbic acid	Molality, mol/kg of L-arginine	Viscosity, Pa*s	uncertainty
0	0	0.0008937	2.17e-05
0	0.02987	0.0008987	2.18e-05
0	0.05962	0.0009042	2.19e-05
0	0.1043	0.0009105	2.2e-05
0	0.1496	0.0009317	2.25e-05
0	0.2003	0.0009606	2.31e-05
0	0.2498	0.0009841	2.36e-05
0	0.2996	0.0010174	2.43e-05
0.05	0	0.0009687	2.33e-05
0.05	0.03138	0.0009831	2.36e-05
0.05	0.0597	0.0010028	2.4e-05
0.05	0.09989	0.0010299	2.45e-05
0.05	0.1486	0.0010597	2.51e-05
0.05	0.2003	0.0010949	2.59e-05
0.05	0.2495	0.0011234	2.65e-05
0.05	0.2991	0.0011612	2.73e-05
0.1	0	0.0010866	2.57e-05
0.1	0.02975	0.0011145	2.63e-05
0.1	0.05907	0.0011352	2.67e-05
0.1	0.09953	0.0011732	2.75e-05
0.1	0.1503	0.0012223	2.85e-05
0.1	0.2011	0.0012608	2.93e-05
0.1	0.2511	0.0012989	3.01e-05
0.1	0.2999	0.0013474	3.11e-05
0.15	0	0.0012524	2.91e-05
0.15	0.03192	0.0012881	2.99e-05
0.15	0.05883	0.0013179	3.05e-05
0.15	0.09965	0.0013634	3.14e-05
0.15	0.1482	0.0014175	3.26e-05
0.15	0.2002	0.0014754	3.38e-05
0.15	0.2488	0.0015295	3.49e-05
0.15	0.2998	0.0015863	3.61e-05
0.2	0	0.0014459	3.32e-05
0.2	0.02878	0.0014861	3.4e-05
0.2	0.05961	0.0015278	3.49e-05
0.2	0.09931	0.0015772	3.59e-05
0.2	0.1504	0.0016546	3.75e-05
0.2	0.2023	0.0017229	3.89e-05
0.2	0.2513	0.0017883	4.02e-05
0.2	0.3006	0.0018408	4.13e-05
