Measured thermophysical data. Vapour pressure and excess Gibbs free energy of binary mixtures of hydrogen sulphide with ethane, propane, and n-butane at temperature of 182.33 K
Source: J. Chem. Thermodyn., 2006, 10.1016/j.jct.2006.03.013
Compound 1: hydrogen sulfide, H2S, InChI=1S/H2S/h1H2
Compound 2: ethane, C2H6, InChI=1S/C2H6/c1-2/h1-2H3
Compound 3: propane, C3H8, InChI=1S/C3H8/c1-3-2/h3H2,1-2H3
Compound 4: butane, C4H10, InChI=1S/C4H10/c1-3-4-2/h3-4H2,1-2H3
Compound 5: nitrous oxide, N2O, InChI=1S/N2O/c1-2-3

System: hydrogen sulfide; phases: Crystal, Liquid, Gas
Property: Vapor or sublimation pressure, kPa (Crystal); method: triple-point cell with a manometer
Vapor or sublimation pressure, kPa	uncertainty
23.175	0.036

System: ethane; phases: Liquid, Gas
Property: Vapor or sublimation pressure, kPa (Liquid); method: Closed cell (Static) method
Temperature, K	Vapor or sublimation pressure, kPa	uncertainty
182.33	88.971	0.386

System: propane; phases: Liquid, Gas
Property: Vapor or sublimation pressure, kPa (Liquid); method: Closed cell (Static) method
Temperature, K	Vapor or sublimation pressure, kPa	uncertainty
182.33	6.02	0.044

System: butane; phases: Liquid, Gas
Property: Vapor or sublimation pressure, kPa (Liquid); method: Closed cell (Static) method
Temperature, K	Vapor or sublimation pressure, kPa	uncertainty
182.33	0.419	0.011

System: nitrous oxide; phases: Crystal, Liquid, Gas
Property: Vapor or sublimation pressure, kPa (Crystal); method: triple-point cell with manometer
Vapor or sublimation pressure, kPa	uncertainty
87.951	0.03

System: ethane + hydrogen sulfide; phases: Liquid, Gas
Fixed: Temperature, K = 182.33
Property: Vapor or sublimation pressure, kPa (Liquid); method: Closed cell (Static) method
Mole fraction of hydrogen sulfide	Vapor or sublimation pressure, kPa	uncertainty
0	88.971	0.386
0.0492	91.485	0.397
0.1698	92.05	0.399
0.3366	91.206	0.395
0.5945	88.58	0.385
0.7345	87.007	0.378
0.9319	71.157	0.313

System: propane + hydrogen sulfide; phases: Liquid, Gas
Fixed: Temperature, K = 182.33
Property: Vapor or sublimation pressure, kPa (Liquid); method: Closed cell (Static) method
Mole fraction of hydrogen sulfide	Vapor or sublimation pressure, kPa	uncertainty
0	6.02	0.044
0.0786	13.415	0.075
0.1903	17.39	0.091
0.3287	18.892	0.097
0.5376	19.452	0.1
0.7032	19.318	0.099
0.8346	19.185	0.099

System: butane + hydrogen sulfide; phases: Liquid, Gas
Fixed: Temperature, K = 182.33
Property: Vapor or sublimation pressure, kPa (Liquid); method: Closed cell (Static) method
Mole fraction of hydrogen sulfide	Vapor or sublimation pressure, kPa	uncertainty
0	0.419	0.011
0.0563	6.235	0.045
0.1919	12.15	0.07
0.269	13.513	0.075
0.3561	14.442	0.079
0.5976	15.037	0.082
0.6423	15.059	0.082
