Measured thermophysical data. Thermophysical properties of ionic liquid dicyanamide (DCA) nanosystems
Source: J. Chem. Thermodyn., 2014, 10.1016/j.jct.2014.05.008
Compound 1: 1-butyl-3-methylimidazolium dicyanamide, C10H15N5, InChI=1S/C8H15N2.C2N3/c1-3-4-5-10-7-6-9(2)8-10;3-1-5-2-4/h6-8H,3-5H2,1-2H3;/q+1;-1, purity 98%
Compound 2: 1-ethyl-3-methylimidazolium dicyanamide, C8H11N5, InChI=1S/C6H11N2.C2N3/c1-3-8-5-4-7(2)6-8;3-1-5-2-4/h4-6H,3H2,1-2H3;/q+1;-1, purity 98%
Compound 3: 1-butyl-1-methylpyrrolidinium dicyanamide, C11H20N4, InChI=1S/C9H20N.C2N3/c1-3-4-7-10(2)8-5-6-9-10;3-1-5-2-4/h3-9H2,1-2H3;/q+1;-1, purity 98%

System: 1-butyl-3-methylimidazolium dicyanamide; phases: Liquid
Fixed: Pressure, kPa = 101.325
Property: Thermal conductivity, W/m/K (Liquid); method: HOTW:elcondl
Temperature, K	Thermal conductivity, W/m/K	uncertainty
293.6	0.167	0.011
303.3	0.166	0.011
313.4	0.163	0.011
323.5	0.163	0.011
333.7	0.153	0.011
344.2	0.15	0.011

System: 1-butyl-3-methylimidazolium dicyanamide; phases: Liquid
Fixed: Pressure, kPa = 101.325
Property: Mass density, kg/m3 (Liquid); method: Vibrating tube method
Temperature, K	Mass density, kg/m3	uncertainty
293.2	1064.5	1
303.2	1057.5	1
313.2	1051	1
323.2	1045.1	0.9
333.2	1040.6	0.9
343.2	1035.7	0.9

System: 1-ethyl-3-methylimidazolium dicyanamide; phases: Liquid
Fixed: Pressure, kPa = 101.325
Property: Thermal conductivity, W/m/K (Liquid); method: HOTW:elcondl
Temperature, K	Thermal conductivity, W/m/K	uncertainty
293.4	0.183	0.011
303.3	0.179	0.011
313.1	0.178	0.02
323	0.181	0.02
333.2	0.17	0.02
343.4	0.165	0.02

System: 1-ethyl-3-methylimidazolium dicyanamide; phases: Liquid
Fixed: Pressure, kPa = 101.325
Property: Mass density, kg/m3 (Liquid); method: Vibrating tube method
Temperature, K	Mass density, kg/m3	uncertainty
293.2	1107.5	1.1
303.2	1100.4	1.1
313.2	1093.5	1
323.2	1087	1
333.2	1081	1
343.2	1076.1	1

System: 1-butyl-1-methylpyrrolidinium dicyanamide; phases: Liquid
Fixed: Pressure, kPa = 101.325
Property: Thermal conductivity, W/m/K (Liquid); method: HOTW:elcondl
Temperature, K	Thermal conductivity, W/m/K	uncertainty
293.5	0.155	0.011
303.2	0.155	0.011
313.3	0.153	0.011
323.3	0.151	0.011
333.2	0.147	0.011
343.4	0.142	0.02

System: 1-butyl-1-methylpyrrolidinium dicyanamide; phases: Liquid
Fixed: Pressure, kPa = 101.325
Property: Mass density, kg/m3 (Liquid); method: Vibrating tube method
Temperature, K	Mass density, kg/m3	uncertainty
293.2	1018.3	0.9
303.2	1011.8	0.9
313.2	1006.1	0.9
323.2	1000.6	0.8
333.2	995.6	0.8
343.2	991.3	0.8
