Measured thermophysical data. Density and refractive index in mixtures of ionic liquids and organic solvents: Correlations and predictions
Source: J. Chem. Thermodyn., 2008, 10.1016/j.jct.2008.01.023
Compound 1: ethanol, C2H6O, InChI=1S/C2H6O/c1-2-3/h3H,2H2,1H3, purity 99.5%
Compound 2: nitromethane, CH3NO2, InChI=1S/CH3NO2/c1-2(3)4/h1H3, purity 98.5%
Compound 3: 1,2-ethanediol, C2H6O2, InChI=1S/C2H6O2/c3-1-2-4/h3-4H,1-2H2, purity 99.8%
Compound 4: 1-butyl-3-methylimidazolium tetrafluoroborate, C8H15BF4N2, InChI=1S/C8H15N2.BF4/c1-3-4-5-10-7-6-9(2)8-10;2-1(3,4)5/h6-8H,3-5H2,1-2H3;/q+1;-1
Compound 5: 1-butyl-3-methylimidazolium methyl sulfate, C9H18N2O4S, InChI=1S/C8H15N2.CH4O4S/c1-3-4-5-10-7-6-9(2)8-10;1-5-6(2,3)4/h6-8H,3-5H2,1-2H3;1H3,(H,2,3,4)/q+1;/p-1
Compound 6: 1,3-dichloropropane, C3H6Cl2, InChI=1S/C3H6Cl2/c4-2-1-3-5/h1-3H2, purity 99%
Compound 7: 3,6-dioxa-1-octanol, C6H14O3, InChI=1S/C6H14O3/c1-2-8-5-6-9-4-3-7/h7H,2-6H2,1H3

System: ethanol; phases: Liquid
Property: Refractive index (Na D-line) (Liquid); method: Standard Abbe refractometry
Temperature, K	Pressure, kPa	Refractive index (Na D-line)	uncertainty
298.15	101.325	1.3593	0.0005

System: ethanol; phases: Liquid
Property: Mass density, kg/m3 (Liquid); method: VIBTUB:UFactor:4
Temperature, K	Pressure, kPa	Mass density, kg/m3	uncertainty
298.15	101.325	785.18	0.5

System: nitromethane; phases: Liquid
Property: Refractive index (Na D-line) (Liquid); method: Standard Abbe refractometry
Temperature, K	Pressure, kPa	Refractive index (Na D-line)	uncertainty
298.15	101.325	1.3796	0.0006

System: nitromethane; phases: Liquid
Property: Mass density, kg/m3 (Liquid); method: VIBTUB:UFactor:12
Temperature, K	Pressure, kPa	Mass density, kg/m3	uncertainty
298.15	101.325	1131.17	1.57

System: 1,2-ethanediol; phases: Liquid
Property: Refractive index (Na D-line) (Liquid); method: Standard Abbe refractometry
Temperature, K	Pressure, kPa	Refractive index (Na D-line)	uncertainty
298.15	101.325	1.4304	0.0005

System: 1,2-ethanediol; phases: Liquid
Property: Mass density, kg/m3 (Liquid); method: VIBTUB:UFactor:2
Temperature, K	Pressure, kPa	Mass density, kg/m3	uncertainty
298.15	101.325	1110.02	0.25

System: 1-butyl-3-methylimidazolium tetrafluoroborate; phases: Liquid
Property: Refractive index (Na D-line) (Liquid); method: Standard Abbe refractometry
Temperature, K	Pressure, kPa	Refractive index (Na D-line)	uncertainty
298.15	101.325	1.4219	0.0005

System: 1-butyl-3-methylimidazolium tetrafluoroborate; phases: Liquid
Property: Mass density, kg/m3 (Liquid); method: VIBTUB:UFactor:8
Temperature, K	Pressure, kPa	Mass density, kg/m3	uncertainty
298.15	101.325	1201.41	1.18

System: 1-butyl-3-methylimidazolium methyl sulfate; phases: Liquid
Property: Refractive index (Na D-line) (Liquid); method: Standard Abbe refractometry
Temperature, K	Pressure, kPa	Refractive index (Na D-line)	uncertainty
298.15	101.325	1.4794	0.0005

System: 1-butyl-3-methylimidazolium methyl sulfate; phases: Liquid
Property: Mass density, kg/m3 (Liquid); method: VIBTUB:UFactor:8
Temperature, K	Pressure, kPa	Mass density, kg/m3	uncertainty
298.15	101.325	1207.75	1.2

System: 1,3-dichloropropane; phases: Liquid
Property: Refractive index (Na D-line) (Liquid); method: Standard Abbe refractometry
Temperature, K	Pressure, kPa	Refractive index (Na D-line)	uncertainty
298.15	101.325	1.446	0.0005

System: 1,3-dichloropropane; phases: Liquid
Property: Mass density, kg/m3 (Liquid); method: VIBTUB:UFactor:6
Temperature, K	Pressure, kPa	Mass density, kg/m3	uncertainty
298.15	101.325	1179.1	0.89

System: 3,6-dioxa-1-octanol; phases: Liquid
Property: Refractive index (Na D-line) (Liquid); method: Standard Abbe refractometry
Temperature, K	Pressure, kPa	Refractive index (Na D-line)	uncertainty
298.15	101.325	1.4253	0.0005

System: 3,6-dioxa-1-octanol; phases: Liquid
Property: Mass density, kg/m3 (Liquid); method: VIBTUB:UFactor:6
Temperature, K	Pressure, kPa	Mass density, kg/m3	uncertainty
298.15	101.325	983.68	0.43

System: ethanol + 1-butyl-3-methylimidazolium tetrafluoroborate; phases: Liquid
Fixed: Temperature, K = 298.15
Fixed: Pressure, kPa = 101
Property: Refractive index (Na D-line) (Liquid); method: Standard Abbe refractometry
Mole fraction of 1-butyl-3-methylimidazolium tetrafluoroborate	Refractive index (Na D-line)	uncertainty
0.0517	1.3703	0.0005
0.0918	1.3767	0.0005
0.1995	1.3898	0.0005
0.2495	1.3943	0.0005
0.2518	1.3946	0.0005
0.3228	1.3998	0.0005
0.4219	1.4058	0.0005
0.5356	1.4105	0.0005
0.6244	1.4137	0.0005
0.709	1.4161	0.0005
0.8295	1.4188	0.0005

System: ethanol + 1-butyl-3-methylimidazolium tetrafluoroborate; phases: Liquid
Fixed: Temperature, K = 298.15
Fixed: Pressure, kPa = 101
Property: Mass density, kg/m3 (Liquid); method: VIBTUB:UFactor:1000
Mole fraction of 1-butyl-3-methylimidazolium tetrafluoroborate	Mass density, kg/m3	uncertainty
0.0517	850.45	89.53
0.0918	891.63	73.43
0.1995	976.13	40.39
0.2495	1007.41	34.18
0.2518	1042.9	48.01
0.3228	1081.97	63.15
0.4219	1117.11	76.92
0.5356	1138.94	85.49
0.6244	1156.56	92.41
0.709	1177.74	100.72
0.8295	1192.74	106.62

System: nitromethane + 1-butyl-3-methylimidazolium tetrafluoroborate; phases: Liquid
Fixed: Temperature, K = 298.15
Fixed: Pressure, kPa = 101
Property: Refractive index (Na D-line) (Liquid); method: Standard Abbe refractometry
Mole fraction of 1-butyl-3-methylimidazolium tetrafluoroborate	Refractive index (Na D-line)	uncertainty
0.0512	1.3889	0.0006
0.0991	1.3952	0.0006
0.1392	1.399	0.0006
0.2026	1.4038	0.0006
0.2986	1.4089	0.0006
0.3565	1.4112	0.0006
0.3972	1.4125	0.0006
0.4553	1.4142	0.0006
0.5231	1.4158	0.0006
0.5949	1.4172	0.0005
0.6863	1.4188	0.0005
0.8073	1.4202	0.0005
0.8634	1.4207	0.0005

System: nitromethane + 1-butyl-3-methylimidazolium tetrafluoroborate; phases: Liquid
Fixed: Temperature, K = 298.15
Fixed: Pressure, kPa = 101
Property: Mass density, kg/m3 (Liquid); method: VIBTUB:UFactor:6
Mole fraction of 1-butyl-3-methylimidazolium tetrafluoroborate	Mass density, kg/m3	uncertainty
0.0512	1148.18	1.11
0.0991	1158.64	1.12
0.1392	1165.19	1.13
0.2026	1173.12	1.13
0.2986	1181.43	1.12
0.3565	1185.14	1.11
0.3972	1187.27	1.1
0.4553	1189.89	1.09
0.5231	1192.3	1.07
0.5949	1194.48	1.05
0.6863	1196.69	1.03
0.8073	1198.86	1
0.8634	1199.69	0.98

System: 1,3-dichloropropane + 1-butyl-3-methylimidazolium tetrafluoroborate; phases: Liquid
Fixed: Temperature, K = 298.15
Fixed: Pressure, kPa = 101
Property: Refractive index (Na D-line) (Liquid); method: Standard Abbe refractometry
Mole fraction of 1-butyl-3-methylimidazolium tetrafluoroborate	Refractive index (Na D-line)	uncertainty
0.0536	1.4448	0.0005
0.1135	1.443	0.0005
0.1516	1.4418	0.0005
0.2101	1.4401	0.0005
0.2817	1.4381	0.0005
0.3528	1.4359	0.0005
0.4042	1.4345	0.0005
0.4626	1.433	0.0005
0.5254	1.4314	0.0005
0.5466	1.4309	0.0005
0.5955	1.4296	0.0005
0.6786	1.4276	0.0005
0.7863	1.4255	0.0005
0.9028	1.4234	0.0005

System: 1,3-dichloropropane + 1-butyl-3-methylimidazolium tetrafluoroborate; phases: Liquid
Fixed: Temperature, K = 298.15
Fixed: Pressure, kPa = 101
Property: Mass density, kg/m3 (Liquid); method: VIBTUB:UFactor:6
Mole fraction of 1-butyl-3-methylimidazolium tetrafluoroborate	Mass density, kg/m3	uncertainty
0.0536	1184.13	0.9
0.1135	1187.8	0.91
0.1516	1189.78	0.91
0.2101	1192.32	0.92
0.2817	1194.71	0.93
0.3528	1196.53	0.93
0.4042	1197.51	0.93
0.4626	1198.41	0.94
0.5254	1199.14	0.94
0.5466	1199.38	0.94
0.5955	1199.76	0.94
0.6786	1200.34	0.94
0.7863	1200.89	0.94
0.9028	1201.2	0.94

System: 3,6-dioxa-1-octanol + 1-butyl-3-methylimidazolium tetrafluoroborate; phases: Liquid
Fixed: Temperature, K = 298.15
Fixed: Pressure, kPa = 101
Property: Refractive index (Na D-line) (Liquid); method: Standard Abbe refractometry
Mole fraction of 1-butyl-3-methylimidazolium tetrafluoroborate	Refractive index (Na D-line)	uncertainty
0.0544	1.4268	0.0005
0.1016	1.4274	0.0005
0.1492	1.4277	0.0005
0.1941	1.4278	0.0005
0.2686	1.4278	0.0005
0.3215	1.4277	0.0005
0.3932	1.4273	0.0005
0.5108	1.4265	0.0005
0.6016	1.4257	0.0005
0.6657	1.425	0.0005
0.6998	1.4247	0.0005
0.8304	1.4235	0.0005
0.9551	1.4223	0.0005

System: 3,6-dioxa-1-octanol + 1-butyl-3-methylimidazolium tetrafluoroborate; phases: Liquid
Fixed: Temperature, K = 298.15
Fixed: Pressure, kPa = 101
Property: Mass density, kg/m3 (Liquid); method: VIBTUB:UFactor:6
Mole fraction of 1-butyl-3-methylimidazolium tetrafluoroborate	Mass density, kg/m3	uncertainty
0.0544	1003.36	0.41
0.1016	1018.2	0.45
0.1492	1032.87	0.48
0.1941	1045.1	0.51
0.2686	1065.22	0.57
0.3215	1078.37	0.61
0.3932	1094.93	0.65
0.5108	1119.82	0.72
0.6016	1137.49	0.77
0.6657	1149.16	0.8
0.6998	1155.07	0.82
0.8304	1176.5	0.87
0.9551	1195.04	0.93

System: 1,2-ethanediol + 1-butyl-3-methylimidazolium tetrafluoroborate; phases: Liquid
Fixed: Temperature, K = 298.15
Fixed: Pressure, kPa = 101
Property: Refractive index (Na D-line) (Liquid); method: Standard Abbe refractometry
Mole fraction of 1-butyl-3-methylimidazolium tetrafluoroborate	Refractive index (Na D-line)	uncertainty
0.0517	1.4287	0.0005
0.138	1.4261	0.0005
0.1928	1.425	0.0005
0.2567	1.424	0.0005
0.3	1.4235	0.0005
0.3324	1.4231	0.0005
0.402	1.4226	0.0005
0.4162	1.4225	0.0005
0.4997	1.4219	0.0005
0.5803	1.4216	0.0005
0.632	1.4215	0.0005
0.696	1.4215	0.0005
0.8045	1.4215	0.0005
0.9083	1.4217	0.0005

System: 1,2-ethanediol + 1-butyl-3-methylimidazolium tetrafluoroborate; phases: Liquid
Fixed: Temperature, K = 298.15
Fixed: Pressure, kPa = 101
Property: Mass density, kg/m3 (Liquid); method: VIBTUB:UFactor:6
Mole fraction of 1-butyl-3-methylimidazolium tetrafluoroborate	Mass density, kg/m3	uncertainty
0.0517	1123.11	0.49
0.138	1138.78	0.54
0.1928	1146.51	0.56
0.2567	1154.22	0.59
0.3	1158.72	0.61
0.3324	1161.86	0.62
0.402	1167.89	0.65
0.4162	1168.98	0.66
0.4997	1175.1	0.7
0.5803	1180.22	0.73
0.632	1183.29	0.75
0.696	1186.82	0.78
0.8045	1192.48	0.84
0.9083	1197.33	0.89

System: ethanol + 1-butyl-3-methylimidazolium methyl sulfate; phases: Liquid
Fixed: Temperature, K = 298.15
Fixed: Pressure, kPa = 101
Property: Refractive index (Na D-line) (Liquid); method: Standard Abbe refractometry
Mole fraction of 1-butyl-3-methylimidazolium methyl sulfate	Refractive index (Na D-line)	uncertainty
0.0459	1.3791	0.0005
0.0987	1.3956	0.0005
0.142	1.4067	0.0005
0.1905	1.417	0.0005
0.2357	1.4253	0.0005
0.2733	1.4314	0.0005
0.3516	1.4414	0.0005
0.4381	1.4503	0.0005
0.5335	1.4581	0.0005
0.5712	1.4609	0.0005
0.6742	1.4667	0.0005
0.7665	1.4715	0.0005
0.8482	1.4745	0.0005
0.9248	1.4772	0.0005

System: ethanol + 1-butyl-3-methylimidazolium methyl sulfate; phases: Liquid
Fixed: Temperature, K = 298.15
Fixed: Pressure, kPa = 101
Property: Mass density, kg/m3 (Liquid); method: VIBTUB:UFactor:6
Mole fraction of 1-butyl-3-methylimidazolium methyl sulfate	Mass density, kg/m3	uncertainty
0.0459	850.62	0.58
0.0987	909.24	0.47
0.142	948.07	0.41
0.1905	984.34	0.36
0.2357	1012.98	0.36
0.2733	1033.54	0.4
0.3516	1069.63	0.48
0.4381	1101.3	0.57
0.5335	1129.08	0.65
0.5712	1138.45	0.68
0.6742	1160.39	0.75
0.7665	1176.77	0.82
0.8482	1188.91	0.87
0.9248	1199.03	0.92

System: nitromethane + 1-butyl-3-methylimidazolium methyl sulfate; phases: Liquid
Fixed: Temperature, K = 298.15
Fixed: Pressure, kPa = 101
Property: Refractive index (Na D-line) (Liquid); method: Standard Abbe refractometry
Mole fraction of 1-butyl-3-methylimidazolium methyl sulfate	Refractive index (Na D-line)	uncertainty
0.0398	1.3953	0.0006
0.1021	1.4128	0.0006
0.1433	1.4218	0.0006
0.1988	1.4316	0.0006
0.2444	1.4382	0.0006
0.2998	1.4449	0.0006
0.3979	1.4541	0.0006
0.4786	1.4596	0.0006
0.5652	1.4648	0.0006
0.7127	1.4714	0.0005
0.8212	1.4748	0.0005
0.8546	1.4758	0.0005

System: nitromethane + 1-butyl-3-methylimidazolium methyl sulfate; phases: Liquid
Fixed: Temperature, K = 298.15
Fixed: Pressure, kPa = 101
Property: Mass density, kg/m3 (Liquid); method: VIBTUB:UFactor:6
Mole fraction of 1-butyl-3-methylimidazolium methyl sulfate	Mass density, kg/m3	uncertainty
0.0398	1146.67	1.11
0.1021	1161.66	1.13
0.1433	1168.87	1.14
0.1988	1176.21	1.14
0.2444	1180.95	1.14
0.2998	1185.58	1.13
0.3979	1191.69	1.11
0.4786	1195.47	1.1
0.5652	1198.52	1.07
0.7127	1202.66	1.04
0.8212	1204.74	1.01
0.8546	1205.4	1

System: 1,3-dichloropropane + 1-butyl-3-methylimidazolium methyl sulfate; phases: Liquid
Fixed: Temperature, K = 298.15
Fixed: Pressure, kPa = 101
Property: Refractive index (Na D-line) (Liquid); method: Standard Abbe refractometry
Mole fraction of 1-butyl-3-methylimidazolium methyl sulfate	Refractive index (Na D-line)	uncertainty
0.0429	1.4499	0.0005
0.0674	1.4518	0.0005
0.104	1.4543	0.0005
0.1376	1.4564	0.0005
0.1894	1.4596	0.0005
0.2496	1.4624	0.0005
0.3166	1.4654	0.0005
0.3917	1.4677	0.0005
0.4881	1.4706	0.0005
0.5686	1.4725	0.0005
0.6797	1.4747	0.0005
0.7887	1.4765	0.0005
0.8987	1.4784	0.0005

System: 1,3-dichloropropane + 1-butyl-3-methylimidazolium methyl sulfate; phases: Liquid
Fixed: Temperature, K = 298.15
Fixed: Pressure, kPa = 101
Property: Mass density, kg/m3 (Liquid); method: VIBTUB:UFactor:6
Mole fraction of 1-butyl-3-methylimidazolium methyl sulfate	Mass density, kg/m3	uncertainty
0.0429	1183.63	0.89
0.0674	1185.62	0.9
0.104	1188.24	0.91
0.1376	1190.37	0.91
0.1894	1193.17	0.92
0.2496	1195.76	0.93
0.3166	1198.02	0.93
0.3917	1200.02	0.94
0.4881	1201.98	0.95
0.5686	1203.19	0.95
0.6797	1204.61	0.95
0.7887	1205.73	0.96
0.8987	1206.82	0.96

System: 3,6-dioxa-1-octanol + 1-butyl-3-methylimidazolium methyl sulfate; phases: Liquid
Fixed: Temperature, K = 298.15
Fixed: Pressure, kPa = 101
Property: Refractive index (Na D-line) (Liquid); method: Standard Abbe refractometry
Mole fraction of 1-butyl-3-methylimidazolium methyl sulfate	Refractive index (Na D-line)	uncertainty
0.0517	1.4307	0.0005
0.0891	1.4339	0.0005
0.1483	1.4388	0.0005
0.2233	1.4443	0.0005
0.2901	1.4488	0.0005
0.3194	1.4507	0.0005
0.3902	1.4548	0.0005
0.4732	1.4593	0.0005
0.5364	1.4626	0.0005
0.6235	1.4663	0.0005
0.696	1.4697	0.0005
0.8065	1.4735	0.0005
0.8947	1.4763	0.0005

System: 3,6-dioxa-1-octanol + 1-butyl-3-methylimidazolium methyl sulfate; phases: Liquid
Fixed: Temperature, K = 298.15
Fixed: Pressure, kPa = 101
Property: Mass density, kg/m3 (Liquid); method: VIBTUB:UFactor:6
Mole fraction of 1-butyl-3-methylimidazolium methyl sulfate	Mass density, kg/m3	uncertainty
0.0517	1003.36	0.41
0.0891	1016.08	0.44
0.1483	1035.02	0.48
0.2233	1057.1	0.54
0.2901	1074.98	0.6
0.3194	1082.5	0.62
0.3902	1099.82	0.67
0.4732	1118.6	0.72
0.5364	1131.83	0.75
0.6235	1148.55	0.8
0.696	1161.73	0.83
0.8065	1179.9	0.88
0.8947	1193.18	0.92

System: 1,2-ethanediol + 1-butyl-3-methylimidazolium methyl sulfate; phases: Liquid
Fixed: Temperature, K = 298.15
Fixed: Pressure, kPa = 101
Property: Refractive index (Na D-line) (Liquid); method: Standard Abbe refractometry
Mole fraction of 1-butyl-3-methylimidazolium methyl sulfate	Refractive index (Na D-line)	uncertainty
0.0341	1.4334	0.0005
0.0854	1.4373	0.0005
0.1079	1.439	0.0005
0.1946	1.4449	0.0005
0.2446	1.4479	0.0005
0.2999	1.4511	0.0005
0.353	1.454	0.0005
0.4399	1.4582	0.0005
0.5061	1.4616	0.0005
0.5299	1.4625	0.0005
0.636	1.4672	0.0005
0.717	1.4703	0.0005
0.8055	1.4735	0.0005
0.907	1.4768	0.0005

System: 1,2-ethanediol + 1-butyl-3-methylimidazolium methyl sulfate; phases: Liquid
Fixed: Temperature, K = 298.15
Fixed: Pressure, kPa = 101
Property: Mass density, kg/m3 (Liquid); method: VIBTUB:UFactor:1000
Mole fraction of 1-butyl-3-methylimidazolium methyl sulfate	Mass density, kg/m3	uncertainty
0.0341	1195.09	107.32
0.0854	1115.82	76.31
0.1079	1172.89	98.64
0.1946	1123.61	79.37
0.2446	1170.78	97.84
0.2999	1126.01	80.33
0.353	1164.56	95.42
0.4399	1138.05	85.07
0.5061	1150.15	89.82
0.5299	1188.48	104.83
0.636	1143.98	87.44
0.717	1155.76	92.08
0.8055	1182.08	102.41
0.907	1201.87	110.2
