Measured thermophysical data. Speed of sound measurements of di-isopropyl ether (DIPE) from 293.15 K to 673.15 K and up to 10 MPa
Source: J. Chem. Thermodyn., 2017, 10.1016/j.jct.2016.09.005
Compound 1: diisopropyl ether, C6H14O, InChI=1S/C6H14O/c1-5(2)7-6(3)4/h5-6H,1-4H3, purity 99%
Compound 2: hexane, C6H14, InChI=1S/C6H14/c1-3-5-6-4-2/h3-6H2,1-2H3, purity 99%

System: diisopropyl ether; phases: Liquid, Gas
Property: Speed of sound, m/s (Liquid); method: Brillouin Light Scattering
Temperature, K	Speed of sound, m/s	uncertainty
303.08	986.38	13.65
318.27	915.66	12.68
333.62	852.5	11.81
347.96	790.74	10.96
362.87	731.21	10.14
378.14	662.26	9.2
393.15	593.47	8.25
402.97	552.35	7.69
412.75	514.15	7.17
422.75	469.11	6.55
432.74	426.77	5.98
443.46	384.46	5.4
453.54	336.71	4.76
457.54	315.85	4.48
463	290.41	4.14
468.31	263.51	3.78
473.8	237.38	3.43
478.69	210.25	3.08
483.1	185.8	2.76
487.42	162.27	2.46
492.48	135.68	2.13

System: diisopropyl ether; phases: Gas, Liquid
Property: Speed of sound, m/s (Gas); method: Brillouin Light Scattering
Temperature, K	Speed of sound, m/s	uncertainty
443.46	140.99	2.49
453.54	135.34	2.41
457.54	131.58	2.35
463	125.98	2.27
468.31	121.95	2.21
473.8	115.5	2.12
478.69	108.41	2.02
483.1	103.7	1.96
487.42	98.66	1.89
492.48	91.71	1.79

System: diisopropyl ether; phases: Liquid
Property: Speed of sound, m/s (Liquid); method: Brillouin Light Scattering
Temperature, K	Pressure, kPa	Speed of sound, m/s	uncertainty
302.96	1000	986.08	13.65
308	1000	965.01	13.36
313.05	1000	943.07	13.06
318.11	1000	924.03	12.79
323.62	1000	901.5	12.49
327.97	1000	881.1	12.2
333.08	1000	855	11.84
337.69	1000	846.25	11.73
343.33	1000	819.28	11.35
347.59	1000	802.59	11.12
353.45	1000	775.82	10.76
358.76	1000	755.17	10.47
362.67	1000	737.96	10.24
368.03	1000	715.17	9.92
373.57	1000	697.04	9.68
377.41	1000	679.66	9.44
382.72	1000	654.9	9.1
388.68	1000	634.3	8.83
393.19	1000	615.78	8.57
398.25	1000	589.15	8.21
403.45	1000	570.56	7.96
408.65	1000	544.68	7.61
412.66	1000	530.21	7.41
419.01	1000	502.48	7.05
423.21	1000	482.17	6.76
427.66	1000	460.04	6.49
432.85	1000	434.31	6.14
302.91	2500	1002.69	13.88
308.28	2500	974.68	13.49
312.91	2500	961.97	13.32
318.14	2500	928.92	12.87
323.31	2500	912.04	12.63
328.08	2500	887.66	12.29
332.94	2500	869.98	12.06
337.75	2500	857.76	11.88
343.82	2500	827.84	11.48
347.41	2500	807.03	11.19
353.59	2500	792.6	10.99
358.93	2500	760.2	10.55
363.21	2500	747.41	10.37
368.26	2500	726.3	10.08
373.29	2500	712.12	9.89
378.05	2500	690.57	9.6
383.06	2500	665.89	9.26
388.31	2500	653.57	9.09
392.26	2500	635.1	8.84
397.95	2500	613.31	8.54
402.88	2500	590.27	8.23
408.37	2500	571.15	7.97
412.43	2500	550.12	7.68
418.22	2500	532.67	7.45
424.09	2500	502.49	7.05
428.26	2500	490.5	6.89
433.18	2500	464.16	6.55
438.94	2500	440.93	6.24
443.48	2500	424.11	6.01
447.46	2500	407.02	5.78
453.11	2500	380.57	5.44
457.15	2500	366.77	5.25
463.88	2500	338.04	4.87
302.39	4000	1011.93	14.01
307.45	4000	987.23	13.67
313.14	4000	969.4	13.42
318.49	4000	951.1	13.17
323.71	4000	924.8	12.81
328.1	4000	901.06	12.48
333.31	4000	888.08	12.3
337.93	4000	867.64	12.02
343.67	4000	845.53	11.72
347.69	4000	832.86	11.55
352.94	4000	804.7	11.16
358.96	4000	782.98	10.87
363.41	4000	767.15	10.65
367.78	4000	751.56	10.43
373.37	4000	726.56	10.09
377.85	4000	712.4	9.9
383.26	4000	691.26	9.61
387.78	4000	674.22	9.37
392.5	4000	658.79	9.16
397.81	4000	632.66	8.81
403.4	4000	612.03	8.53
408.31	4000	592.12	8.26
412.7	4000	576.58	8.06
418.91	4000	554.62	7.75
423.5	4000	536.96	7.53
428.03	4000	520.63	7.3
433.27	4000	498.85	7.01
439.03	4000	475.92	6.71
442.6	4000	461.81	6.52
448.43	4000	436.29	6.18
453.5	4000	418.12	5.95
457.87	4000	397.64	5.68
462.93	4000	377.89	5.42
468.21	4000	357.71	5.16
472.94	4000	339.72	4.94
302.48	5500	1029.7	14.27
307.86	5500	1009.39	14
312.92	5500	979.14	13.57
318.01	5500	968.08	13.41
323.5	5500	943.6	13.09
328.17	5500	923.15	12.82
333.57	5500	897.12	12.45
337.63	5500	882.64	12.25
343.97	5500	864.56	12.01
347.81	5500	843.4	11.72
353.6	5500	819.82	11.42
358.55	5500	807.15	11.23
362.78	5500	786.13	10.95
367.57	5500	769.09	10.72
373.15	5500	753.88	10.52
377.85	5500	728.98	10.16
382.83	5500	710.48	9.92
388.09	5500	694.59	9.7
392.28	5500	675.48	9.44
398.22	5500	653.67	9.15
402.77	5500	638.47	8.96
407.64	5500	623.08	8.76
412.43	5500	606.9	8.53
418.54	5500	583.39	8.22
423.79	5500	567.31	8.03
428.45	5500	546.98	7.76
432.63	5500	529.89	7.54
437.97	5500	515.55	7.37
443.09	5500	494.52	7.08
447.74	5500	476.22	6.9
453.12	5500	456.86	6.67
458.03	5500	440.35	6.49
464.11	5500	418.4	6.24
467.52	5500	406.91	6.1
472.84	5500	384.97	5.85
303.07	7000	1037.79	14.37
308.01	7000	1020.45	14.14
312.88	7000	995.2	13.8
318.38	7000	974.91	13.51
323.15	7000	960.56	13.32
328.13	7000	936.62	13.01
333.01	7000	920.95	12.81
338.11	7000	896.43	12.45
343.79	7000	878.38	12.21
347.81	7000	867.06	12.06
353.71	7000	845.61	11.77
359.03	7000	821.85	11.44
363.08	7000	809.07	11.27
367.56	7000	793.16	11.05
372.8	7000	771.64	10.74
377.54	7000	749.64	10.46
382.77	7000	734.01	10.25
388	7000	713.08	9.95
392.33	7000	701.13	9.82
398.37	7000	674.76	9.46
402.67	7000	662.53	9.28
408.1	7000	642.44	9.01
413.28	7000	622.07	8.72
418.87	7000	603.43	8.47
423.75	7000	590.42	8.3
427.41	7000	578.56	8.15
432.83	7000	558.11	7.89
438.69	7000	537.87	7.62
442.55	7000	521.69	7.42
448.7	7000	505.01	7.2
454.24	7000	488.02	7.02
457.7	7000	475.35	6.84
463.16	7000	457.86	6.65
467.58	7000	440.63	6.42
472.67	7000	424.62	6.27
302.8	8500	1052.44	14.61
307.87	8500	1038.87	14.42
312.81	8500	1010.4	14.06
318.13	8500	996.14	13.86
323.3	8500	972.88	13.52
327.75	8500	964.89	13.44
333.25	8500	943.92	13.11
337.89	8500	917.48	12.77
343.57	8500	904.65	12.58
347.76	8500	887.44	12.35
353.38	8500	862.02	12.01
358.52	8500	846.91	11.79
362.95	8500	828.91	11.55
367.82	8500	809.14	11.27
373.21	8500	788.43	10.99
377.97	8500	770.84	10.79
382.88	8500	754.35	10.55
388.3	8500	735.65	10.29
392.79	8500	722.68	10.1
398.32	8500	702.44	9.86
403.23	8500	683.98	9.58
408.23	8500	667.12	9.36
412.95	8500	646.94	9.12
418.42	8500	627.35	8.84
423.62	8500	613.79	8.64
427.92	8500	597.25	8.41
432.77	8500	581.79	8.24
438.45	8500	566.84	8.06
442.85	8500	551.1	7.86
448.06	8500	530.98	7.57
453.75	8500	518.95	7.4
457.63	8500	503.76	7.23
463.6	8500	488.56	7.04
467.74	8500	473.19	6.85
472.64	8500	459.74	6.68
302.38	10000	1087.1	15.14
307.61	10000	1066.08	14.82
312.8	10000	1050.98	14.68
317.72	10000	1030.25	14.35
322.82	10000	1007.15	14.06
327.56	10000	994.72	13.82
332.93	10000	963.31	13.39
337.85	10000	946.87	13.19
343.88	10000	923.89	12.84
347.31	10000	915.04	12.74
353.81	10000	893.76	12.48
358.06	10000	870.54	12.13
362.9	10000	855.96	11.93
367.96	10000	835.29	11.66
372.68	10000	816.27	11.42
378.3	10000	803.55	11.26
382.78	10000	787	11.03
388.86	10000	760.66	10.65
392.65	10000	747.04	10.44
398.9	10000	728.83	10.2
403.45	10000	709.11	9.94
407.75	10000	693.65	9.73
412.83	10000	681.56	9.61
418.59	10000	659.95	9.33
423.9	10000	640.34	9.02
428.53	10000	625.16	8.85
432.35	10000	618.58	8.78
438.48	10000	599.89	8.52
442.96	10000	583.95	8.32
447.46	10000	569.2	8.15
453.57	10000	548.35	7.81
457.57	10000	539.84	7.74
463.85	10000	521.08	7.47
467.53	10000	508.72	7.34
473.24	10000	491.15	7.08

System: diisopropyl ether; phases: Fluid (supercritical or subcritical phases)
Property: Speed of sound, m/s (Fluid (supercritical or subcritical phases)); method: Brillouin Light Scattering
Temperature, K	Pressure, kPa	Speed of sound, m/s	uncertainty
505.6	3500	132.11	3.97
509.39	3500	114.34	3.67
516.22	3500	102.13	2.8
519.67	3500	108	2.32
526.46	3500	116.09	1.92
536.58	3500	132.72	2.16
544.16	3500	139.1	2.22
551	3500	147.92	2.36
556.02	3500	156.04	2.45
562.71	3500	162.02	2.52
568.12	3500	172.59	2.66
572.24	3500	178.24	2.73
578.05	3500	184.2	2.8
583.61	3500	191.39	2.88
588.82	3500	197.63	2.95
591.77	3500	201.8	2.99
597.62	3500	207.01	3.05
602.12	3500	213.74	3.14
608.3	3500	220.34	3.22
612.23	3500	223.95	3.27
618	3500	231.2	3.37
622.27	3500	235.81	3.43
627.65	3500	240.7	3.49
632.86	3500	243.95	3.53
638.22	3500	249.88	3.61
643.72	3500	254.88	3.67
648.36	3500	257.88	3.71
653.38	3500	263.46	3.78
658.61	3500	265.77	3.82
664.11	3500	269.84	3.87
668.59	3500	271.89	3.89
672.56	3500	274.52	3.93
505.8	4500	215.46	4.11
509.87	4500	196.58	3.94
517.48	4500	161.27	3.38
520.35	4500	144.87	2.99
527.21	4500	126.63	2.37
532.59	4500	114.85	2.04
534.66	4500	113.71	1.94
540.66	4500	121.9	2.01
545.71	4500	129.23	2.05
554.09	4500	137.04	2.15
564.46	4500	151.45	2.35
570.23	4500	159.8	2.48
575.87	4500	166.92	2.56
582.97	4500	176.94	2.68
588.06	4500	184.23	2.77
592.07	4500	191.01	2.86
597.6	4500	197.93	2.94
602.56	4500	203.87	3.01
607.19	4500	209.92	3.09
612.23	4500	214.66	3.14
617.47	4500	220.52	3.22
623.51	4500	226.31	3.3
628.55	4500	231.82	3.37
632.23	4500	235.83	3.42
638.59	4500	240.88	3.49
643.55	4500	245.98	3.56
648.6	4500	250.01	3.61
652.25	4500	253.58	3.66
658.37	4500	256.34	3.69
662.28	4500	259.34	3.73
667.83	4500	264.18	3.8
672.38	4500	265.43	3.82
506.21	5500	263.63	5.16
510.29	5500	244.35	4.98
518.73	5500	206.26	4.99
521.7	5500	199.75	5.1
528.59	5500	173.63	4.88
533.14	5500	166.48	4.65
535.53	5500	159.52	4.46
541.18	5500	155.19	3.66
546.93	5500	147.8	3.2
554.6	5500	142.16	2.62
564.68	5500	144.2	2.27
571.21	5500	149.54	2.3
576.95	5500	157.61	2.42
583.79	5500	168.45	2.58
587.28	5500	174.08	2.69
592.51	5500	179.58	2.76
597.6	5500	185.96	2.81
603.37	5500	196.7	2.96
607.26	5500	201.24	3
612.33	5500	208.84	3.1
618.05	5500	215.78	3.18
623.05	5500	219.38	3.23
626.85	5500	224.98	3.31
632.72	5500	227.82	3.35
638.75	5500	232.85	3.42
644.35	5500	237.43	3.49
648.15	5500	239.71	3.53
652.83	5500	244.43	3.59
657.92	5500	246.91	3.61
662.18	5500	249.76	3.66
667.5	5500	252.59	3.71
670.57	5500	254.53	3.72
506.39	6500	301.19	5.27
510.5	6500	281.9	5.19
516.95	6500	262.61	5.44
522.21	6500	243.32	5.14
529.79	6500	222.12	5.24
533.59	6500	210.67	4.82
536.07	6500	205.77	4.8
541.51	6500	190.79	4.21
547.24	6500	183.8	3.96
555.23	6500	172.31	3.64
564.77	6500	162.69	2.85
570.32	6500	155.46	2.45
574.75	6500	156.08	2.38
580.81	6500	160.95	2.47
586.87	6500	165.44	2.55
592.03	6500	173.69	2.62
595.88	6500	181.47	2.71
603.22	6500	189.62	2.84
608.98	6500	198.69	2.96
612.73	6500	201.04	3.01
618.31	6500	208.27	3.12
623.75	6500	213.55	3.16
627.63	6500	217.44	3.24
633.54	6500	221.63	3.26
637.16	6500	225.18	3.31
642.34	6500	228.66	3.37
648.16	6500	231.72	3.4
653.97	6500	236.88	3.49
658.49	6500	239.95	3.51
663.04	6500	242.15	3.54
667.84	6500	245.05	3.58
671.41	6500	247.45	3.61

System: hexane; phases: Liquid
Fixed: Pressure, kPa = 5500
Property: Speed of sound, m/s (Liquid); method: Brillouin Light Scattering
Temperature, K	Speed of sound, m/s	uncertainty
300.09	1111.2	15.4
353.12	898.5	12.4
403.17	705.9	9.8
453.15	513	7.2
503.13	323.7	4.6

System: hexane; phases: Fluid (supercritical or subcritical phases)
Fixed: Pressure, kPa = 5500
Property: Speed of sound, m/s (Fluid (supercritical or subcritical phases)); method: Brillouin Light Scattering
Temperature, K	Speed of sound, m/s	uncertainty
547.89	158.25	2.44
578.22	154.04	2.38
608.05	178.03	2.68
636.04	194.98	2.9
