Measured thermophysical data. Experimental and predicted data of excess molar enthalpies and excess molar volumes for the ternary system (1,3-dichlorobenzene + benzene + 1-chlorohexane) at T = 298.15 K
Source: J. Chem. Thermodyn., 2014, 10.1016/j.jct.2013.12.024
Compound 1: 1,3-dichlorobenzene, C6H4Cl2, InChI=1S/C6H4Cl2/c7-5-2-1-3-6(8)4-5/h1-4H, purity 99%
Compound 2: benzene, C6H6, InChI=1S/C6H6/c1-2-4-6-5-3-1/h1-6H, purity 99.9%
Compound 3: 1-chlorohexane, C6H13Cl, InChI=1S/C6H13Cl/c1-2-3-4-5-6-7/h2-6H2,1H3, purity 99%

System: 1,3-dichlorobenzene; phases: Liquid
Property: Mass density, kg/m3 (Liquid); method: Vibrating tube method
Temperature, K	Pressure, kPa	Mass density, kg/m3	uncertainty
298.15	101.325	1282.87	0.61

System: benzene; phases: Liquid
Property: Mass density, kg/m3 (Liquid); method: Vibrating tube method
Temperature, K	Pressure, kPa	Mass density, kg/m3	uncertainty
298.15	101.325	873.45	0.11

System: 1-chlorohexane; phases: Liquid
Property: Mass density, kg/m3 (Liquid); method: Vibrating tube method
Temperature, K	Pressure, kPa	Mass density, kg/m3	uncertainty
298.15	101.325	873.38	0.3

System: benzene + 1,3-dichlorobenzene + 1-chlorohexane; phases: Liquid
Fixed: Temperature, K = 298.15
Fixed: Pressure, kPa = 101
Property: Molar enthalpy of mixing with solvent, kJ/mol of 1-chlorohexane (Liquid); method: Calvet calorimetry
Mole fraction of benzene	Mole fraction of 1,3-dichlorobenzene	Molar enthalpy of mixing with solvent, kJ/mol of 1-chlorohexane	uncertainty
0.719	0.243	0.0001	0.0008
0.6909	0.2335	-0.0025	0.0008
0.6651	0.2248	-0.0046	0.0008
0.6358	0.2149	-0.0066	0.0008
0.6117	0.2067	-0.0085	0.0008
0.5797	0.1959	-0.0131	0.0009
0.5492	0.1856	-0.0154	0.0009
0.5217	0.1763	-0.0204	0.0009
0.4635	0.1567	-0.0246	0.001
0.44	0.1487	-0.0287	0.0011
0.4109	0.1389	-0.0296	0.0011
0.3452	0.1167	-0.0318	0.0011
0.3167	0.107	-0.0354	0.0012
0.291	0.0984	-0.0357	0.0012
0.2397	0.081	-0.0313	0.0011
0.2297	0.0776	-0.0328	0.0012
0.1966	0.0665	-0.03	0.0011
0.1498	0.0506	-0.0243	0.001
0.1001	0.0338	-0.017	0.0009
0.054	0.0183	-0.0106	0.0009
0.4669	0.4947	-0.0079	0.0008
0.4521	0.4791	-0.0139	0.0009
0.4272	0.4527	-0.0242	0.001
0.4219	0.4471	-0.028	0.0011
0.3896	0.4128	-0.0393	0.0013
0.3865	0.4095	-0.0381	0.0012
0.3658	0.3877	-0.0458	0.0014
0.324	0.3434	-0.0551	0.0016
0.3153	0.3341	-0.0567	0.0016
0.2887	0.306	-0.0605	0.0017
0.2478	0.2626	-0.0637	0.0017
0.2239	0.2372	-0.0649	0.0017
0.2015	0.2135	-0.0635	0.0017
0.1917	0.2032	-0.0616	0.0017
0.141	0.1495	-0.0522	0.0015
0.1359	0.144	-0.0509	0.0015
0.0902	0.0955	-0.0393	0.0013
0.059	0.0625	-0.0275	0.0011
0.037	0.0392	-0.0176	0.0009
0.2244	0.735	-0.0078	0.0008
0.2077	0.6803	-0.019	0.0009
0.2048	0.6709	-0.0212	0.001
0.1815	0.5944	-0.037	0.0012
0.1756	0.575	-0.0427	0.0013
0.1714	0.5613	-0.0447	0.0014
0.1529	0.5009	-0.0558	0.0016
0.1481	0.485	-0.0565	0.0016
0.1477	0.4837	-0.0563	0.0016
0.1296	0.4244	-0.0641	0.0017
0.1149	0.3764	-0.0649	0.0017
0.1107	0.3627	-0.0659	0.0018
0.1043	0.3415	-0.066	0.0018
0.0949	0.3108	-0.0648	0.0017
0.0773	0.2533	-0.0585	0.0016
0.076	0.249	-0.0588	0.0016
0.0564	0.1847	-0.0487	0.0014
0.0538	0.1761	-0.0456	0.0014
0.0307	0.1005	-0.0294	0.0011
0.0287	0.0942	-0.0288	0.0011
0.0143	0.047	-0.0168	0.0009

System: benzene + 1,3-dichlorobenzene + 1-chlorohexane; phases: Liquid
Fixed: Temperature, K = 298.15
Fixed: Pressure, kPa = 101
Property: Mass density, kg/m3 (Liquid); method: Vibrating tube method
Mole fraction of 1,3-dichlorobenzene	Mole fraction of benzene	Mass density, kg/m3	uncertainty
0.0191	0.1087	879.98	0.27
0.0276	0.1569	883.09	0.26
0.0643	0.3654	898.07	0.2
0.071	0.4034	901.13	0.19
0.0895	0.5089	910.16	0.17
0.0961	0.5464	913.59	0.17
0.1069	0.6073	919.52	0.16
0.1233	0.701	929.36	0.14
0.1362	0.774	937.84	0.13
0.0375	0.0835	886.59	0.28
0.0572	0.1273	893.9	0.26
0.1021	0.2273	911.68	0.23
0.1441	0.3209	929.91	0.21
0.1835	0.4087	948.58	0.18
0.1937	0.4314	953.7	0.18
0.2178	0.485	966.23	0.16
0.2537	0.5649	986.24	0.14
0.2812	0.6262	1002.72	0.13
0.0437	0.0538	888.77	0.29
0.0745	0.0915	900.09	0.28
0.142	0.1745	926.41	0.25
0.1975	0.2429	949.81	0.22
0.2577	0.3168	977.18	0.2
0.2788	0.3428	987.34	0.19
0.3111	0.3825	1003.45	0.18
0.3568	0.4387	1027.45	0.18
0.405	0.498	1054.46	0.18
0.0555	0.0376	892.9	0.29
0.0943	0.064	907.08	0.28
0.1844	0.1251	941.74	0.26
0.2615	0.1773	973.55	0.24
0.3371	0.2286	1006.88	0.22
0.3666	0.2486	1020.51	0.23
0.4112	0.2788	1041.79	0.23
0.4753	0.3223	1073.87	0.24
0.5355	0.3631	1105.74	0.25
0.0771	0.0251	900.54	0.3
0.1237	0.0402	917.53	0.29
0.2259	0.0735	956.37	0.28
0.3309	0.1077	998.68	0.26
0.421	0.137	1037.1	0.28
0.4614	0.1501	1055	0.29
0.5163	0.168	1080.04	0.31
0.5987	0.1948	1119.16	0.33
0.6758	0.2199	1157.6	0.35
0.0822	0.0085	902.26	0.3
0.1303	0.0134	919.6	0.3
0.2569	0.0264	966.85	0.29
0.3826	0.0394	1016.15	0.3
0.5025	0.0517	1065.63	0.35
0.5458	0.0562	1084.11	0.36
0.6114	0.0629	1112.73	0.39
0.7123	0.0733	1158.33	0.43
0.81	0.0834	1204.39	0.47
