Measured thermophysical data. Below the room temperature measurements of CO2 solubilities in six physical absorbents
Source: J. Chem. Thermodyn., 2018, 10.1016/j.jct.2018.03.009
Compound 1: carbon dioxide, CO2, InChI=1S/CO2/c2-1-3, purity 99.999%
Compound 2: water, H2O, InChI=1S/H2O/h1H2, purity 99.9%
Compound 3: 2-methoxyethyl ethanoate, C5H10O3, InChI=1S/C5H10O3/c1-5(6)8-4-3-7-2/h3-4H2,1-2H3, purity 98%
Compound 4: 1-methoxy-2-propyl acetate, C6H12O3, InChI=1S/C6H12O3/c1-5(4-8-3)9-6(2)7/h5H,4H2,1-3H3, purity 99%
Compound 5: 3-methoxybutyl acetate, C7H14O3, InChI=1S/C7H14O3/c1-6(9-3)4-5-10-7(2)8/h6H,4-5H2,1-3H3, purity 99%
Compound 6: diethylene glycol diethyl ether, C8H18O3, InChI=1S/C8H18O3/c1-3-9-5-7-11-8-6-10-4-2/h3-8H2,1-2H3, purity 99%
Compound 7: 2-butoxyethyl acetate, C8H16O3, InChI=1S/C8H16O3/c1-3-4-5-10-6-7-11-8(2)9/h3-7H2,1-2H3, purity 98%
Compound 8: 2-(2-ethoxyethoxy)ethyl acetate, C8H16O4, InChI=1S/C8H16O4/c1-3-10-4-5-11-6-7-12-8(2)9/h3-7H2,1-2H3, purity 98%

System: 2-methoxyethyl ethanoate; phases: Liquid
Fixed: Pressure, kPa = 101.325
Property: Mass density, kg/m3 (Liquid); method: Pycnometric method
Temperature, K	Mass density, kg/m3	uncertainty
273.15	1027.8	5.8
283.15	1016.8	5.8

System: 1-methoxy-2-propyl acetate; phases: Liquid
Fixed: Pressure, kPa = 101.325
Property: Mass density, kg/m3 (Liquid); method: Pycnometric method
Temperature, K	Mass density, kg/m3	uncertainty
273.15	989.2	4.4
283.15	978.2	4.3

System: 3-methoxybutyl acetate; phases: Liquid
Fixed: Pressure, kPa = 101.325
Property: Mass density, kg/m3 (Liquid); method: Pycnometric method
Temperature, K	Mass density, kg/m3	uncertainty
273.15	975.3	4.3
283.15	965.3	4.3

System: diethylene glycol diethyl ether; phases: Liquid
Fixed: Pressure, kPa = 101.325
Property: Mass density, kg/m3 (Liquid); method: Pycnometric method
Temperature, K	Mass density, kg/m3	uncertainty
273.15	926.4	4.1
283.15	916.3	4

System: 2-butoxyethyl acetate; phases: Liquid
Fixed: Pressure, kPa = 101.325
Property: Mass density, kg/m3 (Liquid); method: Pycnometric method
Temperature, K	Mass density, kg/m3	uncertainty
273.15	960.4	5.5
283.15	950.4	5.4

System: 2-(2-ethoxyethoxy)ethyl acetate; phases: Liquid
Fixed: Pressure, kPa = 101.325
Property: Mass density, kg/m3 (Liquid); method: Pycnometric method
Temperature, K	Mass density, kg/m3	uncertainty
273.15	1030	5.9
283.15	1020	5.8

System: carbon dioxide + water; phases: Liquid, Gas
Fixed: Temperature, K = 273.15
Property: Mole fraction of carbon dioxide (Liquid); method: Phase equilibration
Pressure, kPa	Mole fraction of carbon dioxide	uncertainty
458.8	0.0058	0.0003
744.6	0.0098	0.0006
990.3	0.0126	0.0007

System: carbon dioxide + 2-methoxyethyl ethanoate; phases: Liquid, Gas
Property: Mole fraction of carbon dioxide (Liquid); method: Phase equilibration
Temperature, K	Pressure, kPa	Mole fraction of carbon dioxide	uncertainty
273.15	79.4	0.0268	0.0015
273.15	148.5	0.0481	0.0027
273.15	372.2	0.1275	0.0072
273.15	575.5	0.196	0.011
273.15	742.3	0.2515	0.0142
273.15	950.3	0.3264	0.0184
273.15	1149.5	0.3802	0.0214
283.15	73.8	0.0207	0.0012
283.15	205.1	0.0554	0.0031
283.15	380.5	0.1086	0.0061
283.15	565.5	0.157	0.0088
283.15	776.9	0.2157	0.0122
283.15	980.8	0.2765	0.0156
283.15	1121.1	0.3065	0.0173

System: carbon dioxide + 1-methoxy-2-propyl acetate; phases: Liquid, Gas
Property: Mole fraction of carbon dioxide (Liquid); method: Phase equilibration
Temperature, K	Pressure, kPa	Mole fraction of carbon dioxide	uncertainty
273.15	74.6	0.0267	0.0015
273.15	142.3	0.0507	0.0029
273.15	310.7	0.1116	0.0063
273.15	485.4	0.1712	0.0096
273.15	668.4	0.2358	0.0133
273.15	823.6	0.2916	0.0164
273.15	1043.4	0.3573	0.0201
283.15	91.6	0.0262	0.0015
283.15	155.6	0.0455	0.0026
283.15	350.9	0.0997	0.0056
283.15	533.9	0.1544	0.0087
283.15	713.6	0.2126	0.012
283.15	909.2	0.2689	0.0151
283.15	1149.6	0.3331	0.0188

System: carbon dioxide + 3-methoxybutyl acetate; phases: Liquid, Gas
Property: Mole fraction of carbon dioxide (Liquid); method: Phase equilibration
Temperature, K	Pressure, kPa	Mole fraction of carbon dioxide	uncertainty
273.15	69.7	0.0242	0.0014
273.15	174.2	0.062	0.0035
273.15	380.3	0.1299	0.0073
273.15	590.5	0.212	0.0119
273.15	758.4	0.2725	0.0153
273.15	954.2	0.335	0.0189
273.15	1179.7	0.4109	0.0231
283.15	96.5	0.0288	0.0016
283.15	158.7	0.0453	0.0026
283.15	338.8	0.1022	0.0058
283.15	568.6	0.1701	0.0096
283.15	736.5	0.2129	0.012
283.15	917.1	0.2716	0.0153
283.15	1139.4	0.3306	0.0186

System: carbon dioxide + diethylene glycol diethyl ether; phases: Liquid, Gas
Property: Mole fraction of carbon dioxide (Liquid); method: Phase equilibration
Temperature, K	Pressure, kPa	Mole fraction of carbon dioxide	uncertainty
273.15	61.9	0.0218	0.0012
273.15	145.4	0.0503	0.0028
273.15	359.4	0.1188	0.0067
273.15	635.9	0.212	0.0119
273.15	753.4	0.2623	0.0148
273.15	970.1	0.3338	0.0188
273.15	1195	0.4049	0.0228
283.15	80.4	0.0222	0.0013
283.15	164.8	0.0467	0.0026
283.15	385.4	0.1065	0.006
283.15	556.8	0.1551	0.0087
283.15	751.7	0.2095	0.0118
283.15	976.1	0.2768	0.0156
283.15	1180.4	0.3393	0.0191

System: carbon dioxide + 2-butoxyethyl acetate; phases: Liquid, Gas
Property: Mole fraction of carbon dioxide (Liquid); method: Phase equilibration
Temperature, K	Pressure, kPa	Mole fraction of carbon dioxide	uncertainty
273.15	67	0.0231	0.0013
273.15	178	0.0616	0.0035
273.15	417.6	0.1409	0.0079
273.15	617.7	0.2155	0.0121
273.15	791.5	0.2796	0.0158
273.15	949.3	0.3267	0.0184
273.15	1171.9	0.3987	0.0225
283.15	86.4	0.0258	0.0015
283.15	148.3	0.0435	0.0025
283.15	360.3	0.1063	0.006
283.15	556.4	0.1559	0.0088
283.15	745.9	0.2144	0.0121
283.15	963.9	0.2731	0.0154
283.15	1167.5	0.3396	0.0191

System: carbon dioxide + 2-(2-ethoxyethoxy)ethyl acetate; phases: Liquid, Gas
Property: Mole fraction of carbon dioxide (Liquid); method: Phase equilibration
Temperature, K	Pressure, kPa	Mole fraction of carbon dioxide	uncertainty
273.15	69.1	0.0242	0.0014
273.15	190.2	0.0659	0.0037
273.15	413.7	0.1455	0.0082
273.15	573	0.2079	0.0117
273.15	785.5	0.2747	0.0155
273.15	996.3	0.349	0.0197
273.15	1186.1	0.429	0.0242
283.15	89.6	0.0272	0.0015
283.15	170.6	0.0507	0.0029
283.15	363.3	0.109	0.0061
283.15	566.7	0.1695	0.0095
283.15	730.3	0.2202	0.0124
283.15	944.5	0.2845	0.016
283.15	1186.2	0.3463	0.0195
