Measured thermophysical data. Studies on the importance of nature of substituent on the thermodynamic and transport properties of liquid mixtures at various temperatures
Source: J. Chem. Thermodyn., 2016, 10.1016/j.jct.2016.05.015
Compound 1: 3-chlorobenzenamine, C6H6ClN, InChI=1S/C6H6ClN/c7-5-2-1-3-6(8)4-5/h1-4H,8H2, purity 99%
Compound 2: bromobenzene, C6H5Br, InChI=1S/C6H5Br/c7-6-4-2-1-3-5-6/h1-5H, purity 99.5%
Compound 3: chlorobenzene, C6H5Cl, InChI=1S/C6H5Cl/c7-6-4-2-1-3-5-6/h1-5H, purity 99.8%
Compound 4: nitrobenzene, C6H5NO2, InChI=1S/C6H5NO2/c8-7(9)6-4-2-1-3-5-6/h1-5H, purity 99.7%

System: bromobenzene; phases: Liquid
Fixed: Pressure, kPa = 100
Property: Mass density, kg/m3 (Liquid); method: Vibrating tube method
Temperature, K	Mass density, kg/m3	uncertainty
303.15	1481.52	20
308.15	1475.36	20
313.15	1468.02	20
318.15	1461.36	20

System: bromobenzene; phases: Liquid
Fixed: Pressure, kPa = 100
Property: Viscosity, Pa*s (Liquid); method: Capillary tube (Ostwald; Ubbelohde) method
Temperature, K	Viscosity, Pa*s	uncertainty
303.15	0.000982	0.0001
308.15	0.000953	0.0001
313.15	0.000892	0.0001
318.15	0.000848	0.0001

System: bromobenzene; phases: Liquid
Fixed: Pressure, kPa = 100
Fixed: Frequency, MHz = 2
Property: Speed of sound, m/s (Liquid); method: Linear variable-path acoustic interferometer
Temperature, K	Speed of sound, m/s	uncertainty
303.15	1136	7
308.15	1122	6.9
313.15	1109	6.8
318.15	1099	6.7

System: chlorobenzene; phases: Liquid
Fixed: Pressure, kPa = 100
Property: Mass density, kg/m3 (Liquid); method: Vibrating tube method
Temperature, K	Mass density, kg/m3	uncertainty
303.15	1095.54	20
308.15	1089.72	20
313.15	1084.71	20
318.15	1079.45	20

System: chlorobenzene; phases: Liquid
Fixed: Pressure, kPa = 100
Property: Viscosity, Pa*s (Liquid); method: Capillary tube (Ostwald; Ubbelohde) method
Temperature, K	Viscosity, Pa*s	uncertainty
303.15	0.000712	0.0001
308.15	0.000675	0.0001
313.15	0.000634	0.0001
318.15	0.000602	0.0001001

System: chlorobenzene; phases: Liquid
Fixed: Pressure, kPa = 100
Fixed: Frequency, MHz = 2
Property: Speed of sound, m/s (Liquid); method: Linear variable-path acoustic interferometer
Temperature, K	Speed of sound, m/s	uncertainty
303.15	1248.2	7.7
308.15	1226	7.5
313.15	1206	7.4
318.15	1181	7.3

System: nitrobenzene; phases: Liquid
Fixed: Pressure, kPa = 100
Property: Mass density, kg/m3 (Liquid); method: Vibrating tube method
Temperature, K	Mass density, kg/m3	uncertainty
303.15	1193.45	20
308.15	1188.29	20
313.15	1183.69	20
318.15	1177.32	20

System: nitrobenzene; phases: Liquid
Fixed: Pressure, kPa = 100
Property: Viscosity, Pa*s (Liquid); method: Capillary tube (Ostwald; Ubbelohde) method
Temperature, K	Viscosity, Pa*s	uncertainty
303.15	0.001627	0.000101
308.15	0.001498	0.000101
313.15	0.001388	0.0001
318.15	0.001275	0.0001004

System: nitrobenzene; phases: Liquid
Fixed: Pressure, kPa = 100
Fixed: Frequency, MHz = 2
Property: Speed of sound, m/s (Liquid); method: Linear variable-path acoustic interferometer
Temperature, K	Speed of sound, m/s	uncertainty
303.15	1438	8.8
308.15	1420	8.7
313.15	1402	8.6
318.15	1385	8.5

System: 3-chlorobenzenamine + bromobenzene; phases: Liquid
Fixed: Pressure, kPa = 100
Property: Mass density, kg/m3 (Liquid); method: Vibrating tube method
Temperature, K	Mole fraction of 3-chlorobenzenamine	Mass density, kg/m3	uncertainty
303.15	0	1481.52	20
303.15	0.0902	1457.14	20
303.15	0.1842	1431.71	20
303.15	0.2789	1406	20
303.15	0.3759	1379.47	20
303.15	0.4745	1352.34	20
303.15	0.5763	1324.09	20
303.15	0.6782	1295.62	20
303.15	0.7852	1265.62	20
303.15	0.8914	1235.79	20
303.15	1	1205.32	20
308.15	0	1475.36	20
308.15	0.0902	1451.19	20
308.15	0.1842	1425.93	20
308.15	0.2789	1400.36	20
308.15	0.3759	1373.99	20
308.15	0.4745	1346.99	20
308.15	0.5763	1318.91	20
308.15	0.6782	1290.63	20
308.15	0.7852	1260.78	20
308.15	0.8914	1231.09	20
308.15	1	1200.75	20
313.15	0	1468.02	20
313.15	0.0902	1444.19	20
313.15	0.1842	1419.21	20
313.15	0.2789	1393.88	20
313.15	0.3759	1367.75	20
313.15	0.4745	1340.99	20
313.15	0.5763	1313.18	20
313.15	0.6782	1285.16	20
313.15	0.7852	1255.6	20
313.15	0.8914	1226.16	20
313.15	1	1196.02	20
318.15	0	1461.36	20
318.15	0.0902	1437.77	20
318.15	0.1842	1412.99	20
318.15	0.2789	1387.82	20
318.15	0.3759	1361.85	20
318.15	0.4745	1335.26	20
318.15	0.5763	1307.62	20
318.15	0.6782	1279.81	20
318.15	0.7852	1250.46	20
318.15	0.8914	1221.22	20
318.15	1	1191.25	20

System: 3-chlorobenzenamine + bromobenzene; phases: Liquid
Fixed: Pressure, kPa = 100
Property: Viscosity, Pa*s (Liquid); method: Capillary tube (Ostwald; Ubbelohde) method
Temperature, K	Mole fraction of 3-chlorobenzenamine	Viscosity, Pa*s	uncertainty
303.15	0	0.000982	0.0001
303.15	0.0902	0.001364	0.0001004
303.15	0.1842	0.0017405	0.0001006
303.15	0.2789	0.0021011	0.0001009
303.15	0.3759	0.0024536	0.0001012
303.15	0.4745	0.0027955	0.0001016
303.15	0.5763	0.0031308	0.000102
303.15	0.6782	0.0034464	0.0001025
303.15	0.7852	0.0037517	0.000103
303.15	0.8914	0.004022	0.0001035
303.15	1	0.0042554	0.0001041
308.15	0	0.000953	0.0001
308.15	0.0902	0.0013066	0.0001003
308.15	0.1842	0.0016502	0.0001006
308.15	0.2789	0.0019757	0.0001008
308.15	0.3759	0.002291	0.0001011
308.15	0.4745	0.0025928	0.0001015
308.15	0.5763	0.0028879	0.0001018
308.15	0.6782	0.0031663	0.0001022
308.15	0.7852	0.0034274	0.0001027
308.15	0.8914	0.0036573	0.0001031
308.15	1	0.003842	0.0001036
313.15	0	0.000892	0.0001
313.15	0.0902	0.0012233	0.0001003
313.15	0.1842	0.0015326	0.0001005
313.15	0.2789	0.0018256	0.0001007
313.15	0.3759	0.0021041	0.000101
313.15	0.4745	0.0023723	0.0001013
313.15	0.5763	0.0026325	0.0001016
313.15	0.6782	0.0028755	0.000102
313.15	0.7852	0.0031052	0.0001023
313.15	0.8914	0.0032934	0.0001027
313.15	1	0.0034302	0.0001032
318.15	0	0.000848	0.0001
318.15	0.0902	0.0011553	0.0001003
318.15	0.1842	0.0014367	0.0001005
318.15	0.2789	0.0016923	0.0001007
318.15	0.3759	0.001934	0.0001009
318.15	0.4745	0.0021646	0.0001011
318.15	0.5763	0.0023884	0.0001014
318.15	0.6782	0.0025952	0.0001018
318.15	0.7852	0.0027856	0.0001021
318.15	0.8914	0.0029336	0.0001025
318.15	1	0.0030224	0.0001028

System: 3-chlorobenzenamine + bromobenzene; phases: Liquid
Fixed: Pressure, kPa = 100
Fixed: Frequency, MHz = 2
Property: Speed of sound, m/s (Liquid); method: Linear variable-path acoustic interferometer
Temperature, K	Mole fraction of 3-chlorobenzenamine	Speed of sound, m/s	uncertainty
303.15	0	1136	7
303.15	0.0902	1162.5	7.1
303.15	0.1842	1191.5	7.3
303.15	0.2789	1222.1	7.5
303.15	0.3759	1255.1	7.7
303.15	0.4745	1290.5	7.9
303.15	0.5763	1329.2	8.1
303.15	0.6782	1370.2	8.4
303.15	0.7852	1416	8.6
303.15	0.8914	1464.5	8.9
303.15	1	1517.5	9.3
308.15	0	1122	6.9
308.15	0.0902	1148.3	7
308.15	0.1842	1177.1	7.2
308.15	0.2789	1207.4	7.4
308.15	0.3759	1240.2	7.6
308.15	0.4745	1275.4	7.8
308.15	0.5763	1313.8	8
308.15	0.6782	1354.7	8.3
308.15	0.7852	1400.3	8.6
308.15	0.8914	1448.6	8.8
308.15	1	1501.2	9.2
313.15	0	1109	6.8
313.15	0.0902	1134.9	6.9
313.15	0.1842	1163	7.1
313.15	0.2789	1192.8	7.3
313.15	0.3759	1224.9	7.5
313.15	0.4745	1259.3	7.7
313.15	0.5763	1296.9	7.9
313.15	0.6782	1336.9	8.2
313.15	0.7852	1381.6	8.4
313.15	0.8914	1428.7	8.7
313.15	1	1480.3	9
318.15	0	1099	6.7
318.15	0.0902	1124.6	6.9
318.15	0.1842	1152.3	7
318.15	0.2789	1181.7	7.2
318.15	0.3759	1213.3	7.4
318.15	0.4745	1247.3	7.6
318.15	0.5763	1284.5	7.8
318.15	0.6782	1324	8.1
318.15	0.7852	1368	8.3
318.15	0.8914	1414.5	8.6
318.15	1	1464.8	8.9

System: 3-chlorobenzenamine + chlorobenzene; phases: Liquid
Fixed: Pressure, kPa = 100
Property: Mass density, kg/m3 (Liquid); method: Vibrating tube method
Temperature, K	Mole fraction of 3-chlorobenzenamine	Mass density, kg/m3	uncertainty
303.15	0	1095.54	20
303.15	0.0895	1106.11	20
303.15	0.1802	1116.69	20
303.15	0.2935	1129.74	20
303.15	0.3821	1139.77	20
303.15	0.4956	1152.34	20
303.15	0.5823	1161.75	20
303.15	0.6923	1173.48	20
303.15	0.8012	1184.88	20
303.15	0.8856	1193.58	20
303.15	1	1205.32	20
308.15	0	1089.72	20
308.15	0.0895	1100.43	20
308.15	0.1802	1111.15	20
308.15	0.2935	1124.32	20
308.15	0.3821	1134.43	20
308.15	0.4956	1147.15	20
308.15	0.5823	1156.68	20
308.15	0.6923	1168.55	20
308.15	0.8012	1180.09	20
308.15	0.8856	1188.91	20
308.15	1	1200.75	20
313.15	0	1084.71	20
313.15	0.0895	1095.5	20
313.15	0.1802	1106.27	20
313.15	0.2935	1119.45	20
313.15	0.3821	1129.56	20
313.15	0.4956	1142.29	20
313.15	0.5823	1151.83	20
313.15	0.6923	1163.77	20
313.15	0.8012	1175.35	20
313.15	0.8856	1184.21	20
313.15	1	1196.02	20
318.15	0	1079.45	20
318.15	0.0895	1090.31	20
318.15	0.1802	1101.12	20
318.15	0.2935	1114.34	20
318.15	0.3821	1124.49	20
318.15	0.4956	1137.26	20
318.15	0.5823	1146.85	20
318.15	0.6923	1158.87	20
318.15	0.8012	1170.53	20
318.15	0.8856	1179.42	20
318.15	1	1191.25	20

System: 3-chlorobenzenamine + chlorobenzene; phases: Liquid
Fixed: Pressure, kPa = 100
Property: Viscosity, Pa*s (Liquid); method: Capillary tube (Ostwald; Ubbelohde) method
Temperature, K	Mole fraction of 3-chlorobenzenamine	Viscosity, Pa*s	uncertainty
303.15	0	0.000712	0.0001
303.15	0.0895	0.0011257	0.0001003
303.15	0.1802	0.0015164	0.0001005
303.15	0.2935	0.0019751	0.0001008
303.15	0.3821	0.002317	0.0001011
303.15	0.4956	0.0027376	0.0001016
303.15	0.5823	0.0030458	0.000102
303.15	0.6923	0.0034174	0.0001025
303.15	0.8012	0.0037561	0.000103
303.15	0.8856	0.0039909	0.0001034
303.15	1	0.0042554	0.0001041
308.15	0	0.000675	0.0001
308.15	0.0895	0.0010586	0.0001002
308.15	0.1802	0.0014177	0.0001004
308.15	0.2935	0.0018355	0.0001007
308.15	0.3821	0.0021446	0.000101
308.15	0.4956	0.0025221	0.0001014
308.15	0.5823	0.0027969	0.0001018
308.15	0.6923	0.0031256	0.0001022
308.15	0.8012	0.0034214	0.0001027
308.15	0.8856	0.0036227	0.0001031
308.15	1	0.003842	0.0001036
313.15	0	0.000634	0.0001
313.15	0.0895	0.0009961	0.0001002
313.15	0.1802	0.0013216	0.0001004
313.15	0.2935	0.0016965	0.0001006
313.15	0.3821	0.0019725	0.0001009
313.15	0.4956	0.0023065	0.0001012
313.15	0.5823	0.002548	0.0001015
313.15	0.6923	0.0028386	0.0001019
313.15	0.8012	0.0030972	0.0001024
313.15	0.8856	0.0032639	0.0001027
313.15	1	0.0034302	0.0001032
318.15	0	0.000602	0.0001001
318.15	0.0895	0.0009397	0.0001002
318.15	0.1802	0.0012381	0.0001004
318.15	0.2935	0.0015696	0.0001006
318.15	0.3821	0.0018085	0.0001008
318.15	0.4956	0.0020977	0.0001011
318.15	0.5823	0.0023077	0.0001014
318.15	0.6923	0.0025567	0.0001017
318.15	0.8012	0.0027731	0.0001021
318.15	0.8856	0.0029082	0.0001025
318.15	1	0.0030224	0.0001028

System: 3-chlorobenzenamine + chlorobenzene; phases: Liquid
Fixed: Pressure, kPa = 100
Fixed: Frequency, MHz = 2
Property: Speed of sound, m/s (Liquid); method: Linear variable-path acoustic interferometer
Temperature, K	Mole fraction of 3-chlorobenzenamine	Speed of sound, m/s	uncertainty
303.15	0	1248.2	7.7
303.15	0.0895	1265.6	7.8
303.15	0.1802	1284.1	7.9
303.15	0.2935	1308.9	8
303.15	0.3821	1329.6	8.1
303.15	0.4956	1358.1	8.3
303.15	0.5823	1381.5	8.5
303.15	0.6923	1413.3	8.6
303.15	0.8012	1447.5	8.8
303.15	0.8856	1476	9
303.15	1	1517.5	9.3
308.15	0	1226	7.5
308.15	0.0895	1243.5	7.6
308.15	0.1802	1262.3	7.7
308.15	0.2935	1287.4	7.9
308.15	0.3821	1308.4	8
308.15	0.4956	1337.4	8.2
308.15	0.5823	1361.3	8.3
308.15	0.6923	1393.9	8.5
308.15	0.8012	1429	8.7
308.15	0.8856	1458.3	8.9
308.15	1	1501.2	9.2
313.15	0	1206	7.4
313.15	0.0895	1223.6	7.5
313.15	0.1802	1242.2	7.6
313.15	0.2935	1267.1	7.8
313.15	0.3821	1288	7.9
313.15	0.4956	1316.8	8.1
313.15	0.5823	1340.5	8.2
313.15	0.6923	1373.1	8.4
313.15	0.8012	1408.2	8.6
313.15	0.8856	1437.5	8.8
313.15	1	1480.3	9
318.15	0	1181	7.3
318.15	0.0895	1198.7	7.4
318.15	0.1802	1217.7	7.5
318.15	0.2935	1243.1	7.6
318.15	0.3821	1264.5	7.8
318.15	0.4956	1294.2	7.9
318.15	0.5823	1318.8	8.1
318.15	0.6923	1352.6	8.3
318.15	0.8012	1389.2	8.5
318.15	0.8856	1419.9	8.7
318.15	1	1464.8	8.9

System: nitrobenzene + 3-chlorobenzenamine; phases: Liquid
Fixed: Pressure, kPa = 100
Property: Mass density, kg/m3 (Liquid); method: Vibrating tube method
Temperature, K	Mole fraction of 3-chlorobenzenamine	Mass density, kg/m3	uncertainty
303.15	0	1193.45	20
303.15	0.0812	1194.97	20
303.15	0.1725	1196.57	20
303.15	0.2623	1198.01	20
303.15	0.3725	1199.59	20
303.15	0.4854	1201	20
303.15	0.5896	1202.12	20
303.15	0.6785	1202.96	20
303.15	0.7825	1203.81	20
303.15	0.8905	1204.59	20
303.15	1	1205.32	20
308.15	0	1188.29	20
308.15	0.0812	1189.92	20
308.15	0.1725	1191.59	20
308.15	0.2623	1193.07	20
308.15	0.3725	1194.69	20
308.15	0.4854	1196.16	20
308.15	0.5896	1197.35	20
308.15	0.6785	1198.25	20
308.15	0.7825	1199.18	20
308.15	0.8905	1200.03	20
308.15	1	1200.75	20
313.15	0	1183.69	20
313.15	0.0812	1185.37	20
313.15	0.1725	1187.04	20
313.15	0.2623	1188.49	20
313.15	0.3725	1190.08	20
313.15	0.4854	1191.52	20
313.15	0.5896	1192.7	20
313.15	0.6785	1193.61	20
313.15	0.7825	1194.55	20
313.15	0.8905	1195.37	20
313.15	1	1196.02	20
318.15	0	1177.32	20
318.15	0.0812	1179.19	20
318.15	0.1725	1181	20
318.15	0.2623	1182.58	20
318.15	0.3725	1184.35	20
318.15	0.4854	1185.97	20
318.15	0.5896	1187.32	20
318.15	0.6785	1188.37	20
318.15	0.7825	1189.5	20
318.15	0.8905	1190.49	20
318.15	1	1191.25	20

System: nitrobenzene + 3-chlorobenzenamine; phases: Liquid
Fixed: Pressure, kPa = 100
Property: Viscosity, Pa*s (Liquid); method: Capillary tube (Ostwald; Ubbelohde) method
Temperature, K	Mole fraction of 3-chlorobenzenamine	Viscosity, Pa*s	uncertainty
303.15	0	0.001627	0.000101
303.15	0.0812	0.0019381	0.0001008
303.15	0.1725	0.0022529	0.0001011
303.15	0.2623	0.002537	0.0001013
303.15	0.3725	0.0028629	0.0001017
303.15	0.4854	0.0031789	0.0001021
303.15	0.5896	0.0034561	0.0001025
303.15	0.6785	0.0036787	0.0001029
303.15	0.7825	0.0039147	0.0001033
303.15	0.8905	0.0041171	0.0001036
303.15	1	0.0042554	0.0001041
308.15	0	0.001498	0.000101
308.15	0.0812	0.001787	0.0001007
308.15	0.1725	0.0020785	0.0001009
308.15	0.2623	0.0023401	0.0001012
308.15	0.3725	0.0026374	0.0001015
308.15	0.4854	0.0029219	0.0001019
308.15	0.5896	0.0031679	0.0001022
308.15	0.6785	0.0033625	0.0001025
308.15	0.7825	0.0035652	0.0001029
308.15	0.8905	0.003734	0.0001033
308.15	1	0.003842	0.0001036
313.15	0	0.001388	0.0001
313.15	0.0812	0.0016661	0.0001006
313.15	0.1725	0.0019345	0.0001008
313.15	0.2623	0.0021673	0.000101
313.15	0.3725	0.0024266	0.0001013
313.15	0.4854	0.0026738	0.0001016
313.15	0.5896	0.0028888	0.0001019
313.15	0.6785	0.0030591	0.0001022
313.15	0.7825	0.0032336	0.0001025
313.15	0.8905	0.0033687	0.0001028
313.15	1	0.0034302	0.0001032
318.15	0	0.001275	0.0001004
318.15	0.0812	0.0015417	0.0001006
318.15	0.1725	0.0017872	0.0001007
318.15	0.2623	0.0019919	0.0001009
318.15	0.3725	0.0022184	0.0001012
318.15	0.4854	0.0024304	0.0001015
318.15	0.5896	0.0026146	0.0001017
318.15	0.6785	0.0027549	0.000102
318.15	0.7825	0.0029016	0.0001023
318.15	0.8905	0.0030043	0.0001027
318.15	1	0.0030224	0.0001028

System: nitrobenzene + 3-chlorobenzenamine; phases: Liquid
Fixed: Pressure, kPa = 100
Fixed: Frequency, MHz = 2
Property: Speed of sound, m/s (Liquid); method: Linear variable-path acoustic interferometer
Temperature, K	Mole fraction of 3-chlorobenzenamine	Speed of sound, m/s	uncertainty
303.15	0	1438	8.8
303.15	0.0812	1445	8.8
303.15	0.1725	1452.6	8.9
303.15	0.2623	1460	8.9
303.15	0.3725	1468.9	9
303.15	0.4854	1478	9
303.15	0.5896	1486.4	9.1
303.15	0.6785	1493.5	9.1
303.15	0.7825	1501.6	9.2
303.15	0.8905	1509.8	9.2
303.15	1	1517.5	9.3
308.15	0	1420	8.7
308.15	0.0812	1427.2	8.7
308.15	0.1725	1435	8.8
308.15	0.2623	1442.5	8.8
308.15	0.3725	1451.6	8.9
308.15	0.4854	1460.9	8.9
308.15	0.5896	1469.4	9
308.15	0.6785	1476.7	9
308.15	0.7825	1485	9.1
308.15	0.8905	1493.4	9.1
308.15	1	1501.2	9.2
313.15	0	1402	8.6
313.15	0.0812	1409.1	8.6
313.15	0.1725	1416.6	8.7
313.15	0.2623	1423.8	8.7
313.15	0.3725	1432.6	8.7
313.15	0.4854	1441.5	8.8
313.15	0.5896	1449.8	8.9
313.15	0.6785	1456.8	8.9
313.15	0.7825	1465	8.9
313.15	0.8905	1473	9
313.15	1	1480.3	9
318.15	0	1385	8.5
318.15	0.0812	1392.1	8.5
318.15	0.1725	1399.7	8.5
318.15	0.2623	1407	8.6
318.15	0.3725	1415.8	8.6
318.15	0.4854	1424.9	8.7
318.15	0.5896	1433.4	8.7
318.15	0.6785	1440.7	8.8
318.15	0.7825	1449.1	8.8
318.15	0.8905	1457.3	8.9
318.15	1	1464.8	8.9
