Measured thermophysical data. Experimental diffusion coefficients of CO2 and H2S in some ionic liquids using semi-infinite volume method
Source: J. Chem. Thermodyn., 2019, 10.1016/j.jct.2019.02.022
Compound 1: hydrogen sulfide, H2S, InChI=1S/H2S/h1H2, purity 99.95%
Compound 2: carbon dioxide, CO2, InChI=1S/CO2/c2-1-3, purity 99.5%
Compound 3: 1-ethyl-3-methylimidazolium tris(pentafluoroethyl)trifluorophosphate, C12H11F18N2P, InChI=1S/C6F18P.C6H11N2/c7-1(8,9)4(16,17)25(22,23,24,5(18,19)2(10,11)12)6(20,21)3(13,14)15;1-3-8-5-4-7(2)6-8/h;4-6H,3H2,1-2H3/q-1;+1, purity 99%
Compound 4: 1-ethyl-3-methylimidazolium bis((trifluoromethyl)sulfonyl)imide, C8H11F6N3O4S2, InChI=1S/C6H11N2.C2F6NO4S2/c1-3-8-5-4-7(2)6-8;3-1(4,5)14(10,11)9-15(12,13)2(6,7)8/h4-6H,3H2,1-2H3;/q+1;-1, purity 99%
Compound 5: 1-(2-hydroxyethyl)-3-methylimidazolium bis[(trifluoromethyl)sulfonyl]imide, C8H11F6N3O5S2, InChI=1S/C6H11N2O.C2F6NO4S2/c1-7-2-3-8(6-7)4-5-9;3-1(4,5)14(10,11)9-15(12,13)2(6,7)8/h2-3,6,9H,4-5H2,1H3;/q+1;-1
Compound 6: 3-(2-hydroxyethyl)-1-methylimidazolium hexafluorophosphate, C6H11F6N2OP, InChI=1S/C6H11N2O.F6P/c1-7-2-3-8(6-7)4-5-9;1-7(2,3,4,5)6/h2-3,6,9H,4-5H2,1H3;/q+1;-1
Compound 7: 3-(2-hydroxyethyl)-1-methylimidazolium 1,1,1-trifluoromethanesulfonate, C7H11F3N2O4S, InChI=1S/C6H11N2O.CHF3O3S/c1-7-2-3-8(6-7)4-5-9;2-1(3,4)8(5,6)7/h2-3,6,9H,4-5H2,1H3;(H,5,6,7)/q+1;/p-1

System: carbon dioxide + 1-ethyl-3-methylimidazolium bis((trifluoromethyl)sulfonyl)imide; phases: Liquid
Fixed: Mole fraction of carbon dioxide = 0
Property: Binary diffusion coefficient, m2/s (Liquid); method: Gas absorption technique
Pressure, kPa	Temperature, K	Binary diffusion coefficient, m2/s	uncertainty
111.3	303.15	6.15e-10	0.058
113.7	313.15	7.22e-10	0.069
108.4	323.15	9.52e-10	0.09
113.2	333.15	1.192e-09	0.113
113.7	343.15	1.559e-09	0.148

System: carbon dioxide + 1-ethyl-3-methylimidazolium tris(pentafluoroethyl)trifluorophosphate; phases: Liquid
Fixed: Mole fraction of carbon dioxide = 0
Property: Binary diffusion coefficient, m2/s (Liquid); method: Gas absorption technique
Pressure, kPa	Temperature, K	Binary diffusion coefficient, m2/s	uncertainty
115.3	303.15	4.8e-10	0.046
115.3	313.15	6.17e-10	0.059
116.5	323.15	7.39e-10	0.07

System: carbon dioxide + 1-(2-hydroxyethyl)-3-methylimidazolium bis[(trifluoromethyl)sulfonyl]imide; phases: Liquid
Fixed: Mole fraction of carbon dioxide = 0
Property: Binary diffusion coefficient, m2/s (Liquid); method: Gas absorption technique
Pressure, kPa	Temperature, K	Binary diffusion coefficient, m2/s	uncertainty
106.2	303.15	1.31e-10	0.012
109.9	313.15	2.67e-10	0.025
111.2	323.15	3.97e-10	0.038

System: carbon dioxide + 3-(2-hydroxyethyl)-1-methylimidazolium hexafluorophosphate; phases: Liquid
Fixed: Mole fraction of carbon dioxide = 0
Property: Binary diffusion coefficient, m2/s (Liquid); method: Gas absorption technique
Pressure, kPa	Temperature, K	Binary diffusion coefficient, m2/s	uncertainty
105.6	303.15	1.39e-10	0.013
109.3	313.15	2.15e-10	0.02
110.6	323.15	2.7e-10	0.026

System: hydrogen sulfide + 1-ethyl-3-methylimidazolium bis((trifluoromethyl)sulfonyl)imide; phases: Liquid
Fixed: Mole fraction of hydrogen sulfide = 0
Property: Binary diffusion coefficient, m2/s (Liquid); method: Gas absorption technique
Pressure, kPa	Temperature, K	Binary diffusion coefficient, m2/s	uncertainty
109.8	303.15	7.98e-10	0.076
108.6	313.15	9.06e-10	0.086
109.4	323.15	1.168e-09	0.111

System: hydrogen sulfide + 1-ethyl-3-methylimidazolium tris(pentafluoroethyl)trifluorophosphate; phases: Liquid
Fixed: Mole fraction of hydrogen sulfide = 0
Property: Binary diffusion coefficient, m2/s (Liquid); method: Gas absorption technique
Pressure, kPa	Temperature, K	Binary diffusion coefficient, m2/s	uncertainty
114.5	303.15	4.37e-10	0.042
115.5	313.15	5.6e-10	0.053
115.5	323.15	7.7e-10	0.073

System: hydrogen sulfide + 1-(2-hydroxyethyl)-3-methylimidazolium bis[(trifluoromethyl)sulfonyl]imide; phases: Liquid
Fixed: Mole fraction of hydrogen sulfide = 0
Property: Binary diffusion coefficient, m2/s (Liquid); method: Gas absorption technique
Pressure, kPa	Temperature, K	Binary diffusion coefficient, m2/s	uncertainty
111.7	303.15	2.07e-10	0.02
113.9	313.15	3.35e-10	0.032
114.5	323.15	5.51e-10	0.052

System: hydrogen sulfide + 3-(2-hydroxyethyl)-1-methylimidazolium hexafluorophosphate; phases: Liquid
Fixed: Mole fraction of hydrogen sulfide = 0
Property: Binary diffusion coefficient, m2/s (Liquid); method: Gas absorption technique
Pressure, kPa	Temperature, K	Binary diffusion coefficient, m2/s	uncertainty
111.3	303.15	1.55e-10	0.015
113.7	313.15	2.37e-10	0.023
108.4	323.15	3.74e-10	0.036

System: hydrogen sulfide + 3-(2-hydroxyethyl)-1-methylimidazolium 1,1,1-trifluoromethanesulfonate; phases: Liquid
Fixed: Mole fraction of hydrogen sulfide = 0
Property: Binary diffusion coefficient, m2/s (Liquid); method: Gas absorption technique
Pressure, kPa	Temperature, K	Binary diffusion coefficient, m2/s	uncertainty
107	303.15	2.28e-10	0.022
109.6	313.15	2.93e-10	0.028
113.9	323.15	3.66e-10	0.035
