Measured thermophysical data. Thermodynamics of (ketone + amine) mixtures. Part XI. Excess molar enthalpies at T = 298.15 K for the (1-propanol + N,N,N-triethylamine + 2-butanone) system
Source: J. Chem. Thermodyn., 2014, 10.1016/j.jct.2013.09.026
Compound 1: propan-1-ol, C3H8O, InChI=1S/C3H8O/c1-2-3-4/h4H,2-3H2,1H3, purity 99.5%
Compound 2: butanone, C4H8O, InChI=1S/C4H8O/c1-3-4(2)5/h3H2,1-2H3, purity 99.5%
Compound 3: triethylamine, C6H15N, InChI=1S/C6H15N/c1-4-7(5-2)6-3/h4-6H2,1-3H3, purity 99.5%

System: propan-1-ol; phases: Liquid
Property: Mass density, kg/m3 (Liquid); method: Vibrating tube method
Temperature, K	Pressure, kPa	Mass density, kg/m3	uncertainty
298.15	101.325	799.656	0.169

System: butanone; phases: Liquid
Property: Mass density, kg/m3 (Liquid); method: Vibrating tube method
Temperature, K	Pressure, kPa	Mass density, kg/m3	uncertainty
298.15	101.325	799.969	0.169

System: triethylamine; phases: Liquid
Property: Mass density, kg/m3 (Liquid); method: Vibrating tube method
Temperature, K	Pressure, kPa	Mass density, kg/m3	uncertainty
298.15	101.325	722.814	0.186

System: propan-1-ol + butanone + triethylamine; phases: Liquid
Fixed: Pressure, kPa = 101
Fixed: Temperature, K = 298.15
Property: Excess molar enthalpy (molar enthalpy of mixing), kJ/mol (Liquid); method: Calvet calorimetry
Mole fraction of triethylamine	Mole fraction of propan-1-ol	Excess molar enthalpy (molar enthalpy of mixing), kJ/mol	uncertainty
0.2272	0.0769	0.482	0.011
0.2141	0.1301	0.458	0.01
0.2043	0.1697	0.441	0.01
0.1913	0.2225	0.425	0.01
0.1791	0.2723	0.412	0.01
0.1684	0.3157	0.405	0.009
0.1576	0.3598	0.399	0.01
0.1469	0.4031	0.398	0.01
0.1342	0.4547	0.393	0.01
0.1223	0.503	0.388	0.011
0.1113	0.5479	0.38	0.011
0.1004	0.5922	0.373	0.012
0.0869	0.6467	0.359	0.013
0.0751	0.6947	0.336	0.013
0.064	0.7399	0.313	0.014
0.0507	0.7939	0.271	0.014
0.0415	0.8313	0.239	0.015
0.0293	0.8811	0.182	0.016
0.0164	0.9332	0.107	0.016
0.4711	0.0691	0.521	0.012
0.4488	0.1133	0.393	0.01
0.4215	0.1672	0.255	0.007
0.3942	0.2211	0.124	0.006
0.3718	0.2653	0.022	0.005
0.3487	0.3111	-0.064	0.006
0.3234	0.361	-0.14	0.006
0.3051	0.3971	-0.191	0.008
0.2771	0.4524	-0.279	0.009
0.2515	0.5031	-0.312	0.01
0.2261	0.5533	-0.345	0.011
0.2011	0.6027	-0.347	0.012
0.1796	0.6451	-0.377	0.013
0.1539	0.696	-0.336	0.013
0.1272	0.7487	-0.31	0.014
0.1011	0.8002	-0.259	0.014
0.0808	0.8403	-0.228	0.014
0.055	0.8914	-0.169	0.015
0.0299	0.941	-0.105	0.016
0.6765	0.0944	0.259	0.008
0.6385	0.1453	0.038	0.006
0.6036	0.192	-0.133	0.006
0.5808	0.2225	-0.23	0.008
0.5446	0.2709	-0.371	0.01
0.5159	0.3094	-0.471	0.012
0.4743	0.3651	-0.626	0.015
0.4439	0.4057	-0.691	0.016
0.4061	0.4563	-0.771	0.018
0.3738	0.4996	-0.852	0.02
0.3335	0.5535	-0.897	0.021
0.3016	0.5963	-0.927	0.022
0.263	0.6479	-0.909	0.021
0.2243	0.6997	-0.877	0.021
0.1876	0.7488	-0.813	0.021
0.156	0.7911	-0.719	0.019
0.1224	0.8362	-0.619	0.018
0.0843	0.8872	-0.477	0.018
0.0496	0.9336	-0.313	0.018
