Measured thermophysical data. Synergistic effect of salts and methanol in thermodynamic inhibition of sII gas hydrates
Source: J. Chem. Thermodyn., 2019, 10.1016/j.jct.2019.05.013
Compound 1: water, H2O, InChI=1S/H2O/h1H2
Compound 2: methanol, CH4O, InChI=1S/CH4O/c1-2/h2H,1H3, purity 99.99%

System: methanol; phases: Liquid
Property: Refractive index (Na D-line) (Liquid); method: Standard Abbe refractometry
Temperature, K	Pressure, kPa	Refractive index (Na D-line)	uncertainty
293.15	101.325	1.32858	0.000402

System: methanol + water; phases: Liquid
Fixed: Pressure, kPa = 100
Property: Mass density, kg/m3 (Liquid); method: Vibrating tube method
Mass fraction of methanol	Temperature, K	Mass density, kg/m3	uncertainty
0	293.15	998.21	1
0.1	293.15	981.29	1
0.2	293.15	966.62	1
0.3001	293.15	951.49	1
0.4	293.15	934.6	1.01
0.4999	293.15	915.53	1.01
0	275.15	999.94	1
0.1	273.15	984.19	1
0.2	273.15	972.46	1
0.3001	273.15	960.61	1
0.4	273.15	945.89	1
0.4999	273.15	928.63	1.01

System: methanol + water; phases: Liquid
Fixed: Pressure, kPa = 100
Property: Viscosity, Pa*s (Liquid); method: Falling or rolling sphere viscometry
Mass fraction of methanol	Temperature, K	Viscosity, Pa*s	uncertainty
0	293.15	0.000998	2.1e-05
0.1	293.15	0.001316	2.8e-05
0.2	293.15	0.001623	3.5e-05
0.3001	293.15	0.001782	3.8e-05
0.4	293.15	0.001824	3.9e-05
0.4999	293.15	0.001747	3.7e-05
0	275.15	0.001661	3.5e-05
0.1	273.15	0.002575	5.5e-05
0.2	273.15	0.003315	7e-05
0.3001	273.15	0.003636	7.7e-05
0.4	273.15	0.003623	7.7e-05
0.4999	273.15	0.003312	7e-05
