Measured thermophysical data. Salt effect on (liquid + liquid) equilibrium of (water + tertbutanol + 1-butanol) system: Experimental data and correlation
Source: J. Chem. Thermodyn., 2006, 10.1016/j.jct.2005.03.025
Compound 1: water, H2O, InChI=1S/H2O/h1H2
Compound 2: 2-methylpropan-2-ol, C4H10O, InChI=1S/C4H10O/c1-4(2,3)5/h5H,1-3H3, purity 99%
Compound 3: butan-1-ol, C4H10O, InChI=1S/C4H10O/c1-2-3-4-5/h5H,2-4H2,1H3, purity 99%

System: butan-1-ol + 2-methylpropan-2-ol + water; phases: Liquid mixture 1, Liquid mixture 2
Fixed: Pressure, kPa = 101.3
Property: Mass fraction of butan-1-ol (Liquid mixture 1); method: Chromatography
Property: Mass fraction of 2-methylpropan-2-ol (Liquid mixture 2); method: Chromatography
Property: Mass fraction of butan-1-ol (Liquid mixture 2); method: Chromatography
Temperature, K	Mass fraction of 2-methylpropan-2-ol	Mass fraction of butan-1-ol	uncertainty	Mass fraction of 2-methylpropan-2-ol	uncertainty	Mass fraction of butan-1-ol	uncertainty
293.15	0.0904	0.0395	0.0104	0.2956	0.0119	0.3966	
293.15	0.0763	0.0434	0.0102	0.2567	0.0116	0.461	
293.15	0.0596	0.0457	0.0102	0.2317	0.0119	0.5127	
293.15	0.0403	0.0498	0.01	0.1901	0.0122	0.5679	
293.15	0.0169	0.0446	0.01	0.1648	0.0118	0.6117	
293.15	0.0045	0.0372	0.01	0.1411	0.0118	0.648	
313.15	0.048	0.0823	0.0102	0.1463	0.0128	0.6128	
313.15	0.0556	0.0808	0.0104	0.1651	0.0128	0.5889	
313.15	0.0632	0.0792	0.0103	0.1839	0.0123	0.565	
313.15	0.0707	0.0765	0.0104	0.2038	0.0124	0.5344	
313.15	0.0794	0.0743	0.0105	0.225	0.0124	0.5084	
313.15	0.0858	0.0721	0.0104	0.2425	0.0118	0.4798	
