Measured thermophysical data. Aluminum dihydrogen tripolyphosphate: Thermodynamic characteristics
Source: J. Chem. Thermodyn., 2017, 10.1016/j.jct.2017.03.017
Compound 1: aluminum, Al, InChI=1S/Al
Compound 2: phosphorus, P, InChI=1S/P
Compound 3: hydrogen, H2, InChI=1S/H2/h1H
Compound 4: oxygen, O2, InChI=1S/O2/c1-2
Compound 5: aluminum dihydrogen tripolyphosphate dihydrate, AlH6O12P3, InChI=1S/Al.H5O10P3.2H2O/c;1-11(2,3)9-13(7,8)10-12(4,5)6;;/h;(H,7,8)(H2,1,2,3)(H2,4,5,6);2*1H2/q+3;;;/p-3, purity 99%

Reaction: -1 aluminum + -3 phosphorus + 1 aluminum dihydrogen tripolyphosphate dihydrate + -3 hydrogen + -6 oxygen
Property: Molar enthalpy of reaction, kJ/mol
-3734.64
