Measured thermophysical data. Thermodynamic properties of ternary mixtures containing 1-ethyl-3-methylimidazolium tetrafluoroborate with cyclic amides and cyclopentanone or cyclohexanone at T = (293.15, 298.15, 303.15 and 308.15) K
Source: J. Chem. Thermodyn., 2015, 10.1016/j.jct.2015.02.018
Compound 1: 1-ethyl-3-methylimidazolium tetrafluoroborate, C6H11BF4N2, InChI=1S/C6H11N2.BF4/c1-3-8-5-4-7(2)6-8;2-1(3,4)5/h4-6H,3H2,1-2H3;/q+1;-1, purity 97%
Compound 2: 2-pyrrolidinone, C4H7NO, InChI=1S/C4H7NO/c6-4-2-1-3-5-4/h1-3H2,(H,5,6), purity 98%
Compound 3: N-methylpyrrolidone, C5H9NO, InChI=1S/C5H9NO/c1-6-4-2-3-5(6)7/h2-4H2,1H3, purity 98%
Compound 4: cyclopentanone, C5H8O, InChI=1S/C5H8O/c6-5-3-1-2-4-5/h1-4H2, purity 98%
Compound 5: cyclohexanone, C6H10O, InChI=1S/C6H10O/c7-6-4-2-1-3-5-6/h1-5H2, purity 98%

System: cyclopentanone + 2-pyrrolidinone + 1-ethyl-3-methylimidazolium tetrafluoroborate; phases: Liquid
Fixed: Pressure, kPa = 100
Property: Mass density, kg/m3 (Liquid); method: Vibrating tube method
Temperature, K	Mole fraction of 1-ethyl-3-methylimidazolium tetrafluoroborate	Mole fraction of 2-pyrrolidinone	Mass density, kg/m3	uncertainty
293.15	0.0959	0.8091	1131.3	4
293.15	0.1123	0.7921	1136.6	4
293.15	0.1232	0.7656	1138.6	4
293.15	0.1445	0.7338	1143.6	4
293.15	0.2021	0.6766	1159.3	4
293.15	0.2211	0.6456	1163.6	4
293.15	0.2656	0.5898	1173.5	4
293.15	0.2882	0.5514	1177.4	4
293.15	0.3221	0.4965	1183.3	4
293.15	0.3422	0.4667	1187	4
293.15	0.3864	0.4268	1196.7	4
293.15	0.4189	0.3978	1203.4	4
293.15	0.4777	0.3435	1214.3	4
293.15	0.5234	0.2998	1221.6	4
293.15	0.5476	0.2795	1225.5	4.1
293.15	0.5717	0.2588	1229	4.1
293.15	0.5845	0.2478	1230.7	4.1
293.15	0.5964	0.2399	1232.6	4.1
293.15	0.6176	0.2211	1235.2	4.1
293.15	0.6221	0.2187	1236	4.1
293.15	0.6354	0.2082	1237.7	4.1
293.15	0.6587	0.1898	1240.6	4.1
293.15	0.6688	0.182	1241.9	4.1
293.15	0.6786	0.1766	1243.4	4.1
293.15	0.6926	0.1676	1245.3	4.1
293.15	0.7266	0.1387	1248.7	4.1
293.15	0.7369	0.1289	1249.5	4.1
298.15	0.0959	0.8091	1127.2	4
298.15	0.1123	0.7921	1132.5	4
298.15	0.1232	0.7656	1134.3	4
298.15	0.1445	0.7338	1139.9	4
298.15	0.2021	0.6766	1155.6	4
298.15	0.2211	0.6456	1159.8	4
298.15	0.2656	0.5898	1169.7	4
298.15	0.2882	0.5514	1173.7	4
298.15	0.3221	0.4965	1179.7	4
298.15	0.3422	0.4667	1183.4	4
298.15	0.3864	0.4268	1193.3	4
298.15	0.4189	0.3978	1200	4
298.15	0.4777	0.3435	1211	4
298.15	0.5234	0.2998	1218.4	4
298.15	0.5476	0.2795	1222.3	4.1
298.15	0.5717	0.2588	1225.8	4.1
298.15	0.5845	0.2478	1227.6	4.1
298.15	0.5964	0.2399	1229.5	4.1
298.15	0.6176	0.2211	1232.1	4.1
298.15	0.6221	0.2187	1232.9	4.1
298.15	0.6354	0.2082	1234.6	4.1
298.15	0.6587	0.1898	1237.5	4.1
298.15	0.6688	0.182	1238.7	4.1
298.15	0.6786	0.1766	1240.2	4.1
298.15	0.6926	0.1676	1242.1	4.1
298.15	0.7266	0.1387	1245.5	4.1
298.15	0.7369	0.1289	1246.3	4.1
303.15	0.0959	0.8091	1123.5	4
303.15	0.1123	0.7921	1128.8	4
303.15	0.1232	0.7656	1130.6	4
303.15	0.1445	0.7338	1136	4
303.15	0.2021	0.6766	1151.9	4
303.15	0.2211	0.6456	1156	4
303.15	0.2656	0.5898	1165.9	4
303.15	0.2882	0.5514	1169.9	4
303.15	0.3221	0.4965	1176	4
303.15	0.3422	0.4667	1179.7	4
303.15	0.3864	0.4268	1189.5	4
303.15	0.4189	0.3978	1196.3	4
303.15	0.4777	0.3435	1207.4	4
303.15	0.5234	0.2998	1214.9	4
303.15	0.5476	0.2795	1218.8	4
303.15	0.5717	0.2588	1222.3	4.1
303.15	0.5845	0.2478	1224.1	4.1
303.15	0.5964	0.2399	1226	4.1
303.15	0.6176	0.2211	1229	4.1
303.15	0.6221	0.2187	1229.6	4.1
303.15	0.6354	0.2082	1231.6	4.1
303.15	0.6587	0.1898	1234.8	4.1
303.15	0.6688	0.182	1235.7	4.1
303.15	0.6786	0.1766	1237.1	4.1
303.15	0.6926	0.1676	1239.2	4.1
303.15	0.7266	0.1387	1242.9	4.1
303.15	0.7369	0.1289	1243.7	4.1
308.15	0.0959	0.8091	1119.4	4
308.15	0.1123	0.7921	1124.2	4
308.15	0.1232	0.7656	1126.6	4
308.15	0.1445	0.7338	1132.4	4
308.15	0.2021	0.6766	1147.8	4
308.15	0.2211	0.6456	1151.9	4
308.15	0.2656	0.5898	1161.9	4
308.15	0.2882	0.5514	1165.8	4
308.15	0.3221	0.4965	1172	4
308.15	0.3422	0.4667	1175.7	4
308.15	0.3864	0.4268	1185.6	4
308.15	0.4189	0.3978	1192.4	4
308.15	0.4777	0.3435	1203.5	4
308.15	0.5234	0.2998	1211	4
308.15	0.5476	0.2795	1214.9	4.1
308.15	0.5717	0.2588	1218.5	4.1
308.15	0.5845	0.2478	1220.3	4.1
308.15	0.5964	0.2399	1222.2	4.1
308.15	0.6176	0.2211	1224.8	4.1
308.15	0.6221	0.2187	1225.6	4.1
308.15	0.6354	0.2082	1227.3	4.1
308.15	0.6587	0.1898	1230.2	4.1
308.15	0.6688	0.182	1231.5	4.1
308.15	0.6786	0.1766	1232.9	4.1
308.15	0.6926	0.1676	1234.8	4.1
308.15	0.7266	0.1387	1238.2	4.1
308.15	0.7369	0.1289	1239	4.1

System: cyclopentanone + 2-pyrrolidinone + 1-ethyl-3-methylimidazolium tetrafluoroborate; phases: Liquid
Fixed: Pressure, kPa = 100
Fixed: Frequency, MHz = 3
Property: Speed of sound, m/s (Liquid); method: Sing-around technique in a fixed-path interferometer
Temperature, K	Mole fraction of 1-ethyl-3-methylimidazolium tetrafluoroborate	Mole fraction of 2-pyrrolidinone	Speed of sound, m/s	uncertainty
293.15	0.0959	0.8091	1629.1	2.3
293.15	0.1123	0.7921	1628.5	2.3
293.15	0.1232	0.7656	1627.6	2.3
293.15	0.1445	0.7338	1626.8	2.4
293.15	0.2021	0.6766	1624	2.4
293.15	0.2211	0.6456	1622.8	2.4
293.15	0.2656	0.5898	1620.4	2.4
293.15	0.2882	0.5514	1618.7	2.4
293.15	0.3221	0.4965	1615.7	2.4
293.15	0.3422	0.4667	1613.6	2.4
293.15	0.3864	0.4268	1616.5	2.5
293.15	0.4189	0.3978	1618.6	2.5
293.15	0.4777	0.3435	1621.5	2.5
293.15	0.5234	0.2998	1623.4	2.5
293.15	0.5476	0.2795	1625.3	2.5
293.15	0.5717	0.2588	1626.8	2.5
293.15	0.5845	0.2478	1627.9	2.6
293.15	0.5964	0.2399	1629.1	2.6
293.15	0.6176	0.2211	1630.5	2.6
293.15	0.6221	0.2187	1631	2.6
293.15	0.6354	0.2082	1631.8	2.6
293.15	0.6587	0.1898	1633.8	2.6
293.15	0.6688	0.182	1634.4	2.6
293.15	0.6786	0.1766	1635.4	2.6
293.15	0.6926	0.1676	1636.6	2.6
293.15	0.7266	0.1387	1638.7	2.6
293.15	0.7369	0.1289	1639.5	2.6
298.15	0.0959	0.8091	1619.1	2.3
298.15	0.1123	0.7921	1618.5	2.3
298.15	0.1232	0.7656	1617.8	2.3
298.15	0.1445	0.7338	1616.2	2.4
298.15	0.2021	0.6766	1614.6	2.4
298.15	0.2211	0.6456	1613.2	2.4
298.15	0.2656	0.5898	1610.2	2.4
298.15	0.2882	0.5514	1608.8	2.4
298.15	0.3221	0.4965	1604.3	2.4
298.15	0.3422	0.4667	1602.3	2.4
298.15	0.3864	0.4268	1605.6	2.5
298.15	0.4189	0.3978	1607.8	2.5
298.15	0.4777	0.3435	1610.5	2.5
298.15	0.5234	0.2998	1612	2.5
298.15	0.5476	0.2795	1613.6	2.5
298.15	0.5717	0.2588	1615	2.5
298.15	0.5845	0.2478	1615.7	2.5
298.15	0.5964	0.2399	1616.8	2.6
298.15	0.6176	0.2211	1617.9	2.6
298.15	0.6221	0.2187	1618.4	2.6
298.15	0.6354	0.2082	1619.3	2.6
298.15	0.6587	0.1898	1620.9	2.6
298.15	0.6688	0.182	1621.5	2.6
298.15	0.6786	0.1766	1622.3	2.6
298.15	0.6926	0.1676	1623.3	2.6
298.15	0.7266	0.1387	1625.1	2.6
298.15	0.7369	0.1289	1625.6	2.6
303.15	0.0959	0.8091	1607.4	2.3
303.15	0.1123	0.7921	1606.3	2.3
303.15	0.1232	0.7656	1605.5	2.3
303.15	0.1445	0.7338	1604.8	2.4
303.15	0.2021	0.6766	1600.7	2.4
303.15	0.2211	0.6456	1599.2	2.4
303.15	0.2656	0.5898	1596.6	2.4
303.15	0.2882	0.5514	1594.3	2.4
303.15	0.3221	0.4965	1590.7	2.4
303.15	0.3422	0.4667	1588.3	2.4
303.15	0.3864	0.4268	1592.6	2.5
303.15	0.4189	0.3978	1595.6	2.5
303.15	0.4777	0.3435	1598.8	2.5
303.15	0.5234	0.2998	1600.4	2.5
303.15	0.5476	0.2795	1602	2.6
303.15	0.5717	0.2588	1603.5	2.5
303.15	0.5845	0.2478	1604.2	2.6
303.15	0.5964	0.2399	1605.4	2.6
303.15	0.6176	0.2211	1606.3	2.6
303.15	0.6221	0.2187	1607	2.6
303.15	0.6354	0.2082	1607.7	2.6
303.15	0.6587	0.1898	1609	2.6
303.15	0.6688	0.182	1609.9	2.6
303.15	0.6786	0.1766	1610.8	2.6
303.15	0.6926	0.1676	1611.7	2.6
303.15	0.7266	0.1387	1612.7	2.6
303.15	0.7369	0.1289	1613.7	2.6
308.15	0.0959	0.8091	1592.4	2.3
308.15	0.1123	0.7921	1591.1	2.3
308.15	0.1232	0.7656	1590.7	2.3
308.15	0.1445	0.7338	1589.6	2.4
308.15	0.2021	0.6766	1586.7	2.4
308.15	0.2211	0.6456	1585.3	2.4
308.15	0.2656	0.5898	1582	2.4
308.15	0.2882	0.5514	1578.8	2.4
308.15	0.3221	0.4965	1574.9	2.4
308.15	0.3422	0.4667	1573.2	2.4
308.15	0.3864	0.4268	1577.3	2.5
308.15	0.4189	0.3978	1580.1	2.5
308.15	0.4777	0.3435	1583.9	2.5
308.15	0.5234	0.2998	1586.2	2.5
308.15	0.5476	0.2795	1588.1	2.5
308.15	0.5717	0.2588	1589.8	2.5
308.15	0.5845	0.2478	1590.6	2.5
308.15	0.5964	0.2399	1591.9	2.6
308.15	0.6176	0.2211	1593.1	2.6
308.15	0.6221	0.2187	1593.7	2.6
308.15	0.6354	0.2082	1594.6	2.6
308.15	0.6587	0.1898	1596.2	2.6
308.15	0.6688	0.182	1596.9	2.6
308.15	0.6786	0.1766	1597.8	2.6
308.15	0.6926	0.1676	1598.8	2.6
308.15	0.7266	0.1387	1600.3	2.6
308.15	0.7369	0.1289	1600.7	2.6

System: cyclohexanone + 2-pyrrolidinone + 1-ethyl-3-methylimidazolium tetrafluoroborate; phases: Liquid
Fixed: Pressure, kPa = 100
Property: Mass density, kg/m3 (Liquid); method: Vibrating tube method
Temperature, K	Mole fraction of 1-ethyl-3-methylimidazolium tetrafluoroborate	Mole fraction of 2-pyrrolidinone	Mass density, kg/m3	uncertainty
293.15	0.1567	0.7567	1144.9	4
293.15	0.1734	0.7346	1148.4	4
293.15	0.1931	0.6987	1150.5	4
293.15	0.2012	0.6876	1152.1	4
293.15	0.2219	0.6514	1154.4	4
293.15	0.2441	0.6166	1157.6	4
293.15	0.2638	0.5876	1160.7	4
293.15	0.2877	0.5511	1164.2	4
293.15	0.3045	0.5265	1166.8	4
293.15	0.3279	0.4956	1170.9	4
293.15	0.3469	0.4734	1174.6	4
293.15	0.3618	0.4525	1177	4
293.15	0.3845	0.4275	1181.5	4
293.15	0.4098	0.3998	1186.6	4
293.15	0.4302	0.3776	1190.6	4
293.15	0.4545	0.3568	1195.9	4
293.15	0.4734	0.3394	1199.8	4
293.15	0.4984	0.3176	1205	4
293.15	0.5355	0.2889	1212.7	4
293.15	0.5838	0.2485	1222	4.1
293.15	0.6256	0.2148	1229.6	4.1
293.15	0.6498	0.1956	1233.8	4.1
293.15	0.6576	0.1891	1235.1	4.1
293.15	0.6719	0.1789	1237.5	4.1
293.15	0.6866	0.1699	1240.1	4.1
293.15	0.7056	0.1587	1243.3	4.1
293.15	0.7204	0.1497	1245.7	4.1
298.15	0.1567	0.7567	1141	4
298.15	0.1734	0.7346	1144.6	4
298.15	0.1931	0.6987	1146.6	4
298.15	0.2012	0.6876	1148.2	4
298.15	0.2219	0.6514	1150.5	4
298.15	0.2441	0.6166	1153.7	4
298.15	0.2638	0.5876	1156.8	4
298.15	0.2877	0.5511	1160.2	4
298.15	0.3045	0.5265	1162.8	4
298.15	0.3279	0.4956	1166.9	4
298.15	0.3469	0.4734	1170.6	4
298.15	0.3618	0.4525	1173	4
298.15	0.3845	0.4275	1177.6	4
298.15	0.4098	0.3998	1182.6	4
298.15	0.4302	0.3776	1186.6	4
298.15	0.4545	0.3568	1192	4
298.15	0.4734	0.3394	1195.9	4
298.15	0.4984	0.3176	1201.1	4
298.15	0.5355	0.2889	1208.8	4
298.15	0.5838	0.2485	1218.1	4.1
298.15	0.6256	0.2148	1225.8	4.1
298.15	0.6498	0.1956	1230	4.1
298.15	0.6576	0.1891	1231.3	4.1
298.15	0.6719	0.1789	1233.7	4.1
298.15	0.6866	0.1699	1236.2	4.1
298.15	0.7056	0.1587	1239.4	4.1
298.15	0.7204	0.1497	1241.8	4.1
303.15	0.1567	0.7567	1137.3	4
303.15	0.1734	0.7346	1140.8	4
303.15	0.1931	0.6987	1142.8	4
303.15	0.2012	0.6876	1144.4	4
303.15	0.2219	0.6514	1146.7	4
303.15	0.2441	0.6166	1149.8	4
303.15	0.2638	0.5876	1152.9	4
303.15	0.2877	0.5511	1156.3	4
303.15	0.3045	0.5265	1158.9	4
303.15	0.3279	0.4956	1163	4
303.15	0.3469	0.4734	1166.7	4
303.15	0.3618	0.4525	1169.1	4
303.15	0.3845	0.4275	1173.7	4
303.15	0.4098	0.3998	1178.8	4
303.15	0.4302	0.3776	1182.9	4
303.15	0.4545	0.3568	1188.2	4
303.15	0.4734	0.3394	1192.1	4
303.15	0.4984	0.3176	1197.4	4
303.15	0.5355	0.2889	1205.1	4
303.15	0.5838	0.2485	1214.5	4
303.15	0.6256	0.2148	1222.2	4.1
303.15	0.6498	0.1956	1226.4	4.1
303.15	0.6576	0.1891	1227.7	4.1
303.15	0.6719	0.1789	1230.2	4.1
303.15	0.6866	0.1699	1232.7	4.1
303.15	0.7056	0.1587	1235.9	4.1
303.15	0.7204	0.1497	1238.3	4.1
308.15	0.1567	0.7567	1133.2	4
308.15	0.1734	0.7346	1136.7	4
308.15	0.1931	0.6987	1138.7	4
308.15	0.2012	0.6876	1140.2	4
308.15	0.2219	0.6514	1142.5	4
308.15	0.2441	0.6166	1145.7	4
308.15	0.2638	0.5876	1148.7	4
308.15	0.2877	0.5511	1152.2	4
308.15	0.3045	0.5265	1154.7	4
308.15	0.3279	0.4956	1158.9	4
308.15	0.3469	0.4734	1162.6	4
308.15	0.3618	0.4525	1165	4
308.15	0.3845	0.4275	1169.7	4
308.15	0.4098	0.3998	1174.8	4
308.15	0.4302	0.3776	1178.9	4
308.15	0.4545	0.3568	1184.2	4
308.15	0.4734	0.3394	1188.2	4
308.15	0.4984	0.3176	1193.5	4
308.15	0.5355	0.2889	1201.3	4
308.15	0.5838	0.2485	1210.7	4
308.15	0.6256	0.2148	1218.5	4.1
308.15	0.6498	0.1956	1222.8	4.1
308.15	0.6576	0.1891	1224.1	4.1
308.15	0.6719	0.1789	1226.5	4.1
308.15	0.6866	0.1699	1229.1	4.1
308.15	0.7056	0.1587	1232.2	4.1
308.15	0.7204	0.1497	1234.6	4.1

System: cyclohexanone + 2-pyrrolidinone + 1-ethyl-3-methylimidazolium tetrafluoroborate; phases: Liquid
Fixed: Pressure, kPa = 100
Fixed: Frequency, MHz = 3
Property: Speed of sound, m/s (Liquid); method: Sing-around technique in a fixed-path interferometer
Temperature, K	Mole fraction of 1-ethyl-3-methylimidazolium tetrafluoroborate	Mole fraction of 2-pyrrolidinone	Speed of sound, m/s	uncertainty
293.15	0.1567	0.7567	1626.7	2.4
293.15	0.1734	0.7346	1625.3	2.4
293.15	0.1931	0.6987	1620.7	2.4
293.15	0.2012	0.6876	1619.9	2.4
293.15	0.2219	0.6514	1615.7	2.4
293.15	0.2441	0.6166	1612.6	2.4
293.15	0.2638	0.5876	1610.4	2.4
293.15	0.2877	0.5511	1607.7	2.4
293.15	0.3045	0.5265	1606.3	2.4
293.15	0.3279	0.4956	1605.1	2.4
293.15	0.3469	0.4734	1604.8	2.4
293.15	0.3618	0.4525	1603.9	2.4
293.15	0.3845	0.4275	1604	2.4
293.15	0.4098	0.3998	1604.1	2.5
293.15	0.4302	0.3776	1604.2	2.5
293.15	0.4545	0.3568	1605.5	2.5
293.15	0.4734	0.3394	1606.1	2.5
293.15	0.4984	0.3176	1607.2	2.5
293.15	0.5355	0.2889	1609.4	2.5
293.15	0.5838	0.2485	1611.3	2.5
293.15	0.6256	0.2148	1612.9	2.6
293.15	0.6498	0.1956	1613.8	2.6
293.15	0.6576	0.1891	1614	2.6
293.15	0.6719	0.1789	1614.7	2.6
293.15	0.6866	0.1699	1615.7	2.6
293.15	0.7056	0.1587	1617.1	2.6
293.15	0.7204	0.1497	1618	2.6
298.15	0.1567	0.7567	1612.2	2.4
298.15	0.1734	0.7346	1611.4	2.4
298.15	0.1931	0.6987	1607.7	2.4
298.15	0.2012	0.6876	1607.3	2.4
298.15	0.2219	0.6514	1604.1	2.4
298.15	0.2441	0.6166	1601.8	2.4
298.15	0.2638	0.5876	1600.2	2.4
298.15	0.2877	0.5511	1598	2.4
298.15	0.3045	0.5265	1596.7	2.4
298.15	0.3279	0.4956	1595.7	2.4
298.15	0.3469	0.4734	1595.6	2.4
298.15	0.3618	0.4525	1594.5	2.4
298.15	0.3845	0.4275	1594.5	2.4
298.15	0.4098	0.3998	1594.4	2.5
298.15	0.4302	0.3776	1594.3	2.5
298.15	0.4545	0.3568	1595.5	2.5
298.15	0.4734	0.3394	1596	2.5
298.15	0.4984	0.3176	1596.9	2.5
298.15	0.5355	0.2889	1599	2.5
298.15	0.5838	0.2485	1600.5	2.5
298.15	0.6256	0.2148	1601.9	2.6
298.15	0.6498	0.1956	1602.8	2.6
298.15	0.6576	0.1891	1602.9	2.6
298.15	0.6719	0.1789	1603.7	2.6
298.15	0.6866	0.1699	1604.7	2.6
298.15	0.7056	0.1587	1606.2	2.6
298.15	0.7204	0.1497	1607.2	2.6
303.15	0.1567	0.7567	1597.5	2.4
303.15	0.1734	0.7346	1596.9	2.4
303.15	0.1931	0.6987	1593.5	2.4
303.15	0.2012	0.6876	1593.1	2.4
303.15	0.2219	0.6514	1590.1	2.4
303.15	0.2441	0.6166	1588	2.4
303.15	0.2638	0.5876	1586.7	2.4
303.15	0.2877	0.5511	1584.7	2.4
303.15	0.3045	0.5265	1583.5	2.4
303.15	0.3279	0.4956	1582.7	2.4
303.15	0.3469	0.4734	1582.7	2.4
303.15	0.3618	0.4525	1581.7	2.4
303.15	0.3845	0.4275	1581.8	2.4
303.15	0.4098	0.3998	1581.9	2.5
303.15	0.4302	0.3776	1581.9	2.5
303.15	0.4545	0.3568	1583.3	2.5
303.15	0.4734	0.3394	1583.9	2.5
303.15	0.4984	0.3176	1585	2.5
303.15	0.5355	0.2889	1587.4	2.5
303.15	0.5838	0.2485	1589.2	2.6
303.15	0.6256	0.2148	1590.9	2.6
303.15	0.6498	0.1956	1591.8	2.6
303.15	0.6576	0.1891	1591.9	2.6
303.15	0.6719	0.1789	1592.8	2.6
303.15	0.6866	0.1699	1594	2.6
303.15	0.7056	0.1587	1595.6	2.6
303.15	0.7204	0.1497	1596.7	2.6
308.15	0.1567	0.7567	1583.2	2.4
308.15	0.1734	0.7346	1582.7	2.4
308.15	0.1931	0.6987	1579.2	2.4
308.15	0.2012	0.6876	1578.9	2.4
308.15	0.2219	0.6514	1575.8	2.4
308.15	0.2441	0.6166	1573.7	2.4
308.15	0.2638	0.5876	1572.3	2.4
308.15	0.2877	0.5511	1570.2	2.4
308.15	0.3045	0.5265	1569	2.4
308.15	0.3279	0.4956	1568.2	2.4
308.15	0.3469	0.4734	1568.1	2.4
308.15	0.3618	0.4525	1567.1	2.4
308.15	0.3845	0.4275	1567.3	2.4
308.15	0.4098	0.3998	1567.4	2.5
308.15	0.4302	0.3776	1567.4	2.5
308.15	0.4545	0.3568	1568.9	2.5
308.15	0.4734	0.3394	1569.6	2.5
308.15	0.4984	0.3176	1570.7	2.5
308.15	0.5355	0.2889	1573.3	2.5
308.15	0.5838	0.2485	1575.4	2.5
308.15	0.6256	0.2148	1577.2	2.6
308.15	0.6498	0.1956	1578.2	2.6
308.15	0.6576	0.1891	1578.5	2.6
308.15	0.6719	0.1789	1579.4	2.6
308.15	0.6866	0.1699	1580.7	2.6
308.15	0.7056	0.1587	1582.4	2.6
308.15	0.7204	0.1497	1583.6	2.6

System: cyclopentanone + N-methylpyrrolidone + 1-ethyl-3-methylimidazolium tetrafluoroborate; phases: Liquid
Fixed: Pressure, kPa = 100
Property: Mass density, kg/m3 (Liquid); method: Vibrating tube method
Temperature, K	Mole fraction of 1-ethyl-3-methylimidazolium tetrafluoroborate	Mole fraction of N-methylpyrrolidone	Mass density, kg/m3	uncertainty
293.15	0.1581	0.7668	1101.6	4
293.15	0.1723	0.7418	1107.4	4
293.15	0.1951	0.7071	1116.4	4
293.15	0.2237	0.6551	1127.4	4
293.15	0.2461	0.6179	1135.7	4
293.15	0.2731	0.5871	1145.4	4
293.15	0.2954	0.5572	1153	4
293.15	0.3111	0.5348	1158.2	4
293.15	0.3363	0.4927	1166.1	4
293.15	0.3625	0.4656	1174	4
293.15	0.3874	0.4222	1180.7	4
293.15	0.4047	0.4063	1185.4	4
293.15	0.4312	0.3762	1191.9	4
293.15	0.4573	0.3584	1198.5	4
293.15	0.4712	0.3468	1201.7	4
293.15	0.4852	0.3341	1204.8	4
293.15	0.5035	0.3188	1208.7	4
293.15	0.5294	0.2985	1214.1	4
293.15	0.5471	0.2845	1217.5	4.1
293.15	0.5566	0.2759	1219.3	4.1
293.15	0.5775	0.2618	1223.3	4.1
293.15	0.5964	0.2459	1226.5	4.1
293.15	0.6174	0.2282	1229.9	4.1
293.15	0.6494	0.1984	1234.1	4.1
293.15	0.6652	0.1879	1236.5	4.1
293.15	0.6856	0.1712	1239.8	4.1
293.15	0.6966	0.1687	1241.4	4.1
298.15	0.1581	0.7668	1097.1	4
298.15	0.1723	0.7418	1102.7	4
298.15	0.1951	0.7071	1111.6	4
298.15	0.2237	0.6551	1122.4	4
298.15	0.2461	0.6179	1130.7	4
298.15	0.2731	0.5871	1140.2	4
298.15	0.2954	0.5572	1147.9	4
298.15	0.3111	0.5348	1153.1	4
298.15	0.3363	0.4927	1161.4	4
298.15	0.3625	0.4656	1169.4	4
298.15	0.3874	0.4222	1176.6	4
298.15	0.4047	0.4063	1181.3	4
298.15	0.4312	0.3762	1188.2	4
298.15	0.4573	0.3584	1194.8	4
298.15	0.4712	0.3468	1198.1	4.1
298.15	0.4852	0.3341	1201.2	4
298.15	0.5035	0.3188	1205.3	4
298.15	0.5294	0.2985	1210.7	4
298.15	0.5471	0.2845	1214.2	4.1
298.15	0.5566	0.2759	1216	4.1
298.15	0.5775	0.2618	1220	4.1
298.15	0.5964	0.2459	1223.2	4.1
298.15	0.6174	0.2282	1226.6	4.1
298.15	0.6494	0.1984	1231.1	4.1
298.15	0.6652	0.1879	1233.5	4.1
298.15	0.6856	0.1712	1236.9	4.1
298.15	0.6966	0.1687	1238.4	4.1
303.15	0.1581	0.7668	1093.5	4
303.15	0.1723	0.7418	1099.3	4
303.15	0.1951	0.7071	1108.3	4
303.15	0.2237	0.6551	1119.3	4
303.15	0.2461	0.6179	1127.7	4
303.15	0.2731	0.5871	1137.3	4
303.15	0.2954	0.5572	1145	4
303.15	0.3111	0.5348	1150.4	4
303.15	0.3363	0.4927	1158.8	4
303.15	0.3625	0.4656	1166.8	4
303.15	0.3874	0.4222	1174.2	4
303.15	0.4047	0.4063	1179	4
303.15	0.4312	0.3762	1185.9	4
303.15	0.4573	0.3584	1192.5	4
303.15	0.4712	0.3468	1195.8	4
303.15	0.4852	0.3341	1199	4.1
303.15	0.5035	0.3188	1203	4
303.15	0.5294	0.2985	1208.4	4
303.15	0.5471	0.2845	1211.9	4.1
303.15	0.5566	0.2759	1213.6	4.1
303.15	0.5775	0.2618	1217.6	4.1
303.15	0.5964	0.2459	1220.8	4.1
303.15	0.6174	0.2282	1224.2	4.1
303.15	0.6494	0.1984	1228.2	4.1
303.15	0.6652	0.1879	1230.5	4.1
303.15	0.6856	0.1712	1233.7	4.1
303.15	0.6966	0.1687	1235.2	4.1
308.15	0.1581	0.7668	1089.1	4
308.15	0.1723	0.7418	1094.9	4
308.15	0.1951	0.7071	1103.9	4
308.15	0.2237	0.6551	1114.9	4
308.15	0.2461	0.6179	1123.3	4
308.15	0.2731	0.5871	1132.9	4
308.15	0.2954	0.5572	1140.6	4
308.15	0.3111	0.5348	1146	4
308.15	0.3363	0.4927	1154.4	4
308.15	0.3625	0.4656	1162.5	4
308.15	0.3874	0.4222	1169.9	4
308.15	0.4047	0.4063	1174.8	4
308.15	0.4312	0.3762	1181.7	4
308.15	0.4573	0.3584	1188.4	4
308.15	0.4712	0.3468	1191.7	4
308.15	0.4852	0.3341	1194.9	4
308.15	0.5035	0.3188	1199	4
308.15	0.5294	0.2985	1204.4	4
308.15	0.5471	0.2845	1208	4
308.15	0.5566	0.2759	1209.7	4.1
308.15	0.5775	0.2618	1213.7	4.1
308.15	0.5964	0.2459	1217	4.1
308.15	0.6174	0.2282	1220.4	4.1
308.15	0.6494	0.1984	1224.6	4.1
308.15	0.6652	0.1879	1226.9	4.1
308.15	0.6856	0.1712	1230.1	4.1
308.15	0.6966	0.1687	1231.6	4.1

System: cyclopentanone + N-methylpyrrolidone + 1-ethyl-3-methylimidazolium tetrafluoroborate; phases: Liquid
Fixed: Pressure, kPa = 100
Fixed: Frequency, MHz = 3
Property: Speed of sound, m/s (Liquid); method: Sing-around technique in a fixed-path interferometer
Temperature, K	Mole fraction of 1-ethyl-3-methylimidazolium tetrafluoroborate	Mole fraction of N-methylpyrrolidone	Speed of sound, m/s	uncertainty
293.15	0.1581	0.7668	1573.1	2.4
293.15	0.1723	0.7418	1573.1	2.4
293.15	0.1951	0.7071	1574	2
293.15	0.2237	0.6551	1574.9	2.4
293.15	0.2461	0.6179	1575.9	2.4
293.15	0.2731	0.5871	1577.3	2.4
293.15	0.2954	0.5572	1578.9	2.4
293.15	0.3111	0.5348	1579.9	2.4
293.15	0.3363	0.4927	1581.1	2.5
293.15	0.3625	0.4656	1583.9	2.5
293.15	0.3874	0.4222	1584.8	2.5
293.15	0.4047	0.4063	1586.8	2.5
293.15	0.4312	0.3762	1589.2	2.5
293.15	0.4573	0.3584	1592.8	2.5
293.15	0.4712	0.3468	1594.5	2.5
293.15	0.4852	0.3341	1595.9	2.5
293.15	0.5035	0.3188	1597.9	2.5
293.15	0.5294	0.2985	1600.8	2.5
293.15	0.5471	0.2845	1602.7	2.5
293.15	0.5566	0.2759	1603.6	2.6
293.15	0.5775	0.2618	1605.9	2.6
293.15	0.5964	0.2459	1607.6	2.6
293.15	0.6174	0.2282	1609.4	2.6
293.15	0.6494	0.1984	1611.4	2.6
293.15	0.6652	0.1879	1612.1	2.6
293.15	0.6856	0.1712	1613.6	2.6
293.15	0.6966	0.1687	1615	2.6
298.15	0.1581	0.7668	1554.4	2.4
298.15	0.1723	0.7418	1554.7	2.4
298.15	0.1951	0.7071	1555.9	2.4
298.15	0.2237	0.6551	1556.6	2.4
298.15	0.2461	0.6179	1557.6	2.4
298.15	0.2731	0.5871	1560.4	2.4
298.15	0.2954	0.5572	1562.2	2.4
298.15	0.3111	0.5348	1563.4	2.4
298.15	0.3363	0.4927	1564.6	2.5
298.15	0.3625	0.4656	1567.7	2.5
298.15	0.3874	0.4222	1568.3	2.5
298.15	0.4047	0.4063	1570.5	2.5
298.15	0.4312	0.3762	1572.9	2.5
298.15	0.4573	0.3584	1576.8	2.5
298.15	0.4712	0.3468	1578.5	2.5
298.15	0.4852	0.3341	1580.2	2.5
298.15	0.5035	0.3188	1582.1	2.5
298.15	0.5294	0.2985	1585.1	2.5
298.15	0.5471	0.2845	1587.1	2.5
298.15	0.5566	0.2759	1587.9	2.5
298.15	0.5775	0.2618	1590.4	2.6
298.15	0.5964	0.2459	1592.1	2.6
298.15	0.6174	0.2282	1594	2.6
298.15	0.6494	0.1984	1598.4	2.6
298.15	0.6652	0.1879	1599.7	2.6
298.15	0.6856	0.1712	1601.8	2.6
298.15	0.6966	0.1687	1602.9	2.6
303.15	0.1581	0.7668	1536.6	2.4
303.15	0.1723	0.7418	1537.1	2.4
303.15	0.1951	0.7071	1538.7	2.4
303.15	0.2237	0.6551	1539.8	2.4
303.15	0.2461	0.6179	1541.1	2.4
303.15	0.2731	0.5871	1544	2.4
303.15	0.2954	0.5572	1546.3	2.4
303.15	0.3111	0.5348	1547.7	2.4
303.15	0.3363	0.4927	1549.2	2.5
303.15	0.3625	0.4656	1552.5	2.5
303.15	0.3874	0.4222	1553.5	2.5
303.15	0.4047	0.4063	1555.9	2.5
303.15	0.4312	0.3762	1558.6	2.5
303.15	0.4573	0.3584	1562.7	2.5
303.15	0.4712	0.3468	1564.6	2.5
303.15	0.4852	0.3341	1566.2	2.5
303.15	0.5035	0.3188	1568.3	2.5
303.15	0.5294	0.2985	1571.6	2.5
303.15	0.5471	0.2845	1573.5	2.5
303.15	0.5566	0.2759	1574.4	2.5
303.15	0.5775	0.2618	1577.1	2.6
303.15	0.5964	0.2459	1578.9	2.6
303.15	0.6174	0.2282	1580.9	2.6
303.15	0.6494	0.1984	1585.1	2.6
303.15	0.6652	0.1879	1586.9	2.6
303.15	0.6856	0.1712	1589.2	2.6
303.15	0.6966	0.1687	1590.8	2.6
308.15	0.1581	0.7668	1518.4	2.4
308.15	0.1723	0.7418	1519.2	2.4
308.15	0.1951	0.7071	1521	2.4
308.15	0.2237	0.6551	1522.6	2.4
308.15	0.2461	0.6179	1524.2	2.4
308.15	0.2731	0.5871	1527.7	2.4
308.15	0.2954	0.5572	1530.2	2.4
308.15	0.3111	0.5348	1531.7	2.4
308.15	0.3363	0.4927	1533.6	2.4
308.15	0.3625	0.4656	1537.3	2.5
308.15	0.3874	0.4222	1538.6	2.5
308.15	0.4047	0.4063	1540.9	2.5
308.15	0.4312	0.3762	1543.8	2.5
308.15	0.4573	0.3584	1548	2.5
308.15	0.4712	0.3468	1549.9	2.5
308.15	0.4852	0.3341	1551.5	2.5
308.15	0.5035	0.3188	1553.8	2.5
308.15	0.5294	0.2985	1556.9	2.5
308.15	0.5471	0.2845	1559.1	2.5
308.15	0.5566	0.2759	1560.1	2.5
308.15	0.5775	0.2618	1562.6	2.6
308.15	0.5964	0.2459	1564.4	2.6
308.15	0.6174	0.2282	1566.2	2.6
308.15	0.6494	0.1984	1570.1	2.6
308.15	0.6652	0.1879	1571.9	2.6
308.15	0.6856	0.1712	1574.1	2.6
308.15	0.6966	0.1687	1576.6	2.6

System: cyclohexanone + N-methylpyrrolidone + 1-ethyl-3-methylimidazolium tetrafluoroborate; phases: Liquid
Fixed: Pressure, kPa = 100
Property: Mass density, kg/m3 (Liquid); method: Vibrating tube method
Temperature, K	Mole fraction of 1-ethyl-3-methylimidazolium tetrafluoroborate	Mole fraction of N-methylpyrrolidone	Mass density, kg/m3	uncertainty
293.15	0.0979	0.6597	1052.2	4
293.15	0.1114	0.6244	1055.7	4
293.15	0.1277	0.5912	1061.1	4
293.15	0.1458	0.5577	1067.8	4
293.15	0.1658	0.5244	1076	4
293.15	0.1831	0.4983	1083.4	4
293.15	0.2039	0.4499	1090.7	4
293.15	0.2242	0.4251	1099.1	4
293.15	0.2397	0.4077	1105.1	4
293.15	0.2472	0.3999	1107.9	4
293.15	0.2667	0.3807	1114.8	4
293.15	0.2932	0.3572	1123.2	4
293.15	0.3198	0.3361	1130.6	4
293.15	0.3419	0.3201	1136.4	4
293.15	0.3587	0.3086	1140.4	4
293.15	0.3736	0.2989	1144	4
293.15	0.3956	0.2852	1149.1	4
293.15	0.412	0.2754	1152.8	4
293.15	0.4232	0.2689	1155.4	4
293.15	0.4408	0.2589	1159.4	4
293.15	0.4599	0.2483	1163.8	4
293.15	0.475	0.2401	1167.3	4
293.15	0.5029	0.2253	1173.8	4
293.15	0.5217	0.2155	1178.2	4
293.15	0.5397	0.2062	1182.5	4
293.15	0.5523	0.1997	1185.5	4.1
293.15	0.5712	0.1899	1189.8	4
298.15	0.0979	0.6597	1047.6	4
298.15	0.1114	0.6244	1051.1	4
298.15	0.1277	0.5912	1056.5	4
298.15	0.1458	0.5577	1063.4	4
298.15	0.1658	0.5244	1071.7	4
298.15	0.1831	0.4983	1079.3	4
298.15	0.2039	0.4499	1086.7	4
298.15	0.2242	0.4251	1095.2	4
298.15	0.2397	0.4077	1101.4	4
298.15	0.2472	0.3999	1104.2	4
298.15	0.2667	0.3807	1111.1	4
298.15	0.2932	0.3572	1119.5	4
298.15	0.3198	0.3361	1126.9	4
298.15	0.3419	0.3201	1132.6	4
298.15	0.3587	0.3086	1136.7	4
298.15	0.3736	0.2989	1140.2	4
298.15	0.3956	0.2852	1145.2	4
298.15	0.412	0.2754	1148.9	4
298.15	0.4232	0.2689	1151.5	4
298.15	0.4408	0.2589	1155.4	4
298.15	0.4599	0.2483	1159.8	4
298.15	0.475	0.2401	1163.2	4
298.15	0.5029	0.2253	1169.7	4
298.15	0.5217	0.2155	1174.1	4
298.15	0.5397	0.2062	1178.3	4
298.15	0.5523	0.1997	1181.3	4
298.15	0.5712	0.1899	1185.6	4
303.15	0.0979	0.6597	1043.1	4
303.15	0.1114	0.6244	1046.6	4
303.15	0.1277	0.5912	1052.1	4
303.15	0.1458	0.5577	1059	4
303.15	0.1658	0.5244	1067.5	4
303.15	0.1831	0.4983	1075.2	4
303.15	0.2039	0.4499	1082.8	4
303.15	0.2242	0.4251	1091.5	4
303.15	0.2397	0.4077	1097.7	4
303.15	0.2472	0.3999	1100.6	4
303.15	0.2667	0.3807	1107.5	4
303.15	0.2932	0.3572	1116	4
303.15	0.3198	0.3361	1123.4	4
303.15	0.3419	0.3201	1129.1	4
303.15	0.3587	0.3086	1133.1	4
303.15	0.3736	0.2989	1136.5	4
303.15	0.3956	0.2852	1141.5	4
303.15	0.412	0.2754	1145.2	4
303.15	0.4232	0.2689	1147.7	4
303.15	0.4408	0.2589	1151.6	4
303.15	0.4599	0.2483	1155.9	4
303.15	0.475	0.2401	1159.3	4
303.15	0.5029	0.2253	1165.7	4
303.15	0.5217	0.2155	1170.1	4
303.15	0.5397	0.2062	1174.4	4
303.15	0.5523	0.1997	1177.3	4
303.15	0.5712	0.1899	1181.6	4
308.15	0.0979	0.6597	1036.4	4
308.15	0.1114	0.6244	1040.3	4
308.15	0.1277	0.5912	1045.8	4
308.15	0.1458	0.5577	1052.9	4
308.15	0.1658	0.5244	1061.5	4
308.15	0.1831	0.4983	1069.3	4
308.15	0.2039	0.4499	1078.7	4
308.15	0.2242	0.4251	1087.5	4
308.15	0.2397	0.4077	1093.8	4
308.15	0.2472	0.3999	1096.7	4
308.15	0.2667	0.3807	1103.8	4
308.15	0.2932	0.3572	1112.2	4
308.15	0.3198	0.3361	1119.6	4
308.15	0.3419	0.3201	1125.2	4
308.15	0.3587	0.3086	1129.2	4
308.15	0.3736	0.2989	1132.6	4
308.15	0.3956	0.2852	1137.5	4
308.15	0.412	0.2754	1141.1	4
308.15	0.4232	0.2689	1143.6	4
308.15	0.4408	0.2589	1147.5	4
308.15	0.4599	0.2483	1151.7	4
308.15	0.475	0.2401	1155.1	4
308.15	0.5029	0.2253	1161.5	4
308.15	0.5217	0.2155	1165.9	4
308.15	0.5397	0.2062	1170.1	4
308.15	0.5523	0.1997	1173	4
308.15	0.5712	0.1899	1177.3	4

System: cyclohexanone + N-methylpyrrolidone + 1-ethyl-3-methylimidazolium tetrafluoroborate; phases: Liquid
Fixed: Pressure, kPa = 100
Fixed: Frequency, MHz = 3
Property: Speed of sound, m/s (Liquid); method: Sing-around technique in a fixed-path interferometer
Temperature, K	Mole fraction of 1-ethyl-3-methylimidazolium tetrafluoroborate	Mole fraction of N-methylpyrrolidone	Speed of sound, m/s	uncertainty
293.15	0.0979	0.6597	1565.2	2.3
293.15	0.1114	0.6244	1563.8	2.3
293.15	0.1277	0.5912	1561.9	2.4
293.15	0.1458	0.5577	1559.8	2.4
293.15	0.1658	0.5244	1556.2	2.4
293.15	0.1831	0.4983	1553.7	2.4
293.15	0.2039	0.4499	1549.3	2.4
293.15	0.2242	0.4251	1547.9	2.4
293.15	0.2397	0.4077	1547.5	2.4
293.15	0.2472	0.3999	1547.6	2.4
293.15	0.2667	0.3807	1548.7	2.4
293.15	0.2932	0.3572	1552	2.4
293.15	0.3198	0.3361	1556.9	2.4
293.15	0.3419	0.3201	1562	2.4
293.15	0.3587	0.3086	1566	2.4
293.15	0.3736	0.2989	1569.9	2.4
293.15	0.3956	0.2852	1575.4	2.4
293.15	0.412	0.2754	1579.8	2.5
293.15	0.4232	0.2689	1582.3	2.5
293.15	0.4408	0.2589	1586.7	2.5
293.15	0.4599	0.2483	1591.1	2.5
293.15	0.475	0.2401	1594.3	2.5
293.15	0.5029	0.2253	1600	2.5
293.15	0.5217	0.2155	1603.2	2.5
293.15	0.5397	0.2062	1606.1	2.5
293.15	0.5523	0.1997	1608.1	2.5
293.15	0.5712	0.1899	1611.1	2.5
298.15	0.0979	0.6597	1553.7	2.3
298.15	0.1114	0.6244	1550.4	2.3
298.15	0.1277	0.5912	1547.4	2.4
298.15	0.1458	0.5577	1546.1	2.4
298.15	0.1658	0.5244	1543.5	2.4
298.15	0.1831	0.4983	1540.6	2.4
298.15	0.2039	0.4499	1536.7	2.4
298.15	0.2242	0.4251	1534.6	2.4
298.15	0.2397	0.4077	1533.6	2.4
298.15	0.2472	0.3999	1533.5	2.4
298.15	0.2667	0.3807	1534.1	2.5
298.15	0.2932	0.3572	1536.9	2.4
298.15	0.3198	0.3361	1541.6	2.5
298.15	0.3419	0.3201	1546.8	2.6
298.15	0.3587	0.3086	1551.1	2.6
298.15	0.3736	0.2989	1555.1	2.4
298.15	0.3956	0.2852	1561.2	2.5
298.15	0.412	0.2754	1565.7	2.5
298.15	0.4232	0.2689	1568.8	2.5
298.15	0.4408	0.2589	1573.4	2.5
298.15	0.4599	0.2483	1578.4	2.5
298.15	0.475	0.2401	1582	2.5
298.15	0.5029	0.2253	1588.2	2.5
298.15	0.5217	0.2155	1592.1	2.5
298.15	0.5397	0.2062	1595.5	2.5
298.15	0.5523	0.1997	1597.7	2.5
298.15	0.5712	0.1899	1601	2.5
303.15	0.0979	0.6597	1535	2.3
303.15	0.1114	0.6244	1532.2	2.3
303.15	0.1277	0.5912	1530.4	2.4
303.15	0.1458	0.5577	1527.2	2.4
303.15	0.1658	0.5244	1524.5	2.4
303.15	0.1831	0.4983	1522.5	2.4
303.15	0.2039	0.4499	1518.4	2.4
303.15	0.2242	0.4251	1515.8	2.4
303.15	0.2397	0.4077	1514.7	2.4
303.15	0.2472	0.3999	1514.5	2.4
303.15	0.2667	0.3807	1515.1	2.4
303.15	0.2932	0.3572	1518	2.4
303.15	0.3198	0.3361	1523.1	2.4
303.15	0.3419	0.3201	1528.6	2.4
303.15	0.3587	0.3086	1533.2	2.5
303.15	0.3736	0.2989	1537.5	2.4
303.15	0.3956	0.2852	1544.1	2.4
303.15	0.412	0.2754	1549.1	2.5
303.15	0.4232	0.2689	1552.4	2.5
303.15	0.4408	0.2589	1557.7	2.5
303.15	0.4599	0.2483	1563	2.5
303.15	0.475	0.2401	1567.2	2.5
303.15	0.5029	0.2253	1574.1	2.5
303.15	0.5217	0.2155	1578.3	2.5
303.15	0.5397	0.2062	1582.2	2.5
303.15	0.5523	0.1997	1584.5	2.5
303.15	0.5712	0.1899	1588.3	2.5
308.15	0.0979	0.6597	1513.4	2.3
308.15	0.1114	0.6244	1512	2.3
308.15	0.1277	0.5912	1509.5	2.4
308.15	0.1458	0.5577	1507.4	2.4
308.15	0.1658	0.5244	1504.7	2.4
308.15	0.1831	0.4983	1502.4	2.4
308.15	0.2039	0.4499	1499.5	2.4
308.15	0.2242	0.4251	1496.7	2.4
308.15	0.2397	0.4077	1495.4	2.4
308.15	0.2472	0.3999	1495	2.4
308.15	0.2667	0.3807	1495.5	2.4
308.15	0.2932	0.3572	1498.5	2.4
308.15	0.3198	0.3361	1503.7	2.4
308.15	0.3419	0.3201	1509.5	2.4
308.15	0.3587	0.3086	1514.4	2.4
308.15	0.3736	0.2989	1519.1	2.4
308.15	0.3956	0.2852	1526.3	2.4
308.15	0.412	0.2754	1531.6	2.5
308.15	0.4232	0.2689	1535.1	2.5
308.15	0.4408	0.2589	1540.8	2.5
308.15	0.4599	0.2483	1546.7	2.5
308.15	0.475	0.2401	1551	2.5
308.15	0.5029	0.2253	1558.7	2.5
308.15	0.5217	0.2155	1563.4	2.5
308.15	0.5397	0.2062	1567.5	2.5
308.15	0.5523	0.1997	1570.2	2.5
308.15	0.5712	0.1899	1574.3	2.5
