Measured thermophysical data. Thermodynamics of proton binding and weak (Cl-, Na+ and K+) species formation, and activity coefficients of 1,2-dimethyl-3-hydroxypyridin-4-one (deferiprone)
Source: J. Chem. Thermodyn., 2014, 10.1016/j.jct.2014.05.006
Compound 1: 1,2-dimethyl-3-hydroxypyridin-4-one, C7H9NO2, InChI=1S/C7H9NO2/c1-5-7(10)6(9)3-4-8(5)2/h3-4,10H,1-2H3, purity 98%
Compound 2: tetramethylammonium chloride, C4H12ClN, InChI=1S/C4H12N.ClH/c1-5(2,3)4;/h1-4H3;1H/q+1;/p-1
Compound 3: sodium chloride, ClNa, InChI=1S/ClH.Na/h1H;/q;+1/p-1, purity 98%
Compound 4: water, H2O, InChI=1S/H2O/h1H2

System: sodium chloride + water + 1,2-dimethyl-3-hydroxypyridin-4-one; phases: Liquid, Crystal
Fixed: Pressure, kPa = 101
Property: Molality, mol/kg of 1,2-dimethyl-3-hydroxypyridin-4-one (Liquid); method: Titration
Temperature, K	Solvent: Molality, mol/kg of sodium chloride	Molality, mol/kg of 1,2-dimethyl-3-hydroxypyridin-4-one	uncertainty
298.15	0	0.1	0.0012
298.15	0.486	0.0885	0.0008
298.15	1.474	0.0762	0.0009
298.15	2.553	0.0612	0.001
298.15	5.122	0.0414	0.0014
310.15	0.005	0.1611	0.0057
310.15	0.489	0.1327	0.004
310.15	1.456	0.1047	0.0024
310.15	3.052	0.0713	0.0017
310.15	5.157	0.0385	0.0014

System: tetramethylammonium chloride + water + 1,2-dimethyl-3-hydroxypyridin-4-one; phases: Liquid, Crystal
Fixed: Temperature, K = 298.15
Fixed: Pressure, kPa = 101
Property: Molality, mol/kg of 1,2-dimethyl-3-hydroxypyridin-4-one (Liquid); method: Titration
Solvent: Molality, mol/kg of tetramethylammonium chloride	Molality, mol/kg of 1,2-dimethyl-3-hydroxypyridin-4-one	uncertainty
0.092	0.0977	0.0011
0.507	0.0935	0.0009
1.068	0.0891	0.0006
2.437	0.0798	0.0004
4.198	0.0689	0.0006

System: water + 1,2-dimethyl-3-hydroxypyridin-4-one; phases: Liquid, Crystal
Property: Molality, mol/kg of 1,2-dimethyl-3-hydroxypyridin-4-one (Liquid); method: Titration
Temperature, K	Pressure, kPa	Molality, mol/kg of 1,2-dimethyl-3-hydroxypyridin-4-one	uncertainty
298.15	101	0.1	0.0012
