Measured thermophysical data. Thermodynamics of binary mixtures 1-ethoxy-1,1,2,2,3,3,4,4,4-nonafluorobutane (HFE-7200) + 2-propanol: High pressure density, speed of sound and derivative properties
Source: J. Chem. Thermodyn., 2019, 10.1016/j.jct.2018.12.018
Compound 1: nonafluoroisobutyl ethyl ether, C6H5F9O, InChI=1S/C6H5F9O/c1-2-16-6(14,15)3(7,4(8,9)10)5(11,12)13/h2H2,1H3, purity 99%
Compound 2: 1-ethoxy-1,1,2,2,3,3,4,4,4-nonafluorobutane, C6H5F9O, InChI=1S/C6H5F9O/c1-2-16-6(14,15)4(9,10)3(7,8)5(11,12)13/h2H2,1H3, purity 99%
Compound 3: propan-2-ol, C3H8O, InChI=1S/C3H8O/c1-3(2)4/h3-4H,1-2H3, purity 99.8%

System: propan-2-ol; phases: Liquid
Property: Mass density, kg/m3 (Liquid); method: Vibrating tube method
Temperature, K	Pressure, kPa	Mass density, kg/m3	uncertainty
293.15	100	785.4	0.7
293.15	1000	786.2	0.7
293.15	5000	789.6	0.7
293.15	10000	793.6	0.7
293.15	15000	797.4	0.7
293.15	20000	801.1	0.7
293.15	25000	804.5	0.8
293.15	30000	807.9	0.8
293.15	35000	811.2	0.8
293.15	40000	814.2	0.8
293.15	45000	817.2	0.8
293.15	50000	820.1	0.8
293.15	55000	822.9	0.8
293.15	60000	825.6	0.8
293.15	65000	828.2	0.9
293.15	70000	830.8	0.9
293.15	80000	835.8	0.9
293.15	90000	840.5	0.9
293.15	100000	845	0.9
293.15	110000	849.4	1
293.15	120000	853.5	1
293.15	130000	857.6	1
293.15	140000	861.2	1
298.15	100	781.4	0.7
298.15	1000	782.1	0.7
298.15	5000	785.6	0.7
298.15	10000	789.8	0.7
298.15	15000	793.7	0.7
298.15	20000	797.3	0.7
298.15	25000	800.9	0.8
298.15	30000	804.3	0.8
298.15	35000	807.7	0.8
298.15	40000	810.8	0.8
298.15	45000	813.8	0.8
298.15	50000	816.7	0.8
298.15	55000	819.7	0.8
298.15	60000	822.5	0.8
298.15	65000	825.2	0.9
298.15	70000	827.6	0.9
298.15	80000	832.8	0.9
298.15	90000	837.5	0.9
298.15	100000	842.3	1
298.15	110000	846.4	1
298.15	120000	850.8	1
298.15	130000	854.8	1
298.15	140000	858.7	1.1
313.15	100	768.2	0.7
313.15	1000	769.1	0.7
313.15	5000	773	0.7
313.15	10000	777.4	0.7
313.15	15000	781.8	0.7
313.15	20000	785.7	0.7
313.15	25000	789.5	0.8
313.15	30000	793.3	0.8
313.15	35000	796.9	0.8
313.15	40000	800.1	0.8
313.15	45000	803.4	0.8
313.15	50000	806.5	0.8
313.15	55000	809.6	0.8
313.15	60000	812.5	0.9
313.15	65000	815.4	0.9
313.15	70000	818.2	0.9
313.15	80000	823.4	0.9
313.15	90000	828.5	1
313.15	100000	833.1	1
313.15	110000	837.8	1
313.15	120000	842.1	1
313.15	130000	846.4	1.1
313.15	140000	850.4	1.1
333.15	100	749.4	0.7
333.15	1000	750.5	0.7
333.15	5000	754.9	0.7
333.15	10000	760	0.7
333.15	15000	764.9	0.7
333.15	20000	769.3	0.8
333.15	25000	773.6	0.8
333.15	30000	777.7	0.8
333.15	35000	781.5	0.8
333.15	40000	785.3	0.8
333.15	45000	788.9	0.8
333.15	50000	792.3	0.8
333.15	55000	795.6	0.9
333.15	60000	798.7	0.9
333.15	65000	801.8	0.9
333.15	70000	804.8	0.9
333.15	80000	810.5	0.9
333.15	90000	815.9	1
333.15	100000	820.9	1
333.15	110000	825.8	1
333.15	120000	830.4	1.1
333.15	130000	834.8	1.1
333.15	140000	839.2	1.1
353.15	1000	729.8	0.7
353.15	5000	735	0.7
353.15	10000	741	0.7
353.15	15000	746.5	0.7
353.15	20000	751.7	0.8
353.15	25000	756.5	0.8
353.15	30000	761	0.8
353.15	35000	765.4	0.8
353.15	40000	769.3	0.8
353.15	45000	773.3	0.8
353.15	50000	777	0.9
353.15	55000	780.6	0.9
353.15	60000	784	0.9
353.15	65000	787.4	0.9
353.15	70000	790.6	0.9
353.15	80000	796.7	1
353.15	90000	802.6	1
353.15	100000	808	1
353.15	110000	813.2	1.1
353.15	120000	818.1	1.1
353.15	130000	822.8	1.1
353.15	140000	827.3	1.2
373.15	1000	706.6	0.7
373.15	5000	712.8	0.7
373.15	10000	719.9	0.7
373.15	15000	726.3	0.8
373.15	20000	732	0.8
373.15	25000	737.7	0.8
373.15	30000	742.9	0.8
373.15	35000	747.8	0.8
373.15	40000	752.2	0.8
373.15	45000	756.6	0.9
373.15	50000	760.7	0.9
373.15	55000	764.7	0.9
373.15	60000	768.6	0.9
373.15	65000	772.1	0.9
373.15	70000	775.6	1
373.15	80000	782.3	1
373.15	90000	788.5	1.1
373.15	100000	794.4	1.1
373.15	110000	799.9	1.1
373.15	120000	805.3	1.2
373.15	130000	810.2	1.2
373.15	140000	815.1	1.2
393.15	1000	680.4	0.7
393.15	5000	688.2	0.7
393.15	10000	696.7	0.7
393.15	15000	704.4	0.8
393.15	20000	711.4	0.8
393.15	25000	717.6	0.8
393.15	30000	723.5	0.8
393.15	35000	729	0.8
393.15	40000	734.2	0.9
393.15	45000	739	0.9
393.15	50000	743.5	0.9
393.15	55000	747.9	0.9
393.15	60000	752.1	1
393.15	65000	756.1	1
393.15	70000	760	1
393.15	80000	767.2	1
393.15	90000	773.9	1.1
393.15	100000	780.2	1.1
393.15	110000	786.2	1.2
393.15	120000	791.8	1.2
393.15	130000	797.2	1.3
393.15	140000	802.3	1.3
303.15	100	777	0.91
293.15	100	785.46	0.91
313.15	100	768.21	0.91
323.15	100	759.07	0.91
298.15	100	781.27	0.91
333.15	100	749.42	0.91

System: propan-2-ol; phases: Liquid
Fixed: Pressure, kPa = 100
Fixed: Frequency, MHz = 3
Property: Speed of sound, m/s (Liquid); method: Single path-length method
Temperature, K	Speed of sound, m/s	uncertainty
303.15	1122.56	1.02
293.15	1157.54	1.02
313.15	1087.2	1.02
323.15	1051.78	1.02
298.15	1139.71	1.02
333.15	1015.29	1.02

System: nonafluoroisobutyl ethyl ether + 1-ethoxy-1,1,2,2,3,3,4,4,4-nonafluorobutane + propan-2-ol; phases: Liquid
Fixed: Solvent: Mole fraction of nonafluoroisobutyl ethyl ether = 0.617
Property: Mass density, kg/m3 (Liquid); method: Vibrating tube method
Mole fraction of propan-2-ol	Temperature, K	Pressure, kPa	Mass density, kg/m3	uncertainty
1	293.15	100	785.4	0.7
1	293.15	1000	786.2	0.7
1	293.15	5000	789.6	0.7
1	293.15	10000	793.6	0.7
1	293.15	15000	797.4	0.8
1	293.15	20000	801.1	0.8
1	293.15	25000	804.5	0.8
1	293.15	30000	807.9	0.8
1	293.15	35000	811.2	0.8
1	293.15	40000	814.2	0.8
1	293.15	45000	817.2	0.8
1	293.15	50000	820.1	0.8
1	293.15	55000	822.9	0.9
1	293.15	60000	825.6	0.9
1	293.15	65000	828.2	0.9
1	293.15	70000	830.8	0.9
1	293.15	80000	835.8	0.9
1	293.15	90000	840.5	1
1	293.15	100000	845	1
1	293.15	110000	849.4	1
1	293.15	120000	853.5	1
1	293.15	130000	857.6	1.1
1	293.15	140000	861.2	1.1
1	298.15	100	781.4	0.7
1	298.15	1000	782.1	0.7
1	298.15	5000	785.6	0.7
1	298.15	10000	789.8	0.7
1	298.15	15000	793.7	0.8
1	298.15	20000	797.3	0.8
1	298.15	25000	800.9	0.8
1	298.15	30000	804.3	0.8
1	298.15	35000	807.7	0.8
1	298.15	40000	810.8	0.8
1	298.15	45000	813.8	0.8
1	298.15	50000	816.7	0.9
1	298.15	55000	819.7	0.9
1	298.15	60000	822.5	0.9
1	298.15	65000	825.2	0.9
1	298.15	70000	827.6	0.9
1	298.15	80000	832.8	0.9
1	298.15	90000	837.5	1
1	298.15	100000	842.3	1
1	298.15	110000	846.4	1
1	298.15	120000	850.8	1.1
1	298.15	130000	854.8	1.1
1	298.15	140000	858.7	1.1
1	313.15	100	768.2	0.7
1	313.15	1000	769.1	0.7
1	313.15	5000	773	0.7
1	313.15	10000	777.4	0.7
1	313.15	15000	781.8	0.8
1	313.15	20000	785.7	0.8
1	313.15	25000	789.5	0.8
1	313.15	30000	793.3	0.8
1	313.15	35000	796.9	0.8
1	313.15	40000	800.1	0.8
1	313.15	45000	803.4	0.8
1	313.15	50000	806.5	0.9
1	313.15	55000	809.6	0.9
1	313.15	60000	812.5	0.9
1	313.15	65000	815.4	0.9
1	313.15	70000	818.2	0.9
1	313.15	80000	823.4	1
1	313.15	90000	828.5	1
1	313.15	100000	833.1	1
1	313.15	110000	837.8	1.1
1	313.15	120000	842.1	1.1
1	313.15	130000	846.4	1.1
1	313.15	140000	850.4	1.1
1	333.15	100	749.4	0.7
1	333.15	1000	750.5	0.7
1	333.15	5000	754.9	0.7
1	333.15	10000	760	0.7
1	333.15	15000	764.9	0.8
1	333.15	20000	769.3	0.8
1	333.15	25000	773.6	0.8
1	333.15	30000	777.7	0.8
1	333.15	35000	781.5	0.8
1	333.15	40000	785.3	0.8
1	333.15	45000	788.9	0.9
1	333.15	50000	792.3	0.9
1	333.15	55000	795.6	0.9
1	333.15	60000	798.7	0.9
1	333.15	65000	801.8	0.9
1	333.15	70000	804.8	1
1	333.15	80000	810.5	1
1	333.15	90000	815.9	1
1	333.15	100000	820.9	1.1
1	333.15	110000	825.8	1.1
1	333.15	120000	830.4	1.1
1	333.15	130000	834.8	1.2
1	333.15	140000	839.2	1.2
1	353.15	1000	729.8	0.7
1	353.15	5000	735	0.7
1	353.15	10000	741	0.8
1	353.15	15000	746.5	0.8
1	353.15	20000	751.7	0.8
1	353.15	25000	756.5	0.8
1	353.15	30000	761	0.8
1	353.15	35000	765.4	0.8
1	353.15	40000	769.3	0.9
1	353.15	45000	773.3	0.9
1	353.15	50000	777	0.9
1	353.15	55000	780.6	0.9
1	353.15	60000	784	0.9
1	353.15	65000	787.4	1
1	353.15	70000	790.6	1
1	353.15	80000	796.7	1
1	353.15	90000	802.6	1.1
1	353.15	100000	808	1.1
1	353.15	110000	813.2	1.1
1	353.15	120000	818.1	1.2
1	353.15	130000	822.8	1.2
1	353.15	140000	827.3	1.2
1	373.15	1000	706.6	0.7
1	373.15	5000	712.8	0.7
1	373.15	10000	719.9	0.8
1	373.15	15000	726.3	0.8
1	373.15	20000	732	0.8
1	373.15	25000	737.7	0.8
1	373.15	30000	742.9	0.8
1	373.15	35000	747.8	0.9
1	373.15	40000	752.2	0.9
1	373.15	45000	756.6	0.9
1	373.15	50000	760.7	0.9
1	373.15	55000	764.7	0.9
1	373.15	60000	768.6	1
1	373.15	65000	772.1	1
1	373.15	70000	775.6	1
1	373.15	80000	782.3	1.1
1	373.15	90000	788.5	1.1
1	373.15	100000	794.4	1.1
1	373.15	110000	799.9	1.2
1	373.15	120000	805.3	1.2
1	373.15	130000	810.2	1.2
1	373.15	140000	815.1	1.3
1	393.15	1000	680.4	0.7
1	393.15	5000	688.2	0.7
1	393.15	10000	696.7	0.8
1	393.15	15000	704.4	0.8
1	393.15	20000	711.4	0.8
1	393.15	25000	717.6	0.8
1	393.15	30000	723.5	0.8
1	393.15	35000	729	0.9
1	393.15	40000	734.2	0.9
1	393.15	45000	739	0.9
1	393.15	50000	743.5	0.9
1	393.15	55000	747.9	1
1	393.15	60000	752.1	1
1	393.15	65000	756.1	1
1	393.15	70000	760	1
1	393.15	80000	767.2	1.1
1	393.15	90000	773.9	1.1
1	393.15	100000	780.2	1.2
1	393.15	110000	786.2	1.2
1	393.15	120000	791.8	1.3
1	393.15	130000	797.2	1.3
1	393.15	140000	802.3	1.3
0.848	293.15	100	974.7	1.3
0.848	293.15	1000	976	1.2
0.848	293.15	5000	981.3	0.9
0.848	293.15	10000	987.5	0.9
0.848	293.15	15000	993.3	0.9
0.848	293.15	20000	998.8	0.9
0.848	293.15	25000	1004	0.9
0.848	293.15	30000	1009	0.9
0.848	293.15	35000	1013.7	0.9
0.848	293.15	40000	1018.3	0.9
0.848	293.15	45000	1022.5	0.9
0.848	293.15	50000	1026.7	0.9
0.848	293.15	55000	1030.8	0.9
0.848	293.15	60000	1034.7	0.9
0.848	293.15	65000	1038.5	0.9
0.848	293.15	70000	1042.1	0.9
0.848	293.15	80000	1049.2	1
0.848	293.15	90000	1055.8	1
0.848	293.15	100000	1062.1	1
0.848	293.15	110000	1068.2	1
0.848	293.15	120000	1074	1
0.848	293.15	130000	1079.6	1.1
0.848	293.15	140000	1084.7	1.1
0.848	298.15	100	968.6	1.1
0.848	298.15	1000	969.9	1
0.848	298.15	5000	975.4	0.9
0.848	298.15	10000	981.9	0.9
0.848	298.15	15000	987.9	0.9
0.848	298.15	20000	993.4	0.9
0.848	298.15	25000	998.8	0.9
0.848	298.15	30000	1003.9	0.9
0.848	298.15	35000	1008.8	0.9
0.848	298.15	40000	1013.4	0.9
0.848	298.15	45000	1017.9	0.9
0.848	298.15	50000	1022.1	0.9
0.848	298.15	55000	1026.3	0.9
0.848	298.15	60000	1030.3	0.9
0.848	298.15	65000	1034.1	0.9
0.848	298.15	70000	1037.7	0.9
0.848	298.15	80000	1044.9	1
0.848	298.15	90000	1051.7	1
0.848	298.15	100000	1058.2	1
0.848	298.15	110000	1064.1	1
0.848	298.15	120000	1070.2	1
0.848	298.15	130000	1075.7	1.1
0.848	298.15	140000	1081.2	1.1
0.848	313.15	100	949.5	1.1
0.848	313.15	1000	950.9	1
0.848	313.15	5000	957.1	0.9
0.848	313.15	10000	964.2	0.9
0.848	313.15	15000	970.9	0.9
0.848	313.15	20000	977	0.9
0.848	313.15	25000	982.7	0.9
0.848	313.15	30000	988.4	0.9
0.848	313.15	35000	993.6	0.9
0.848	313.15	40000	998.5	0.9
0.848	313.15	45000	1003.3	0.9
0.848	313.15	50000	1007.9	0.9
0.848	313.15	55000	1012.3	0.9
0.848	313.15	60000	1016.5	0.9
0.848	313.15	65000	1020.6	0.9
0.848	313.15	70000	1024.6	0.9
0.848	313.15	80000	1032.1	0.9
0.848	313.15	90000	1039.2	1
0.848	313.15	100000	1045.9	1
0.848	313.15	110000	1052.4	1
0.848	313.15	120000	1058.4	1
0.848	313.15	130000	1064.3	1
0.848	313.15	140000	1069.9	1.1
0.848	333.15	100	922.2	1.4
0.848	333.15	1000	923.9	1
0.848	333.15	5000	931.2	0.9
0.848	333.15	10000	939.5	0.9
0.848	333.15	15000	947.1	0.9
0.848	333.15	20000	954	0.9
0.848	333.15	25000	960.6	0.9
0.848	333.15	30000	966.8	0.9
0.848	333.15	35000	972.5	0.9
0.848	333.15	40000	978.1	0.9
0.848	333.15	45000	983.4	0.9
0.848	333.15	50000	988.4	0.9
0.848	333.15	55000	993.2	0.9
0.848	333.15	60000	997.7	0.9
0.848	333.15	65000	1002.2	0.9
0.848	333.15	70000	1006.4	0.9
0.848	333.15	80000	1014.5	0.9
0.848	333.15	90000	1022.2	0.9
0.848	333.15	100000	1029.3	0.9
0.848	333.15	110000	1036.2	1
0.848	333.15	120000	1042.6	1
0.848	333.15	130000	1048.9	1
0.848	333.15	140000	1054.9	1
0.848	353.15	1000	894.3	0.9
0.848	353.15	5000	903	0.9
0.848	353.15	10000	912.8	0.9
0.848	353.15	15000	921.6	0.9
0.848	353.15	20000	929.7	0.9
0.848	353.15	25000	937.1	0.9
0.848	353.15	30000	944	0.9
0.848	353.15	35000	950.6	0.9
0.848	353.15	40000	956.5	0.9
0.848	353.15	45000	962.4	0.9
0.848	353.15	50000	967.9	0.9
0.848	353.15	55000	973.1	0.9
0.848	353.15	60000	978.2	0.9
0.848	353.15	65000	983	0.9
0.848	353.15	70000	987.7	0.9
0.848	353.15	80000	996.3	0.9
0.848	353.15	90000	1004.6	0.9
0.848	353.15	100000	1012.3	0.9
0.848	353.15	110000	1019.6	0.9
0.848	353.15	120000	1026.4	0.9
0.848	353.15	130000	1033	1
0.848	353.15	140000	1039.2	1
0.848	373.15	1000	861.4	0.9
0.848	373.15	5000	872.1	0.8
0.848	373.15	10000	883.9	0.9
0.848	373.15	15000	894.2	0.9
0.848	373.15	20000	903.3	0.9
0.848	373.15	25000	912	0.9
0.848	373.15	30000	919.9	0.9
0.848	373.15	35000	927.3	0.9
0.848	373.15	40000	933.9	0.9
0.848	373.15	45000	940.3	0.9
0.848	373.15	50000	946.5	0.9
0.848	373.15	55000	952.2	0.9
0.848	373.15	60000	957.7	0.9
0.848	373.15	65000	963	0.9
0.848	373.15	70000	968	0.9
0.848	373.15	80000	977.4	0.9
0.848	373.15	90000	986.2	0.9
0.848	373.15	100000	994.5	0.9
0.848	373.15	110000	1002.3	0.9
0.848	373.15	120000	1009.7	0.9
0.848	373.15	130000	1016.6	0.9
0.848	373.15	140000	1023.3	0.9
0.848	393.15	1000	824.6	0.9
0.848	393.15	5000	838.4	0.8
0.848	393.15	10000	852.7	0.9
0.848	393.15	15000	865.1	0.9
0.848	393.15	20000	876.1	0.9
0.848	393.15	25000	885.8	0.9
0.848	393.15	30000	894.7	0.9
0.848	393.15	35000	903.1	0.9
0.848	393.15	40000	910.6	0.9
0.848	393.15	45000	917.8	0.9
0.848	393.15	50000	924.4	0.9
0.848	393.15	55000	930.7	0.9
0.848	393.15	60000	936.8	0.9
0.848	393.15	65000	942.5	0.9
0.848	393.15	70000	948	0.9
0.848	393.15	80000	958.3	0.9
0.848	393.15	90000	967.8	0.9
0.848	393.15	100000	976.7	0.9
0.848	393.15	110000	984.9	0.9
0.848	393.15	120000	992.6	0.9
0.848	393.15	130000	1000	0.9
0.848	393.15	140000	1007.1	0.9
0.6725	293.15	100	1126.3	1.1
0.6725	293.15	1000	1128	1
0.6725	293.15	5000	1135.2	0.8
0.6725	293.15	10000	1143.6	0.8
0.6725	293.15	15000	1151.3	0.9
0.6725	293.15	20000	1158.5	0.9
0.6725	293.15	25000	1165.4	0.9
0.6725	293.15	30000	1171.9	0.9
0.6725	293.15	35000	1178	0.9
0.6725	293.15	40000	1183.9	0.9
0.6725	293.15	45000	1189.4	1
0.6725	293.15	50000	1194.9	1
0.6725	293.15	55000	1200.1	1
0.6725	293.15	60000	1205	1.1
0.6725	293.15	65000	1209.8	1.1
0.6725	293.15	70000	1214.5	1.1
0.6725	293.15	80000	1223.4	1.2
0.6725	293.15	90000	1231.7	1.3
0.6725	293.15	100000	1239.6	1.4
0.6725	293.15	110000	1247.3	1.5
0.6725	293.15	120000	1254.4	1.6
0.6725	293.15	130000	1261.3	1.7
0.6725	293.15	140000	1267.8	1.8
0.6725	298.15	100	1118.4	0.9
0.6725	298.15	1000	1120.1	0.9
0.6725	298.15	5000	1127.7	0.8
0.6725	298.15	10000	1136.4	0.8
0.6725	298.15	15000	1144.4	0.9
0.6725	298.15	20000	1151.8	0.9
0.6725	298.15	25000	1158.9	0.9
0.6725	298.15	30000	1165.5	0.9
0.6725	298.15	35000	1171.9	0.9
0.6725	298.15	40000	1177.8	0.9
0.6725	298.15	45000	1183.6	1
0.6725	298.15	50000	1189	1
0.6725	298.15	55000	1194.4	1
0.6725	298.15	60000	1199.6	1.1
0.6725	298.15	65000	1204.4	1.1
0.6725	298.15	70000	1209.1	1.1
0.6725	298.15	80000	1218.2	1.2
0.6725	298.15	90000	1226.7	1.3
0.6725	298.15	100000	1234.8	1.4
0.6725	298.15	110000	1242.3	1.5
0.6725	298.15	120000	1249.7	1.6
0.6725	298.15	130000	1256.7	1.7
0.6725	298.15	140000	1263.4	1.8
0.6725	313.15	100	1093.7	0.9
0.6725	313.15	1000	1095.8	0.9
0.6725	313.15	5000	1104.3	0.8
0.6725	313.15	10000	1114	0.8
0.6725	313.15	15000	1122.9	0.8
0.6725	313.15	20000	1131.1	0.9
0.6725	313.15	25000	1138.8	0.9
0.6725	313.15	30000	1146.1	0.9
0.6725	313.15	35000	1152.9	0.9
0.6725	313.15	40000	1159.4	0.9
0.6725	313.15	45000	1165.6	0.9
0.6725	313.15	50000	1171.4	1
0.6725	313.15	55000	1177.2	1
0.6725	313.15	60000	1182.4	1
0.6725	313.15	65000	1187.8	1.1
0.6725	313.15	70000	1192.8	1.1
0.6725	313.15	80000	1202.3	1.2
0.6725	313.15	90000	1211.3	1.2
0.6725	313.15	100000	1219.7	1.3
0.6725	313.15	110000	1227.8	1.4
0.6725	313.15	120000	1235.4	1.5
0.6725	313.15	130000	1242.7	1.6
0.6725	313.15	140000	1249.6	1.7
0.6725	333.15	100	1058.7	1.1
0.6725	333.15	1000	1061.2	0.8
0.6725	333.15	5000	1071.4	0.8
0.6725	333.15	10000	1082.8	0.8
0.6725	333.15	15000	1093.2	0.8
0.6725	333.15	20000	1102.5	0.8
0.6725	333.15	25000	1111.3	0.8
0.6725	333.15	30000	1119.4	0.9
0.6725	333.15	35000	1127	0.9
0.6725	333.15	40000	1134.2	0.9
0.6725	333.15	45000	1141.1	0.9
0.6725	333.15	50000	1147.5	0.9
0.6725	333.15	55000	1153.7	1
0.6725	333.15	60000	1159.5	1
0.6725	333.15	65000	1165.2	1
0.6725	333.15	70000	1170.7	1
0.6725	333.15	80000	1181	1.1
0.6725	333.15	90000	1190.6	1.2
0.6725	333.15	100000	1199.7	1.3
0.6725	333.15	110000	1208.2	1.3
0.6725	333.15	120000	1216.2	1.4
0.6725	333.15	130000	1224.1	1.5
0.6725	333.15	140000	1231.5	1.6
0.6725	353.15	1000	1023.8	0.8
0.6725	353.15	5000	1036.2	0.8
0.6725	353.15	10000	1049.8	0.8
0.6725	353.15	15000	1061.9	0.8
0.6725	353.15	20000	1072.8	0.8
0.6725	353.15	25000	1082.7	0.8
0.6725	353.15	30000	1091.8	0.8
0.6725	353.15	35000	1100.4	0.9
0.6725	353.15	40000	1108.1	0.9
0.6725	353.15	45000	1115.8	0.9
0.6725	353.15	50000	1122.9	0.9
0.6725	353.15	55000	1129.6	0.9
0.6725	353.15	60000	1136	0.9
0.6725	353.15	65000	1142.2	1
0.6725	353.15	70000	1148.1	1
0.6725	353.15	80000	1159.1	1
0.6725	353.15	90000	1169.6	1.1
0.6725	353.15	100000	1179.1	1.2
0.6725	353.15	110000	1188.4	1.3
0.6725	353.15	120000	1196.9	1.3
0.6725	353.15	130000	1205.1	1.4
0.6725	353.15	140000	1212.8	1.5
0.6725	373.15	1000	982.4	0.8
0.6725	373.15	5000	998.1	0.8
0.6725	373.15	10000	1014.6	0.8
0.6725	373.15	15000	1028.9	0.8
0.6725	373.15	20000	1041.2	0.8
0.6725	373.15	25000	1052.7	0.8
0.6725	373.15	30000	1063.2	0.8
0.6725	373.15	35000	1072.8	0.8
0.6725	373.15	40000	1081.4	0.8
0.6725	373.15	45000	1089.8	0.9
0.6725	373.15	50000	1097.6	0.9
0.6725	373.15	55000	1105	0.9
0.6725	373.15	60000	1112.1	0.9
0.6725	373.15	65000	1118.7	0.9
0.6725	373.15	70000	1125.1	1
0.6725	373.15	80000	1137.1	1
0.6725	373.15	90000	1148.1	1.1
0.6725	373.15	100000	1158.5	1.1
0.6725	373.15	110000	1168.1	1.2
0.6725	373.15	120000	1177.2	1.3
0.6725	373.15	130000	1185.9	1.4
0.6725	373.15	140000	1194.1	1.4
0.6725	393.15	1000	936.1	0.8
0.6725	393.15	5000	956.5	0.8
0.6725	393.15	10000	977	0.8
0.6725	393.15	15000	994.1	0.8
0.6725	393.15	20000	1009	0.8
0.6725	393.15	25000	1021.9	0.8
0.6725	393.15	30000	1033.7	0.8
0.6725	393.15	35000	1044.5	0.8
0.6725	393.15	40000	1054.3	0.8
0.6725	393.15	45000	1063.4	0.8
0.6725	393.15	50000	1072.1	0.8
0.6725	393.15	55000	1080.1	0.9
0.6725	393.15	60000	1087.9	0.9
0.6725	393.15	65000	1095.1	0.9
0.6725	393.15	70000	1102	0.9
0.6725	393.15	80000	1114.9	1
0.6725	393.15	90000	1126.7	1
0.6725	393.15	100000	1137.8	1.1
0.6725	393.15	110000	1148	1.1
0.6725	393.15	120000	1157.7	1.2
0.6725	393.15	130000	1166.8	1.3
0.6725	393.15	140000	1175.5	1.4
0.4981	293.15	100	1235.2	0.9
0.4981	293.15	1000	1237.3	0.8
0.4981	293.15	5000	1246	0.8
0.4981	293.15	10000	1256.1	0.9
0.4981	293.15	15000	1265.4	0.9
0.4981	293.15	20000	1274	0.9
0.4981	293.15	25000	1282.1	0.9
0.4981	293.15	30000	1289.8	1
0.4981	293.15	35000	1297.1	1
0.4981	293.15	40000	1303.9	1.1
0.4981	293.15	45000	1310.5	1.1
0.4981	293.15	50000	1316.8	1.2
0.4981	293.15	55000	1322.9	1.2
0.4981	293.15	60000	1328.6	1.3
0.4981	293.15	65000	1334.2	1.3
0.4981	293.15	70000	1339.6	1.4
0.4981	293.15	80000	1350	1.5
0.4981	293.15	90000	1359.6	1.7
0.4981	293.15	100000	1368.6	1.8
0.4981	293.15	110000	1377.5	2
0.4981	293.15	120000	1385.7	2.2
0.4981	293.15	130000	1393.6	2.4
0.4981	293.15	140000	1401.1	2.6
0.4981	298.15	100	1226	0.8
0.4981	298.15	1000	1228.1	0.8
0.4981	298.15	5000	1237.3	0.8
0.4981	298.15	10000	1247.7	0.8
0.4981	298.15	15000	1257.4	0.9
0.4981	298.15	20000	1266.3	0.9
0.4981	298.15	25000	1274.7	0.9
0.4981	298.15	30000	1282.5	1
0.4981	298.15	35000	1290	1
0.4981	298.15	40000	1297.1	1.1
0.4981	298.15	45000	1303.8	1.1
0.4981	298.15	50000	1310.2	1.2
0.4981	298.15	55000	1316.4	1.2
0.4981	298.15	60000	1322.4	1.3
0.4981	298.15	65000	1328.1	1.3
0.4981	298.15	70000	1333.4	1.4
0.4981	298.15	80000	1344	1.5
0.4981	298.15	90000	1353.9	1.7
0.4981	298.15	100000	1363.2	1.8
0.4981	298.15	110000	1371.9	2
0.4981	298.15	120000	1380.5	2.2
0.4981	298.15	130000	1388.4	2.4
0.4981	298.15	140000	1396.1	2.6
0.4981	313.15	100	1197.2	0.8
0.4981	313.15	1000	1199.8	0.8
0.4981	313.15	5000	1210.2	0.8
0.4981	313.15	10000	1222	0.8
0.4981	313.15	15000	1232.7	0.9
0.4981	313.15	20000	1242.5	0.9
0.4981	313.15	25000	1251.7	0.9
0.4981	313.15	30000	1260.4	0.9
0.4981	313.15	35000	1268.5	1
0.4981	313.15	40000	1276	1
0.4981	313.15	45000	1283.3	1.1
0.4981	313.15	50000	1290.1	1.1
0.4981	313.15	55000	1296.9	1.2
0.4981	313.15	60000	1303.1	1.2
0.4981	313.15	65000	1309.2	1.3
0.4981	313.15	70000	1315.1	1.3
0.4981	313.15	80000	1326.2	1.5
0.4981	313.15	90000	1336.5	1.6
0.4981	313.15	100000	1346.2	1.7
0.4981	313.15	110000	1355.5	1.9
0.4981	313.15	120000	1364.3	2.1
0.4981	313.15	130000	1372.7	2.3
0.4981	313.15	140000	1380.6	2.5
0.4981	333.15	100	1156.7	0.9
0.4981	333.15	1000	1159.8	0.8
0.4981	333.15	5000	1172.4	0.8
0.4981	333.15	10000	1186.4	0.8
0.4981	333.15	15000	1198.8	0.8
0.4981	333.15	20000	1210.1	0.9
0.4981	333.15	25000	1220.6	0.9
0.4981	333.15	30000	1230.2	0.9
0.4981	333.15	35000	1239.1	0.9
0.4981	333.15	40000	1247.7	1
0.4981	333.15	45000	1255.7	1
0.4981	333.15	50000	1263.3	1.1
0.4981	333.15	55000	1270.5	1.1
0.4981	333.15	60000	1277.3	1.2
0.4981	333.15	65000	1284	1.2
0.4981	333.15	70000	1290.2	1.3
0.4981	333.15	80000	1302.2	1.4
0.4981	333.15	90000	1313.4	1.5
0.4981	333.15	100000	1323.7	1.7
0.4981	333.15	110000	1333.7	1.8
0.4981	333.15	120000	1342.9	2
0.4981	333.15	130000	1351.8	2.2
0.4981	333.15	140000	1360.3	2.3
0.4981	353.15	1000	1116.7	0.8
0.4981	353.15	5000	1132.2	0.8
0.4981	353.15	10000	1149	0.8
0.4981	353.15	15000	1163.6	0.8
0.4981	353.15	20000	1176.7	0.8
0.4981	353.15	25000	1188.5	0.9
0.4981	353.15	30000	1199.4	0.9
0.4981	353.15	35000	1209.5	0.9
0.4981	353.15	40000	1218.7	0.9
0.4981	353.15	45000	1227.6	1
0.4981	353.15	50000	1235.9	1
0.4981	353.15	55000	1243.8	1.1
0.4981	353.15	60000	1251.3	1.1
0.4981	353.15	65000	1258.4	1.2
0.4981	353.15	70000	1265.3	1.2
0.4981	353.15	80000	1278.1	1.3
0.4981	353.15	90000	1290.1	1.4
0.4981	353.15	100000	1301.2	1.6
0.4981	353.15	110000	1311.7	1.7
0.4981	353.15	120000	1321.6	1.9
0.4981	353.15	130000	1331	2
0.4981	353.15	140000	1339.8	2.2
0.4981	373.15	1000	1069.1	0.8
0.4981	373.15	5000	1088.9	0.8
0.4981	373.15	10000	1109.3	0.8
0.4981	373.15	15000	1126.7	0.8
0.4981	373.15	20000	1141.6	0.8
0.4981	373.15	25000	1155.3	0.8
0.4981	373.15	30000	1167.7	0.9
0.4981	373.15	35000	1179.1	0.9
0.4981	373.15	40000	1189.3	0.9
0.4981	373.15	45000	1199.1	0.9
0.4981	373.15	50000	1208.2	1
0.4981	373.15	55000	1216.8	1
0.4981	373.15	60000	1225	1.1
0.4981	373.15	65000	1232.7	1.1
0.4981	373.15	70000	1240.1	1.2
0.4981	373.15	80000	1254	1.3
0.4981	373.15	90000	1266.7	1.4
0.4981	373.15	100000	1278.6	1.5
0.4981	373.15	110000	1289.8	1.6
0.4981	373.15	120000	1300.1	1.8
0.4981	373.15	130000	1310	1.9
0.4981	373.15	140000	1318.8	2.1
0.4981	393.15	1000	1015.8	0.8
0.4981	393.15	5000	1042.1	0.8
0.4981	393.15	10000	1067.6	0.8
0.4981	393.15	15000	1088.5	0.8
0.4981	393.15	20000	1106.2	0.8
0.4981	393.15	25000	1121.7	0.8
0.4981	393.15	30000	1135.6	0.8
0.4981	393.15	35000	1148.3	0.9
0.4981	393.15	40000	1159.9	0.9
0.4981	393.15	45000	1170.6	0.9
0.4981	393.15	50000	1180.5	0.9
0.4981	393.15	55000	1189.9	1
0.4981	393.15	60000	1198.9	1
0.4981	393.15	65000	1207.2	1.1
0.4981	393.15	70000	1215.2	1.1
0.4981	393.15	80000	1230	1.2
0.4981	393.15	90000	1243.6	1.3
0.4981	393.15	100000	1256.3	1.4
0.4981	393.15	110000	1268	1.5
0.4981	393.15	120000	1279	1.7
0.4981	393.15	130000	1289.4	1.8
0.4981	393.15	140000	1299.3	2
0.3947	293.15	100	1286.9	0.8
0.3947	293.15	1000	1289.2	0.8
0.3947	293.15	5000	1298.6	0.8
0.3947	293.15	10000	1309.6	0.9
0.3947	293.15	15000	1319.6	0.9
0.3947	293.15	20000	1328.9	0.9
0.3947	293.15	25000	1337.6	1
0.3947	293.15	30000	1345.9	1
0.3947	293.15	35000	1353.7	1.1
0.3947	293.15	40000	1361.1	1.1
0.3947	293.15	45000	1368	1.2
0.3947	293.15	50000	1374.8	1.3
0.3947	293.15	55000	1381.3	1.3
0.3947	293.15	60000	1387.5	1.4
0.3947	293.15	65000	1393.4	1.5
0.3947	293.15	70000	1399.2	1.5
0.3947	293.15	80000	1410.2	1.7
0.3947	293.15	90000	1420.5	1.9
0.3947	293.15	100000	1430.1	2.1
0.3947	293.15	110000	1439.5	2.3
0.3947	293.15	120000	1448.2	2.5
0.3947	293.15	130000	1456.7	2.7
0.3947	293.15	140000	1464.5	3
0.3947	298.15	100	1277	0.8
0.3947	298.15	1000	1279.4	0.8
0.3947	298.15	5000	1289.3	0.8
0.3947	298.15	10000	1300.7	0.9
0.3947	298.15	15000	1311.1	0.9
0.3947	298.15	20000	1320.7	0.9
0.3947	298.15	25000	1329.7	1
0.3947	298.15	30000	1338.1	1
0.3947	298.15	35000	1346.2	1.1
0.3947	298.15	40000	1353.8	1.1
0.3947	298.15	45000	1361	1.2
0.3947	298.15	50000	1367.8	1.2
0.3947	298.15	55000	1374.5	1.3
0.3947	298.15	60000	1380.9	1.4
0.3947	298.15	65000	1387	1.5
0.3947	298.15	70000	1392.7	1.5
0.3947	298.15	80000	1404	1.7
0.3947	298.15	90000	1414.4	1.9
0.3947	298.15	100000	1424.4	2.1
0.3947	298.15	110000	1433.6	2.3
0.3947	298.15	120000	1442.7	2.5
0.3947	298.15	130000	1451.2	2.7
0.3947	298.15	140000	1459.3	2.9
0.3947	313.15	100	1246.5	0.8
0.3947	313.15	1000	1249.3	0.8
0.3947	313.15	5000	1260.6	0.8
0.3947	313.15	10000	1273.4	0.8
0.3947	313.15	15000	1285	0.9
0.3947	313.15	20000	1295.7	0.9
0.3947	313.15	25000	1305.5	0.9
0.3947	313.15	30000	1314.9	1
0.3947	313.15	35000	1323.5	1
0.3947	313.15	40000	1331.6	1.1
0.3947	313.15	45000	1339.5	1.1
0.3947	313.15	50000	1346.8	1.2
0.3947	313.15	55000	1353.9	1.3
0.3947	313.15	60000	1360.6	1.3
0.3947	313.15	65000	1367.2	1.4
0.3947	313.15	70000	1373.4	1.5
0.3947	313.15	80000	1385.3	1.6
0.3947	313.15	90000	1396.2	1.8
0.3947	313.15	100000	1406.6	2
0.3947	313.15	110000	1416.5	2.2
0.3947	313.15	120000	1425.7	2.4
0.3947	313.15	130000	1434.7	2.6
0.3947	313.15	140000	1443.1	2.8
0.3947	333.15	100	1203.4	0.8
0.3947	333.15	1000	1206.7	0.8
0.3947	333.15	5000	1220.5	0.8
0.3947	333.15	10000	1235.8	0.8
0.3947	333.15	15000	1249.3	0.8
0.3947	333.15	20000	1261.5	0.9
0.3947	333.15	25000	1272.8	0.9
0.3947	333.15	30000	1283.2	1
0.3947	333.15	35000	1292.8	1
0.3947	333.15	40000	1301.9	1
0.3947	333.15	45000	1310.5	1.1
0.3947	333.15	50000	1318.6	1.2
0.3947	333.15	55000	1326.3	1.2
0.3947	333.15	60000	1333.6	1.3
0.3947	333.15	65000	1340.7	1.3
0.3947	333.15	70000	1347.5	1.4
0.3947	333.15	80000	1360.2	1.5
0.3947	333.15	90000	1372.1	1.7
0.3947	333.15	100000	1383.1	1.9
0.3947	333.15	110000	1393.5	2.1
0.3947	333.15	120000	1403.4	2.3
0.3947	333.15	130000	1412.9	2.5
0.3947	333.15	140000	1421.8	2.7
0.3947	353.15	1000	1161	0.8
0.3947	353.15	5000	1178.1	0.8
0.3947	353.15	10000	1196.5	0.8
0.3947	353.15	15000	1212.4	0.8
0.3947	353.15	20000	1226.6	0.9
0.3947	353.15	25000	1239.3	0.9
0.3947	353.15	30000	1251	0.9
0.3947	353.15	35000	1261.9	1
0.3947	353.15	40000	1271.7	1
0.3947	353.15	45000	1281.3	1
0.3947	353.15	50000	1290.2	1.1
0.3947	353.15	55000	1298.6	1.2
0.3947	353.15	60000	1306.6	1.2
0.3947	353.15	65000	1314.2	1.3
0.3947	353.15	70000	1321.6	1.3
0.3947	353.15	80000	1335.1	1.5
0.3947	353.15	90000	1347.9	1.6
0.3947	353.15	100000	1359.7	1.8
0.3947	353.15	110000	1370.9	2
0.3947	353.15	120000	1381.3	2.2
0.3947	353.15	130000	1391.2	2.4
0.3947	353.15	140000	1400.6	2.6
0.3947	373.15	1000	1110.8	0.8
0.3947	373.15	5000	1132.6	0.8
0.3947	373.15	10000	1155.1	0.8
0.3947	373.15	15000	1173.9	0.8
0.3947	373.15	20000	1190	0.8
0.3947	373.15	25000	1204.8	0.9
0.3947	373.15	30000	1218.1	0.9
0.3947	373.15	35000	1230.2	0.9
0.3947	373.15	40000	1241.2	1
0.3947	373.15	45000	1251.7	1
0.3947	373.15	50000	1261.5	1.1
0.3947	373.15	55000	1270.7	1.1
0.3947	373.15	60000	1279.4	1.2
0.3947	373.15	65000	1287.6	1.2
0.3947	373.15	70000	1295.5	1.3
0.3947	373.15	80000	1310.1	1.4
0.3947	373.15	90000	1323.7	1.5
0.3947	373.15	100000	1336.3	1.7
0.3947	373.15	110000	1348.1	1.9
0.3947	373.15	120000	1359.2	2.1
0.3947	373.15	130000	1369.6	2.3
0.3947	373.15	140000	1379.5	2.5
0.3947	393.15	1000	1054.7	0.8
0.3947	393.15	5000	1083.8	0.8
0.3947	393.15	10000	1111.7	0.8
0.3947	393.15	15000	1134.3	0.8
0.3947	393.15	20000	1153.5	0.8
0.3947	393.15	25000	1170.2	0.8
0.3947	393.15	30000	1185.1	0.9
0.3947	393.15	35000	1198.6	0.9
0.3947	393.15	40000	1211	0.9
0.3947	393.15	45000	1222.4	1
0.3947	393.15	50000	1233.1	1
0.3947	393.15	55000	1243	1.1
0.3947	393.15	60000	1252.6	1.1
0.3947	393.15	65000	1261.4	1.2
0.3947	393.15	70000	1269.9	1.2
0.3947	393.15	80000	1285.6	1.3
0.3947	393.15	90000	1300	1.5
0.3947	393.15	100000	1313.3	1.6
0.3947	393.15	110000	1325.8	1.8
0.3947	393.15	120000	1337.5	1.9
0.3947	393.15	130000	1348.4	2.1
0.3947	393.15	140000	1358.8	2.3
0.3223	293.15	100	1318.8	0.8
0.3223	293.15	1000	1321.2	0.8
0.3223	293.15	5000	1331.1	0.8
0.3223	293.15	10000	1342.6	0.9
0.3223	293.15	15000	1353.1	0.9
0.3223	293.15	20000	1362.8	0.9
0.3223	293.15	25000	1371.9	1
0.3223	293.15	30000	1380.5	1.1
0.3223	293.15	35000	1388.7	1.1
0.3223	293.15	40000	1396.3	1.2
0.3223	293.15	45000	1403.6	1.2
0.3223	293.15	50000	1410.6	1.3
0.3223	293.15	55000	1417.4	1.4
0.3223	293.15	60000	1423.8	1.5
0.3223	293.15	65000	1430	1.6
0.3223	293.15	70000	1436	1.6
0.3223	293.15	80000	1447.4	1.8
0.3223	293.15	90000	1458	2
0.3223	293.15	100000	1468.1	2.3
0.3223	293.15	110000	1477.7	2.5
0.3223	293.15	120000	1486.8	2.7
0.3223	293.15	130000	1495.5	3
0.3223	293.15	140000	1503.7	3.2
0.3223	298.15	100	1308.6	0.8
0.3223	298.15	1000	1311	0.8
0.3223	298.15	5000	1321.5	0.8
0.3223	298.15	10000	1333.4	0.9
0.3223	298.15	15000	1344.3	0.9
0.3223	298.15	20000	1354.3	0.9
0.3223	298.15	25000	1363.7	1
0.3223	298.15	30000	1372.5	1
0.3223	298.15	35000	1381	1.1
0.3223	298.15	40000	1388.8	1.2
0.3223	298.15	45000	1396.3	1.2
0.3223	298.15	50000	1403.4	1.3
0.3223	298.15	55000	1410.3	1.4
0.3223	298.15	60000	1417	1.5
0.3223	298.15	65000	1423.3	1.5
0.3223	298.15	70000	1429.3	1.6
0.3223	298.15	80000	1440.9	1.8
0.3223	298.15	90000	1451.8	2
0.3223	298.15	100000	1462.2	2.2
0.3223	298.15	110000	1471.7	2.5
0.3223	298.15	120000	1481.1	2.7
0.3223	298.15	130000	1489.9	2.9
0.3223	298.15	140000	1498.3	3.2
0.3223	313.15	100	1276.8	0.8
0.3223	313.15	1000	1279.7	0.8
0.3223	313.15	5000	1291.7	0.8
0.3223	313.15	10000	1305.2	0.8
0.3223	313.15	15000	1317.3	0.9
0.3223	313.15	20000	1328.4	0.9
0.3223	313.15	25000	1338.8	1
0.3223	313.15	30000	1348.5	1
0.3223	313.15	35000	1357.5	1.1
0.3223	313.15	40000	1365.9	1.1
0.3223	313.15	45000	1374.1	1.2
0.3223	313.15	50000	1381.7	1.3
0.3223	313.15	55000	1389.2	1.3
0.3223	313.15	60000	1396.1	1.4
0.3223	313.15	65000	1402.9	1.5
0.3223	313.15	70000	1409.4	1.6
0.3223	313.15	80000	1421.7	1.7
0.3223	313.15	90000	1433.1	1.9
0.3223	313.15	100000	1443.8	2.2
0.3223	313.15	110000	1454.1	2.4
0.3223	313.15	120000	1463.6	2.6
0.3223	313.15	130000	1472.9	2.8
0.3223	313.15	140000	1481.6	3.1
0.3223	333.15	100	1232.2	0.8
0.3223	333.15	1000	1235.8	0.8
0.3223	333.15	5000	1250.3	0.8
0.3223	333.15	10000	1266.3	0.8
0.3223	333.15	15000	1280.5	0.9
0.3223	333.15	20000	1293.2	0.9
0.3223	333.15	25000	1305	0.9
0.3223	333.15	30000	1315.9	1
0.3223	333.15	35000	1325.9	1
0.3223	333.15	40000	1335.4	1.1
0.3223	333.15	45000	1344.5	1.1
0.3223	333.15	50000	1352.8	1.2
0.3223	333.15	55000	1360.8	1.3
0.3223	333.15	60000	1368.5	1.3
0.3223	333.15	65000	1375.9	1.4
0.3223	333.15	70000	1382.8	1.5
0.3223	333.15	80000	1396	1.7
0.3223	333.15	90000	1408.3	1.8
0.3223	333.15	100000	1419.7	2
0.3223	333.15	110000	1430.6	2.3
0.3223	333.15	120000	1440.8	2.5
0.3223	333.15	130000	1450.6	2.7
0.3223	333.15	140000	1459.9	2.9
0.3223	353.15	1000	1188.6	0.8
0.3223	353.15	5000	1206.6	0.8
0.3223	353.15	10000	1225.9	0.8
0.3223	353.15	15000	1242.6	0.8
0.3223	353.15	20000	1257.4	0.9
0.3223	353.15	25000	1270.8	0.9
0.3223	353.15	30000	1283	0.9
0.3223	353.15	35000	1294.3	1
0.3223	353.15	40000	1304.6	1
0.3223	353.15	45000	1314.6	1.1
0.3223	353.15	50000	1323.7	1.2
0.3223	353.15	55000	1332.5	1.2
0.3223	353.15	60000	1340.8	1.3
0.3223	353.15	65000	1348.7	1.3
0.3223	353.15	70000	1356.4	1.4
0.3223	353.15	80000	1370.4	1.6
0.3223	353.15	90000	1383.7	1.7
0.3223	353.15	100000	1396	1.9
0.3223	353.15	110000	1407.4	2.1
0.3223	353.15	120000	1418.3	2.4
0.3223	353.15	130000	1428.6	2.6
0.3223	353.15	140000	1438.2	2.8
0.3223	373.15	1000	1136.9	0.8
0.3223	373.15	5000	1159.9	0.8
0.3223	373.15	10000	1183.6	0.8
0.3223	373.15	15000	1203.3	0.8
0.3223	373.15	20000	1220.3	0.8
0.3223	373.15	25000	1235.6	0.9
0.3223	373.15	30000	1249.5	0.9
0.3223	373.15	35000	1262.2	1
0.3223	373.15	40000	1273.6	1
0.3223	373.15	45000	1284.5	1
0.3223	373.15	50000	1294.7	1.1
0.3223	373.15	55000	1304.1	1.2
0.3223	373.15	60000	1313.2	1.2
0.3223	373.15	65000	1321.7	1.3
0.3223	373.15	70000	1329.9	1.4
0.3223	373.15	80000	1345.2	1.5
0.3223	373.15	90000	1359.1	1.7
0.3223	373.15	100000	1372.2	1.8
0.3223	373.15	110000	1384.4	2
0.3223	373.15	120000	1395.8	2.2
0.3223	373.15	130000	1406.6	2.5
0.3223	373.15	140000	1416.9	2.7
0.3223	393.15	1000	1079.4	0.8
0.3223	393.15	5000	1110.2	0.8
0.3223	393.15	10000	1139.5	0.8
0.3223	393.15	15000	1163.1	0.8
0.3223	393.15	20000	1183.1	0.8
0.3223	393.15	25000	1200.6	0.9
0.3223	393.15	30000	1216.1	0.9
0.3223	393.15	35000	1230.2	0.9
0.3223	393.15	40000	1243	1
0.3223	393.15	45000	1254.8	1
0.3223	393.15	50000	1265.9	1.1
0.3223	393.15	55000	1276.2	1.1
0.3223	393.15	60000	1286	1.2
0.3223	393.15	65000	1295.2	1.2
0.3223	393.15	70000	1304	1.3
0.3223	393.15	80000	1320.2	1.4
0.3223	393.15	90000	1335.2	1.6
0.3223	393.15	100000	1349	1.7
0.3223	393.15	110000	1361.8	1.9
0.3223	393.15	120000	1373.9	2.1
0.3223	393.15	130000	1385.2	2.3
0.3223	393.15	140000	1396	2.6
0.1474	293.15	100	1385.1	0.8
0.1474	293.15	1000	1387.7	0.8
0.1474	293.15	5000	1398.6	0.9
0.1474	293.15	10000	1411.2	0.9
0.1474	293.15	15000	1422.6	0.9
0.1474	293.15	20000	1433.1	1
0.1474	293.15	25000	1443	1.1
0.1474	293.15	30000	1452.4	1.1
0.1474	293.15	35000	1461.2	1.2
0.1474	293.15	40000	1469.4	1.3
0.1474	293.15	45000	1477.3	1.4
0.1474	293.15	50000	1484.9	1.5
0.1474	293.15	55000	1492.2	1.6
0.1474	293.15	60000	1499	1.7
0.1474	293.15	65000	1505.7	1.8
0.1474	293.15	70000	1512.1	1.9
0.1474	293.15	80000	1524.4	2.1
0.1474	293.15	90000	1535.9	2.4
0.1474	293.15	100000	1546.5	2.6
0.1474	293.15	110000	1556.9	2.9
0.1474	293.15	120000	1566.6	3.2
0.1474	293.15	130000	1575.9	3.4
0.1474	293.15	140000	1584.7	3.7
0.1474	298.15	100	1373.7	0.8
0.1474	298.15	1000	1376.4	0.8
0.1474	298.15	5000	1387.9	0.8
0.1474	298.15	10000	1400.9	0.9
0.1474	298.15	15000	1412.7	0.9
0.1474	298.15	20000	1423.6	1
0.1474	298.15	25000	1433.8	1.1
0.1474	298.15	30000	1443.4	1.1
0.1474	298.15	35000	1452.4	1.2
0.1474	298.15	40000	1460.9	1.3
0.1474	298.15	45000	1469	1.4
0.1474	298.15	50000	1476.7	1.4
0.1474	298.15	55000	1484.2	1.5
0.1474	298.15	60000	1491.3	1.6
0.1474	298.15	65000	1498.1	1.7
0.1474	298.15	70000	1504.5	1.8
0.1474	298.15	80000	1517	2.1
0.1474	298.15	90000	1528.6	2.3
0.1474	298.15	100000	1539.7	2.6
0.1474	298.15	110000	1549.9	2.8
0.1474	298.15	120000	1560.1	3.1
0.1474	298.15	130000	1569.3	3.4
0.1474	298.15	140000	1578.4	3.7
0.1474	313.15	100	1340.4	0.8
0.1474	313.15	1000	1343.6	0.8
0.1474	313.15	5000	1356.7	0.8
0.1474	313.15	10000	1371.4	0.9
0.1474	313.15	15000	1384.8	0.9
0.1474	313.15	20000	1396.9	1
0.1474	313.15	25000	1408	1
0.1474	313.15	30000	1418.6	1.1
0.1474	313.15	35000	1428.4	1.2
0.1474	313.15	40000	1437.5	1.2
0.1474	313.15	45000	1446.3	1.3
0.1474	313.15	50000	1454.6	1.4
0.1474	313.15	55000	1462.5	1.5
0.1474	313.15	60000	1470	1.6
0.1474	313.15	65000	1477.3	1.7
0.1474	313.15	70000	1484.3	1.8
0.1474	313.15	80000	1497.5	2
0.1474	313.15	90000	1509.8	2.3
0.1474	313.15	100000	1521.2	2.5
0.1474	313.15	110000	1532.2	2.8
0.1474	313.15	120000	1542.5	3
0.1474	313.15	130000	1552.3	3.3
0.1474	313.15	140000	1561.7	3.6
0.1474	333.15	100	1293.1	0.8
0.1474	333.15	1000	1297	0.8
0.1474	333.15	5000	1313	0.8
0.1474	333.15	10000	1330.7	0.9
0.1474	333.15	15000	1346.2	0.9
0.1474	333.15	20000	1360	0.9
0.1474	333.15	25000	1372.8	1
0.1474	333.15	30000	1384.6	1.1
0.1474	333.15	35000	1395.4	1.1
0.1474	333.15	40000	1405.7	1.2
0.1474	333.15	45000	1415.4	1.3
0.1474	333.15	50000	1424.4	1.3
0.1474	333.15	55000	1433	1.4
0.1474	333.15	60000	1441.3	1.5
0.1474	333.15	65000	1449.1	1.6
0.1474	333.15	70000	1456.6	1.7
0.1474	333.15	80000	1470.8	1.9
0.1474	333.15	90000	1484	2.1
0.1474	333.15	100000	1496.2	2.4
0.1474	333.15	110000	1507.8	2.6
0.1474	333.15	120000	1518.7	2.9
0.1474	333.15	130000	1529.2	3.2
0.1474	333.15	140000	1539.1	3.4
0.1474	353.15	1000	1247.6	0.8
0.1474	353.15	5000	1267.5	0.8
0.1474	353.15	10000	1288.6	0.8
0.1474	353.15	15000	1306.9	0.9
0.1474	353.15	20000	1323	0.9
0.1474	353.15	25000	1337.4	1
0.1474	353.15	30000	1350.6	1
0.1474	353.15	35000	1362.9	1.1
0.1474	353.15	40000	1373.9	1.1
0.1474	353.15	45000	1384.6	1.2
0.1474	353.15	50000	1394.6	1.3
0.1474	353.15	55000	1403.9	1.4
0.1474	353.15	60000	1412.8	1.4
0.1474	353.15	65000	1421.3	1.5
0.1474	353.15	70000	1429.5	1.6
0.1474	353.15	80000	1444.6	1.8
0.1474	353.15	90000	1458.7	2
0.1474	353.15	100000	1471.7	2.3
0.1474	353.15	110000	1484.1	2.5
0.1474	353.15	120000	1495.6	2.8
0.1474	353.15	130000	1506.5	3
0.1474	353.15	140000	1516.9	3.3
0.1474	373.15	1000	1194	0.8
0.1474	373.15	5000	1219.5	0.8
0.1474	373.15	10000	1245.3	0.8
0.1474	373.15	15000	1266.8	0.9
0.1474	373.15	20000	1285	0.9
0.1474	373.15	25000	1301.6	0.9
0.1474	373.15	30000	1316.6	1
0.1474	373.15	35000	1330.2	1
0.1474	373.15	40000	1342.4	1.1
0.1474	373.15	45000	1354.1	1.2
0.1474	373.15	50000	1364.9	1.2
0.1474	373.15	55000	1375.2	1.3
0.1474	373.15	60000	1384.9	1.4
0.1474	373.15	65000	1393.9	1.5
0.1474	373.15	70000	1402.7	1.5
0.1474	373.15	80000	1418.9	1.7
0.1474	373.15	90000	1433.8	1.9
0.1474	373.15	100000	1447.7	2.2
0.1474	373.15	110000	1460.7	2.4
0.1474	373.15	120000	1472.9	2.7
0.1474	373.15	130000	1484.4	2.9
0.1474	373.15	140000	1495.3	3.2
0.1474	393.15	1000	1135.5	0.8
0.1474	393.15	5000	1169.1	0.8
0.1474	393.15	10000	1200.8	0.8
0.1474	393.15	15000	1226.4	0.8
0.1474	393.15	20000	1247.8	0.9
0.1474	393.15	25000	1266.5	0.9
0.1474	393.15	30000	1283	0.9
0.1474	393.15	35000	1298.1	1
0.1474	393.15	40000	1311.8	1
0.1474	393.15	45000	1324.4	1.1
0.1474	393.15	50000	1336.2	1.2
0.1474	393.15	55000	1347.2	1.2
0.1474	393.15	60000	1357.7	1.3
0.1474	393.15	65000	1367.4	1.4
0.1474	393.15	70000	1376.7	1.5
0.1474	393.15	80000	1394.1	1.6
0.1474	393.15	90000	1409.8	1.8
0.1474	393.15	100000	1424.5	2.1
0.1474	393.15	110000	1438.1	2.3
0.1474	393.15	120000	1451	2.5
0.1474	393.15	130000	1462.9	2.8
0.1474	393.15	140000	1474.3	3
0	293.15	100	1433.9	0.8
0	293.15	1000	1436.6	0.8
0	293.15	5000	1448.2	0.9
0	293.15	10000	1461.3	0.9
0	293.15	15000	1473.4	1
0	293.15	20000	1484.5	1
0	293.15	25000	1494.8	1.1
0	293.15	30000	1504.7	1.2
0	293.15	35000	1513.9	1.3
0	293.15	40000	1522.5	1.4
0	293.15	45000	1530.8	1.5
0	293.15	50000	1538.7	1.6
0	293.15	55000	1546.3	1.7
0	293.15	60000	1553.5	1.8
0	293.15	65000	1560.5	1.9
0	293.15	70000	1567.2	2
0	293.15	80000	1580	2.3
0	293.15	90000	1591.9	2.6
0	293.15	100000	1603.1	2.9
0	293.15	110000	1613.9	3.2
0	293.15	120000	1624	3.5
0	293.15	130000	1633.7	3.7
0	293.15	140000	1642.8	4.1
0	298.15	100	1422.8	0.8
0	298.15	1000	1425.6	0.8
0	298.15	5000	1437.7	0.8
0	298.15	10000	1451.5	0.9
0	298.15	15000	1463.9	1
0	298.15	20000	1475.4	1
0	298.15	25000	1486.2	1.1
0	298.15	30000	1496.1	1.2
0	298.15	35000	1505.7	1.3
0	298.15	40000	1514.5	1.4
0	298.15	45000	1523	1.5
0	298.15	50000	1531.1	1.6
0	298.15	55000	1538.8	1.7
0	298.15	60000	1546.3	1.8
0	298.15	65000	1553.4	1.9
0	298.15	70000	1560.2	2
0	298.15	80000	1573.2	2.3
0	298.15	90000	1585.4	2.6
0	298.15	100000	1596.9	2.8
0	298.15	110000	1607.6	3.1
0	298.15	120000	1618	3.4
0	298.15	130000	1627.8	3.7
0	298.15	140000	1637.2	4
0	313.15	100	1388.4	0.8
0	313.15	1000	1391.8	0.8
0	313.15	5000	1405.6	0.8
0	313.15	10000	1421.1	0.9
0	313.15	15000	1435.1	0.9
0	313.15	20000	1447.8	1
0	313.15	25000	1459.5	1.1
0	313.15	30000	1470.6	1.1
0	313.15	35000	1480.8	1.2
0	313.15	40000	1490.3	1.3
0	313.15	45000	1499.5	1.4
0	313.15	50000	1508.1	1.5
0	313.15	55000	1516.4	1.6
0	313.15	60000	1524.3	1.7
0	313.15	65000	1531.9	1.8
0	313.15	70000	1539.2	2
0	313.15	80000	1552.9	2.2
0	313.15	90000	1565.7	2.5
0	313.15	100000	1577.6	2.8
0	313.15	110000	1589	3
0	313.15	120000	1599.7	3.3
0	313.15	130000	1610	3.6
0	313.15	140000	1619.7	3.9
0	333.15	100	1340.7	0.8
0	333.15	1000	1344.8	0.8
0	333.15	5000	1361.6	0.8
0	333.15	10000	1380.1	0.9
0	333.15	15000	1396.3	0.9
0	333.15	20000	1410.8	1
0	333.15	25000	1424.2	1
0	333.15	30000	1436.4	1.1
0	333.15	35000	1447.8	1.2
0	333.15	40000	1458.5	1.3
0	333.15	45000	1468.6	1.3
0	333.15	50000	1478	1.4
0	333.15	55000	1487	1.5
0	333.15	60000	1495.5	1.6
0	333.15	65000	1503.7	1.7
0	333.15	70000	1511.5	1.9
0	333.15	80000	1526.3	2.1
0	333.15	90000	1540	2.4
0	333.15	100000	1552.7	2.6
0	333.15	110000	1564.7	2.9
0	333.15	120000	1576	3.2
0	333.15	130000	1586.8	3.5
0	333.15	140000	1597.2	3.8
0	353.15	1000	1295.2	0.8
0	353.15	5000	1316.1	0.8
0	353.15	10000	1338.1	0.8
0	353.15	15000	1357.1	0.9
0	353.15	20000	1373.9	0.9
0	353.15	25000	1388.9	1
0	353.15	30000	1402.6	1.1
0	353.15	35000	1415.3	1.1
0	353.15	40000	1426.8	1.2
0	353.15	45000	1437.9	1.3
0	353.15	50000	1448.2	1.4
0	353.15	55000	1457.9	1.5
0	353.15	60000	1467.2	1.6
0	353.15	65000	1475.9	1.7
0	353.15	70000	1484.5	1.8
0	353.15	80000	1500.2	2
0	353.15	90000	1514.8	2.3
0	353.15	100000	1528.3	2.5
0	353.15	110000	1541.1	2.8
0	353.15	120000	1553	3.1
0	353.15	130000	1564.3	3.4
0	353.15	140000	1575.1	3.6
0	373.15	1000	1242.1	0.8
0	373.15	5000	1268.4	0.8
0	373.15	10000	1295.1	0.8
0	373.15	15000	1317.3	0.9
0	373.15	20000	1336.2	0.9
0	373.15	25000	1353.3	1
0	373.15	30000	1368.8	1
0	373.15	35000	1382.9	1.1
0	373.15	40000	1395.6	1.2
0	373.15	45000	1407.7	1.2
0	373.15	50000	1418.8	1.3
0	373.15	55000	1429.4	1.4
0	373.15	60000	1439.5	1.5
0	373.15	65000	1448.9	1.6
0	373.15	70000	1457.9	1.7
0	373.15	80000	1474.7	1.9
0	373.15	90000	1490.2	2.2
0	373.15	100000	1504.5	2.4
0	373.15	110000	1517.9	2.7
0	373.15	120000	1530.5	3
0	373.15	130000	1542.3	3.2
0	373.15	140000	1553.7	3.5
0	393.15	1000	1183.9	0.8
0	393.15	5000	1218.3	0.8
0	393.15	10000	1250.8	0.8
0	393.15	15000	1277	0.8
0	393.15	20000	1299.1	0.9
0	393.15	25000	1318.3	0.9
0	393.15	30000	1335.4	1
0	393.15	35000	1350.9	1
0	393.15	40000	1365.1	1.1
0	393.15	45000	1378.1	1.2
0	393.15	50000	1390.2	1.3
0	393.15	55000	1401.6	1.3
0	393.15	60000	1412.4	1.4
0	393.15	65000	1422.5	1.5
0	393.15	70000	1432.1	1.6
0	393.15	80000	1450	1.8
0	393.15	90000	1466.2	2.1
0	393.15	100000	1481.5	2.3
0	393.15	110000	1495.5	2.6
0	393.15	120000	1508.7	2.8
0	393.15	130000	1521.1	3.1
0	393.15	140000	1532.1	3.4

System: nonafluoroisobutyl ethyl ether + 1-ethoxy-1,1,2,2,3,3,4,4,4-nonafluorobutane + propan-2-ol; phases: Liquid
Fixed: Pressure, kPa = 100
Fixed: Solvent: Mole fraction of nonafluoroisobutyl ethyl ether = 0.617
Fixed: Frequency, MHz = 3
Property: Speed of sound, m/s (Liquid); method: Single path-length method
Temperature, K	Mole fraction of propan-2-ol	Speed of sound, m/s	uncertainty
293.15	1	1157.54	1.24
293.15	0.8483	931.61	1.36
293.15	0.673	802.01	1.28
293.15	0.4984	729.8	1.25
293.15	0.3945	700.59	1.25
293.15	0.3238	684.39	1.24
293.15	0.1495	654.4	1.24
293.15	0	637.83	1.24
298.15	1	1139.71	1.24
298.15	0.8482	913.88	1.34
298.15	0.6489	772.59	1.28
298.15	0.5025	714.45	1.25
298.15	0.3943	683.91	1.25
298.15	0.3006	663.41	1.24
298.15	0.1516	638.73	1.24
298.15	0	622.13	1.24
303.15	1	1122.56	1.24
303.15	0.848	896.39	1.35
303.15	0.6719	767.25	1.27
303.15	0.4973	696.29	1.25
303.15	0.3932	667.45	1.25
303.15	0.3228	651.84	1.24
303.15	0.149	622.54	1.24
303.15	0	606.46	1.24
313.15	1	1087.2	1.24
313.15	0.8474	861.01	1.35
313.15	0.6712	733.22	1.27
313.15	0.4983	663.82	1.25
313.15	0.394	635.32	1.25
313.15	0.3243	620.05	1.24
313.15	0.1502	591.35	1.24
313.15	0	575.75	1.24
323.15	1	1051.78	1.24
323.15	0.8482	827.09	1.35
323.15	0.6732	700.69	1.27
323.15	0.4964	630.75	1.25
323.15	0.3946	603.51	1.25
323.15	0.3224	588.19	1.24
323.15	0.1508	560.51	1.24
323.15	0	545.46	1.24
333.15	1	1015.29	1.24
333.15	0.8499	794.18	1.35
333.15	0.6725	667.6	1.27
333.15	0.4993	599.56	1.25
333.15	0.3953	572.22	1.25
333.15	0.3262	557.64	1.24
333.15	0.1501	529.89	1.24
333.15	0	515.64	1.24

System: nonafluoroisobutyl ethyl ether + 1-ethoxy-1,1,2,2,3,3,4,4,4-nonafluorobutane + propan-2-ol; phases: Liquid
Fixed: Pressure, kPa = 100
Fixed: Solvent: Mole fraction of nonafluoroisobutyl ethyl ether = 0.617
Property: Mass density, kg/m3 (Liquid); method: Vibrating tube method
Temperature, K	Mole fraction of propan-2-ol	Mass density, kg/m3	uncertainty
293.15	1	785.46	0.91
293.15	0.8483	974.47	1.05
293.15	0.673	1126.22	0.99
293.15	0.4984	1235.22	0.98
293.15	0.3945	1287.2	0.98
293.15	0.3238	1318.53	0.97
293.15	0.1495	1384.84	0.98
293.15	0	1434.27	0.98
298.15	1	781.27	0.92
298.15	0.8482	968.45	1.04
298.15	0.6489	1135.18	0.99
298.15	0.5025	1223.8	0.98
298.15	0.3943	1277.42	0.97
298.15	0.3006	1317.68	0.97
298.15	0.1516	1373.17	0.98
298.15	0	1423.06	0.98
303.15	1	777	0.92
303.15	0.848	962.32	1.04
303.15	0.6719	1110.99	0.99
303.15	0.4973	1217.13	0.98
303.15	0.3932	1267.87	0.97
303.15	0.3228	1298.14	0.97
303.15	0.149	1362.84	0.98
303.15	0	1411.62	0.97
313.15	1	768.21	0.92
313.15	0.8474	949.96	1.03
313.15	0.6712	1094.77	0.98
313.15	0.4983	1197.32	0.97
313.15	0.394	1246.92	0.97
313.15	0.3243	1276.28	0.96
313.15	0.1502	1339.89	0.97
313.15	0	1388.53	0.97
323.15	1	759.07	0.92
323.15	0.8482	935.93	1.03
323.15	0.6732	1076.43	0.98
323.15	0.4964	1178.33	0.97
323.15	0.3946	1225.64	0.96
323.15	0.3224	1255.28	0.96
323.15	0.1508	1316.58	0.97
323.15	0	1365.15	0.96
333.15	1	749.42	0.92
333.15	0.8499	920.3	1.03
333.15	0.6725	1058.79	0.97
333.15	0.4993	1156.45	0.96
333.15	0.3953	1203.54	0.96
333.15	0.3262	1231.31	0.95
333.15	0.1501	1292.95	0.96
333.15	0	1341.02	0.96

System: nonafluoroisobutyl ethyl ether + 1-ethoxy-1,1,2,2,3,3,4,4,4-nonafluorobutane; phases: Liquid
Fixed: Mole fraction of nonafluoroisobutyl ethyl ether = 0.617
Property: Mass density, kg/m3 (Liquid); method: Vibrating tube method
Temperature, K	Pressure, kPa	Mass density, kg/m3	uncertainty
293.15	100	1433.9	0.9
293.15	1000	1436.6	0.9
293.15	5000	1448.2	1
293.15	10000	1461.3	1
293.15	15000	1473.4	1.1
293.15	20000	1484.5	1.2
293.15	25000	1494.8	1.3
293.15	30000	1504.7	1.4
293.15	35000	1513.9	1.4
293.15	40000	1522.5	1.5
293.15	45000	1530.8	1.6
293.15	50000	1538.7	1.8
293.15	55000	1546.3	1.9
293.15	60000	1553.5	2
293.15	65000	1560.5	2.1
293.15	70000	1567.2	2.3
293.15	80000	1580	2.5
293.15	90000	1591.9	2.8
293.15	100000	1603.1	3.1
293.15	110000	1613.9	3.4
293.15	120000	1624	3.7
293.15	130000	1633.7	4
293.15	140000	1642.8	4.3
298.15	100	1422.8	0.9
298.15	1000	1425.6	0.9
298.15	5000	1437.7	1
298.15	10000	1451.5	1
298.15	15000	1463.9	1.1
298.15	20000	1475.4	1.2
298.15	25000	1486.2	1.3
298.15	30000	1496.1	1.3
298.15	35000	1505.7	1.4
298.15	40000	1514.5	1.5
298.15	45000	1523	1.6
298.15	50000	1531.1	1.7
298.15	55000	1538.8	1.9
298.15	60000	1546.3	2
298.15	65000	1553.4	2.1
298.15	70000	1560.2	2.3
298.15	80000	1573.2	2.5
298.15	90000	1585.4	2.8
298.15	100000	1596.9	3.1
298.15	110000	1607.6	3.4
298.15	120000	1618	3.7
298.15	130000	1627.8	4
298.15	140000	1637.2	4.3
313.15	100	1388.4	0.9
313.15	1000	1391.8	0.9
313.15	5000	1405.6	0.9
313.15	10000	1421.1	1
313.15	15000	1435.1	1.1
313.15	20000	1447.8	1.1
313.15	25000	1459.5	1.2
313.15	30000	1470.6	1.3
313.15	35000	1480.8	1.4
313.15	40000	1490.3	1.5
313.15	45000	1499.5	1.6
313.15	50000	1508.1	1.7
313.15	55000	1516.4	1.8
313.15	60000	1524.3	1.9
313.15	65000	1531.9	2
313.15	70000	1539.2	2.2
313.15	80000	1552.9	2.4
313.15	90000	1565.7	2.7
313.15	100000	1577.6	3
313.15	110000	1589	3.3
313.15	120000	1599.7	3.6
313.15	130000	1610	3.9
313.15	140000	1619.7	4.2
333.15	100	1340.7	0.9
333.15	1000	1344.8	0.9
333.15	5000	1361.6	0.9
333.15	10000	1380.1	1
333.15	15000	1396.3	1
333.15	20000	1410.8	1.1
333.15	25000	1424.2	1.2
333.15	30000	1436.4	1.2
333.15	35000	1447.8	1.3
333.15	40000	1458.5	1.4
333.15	45000	1468.6	1.5
333.15	50000	1478	1.6
333.15	55000	1487	1.7
333.15	60000	1495.5	1.8
333.15	65000	1503.7	1.9
333.15	70000	1511.5	2.1
333.15	80000	1526.3	2.3
333.15	90000	1540	2.6
333.15	100000	1552.7	2.9
333.15	110000	1564.7	3.1
333.15	120000	1576	3.4
333.15	130000	1586.8	3.7
333.15	140000	1597.2	4
353.15	1000	1295.2	0.9
353.15	5000	1316.1	0.9
353.15	10000	1338.1	0.9
353.15	15000	1357.1	1
353.15	20000	1373.9	1
353.15	25000	1388.9	1.1
353.15	30000	1402.6	1.2
353.15	35000	1415.3	1.3
353.15	40000	1426.8	1.4
353.15	45000	1437.9	1.4
353.15	50000	1448.2	1.5
353.15	55000	1457.9	1.6
353.15	60000	1467.2	1.7
353.15	65000	1475.9	1.8
353.15	70000	1484.5	2
353.15	80000	1500.2	2.2
353.15	90000	1514.8	2.5
353.15	100000	1528.3	2.7
353.15	110000	1541.1	3
353.15	120000	1553	3.3
353.15	130000	1564.3	3.6
353.15	140000	1575.1	3.9
373.15	1000	1242.1	0.9
373.15	5000	1268.4	0.9
373.15	10000	1295.1	0.9
373.15	15000	1317.3	1
373.15	20000	1336.2	1
373.15	25000	1353.3	1.1
373.15	30000	1368.8	1.1
373.15	35000	1382.9	1.2
373.15	40000	1395.6	1.3
373.15	45000	1407.7	1.4
373.15	50000	1418.8	1.5
373.15	55000	1429.4	1.6
373.15	60000	1439.5	1.7
373.15	65000	1448.9	1.8
373.15	70000	1457.9	1.9
373.15	80000	1474.7	2.1
373.15	90000	1490.2	2.4
373.15	100000	1504.5	2.6
373.15	110000	1517.9	2.9
373.15	120000	1530.5	3.2
373.15	130000	1542.3	3.4
373.15	140000	1553.7	3.7
393.15	1000	1183.9	0.9
393.15	5000	1218.3	0.9
393.15	10000	1250.8	0.9
393.15	15000	1277	0.9
393.15	20000	1299.1	1
393.15	25000	1318.3	1
393.15	30000	1335.4	1.1
393.15	35000	1350.9	1.2
393.15	40000	1365.1	1.2
393.15	45000	1378.1	1.3
393.15	50000	1390.2	1.4
393.15	55000	1401.6	1.5
393.15	60000	1412.4	1.6
393.15	65000	1422.5	1.7
393.15	70000	1432.1	1.8
393.15	80000	1450	2
393.15	90000	1466.2	2.3
393.15	100000	1481.5	2.5
393.15	110000	1495.5	2.8
393.15	120000	1508.7	3
393.15	130000	1521.1	3.3
393.15	140000	1532.1	3.6
293.15	100	1434.27	1.06
298.15	100	1423.06	1.05
303.15	100	1411.62	1.05
313.15	100	1388.53	1.04
323.15	100	1365.15	1.03
333.15	100	1341.02	1.02

System: nonafluoroisobutyl ethyl ether + 1-ethoxy-1,1,2,2,3,3,4,4,4-nonafluorobutane; phases: Liquid
Fixed: Pressure, kPa = 100
Fixed: Mole fraction of nonafluoroisobutyl ethyl ether = 0.617
Fixed: Frequency, MHz = 3
Property: Speed of sound, m/s (Liquid); method: Single path-length method
Temperature, K	Speed of sound, m/s	uncertainty
293.15	637.83	1.42
298.15	622.13	1.41
303.15	606.46	1.41
313.15	575.75	1.41
323.15	545.46	1.41
333.15	515.64	1.42
