Measured thermophysical data. Volumetric studies on nucleic acid bases and nucleosides in aqueous guanidine hydrochloride solutions at T = (288.15 to 318.15) K and at atmospheric pressure
Source: J. Chem. Thermodyn., 2015, 10.1016/j.jct.2014.10.015
Compound 1: 2,4(1H,3H)-pyrimidinedione, C4H4N2O2, InChI=1S/C4H4N2O2/c7-3-1-2-5-4(8)6-3/h1-2H,(H2,5,6,7,8), purity 99%
Compound 2: 4-amino-2-hydroxypyrimidine, C4H5N3O, InChI=1S/C4H5N3O/c5-3-1-2-6-4(8)7-3/h1-2H,(H3,5,6,7,8), purity 99%
Compound 3: thymine, C5H6N2O2, InChI=1S/C5H6N2O2/c1-3-2-6-5(9)7-4(3)8/h2H,1H3,(H2,6,7,8,9), purity 98%
Compound 4: uridine, C9H12N2O6, InChI=1S/C9H12N2O6/c12-3-4-6(14)7(15)8(17-4)11-2-1-5(13)10-9(11)16/h1-2,4,6-8,12,14-15H,3H2,(H,10,13,16)/t4-,6?,7?,8-/m1/s1, purity 99%
Compound 5: cytidine, C9H13N3O5, InChI=1S/C9H13N3O5/c10-5-1-2-12(9(16)11-5)8-7(15)6(14)4(3-13)17-8/h1-2,4,6-8,13-15H,3H2,(H2,10,11,16)/t4-,6?,7?,8-/m1/s1, purity 99%
Compound 6: thymidine, C10H14N2O5, InChI=1S/C10H14N2O5/c1-5-3-12(10(16)11-9(5)15)8-2-6(14)7(4-13)17-8/h3,6-8,13-14H,2,4H2,1H3,(H,11,15,16)/t6?,7-,8-/m1/s1, purity 99%
Compound 7: guanidine hydrochloride, CH6ClN3, InChI=1S/CH5N3.ClH/c2-1(3)4;/h(H5,2,3,4);1H, purity 99%
Compound 8: water, H2O, InChI=1S/H2O/h1H2

System: water; phases: Liquid
Fixed: Pressure, kPa = 101.3
Property: Mass density, kg/m3 (Liquid); method: Vibrating tube method
Temperature, K	Mass density, kg/m3	uncertainty
288.15	999.129	0.088
298.15	997.047	0.089
308.15	994.063	0.09
318.15	990.244	0.092

System: guanidine hydrochloride + 2,4(1H,3H)-pyrimidinedione + water; phases: Liquid
Fixed: Pressure, kPa = 101.3
Property: Mass density, kg/m3 (Liquid); method: Vibrating tube method
Temperature, K	Solvent: Molality, mol/kg of guanidine hydrochloride	Molality, mol/kg of 2,4(1H,3H)-pyrimidinedione	Mass density, kg/m3	uncertainty
288.15	0.1	0	1001.929	0.089
288.15	0.25	0	1006.019	0.091
288.15	0.5	0	1012.561	0.095
288.15	0.75	0	1018.771	0.099
288.15	1	0	1024.632	0.102
298.15	0.1	0	999.788	0.088
298.15	0.25	0	1003.755	0.09
298.15	0.5	0	1010.099	0.094
298.15	0.75	0	1016.101	0.097
298.15	1	0	1021.788	0.101
308.15	0.1	0	996.735	0.089
308.15	0.25	0	1000.633	0.088
308.15	0.5	0	1006.864	0.092
308.15	0.75	0	1012.744	0.095
308.15	1	0	1018.361	0.099
318.15	0.1	0	992.885	0.091
318.15	0.25	0	996.736	0.089
318.15	0.5	0	1002.871	0.089
318.15	0.75	0	1008.679	0.093
318.15	1	0	1014.203	0.096
288.15	0	0	999.129	0.088
298.15	0	0	997.047	0.089
308.15	0	0	994.063	0.09
318.15	0	0	990.244	0.092
288.15	0	0.00553	999.354	0.088
288.15	0	0.01162	999.599	0.088
288.15	0	0.01509	999.736	0.088
288.15	0	0.01985	999.924	0.087
288.15	0	0.02578	1000.154	0.088
288.15	0	0.03026	1000.327	0.088
298.15	0	0.00553	997.267	0.089
298.15	0	0.00878	997.396	0.089
298.15	0	0.01162	997.507	0.09
298.15	0	0.01202	997.522	0.09
298.15	0	0.01509	997.643	0.088
298.15	0	0.01724	997.727	0.089
298.15	0	0.01985	997.828	0.088
298.15	0	0.02348	997.97	0.089
298.15	0	0.02387	997.985	0.089
298.15	0	0.02487	998.023	0.088
298.15	0	0.02578	998.059	0.089
298.15	0	0.03026	998.232	0.088
308.15	0	0.00553	994.275	0.09
308.15	0	0.01162	994.508	0.09
308.15	0	0.01509	994.639	0.09
308.15	0	0.01985	994.818	0.09
308.15	0	0.02578	995.038	0.09
308.15	0	0.03026	995.205	0.09
318.15	0	0.00553	990.452	0.092
318.15	0	0.01162	990.68	0.092
318.15	0	0.01509	990.808	0.091
318.15	0	0.01985	990.984	0.091
318.15	0	0.02578	991.203	0.091
318.15	0	0.03026	991.367	0.091
288.15	0.1	0.01142	1002.403	0.089
288.15	0.1	0.01431	1002.523	0.089
288.15	0.1	0.0177	1002.662	0.089
288.15	0.1	0.0239	1002.916	0.089
288.15	0.1	0.02811	1003.088	0.089
288.15	0.1	0.03089	1003.201	0.089
298.15	0.1	0.01142	1000.258	0.088
298.15	0.1	0.01431	1000.375	0.088
298.15	0.1	0.0177	1000.513	0.088
298.15	0.1	0.0239	1000.764	0.088
298.15	0.1	0.02811	1000.932	0.088
298.15	0.1	0.03089	1001.042	0.088
308.15	0.1	0.01142	997.188	0.089
308.15	0.1	0.01431	997.301	0.089
308.15	0.1	0.0177	997.433	0.089
308.15	0.1	0.0239	997.673	0.089
308.15	0.1	0.02811	997.833	0.089
308.15	0.1	0.03089	997.939	0.088
318.15	0.1	0.01142	993.335	0.09
318.15	0.1	0.01431	993.448	0.09
318.15	0.1	0.0177	993.58	0.09
318.15	0.1	0.0239	993.82	0.09
318.15	0.1	0.02811	993.982	0.09
318.15	0.1	0.03089	994.09	0.09
288.15	0.25	0.00517	1006.246	0.091
288.15	0.25	0.01059	1006.482	0.091
288.15	0.25	0.01592	1006.713	0.091
288.15	0.25	0.02079	1006.923	0.092
288.15	0.25	0.02255	1006.998	0.092
288.15	0.25	0.02677	1007.179	0.092
298.15	0.25	0.00517	1003.979	0.09
298.15	0.25	0.01059	1004.211	0.09
298.15	0.25	0.01592	1004.439	0.09
298.15	0.25	0.02079	1004.646	0.09
298.15	0.25	0.02255	1004.723	0.09
298.15	0.25	0.02677	1004.899	0.09
308.15	0.25	0.00517	1000.85	0.088
308.15	0.25	0.01059	1001.077	0.088
308.15	0.25	0.01592	1001.299	0.088
308.15	0.25	0.02079	1001.501	0.089
308.15	0.25	0.02255	1001.576	0.089
308.15	0.25	0.02677	1001.748	0.089
318.15	0.25	0.00517	996.949	0.089
318.15	0.25	0.01059	997.169	0.089
318.15	0.25	0.01592	997.385	0.089
318.15	0.25	0.02079	997.58	0.089
318.15	0.25	0.02255	997.65	0.089
318.15	0.25	0.02677	997.816	0.089
288.15	0.5	0.00474	1012.754	0.095
288.15	0.5	0.01024	1012.977	0.095
288.15	0.5	0.0158	1013.201	0.095
288.15	0.5	0.01928	1013.34	0.095
288.15	0.5	0.02216	1013.455	0.096
288.15	0.5	0.02535	1013.583	0.096
298.15	0.5	0.00474	1010.291	0.094
298.15	0.5	0.01024	1010.511	0.094
298.15	0.5	0.0158	1010.734	0.094
298.15	0.5	0.01928	1010.872	0.094
298.15	0.5	0.02216	1010.985	0.094
298.15	0.5	0.02535	1011.111	0.094
308.15	0.5	0.00474	1007.049	0.092
308.15	0.5	0.01024	1007.263	0.092
308.15	0.5	0.0158	1007.476	0.092
308.15	0.5	0.01928	1007.607	0.092
308.15	0.5	0.02216	1007.716	0.092
308.15	0.5	0.02535	1007.836	0.092
318.15	0.5	0.00474	1003.055	0.09
318.15	0.5	0.01024	1003.267	0.09
318.15	0.5	0.0158	1003.48	0.09
318.15	0.5	0.01928	1003.612	0.09
318.15	0.5	0.02216	1003.721	0.09
318.15	0.5	0.02535	1003.84	0.09
288.15	0.75	0.00348	1018.906	0.099
288.15	0.75	0.00907	1019.123	0.099
288.15	0.75	0.01357	1019.296	0.099
288.15	0.75	0.02051	1019.562	0.099
288.15	0.75	0.0239	1019.691	0.099
288.15	0.75	0.02535	1019.746	0.099
298.15	0.75	0.00348	1016.236	0.097
298.15	0.75	0.00907	1016.451	0.097
298.15	0.75	0.01357	1016.623	0.098
298.15	0.75	0.02051	1016.885	0.098
298.15	0.75	0.0239	1017.012	0.098
298.15	0.75	0.02535	1017.066	0.098
308.15	0.75	0.00348	1012.876	0.095
308.15	0.75	0.00907	1013.086	0.096
308.15	0.75	0.01357	1013.253	0.096
308.15	0.75	0.02051	1013.508	0.096
308.15	0.75	0.0239	1013.631	0.096
308.15	0.75	0.02535	1013.683	0.096
318.15	0.75	0.00348	1008.809	0.093
318.15	0.75	0.00907	1009.017	0.093
318.15	0.75	0.01357	1009.181	0.093
318.15	0.75	0.02051	1009.433	0.093
318.15	0.75	0.0239	1009.554	0.093
318.15	0.75	0.02535	1009.605	0.093
288.15	1	0.00828	1024.946	0.103
288.15	1	0.01029	1025.021	0.103
288.15	1	0.01294	1025.119	0.103
288.15	1	0.01907	1025.345	0.103
288.15	1	0.02318	1025.496	0.103
288.15	1	0.02789	1025.667	0.103
298.15	1	0.00828	1022.1	0.101
298.15	1	0.01029	1022.175	0.101
298.15	1	0.01294	1022.274	0.101
298.15	1	0.01907	1022.499	0.101
298.15	1	0.02318	1022.65	0.101
298.15	1	0.02789	1022.821	0.101
308.15	1	0.00828	1018.669	0.099
308.15	1	0.01029	1018.743	0.099
308.15	1	0.01294	1018.84	0.099
308.15	1	0.01907	1019.064	0.099
308.15	1	0.02318	1019.214	0.099
308.15	1	0.02789	1019.383	0.099
318.15	1	0.00828	1014.507	0.096
318.15	1	0.01029	1014.581	0.096
318.15	1	0.01294	1014.678	0.097
318.15	1	0.01907	1014.901	0.097
318.15	1	0.02318	1015.048	0.097
318.15	1	0.02789	1015.217	0.097

System: guanidine hydrochloride + 4-amino-2-hydroxypyrimidine + water; phases: Liquid
Fixed: Pressure, kPa = 101.3
Property: Mass density, kg/m3 (Liquid); method: Vibrating tube method
Temperature, K	Solvent: Molality, mol/kg of guanidine hydrochloride	Molality, mol/kg of 4-amino-2-hydroxypyrimidine	Mass density, kg/m3	uncertainty
288.15	0	0.00616	999.374	0.088
288.15	0	0.01095	999.56	0.088
288.15	0	0.01633	999.767	0.088
288.15	0	0.01961	999.894	0.088
288.15	0	0.02682	1000.166	0.088
288.15	0	0.03302	1000.397	0.088
298.15	0	0.00616	997.282	0.089
298.15	0	0.01095	997.461	0.089
298.15	0	0.01278	997.529	0.089
298.15	0	0.01633	997.66	0.088
298.15	0	0.01855	997.743	0.089
298.15	0	0.01892	997.756	0.089
298.15	0	0.01961	997.779	0.089
298.15	0	0.02682	998.042	0.089
298.15	0	0.02766	998.073	0.089
298.15	0	0.02813	998.09	0.089
298.15	0	0.03302	998.264	0.088
298.15	0	0.0353	998.345	0.088
308.15	0	0.00616	994.295	0.09
308.15	0	0.01095	994.473	0.09
308.15	0	0.01633	994.67	0.09
308.15	0	0.01961	994.791	0.09
308.15	0	0.02682	995.052	0.09
308.15	0	0.03302	995.271	0.09
318.15	0	0.00616	990.472	0.092
318.15	0	0.01095	990.648	0.092
318.15	0	0.01633	990.845	0.091
318.15	0	0.01961	990.964	0.091
318.15	0	0.02682	991.228	0.091
318.15	0	0.03302	991.452	0.091
288.15	0.1	0.01034	1002.315	0.089
288.15	0.1	0.01782	1002.592	0.089
288.15	0.1	0.02391	1002.815	0.089
288.15	0.1	0.03027	1003.048	0.089
288.15	0.1	0.04489	1003.579	0.09
288.15	0.1	0.05121	1003.806	0.09
298.15	0.1	0.01034	1000.161	0.088
298.15	0.1	0.01782	1000.43	0.088
298.15	0.1	0.02391	1000.649	0.088
298.15	0.1	0.03027	1000.877	0.088
298.15	0.1	0.04489	1001.399	0.088
298.15	0.1	0.05121	1001.624	0.088
308.15	0.1	0.01034	997.104	0.089
308.15	0.1	0.01782	997.368	0.089
308.15	0.1	0.02391	997.582	0.089
308.15	0.1	0.03027	997.806	0.089
308.15	0.1	0.04489	998.314	0.088
308.15	0.1	0.05121	998.531	0.088
318.15	0.1	0.01034	993.248	0.09
318.15	0.1	0.01782	993.508	0.09
318.15	0.1	0.02391	993.718	0.09
318.15	0.1	0.03027	993.936	0.09
318.15	0.1	0.04489	994.436	0.09
318.15	0.1	0.05121	994.648	0.09
288.15	0.25	0.00982	1006.382	0.091
288.15	0.25	0.01708	1006.647	0.091
288.15	0.25	0.01953	1006.736	0.092
288.15	0.25	0.02636	1006.983	0.092
288.15	0.25	0.02785	1007.036	0.092
288.15	0.25	0.03638	1007.341	0.092
298.15	0.25	0.00982	1004.104	0.09
298.15	0.25	0.01708	1004.358	0.09
298.15	0.25	0.01953	1004.442	0.09
298.15	0.25	0.02636	1004.677	0.09
298.15	0.25	0.02785	1004.727	0.09
298.15	0.25	0.03638	1005.017	0.091
308.15	0.25	0.00982	1000.981	0.088
308.15	0.25	0.01708	1001.236	0.088
308.15	0.25	0.01953	1001.322	0.088
308.15	0.25	0.02636	1001.561	0.089
308.15	0.25	0.02785	1001.613	0.089
308.15	0.25	0.03638	1001.91	0.089
318.15	0.25	0.00982	997.078	0.089
318.15	0.25	0.01708	997.329	0.089
318.15	0.25	0.01953	997.413	0.089
318.15	0.25	0.02636	997.647	0.089
318.15	0.25	0.02785	997.698	0.089
318.15	0.25	0.03638	997.989	0.089
288.15	0.5	0.00962	1012.911	0.095
288.15	0.5	0.01481	1013.096	0.095
288.15	0.5	0.01673	1013.164	0.095
288.15	0.5	0.01945	1013.26	0.095
288.15	0.5	0.02528	1013.464	0.096
288.15	0.5	0.02589	1013.486	0.096
298.15	0.5	0.00962	1010.438	0.094
298.15	0.5	0.01481	1010.619	0.094
298.15	0.5	0.01673	1010.685	0.094
298.15	0.5	0.01945	1010.778	0.094
298.15	0.5	0.02528	1010.979	0.094
298.15	0.5	0.02589	1010.999	0.094
308.15	0.5	0.00962	1007.2	0.092
308.15	0.5	0.01481	1007.379	0.092
308.15	0.5	0.01673	1007.445	0.092
308.15	0.5	0.01945	1007.538	0.092
308.15	0.5	0.02528	1007.738	0.092
308.15	0.5	0.02589	1007.758	0.092
318.15	0.5	0.00962	1003.201	0.09
318.15	0.5	0.01481	1003.377	0.09
318.15	0.5	0.01673	1003.441	0.09
318.15	0.5	0.01945	1003.533	0.09
318.15	0.5	0.02528	1003.73	0.09
318.15	0.5	0.02589	1003.75	0.09
288.15	0.75	0.01136	1019.179	0.099
288.15	0.75	0.02087	1019.517	0.099
288.15	0.75	0.02594	1019.695	0.099
288.15	0.75	0.02617	1019.703	0.099
288.15	0.75	0.03136	1019.884	0.099
288.15	0.75	0.03179	1019.9	0.099
298.15	0.75	0.01136	1016.495	0.097
298.15	0.75	0.02087	1016.822	0.098
298.15	0.75	0.02594	1016.994	0.098
298.15	0.75	0.02617	1017.002	0.098
298.15	0.75	0.03136	1017.178	0.099
298.15	0.75	0.03179	1017.192	0.098
308.15	0.75	0.01136	1013.134	0.096
308.15	0.75	0.02087	1013.458	0.096
308.15	0.75	0.02594	1013.629	0.096
308.15	0.75	0.02617	1013.637	0.096
308.15	0.75	0.03136	1013.812	0.097
308.15	0.75	0.03179	1013.826	0.097
318.15	0.75	0.01136	1009.061	0.093
318.15	0.75	0.02087	1009.379	0.093
318.15	0.75	0.02594	1009.548	0.094
318.15	0.75	0.02617	1009.556	0.094
318.15	0.75	0.03136	1009.728	0.094
318.15	0.75	0.03179	1009.741	0.094
288.15	1	0.0092	1024.958	0.103
288.15	1	0.01327	1025.101	0.103
288.15	1	0.01916	1025.305	0.103
288.15	1	0.02463	1025.495	0.103
288.15	1	0.02757	1025.594	0.103
288.15	1	0.03474	1025.841	0.103
298.15	1	0.0092	1022.103	0.101
298.15	1	0.01327	1022.241	0.101
298.15	1	0.01916	1022.441	0.101
298.15	1	0.02463	1022.625	0.101
298.15	1	0.02757	1022.724	0.101
298.15	1	0.03474	1022.963	0.101
308.15	1	0.0092	1018.676	0.099
308.15	1	0.01327	1018.814	0.099
308.15	1	0.01916	1019.014	0.099
308.15	1	0.02463	1019.198	0.099
308.15	1	0.02757	1019.297	0.099
308.15	1	0.03474	1019.536	0.099
318.15	1	0.0092	1014.513	0.096
318.15	1	0.01327	1014.649	0.097
318.15	1	0.01916	1014.844	0.097
318.15	1	0.02463	1015.025	0.097
318.15	1	0.02757	1015.121	0.097
318.15	1	0.03474	1015.354	0.097
288.15	0.1	0	1001.929	0.089
288.15	0.25	0	1006.019	0.091
288.15	0.5	0	1012.561	0.095
288.15	0.75	0	1018.771	0.099
288.15	1	0	1024.632	0.102
298.15	0.1	0	999.788	0.088
298.15	0.25	0	1003.755	0.09
298.15	0.5	0	1010.099	0.094
298.15	0.75	0	1016.101	0.097
298.15	1	0	1021.788	0.101
308.15	0.1	0	996.735	0.089
308.15	0.25	0	1000.633	0.088
308.15	0.5	0	1006.864	0.092
308.15	0.75	0	1012.744	0.095
308.15	1	0	1018.361	0.099
318.15	0.1	0	992.885	0.091
318.15	0.25	0	996.736	0.089
318.15	0.5	0	1002.871	0.089
318.15	0.75	0	1008.679	0.093
318.15	1	0	1014.203	0.096
288.15	0	0	999.129	0.088
298.15	0	0	997.047	0.089
308.15	0	0	994.063	0.09
318.15	0	0	990.244	0.092

System: guanidine hydrochloride + thymine + water; phases: Liquid
Fixed: Pressure, kPa = 101.3
Property: Mass density, kg/m3 (Liquid); method: Vibrating tube method
Temperature, K	Solvent: Molality, mol/kg of guanidine hydrochloride	Molality, mol/kg of thymine	Mass density, kg/m3	uncertainty
288.15	0	0.00771	999.423	0.088
288.15	0	0.01299	999.622	0.088
288.15	0	0.01771	999.797	0.088
288.15	0	0.02319	1000.001	0.087
288.15	0	0.02665	1000.128	0.088
288.15	0	0.03315	1000.367	0.088
298.15	0	0.00771	997.334	0.089
298.15	0	0.01299	997.53	0.089
298.15	0	0.01771	997.704	0.088
298.15	0	0.02319	997.906	0.088
298.15	0	0.02665	998.033	0.088
298.15	0	0.03315	998.27	0.088
308.15	0	0.00771	994.344	0.09
308.15	0	0.01299	994.535	0.09
308.15	0	0.01771	994.705	0.09
308.15	0	0.02319	994.901	0.09
308.15	0	0.02665	995.023	0.09
308.15	0	0.03315	995.252	0.09
318.15	0	0.00771	990.518	0.092
318.15	0	0.01299	990.703	0.092
318.15	0	0.01771	990.867	0.091
318.15	0	0.02319	991.055	0.091
318.15	0	0.02665	991.172	0.091
318.15	0	0.03315	991.393	0.091
288.15	0.1	0.00684	1002.195	0.089
288.15	0.1	0.00989	1002.313	0.089
288.15	0.1	0.01133	1002.368	0.089
288.15	0.1	0.01449	1002.488	0.089
288.15	0.1	0.01652	1002.564	0.089
288.15	0.1	0.01793	1002.618	0.089
298.15	0.1	0.00684	1000.051	0.088
298.15	0.1	0.00989	1000.167	0.088
298.15	0.1	0.01133	1000.222	0.088
298.15	0.1	0.01449	1000.342	0.088
298.15	0.1	0.01652	1000.418	0.088
298.15	0.1	0.01793	1000.471	0.088
308.15	0.1	0.00684	996.994	0.089
308.15	0.1	0.00989	997.108	0.089
308.15	0.1	0.01133	997.162	0.089
308.15	0.1	0.01449	997.28	0.089
308.15	0.1	0.01652	997.355	0.089
308.15	0.1	0.01793	997.407	0.089
318.15	0.1	0.00684	993.138	0.091
318.15	0.1	0.00989	993.249	0.09
318.15	0.1	0.01133	993.301	0.09
318.15	0.1	0.01449	993.416	0.09
318.15	0.1	0.01652	993.49	0.09
318.15	0.1	0.01793	993.541	0.09
288.15	0.25	0.00454	1006.203	0.091
288.15	0.25	0.00904	1006.382	0.091
288.15	0.25	0.01431	1006.59	0.091
288.15	0.25	0.02039	1006.826	0.092
288.15	0.25	0.02624	1007.051	0.092
288.15	0.25	0.02896	1007.156	0.092
298.15	0.25	0.00454	1003.936	0.09
298.15	0.25	0.00904	1004.113	0.09
298.15	0.25	0.01431	1004.318	0.09
298.15	0.25	0.02039	1004.551	0.09
298.15	0.25	0.02624	1004.773	0.09
298.15	0.25	0.02896	1004.874	0.09
308.15	0.25	0.00454	1000.814	0.088
308.15	0.25	0.00904	1000.991	0.088
308.15	0.25	0.01431	1001.198	0.088
308.15	0.25	0.02039	1001.435	0.089
308.15	0.25	0.02624	1001.663	0.089
308.15	0.25	0.02896	1001.767	0.089
318.15	0.25	0.00454	996.912	0.089
318.15	0.25	0.00904	997.085	0.089
318.15	0.25	0.01431	997.286	0.089
318.15	0.25	0.02039	997.516	0.089
318.15	0.25	0.02624	997.735	0.089
318.15	0.25	0.02896	997.835	0.089
288.15	0.5	0.00647	1012.819	0.095
288.15	0.5	0.00848	1012.898	0.095
288.15	0.5	0.01137	1013.012	0.095
288.15	0.5	0.01916	1013.317	0.095
288.15	0.5	0.02038	1013.365	0.096
288.15	0.5	0.02145	1013.406	0.096
298.15	0.5	0.00647	1010.352	0.094
298.15	0.5	0.00848	1010.43	0.094
298.15	0.5	0.01137	1010.542	0.094
298.15	0.5	0.01916	1010.841	0.094
298.15	0.5	0.02038	1010.887	0.094
298.15	0.5	0.02145	1010.926	0.094
308.15	0.5	0.00647	1007.114	0.092
308.15	0.5	0.00848	1007.19	0.092
308.15	0.5	0.01137	1007.301	0.092
308.15	0.5	0.01916	1007.597	0.092
308.15	0.5	0.02038	1007.643	0.092
308.15	0.5	0.02145	1007.683	0.092
318.15	0.5	0.00647	1003.115	0.09
318.15	0.5	0.00848	1003.19	0.09
318.15	0.5	0.01137	1003.297	0.09
318.15	0.5	0.01916	1003.584	0.09
318.15	0.5	0.02038	1003.629	0.09
318.15	0.5	0.02145	1003.667	0.09
288.15	0.75	0.00625	1018.998	0.099
288.15	0.75	0.01049	1019.152	0.099
288.15	0.75	0.01349	1019.259	0.099
288.15	0.75	0.01623	1019.358	0.099
288.15	0.75	0.02125	1019.536	0.099
288.15	0.75	0.0234	1019.613	0.099
298.15	0.75	0.00625	1016.324	0.097
298.15	0.75	0.01049	1016.474	0.097
298.15	0.75	0.01349	1016.58	0.098
298.15	0.75	0.01623	1016.676	0.098
298.15	0.75	0.02125	1016.853	0.098
298.15	0.75	0.0234	1016.928	0.098
308.15	0.75	0.00625	1012.963	0.095
308.15	0.75	0.01049	1013.111	0.096
308.15	0.75	0.01349	1013.214	0.096
308.15	0.75	0.01623	1013.309	0.096
308.15	0.75	0.02125	1013.479	0.096
308.15	0.75	0.0234	1013.551	0.096
318.15	0.75	0.00625	1008.894	0.093
318.15	0.75	0.01049	1009.038	0.093
318.15	0.75	0.01349	1009.14	0.093
318.15	0.75	0.01623	1009.232	0.093
318.15	0.75	0.02125	1009.399	0.093
318.15	0.75	0.0234	1009.47	0.093
288.15	1	0.00562	1024.83	0.102
288.15	1	0.00913	1024.953	0.103
288.15	1	0.0139	1025.119	0.103
288.15	1	0.01851	1025.279	0.103
288.15	1	0.02376	1025.459	0.103
288.15	1	0.02605	1025.538	0.103
298.15	1	0.00562	1021.982	0.101
298.15	1	0.00913	1022.101	0.101
298.15	1	0.0139	1022.264	0.101
298.15	1	0.01851	1022.421	0.101
298.15	1	0.02376	1022.598	0.101
298.15	1	0.02605	1022.675	0.101
308.15	1	0.00562	1018.551	0.099
308.15	1	0.00913	1018.67	0.099
308.15	1	0.0139	1018.83	0.099
308.15	1	0.01851	1018.983	0.099
308.15	1	0.02376	1019.157	0.099
308.15	1	0.02605	1019.232	0.099
318.15	1	0.00562	1014.392	0.096
318.15	1	0.00913	1014.509	0.096
318.15	1	0.0139	1014.667	0.097
318.15	1	0.01851	1014.819	0.097
318.15	1	0.02376	1014.992	0.097
318.15	1	0.02605	1015.065	0.097
288.15	0.1	0	1001.929	0.089
288.15	0.25	0	1006.019	0.091
288.15	0.5	0	1012.561	0.095
288.15	0.75	0	1018.771	0.099
288.15	1	0	1024.632	0.102
298.15	0.1	0	999.788	0.088
298.15	0.25	0	1003.755	0.09
298.15	0.5	0	1010.099	0.094
298.15	0.75	0	1016.101	0.097
298.15	1	0	1021.788	0.101
308.15	0.1	0	996.735	0.089
308.15	0.25	0	1000.633	0.088
308.15	0.5	0	1006.864	0.092
308.15	0.75	0	1012.744	0.095
308.15	1	0	1018.361	0.099
318.15	0.1	0	992.885	0.091
318.15	0.25	0	996.736	0.089
318.15	0.5	0	1002.871	0.089
318.15	0.75	0	1008.679	0.093
318.15	1	0	1014.203	0.096
288.15	0	0	999.129	0.088
298.15	0	0	997.047	0.089
308.15	0	0	994.063	0.09
318.15	0	0	990.244	0.092

System: guanidine hydrochloride + uridine + water; phases: Liquid
Fixed: Pressure, kPa = 101.3
Property: Mass density, kg/m3 (Liquid); method: Vibrating tube method
Temperature, K	Solvent: Molality, mol/kg of guanidine hydrochloride	Molality, mol/kg of uridine	Mass density, kg/m3	uncertainty
288.15	0	0.01549	1000.562	0.088
288.15	0	0.02113	1001.081	0.088
288.15	0	0.0315	1002.033	0.089
288.15	0	0.0377	1002.599	0.089
288.15	0	0.03932	1002.748	0.089
288.15	0	0.0509	1003.801	0.09
298.15	0	0.01349	998.273	0.088
298.15	0	0.01549	998.454	0.088
298.15	0	0.02054	998.91	0.088
298.15	0	0.02113	998.963	0.088
298.15	0	0.0315	999.896	0.089
298.15	0	0.03194	999.936	0.089
298.15	0	0.0377	1000.45	0.088
298.15	0	0.03932	1000.595	0.088
298.15	0	0.04355	1000.973	0.088
298.15	0	0.0509	1001.626	0.089
298.15	0	0.05097	1001.632	0.089
298.15	0	0.05771	1002.229	0.089
298.15	0	0.07224	1003.505	0.09
308.15	0	0.01549	995.447	0.09
308.15	0	0.02113	995.947	0.089
308.15	0	0.0315	996.863	0.089
308.15	0	0.0377	997.406	0.089
308.15	0	0.03932	997.548	0.089
308.15	0	0.0509	998.558	0.088
318.15	0	0.01549	991.615	0.091
318.15	0	0.02113	992.109	0.091
318.15	0	0.0315	993.015	0.091
318.15	0	0.0377	993.55	0.09
318.15	0	0.03932	993.691	0.09
318.15	0	0.0509	994.686	0.09
288.15	0.1	0.01474	1003.305	0.089
288.15	0.1	0.02006	1003.798	0.09
288.15	0.1	0.02133	1003.916	0.09
288.15	0.1	0.02345	1004.111	0.09
288.15	0.1	0.02626	1004.369	0.09
288.15	0.1	0.03101	1004.804	0.09
298.15	0.1	0.01474	1001.137	0.088
298.15	0.1	0.02006	1001.621	0.089
298.15	0.1	0.02133	1001.736	0.089
298.15	0.1	0.02345	1001.927	0.089
298.15	0.1	0.02626	1002.181	0.089
298.15	0.1	0.03101	1002.608	0.089
308.15	0.1	0.01474	998.058	0.088
308.15	0.1	0.02006	998.534	0.089
308.15	0.1	0.02133	998.648	0.088
308.15	0.1	0.02345	998.836	0.088
308.15	0.1	0.02626	999.087	0.088
308.15	0.1	0.03101	999.508	0.088
318.15	0.1	0.01474	994.189	0.09
318.15	0.1	0.02006	994.656	0.09
318.15	0.1	0.02133	994.768	0.09
318.15	0.1	0.02345	994.952	0.09
318.15	0.1	0.02626	995.197	0.09
318.15	0.1	0.03101	995.607	0.09
288.15	0.25	0.01189	1007.157	0.092
288.15	0.25	0.01709	1007.649	0.092
288.15	0.25	0.02054	1007.972	0.092
288.15	0.25	0.02882	1008.74	0.093
288.15	0.25	0.03423	1009.236	0.093
288.15	0.25	0.03709	1009.497	0.093
298.15	0.25	0.01189	1004.873	0.09
298.15	0.25	0.01709	1005.358	0.091
298.15	0.25	0.02054	1005.678	0.091
298.15	0.25	0.02882	1006.442	0.091
298.15	0.25	0.03423	1006.937	0.092
298.15	0.25	0.03709	1007.199	0.092
308.15	0.25	0.01189	1001.731	0.089
308.15	0.25	0.01709	1002.207	0.089
308.15	0.25	0.02054	1002.522	0.089
308.15	0.25	0.02882	1003.274	0.09
308.15	0.25	0.03423	1003.761	0.09
308.15	0.25	0.03709	1004.019	0.09
318.15	0.25	0.01189	997.817	0.089
318.15	0.25	0.01709	998.286	0.088
318.15	0.25	0.02054	998.596	0.088
318.15	0.25	0.02882	999.336	0.088
318.15	0.25	0.03423	999.814	0.088
318.15	0.25	0.03709	1000.067	0.088
288.15	0.5	0.01461	1013.934	0.096
288.15	0.5	0.02193	1014.612	0.096
288.15	0.5	0.02308	1014.718	0.096
288.15	0.5	0.02866	1015.229	0.097
288.15	0.5	0.03249	1015.577	0.097
288.15	0.5	0.04175	1016.413	0.097
298.15	0.5	0.01461	1011.4	0.094
298.15	0.5	0.02193	1012.06	0.095
298.15	0.5	0.02308	1012.163	0.095
298.15	0.5	0.02866	1012.662	0.095
298.15	0.5	0.03249	1013.002	0.095
298.15	0.5	0.04175	1013.817	0.096
308.15	0.5	0.01461	1008.126	0.093
308.15	0.5	0.02193	1008.783	0.093
308.15	0.5	0.02308	1008.886	0.093
308.15	0.5	0.02866	1009.384	0.093
308.15	0.5	0.03249	1009.724	0.094
308.15	0.5	0.04175	1010.542	0.094
318.15	0.5	0.01461	1004.164	0.09
318.15	0.5	0.02193	1004.803	0.091
318.15	0.5	0.02308	1004.903	0.091
318.15	0.5	0.02866	1005.385	0.091
318.15	0.5	0.03249	1005.713	0.091
318.15	0.5	0.04175	1006.503	0.092
288.15	0.75	0.02088	1020.609	0.1
288.15	0.75	0.0236	1020.844	0.1
288.15	0.75	0.02649	1021.092	0.1
288.15	0.75	0.03071	1021.451	0.1
288.15	0.75	0.03535	1021.843	0.101
288.15	0.75	0.03903	1022.153	0.101
298.15	0.75	0.02088	1017.906	0.098
298.15	0.75	0.0236	1018.138	0.098
298.15	0.75	0.02649	1018.383	0.099
298.15	0.75	0.03071	1018.741	0.099
298.15	0.75	0.03535	1019.131	0.099
298.15	0.75	0.03903	1019.441	0.099
308.15	0.75	0.02088	1014.527	0.096
308.15	0.75	0.0236	1014.759	0.097
308.15	0.75	0.02649	1015.005	0.097
308.15	0.75	0.03071	1015.362	0.097
308.15	0.75	0.03535	1015.754	0.097
308.15	0.75	0.03903	1016.066	0.097
318.15	0.75	0.02088	1010.406	0.094
318.15	0.75	0.0236	1010.629	0.094
318.15	0.75	0.02649	1010.864	0.094
318.15	0.75	0.03071	1011.205	0.094
318.15	0.75	0.03535	1011.578	0.095
318.15	0.75	0.03903	1011.875	0.095
288.15	1	0.01495	1025.957	0.103
288.15	1	0.02176	1026.557	0.104
288.15	1	0.0243	1026.78	0.104
288.15	1	0.02755	1027.064	0.104
288.15	1	0.03011	1027.287	0.104
288.15	1	0.03571	1027.775	0.104
298.15	1	0.01495	1023.072	0.101
298.15	1	0.02176	1023.649	0.102
298.15	1	0.0243	1023.861	0.102
298.15	1	0.02755	1024.131	0.102
298.15	1	0.03011	1024.345	0.102
298.15	1	0.03571	1024.809	0.102
308.15	1	0.01495	1019.618	0.099
308.15	1	0.02176	1020.18	0.1
308.15	1	0.0243	1020.388	0.1
308.15	1	0.02755	1020.65	0.1
308.15	1	0.03011	1020.859	0.1
308.15	1	0.03571	1021.307	0.1
318.15	1	0.01495	1015.437	0.097
318.15	1	0.02176	1015.994	0.097
318.15	1	0.0243	1016.2	0.097
318.15	1	0.02755	1016.464	0.098
318.15	1	0.03011	1016.672	0.098
318.15	1	0.03571	1017.124	0.098
288.15	0.1	0	1001.929	0.089
288.15	0.25	0	1006.019	0.091
288.15	0.5	0	1012.561	0.095
288.15	0.75	0	1018.771	0.099
288.15	1	0	1024.632	0.102
298.15	0.1	0	999.788	0.088
298.15	0.25	0	1003.755	0.09
298.15	0.5	0	1010.099	0.094
298.15	0.75	0	1016.101	0.097
298.15	1	0	1021.788	0.101
308.15	0.1	0	996.735	0.089
308.15	0.25	0	1000.633	0.088
308.15	0.5	0	1006.864	0.092
308.15	0.75	0	1012.744	0.095
308.15	1	0	1018.361	0.099
318.15	0.1	0	992.885	0.091
318.15	0.25	0	996.736	0.089
318.15	0.5	0	1002.871	0.089
318.15	0.75	0	1008.679	0.093
318.15	1	0	1014.203	0.096
288.15	0	0	999.129	0.088
298.15	0	0	997.047	0.089
308.15	0	0	994.063	0.09
318.15	0	0	990.244	0.092

System: guanidine hydrochloride + cytidine + water; phases: Liquid
Fixed: Pressure, kPa = 101.3
Property: Mass density, kg/m3 (Liquid); method: Vibrating tube method
Temperature, K	Solvent: Molality, mol/kg of guanidine hydrochloride	Molality, mol/kg of cytidine	Mass density, kg/m3	uncertainty
288.15	0	0.01847	1000.807	0.122
288.15	0	0.03595	1002.382	0.123
288.15	0	0.05571	1004.146	0.124
288.15	0	0.0565	1004.216	0.124
288.15	0	0.09105	1007.262	0.126
288.15	0	0.10644	1008.602	0.127
298.15	0	0.01847	998.697	0.122
298.15	0	0.03595	1000.244	0.121
298.15	0	0.05571	1001.977	0.123
298.15	0	0.0565	1002.046	0.123
298.15	0	0.09105	1005.041	0.125
298.15	0	0.10644	1006.359	0.126
308.15	0	0.01847	995.667	0.123
308.15	0	0.03595	997.172	0.122
308.15	0	0.05571	998.849	0.122
308.15	0	0.0565	998.913	0.122
308.15	0	0.09105	1001.807	0.123
308.15	0	0.10644	1003.078	0.123
318.15	0	0.01847	991.836	0.124
318.15	0	0.03595	993.324	0.124
318.15	0	0.05571	994.979	0.123
318.15	0	0.0565	995.046	0.123
318.15	0	0.09105	997.885	0.122
318.15	0	0.10644	999.135	0.122
288.15	0.1	0.01996	1003.711	0.124
288.15	0.1	0.02315	1003.992	0.124
288.15	0.1	0.03102	1004.683	0.124
288.15	0.1	0.03612	1005.127	0.125
288.15	0.1	0.03797	1005.288	0.125
288.15	0.1	0.04573	1005.96	0.125
298.15	0.1	0.01996	1001.537	0.122
298.15	0.1	0.02315	1001.814	0.123
298.15	0.1	0.03102	1002.493	0.123
298.15	0.1	0.03612	1002.931	0.123
298.15	0.1	0.03797	1003.088	0.123
298.15	0.1	0.04573	1003.751	0.124
308.15	0.1	0.01996	998.444	0.122
308.15	0.1	0.02315	998.716	0.122
308.15	0.1	0.03102	999.385	0.122
308.15	0.1	0.03612	999.816	0.121
308.15	0.1	0.03797	999.973	0.121
308.15	0.1	0.04573	1000.628	0.122
318.15	0.1	0.01996	994.575	0.123
318.15	0.1	0.02315	994.843	0.123
318.15	0.1	0.03102	995.499	0.123
318.15	0.1	0.03612	995.924	0.123
318.15	0.1	0.03797	996.077	0.123
318.15	0.1	0.04573	996.717	0.123
288.15	0.25	0.01579	1007.425	0.126
288.15	0.25	0.01877	1007.689	0.126
288.15	0.25	0.02494	1008.233	0.127
288.15	0.25	0.02859	1008.553	0.127
288.15	0.25	0.03255	1008.901	0.127
288.15	0.25	0.03829	1009.403	0.128
298.15	0.25	0.01579	1005.125	0.125
298.15	0.25	0.01877	1005.381	0.125
298.15	0.25	0.02494	1005.908	0.125
298.15	0.25	0.02859	1006.216	0.125
298.15	0.25	0.03255	1006.551	0.126
298.15	0.25	0.03829	1007.033	0.126
308.15	0.25	0.01579	1001.974	0.123
308.15	0.25	0.01877	1002.225	0.123
308.15	0.25	0.02494	1002.744	0.123
308.15	0.25	0.02859	1003.051	0.123
308.15	0.25	0.03255	1003.383	0.124
308.15	0.25	0.03829	1003.862	0.124
318.15	0.25	0.01579	998.062	0.122
318.15	0.25	0.01877	998.311	0.122
318.15	0.25	0.02494	998.821	0.122
318.15	0.25	0.02859	999.121	0.122
318.15	0.25	0.03255	999.444	0.122
318.15	0.25	0.03829	999.915	0.122
288.15	0.5	0.01316	1013.698	0.13
288.15	0.5	0.01904	1014.201	0.131
288.15	0.5	0.02305	1014.541	0.131
288.15	0.5	0.02524	1014.727	0.131
288.15	0.5	0.03137	1015.242	0.131
288.15	0.5	0.03591	1015.621	0.132
298.15	0.5	0.01316	1011.201	0.129
298.15	0.5	0.01904	1011.689	0.129
298.15	0.5	0.02305	1012.018	0.129
298.15	0.5	0.02524	1012.199	0.13
298.15	0.5	0.03137	1012.702	0.13
298.15	0.5	0.03591	1013.072	0.13
308.15	0.5	0.01316	1007.915	0.127
308.15	0.5	0.01904	1008.377	0.127
308.15	0.5	0.02305	1008.69	0.127
308.15	0.5	0.02524	1008.86	0.127
308.15	0.5	0.03137	1009.332	0.128
308.15	0.5	0.03591	1009.679	0.128
318.15	0.5	0.01316	1003.902	0.124
318.15	0.5	0.01904	1004.356	0.124
318.15	0.5	0.02305	1004.662	0.125
318.15	0.5	0.02524	1004.83	0.125
318.15	0.5	0.03137	1005.294	0.125
318.15	0.5	0.03591	1005.635	0.125
288.15	0.75	0.02068	1020.525	0.135
288.15	0.75	0.02163	1020.605	0.135
288.15	0.75	0.02476	1020.866	0.135
288.15	0.75	0.0291	1021.227	0.136
288.15	0.75	0.03274	1021.529	0.136
288.15	0.75	0.03637	1021.829	0.136
298.15	0.75	0.02068	1017.803	0.133
298.15	0.75	0.02163	1017.881	0.133
298.15	0.75	0.02476	1018.136	0.133
298.15	0.75	0.0291	1018.489	0.134
298.15	0.75	0.03274	1018.784	0.134
298.15	0.75	0.03637	1019.077	0.134
308.15	0.75	0.02068	1014.385	0.131
308.15	0.75	0.02163	1014.46	0.131
308.15	0.75	0.02476	1014.705	0.131
308.15	0.75	0.0291	1015.046	0.131
308.15	0.75	0.03274	1015.33	0.132
308.15	0.75	0.03637	1015.613	0.132
318.15	0.75	0.02068	1010.306	0.128
318.15	0.75	0.02163	1010.382	0.128
318.15	0.75	0.02476	1010.626	0.129
318.15	0.75	0.0291	1010.964	0.129
318.15	0.75	0.03274	1011.246	0.129
318.15	0.75	0.03637	1011.527	0.129
288.15	1	0.01805	1026.148	0.139
288.15	1	0.02215	1026.489	0.139
288.15	1	0.02679	1026.874	0.139
288.15	1	0.03119	1027.237	0.14
288.15	1	0.03596	1027.629	0.14
288.15	1	0.04057	1028.006	0.14
298.15	1	0.01805	1023.281	0.137
298.15	1	0.02215	1023.618	0.137
298.15	1	0.02679	1023.999	0.137
298.15	1	0.03119	1024.359	0.138
298.15	1	0.03596	1024.748	0.138
298.15	1	0.04057	1025.123	0.138
308.15	1	0.01805	1019.808	0.135
308.15	1	0.02215	1020.134	0.135
308.15	1	0.02679	1020.503	0.135
308.15	1	0.03119	1020.85	0.135
308.15	1	0.03596	1021.227	0.136
308.15	1	0.04057	1021.589	0.136
318.15	1	0.01805	1015.637	0.132
318.15	1	0.02215	1015.96	0.132
318.15	1	0.02679	1016.324	0.132
318.15	1	0.03119	1016.669	0.133
318.15	1	0.03596	1017.041	0.133
318.15	1	0.04057	1017.399	0.133
288.15	0.1	0	1001.929	0.123
288.15	0.25	0	1006.019	0.125
288.15	0.5	0	1012.561	0.13
288.15	0.75	0	1018.771	0.134
288.15	1	0	1024.632	0.138
298.15	0.1	0	999.788	0.121
298.15	0.25	0	1003.755	0.124
298.15	0.5	0	1010.099	0.128
298.15	0.75	0	1016.101	0.132
298.15	1	0	1021.788	0.136
308.15	0.1	0	996.735	0.123
308.15	0.25	0	1000.633	0.122
308.15	0.5	0	1006.864	0.126
308.15	0.75	0	1012.744	0.13
308.15	1	0	1018.361	0.134
318.15	0.1	0	992.885	0.124
318.15	0.25	0	996.736	0.123
318.15	0.5	0	1002.871	0.123
318.15	0.75	0	1008.679	0.127
318.15	1	0	1014.203	0.131
288.15	0	0	999.129	0.122
298.15	0	0	997.047	0.122
308.15	0	0	994.063	0.123
318.15	0	0	990.244	0.125

System: guanidine hydrochloride + thymidine + water; phases: Liquid
Fixed: Pressure, kPa = 101.3
Property: Mass density, kg/m3 (Liquid); method: Vibrating tube method
Temperature, K	Solvent: Molality, mol/kg of guanidine hydrochloride	Molality, mol/kg of thymidine	Mass density, kg/m3	uncertainty
288.15	0	0.00963	999.851	0.177
288.15	0	0.01114	999.964	0.177
288.15	0	0.01478	1000.235	0.177
288.15	0	0.02291	1000.838	0.177
288.15	0	0.02594	1001.061	0.177
288.15	0	0.0288	1001.271	0.177
298.15	0	0.00963	997.759	0.177
298.15	0	0.01114	997.871	0.177
298.15	0	0.01478	998.139	0.177
298.15	0	0.02291	998.733	0.177
298.15	0	0.02594	998.954	0.177
298.15	0	0.0288	999.162	0.177
308.15	0	0.00963	994.768	0.178
308.15	0	0.01114	994.878	0.178
308.15	0	0.01478	995.142	0.178
308.15	0	0.02291	995.73	0.178
308.15	0	0.02594	995.947	0.178
308.15	0	0.0288	996.152	0.177
318.15	0	0.00963	990.937	0.179
318.15	0	0.01114	991.046	0.179
318.15	0	0.01478	991.306	0.179
318.15	0	0.02291	991.881	0.179
318.15	0	0.02594	992.094	0.178
318.15	0	0.0288	992.294	0.178
288.15	0.1	0.00672	1002.416	0.178
288.15	0.1	0.00957	1002.621	0.179
288.15	0.1	0.01491	1003.005	0.179
288.15	0.1	0.02197	1003.51	0.179
288.15	0.1	0.02286	1003.573	0.179
288.15	0.1	0.02717	1003.879	0.18
298.15	0.1	0.00672	1000.27	0.177
298.15	0.1	0.00957	1000.473	0.177
298.15	0.1	0.01491	1000.854	0.177
298.15	0.1	0.02197	1001.355	0.178
298.15	0.1	0.02286	1001.417	0.178
298.15	0.1	0.02717	1001.722	0.178
308.15	0.1	0.00672	997.214	0.177
308.15	0.1	0.00957	997.416	0.177
308.15	0.1	0.01491	997.794	0.177
308.15	0.1	0.02197	998.289	0.177
308.15	0.1	0.02286	998.35	0.177
308.15	0.1	0.02717	998.652	0.177
318.15	0.1	0.00672	993.358	0.178
318.15	0.1	0.00957	993.558	0.178
318.15	0.1	0.01491	993.933	0.178
318.15	0.1	0.02197	994.426	0.178
318.15	0.1	0.02286	994.487	0.178
318.15	0.1	0.02717	994.788	0.178
288.15	0.25	0.00676	1006.526	0.182
288.15	0.25	0.00692	1006.538	0.182
288.15	0.25	0.01293	1006.986	0.182
288.15	0.25	0.01638	1007.241	0.182
288.15	0.25	0.02403	1007.807	0.183
288.15	0.25	0.02631	1007.974	0.183
298.15	0.25	0.00676	1004.257	0.183
298.15	0.25	0.00692	1004.269	0.183
298.15	0.25	0.01293	1004.713	0.18
298.15	0.25	0.01638	1004.968	0.18
298.15	0.25	0.02403	1005.529	0.181
298.15	0.25	0.02631	1005.695	0.181
308.15	0.25	0.00676	1001.132	0.18
308.15	0.25	0.00692	1001.144	0.18
308.15	0.25	0.01293	1001.584	0.178
308.15	0.25	0.01638	1001.835	0.178
308.15	0.25	0.02403	1002.389	0.178
308.15	0.25	0.02631	1002.553	0.179
318.15	0.25	0.00676	997.229	0.177
318.15	0.25	0.00692	997.241	0.177
318.15	0.25	0.01293	997.676	0.177
318.15	0.25	0.01638	997.925	0.177
318.15	0.25	0.02403	998.473	0.177
318.15	0.25	0.02631	998.635	0.177
288.15	0.5	0.00717	1013.107	0.187
288.15	0.5	0.01027	1013.342	0.187
288.15	0.5	0.01477	1013.682	0.187
288.15	0.5	0.02355	1014.343	0.188
288.15	0.5	0.0286	1014.722	0.188
288.15	0.5	0.02977	1014.81	0.188
298.15	0.5	0.00717	1010.642	0.185
298.15	0.5	0.01027	1010.875	0.185
298.15	0.5	0.01477	1011.213	0.185
298.15	0.5	0.02355	1011.87	0.186
298.15	0.5	0.0286	1012.245	0.186
298.15	0.5	0.02977	1012.331	0.186
308.15	0.5	0.00717	1007.402	0.182
308.15	0.5	0.01027	1007.632	0.183
308.15	0.5	0.01477	1007.966	0.183
308.15	0.5	0.02355	1008.613	0.183
308.15	0.5	0.0286	1008.983	0.184
308.15	0.5	0.02977	1009.067	0.184
318.15	0.5	0.00717	1003.405	0.179
318.15	0.5	0.01027	1003.633	0.179
318.15	0.5	0.01477	1003.966	0.18
318.15	0.5	0.02355	1004.612	0.18
318.15	0.5	0.0286	1004.981	0.181
318.15	0.5	0.02977	1005.067	0.181
288.15	0.75	0.00591	1019.221	0.192
288.15	0.75	0.01007	1019.536	0.192
288.15	0.75	0.01509	1019.914	0.192
288.15	0.75	0.01772	1020.11	0.192
288.15	0.75	0.02171	1020.408	0.192
288.15	0.75	0.02278	1020.488	0.193
298.15	0.75	0.00591	1016.548	0.189
298.15	0.75	0.01007	1016.861	0.19
298.15	0.75	0.01509	1017.237	0.19
298.15	0.75	0.01772	1017.433	0.19
298.15	0.75	0.02171	1017.729	0.19
298.15	0.75	0.02278	1017.809	0.19
308.15	0.75	0.00591	1013.187	0.187
308.15	0.75	0.01007	1013.497	0.187
308.15	0.75	0.01509	1013.87	0.187
308.15	0.75	0.01772	1014.065	0.188
308.15	0.75	0.02171	1014.358	0.188
308.15	0.75	0.02278	1014.437	0.188
318.15	0.75	0.00591	1009.117	0.184
318.15	0.75	0.01007	1009.422	0.184
318.15	0.75	0.01509	1009.789	0.184
318.15	0.75	0.01772	1009.979	0.184
318.15	0.75	0.02171	1010.268	0.185
318.15	0.75	0.02278	1010.345	0.185
288.15	1	0.0045	1024.964	0.196
288.15	1	0.00981	1025.353	0.196
288.15	1	0.01363	1025.631	0.197
288.15	1	0.01852	1025.987	0.197
288.15	1	0.02254	1026.277	0.197
288.15	1	0.02988	1026.805	0.197
298.15	1	0.0045	1022.115	0.194
298.15	1	0.00981	1022.499	0.194
298.15	1	0.01363	1022.774	0.194
298.15	1	0.01852	1023.126	0.195
298.15	1	0.02254	1023.414	0.195
298.15	1	0.02988	1023.936	0.195
308.15	1	0.0045	1018.685	0.191
308.15	1	0.00981	1019.066	0.191
308.15	1	0.01363	1019.34	0.192
308.15	1	0.01852	1019.688	0.192
308.15	1	0.02254	1019.974	0.192
308.15	1	0.02988	1020.495	0.193
318.15	1	0.0045	1014.522	0.188
318.15	1	0.00981	1014.897	0.188
318.15	1	0.01363	1015.165	0.188
318.15	1	0.01852	1015.508	0.189
318.15	1	0.02254	1015.788	0.189
318.15	1	0.02988	1016.298	0.189
288.15	0.1	0	1001.929	0.178
288.15	0.25	0	1006.019	0.181
288.15	0.5	0	1012.561	0.186
288.15	0.75	0	1018.771	0.191
288.15	1	0	1024.632	0.196
298.15	0.1	0	999.788	0.177
298.15	0.25	0	1003.755	0.179
298.15	0.5	0	1010.099	0.184
298.15	0.75	0	1016.101	0.189
298.15	1	0	1021.788	0.194
308.15	0.1	0	996.735	0.177
308.15	0.25	0	1000.633	0.177
308.15	0.5	0	1006.864	0.182
308.15	0.75	0	1012.744	0.187
308.15	1	0	1018.361	0.191
318.15	0.1	0	992.885	0.178
318.15	0.25	0	996.736	0.177
318.15	0.5	0	1002.871	0.179
318.15	0.75	0	1008.679	0.183
318.15	1	0	1014.203	0.188
288.15	0	0	999.129	0.177
298.15	0	0	997.047	0.177
308.15	0	0	994.063	0.178
318.15	0	0	990.244	0.179

System: guanidine hydrochloride + water; phases: Liquid
Fixed: Pressure, kPa = 101.3
Property: Mass density, kg/m3 (Liquid); method: Vibrating tube method
Temperature, K	Molality, mol/kg of guanidine hydrochloride	Mass density, kg/m3	uncertainty
288.15	0.1	1001.929	0.089
288.15	0.25	1006.019	0.091
288.15	0.5	1012.561	0.095
288.15	0.75	1018.771	0.099
288.15	1	1024.632	0.102
298.15	0.1	999.788	0.088
298.15	0.25	1003.755	0.09
298.15	0.5	1010.099	0.094
298.15	0.75	1016.101	0.097
298.15	1	1021.788	0.101
308.15	0.1	996.735	0.089
308.15	0.25	1000.633	0.088
308.15	0.5	1006.864	0.092
308.15	0.75	1012.744	0.095
308.15	1	1018.361	0.099
318.15	0.1	992.885	0.091
318.15	0.25	996.736	0.089
318.15	0.5	1002.871	0.089
318.15	0.75	1008.679	0.093
318.15	1	1014.203	0.096

System: 2,4(1H,3H)-pyrimidinedione + water; phases: Liquid
Fixed: Pressure, kPa = 101.3
Property: Mass density, kg/m3 (Liquid); method: Vibrating tube method
Temperature, K	Molality, mol/kg of 2,4(1H,3H)-pyrimidinedione	Mass density, kg/m3	uncertainty
288.15	0.00553	999.354	0.088
288.15	0.01162	999.599	0.088
288.15	0.01509	999.736	0.088
288.15	0.01985	999.924	0.087
288.15	0.02578	1000.154	0.088
288.15	0.03026	1000.327	0.088
298.15	0.00553	997.267	0.089
298.15	0.00878	997.396	0.089
298.15	0.01162	997.507	0.09
298.15	0.01202	997.522	0.09
298.15	0.01509	997.643	0.088
298.15	0.01724	997.727	0.089
298.15	0.01985	997.828	0.088
298.15	0.02348	997.97	0.089
298.15	0.02387	997.985	0.089
298.15	0.02487	998.023	0.088
298.15	0.02578	998.059	0.089
298.15	0.03026	998.232	0.088
308.15	0.00553	994.275	0.09
308.15	0.01162	994.508	0.09
308.15	0.01509	994.639	0.09
308.15	0.01985	994.818	0.09
308.15	0.02578	995.038	0.09
308.15	0.03026	995.205	0.09
318.15	0.00553	990.452	0.092
318.15	0.01162	990.68	0.092
318.15	0.01509	990.808	0.091
318.15	0.01985	990.984	0.091
318.15	0.02578	991.203	0.091
318.15	0.03026	991.367	0.091

System: 4-amino-2-hydroxypyrimidine + water; phases: Liquid
Fixed: Pressure, kPa = 101.3
Property: Mass density, kg/m3 (Liquid); method: Vibrating tube method
Temperature, K	Molality, mol/kg of 4-amino-2-hydroxypyrimidine	Mass density, kg/m3	uncertainty
288.15	0.00616	999.374	0.088
288.15	0.01095	999.56	0.088
288.15	0.01633	999.767	0.088
288.15	0.01961	999.894	0.088
288.15	0.02682	1000.166	0.088
288.15	0.03302	1000.397	0.088
298.15	0.00616	997.282	0.089
298.15	0.01095	997.461	0.089
298.15	0.01278	997.529	0.089
298.15	0.01633	997.66	0.088
298.15	0.01855	997.743	0.089
298.15	0.01892	997.756	0.089
298.15	0.01961	997.779	0.089
298.15	0.02682	998.042	0.089
298.15	0.02766	998.073	0.089
298.15	0.02813	998.09	0.089
298.15	0.03302	998.264	0.088
298.15	0.0353	998.345	0.088
308.15	0.00616	994.295	0.09
308.15	0.01095	994.473	0.09
308.15	0.01633	994.67	0.09
308.15	0.01961	994.791	0.09
308.15	0.02682	995.052	0.09
308.15	0.03302	995.271	0.09
318.15	0.00616	990.472	0.092
318.15	0.01095	990.648	0.092
318.15	0.01633	990.845	0.091
318.15	0.01961	990.964	0.091
318.15	0.02682	991.228	0.091
318.15	0.03302	991.452	0.091

System: thymine + water; phases: Liquid
Fixed: Pressure, kPa = 101.3
Property: Mass density, kg/m3 (Liquid); method: Vibrating tube method
Temperature, K	Molality, mol/kg of thymine	Mass density, kg/m3	uncertainty
288.15	0.00771	999.423	0.088
288.15	0.01299	999.622	0.088
288.15	0.01771	999.797	0.088
288.15	0.02319	1000.001	0.087
288.15	0.02665	1000.128	0.088
288.15	0.03315	1000.367	0.088
298.15	0.00771	997.334	0.089
298.15	0.01299	997.53	0.089
298.15	0.01771	997.704	0.088
298.15	0.02319	997.906	0.088
298.15	0.02665	998.033	0.088
298.15	0.03315	998.27	0.088
308.15	0.00771	994.344	0.09
308.15	0.01299	994.535	0.09
308.15	0.01771	994.705	0.09
308.15	0.02319	994.901	0.09
308.15	0.02665	995.023	0.09
308.15	0.03315	995.252	0.09
318.15	0.00771	990.518	0.092
318.15	0.01299	990.703	0.092
318.15	0.01771	990.867	0.091
318.15	0.02319	991.055	0.091
318.15	0.02665	991.172	0.091
318.15	0.03315	991.393	0.091

System: uridine + water; phases: Liquid
Fixed: Pressure, kPa = 101.3
Property: Mass density, kg/m3 (Liquid); method: Vibrating tube method
Temperature, K	Molality, mol/kg of uridine	Mass density, kg/m3	uncertainty
288.15	0.01549	1000.562	0.088
288.15	0.02113	1001.081	0.088
288.15	0.0315	1002.033	0.089
288.15	0.0377	1002.599	0.089
288.15	0.03932	1002.748	0.089
288.15	0.0509	1003.801	0.09
298.15	0.01349	998.273	0.088
298.15	0.01549	998.454	0.088
298.15	0.02054	998.91	0.088
298.15	0.02113	998.963	0.088
298.15	0.0315	999.896	0.089
298.15	0.03194	999.936	0.089
298.15	0.0377	1000.45	0.088
298.15	0.03932	1000.595	0.088
298.15	0.04355	1000.973	0.088
298.15	0.0509	1001.626	0.089
298.15	0.05097	1001.632	0.089
298.15	0.05771	1002.229	0.089
298.15	0.07224	1003.505	0.09
308.15	0.01549	995.447	0.09
308.15	0.02113	995.947	0.089
308.15	0.0315	996.863	0.089
308.15	0.0377	997.406	0.089
308.15	0.03932	997.548	0.089
308.15	0.0509	998.558	0.088
318.15	0.01549	991.615	0.091
318.15	0.02113	992.109	0.091
318.15	0.0315	993.015	0.091
318.15	0.0377	993.55	0.09
318.15	0.03932	993.691	0.09
318.15	0.0509	994.686	0.09

System: cytidine + water; phases: Liquid
Fixed: Pressure, kPa = 101.3
Property: Mass density, kg/m3 (Liquid); method: Vibrating tube method
Temperature, K	Molality, mol/kg of cytidine	Mass density, kg/m3	uncertainty
288.15	0.01847	1000.807	0.122
288.15	0.03595	1002.382	0.123
288.15	0.05571	1004.146	0.124
288.15	0.0565	1004.216	0.124
288.15	0.09105	1007.262	0.126
288.15	0.10644	1008.602	0.127
298.15	0.01847	998.697	0.122
298.15	0.03595	1000.244	0.121
298.15	0.05571	1001.977	0.123
298.15	0.0565	1002.046	0.123
298.15	0.09105	1005.041	0.125
298.15	0.10644	1006.359	0.126
308.15	0.01847	995.667	0.123
308.15	0.03595	997.172	0.122
308.15	0.05571	998.849	0.122
308.15	0.0565	998.913	0.122
308.15	0.09105	1001.807	0.123
308.15	0.10644	1003.078	0.123
318.15	0.01847	991.836	0.124
318.15	0.03595	993.324	0.124
318.15	0.05571	994.979	0.123
318.15	0.0565	995.046	0.123
318.15	0.09105	997.885	0.122
318.15	0.10644	999.135	0.122

System: thymidine + water; phases: Liquid
Fixed: Pressure, kPa = 101.3
Property: Mass density, kg/m3 (Liquid); method: Vibrating tube method
Temperature, K	Molality, mol/kg of thymidine	Mass density, kg/m3	uncertainty
288.15	0.00963	999.851	0.177
288.15	0.01114	999.964	0.177
288.15	0.01478	1000.235	0.177
288.15	0.02291	1000.838	0.177
288.15	0.02594	1001.061	0.177
288.15	0.0288	1001.271	0.177
298.15	0.00963	997.759	0.177
298.15	0.01114	997.871	0.177
298.15	0.01478	998.139	0.177
298.15	0.02291	998.733	0.177
298.15	0.02594	998.954	0.177
298.15	0.0288	999.162	0.177
308.15	0.00963	994.768	0.178
308.15	0.01114	994.878	0.178
308.15	0.01478	995.142	0.178
308.15	0.02291	995.73	0.178
308.15	0.02594	995.947	0.178
308.15	0.0288	996.152	0.177
318.15	0.00963	990.937	0.179
318.15	0.01114	991.046	0.179
318.15	0.01478	991.306	0.179
318.15	0.02291	991.881	0.179
318.15	0.02594	992.094	0.178
318.15	0.0288	992.294	0.178
