Measured thermophysical data. The molar enthalpies of solution and solubilities of ammonium, sodium and potassium oxalates in water
Source: J. Chem. Thermodyn., 2004, 10.1016/j.jct.2003.09.012
Compound 1: ammonium oxalate monohydrate, C2H10N2O5, InChI=1S/C2H2O4.2H3N.H2O/c3-1(4)2(5)6;;;/h(H,3,4)(H,5,6);2*1H3;1H2, purity 99.5%
Compound 2: sodium oxalate, C2Na2O4, InChI=1S/C2H2O4.2Na/c3-1(4)2(5)6;;/h(H,3,4)(H,5,6);;/q;2*+1/p-2, purity 99.5%
Compound 3: potassium oxalate monohydrate, C2H2K2O5, InChI=1S/C2H2O4.2K.H2O/c3-1(4)2(5)6;;;/h(H,3,4)(H,5,6);;;1H2/q;2*+1;/p-2, purity 99.5%
Compound 4: water, H2O, InChI=1S/H2O/h1H2, purity 99%

System: ammonium oxalate monohydrate + water; phases: Liquid, Crystal
Fixed: Pressure, kPa = 101.325
Property: Molality, mol/kg (Liquid); method: titration with potassium permanganate
Temperature, K	Molality, mol/kg	uncertainty
273.15	0.201	0.012
283.15	0.259	0.016
293.15	0.361	0.022
298.15	0.422	0.025
303.15	0.496	0.03
308.15	0.577	0.035
313.15	0.653	0.039
318.15	0.777	0.047
323.15	0.88	0.053
328.15	1.004	0.06
333.15	1.164	0.07

System: sodium oxalate + water; phases: Liquid, Crystal
Fixed: Pressure, kPa = 101.325
Property: Molality, mol/kg (Liquid); method: titration with potassium permanganate
Temperature, K	Molality, mol/kg	uncertainty
273.15	0.21	0.008
278.15	0.219	0.009
288.15	0.243	0.01
293.15	0.263	0.011
298.15	0.27	0.011
303.15	0.284	0.011
308.15	0.301	0.012
313.15	0.316	0.013
318.15	0.326	0.013
323.15	0.345	0.014
328.15	0.355	0.014
333.15	0.367	0.015

System: sodium oxalate + water; phases: Liquid
Fixed: Pressure, kPa = 101
Property: Molar enthalpy of solution, kJ/mol (Liquid); method: CALVET:solid
Molality, mol/kg of sodium oxalate	Temperature, K	Molar enthalpy of solution, kJ/mol	uncertainty
0.00747	296.79	16.03	1.614
0.00748	297.56	16.13	1.624
0.00752	296.73	16.77	1.688
0.00759	296.63	17.32	1.743
0.00759	297.11	15.58	1.568
0.00761	296.85	16.3	1.641
0.00761	297.72	19.24	1.935
0.00768	296.54	15.74	1.584
0.00769	295.98	14.35	1.445
0.00769	297.82	16.55	1.666
0.00775	295.56	16.88	1.699
0.00779	295.52	19.17	1.928
0.00797	295.6	16.69	1.68
0.00803	295.56	15.53	1.563

System: potassium oxalate monohydrate + water; phases: Liquid, Crystal
Fixed: Pressure, kPa = 101.325
Property: Molality, mol/kg (Liquid); method: titration with potassium permanganate
Temperature, K	Molality, mol/kg	uncertainty
273.15	1.483	0.059
278.15	1.598	0.064
283.15	1.739	0.07
288.15	1.811	0.073
293.15	1.957	0.078
298.15	2.06	0.08
303.15	2.17	0.09
308.15	2.3	0.09
313.15	2.39	0.1
318.15	2.51	0.1
323.15	2.62	0.11
328.15	2.73	0.11
333.15	2.89	0.12

System: potassium oxalate monohydrate + water; phases: Liquid
Fixed: Pressure, kPa = 101
Property: Molar enthalpy of solution, kJ/mol (Liquid); method: CALVET:solid
Molality, mol/kg of potassium oxalate monohydrate	Temperature, K	Molar enthalpy of solution, kJ/mol	uncertainty
0.02721	301.31	27.05	2.18
0.0273	300.98	29.08	2.343
0.02732	301.03	29.25	2.356
0.02734	295.91	30.38	2.447
0.02736	300.93	28.83	2.323
0.02737	296.41	30.35	2.445
0.02741	300.93	29.92	2.41
0.02744	296.84	29.32	2.362
0.02746	296.32	30.25	2.437
0.02749	297.06	28.5	2.296
0.02766	301.35	29.46	2.373
