Measured thermophysical data. Volumetric and steric properties of hydroxamic acids in ethanol  at different temperatures
Source: J. Chem. Thermodyn., 2012, 10.1016/j.jct.2012.03.019
Compound 1: N-phenylbenzohydroxamic acid, C13H11NO2, InChI=1S/C13H11NO2/c15-13(11-7-3-1-4-8-11)14(16)12-9-5-2-6-10-12/h1-10,16H, purity 98%
Compound 2: N-hydroxy-N-(o-tolyl)benzamide, C14H13NO2, InChI=1S/C14H13NO2/c1-11-7-5-6-10-13(11)15(17)14(16)12-8-3-2-4-9-12/h2-10,17H,1H3, purity 98%
Compound 3: ethanol, C2H6O, InChI=1S/C2H6O/c1-2-3/h3H,2H2,1H3, purity 99.8%

System: N-phenylbenzohydroxamic acid; phases: Crystal, Liquid, Air at 1 atmosphere
Property: Normal melting temperature, K (Crystal); method: VISOBS
Normal melting temperature, K	uncertainty
394.15	1

System: N-phenylbenzohydroxamic acid; phases: Liquid
Fixed: Pressure, kPa = 101.325
Property: Mass density, kg/m3 (Liquid); method: Pycnometric method
Temperature, K	Mass density, kg/m3	uncertainty
298.15	784.5	1.1
303.15	780.1	1.1
308.15	774.6	1.2

System: N-phenylbenzohydroxamic acid; phases: Liquid
Fixed: Pressure, kPa = 101.325
Property: Refractive index (Na D-line) (Liquid); method: Standard Abbe refractometry
Temperature, K	Refractive index (Na D-line)	uncertainty
298.15	1.362	0.0005
303.15	1.3612	0.0005
308.15	1.3593	0.0005

System: N-hydroxy-N-(o-tolyl)benzamide; phases: Crystal, Liquid, Air at 1 atmosphere
Property: Normal melting temperature, K (Crystal); method: VISOBS
Normal melting temperature, K	uncertainty
378.15	1

System: N-hydroxy-N-(o-tolyl)benzamide; phases: Liquid
Fixed: Pressure, kPa = 101.325
Property: Mass density, kg/m3 (Liquid); method: Pycnometric method
Temperature, K	Mass density, kg/m3	uncertainty
298.15	784.5	1.1
303.15	780.2	1.1
308.15	774.7	1.2

System: N-hydroxy-N-(o-tolyl)benzamide; phases: Liquid
Fixed: Pressure, kPa = 101.325
Property: Refractive index (Na D-line) (Liquid); method: Standard Abbe refractometry
Temperature, K	Refractive index (Na D-line)	uncertainty
298.15	1.3638	0.0005
303.15	1.3619	0.0005
308.15	1.3595	0.0005

System: ethanol; phases: Liquid
Fixed: Pressure, kPa = 101.325
Property: Mass density, kg/m3 (Liquid); method: Pycnometric method
Temperature, K	Mass density, kg/m3	uncertainty
298.15	785	0.6
303.15	780.9	0.7
308.15	775.9	0.8

System: ethanol; phases: Liquid
Fixed: Pressure, kPa = 101.325
Property: Refractive index (Na D-line) (Liquid); method: Standard Abbe refractometry
Temperature, K	Refractive index (Na D-line)	uncertainty
298.15	1.36	0.0004
303.15	1.3592	0.0004
308.15	1.357	0.0004

System: ethanol + N-phenylbenzohydroxamic acid; phases: Liquid
Fixed: Pressure, kPa = 101
Property: Mass density, kg/m3 (Liquid); method: Pycnometric method
Temperature, K	Molality, mol/kg of N-phenylbenzohydroxamic acid	Mass density, kg/m3	uncertainty
298.15	0.0234	786.7	1.4
298.15	0.0469	788.4	1.4
298.15	0.0703	790.1	1.4
298.15	0.0938	791.8	1.4
298.15	0.1172	793.7	1.5
298.15	0.1407	795.5	1.5
298.15	0.1641	797.3	1.5
298.15	0.1876	799.4	1.5
298.15	0.211	801.3	1.6
298.15	0.2345	803.8	1.6
303.15	0.0234	782.1	1.4
303.15	0.0469	783.4	1.4
303.15	0.0703	784.9	1.4
303.15	0.0938	786.5	1.4
303.15	0.1172	787.9	1.4
303.15	0.1407	789.7	1.4
303.15	0.1641	791.5	1.5
303.15	0.1876	793.2	1.4
303.15	0.211	794.8	1.4
303.15	0.2345	796.6	1.5
308.15	0.0234	777	1.4
308.15	0.0469	778.1	1.4
308.15	0.0703	779.7	1.4
308.15	0.0938	781.1	1.4
308.15	0.1172	782.7	1.4
308.15	0.1407	784.6	1.4
308.15	0.1641	786.2	1.4
308.15	0.1876	788.8	1.4
308.15	0.211	790.4	1.4
308.15	0.2345	792.2	1.4

System: ethanol + N-phenylbenzohydroxamic acid; phases: Liquid
Fixed: Pressure, kPa = 101
Property: Refractive index (Na D-line) (Liquid); method: Standard Abbe refractometry
Temperature, K	Molality, mol/kg of N-phenylbenzohydroxamic acid	Refractive index (Na D-line)	uncertainty
298.15	0.0234	1.3627	0.0004
298.15	0.0469	1.3631	0.0004
298.15	0.0703	1.364	0.0004
298.15	0.0938	1.3651	0.0004
298.15	0.1172	1.3659	0.0004
298.15	0.1407	1.3663	0.0004
298.15	0.1641	1.367	0.0004
298.15	0.1876	1.3675	0.0004
298.15	0.211	1.3681	0.0004
298.15	0.2345	1.3692	0.0004
303.15	0.0234	1.3617	0.0004
303.15	0.0469	1.3626	0.0004
303.15	0.0703	1.3634	0.0004
303.15	0.0938	1.3641	0.0004
303.15	0.1172	1.3649	0.0004
303.15	0.1407	1.3654	0.0004
303.15	0.1641	1.3662	0.0004
303.15	0.1876	1.3667	0.0004
303.15	0.211	1.3675	0.0004
303.15	0.2345	1.3682	0.0004
308.15	0.0234	1.3599	0.0004
308.15	0.0469	1.3612	0.0004
308.15	0.0703	1.3618	0.0004
308.15	0.0938	1.3625	0.0004
308.15	0.1172	1.3633	0.0004
308.15	0.1407	1.3645	0.0004
308.15	0.1641	1.3653	0.0004
308.15	0.1876	1.3661	0.0004
308.15	0.211	1.3668	0.0004
308.15	0.2345	1.3674	0.0004

System: ethanol + N-hydroxy-N-(o-tolyl)benzamide; phases: Liquid
Fixed: Pressure, kPa = 101
Property: Mass density, kg/m3 (Liquid); method: Pycnometric method
Temperature, K	Molality, mol/kg of N-hydroxy-N-(o-tolyl)benzamide	Mass density, kg/m3	uncertainty
298.15	0.022	786.7	1.4
298.15	0.0441	788.6	1.4
298.15	0.0661	790.4	1.4
298.15	0.0881	792.2	1.5
298.15	0.1101	794	1.4
298.15	0.1322	796.2	1.5
298.15	0.1542	798.5	1.5
298.15	0.1762	800.4	1.5
298.15	0.1982	802.3	1.6
298.15	0.2202	804.2	1.6
303.15	0.022	782.2	1.4
303.15	0.0441	783.7	1.4
303.15	0.0661	785.2	1.4
303.15	0.0881	786.7	1.5
303.15	0.1101	788.7	1.5
303.15	0.1322	790.4	1.5
303.15	0.1542	792.2	1.5
303.15	0.1762	793.8	1.5
303.15	0.1982	795.4	1.5
303.15	0.2202	797.2	1.5
308.15	0.022	777	1.4
308.15	0.0441	778.2	1.4
308.15	0.0661	779.5	1.5
308.15	0.0881	781	1.5
308.15	0.1101	783	1.5
308.15	0.1322	784.7	1.5
308.15	0.1542	786.3	1.5
308.15	0.1762	788.3	1.5
308.15	0.1982	790.1	1.4
308.15	0.2202	791.8	1.4

System: ethanol + N-hydroxy-N-(o-tolyl)benzamide; phases: Liquid
Fixed: Pressure, kPa = 101
Property: Refractive index (Na D-line) (Liquid); method: Standard Abbe refractometry
Temperature, K	Molality, mol/kg of N-hydroxy-N-(o-tolyl)benzamide	Refractive index (Na D-line)	uncertainty
298.15	0.022	1.3645	0.0004
298.15	0.0441	1.3656	0.0004
298.15	0.0661	1.3667	0.0004
298.15	0.0881	1.3675	0.0004
298.15	0.1101	1.3683	0.0004
298.15	0.1322	1.3688	0.0004
298.15	0.1542	1.3699	0.0004
298.15	0.1762	1.371	0.0004
298.15	0.1982	1.3717	0.0004
298.15	0.2202	1.3727	0.0004
303.15	0.022	1.3629	0.0004
303.15	0.0441	1.3636	0.0004
303.15	0.0661	1.3642	0.0004
303.15	0.0881	1.3648	0.0004
303.15	0.1101	1.3652	0.0004
303.15	0.1322	1.3663	0.0004
303.15	0.1542	1.367	0.0004
303.15	0.1762	1.3677	0.0004
303.15	0.1982	1.3687	0.0004
303.15	0.2202	1.3697	0.0004
308.15	0.022	1.3606	0.0004
308.15	0.0441	1.3614	0.0004
308.15	0.0661	1.3621	0.0004
308.15	0.0881	1.363	0.0004
308.15	0.1101	1.3638	0.0004
308.15	0.1322	1.3647	0.0004
308.15	0.1542	1.366	0.0004
308.15	0.1762	1.3669	0.0004
308.15	0.1982	1.3677	0.0004
308.15	0.2202	1.3685	0.0004
