Measured thermophysical data. Volumetric properties of ammonium nitrate in N,N-dimethylformamide
Source: J. Chem. Thermodyn., 2012, 10.1016/j.jct.2012.04.001
Compound 1: ammonium nitrate, H4N2O3, InChI=1S/NO3.H3N/c2-1(3)4;/h;1H3/q-1;/p+1, purity 99%
Compound 2: dimethylformamide, C3H7NO, InChI=1S/C3H7NO/c1-4(2)3-5/h3H,1-2H3, purity 99.8%

System: dimethylformamide + ammonium nitrate; phases: Liquid
Fixed: Pressure, kPa = 101.3
Property: Mass density, kg/m3 (Liquid); method: Vibrating tube method
Temperature, K	Molality, mol/kg of ammonium nitrate	Mass density, kg/m3	uncertainty
308.15	0	933.98	0.09
308.15	0.17101	941.16	0.08
308.15	0.34202	947.86	0.08
308.15	0.45603	952.04	0.08
308.15	0.68404	960.09	0.08
308.15	0.91206	967.79	0.07
308.15	1.3681	982.47	0.07
308.15	1.5201	987.11	0.07
308.15	1.7101	992.84	0.07
308.15	1.9544	999.7	0.07
308.15	2.2801	1008.58	0.07
308.15	2.7361	1020.54	0.08
308.15	3.4202	1036.7	0.08
308.15	4.5602	1060.89	0.1
308.15	6.8404	1101.7	0.13
318.15	0	923.93	0.09
318.15	0.17101	931.28	0.09
318.15	0.34202	938.06	0.08
318.15	0.45603	942.34	0.08
318.15	0.68404	950.51	0.08
318.15	0.91206	958.5	0.08
318.15	1.3681	973.25	0.07
318.15	1.5201	977.86	0.07
318.15	1.7101	983.76	0.07
318.15	1.9544	990.66	0.07
318.15	2.2801	999.67	0.07
318.15	2.7361	1011.5	0.07
318.15	3.4202	1028.21	0.08
318.15	4.5602	1052.64	0.1
318.15	6.8404	1093.92	0.13
328.15	0	913.66	0.09
328.15	0.17101	921.17	0.09
328.15	0.34202	928.09	0.09
328.15	0.45603	932.48	0.09
328.15	0.68404	940.68	0.08
328.15	0.91206	948.8	0.08
328.15	1.3681	963.77	0.08
328.15	1.5201	968.35	0.08
328.15	1.7101	974.33	0.08
328.15	1.9544	981.41	0.07
328.15	2.2801	990.54	0.07
328.15	2.7361	1002.33	0.07
328.15	3.4202	1019.45	0.08
328.15	4.5602	1044.21	0.09
328.15	6.8404	1085.79	0.12
338.15	0	902.94	0.1
338.15	0.17101	910.62	0.1
338.15	0.34202	917.67	0.09
338.15	0.45603	922.12	0.09
338.15	0.68404	930.49	0.09
338.15	0.91206	938.7	0.09
338.15	1.3681	953.88	0.08
338.15	1.5201	958.52	0.08
338.15	1.7101	964.55	0.08
338.15	1.9544	971.83	0.08
338.15	2.2801	981.1	0.08
338.15	2.7361	992.98	0.07
338.15	3.4202	1010.3	0.08
338.15	4.5602	1035.37	0.09
338.15	6.8404	1077.31	0.12
348.15	0	891.81	0.1
348.15	0.17101	899.63	0.1
348.15	0.34202	906.81	0.1
348.15	0.45603	911.35	0.09
348.15	0.68404	919.9	0.09
348.15	0.91206	928.24	0.09
348.15	1.3681	943.61	0.09
348.15	1.5201	948.36	0.08
348.15	1.7101	954.44	0.08
348.15	1.9544	961.82	0.08
348.15	2.2801	971.2	0.08
348.15	2.7361	983.26	0.08
348.15	3.4202	1000.83	0.08
348.15	4.5602	1026.18	0.09
348.15	6.8404	1068.58	0.12
