Measured thermophysical data. Reconciled thermophysical data for anthracene
Source: J. Chem. Thermodyn., 2019, 10.1016/j.jct.2018.08.034
Compound 1: anthracene, C14H10, InChI=1S/C14H10/c1-2-6-12-10-14-8-4-3-7-13(14)9-11(12)5-1/h1-10H, purity 99.5%
Compound 2: naphtho[2,3-b]thiophene, C12H8S, InChI=1S/C12H8S/c1-2-4-10-8-12-11(5-6-13-12)7-9(10)3-1/h1-8H

System: anthracene; phases: Crystal, Gas
Property: Vapor or sublimation pressure, kPa (Crystal); method: CCELL13
Temperature, K	Vapor or sublimation pressure, kPa	uncertainty
343.29	0.000192	5.2e-05
343.3	0.000182	5.2e-05
343.31	0.000197	5.2e-05
345.76	0.000235	5.3e-05
345.76	0.00024	5.2e-05
345.79	0.000247	5.3e-05
348.21	0.000317	5.3e-05
348.21	0.000305	5.3e-05
348.27	0.000297	5.3e-05
350.75	0.000392	5.4e-05
350.76	0.000401	5.5e-05
350.79	0.000384	5.4e-05
353.04	0.000479	5.5e-05
353.04	0.000485	5.5e-05
353.19	0.000498	5.5e-05
355.68	0.00063	5.6e-05
355.73	0.000626	5.6e-05
355.74	0.000623	5.6e-05
358.14	0.000799	5.8e-05
358.15	0.000784	5.9e-05
358.18	0.000798	5.8e-05
360.63	0.001	6e-05
360.66	0.000992	6.1e-05
360.68	0.000998	6e-05
362.95	0.00123	6.3e-05
362.95	0.001232	6.3e-05
363.13	0.001244	6.3e-05
365.54	0.00155	6.7e-05
365.55	0.001551	6.7e-05
365.56	0.001562	6.7e-05
367.97	0.001927	7e-05
367.97	0.001947	7.1e-05
367.98	0.001941	7.1e-05
370.43	0.002398	7.6e-05
370.44	0.002418	7.6e-05
370.44	0.002409	7.6e-05
372.85	0.00298	8.3e-05
372.89	0.002973	8.3e-05
372.89	0.002978	8.3e-05

System: naphtho[2,3-b]thiophene; phases: Crystal, Liquid, Air at 1 atmosphere
Property: Normal melting temperature, K (Crystal); method: DTA
Normal melting temperature, K	uncertainty
461.7	0.9

System: naphtho[2,3-b]thiophene; phases: Crystal, Liquid, Air at 1 atmosphere
Property: Molar enthalpy of transition or fusion, kJ/mol (Crystal); method: DSC
Molar enthalpy of transition or fusion, kJ/mol	uncertainty
21.29	0.49
