Measured thermophysical data. Viscosity of molten Mo, Ta, Os, Re, and W measured by electrostatic levitation
Source: J. Chem. Thermodyn., 2013, 10.1016/j.jct.2013.05.036
Compound 1: molybdenum, Mo, InChI=1S/Mo, purity 99.95%
Compound 2: tantalum, Ta, InChI=1S/Ta, purity 99.95%
Compound 3: osmium, Os, InChI=1S/Os, purity 99.9%
Compound 4: rhenium, Re, InChI=1S/Re, purity 99.97%
Compound 5: tungsten, W, InChI=1S/W, purity 99.95%

System: molybdenum; phases: Liquid
Fixed: Pressure, kPa = 101.325
Property: Viscosity, Pa*s (Liquid); method: Levitation methods
Temperature, K	Viscosity, Pa*s	uncertainty
2573	0.0067	0.0014
2600	0.0066	0.0014
2650	0.0062	0.0013
2700	0.0059	0.0012
2750	0.0057	0.0012
2800	0.0054	0.0011
2850	0.0052	0.0011
2896	0.005	0.001
2900	0.005	0.001
2950	0.0048	0.001
3000	0.0046	0.0009
3050	0.0045	0.0009
3100	0.0043	0.0009
3150	0.0042	0.0008
3213	0.004	0.0008

System: tantalum; phases: Liquid
Fixed: Pressure, kPa = 101.325
Property: Viscosity, Pa*s (Liquid); method: Levitation methods
Temperature, K	Viscosity, Pa*s	uncertainty
2880	0.0134	0.0027
2900	0.0131	0.0027
2950	0.0124	0.0025
3000	0.0117	0.0024
3050	0.0111	0.0023
3100	0.0106	0.0022
3150	0.0101	0.0021
3200	0.0096	0.002
3250	0.0092	0.0019
3293	0.0089	0.0018
3300	0.0088	0.0018
3350	0.0084	0.0017
3400	0.0081	0.0016
3450	0.0078	0.0016
3500	0.0075	0.0015
3514	0.0074	0.0015

System: osmium; phases: Liquid
Fixed: Pressure, kPa = 101.325
Property: Viscosity, Pa*s (Liquid); method: Levitation methods
Temperature, K	Viscosity, Pa*s	uncertainty
3265	0.0074	0.0015
3290	0.0072	0.0015
3306	0.007	0.0014
3315	0.007	0.0014
3340	0.0067	0.0014
3365	0.0065	0.0014
3390	0.0063	0.0013
3415	0.0061	0.0013
3440	0.006	0.0012
3465	0.0058	0.0012
3490	0.0056	0.0012
3515	0.0055	0.0011
3542	0.0053	0.0011

System: rhenium; phases: Liquid
Fixed: Pressure, kPa = 101.325
Property: Viscosity, Pa*s (Liquid); method: Levitation methods
Temperature, K	Viscosity, Pa*s	uncertainty
3034	0.0149	0.003
3050	0.0146	0.003
3100	0.0139	0.0028
3150	0.0132	0.0027
3200	0.0125	0.0025
3250	0.012	0.0024
3300	0.0114	0.0023
3350	0.0109	0.0022
3400	0.0104	0.0021
3450	0.01	0.002
3459	0.0099	0.002
3500	0.0096	0.0019
3550	0.0092	0.0019
3600	0.0088	0.0018
3650	0.0085	0.0017
3675	0.0084	0.0017

System: tungsten; phases: Liquid
Fixed: Pressure, kPa = 101.325
Property: Viscosity, Pa*s (Liquid); method: Levitation methods
Temperature, K	Viscosity, Pa*s	uncertainty
3155	0.0167	0.0035
3200	0.0157	0.0033
3250	0.0146	0.003
3300	0.0137	0.0028
3350	0.0128	0.0026
3400	0.012	0.0025
3450	0.0113	0.0023
3500	0.0106	0.0022
3550	0.01	0.0021
3600	0.0094	0.0019
3634	0.0091	0.0019
3695	0.0085	0.0017
