Measured thermophysical data. Osmotic coefficients of aqueous solutions of four ionic liquids at T = (313.15 and 333.15) K
Source: J. Chem. Thermodyn., 2008, 10.1016/j.jct.2008.05.011
Compound 1: 1-butyl-3-methylimidazolium chloride, C8H15ClN2, InChI=1S/C8H15N2.ClH/c1-3-4-5-10-7-6-9(2)8-10;/h6-8H,3-5H2,1-2H3;1H/q+1;/p-1
Compound 2: 1-hexyl-3-methylimidazolium chloride, C10H19ClN2, InChI=1S/C10H19N2.ClH/c1-3-4-5-6-7-12-9-8-11(2)10-12;/h8-10H,3-7H2,1-2H3;1H/q+1;/p-1
Compound 3: 1,3-dimethylimidazolium methylsulfate, C6H12N2O4S, InChI=1S/C5H9N2.CH4O4S/c1-6-3-4-7(2)5-6;1-5-6(2,3)4/h3-5H,1-2H3;1H3,(H,2,3,4)/q+1;/p-1
Compound 4: 1-butyl-3-methylimidazolium methyl sulfate, C9H18N2O4S, InChI=1S/C8H15N2.CH4O4S/c1-3-4-5-10-7-6-9(2)8-10;1-5-6(2,3)4/h6-8H,3-5H2,1-2H3;1H3,(H,2,3,4)/q+1;/p-1
Compound 5: water, H2O, InChI=1S/H2O/h1H2, purity 99.9%

System: water + 1-butyl-3-methylimidazolium chloride; phases: Liquid, Gas
Property: Osmotic coefficient (Liquid); method: Knauer K-7000 vapour pressure osmometer (VPO)
Temperature, K	Molality, mol/kg of 1-butyl-3-methylimidazolium chloride	Osmotic coefficient	uncertainty
313.15	0.0566	0.993	0.02
313.15	0.3127	0.956	0.02
313.15	0.6885	0.936	0.02
313.15	1.005	0.917	0.02
313.15	1.2691	0.905	0.02
313.15	1.4271	0.901	0.02
313.15	1.7982	0.898	0.02
313.15	1.997	0.894	0.02
313.15	2.2914	0.893	0.02
313.15	2.6218	0.889	0.02
313.15	2.9465	0.887	0.02
313.15	3.15	0.887	0.02
313.15	3.5307	0.889	0.02
313.15	4.0884	0.894	0.02
333.15	0.0566	0.948	0.02
333.15	0.3127	0.902	0.02
333.15	0.6885	0.862	0.02
333.15	1.005	0.846	0.02
333.15	1.2691	0.824	0.02
333.15	1.4271	0.821	0.02
333.15	1.7982	0.809	0.02
333.15	1.997	0.805	0.02
333.15	2.2914	0.801	0.02
333.15	2.6218	0.802	0.02
333.15	2.9465	0.801	0.02
333.15	3.15	0.8	0.02
333.15	3.5307	0.8	0.02
333.15	4.0884	0.806	0.02

System: water + 1-hexyl-3-methylimidazolium chloride; phases: Liquid, Gas
Property: Osmotic coefficient (Liquid); method: Knauer K-7000 vapour pressure osmometer (VPO)
Temperature, K	Molality, mol/kg of 1-hexyl-3-methylimidazolium chloride	Osmotic coefficient	uncertainty
313.15	0.0932	0.985	0.02
313.15	0.273	0.939	0.02
313.15	0.4844	0.86	0.02
313.15	0.65	0.824	0.02
313.15	1.0049	0.765	0.02
313.15	1.1991	0.737	0.02
313.15	1.3652	0.723	0.02
313.15	1.5875	0.701	0.02
313.15	1.7918	0.689	0.02
313.15	1.929	0.681	0.02
313.15	2.2578	0.667	0.02
313.15	2.624	0.648	0.02
313.15	2.915	0.637	0.02
313.15	3.2198	0.631	0.02
313.15	3.5333	0.628	0.02
313.15	3.9846	0.615	0.02
313.15	4.1289	0.614	0.02
333.15	0.0932	0.96	0.02
333.15	0.273	0.903	0.02
333.15	0.4844	0.831	0.02
333.15	0.65	0.783	0.02
333.15	1.0049	0.732	0.02
333.15	1.1991	0.703	0.02
333.15	1.3652	0.691	0.02
333.15	1.5875	0.659	0.02
333.15	1.7918	0.643	0.02
333.15	1.929	0.642	0.02
333.15	2.2578	0.627	0.02
333.15	2.624	0.612	0.02
333.15	2.915	0.609	0.02
333.15	3.2198	0.603	0.02
333.15	3.5333	0.6	0.02
333.15	3.9846	0.588	0.02
333.15	4.1289	0.593	0.02

System: water + 1,3-dimethylimidazolium methylsulfate; phases: Liquid, Gas
Property: Osmotic coefficient (Liquid); method: Knauer K-7000 vapour pressure osmometer (VPO)
Temperature, K	Molality, mol/kg of 1,3-dimethylimidazolium methylsulfate	Osmotic coefficient	uncertainty
313.15	0.0323	0.994	0.02
313.15	0.0477	0.992	0.02
313.15	0.0958	0.987	0.02
313.15	0.1871	0.966	0.02
313.15	0.3147	0.939	0.02
313.15	0.4227	0.928	0.02
313.15	0.5263	0.919	0.02
313.15	0.7346	0.904	0.02
313.15	0.9792	0.896	0.02
313.15	1.2694	0.883	0.02
313.15	1.6569	0.885	0.02
313.15	2.0878	0.895	0.02
313.15	2.486	0.899	0.02
313.15	2.8974	0.907	0.02
313.15	3.2928	0.911	0.02
333.15	0.0323	0.998	0.02
333.15	0.0477	0.978	0.02
333.15	0.0958	0.964	0.02
333.15	0.1871	0.947	0.02
333.15	0.3147	0.922	0.02
333.15	0.4227	0.91	0.02
333.15	0.5263	0.896	0.02
333.15	0.7346	0.881	0.02
333.15	0.9792	0.87	0.02
333.15	1.2694	0.856	0.02
333.15	1.6569	0.848	0.02
333.15	2.0878	0.851	0.02
333.15	2.486	0.852	0.02
333.15	2.8974	0.86	0.02
333.15	3.2928	0.864	0.02

System: water + 1-butyl-3-methylimidazolium methyl sulfate; phases: Liquid, Gas
Property: Osmotic coefficient (Liquid); method: Knauer K-7000 vapour pressure osmometer (VPO)
Temperature, K	Molality, mol/kg of 1-butyl-3-methylimidazolium methyl sulfate	Osmotic coefficient	uncertainty
313.15	0.0519	0.995	0.02
313.15	0.2039	0.952	0.02
313.15	0.2934	0.915	0.02
313.15	0.4033	0.901	0.02
313.15	0.4947	0.888	0.02
313.15	0.7132	0.852	0.02
313.15	0.9875	0.829	0.02
313.15	1.2867	0.791	0.02
313.15	1.6992	0.767	0.02
313.15	2.1321	0.742	0.02
313.15	2.4949	0.73	0.02
313.15	2.8891	0.73	0.02
313.15	3.2941	0.733	0.02
313.15	3.6976	0.722	0.02
313.15	4.091	0.72	0.02
333.15	0.0519	0.989	0.02
333.15	0.2039	0.93	0.02
333.15	0.2934	0.9	0.02
333.15	0.4033	0.888	0.02
333.15	0.4947	0.873	0.02
333.15	0.7132	0.84	0.02
333.15	0.9875	0.81	0.02
333.15	1.2867	0.786	0.02
333.15	1.6992	0.748	0.02
333.15	2.1321	0.733	0.02
333.15	2.4949	0.716	0.02
333.15	2.8891	0.714	0.02
333.15	3.2941	0.71	0.02
333.15	3.6976	0.694	0.02
333.15	4.091	0.695	0.02
