Measured thermophysical data. Liquid glycerol: Experimental densities at pressures of up to 25 MPa, and some derived thermodynamic properties
Source: J. Chem. Thermodyn., 2016, 10.1016/j.jct.2016.05.006
Compound 1: glycerol, C3H8O3, InChI=1S/C3H8O3/c4-1-3(6)2-5/h3-6H,1-2H2, purity 99.5%

System: glycerol; phases: Liquid
Property: Mass density, kg/m3 (Liquid); method: Vibrating tube method
Temperature, K	Pressure, kPa	Mass density, kg/m3	uncertainty
298.15	100	1258.4	1.7
298.15	5000	1260.7	1.7
298.15	10000	1262.3	1.7
298.15	15000	1263.7	1.8
298.15	20000	1265.2	1.8
298.15	25000	1266.6	1.8
303.15	100	1255.7	1.7
303.15	5000	1257.8	1.7
303.15	10000	1259.3	1.7
303.15	15000	1260.8	1.8
303.15	20000	1262.3	1.8
303.15	25000	1263.7	1.8
308.15	100	1252.9	1.7
308.15	5000	1254.9	1.7
308.15	10000	1256.3	1.7
308.15	15000	1257.9	1.8
308.15	20000	1259.4	1.8
308.15	25000	1260.8	1.8
313.15	100	1250.1	1.7
313.15	5000	1251.8	1.7
313.15	10000	1253.4	1.7
313.15	15000	1254.9	1.8
313.15	20000	1256.4	1.8
313.15	25000	1257.9	1.8

System: glycerol; phases: Liquid
Property: Mass density, kg/m3 (Liquid); method: Vibrating tube method
Temperature, K	Pressure, kPa	Mass density, kg/m3	uncertainty
298.15	100	1259.1	1.7
298.15	5000	1260.6	1.7
298.15	10000	1262.1	1.7
298.15	15000	1263.6	1.8
298.15	20000	1265.1	1.8
298.15	25000	1266.5	1.8
308.15	100	1253	1.7
308.15	5000	1254.6	1.7
308.15	10000	1256.1	1.7
308.15	15000	1257.6	1.8
308.15	20000	1259.1	1.8
308.15	25000	1260.6	1.8
318.15	100	1247	1.7
318.15	5000	1248.5	1.7
318.15	10000	1250.1	1.7
318.15	15000	1251.6	1.8
318.15	20000	1253.2	1.8
318.15	25000	1254.7	1.8
328.15	100	1240.9	1.7
328.15	5000	1242.5	1.7
328.15	10000	1244.1	1.7
328.15	15000	1245.6	1.7
328.15	20000	1247.2	1.8
328.15	25000	1248.8	1.8
338.15	100	1234.8	1.7
338.15	5000	1236.4	1.7
338.15	10000	1238.1	1.7
338.15	15000	1239.6	1.7
338.15	20000	1241.3	1.8
338.15	25000	1242.9	1.8
348.15	100	1228.7	1.7
348.15	5000	1230.4	1.7
348.15	10000	1232.1	1.7
348.15	15000	1233.6	1.7
348.15	20000	1235.3	1.8
348.15	25000	1237.1	1.8
