Measured thermophysical data. Thermodynamic properties of fluoranthene: An experimental  and computational study
Source: J. Chem. Thermodyn., 2012, 10.1016/j.jct.2012.01.025
Compound 1: carbon dioxide, CO2, InChI=1S/CO2/c2-1-3
Compound 2: water, H2O, InChI=1S/H2O/h1H2
Compound 3: oxygen, O2, InChI=1S/O2/c1-2
Compound 4: fluoranthene, C16H10, InChI=1S/C16H10/c1-2-8-13-12(7-1)14-9-3-5-11-6-4-10-15(13)16(11)14/h1-10H, purity 98.95%

System: fluoranthene; phases: Crystal, Liquid, Air at 1 atmosphere
Property: Normal melting temperature, K (Crystal); method: DTA:corrimp
Normal melting temperature, K	uncertainty
382.84	0.4

System: fluoranthene; phases: Crystal, Liquid, Air at 1 atmosphere
Property: Molar enthalpy of transition or fusion, kJ/mol (Crystal); method: DSC
Molar enthalpy of transition or fusion, kJ/mol	uncertainty
19.36	0.53

System: fluoranthene; phases: Crystal, Gas
Property: Molar enthalpy of vaporization or sublimation, kJ/mol (Crystal); method: Drop calorimetry
Temperature, K	Molar enthalpy of vaporization or sublimation, kJ/mol	uncertainty
298.15	96.3	2.8

System: fluoranthene; phases: Crystal, Gas
Property: Vapor or sublimation pressure, kPa (Crystal); method: Closed cell (Static) method
Temperature, K	Vapor or sublimation pressure, kPa	uncertainty
348.83	0.00042	0.00012
351.82	0.00056	0.00012
354.79	0.00076	0.00013
357.77	0.00101	0.00013
360.73	0.0013	0.00013
363.72	0.00171	0.00014
366.68	0.00225	0.00015
369.65	0.00292	0.00017
372.62	0.00379	0.0002
375.59	0.00491	0.00023

System: fluoranthene; phases: Liquid, Gas
Property: Vapor or sublimation pressure, kPa (Liquid); method: Closed cell (Static) method
Temperature, K	Vapor or sublimation pressure, kPa	uncertainty
354.78	0.00117	0.00013
356.76	0.00137	0.00013
360.71	0.00185	0.00014
366.68	0.0029	0.00017
368.53	0.0033	0.00018
370.63	0.00384	0.0002
372.57	0.00438	0.00021
374.61	0.00509	0.00024
378.57	0.0067	0.00029
382.51	0.00865	0.00036
384.49	0.00979	0.0004
386.46	0.01118	0.00046
388.46	0.01265	0.00051
390.43	0.01425	0.00054
392.43	0.0161	0.00057
394.39	0.0181	0.0006
396.38	0.02041	0.00063
398.36	0.02287	0.00067
400.35	0.02578	0.00071
402.34	0.02887	0.00076
404.3	0.03224	0.00081

System: fluoranthene; phases: Gas
Property: Molar enthalpy, kJ/mol (Gas); method: Drop calorimetry
Temperature, K	Pressure, kPa	Molar enthalpy, kJ/mol	uncertainty
390.5	0.001	118.25	2.75

Reaction: -1 fluoranthene + 16 carbon dioxide + 5 water + -18.5 oxygen
Property: Specific internal energy of reaction at constant volume, J/g
-39060.37
