Measured thermophysical data. The additivity of surface and volumetric properties of alpha,omega-dihalogenoalkanes
Source: J. Chem. Thermodyn., 2019, 10.1016/j.jct.2018.12.042
Compound 1: dibromomethane, CH2Br2, InChI=1S/CH2Br2/c2-1-3/h1H2, purity 99%
Compound 2: 1,2-dibromoethane, C2H4Br2, InChI=1S/C2H4Br2/c3-1-2-4/h1-2H2, purity 99%
Compound 3: 1,3-dibromopropane, C3H6Br2, InChI=1S/C3H6Br2/c4-2-1-3-5/h1-3H2, purity 99%
Compound 4: 1,4-dibromobutane, C4H8Br2, InChI=1S/C4H8Br2/c5-3-1-2-4-6/h1-4H2, purity 99%
Compound 5: 1,5-dibromopentane, C5H10Br2, InChI=1S/C5H10Br2/c6-4-2-1-3-5-7/h1-5H2, purity 98%
Compound 6: 1,6-dibromohexane, C6H12Br2, InChI=1S/C6H12Br2/c7-5-3-1-2-4-6-8/h1-6H2, purity 97%
Compound 7: 1,2-dichloroethane, C2H4Cl2, InChI=1S/C2H4Cl2/c3-1-2-4/h1-2H2, purity 99%
Compound 8: 1,3-dichloropropane, C3H6Cl2, InChI=1S/C3H6Cl2/c4-2-1-3-5/h1-3H2, purity 99%
Compound 9: 1,4-dichlorobutane, C4H8Cl2, InChI=1S/C4H8Cl2/c5-3-1-2-4-6/h1-4H2, purity 99.5%
Compound 10: 1,5-dichloropentane, C5H10Cl2, InChI=1S/C5H10Cl2/c6-4-2-1-3-5-7/h1-5H2, purity 99%
Compound 11: 1,6-dichlorohexane, C6H12Cl2, InChI=1S/C6H12Cl2/c7-5-3-1-2-4-6-8/h1-6H2, purity 98%
Compound 12: water, H2O, InChI=1S/H2O/h1H2
Compound 13: pentan-1-ol, C5H12O, InChI=1S/C5H12O/c1-2-3-4-5-6/h6H,2-5H2,1H3
Compound 14: hexan-1-ol, C6H14O, InChI=1S/C6H14O/c1-2-3-4-5-6-7/h7H,2-6H2,1H3

System: dibromomethane; phases: Liquid, Air at 1 atmosphere
Property: Surface tension liquid-gas, N/m (Liquid); method: Pendant drop shape
Temperature, K	Surface tension liquid-gas, N/m	uncertainty
293.15	0.0385	0.0007
298.15	0.03776	0.00069
303.15	0.03709	0.00068
308.15	0.03632	0.00066
313.15	0.03555	0.00065

System: 1,2-dibromoethane; phases: Liquid, Air at 1 atmosphere
Property: Surface tension liquid-gas, N/m (Liquid); method: Pendant drop shape
Temperature, K	Surface tension liquid-gas, N/m	uncertainty
293.15	0.03881	0.0007
298.15	0.03807	0.00069
303.15	0.03748	0.00068
308.15	0.03675	0.00067
313.15	0.0361	0.00066

System: 1,3-dibromopropane; phases: Liquid, Air at 1 atmosphere
Property: Surface tension liquid-gas, N/m (Liquid); method: Pendant drop shape
Temperature, K	Surface tension liquid-gas, N/m	uncertainty
293.15	0.03966	0.00072
298.15	0.03895	0.00071
303.15	0.03833	0.0007
308.15	0.0376	0.00068
313.15	0.03712	0.00068

System: 1,4-dibromobutane; phases: Liquid, Air at 1 atmosphere
Property: Surface tension liquid-gas, N/m (Liquid); method: Pendant drop shape
Temperature, K	Surface tension liquid-gas, N/m	uncertainty
293.15	0.03991	0.00072
298.15	0.03946	0.00072
303.15	0.03892	0.00071
308.15	0.03829	0.0007
313.15	0.03767	0.00068

System: 1,5-dibromopentane; phases: Liquid, Air at 1 atmosphere
Property: Surface tension liquid-gas, N/m (Liquid); method: Pendant drop shape
Temperature, K	Surface tension liquid-gas, N/m	uncertainty
293.15	0.03937	0.00071
298.15	0.03865	0.0007
303.15	0.03816	0.00069
308.15	0.0376	0.00068
313.15	0.03723	0.00068

System: 1,6-dibromohexane; phases: Liquid, Air at 1 atmosphere
Property: Surface tension liquid-gas, N/m (Liquid); method: Pendant drop shape
Temperature, K	Surface tension liquid-gas, N/m	uncertainty
293.15	0.03892	0.00071
298.15	0.03836	0.0007
303.15	0.03778	0.00069
308.15	0.03721	0.00068
313.15	0.03663	0.00067

System: 1,2-dichloroethane; phases: Liquid, Air at 1 atmosphere
Property: Surface tension liquid-gas, N/m (Liquid); method: Pendant drop shape
Temperature, K	Surface tension liquid-gas, N/m	uncertainty
293.15	0.028	0.00052
298.15	0.02757	0.00051
303.15	0.02706	0.0005
308.15	0.02654	0.00049
313.15	0.02602	0.00048

System: 1,3-dichloropropane; phases: Liquid, Air at 1 atmosphere
Property: Surface tension liquid-gas, N/m (Liquid); method: Pendant drop shape
Temperature, K	Surface tension liquid-gas, N/m	uncertainty
293.15	0.03122	0.00057
298.15	0.03077	0.00057
303.15	0.0302	0.00056
308.15	0.02936	0.00054
313.15	0.0287	0.00053

System: 1,3-dichloropropane; phases: Liquid
Fixed: Pressure, kPa = 101.325
Property: Mass density, kg/m3 (Liquid); method: Vibrating tube method
Temperature, K	Mass density, kg/m3	uncertainty
288.15	1189.09	1.06
293.15	1184.88	1.06
298.15	1178.97	1.06
303.15	1173.1	1.06
308.15	1167.26	1.05
313.15	1161.46	1.05
318.15	1154.88	1.05
328.15	1142.62	1.05

System: 1,4-dichlorobutane; phases: Liquid, Air at 1 atmosphere
Property: Surface tension liquid-gas, N/m (Liquid); method: Pendant drop shape
Temperature, K	Surface tension liquid-gas, N/m	uncertainty
293.15	0.03373	0.00062
298.15	0.03315	0.00061
303.15	0.03255	0.0006
308.15	0.0321	0.00059
313.15	0.03159	0.00058

System: 1,5-dichloropentane; phases: Liquid, Air at 1 atmosphere
Property: Surface tension liquid-gas, N/m (Liquid); method: Pendant drop shape
Temperature, K	Surface tension liquid-gas, N/m	uncertainty
293.15	0.03502	0.00064
298.15	0.03443	0.00063
303.15	0.03385	0.00062
308.15	0.03322	0.00061
313.15	0.03278	0.0006

System: 1,5-dichloropentane; phases: Liquid
Fixed: Pressure, kPa = 101.325
Property: Mass density, kg/m3 (Liquid); method: Vibrating tube method
Temperature, K	Mass density, kg/m3	uncertainty
288.15	1103.31	1.04
293.15	1100.06	1.04
298.15	1095.01	1.04
303.15	1089.95	1.04
308.15	1084.89	1.04
313.15	1079.84	1.04
318.15	1074.67	1.03
328.15	1064.63	1.03

System: 1,6-dichlorohexane; phases: Liquid, Air at 1 atmosphere
Property: Surface tension liquid-gas, N/m (Liquid); method: Pendant drop shape
Temperature, K	Surface tension liquid-gas, N/m	uncertainty
293.15	0.035	0.00071
298.15	0.03431	0.00069
303.15	0.03373	0.00068
308.15	0.03309	0.00067
313.15	0.0327	0.00066

System: water; phases: Liquid, Air at 1 atmosphere
Property: Surface tension liquid-gas, N/m (Liquid); method: Pendant drop shape
Temperature, K	Surface tension liquid-gas, N/m	uncertainty
288.15	0.07343	0.00125
293.15	0.07284	0.00124
298.15	0.07214	0.00123

System: pentan-1-ol; phases: Liquid, Air at 1 atmosphere
Property: Surface tension liquid-gas, N/m (Liquid); method: Pendant drop shape
Temperature, K	Surface tension liquid-gas, N/m	uncertainty
293.15	0.02517	0.00047
298.15	0.02485	0.00046
303.15	0.0244	0.0005
308.15	0.02396	0.00045
313.15	0.02362	0.00044
318.15	0.02328	0.00044

System: pentan-1-ol; phases: Liquid
Property: Mass density, kg/m3 (Liquid); method: Vibrating tube method
Temperature, K	Pressure, kPa	Mass density, kg/m3	uncertainty
298.15	101.325	810.84	1.02

System: hexan-1-ol; phases: Liquid, Air at 1 atmosphere
Property: Surface tension liquid-gas, N/m (Liquid); method: Pendant drop shape
Temperature, K	Surface tension liquid-gas, N/m	uncertainty
288.15	0.02634	0.00049
293.15	0.02606	0.00048
298.15	0.02571	0.00048
303.15	0.02534	0.00047
308.15	0.0249	0.0005
313.15	0.02452	0.00046
318.15	0.02412	0.00045

System: hexan-1-ol; phases: Liquid
Property: Mass density, kg/m3 (Liquid); method: Vibrating tube method
Temperature, K	Pressure, kPa	Mass density, kg/m3	uncertainty
298.15	101.325	815.18	1.02
