Measured thermophysical data. Measurement and correlation of solubility of trans-resveratrol in 11 solvents at T = (278.2, 288.2, 298.2, 308.2, and 318.2) K
Source: J. Chem. Thermodyn., 2008, 10.1016/j.jct.2007.10.006
Compound 1: 5-[(1E)-2-(4-hydroxyphenyl)-ethenyl]-1,3-benzenediol, C14H12O3, InChI=1S/C14H12O3/c15-12-5-3-10(4-6-12)1-2-11-7-13(16)9-14(17)8-11/h1-9,15-17H/b2-1+, purity 98%
Compound 2: methanol, CH4O, InChI=1S/CH4O/c1-2/h2H,1H3
Compound 3: ethanol, C2H6O, InChI=1S/C2H6O/c1-2-3/h3H,2H2,1H3
Compound 4: propan-1-ol, C3H8O, InChI=1S/C3H8O/c1-2-3-4/h4H,2-3H2,1H3
Compound 5: propan-2-ol, C3H8O, InChI=1S/C3H8O/c1-3(2)4/h3-4H,1-2H3
Compound 6: butan-1-ol, C4H10O, InChI=1S/C4H10O/c1-2-3-4-5/h5H,2-4H2,1H3
Compound 7: pentan-1-ol, C5H12O, InChI=1S/C5H12O/c1-2-3-4-5-6/h6H,2-5H2,1H3
Compound 8: hexan-1-ol, C6H14O, InChI=1S/C6H14O/c1-2-3-4-5-6-7/h7H,2-6H2,1H3
Compound 9: ethyl acetate, C4H8O2, InChI=1S/C4H8O2/c1-3-6-4(2)5/h3H2,1-2H3
Compound 10: tetrahydrofuran, C4H8O, InChI=1S/C4H8O/c1-2-4-5-3-1/h1-4H2
Compound 11: acetone, C3H6O, InChI=1S/C3H6O/c1-3(2)4/h1-2H3
Compound 12: water, H2O, InChI=1S/H2O/h1H2

System: 5-[(1E)-2-(4-hydroxyphenyl)-ethenyl]-1,3-benzenediol; phases: Crystal, Liquid, Air at 1 atmosphere
Property: Normal melting temperature, K (Crystal); method: thermal analyzer
Normal melting temperature, K	uncertainty
541.3	1

System: methanol + 5-[(1E)-2-(4-hydroxyphenyl)-ethenyl]-1,3-benzenediol; phases: Liquid, Crystal
Fixed: Pressure, kPa = 101
Property: Mole fraction of 5-[(1E)-2-(4-hydroxyphenyl)-ethenyl]-1,3-benzenediol (Liquid); method: Chromatography
Temperature, K	Mole fraction of 5-[(1E)-2-(4-hydroxyphenyl)-ethenyl]-1,3-benzenediol	uncertainty
278.2	0.0108	0.0014
288.2	0.012	0.0005
298.2	0.0135	0.001
308.2	0.0151	0.001
318.2	0.0166	0.0008

System: ethanol + 5-[(1E)-2-(4-hydroxyphenyl)-ethenyl]-1,3-benzenediol; phases: Liquid, Crystal
Fixed: Pressure, kPa = 101
Property: Mole fraction of 5-[(1E)-2-(4-hydroxyphenyl)-ethenyl]-1,3-benzenediol (Liquid); method: Chromatography
Temperature, K	Mole fraction of 5-[(1E)-2-(4-hydroxyphenyl)-ethenyl]-1,3-benzenediol	uncertainty
278.2	0.0117	0.0042
288.2	0.0139	0.0007
298.2	0.0169	0.0017
308.2	0.0198	0.0003
318.2	0.0223	0.001

System: propan-1-ol + 5-[(1E)-2-(4-hydroxyphenyl)-ethenyl]-1,3-benzenediol; phases: Liquid, Crystal
Fixed: Pressure, kPa = 101
Property: Mole fraction of 5-[(1E)-2-(4-hydroxyphenyl)-ethenyl]-1,3-benzenediol (Liquid); method: Chromatography
Temperature, K	Mole fraction of 5-[(1E)-2-(4-hydroxyphenyl)-ethenyl]-1,3-benzenediol	uncertainty
278.2	0.0068	0.0009
288.2	0.0088	0.0007
298.2	0.0113	0.0009
308.2	0.0128	0.0007
318.2	0.0153	0.0005

System: propan-2-ol + 5-[(1E)-2-(4-hydroxyphenyl)-ethenyl]-1,3-benzenediol; phases: Liquid, Crystal
Fixed: Pressure, kPa = 101
Property: Mole fraction of 5-[(1E)-2-(4-hydroxyphenyl)-ethenyl]-1,3-benzenediol (Liquid); method: Chromatography
Temperature, K	Mole fraction of 5-[(1E)-2-(4-hydroxyphenyl)-ethenyl]-1,3-benzenediol	uncertainty
278.2	0.0053	0.0007
288.2	0.0062	0.0007
298.2	0.009	0.0021
308.2	0.011	0.0012
318.2	0.0138	0.0007

System: butan-1-ol + 5-[(1E)-2-(4-hydroxyphenyl)-ethenyl]-1,3-benzenediol; phases: Liquid, Crystal
Fixed: Pressure, kPa = 101
Property: Mole fraction of 5-[(1E)-2-(4-hydroxyphenyl)-ethenyl]-1,3-benzenediol (Liquid); method: Chromatography
Temperature, K	Mole fraction of 5-[(1E)-2-(4-hydroxyphenyl)-ethenyl]-1,3-benzenediol	uncertainty
278.2	0.0041	0.0007
288.2	0.0058	0.0007
298.2	0.0083	0.0016
308.2	0.0103	0.0005
318.2	0.0122	0.0019

System: pentan-1-ol + 5-[(1E)-2-(4-hydroxyphenyl)-ethenyl]-1,3-benzenediol; phases: Liquid, Crystal
Fixed: Pressure, kPa = 101
Property: Mole fraction of 5-[(1E)-2-(4-hydroxyphenyl)-ethenyl]-1,3-benzenediol (Liquid); method: Chromatography
Temperature, K	Mole fraction of 5-[(1E)-2-(4-hydroxyphenyl)-ethenyl]-1,3-benzenediol	uncertainty
278.2	0.004	0.0005
288.2	0.0055	0.0009
298.2	0.0093	0.0019
308.2	0.0109	0.0005
318.2	0.0143	0.0014

System: hexan-1-ol + 5-[(1E)-2-(4-hydroxyphenyl)-ethenyl]-1,3-benzenediol; phases: Liquid, Crystal
Fixed: Pressure, kPa = 101
Property: Mole fraction of 5-[(1E)-2-(4-hydroxyphenyl)-ethenyl]-1,3-benzenediol (Liquid); method: Chromatography
Temperature, K	Mole fraction of 5-[(1E)-2-(4-hydroxyphenyl)-ethenyl]-1,3-benzenediol	uncertainty
278.2	0.004	0.0007
288.2	0.0052	0.0007
298.2	0.0075	0.0021
308.2	0.0087	0.0002
318.2	0.0108	0.0009

System: ethyl acetate + 5-[(1E)-2-(4-hydroxyphenyl)-ethenyl]-1,3-benzenediol; phases: Liquid, Crystal
Fixed: Pressure, kPa = 101
Property: Mole fraction of 5-[(1E)-2-(4-hydroxyphenyl)-ethenyl]-1,3-benzenediol (Liquid); method: Chromatography
Temperature, K	Mole fraction of 5-[(1E)-2-(4-hydroxyphenyl)-ethenyl]-1,3-benzenediol	uncertainty
278.2	0.0062	0.0007
288.2	0.0106	0.0007
298.2	0.0164	0.0045
308.2	0.0214	0.0017
318.2	0.0254	0.0019

System: tetrahydrofuran + 5-[(1E)-2-(4-hydroxyphenyl)-ethenyl]-1,3-benzenediol; phases: Liquid, Crystal
Fixed: Pressure, kPa = 101
Property: Mole fraction of 5-[(1E)-2-(4-hydroxyphenyl)-ethenyl]-1,3-benzenediol (Liquid); method: Chromatography
Temperature, K	Mole fraction of 5-[(1E)-2-(4-hydroxyphenyl)-ethenyl]-1,3-benzenediol	uncertainty
278.2	0.1045	0.0038
288.2	0.1062	0.0076
298.2	0.1086	0.0029
308.2	0.1115	0.0092
318.2	0.1139	0.0036

System: acetone + 5-[(1E)-2-(4-hydroxyphenyl)-ethenyl]-1,3-benzenediol; phases: Liquid, Crystal
Fixed: Pressure, kPa = 101
Property: Mole fraction of 5-[(1E)-2-(4-hydroxyphenyl)-ethenyl]-1,3-benzenediol (Liquid); method: Chromatography
Temperature, K	Mole fraction of 5-[(1E)-2-(4-hydroxyphenyl)-ethenyl]-1,3-benzenediol	uncertainty
278.2	0.0849	0.0032
288.2	0.0859	0.0071
298.2	0.0866	0.0083
308.2	0.0874	0.0041
318.2	0.0886	0.0073

System: 5-[(1E)-2-(4-hydroxyphenyl)-ethenyl]-1,3-benzenediol + water; phases: Liquid, Crystal
Fixed: Pressure, kPa = 101
Property: Mole fraction of 5-[(1E)-2-(4-hydroxyphenyl)-ethenyl]-1,3-benzenediol (Liquid); method: Chromatography
Temperature, K	Mole fraction of 5-[(1E)-2-(4-hydroxyphenyl)-ethenyl]-1,3-benzenediol	uncertainty
278.2	8.2e-05	8e-06
288.2	0.000151	8e-06
298.2	0.000306	1.3e-05
308.2	0.000538	2.4e-05
318.2	0.00075	2.8e-05
