Measured thermophysical data. Vapor pressure data for ethyl-2-methylbutyrate, hexanal and (E)-2-hexenal at a pressure range of (25 to 190) kPa
Source: J. Chem. Thermodyn., 2014, 10.1016/j.jct.2014.03.006
Compound 1: ethyl 2-methylbutanoate, C7H14O2, InChI=1S/C7H14O2/c1-4-6(3)7(8)9-5-2/h6H,4-5H2,1-3H3
Compound 2: hexanal, C6H12O, InChI=1S/C6H12O/c1-2-3-4-5-6-7/h6H,2-5H2,1H3
Compound 3: (E)-2-hexenal, C6H10O, InChI=1S/C6H10O/c1-2-3-4-5-6-7/h4-6H,2-3H2,1H3/b5-4+

System: ethyl 2-methylbutanoate; phases: Liquid, Gas
Property: Boiling temperature at pressure P, K (Liquid); method: Ebulliometric method (Recirculating still)
Pressure, kPa	Boiling temperature at pressure P, K	uncertainty
24.5	362.1	0.2
34	371.2	0.3
43.5	378.3	0.3
53	384.2	0.3
62.5	389.5	0.3
72	394	0.3
81.5	397.9	0.3
91	401.8	0.3
101.3	405.6	0.3
110	408.7	0.3
119.5	411.7	0.3
129	414.5	0.3
138.5	417.3	0.3
148	420.1	0.3
157.5	422.5	0.3
167	424.8	0.3
176.5	427	0.3
186	429.1	0.3
190	429.9	0.3

System: hexanal; phases: Liquid, Gas
Property: Boiling temperature at pressure P, K (Liquid); method: Ebulliometric method (Recirculating still)
Pressure, kPa	Boiling temperature at pressure P, K	uncertainty
24.5	358.1	0.3
34	367.3	0.3
43.5	374.2	0.3
53	380	0.3
62.5	385.3	0.3
72	389.9	0.3
81.5	394	0.3
91	397.8	0.3
101.3	401.9	0.3
110	404.9	0.3
119.5	407.9	0.3
129	410.6	0.3
138.5	413.4	0.3
148	416	0.3
157.5	418.6	0.3
167	420.8	0.3
176.5	422.8	0.3
186	424.9	0.3
190	425.8	0.3

System: (E)-2-hexenal; phases: Liquid, Gas
Property: Boiling temperature at pressure P, K (Liquid); method: Ebulliometric method (Recirculating still)
Pressure, kPa	Boiling temperature at pressure P, K	uncertainty
24.5	373.5	0.3
34	383	0.3
43.5	390.4	0.3
53	396.9	0.3
62.5	402.6	0.3
72	407.7	0.3
81.5	412	0.3
91	416.1	0.4
101.3	420.7	0.4
110	423.8	0.4
119.5	427.1	0.4
129	430.3	0.4
138.5	433.1	0.4
148	435.9	0.4
157.5	438.4	0.4
167	441	0.4
176.5	443.4	0.4
186	445.4	0.4
190	446.2	0.4
