Measured thermophysical data. Solvation behavior of some amino acids in aqueous solutions of non-steroidal anti-inflammatory drug sodium ibuprofen at different temperatures analysed by volumetric and acoustic methods
Source: J. Chem. Thermodyn., 2016, 10.1016/j.jct.2016.03.016
Compound 1: water, H2O, InChI=1S/H2O/h1H2
Compound 2: 2-aminoacetic acid, C2H5NO2, InChI=1S/C2H5NO2/c3-1-2(4)5/h1,3H2,(H,4,5), purity 99%
Compound 3: (S)-2-aminopropanoic acid, C3H7NO2, InChI=1S/C3H7NO2/c1-2(4)3(5)6/h2H,4H2,1H3,(H,5,6)/t2-/m0/s1, purity 99%
Compound 4: L-valine, C5H11NO2, InChI=1S/C5H11NO2/c1-3(2)4(6)5(7)8/h3-4H,6H2,1-2H3,(H,7,8)/t4-/m0/s1, purity 99%
Compound 5: sodium ibuprofen, C13H17NaO2, InChI=1S/C13H18O2.Na/c1-9(2)8-11-4-6-12(7-5-11)10(3)13(14)15;/h4-7,9-10H,8H2,1-3H3,(H,14,15);/q;+1/p-1, purity 98%

System: 2-aminoacetic acid + water + sodium ibuprofen; phases: Liquid
Fixed: Pressure, kPa = 100
Property: Mass density, kg/m3 (Liquid); method: Vibrating tube method
Solvent: Molality, mol/kg of sodium ibuprofen	Molality, mol/kg of 2-aminoacetic acid	Temperature, K	Mass density, kg/m3	uncertainty
0.05	0	288.15	1003.198	2.015
0.05	0.02012	288.15	1003.86	2.014
0.05	0.05836	288.15	1005.098	2.015
0.05	0.10006	288.15	1006.41	2.02
0.05	0.14017	288.15	1007.64	2.017
0.05	0.17033	288.15	1008.546	2.017
0.05	0.19993	288.15	1009.412	2.018
0.05	0	293.15	1002.242	2.015
0.05	0.02012	293.15	1002.897	2.014
0.05	0.05836	293.15	1004.12	2.015
0.05	0.10006	293.15	1005.418	2.015
0.05	0.14017	293.15	1006.642	2.016
0.05	0.17033	293.15	1007.535	2.017
0.05	0.19993	293.15	1008.401	2.017
0.05	0	298.15	1001.034	2.014
0.05	0.02012	298.15	1001.682	2.014
0.05	0.05836	298.15	1002.888	2.015
0.05	0.10006	298.15	1004.171	2.015
0.05	0.14017	298.15	1005.342	2.016
0.05	0.17033	298.15	1006.215	2.017
0.05	0.19993	298.15	1007.05	2.017
0.05	0	303.15	999.585	2.014
0.05	0.02012	303.15	1000.227	2.014
0.05	0.05836	303.15	1001.423	2.014
0.05	0.10006	303.15	1002.694	2.015
0.05	0.14017	303.15	1003.856	2.016
0.05	0.17033	303.15	1004.719	2.017
0.05	0.19993	303.15	1005.546	2.017
0.05	0	308.15	997.921	2.014
0.05	0.02012	308.15	998.558	2.014
0.05	0.05836	308.15	999.746	2.014
0.05	0.10006	308.15	1001.007	2.015
0.05	0.14017	308.15	1002.162	2.016
0.05	0.17033	308.15	1003.036	2.017
0.05	0.19993	308.15	1003.858	2.017
0.15	0	288.15	1007.463	2.018
0.15	0.02004	288.15	1008.11	2.018
0.15	0.05982	288.15	1009.387	2.018
0.15	0.10005	288.15	1010.667	2.019
0.15	0.14001	288.15	1011.933	2.02
0.15	0.16989	288.15	1012.858	2.021
0.15	0.20015	288.15	1013.788	2.02
0.15	0	293.15	1006.392	2.018
0.15	0.02004	293.15	1007.03	2.017
0.15	0.05982	293.15	1008.289	2.018
0.15	0.10005	293.15	1009.555	2.018
0.15	0.14001	293.15	1010.805	2.019
0.15	0.16989	293.15	1011.72	2.02
0.15	0.20015	293.15	1012.641	2.02
0.15	0	298.15	1005.07	2.017
0.15	0.02004	298.15	1005.702	2.017
0.15	0.05982	298.15	1006.95	2.017
0.15	0.10005	298.15	1008.2	2.018
0.15	0.14001	298.15	1009.438	2.019
0.15	0.16989	298.15	1010.342	2.02
0.15	0.20015	298.15	1011.253	2.02
0.15	0	303.15	1003.521	2.017
0.15	0.02004	303.15	1004.149	2.017
0.15	0.05982	303.15	1005.386	2.017
0.15	0.10005	303.15	1006.624	2.018
0.15	0.14001	303.15	1007.851	2.019
0.15	0.16989	303.15	1008.749	2.02
0.15	0.20015	303.15	1009.649	2.019
0.15	0	308.15	1001.766	2.017
0.15	0.02004	308.15	1002.389	2.016
0.15	0.05982	308.15	1003.617	2.017
0.15	0.10005	308.15	1004.846	2.018
0.15	0.14001	308.15	1006.064	2.018
0.15	0.16989	308.15	1006.955	2.019
0.15	0.20015	308.15	1007.841	2.018
0.25	0	288.15	1010.795	2.024
0.25	0.01995	288.15	1011.433	2.024
0.25	0.05996	288.15	1012.706	2.024
0.25	0.10009	288.15	1013.975	2.025
0.25	0.13734	288.15	1015.141	2.026
0.25	0.16963	288.15	1016.15	2.027
0.25	0.198	288.15	1017.029	2.031
0.25	0	293.15	1009.602	2.023
0.25	0.01995	293.15	1010.23	2.023
0.25	0.05996	293.15	1011.484	2.023
0.25	0.10009	293.15	1012.735	2.024
0.25	0.13734	293.15	1013.888	2.025
0.25	0.16963	293.15	1014.885	2.026
0.25	0.198	293.15	1015.752	2.029
0.25	0	298.15	1008.17	2.023
0.25	0.01995	298.15	1008.791	2.022
0.25	0.05996	298.15	1010.031	2.023
0.25	0.10009	298.15	1011.268	2.023
0.25	0.13734	298.15	1012.409	2.024
0.25	0.16963	298.15	1013.394	2.025
0.25	0.198	298.15	1014.255	2.028
0.25	0	303.15	1006.527	2.022
0.25	0.01995	303.15	1007.142	2.022
0.25	0.05996	303.15	1008.369	2.022
0.25	0.10009	303.15	1009.594	2.023
0.25	0.13734	303.15	1010.728	2.024
0.25	0.16963	303.15	1011.705	2.025
0.25	0.198	303.15	1012.56	2.027
0.25	0	308.15	1004.692	2.021
0.25	0.01995	308.15	1005.302	2.021
0.25	0.05996	308.15	1006.52	2.022
0.25	0.10009	308.15	1007.736	2.022
0.25	0.13734	308.15	1008.861	2.023
0.25	0.16963	308.15	1009.831	2.024
0.25	0.198	308.15	1010.682	2.028
0.35	0	288.15	1015.166	2.038
0.35	0.02	288.15	1015.767	2.038
0.35	0.06009	288.15	1016.978	2.038
0.35	0.1001	288.15	1018.202	2.038
0.35	0.13961	288.15	1019.426	2.039
0.35	0.17019	288.15	1020.399	2.04
0.35	0.2001	288.15	1021.343	2.041
0.35	0	293.15	1013.834	2.036
0.35	0.02	293.15	1014.428	2.036
0.35	0.06009	293.15	1015.626	2.036
0.35	0.1001	293.15	1016.836	2.036
0.35	0.13961	293.15	1018.046	2.037
0.35	0.17019	293.15	1019.009	2.038
0.35	0.2001	293.15	1019.937	2.039
0.35	0	298.15	1012.288	2.035
0.35	0.02	298.15	1012.875	2.035
0.35	0.06009	298.15	1014.059	2.034
0.35	0.1001	298.15	1015.26	2.035
0.35	0.13961	298.15	1016.459	2.036
0.35	0.17019	298.15	1017.411	2.037
0.35	0.2001	298.15	1018.332	2.037
0.35	0	303.15	1010.547	2.034
0.35	0.02	303.15	1011.128	2.034
0.35	0.06009	303.15	1012.303	2.033
0.35	0.1001	303.15	1013.492	2.034
0.35	0.13961	303.15	1014.68	2.035
0.35	0.17019	303.15	1015.627	2.036
0.35	0.2001	303.15	1016.542	2.036
0.35	0	308.15	1008.623	2.033
0.35	0.02	308.15	1009.201	2.033
0.35	0.06009	308.15	1010.367	2.033
0.35	0.1001	308.15	1011.539	2.033
0.35	0.13961	308.15	1012.71	2.034
0.35	0.17019	308.15	1013.619	2.035
0.35	0.2001	308.15	1014.518	2.036

System: 2-aminoacetic acid + water + sodium ibuprofen; phases: Liquid
Fixed: Pressure, kPa = 100
Fixed: Frequency, MHz = 3
Property: Speed of sound, m/s (Liquid); method: Sing-around technique in a fixed-path interferometer
Solvent: Molality, mol/kg of sodium ibuprofen	Molality, mol/kg of 2-aminoacetic acid	Temperature, K	Speed of sound, m/s	uncertainty
0.05	0	288.15	1477.46	2.37
0.05	0.02012	288.15	1478.52	2.37
0.05	0.05836	288.15	1480.51	2.37
0.05	0.10006	288.15	1482.76	2.38
0.05	0.14017	288.15	1484.81	2.38
0.05	0.17033	288.15	1486.59	2.38
0.05	0.19993	288.15	1488.2	2.38
0.05	0	293.15	1492.76	2.37
0.05	0.02012	293.15	1493.77	2.37
0.05	0.05836	293.15	1495.54	2.37
0.05	0.10006	293.15	1497.71	2.38
0.05	0.14017	293.15	1499.7	2.38
0.05	0.17033	293.15	1501.43	2.38
0.05	0.19993	293.15	1503.01	2.38
0.05	0	298.15	1506.03	2.37
0.05	0.02012	298.15	1507.02	2.37
0.05	0.05836	298.15	1508.98	2.37
0.05	0.10006	298.15	1511.08	2.38
0.05	0.14017	298.15	1513.01	2.38
0.05	0.17033	298.15	1514.69	2.38
0.05	0.19993	298.15	1516.22	2.38
0.05	0	303.15	1517.74	2.37
0.05	0.02012	303.15	1518.73	2.37
0.05	0.05836	303.15	1520.65	2.37
0.05	0.10006	303.15	1522.69	2.38
0.05	0.14017	303.15	1524.56	2.38
0.05	0.17033	303.15	1526.19	2.38
0.05	0.19993	303.15	1527.67	2.38
0.05	0	308.15	1527.81	2.37
0.05	0.02012	308.15	1528.74	2.37
0.05	0.05836	308.15	1530.64	2.37
0.05	0.10006	308.15	1532.63	2.38
0.05	0.14017	308.15	1534.45	2.38
0.05	0.17033	308.15	1536.04	2.38
0.05	0.19993	308.15	1537.49	2.38
0.15	0	288.15	1496.93	2.42
0.15	0.02004	288.15	1497.97	2.42
0.15	0.05982	288.15	1500.1	2.42
0.15	0.10005	288.15	1502.27	2.42
0.15	0.14001	288.15	1504.45	2.42
0.15	0.16989	288.15	1505.95	2.42
0.15	0.20015	288.15	1507.5	2.42
0.15	0	293.15	1510.68	2.41
0.15	0.02004	293.15	1511.71	2.41
0.15	0.05982	293.15	1513.74	2.41
0.15	0.10005	293.15	1515.87	2.41
0.15	0.14001	293.15	1517.94	2.41
0.15	0.16989	293.15	1519.39	2.41
0.15	0.20015	293.15	1520.9	2.41
0.15	0	298.15	1522.9	2.4
0.15	0.02004	298.15	1523.89	2.4
0.15	0.05982	298.15	1525.84	2.4
0.15	0.10005	298.15	1527.9	2.4
0.15	0.14001	298.15	1529.91	2.4
0.15	0.16989	298.15	1531.31	2.41
0.15	0.20015	298.15	1532.77	2.4
0.15	0	303.15	1533.42	2.4
0.15	0.02004	303.15	1534.38	2.4
0.15	0.05982	303.15	1536.27	2.4
0.15	0.10005	303.15	1538.28	2.4
0.15	0.14001	303.15	1540.21	2.4
0.15	0.16989	303.15	1541.58	2.4
0.15	0.20015	303.15	1543	2.4
0.15	0	308.15	1542.39	2.39
0.15	0.02004	308.15	1543.28	2.39
0.15	0.05982	308.15	1545.12	2.39
0.15	0.10005	308.15	1547.06	2.39
0.15	0.14001	308.15	1548.92	2.4
0.15	0.16989	308.15	1550.24	2.4
0.15	0.20015	308.15	1551.76	2.4
0.25	0	288.15	1510.19	2.43
0.25	0.01995	288.15	1510.99	2.42
0.25	0.05996	288.15	1512.65	2.42
0.25	0.10009	288.15	1514.53	2.42
0.25	0.13734	288.15	1516.26	2.42
0.25	0.16963	288.15	1517.67	2.42
0.25	0.198	288.15	1518.99	2.41
0.25	0	293.15	1522.34	2.41
0.25	0.01995	293.15	1523.11	2.41
0.25	0.05996	293.15	1524.66	2.41
0.25	0.10009	293.15	1526.49	2.41
0.25	0.13734	293.15	1528.09	2.41
0.25	0.16963	293.15	1529.5	2.41
0.25	0.198	293.15	1530.77	2.4
0.25	0	298.15	1533.13	2.4
0.25	0.01995	298.15	1533.86	2.4
0.25	0.05996	298.15	1535.35	2.4
0.25	0.10009	298.15	1537.1	2.4
0.25	0.13734	298.15	1538.67	2.4
0.25	0.16963	298.15	1540.02	2.4
0.25	0.198	298.15	1541.25	2.4
0.25	0	303.15	1542.44	2.4
0.25	0.01995	303.15	1543.13	2.4
0.25	0.05996	303.15	1544.58	2.39
0.25	0.10009	303.15	1546.27	2.39
0.25	0.13734	303.15	1547.78	2.39
0.25	0.16963	303.15	1549.1	2.39
0.25	0.198	303.15	1550.29	2.39
0.25	0	308.15	1550.3	2.39
0.25	0.01995	308.15	1550.95	2.39
0.25	0.05996	308.15	1552.37	2.39
0.25	0.10009	308.15	1554	2.39
0.25	0.13734	308.15	1555.47	2.39
0.25	0.16963	308.15	1556.76	2.39
0.25	0.198	308.15	1557.93	2.39
0.35	0	288.15	1518.1	2.43
0.35	0.02	288.15	1518.73	2.43
0.35	0.06009	288.15	1520.36	2.43
0.35	0.1001	288.15	1521.91	2.43
0.35	0.13961	288.15	1523.63	2.43
0.35	0.17019	288.15	1524.94	2.43
0.35	0.2001	288.15	1526.09	2.42
0.35	0	293.15	1529.12	2.41
0.35	0.02	293.15	1529.71	2.41
0.35	0.06009	293.15	1531.31	2.41
0.35	0.1001	293.15	1532.83	2.41
0.35	0.13961	293.15	1534.51	2.41
0.35	0.17019	293.15	1535.81	2.41
0.35	0.2001	293.15	1536.92	2.41
0.35	0	298.15	1538.94	2.4
0.35	0.02	298.15	1539.52	2.4
0.35	0.06009	298.15	1541.09	2.4
0.35	0.1001	298.15	1542.56	2.4
0.35	0.13961	298.15	1544.2	2.4
0.35	0.17019	298.15	1545.48	2.4
0.35	0.2001	298.15	1546.57	2.4
0.35	0	303.15	1547.39	2.39
0.35	0.02	303.15	1547.95	2.39
0.35	0.06009	303.15	1549.46	2.39
0.35	0.1001	303.15	1550.9	2.39
0.35	0.13961	303.15	1552.48	2.39
0.35	0.17019	303.15	1553.73	2.39
0.35	0.2001	303.15	1554.81	2.39
0.35	0	308.15	1554.49	2.39
0.35	0.02	308.15	1555	2.39
0.35	0.06009	308.15	1556.48	2.39
0.35	0.1001	308.15	1557.89	2.39
0.35	0.13961	308.15	1559.43	2.39
0.35	0.17019	308.15	1560.65	2.39
0.35	0.2001	308.15	1561.72	2.39

System: (S)-2-aminopropanoic acid + water + sodium ibuprofen; phases: Liquid
Fixed: Pressure, kPa = 100
Property: Mass density, kg/m3 (Liquid); method: Vibrating tube method
Solvent: Molality, mol/kg of sodium ibuprofen	Molality, mol/kg of (S)-2-aminopropanoic acid	Temperature, K	Mass density, kg/m3	uncertainty
0.05	0	288.15	1003.198	2.015
0.05	0.01997	288.15	1003.796	2.014
0.05	0.06018	288.15	1004.985	2.015
0.05	0.10031	288.15	1006.152	2.015
0.05	0.13983	288.15	1007.283	2.016
0.05	0.17053	288.15	1008.139	2.017
0.05	0.20002	288.15	1008.955	2.018
0.05	0	293.15	1002.242	2.015
0.05	0.01997	293.15	1002.835	2.014
0.05	0.06018	293.15	1004.013	2.015
0.05	0.10031	293.15	1005.17	2.015
0.05	0.13983	293.15	1006.288	2.016
0.05	0.17053	293.15	1007.134	2.017
0.05	0.20002	293.15	1007.942	2.017
0.05	0	298.15	1001.034	2.014
0.05	0.01997	298.15	1001.621	2.014
0.05	0.06018	298.15	1002.787	2.015
0.05	0.10031	298.15	1003.931	2.015
0.05	0.13983	298.15	1005.039	2.016
0.05	0.17053	298.15	1005.878	2.017
0.05	0.20002	298.15	1006.679	2.017
0.05	0	303.15	999.585	2.014
0.05	0.01997	303.15	1000.167	2.014
0.05	0.06018	303.15	1001.324	2.014
0.05	0.10031	303.15	1002.46	2.015
0.05	0.13983	303.15	1003.561	2.016
0.05	0.17053	303.15	1004.393	2.017
0.05	0.20002	303.15	1005.189	2.017
0.05	0	308.15	997.921	2.014
0.05	0.01997	308.15	998.5	2.014
0.05	0.06018	308.15	999.651	2.014
0.05	0.10031	308.15	1000.779	2.015
0.05	0.13983	308.15	1001.873	2.016
0.05	0.17053	308.15	1002.701	2.016
0.05	0.20002	308.15	1003.488	2.017
0.15	0	288.15	1007.463	2.018
0.15	0.01954	288.15	1008.039	2.018
0.15	0.06038	288.15	1009.23	2.018
0.15	0.09993	288.15	1010.368	2.019
0.15	0.13743	288.15	1011.433	2.019
0.15	0.16952	288.15	1012.328	2.02
0.15	0.20483	288.15	1013.297	2.02
0.15	0	293.15	1006.392	2.018
0.15	0.01954	293.15	1006.962	2.017
0.15	0.06038	293.15	1008.141	2.018
0.15	0.09993	293.15	1009.265	2.018
0.15	0.13743	293.15	1010.32	2.019
0.15	0.16952	293.15	1011.202	2.02
0.15	0.20483	293.15	1012.165	2.02
0.15	0	298.15	1005.07	2.017
0.15	0.01954	298.15	1005.635	2.017
0.15	0.06038	298.15	1006.803	2.017
0.15	0.09993	298.15	1007.916	2.018
0.15	0.13743	298.15	1008.962	2.019
0.15	0.16952	298.15	1009.839	2.019
0.15	0.20483	298.15	1010.79	2.02
0.15	0	303.15	1003.521	2.017
0.15	0.01954	303.15	1004.082	2.017
0.15	0.06038	303.15	1005.242	2.017
0.15	0.09993	303.15	1006.348	2.018
0.15	0.13743	303.15	1007.384	2.018
0.15	0.16952	303.15	1008.255	2.019
0.15	0.20483	303.15	1009.199	2.019
0.15	0	308.15	1001.766	2.017
0.15	0.01954	308.15	1002.323	2.016
0.15	0.06038	308.15	1003.475	2.017
0.15	0.09993	308.15	1004.575	2.017
0.15	0.13743	308.15	1005.605	2.018
0.15	0.16952	308.15	1006.47	2.019
0.15	0.20483	308.15	1007.407	2.018
0.25	0	288.15	1010.795	2.024
0.25	0.02002	288.15	1011.392	2.024
0.25	0.06011	288.15	1012.566	2.024
0.25	0.10015	288.15	1013.707	2.024
0.25	0.14008	288.15	1014.822	2.025
0.25	0.17087	288.15	1015.665	2.026
0.25	0.19953	288.15	1016.45	2.031
0.25	0	293.15	1009.602	2.023
0.25	0.02002	293.15	1010.19	2.023
0.25	0.06011	293.15	1011.348	2.023
0.25	0.10015	293.15	1012.477	2.024
0.25	0.14008	293.15	1013.577	2.025
0.25	0.17087	293.15	1014.41	2.025
0.25	0.19953	293.15	1015.189	2.028
0.25	0	298.15	1008.17	2.023
0.25	0.02002	298.15	1008.75	2.022
0.25	0.06011	298.15	1009.897	2.023
0.25	0.10015	298.15	1011.018	2.023
0.25	0.14008	298.15	1012.106	2.024
0.25	0.17087	298.15	1012.931	2.025
0.25	0.19953	298.15	1013.704	2.028
0.25	0	303.15	1006.527	2.022
0.25	0.02002	303.15	1007.102	2.022
0.25	0.06011	303.15	1008.239	2.022
0.25	0.10015	303.15	1009.349	2.023
0.25	0.14008	303.15	1010.432	2.023
0.25	0.17087	303.15	1011.249	2.024
0.25	0.19953	303.15	1012.011	2.027
0.25	0	308.15	1004.692	2.021
0.25	0.02002	308.15	1005.262	2.021
0.25	0.06011	308.15	1006.389	2.021
0.25	0.10015	308.15	1007.492	2.022
0.25	0.14008	308.15	1008.566	2.023
0.25	0.17087	308.15	1009.383	2.024
0.25	0.19953	308.15	1010.145	2.028
0.35	0	288.15	1015.166	2.038
0.35	0.01988	288.15	1015.701	2.038
0.35	0.05992	288.15	1016.791	2.037
0.35	0.10011	288.15	1017.907	2.038
0.35	0.14	288.15	1019.046	2.039
0.35	0.16964	288.15	1019.905	2.04
0.35	0.20012	288.15	1020.799	2.042
0.35	0	293.15	1013.834	2.036
0.35	0.01988	293.15	1014.362	2.036
0.35	0.05992	293.15	1015.441	2.035
0.35	0.10011	293.15	1016.547	2.036
0.35	0.14	293.15	1017.678	2.037
0.35	0.16964	293.15	1018.525	2.038
0.35	0.20012	293.15	1019.414	2.039
0.35	0	298.15	1012.288	2.035
0.35	0.01988	298.15	1012.811	2.034
0.35	0.05992	298.15	1013.879	2.034
0.35	0.10011	298.15	1014.977	2.034
0.35	0.14	298.15	1016.098	2.036
0.35	0.16964	298.15	1016.939	2.037
0.35	0.20012	298.15	1017.819	2.038
0.35	0	303.15	1010.547	2.034
0.35	0.01988	303.15	1011.066	2.033
0.35	0.05992	303.15	1012.125	2.033
0.35	0.10011	303.15	1013.213	2.033
0.35	0.14	303.15	1014.327	2.034
0.35	0.16964	303.15	1015.16	2.036
0.35	0.20012	303.15	1016.036	2.037
0.35	0	308.15	1008.623	2.033
0.35	0.01988	308.15	1009.137	2.033
0.35	0.05992	308.15	1010.19	2.032
0.35	0.10011	308.15	1011.272	2.033
0.35	0.14	308.15	1012.379	2.034
0.35	0.16964	308.15	1013.206	2.035
0.35	0.20012	308.15	1014.073	2.037

System: (S)-2-aminopropanoic acid + water + sodium ibuprofen; phases: Liquid
Fixed: Pressure, kPa = 100
Fixed: Frequency, MHz = 3
Property: Speed of sound, m/s (Liquid); method: Sing-around technique in a fixed-path interferometer
Solvent: Molality, mol/kg of sodium ibuprofen	Molality, mol/kg of (S)-2-aminopropanoic acid	Temperature, K	Speed of sound, m/s	uncertainty
0.05	0	288.15	1477.46	2.37
0.05	0.01997	288.15	1478.88	2.37
0.05	0.06018	288.15	1481.48	2.37
0.05	0.10031	288.15	1484.32	2.38
0.05	0.13983	288.15	1487.14	2.38
0.05	0.17053	288.15	1489.24	2.39
0.05	0.20002	288.15	1491.26	2.39
0.05	0	293.15	1492.76	2.37
0.05	0.01997	293.15	1494.09	2.37
0.05	0.06018	293.15	1496.45	2.37
0.05	0.10031	293.15	1499.16	2.38
0.05	0.13983	293.15	1501.88	2.38
0.05	0.17053	293.15	1503.88	2.38
0.05	0.20002	293.15	1505.83	2.38
0.05	0	298.15	1506.03	2.37
0.05	0.01997	298.15	1507.35	2.37
0.05	0.06018	298.15	1509.85	2.38
0.05	0.10031	298.15	1512.44	2.38
0.05	0.13983	298.15	1515.07	2.38
0.05	0.17053	298.15	1516.98	2.38
0.05	0.20002	298.15	1518.85	2.38
0.05	0	303.15	1517.74	2.37
0.05	0.01997	303.15	1519.06	2.37
0.05	0.06018	303.15	1521.46	2.38
0.05	0.10031	303.15	1523.98	2.38
0.05	0.13983	303.15	1526.5	2.38
0.05	0.17053	303.15	1528.35	2.38
0.05	0.20002	303.15	1530.17	2.38
0.05	0	308.15	1527.81	2.37
0.05	0.01997	308.15	1529.07	2.37
0.05	0.06018	308.15	1531.52	2.38
0.05	0.10031	308.15	1533.84	2.38
0.05	0.13983	308.15	1536.29	2.38
0.05	0.17053	308.15	1538.08	2.38
0.05	0.20002	308.15	1540.02	2.39
0.15	0	288.15	1496.93	2.42
0.15	0.01954	288.15	1498.29	2.42
0.15	0.06038	288.15	1501.1	2.42
0.15	0.09993	288.15	1503.72	2.42
0.15	0.13743	288.15	1506.35	2.42
0.15	0.16952	288.15	1508.49	2.42
0.15	0.20483	288.15	1510.74	2.41
0.15	0	293.15	1510.68	2.41
0.15	0.01954	293.15	1511.99	2.41
0.15	0.06038	293.15	1514.67	2.41
0.15	0.09993	293.15	1517.24	2.41
0.15	0.13743	293.15	1519.76	2.41
0.15	0.16952	293.15	1521.79	2.42
0.15	0.20483	293.15	1523.93	2.41
0.15	0	298.15	1522.9	2.4
0.15	0.01954	298.15	1524.16	2.4
0.15	0.06038	298.15	1526.73	2.4
0.15	0.09993	298.15	1529.2	2.4
0.15	0.13743	298.15	1531.56	2.41
0.15	0.16952	298.15	1533.57	2.41
0.15	0.20483	298.15	1535.64	2.4
0.15	0	303.15	1533.42	2.4
0.15	0.01954	303.15	1534.65	2.4
0.15	0.06038	303.15	1537.12	2.4
0.15	0.09993	303.15	1539.5	2.4
0.15	0.13743	303.15	1541.82	2.4
0.15	0.16952	303.15	1543.69	2.4
0.15	0.20483	303.15	1545.71	2.4
0.15	0	308.15	1542.39	2.39
0.15	0.01954	308.15	1543.53	2.39
0.15	0.06038	308.15	1545.92	2.39
0.15	0.09993	308.15	1548.19	2.4
0.15	0.13743	308.15	1550.42	2.4
0.15	0.16952	308.15	1552.22	2.4
0.15	0.20483	308.15	1554.15	2.39
0.25	0	288.15	1510.19	2.43
0.25	0.02002	288.15	1511.44	2.42
0.25	0.06011	288.15	1513.82	2.42
0.25	0.10015	288.15	1516.09	2.42
0.25	0.14008	288.15	1518.54	2.42
0.25	0.17087	288.15	1520.38	2.43
0.25	0.19953	288.15	1522.14	2.41
0.25	0	293.15	1522.34	2.41
0.25	0.02002	293.15	1523.53	2.41
0.25	0.06011	293.15	1525.74	2.41
0.25	0.10015	293.15	1527.92	2.41
0.25	0.14008	293.15	1530.29	2.41
0.25	0.17087	293.15	1532.07	2.41
0.25	0.19953	293.15	1533.72	2.41
0.25	0	298.15	1533.13	2.4
0.25	0.02002	298.15	1534.25	2.4
0.25	0.06011	298.15	1536.36	2.4
0.25	0.10015	298.15	1538.46	2.4
0.25	0.14008	298.15	1540.73	2.4
0.25	0.17087	298.15	1542.45	2.41
0.25	0.19953	298.15	1544.03	2.4
0.25	0	303.15	1542.44	2.4
0.25	0.02002	303.15	1543.45	2.4
0.25	0.06011	303.15	1545.52	2.39
0.25	0.10015	303.15	1547.54	2.39
0.25	0.14008	303.15	1549.71	2.4
0.25	0.17087	303.15	1551.37	2.4
0.25	0.19953	303.15	1553.04	2.39
0.25	0	308.15	1550.3	2.39
0.25	0.02002	308.15	1551.29	2.39
0.25	0.06011	308.15	1553.25	2.39
0.25	0.10015	308.15	1555.2	2.39
0.25	0.14008	308.15	1557.29	2.39
0.25	0.17087	308.15	1558.9	2.39
0.25	0.19953	308.15	1560.38	2.39
0.35	0	288.15	1518.1	2.43
0.35	0.01988	288.15	1519.07	2.43
0.35	0.05992	288.15	1521.18	2.43
0.35	0.10011	288.15	1523.52	2.43
0.35	0.14	288.15	1525.89	2.43
0.35	0.16964	288.15	1527.6	2.43
0.35	0.20012	288.15	1529.43	2.44
0.35	0	293.15	1529.12	2.41
0.35	0.01988	293.15	1530.06	2.41
0.35	0.05992	293.15	1532.13	2.41
0.35	0.10011	293.15	1534.37	2.41
0.35	0.14	293.15	1536.59	2.41
0.35	0.16964	293.15	1538.3	2.42
0.35	0.20012	293.15	1540.03	2.41
0.35	0	298.15	1538.94	2.4
0.35	0.01988	298.15	1539.83	2.4
0.35	0.05992	298.15	1541.85	2.4
0.35	0.10011	298.15	1544	2.4
0.35	0.14	298.15	1546.16	2.4
0.35	0.16964	298.15	1547.8	2.4
0.35	0.20012	298.15	1549.46	2.4
0.35	0	303.15	1547.39	2.39
0.35	0.01988	303.15	1548.24	2.39
0.35	0.05992	303.15	1550.17	2.39
0.35	0.10011	303.15	1552.25	2.39
0.35	0.14	303.15	1554.33	2.4
0.35	0.16964	303.15	1555.9	2.4
0.35	0.20012	303.15	1557.53	2.39
0.35	0	308.15	1554.49	2.39
0.35	0.01988	308.15	1555.35	2.39
0.35	0.05992	308.15	1557.14	2.39
0.35	0.10011	308.15	1559.15	2.39
0.35	0.14	308.15	1561.16	2.39
0.35	0.16964	308.15	1562.68	2.39
0.35	0.20012	308.15	1564.26	2.4

System: L-valine + water + sodium ibuprofen; phases: Liquid
Fixed: Pressure, kPa = 100
Property: Mass density, kg/m3 (Liquid); method: Vibrating tube method
Solvent: Molality, mol/kg of sodium ibuprofen	Molality, mol/kg of L-valine	Temperature, K	Mass density, kg/m3	uncertainty
0.05	0	288.15	1003.198	2.015
0.05	0.02012	288.15	1003.744	2.014
0.05	0.06006	288.15	1004.819	2.015
0.05	0.10015	288.15	1005.887	2.015
0.05	0.13993	288.15	1006.934	2.016
0.05	0.16976	288.15	1007.716	2.017
0.05	0.19996	288.15	1008.499	2.018
0.05	0	293.15	1002.242	2.015
0.05	0.02012	293.15	1002.783	2.014
0.05	0.06006	293.15	1003.848	2.015
0.05	0.10015	293.15	1004.904	2.015
0.05	0.13993	293.15	1005.941	2.016
0.05	0.16976	293.15	1006.709	2.017
0.05	0.19996	293.15	1007.479	2.017
0.05	0	298.15	1001.034	2.014
0.05	0.02012	298.15	1001.568	2.014
0.05	0.06006	298.15	1002.619	2.015
0.05	0.10015	298.15	1003.662	2.015
0.05	0.13993	298.15	1004.687	2.016
0.05	0.16976	298.15	1005.448	2.016
0.05	0.19996	298.15	1006.21	2.017
0.05	0	303.15	999.585	2.014
0.05	0.02012	303.15	1000.113	2.014
0.05	0.06006	303.15	1001.154	2.014
0.05	0.10015	303.15	1002.188	2.015
0.05	0.13993	303.15	1003.204	2.016
0.05	0.16976	303.15	1003.959	2.016
0.05	0.19996	303.15	1004.717	2.017
0.05	0	308.15	997.921	2.014
0.05	0.02012	308.15	998.444	2.014
0.05	0.06006	308.15	999.475	2.014
0.05	0.10015	308.15	1000.502	2.015
0.05	0.13993	308.15	1001.512	2.015
0.05	0.16976	308.15	1002.259	2.016
0.05	0.19996	308.15	1003.016	2.017
0.15	0	288.15	1007.463	2.018
0.15	0.01998	288.15	1008.027	2.018
0.15	0.05994	288.15	1009.132	2.018
0.15	0.09981	288.15	1010.208	2.018
0.15	0.13933	288.15	1011.241	2.019
0.15	0.16994	288.15	1012.021	2.02
0.15	0.19989	288.15	1012.766	2.018
0.15	0	293.15	1006.392	2.018
0.15	0.01998	293.15	1006.949	2.017
0.15	0.05994	293.15	1008.041	2.018
0.15	0.09981	293.15	1009.099	2.018
0.15	0.13933	293.15	1010.118	2.019
0.15	0.16994	293.15	1010.889	2.019
0.15	0.19989	293.15	1011.624	2.018
0.15	0	298.15	1005.07	2.017
0.15	0.01998	298.15	1005.622	2.017
0.15	0.05994	298.15	1006.7	2.017
0.15	0.09981	298.15	1007.745	2.018
0.15	0.13933	298.15	1008.749	2.018
0.15	0.16994	298.15	1009.51	2.019
0.15	0.19989	298.15	1010.239	2.018
0.15	0	303.15	1003.521	2.017
0.15	0.01998	303.15	1004.065	2.017
0.15	0.05994	303.15	1005.131	2.017
0.15	0.09981	303.15	1006.164	2.017
0.15	0.13933	303.15	1007.16	2.018
0.15	0.16994	303.15	1007.914	2.019
0.15	0.19989	303.15	1008.635	2.018
0.15	0	308.15	1001.766	2.017
0.15	0.01998	308.15	1002.307	2.016
0.15	0.05994	308.15	1003.365	2.017
0.15	0.09981	308.15	1004.389	2.017
0.15	0.13933	308.15	1005.371	2.018
0.15	0.16994	308.15	1006.116	2.018
0.15	0.19989	308.15	1006.83	2.017
0.25	0	288.15	1010.795	2.024
0.25	0.01982	288.15	1011.322	2.024
0.25	0.06018	288.15	1012.382	2.024
0.25	0.09975	288.15	1013.403	2.024
0.25	0.13999	288.15	1014.413	2.025
0.25	0.16995	288.15	1015.158	2.025
0.25	0.19969	288.15	1015.884	2.029
0.25	0	293.15	1009.602	2.023
0.25	0.01982	293.15	1010.121	2.023
0.25	0.06018	293.15	1011.164	2.023
0.25	0.09975	293.15	1012.166	2.023
0.25	0.13999	293.15	1013.16	2.024
0.25	0.16995	293.15	1013.895	2.024
0.25	0.19969	293.15	1014.61	2.026
0.25	0	298.15	1008.17	2.023
0.25	0.01982	298.15	1008.683	2.022
0.25	0.06018	298.15	1009.712	2.022
0.25	0.09975	298.15	1010.699	2.023
0.25	0.13999	298.15	1011.68	2.023
0.25	0.16995	298.15	1012.406	2.024
0.25	0.19969	298.15	1013.111	2.026
0.25	0	303.15	1006.527	2.022
0.25	0.01982	303.15	1007.034	2.022
0.25	0.06018	303.15	1008.05	2.022
0.25	0.09975	303.15	1009.026	2.022
0.25	0.13999	303.15	1009.996	2.023
0.25	0.16995	303.15	1010.715	2.023
0.25	0.19969	303.15	1011.411	2.025
0.25	0	308.15	1004.692	2.021
0.25	0.01982	308.15	1005.194	2.021
0.25	0.06018	308.15	1006.201	2.021
0.25	0.09975	308.15	1007.164	2.022
0.25	0.13999	308.15	1008.125	2.022
0.25	0.16995	308.15	1008.837	2.023
0.25	0.19969	308.15	1009.525	2.026
0.35	0	288.15	1015.166	2.038
0.35	0.02019	288.15	1015.689	2.038
0.35	0.06005	288.15	1016.704	2.038
0.35	0.09987	288.15	1017.693	2.038
0.35	0.13997	288.15	1018.667	2.038
0.35	0.17006	288.15	1019.381	2.038
0.35	0.19955	288.15	1020.063	2.039
0.35	0	293.15	1013.834	2.036
0.35	0.02019	293.15	1014.349	2.036
0.35	0.06005	293.15	1015.349	2.036
0.35	0.09987	293.15	1016.326	2.036
0.35	0.13997	293.15	1017.288	2.036
0.35	0.17006	293.15	1017.994	2.037
0.35	0.19955	293.15	1018.672	2.036
0.35	0	298.15	1012.288	2.035
0.35	0.02019	298.15	1012.796	2.035
0.35	0.06005	298.15	1013.783	2.035
0.35	0.09987	298.15	1014.747	2.035
0.35	0.13997	298.15	1015.694	2.035
0.35	0.17006	298.15	1016.391	2.035
0.35	0.19955	298.15	1017.062	2.035
0.35	0	303.15	1010.547	2.034
0.35	0.02019	303.15	1011.048	2.034
0.35	0.06005	303.15	1012.023	2.034
0.35	0.09987	303.15	1012.977	2.034
0.35	0.13997	303.15	1013.915	2.034
0.35	0.17006	303.15	1014.605	2.034
0.35	0.19955	303.15	1015.268	2.034
0.35	0	308.15	1008.623	2.033
0.35	0.02019	308.15	1009.118	2.033
0.35	0.06005	308.15	1010.082	2.033
0.35	0.09987	308.15	1011.027	2.033
0.35	0.13997	308.15	1011.956	2.033
0.35	0.17006	308.15	1012.643	2.034
0.35	0.19955	308.15	1013.3	2.034

System: L-valine + water + sodium ibuprofen; phases: Liquid
Fixed: Pressure, kPa = 100
Fixed: Frequency, MHz = 3
Property: Speed of sound, m/s (Liquid); method: Sing-around technique in a fixed-path interferometer
Solvent: Molality, mol/kg of sodium ibuprofen	Molality, mol/kg of L-valine	Temperature, K	Speed of sound, m/s	uncertainty
0.05	0	288.15	1477.46	2.37
0.05	0.02012	288.15	1479.51	2.37
0.05	0.06006	288.15	1483.93	2.38
0.05	0.10015	288.15	1487.89	2.38
0.05	0.13993	288.15	1492.1	2.39
0.05	0.16976	288.15	1495.06	2.4
0.05	0.19996	288.15	1498.18	2.41
0.05	0	293.15	1492.76	2.37
0.05	0.02012	293.15	1494.71	2.37
0.05	0.06006	293.15	1498.61	2.38
0.05	0.10015	293.15	1502.44	2.38
0.05	0.13993	293.15	1506.4	2.39
0.05	0.16976	293.15	1509.32	2.4
0.05	0.19996	293.15	1512.24	2.4
0.05	0	298.15	1506.03	2.37
0.05	0.02012	298.15	1507.92	2.37
0.05	0.06006	298.15	1511.86	2.38
0.05	0.10015	298.15	1515.49	2.38
0.05	0.13993	298.15	1519.27	2.39
0.05	0.16976	298.15	1522.06	2.4
0.05	0.19996	298.15	1524.85	2.39
0.05	0	303.15	1517.74	2.37
0.05	0.02012	303.15	1519.56	2.37
0.05	0.06006	303.15	1523.34	2.38
0.05	0.10015	303.15	1526.83	2.38
0.05	0.13993	303.15	1530.43	2.39
0.05	0.16976	303.15	1533.07	2.39
0.05	0.19996	303.15	1535.76	2.39
0.05	0	308.15	1527.81	2.37
0.05	0.02012	308.15	1529.56	2.37
0.05	0.06006	308.15	1533.16	2.38
0.05	0.10015	308.15	1536.51	2.38
0.05	0.13993	308.15	1539.94	2.39
0.05	0.16976	308.15	1542.48	2.39
0.05	0.19996	308.15	1545.04	2.4
0.15	0	288.15	1496.93	2.42
0.15	0.01998	288.15	1498.98	2.42
0.15	0.05994	288.15	1503.42	2.42
0.15	0.09981	288.15	1507.88	2.42
0.15	0.13933	288.15	1511.86	2.43
0.15	0.16994	288.15	1514.9	2.43
0.15	0.19989	288.15	1517.41	2.41
0.15	0	293.15	1510.68	2.41
0.15	0.01998	293.15	1512.59	2.41
0.15	0.05994	293.15	1516.76	2.41
0.15	0.09981	293.15	1520.7	2.42
0.15	0.13933	293.15	1524.87	2.42
0.15	0.16994	293.15	1527.75	2.42
0.15	0.19989	293.15	1530.13	2.4
0.15	0	298.15	1522.9	2.4
0.15	0.01998	298.15	1524.73	2.4
0.15	0.05994	298.15	1528.64	2.4
0.15	0.09981	298.15	1532.41	2.41
0.15	0.13933	298.15	1536.37	2.41
0.15	0.16994	298.15	1539.11	2.42
0.15	0.19989	298.15	1541.35	2.4
0.15	0	303.15	1533.42	2.4
0.15	0.01998	303.15	1535.23	2.4
0.15	0.05994	303.15	1538.91	2.4
0.15	0.09981	303.15	1542.47	2.4
0.15	0.13933	303.15	1546.24	2.41
0.15	0.16994	303.15	1548.82	2.41
0.15	0.19989	303.15	1550.94	2.39
0.15	0	308.15	1542.39	2.39
0.15	0.01998	308.15	1544.07	2.39
0.15	0.05994	308.15	1547.58	2.39
0.15	0.09981	308.15	1550.92	2.4
0.15	0.13933	308.15	1554.51	2.4
0.15	0.16994	308.15	1556.96	2.4
0.15	0.19989	308.15	1558.96	2.39
0.25	0	288.15	1510.19	2.43
0.25	0.01982	288.15	1512	2.42
0.25	0.06018	288.15	1515.61	2.42
0.25	0.09975	288.15	1519.07	2.42
0.25	0.13999	288.15	1522.64	2.42
0.25	0.16995	288.15	1525.39	2.43
0.25	0.19969	288.15	1528.13	2.42
0.25	0	293.15	1522.34	2.41
0.25	0.01982	293.15	1524	2.41
0.25	0.06018	293.15	1527.39	2.41
0.25	0.09975	293.15	1530.67	2.41
0.25	0.13999	293.15	1534.05	2.41
0.25	0.16995	293.15	1536.66	2.42
0.25	0.19969	293.15	1539.25	2.41
0.25	0	298.15	1533.13	2.4
0.25	0.01982	298.15	1534.66	2.4
0.25	0.06018	298.15	1537.87	2.4
0.25	0.09975	298.15	1540.98	2.4
0.25	0.13999	298.15	1544.17	2.4
0.25	0.16995	298.15	1546.65	2.41
0.25	0.19969	298.15	1549.09	2.4
0.25	0	303.15	1542.44	2.4
0.25	0.01982	303.15	1543.86	2.39
0.25	0.06018	303.15	1546.88	2.39
0.25	0.09975	303.15	1549.83	2.4
0.25	0.13999	303.15	1552.86	2.4
0.25	0.16995	303.15	1555.2	2.4
0.25	0.19969	303.15	1557.53	2.4
0.25	0	308.15	1550.3	2.39
0.25	0.01982	308.15	1551.61	2.39
0.25	0.06018	308.15	1554.52	2.39
0.25	0.09975	308.15	1557.29	2.39
0.25	0.13999	308.15	1560.15	2.39
0.25	0.16995	308.15	1562.38	2.4
0.25	0.19969	308.15	1564.6	2.39
0.35	0	288.15	1518.1	2.43
0.35	0.02019	288.15	1519.67	2.43
0.35	0.06005	288.15	1522.91	2.43
0.35	0.09987	288.15	1526.44	2.43
0.35	0.13997	288.15	1529.69	2.43
0.35	0.17006	288.15	1532.4	2.43
0.35	0.19955	288.15	1534.65	2.43
0.35	0	293.15	1529.12	2.41
0.35	0.02019	293.15	1530.6	2.41
0.35	0.06005	293.15	1533.7	2.41
0.35	0.09987	293.15	1537.05	2.41
0.35	0.13997	293.15	1540.12	2.42
0.35	0.17006	293.15	1542.67	2.42
0.35	0.19955	293.15	1544.84	2.41
0.35	0	298.15	1538.94	2.4
0.35	0.02019	298.15	1540.34	2.4
0.35	0.06005	298.15	1543.27	2.4
0.35	0.09987	298.15	1546.45	2.4
0.35	0.13997	298.15	1549.36	2.41
0.35	0.17006	298.15	1551.77	2.41
0.35	0.19955	298.15	1553.85	2.4
0.35	0	303.15	1547.39	2.39
0.35	0.02019	303.15	1548.68	2.39
0.35	0.06005	303.15	1551.46	2.39
0.35	0.09987	303.15	1554.47	2.4
0.35	0.13997	303.15	1557.23	2.4
0.35	0.17006	303.15	1559.52	2.4
0.35	0.19955	303.15	1561.52	2.4
0.35	0	308.15	1554.49	2.39
0.35	0.02019	308.15	1555.69	2.39
0.35	0.06005	308.15	1558.3	2.39
0.35	0.09987	308.15	1561.15	2.39
0.35	0.13997	308.15	1563.92	2.4
0.35	0.17006	308.15	1565.97	2.4
0.35	0.19955	308.15	1567.88	2.4

System: water + sodium ibuprofen; phases: Liquid
Fixed: Pressure, kPa = 100
Property: Mass density, kg/m3 (Liquid); method: Vibrating tube method
Molality, mol/kg of sodium ibuprofen	Temperature, K	Mass density, kg/m3	uncertainty
0.05	288.15	1003.198	2.015
0.05	293.15	1002.242	2.015
0.05	298.15	1001.034	2.014
0.05	303.15	999.585	2.014
0.05	308.15	997.921	2.014
0.15	288.15	1007.463	2.018
0.15	293.15	1006.392	2.018
0.15	298.15	1005.07	2.017
0.15	303.15	1003.521	2.017
0.15	308.15	1001.766	2.017
0.25	288.15	1010.795	2.024
0.25	293.15	1009.602	2.023
0.25	298.15	1008.17	2.023
0.25	303.15	1006.527	2.022
0.25	308.15	1004.692	2.021
0.35	288.15	1015.166	2.038
0.35	293.15	1013.834	2.036
0.35	298.15	1012.288	2.035
0.35	303.15	1010.547	2.034
0.35	308.15	1008.623	2.033

System: water + sodium ibuprofen; phases: Liquid
Fixed: Pressure, kPa = 100
Fixed: Frequency, MHz = 3
Property: Speed of sound, m/s (Liquid); method: Sing-around technique in a fixed-path interferometer
Molality, mol/kg of sodium ibuprofen	Temperature, K	Speed of sound, m/s	uncertainty
0.05	288.15	1477.46	2.37
0.05	293.15	1492.76	2.37
0.05	298.15	1506.03	2.37
0.05	303.15	1517.74	2.37
0.05	308.15	1527.81	2.37
0.15	288.15	1496.93	2.42
0.15	293.15	1510.68	2.41
0.15	298.15	1522.9	2.4
0.15	303.15	1533.42	2.4
0.15	308.15	1542.39	2.39
0.25	288.15	1510.19	2.43
0.25	293.15	1522.34	2.41
0.25	298.15	1533.13	2.4
0.25	303.15	1542.44	2.4
0.25	308.15	1550.3	2.39
0.35	288.15	1518.1	2.43
0.35	293.15	1529.12	2.41
0.35	298.15	1538.94	2.4
0.35	303.15	1547.39	2.39
0.35	308.15	1554.49	2.39
