Measured thermophysical data. Isothermal (vapour + liquid) equilibria for (nitromethane or nitroethane +  1,4-dichlorobutane) binary systems at temperatures between (343.15 and 363.15) K
Source: J. Chem. Thermodyn., 2013, 10.1016/j.jct.2012.06.033
Compound 1: nitromethane, CH3NO2, InChI=1S/CH3NO2/c1-2(3)4/h1H3, purity 97%
Compound 2: nitroethane, C2H5NO2, InChI=1S/C2H5NO2/c1-2-3(4)5/h2H2,1H3, purity 97%
Compound 3: 1,4-dichlorobutane, C4H8Cl2, InChI=1S/C4H8Cl2/c5-3-1-2-4-6/h1-4H2, purity 99%

System: nitromethane; phases: Liquid
Property: Refractive index (Na D-line) (Liquid); method: Standard Abbe refractometry
Temperature, K	Pressure, kPa	Refractive index (Na D-line)	uncertainty
298.15	101.325	1.3793	0.0007

System: nitromethane; phases: Liquid, Gas
Property: Vapor or sublimation pressure, kPa (Liquid); method: Ebulliometric method (Recirculating still)
Temperature, K	Vapor or sublimation pressure, kPa	uncertainty
343.15	34.93	0.2
353.15	50.14	0.25
363.15	70.81	0.33

System: nitroethane; phases: Liquid
Property: Refractive index (Na D-line) (Liquid); method: Standard Abbe refractometry
Temperature, K	Pressure, kPa	Refractive index (Na D-line)	uncertainty
298.15	101.325	1.3895	0.0007

System: nitroethane; phases: Liquid, Gas
Property: Vapor or sublimation pressure, kPa (Liquid); method: Ebulliometric method (Recirculating still)
Temperature, K	Vapor or sublimation pressure, kPa	uncertainty
343.15	22.46	0.13
353.15	32.84	0.17
363.15	47.13	0.22

System: 1,4-dichlorobutane; phases: Liquid
Property: Refractive index (Na D-line) (Liquid); method: Standard Abbe refractometry
Temperature, K	Pressure, kPa	Refractive index (Na D-line)	uncertainty
298.15	101.325	1.4522	0.0004

System: 1,4-dichlorobutane; phases: Liquid, Gas
Property: Vapor or sublimation pressure, kPa (Liquid); method: Ebulliometric method (Recirculating still)
Temperature, K	Vapor or sublimation pressure, kPa	uncertainty
343.15	5.25	0.03
353.15	8.2	0.04
363.15	12.52	0.05

System: nitromethane + 1,4-dichlorobutane; phases: Liquid, Gas
Property: Vapor or sublimation pressure, kPa (Liquid); method: Ebulliometric method (Recirculating still)
Mole fraction of nitromethane	Temperature, K	Vapor or sublimation pressure, kPa	uncertainty
0	343.15	5.25	0.07
0	353.15	8.2	0.08
0	363.15	12.52	0.1
0.035	343.15	7.87	0.26
0.035	353.15	11.56	0.35
0.035	363.15	16.99	0.49
0.0777	343.15	10.07	0.23
0.0777	363.15	21.73	0.46
0.08	353.15	15.05	0.31
0.1294	363.15	27.21	0.43
0.1381	353.15	19.21	0.29
0.1402	343.15	13.36	0.23
0.1907	363.15	32.7	0.38
0.2029	343.15	16.23	0.2
0.2029	353.15	23.08	0.28
0.2676	363.15	38.12	0.37
0.2752	353.15	27.24	0.29
0.2846	343.15	19.04	0.21
0.341	363.15	42.88	0.37
0.3446	353.15	30.7	0.28
0.3568	343.15	21.68	0.21
0.4292	363.15	47.82	0.38
0.4324	353.15	33.98	0.28
0.4404	343.15	23.84	0.21
0.5173	363.15	52.01	0.4
0.532	353.15	36.94	0.3
0.5334	343.15	25.8	0.22
0.6135	353.15	39.73	0.32
0.6135	363.15	56.08	0.43
0.624	343.15	27.77	0.24
0.7066	363.15	59.68	0.46
0.7147	343.15	29.49	0.26
0.7147	353.15	42.34	0.34
0.8108	363.15	63.57	0.5
0.8128	343.15	31.36	0.28
0.8128	353.15	45.04	0.37
0.903	353.15	47.45	0.41
0.903	363.15	66.97	0.54
0.9039	343.15	32.94	0.3
0.9642	343.15	34.12	0.31
0.9642	353.15	49.16	0.43
0.9642	363.15	69.37	0.57
1	343.15	34.93	0.31
1	353.15	50.14	0.42
1	363.15	70.81	0.57

System: nitromethane + 1,4-dichlorobutane; phases: Gas, Liquid
Property: Mole fraction of nitromethane (Gas); method: Index of refraction calibration data
Mole fraction of nitromethane	Temperature, K	Mole fraction of nitromethane	uncertainty
0	343.15	0	
0	353.15	0	
0	363.15	0	
0.035	343.15	0.3481	0.0262
0.035	353.15	0.3068	0.0244
0.035	363.15	0.292	0.0244
0.0777	343.15	0.507	0.0141
0.0777	363.15	0.472	0.0149
0.08	353.15	0.4934	0.0145
0.1294	363.15	0.6016	0.0114
0.1381	353.15	0.6279	0.0108
0.1402	343.15	0.6533	0.011
0.1907	363.15	0.69	0.0093
0.2029	343.15	0.7273	0.0088
0.2029	353.15	0.7054	0.0091
0.2676	363.15	0.7529	0.0082
0.2752	353.15	0.7703	0.0081
0.2846	343.15	0.7882	0.0077
0.341	363.15	0.7955	0.0075
0.3446	353.15	0.8108	0.0072
0.3568	343.15	0.8267	0.0069
0.4292	363.15	0.8385	0.0067
0.4324	353.15	0.8442	0.0065
0.4404	343.15	0.8594	0.0062
0.5173	363.15	0.8613	0.0062
0.532	353.15	0.8706	0.006
0.5334	343.15	0.877	0.0059
0.6135	353.15	0.8942	0.0056
0.6135	363.15	0.8843	0.0057
0.624	343.15	0.9039	0.0054
0.7066	363.15	0.9083	0.0053
0.7147	343.15	0.9195	0.0051
0.7147	353.15	0.9144	0.0052
0.8108	363.15	0.939	0.0048
0.8128	343.15	0.9439	0.0047
0.8128	353.15	0.9415	0.0047
0.903	353.15	0.9642	0.0044
0.903	363.15	0.9634	0.0044
0.9039	343.15	0.9658	0.0044
0.9642	343.15	0.9862	0.0043
0.9642	353.15	0.9855	0.0043
0.9642	363.15	0.9855	0.0043
1	343.15	1	
1	353.15	1	
1	363.15	1	

System: nitroethane + 1,4-dichlorobutane; phases: Liquid, Gas
Property: Vapor or sublimation pressure, kPa (Liquid); method: Ebulliometric method (Recirculating still)
Mole fraction of nitroethane	Temperature, K	Vapor or sublimation pressure, kPa	uncertainty
0	343.15	5.25	0.07
0	353.15	8.2	0.08
0	363.15	12.52	0.1
0.0499	343.15	6.79	0.13
0.0499	363.15	15.15	0.23
0.0521	353.15	10.21	0.17
0.1113	343.15	8.29	0.12
0.1113	363.15	18.16	0.23
0.1135	353.15	12.37	0.17
0.1746	353.15	14.44	0.17
0.1767	343.15	9.71	0.12
0.1767	363.15	21.05	0.22
0.2572	353.15	16.79	0.17
0.2592	343.15	11.31	0.13
0.2631	363.15	24.28	0.23
0.341	363.15	27.64	0.24
0.3429	353.15	19	0.18
0.3466	343.15	12.96	0.14
0.4184	353.15	20.84	0.19
0.4237	343.15	14.25	0.14
0.4237	363.15	30.14	0.25
0.495	343.15	15.37	0.15
0.495	363.15	32.52	0.26
0.4966	353.15	22.46	0.2
0.5783	343.15	16.45	0.16
0.5783	353.15	24.32	0.21
0.5783	363.15	35.06	0.28
0.6595	363.15	37.4	0.3
0.6624	343.15	17.76	0.17
0.6624	353.15	25.96	0.22
0.7414	363.15	39.81	0.32
0.7442	353.15	27.62	0.24
0.7455	343.15	18.87	0.18
0.817	363.15	42.01	0.35
0.8196	353.15	29.14	0.26
0.8222	343.15	19.97	0.19
0.8859	363.15	43.98	0.37
0.8884	343.15	20.85	0.2
0.8896	353.15	30.53	0.27
0.9361	343.15	21.37	0.21
0.9373	353.15	31.49	0.28
0.9373	363.15	45.34	0.38
1	343.15	22.46	0.21
1	353.15	32.84	0.29
1	363.15	47.13	0.39

System: nitroethane + 1,4-dichlorobutane; phases: Gas, Liquid
Property: Mole fraction of nitroethane (Gas); method: Index of refraction calibration data
Mole fraction of nitroethane	Temperature, K	Mole fraction of nitroethane	uncertainty
0	343.15	0	
0	353.15	0	
0	363.15	0	
0.0499	343.15	0.2474	0.0156
0.0499	363.15	0.2235	0.0144
0.0521	353.15	0.2315	0.0142
0.1113	343.15	0.4219	0.0111
0.1113	363.15	0.3865	0.0108
0.1135	353.15	0.3937	0.0111
0.1746	353.15	0.526	0.0104
0.1767	343.15	0.5421	0.01
0.1767	363.15	0.5179	0.0102
0.2572	353.15	0.6241	0.0095
0.2592	343.15	0.63	0.0093
0.2631	363.15	0.6165	0.0095
0.341	363.15	0.6983	0.0088
0.3429	353.15	0.704	0.0088
0.3466	343.15	0.711	0.0087
0.4184	353.15	0.7577	0.0081
0.4237	343.15	0.7658	0.008
0.4237	363.15	0.7496	0.0081
0.495	343.15	0.8119	0.0072
0.495	363.15	0.7897	0.0076
0.4966	353.15	0.8015	0.0074
0.5783	343.15	0.8451	0.0066
0.5783	353.15	0.84	0.0067
0.5783	363.15	0.8324	0.0069
0.6595	363.15	0.865	0.0063
0.6624	343.15	0.8823	0.0059
0.6624	353.15	0.87	0.0061
0.7414	363.15	0.9017	0.0056
0.7442	353.15	0.9017	0.0056
0.7455	343.15	0.9065	0.0054
0.817	363.15	0.9291	0.0051
0.8196	353.15	0.9326	0.005
0.8222	343.15	0.9373	0.0049
0.8859	363.15	0.9582	0.0046
0.8884	343.15	0.9605	0.0045
0.8896	353.15	0.9593	0.0046
0.9361	343.15	0.9798	0.0043
0.9373	353.15	0.9776	0.0044
0.9373	363.15	0.9764	0.0044
1	343.15	1	
1	353.15	1	
1	363.15	1	
