Measured thermophysical data. Phase behaviour of pseudo-binary systems of pressurized ((propane + L,L-lactide)) at different ethanol to L,L-lactide mole ratios
Source: J. Chem. Thermodyn., 2014, 10.1016/j.jct.2014.06.008
Compound 1: (3S,6S)-3,6-dimethyl-1,4-dioxane-2,5-dione, C6H8O4, InChI=1S/C6H8O4/c1-3-5(7)10-4(2)6(8)9-3/h3-4H,1-2H3/t3-,4-/m0/s1, purity 98%
Compound 2: propane, C3H8, InChI=1S/C3H8/c1-3-2/h3H2,1-2H3, purity 99.5%
Compound 3: ethanol, C2H6O, InChI=1S/C2H6O/c1-2-3/h3H,2H2,1H3, purity 99.9%

System: ethanol + propane + (3S,6S)-3,6-dimethyl-1,4-dioxane-2,5-dione; phases: Liquid, Gas
Property: Vapor or sublimation pressure, kPa (Liquid); method: Variable-volume view cell
Temperature, K	Solvent: Mole fraction of ethanol	Mole fraction of propane	Vapor or sublimation pressure, kPa	uncertainty
323	0.9	0.091	740	230
333	0.9	0.091	800	260
343	0.9	0.091	920	140
353	0.9	0.091	1000	150
323	0.9	0.166	1190	210
333	0.9	0.166	1360	150
343	0.9	0.166	1480	160
353	0.9	0.166	1700	170
323	0.9	0.231	1350	160
333	0.9	0.231	1650	170
343	0.9	0.231	1800	180
353	0.9	0.231	2100	300
333	0.9	0.286	1810	180
343	0.9	0.286	2000	190
353	0.9	0.286	2350	210
333	0.9	0.375	1960	190
343	0.9	0.375	2210	200
353	0.9	0.375	2570	340
333	0.9	0.474	2000	220
343	0.9	0.474	2370	230
353	0.9	0.474	2720	350
333	0.9	0.545	2010	190
343	0.9	0.545	2460	220
353	0.9	0.545	2820	280
333	0.9	0.598	2000	190
343	0.9	0.598	2500	220
353	0.9	0.598	2860	280
333	0.9	0.655	2000	190
343	0.9	0.655	2500	220
353	0.9	0.655	2900	240
333	0.9	0.77	2010	190
343	0.9	0.77	2520	220
353	0.9	0.77	3000	250
333	0.9	0.816	2020	190
343	0.9	0.816	2520	220
353	0.9	0.816	3020	250
333	0.875	0.111	950	140
338	0.875	0.111	1000	200
343	0.875	0.111	1130	150
353	0.875	0.111	1300	150
333	0.875	0.2	1400	160
338	0.875	0.2	1500	160
343	0.875	0.2	1660	170
353	0.875	0.2	1950	190
333	0.875	0.273	1620	170
338	0.875	0.273	1800	180
343	0.875	0.273	1960	190
353	0.875	0.273	2300	210
333	0.875	0.333	1720	180
338	0.875	0.333	1910	190
343	0.875	0.333	2150	200
353	0.875	0.333	2500	220
333	0.875	0.434	1910	180
338	0.875	0.434	2050	190
343	0.875	0.434	2280	250
353	0.875	0.434	2700	230
333	0.875	0.529	2000	190
338	0.875	0.529	2120	200
343	0.875	0.529	2420	220
353	0.875	0.529	2890	240
333	0.875	0.65	2100	190
338	0.875	0.65	2200	200
343	0.875	0.65	2440	220
353	0.875	0.65	3010	290
333	0.875	0.704	2100	190
338	0.875	0.704	2240	200
343	0.875	0.704	2480	260
353	0.875	0.704	3030	260
333	0.875	0.75	2140	200
338	0.875	0.75	2270	200
343	0.875	0.75	2520	220
353	0.875	0.75	3030	250
333	0.875	0.807	2130	200
338	0.875	0.807	2320	210
343	0.875	0.807	2550	220
353	0.875	0.807	3040	250
333	0.833	0.25	1640	170
343	0.833	0.25	1920	190
353	0.833	0.25	2380	260
333	0.833	0.333	1940	190
343	0.833	0.333	2250	210
353	0.833	0.333	2700	270
333	0.833	0.4	2030	190
343	0.833	0.4	2380	210
353	0.833	0.4	2850	260
333	0.833	0.5	2160	200
343	0.833	0.5	2500	220
353	0.833	0.5	3000	250
333	0.833	0.6	2200	200
343	0.833	0.6	2530	220
353	0.833	0.6	3100	260
333	0.833	0.689	2230	210
343	0.833	0.689	2600	220
353	0.833	0.689	3200	260
333	0.833	0.76	2220	230
343	0.833	0.76	2630	250
353	0.833	0.76	3220	300
