Measured thermophysical data. Physics and chemistry of an ionic liquid in some industrially important  solvent media probed by physicochemical techniques
Source: J. Chem. Thermodyn., 2013, 10.1016/j.jct.2012.09.003
Compound 1: tetrabutylphosphonium tetrafluoroborate, C16H36BF4P, InChI=1S/C16H36P.BF4/c1-5-9-13-17(14-10-6-2,15-11-7-3)16-12-8-4;2-1(3,4)5/h5-16H2,1-4H3;/q+1;-1, purity 99%
Compound 2: dimethyl sulfoxide, C2H6OS, InChI=1S/C2H6OS/c1-4(2)3/h1-2H3, purity 99%
Compound 3: N,N-dimethylethanamide, C4H9NO, InChI=1S/C4H9NO/c1-4(6)5(2)3/h1-3H3, purity 99%
Compound 4: dimethylformamide, C3H7NO, InChI=1S/C3H7NO/c1-4(2)3-5/h3H,1-2H3, purity 99%

System: dimethyl sulfoxide; phases: Liquid
Property: Mass density, kg/m3 (Liquid); method: Vibrating tube method
Temperature, K	Pressure, kPa	Mass density, kg/m3	uncertainty
298.15	101.325	1096.02	0.31

System: dimethyl sulfoxide; phases: Liquid
Property: Viscosity, Pa*s (Liquid); method: Capillary tube (Ostwald; Ubbelohde) method
Temperature, K	Pressure, kPa	Viscosity, Pa*s	uncertainty
298.15	101.325	0.001946	1.7e-05

System: dimethyl sulfoxide; phases: Liquid
Property: Speed of sound, m/s (Liquid); method: Linear variable-path acoustic interferometer
Temperature, K	Pressure, kPa	Speed of sound, m/s	uncertainty
298.15	101.325	1490.8	2.1

System: N,N-dimethylethanamide; phases: Liquid
Property: Mass density, kg/m3 (Liquid); method: Vibrating tube method
Temperature, K	Pressure, kPa	Mass density, kg/m3	uncertainty
298.15	101.325	936.8	0.23

System: N,N-dimethylethanamide; phases: Liquid
Property: Viscosity, Pa*s (Liquid); method: Capillary tube (Ostwald; Ubbelohde) method
Temperature, K	Pressure, kPa	Viscosity, Pa*s	uncertainty
298.15	101.325	0.000923	1e-05

System: N,N-dimethylethanamide; phases: Liquid
Property: Speed of sound, m/s (Liquid); method: Linear variable-path acoustic interferometer
Temperature, K	Pressure, kPa	Speed of sound, m/s	uncertainty
298.15	101.325	1458.5	2

System: dimethylformamide; phases: Liquid
Property: Mass density, kg/m3 (Liquid); method: Vibrating tube method
Temperature, K	Pressure, kPa	Mass density, kg/m3	uncertainty
298.15	101.325	944.5	0.23

System: dimethylformamide; phases: Liquid
Property: Viscosity, Pa*s (Liquid); method: Capillary tube (Ostwald; Ubbelohde) method
Temperature, K	Pressure, kPa	Viscosity, Pa*s	uncertainty
298.15	101.325	0.000794	9e-06

System: dimethylformamide; phases: Liquid
Property: Speed of sound, m/s (Liquid); method: Linear variable-path acoustic interferometer
Temperature, K	Pressure, kPa	Speed of sound, m/s	uncertainty
298.15	101.325	1451.7	2

System: dimethyl sulfoxide + tetrabutylphosphonium tetrafluoroborate; phases: Liquid
Fixed: Temperature, K = 298.15
Fixed: Pressure, kPa = 101
Property: Mass density, kg/m3 (Liquid); method: Vibrating tube method
Amount concentration (molarity), mol/dm3 of tetrabutylphosphonium tetrafluoroborate	Mass density, kg/m3	uncertainty
0.0046	1096.05	0.31
0.0184	1096.4	0.3
0.0323	1097.02	0.31
0.0463	1097.84	0.31
0.0604	1098.83	0.32
0.0746	1099.98	0.32

System: dimethyl sulfoxide + tetrabutylphosphonium tetrafluoroborate; phases: Liquid
Fixed: Temperature, K = 298.15
Fixed: Pressure, kPa = 101
Property: Viscosity, Pa*s (Liquid); method: Capillary tube (Ostwald; Ubbelohde) method
Amount concentration (molarity), mol/dm3 of tetrabutylphosphonium tetrafluoroborate	Viscosity, Pa*s	uncertainty
0.0046	0.001952	1.7e-05
0.0184	0.001982	1.8e-05
0.0323	0.002015	1.8e-05
0.0463	0.002049	1.8e-05
0.0604	0.002085	1.8e-05
0.0746	0.00212	1.9e-05

System: dimethyl sulfoxide + tetrabutylphosphonium tetrafluoroborate; phases: Liquid
Fixed: Temperature, K = 298.15
Fixed: Pressure, kPa = 101
Property: Speed of sound, m/s (Liquid); method: Linear variable-path acoustic interferometer
Amount concentration (molarity), mol/dm3 of tetrabutylphosphonium tetrafluoroborate	Speed of sound, m/s	uncertainty
0.0046	1492.7	2.1
0.0184	1501.5	2.1
0.0323	1513.7	2.1
0.0463	1527.9	2.1
0.0604	1544.5	2.1
0.0746	1564.6	2.2

System: N,N-dimethylethanamide + tetrabutylphosphonium tetrafluoroborate; phases: Liquid
Fixed: Temperature, K = 298.15
Fixed: Pressure, kPa = 101
Property: Mass density, kg/m3 (Liquid); method: Vibrating tube method
Amount concentration (molarity), mol/dm3 of tetrabutylphosphonium tetrafluoroborate	Mass density, kg/m3	uncertainty
0.0053	937.22	0.24
0.0215	938.69	0.24
0.0377	940.34	0.24
0.0541	942.13	0.24
0.0705	944.01	0.24
0.0871	945.94	0.24

System: N,N-dimethylethanamide + tetrabutylphosphonium tetrafluoroborate; phases: Liquid
Fixed: Temperature, K = 298.15
Fixed: Pressure, kPa = 101
Property: Viscosity, Pa*s (Liquid); method: Capillary tube (Ostwald; Ubbelohde) method
Amount concentration (molarity), mol/dm3 of tetrabutylphosphonium tetrafluoroborate	Viscosity, Pa*s	uncertainty
0.0053	0.00093	1e-05
0.0215	0.000949	1e-05
0.0377	0.000968	1e-05
0.0541	0.000987	1e-05
0.0705	0.001007	1e-05
0.0871	0.001028	1e-05

System: N,N-dimethylethanamide + tetrabutylphosphonium tetrafluoroborate; phases: Liquid
Fixed: Temperature, K = 298.15
Fixed: Pressure, kPa = 101
Property: Speed of sound, m/s (Liquid); method: Linear variable-path acoustic interferometer
Amount concentration (molarity), mol/dm3 of tetrabutylphosphonium tetrafluoroborate	Speed of sound, m/s	uncertainty
0.0053	1461.8	2.1
0.0215	1473.5	2.1
0.0377	1486.9	2.1
0.0541	1501.6	2.1
0.0705	1517.8	2.1
0.0871	1536.3	2.1

System: dimethylformamide + tetrabutylphosphonium tetrafluoroborate; phases: Liquid
Fixed: Temperature, K = 298.15
Fixed: Pressure, kPa = 101
Property: Mass density, kg/m3 (Liquid); method: Vibrating tube method
Amount concentration (molarity), mol/dm3 of tetrabutylphosphonium tetrafluoroborate	Mass density, kg/m3	uncertainty
0.0053	944.98	0.24
0.0213	946.61	0.24
0.0374	948.4	0.2
0.0536	950.34	0.24
0.0699	952.4	0.2
0.0863	954.5	0.2

System: dimethylformamide + tetrabutylphosphonium tetrafluoroborate; phases: Liquid
Fixed: Temperature, K = 298.15
Fixed: Pressure, kPa = 101
Property: Viscosity, Pa*s (Liquid); method: Capillary tube (Ostwald; Ubbelohde) method
Amount concentration (molarity), mol/dm3 of tetrabutylphosphonium tetrafluoroborate	Viscosity, Pa*s	uncertainty
0.0053	0.000802	9e-06
0.0213	0.00082	9e-06
0.0374	0.000837	9e-06
0.0536	0.000854	9e-06
0.0699	0.000871	1e-05
0.0729	0.000889	1e-05

System: dimethylformamide + tetrabutylphosphonium tetrafluoroborate; phases: Liquid
Fixed: Temperature, K = 298.15
Fixed: Pressure, kPa = 101
Property: Speed of sound, m/s (Liquid); method: Linear variable-path acoustic interferometer
Amount concentration (molarity), mol/dm3 of tetrabutylphosphonium tetrafluoroborate	Speed of sound, m/s	uncertainty
0.0053	1455.6	2.1
0.0213	1468.7	2.1
0.0374	1483.2	2.1
0.0536	1498.6	2.1
0.0699	1515.4	2.1
0.0863	1533.8	2.1
