Measured thermophysical data. Vapour-phase (p,rho,T,x) behaviour and virial coefficients for the (ethane + carbon dioxide) system
Source: J. Chem. Thermodyn., 2018, 10.1016/j.jct.2018.02.021
Compound 1: ethane, C2H6, InChI=1S/C2H6/c1-2/h1-2H3, purity 99.999%
Compound 2: carbon dioxide, CO2, InChI=1S/CO2/c2-1-3, purity 99.9995%

System: ethane + carbon dioxide; phases: Gas
Property: Mass density, kg/m3 (Gas); method: Buoyancy - hydrostatic balance with magnetic suspension - two sinkers
Mole fraction of ethane	Temperature, K	Pressure, kPa	Mass density, kg/m3	uncertainty
0.05023	273.15	3053.06	77.9966	0.0297
0.05023	273.15	2562.23	61.2253	0.0239
0.05023	273.15	2061.98	46.5645	0.0189
0.05023	273.15	1075.75	22.195	0.0095
0.05023	273.15	551.38	10.9267	0.005
0.05023	283.15	4045.69	108.543	0.042
0.05023	283.15	3546.15	88.2259	0.0327
0.05023	283.15	3029.92	70.7861	0.0285
0.05023	283.15	2025.92	42.9555	0.018
0.05023	283.15	1030	20.2371	0.0086
0.05023	283.15	519.18	9.86023	0.00467
0.05023	323.15	6013.83	133.393	0.049
0.05023	323.15	5061.41	104.85	0.039
0.05023	323.15	4049.92	78.8065	0.0298
0.05023	323.15	3038.66	55.972	0.0214
0.05023	323.15	2039.41	35.7934	0.0138
0.05023	323.15	1024.9	17.2074	0.0072
0.05023	323.15	524.46	8.6271	0.00425
0.20031	273.15	3507.18	92.6352	0.0358
0.20031	273.15	3037.88	73.9838	0.0285
0.20031	273.15	2035.55	43.7371	0.0171
0.20031	273.15	1027.58	20.1219	0.0083
0.20031	273.15	534.79	10.0789	0.0048
0.20031	273.15	3489.36	91.84	0.0355
0.20031	273.15	3488.71	91.8117	0.0355
0.20031	273.15	3488.18	91.7868	0.0355
0.20031	273.15	3480.57	91.4391	0.0354
0.20031	273.15	3480.58	91.4331	0.0354
0.20031	273.15	3507.24	92.638	0.0358
0.20031	273.15	3037.29	73.9637	0.0291
0.20031	273.15	2035.09	43.7258	0.0179
0.20031	273.15	1023.8	20.0462	0.0086
0.20031	273.15	1024.64	20.0627	0.0086
0.20031	273.15	1025.37	20.0779	0.0086
0.20031	273.15	1037.44	20.3384	0.0087
0.20031	273.15	1037.85	20.347	0.0087
0.20031	273.15	1026.62	20.1024	0.0086
0.20031	273.15	1027.05	20.1108	0.0086
0.20031	273.15	531.09	10.008	0.0049
0.20031	273.15	531.52	10.0165	0.0049
0.20031	273.15	531.92	10.0243	0.0049
0.20031	273.15	544.52	10.2735	0.005
0.20031	273.15	544.86	10.2801	0.005
0.20031	273.15	534.39	10.0711	0.0049
0.20031	273.15	535.19	10.087	0.0049
0.20031	273.15	535.63	10.0955	0.0049
0.20031	283.15	4821.73	148.288	0.084
0.20031	283.15	4730.87	141.359	0.074
0.20031	283.15	4602.71	132.714	0.054
0.20031	283.15	4501.8	126.607	0.05
0.20031	283.15	4069.81	104.912	0.041
0.20031	283.15	3042.79	68.0188	0.0259
0.20031	283.15	2038.11	41.2701	0.016
0.20031	283.15	1041.52	19.5141	0.0081
0.20031	283.15	518.17	9.36982	0.00457
0.20031	293.15	5020.76	133.141	0.052
0.20031	293.15	4055.42	93.5899	0.0368
0.20031	293.15	3042.07	63.2873	0.0246
0.20031	293.15	2026.93	38.8656	0.0156
0.20031	293.15	1034.28	18.5618	0.0079
0.20031	293.15	519.57	9.04307	0.00445
0.49954	273.15	3054.36	70.1143	0.0274
0.49954	273.15	2554.04	53.9302	0.0214
0.49954	273.15	2050.76	40.4917	0.0157
0.49954	273.15	1051.48	18.6959	0.0076
0.49954	273.15	548.14	9.33133	0.00458
0.49954	283.15	4013.1	98.6426	0.0393
0.49954	283.15	3550.26	79.7057	0.0316
0.49954	283.15	3032.75	62.9635	0.0239
0.49954	283.15	2018.13	37.3012	0.0145
0.49954	283.15	1031.67	17.4887	0.0073
0.49954	283.15	538.66	8.79999	0.00438
0.49954	293.15	5019.28	131.598	0.055
0.49954	293.15	4555.25	107.86	0.044
0.49954	293.15	4051.49	88.2376	0.0347
0.49954	293.15	3032.63	58.2406	0.0227
0.49954	293.15	2045.79	35.8484	0.014
0.49954	293.15	1026.06	16.6496	0.0071
0.49954	293.15	525.66	8.25163	0.00421
0.49954	308.15	5013.94	105.639	0.042
0.49954	308.15	4551.47	90.9786	0.0373
0.49954	308.15	4038.27	76.6788	0.0294
0.49954	308.15	3050.59	53.2563	0.0207
0.49954	308.15	2034.45	33.0477	0.0129
0.49954	308.15	1040.92	15.9143	0.0068
0.49954	308.15	542.53	8.06912	0.00416
0.49954	323.15	5982.24	119.675	0.047
0.49954	323.15	5024.59	92.5708	0.0354
0.49954	323.15	4027.37	68.9564	0.0265
0.49954	323.15	3036.38	48.806	0.0186
0.49954	323.15	2040.16	31.0101	0.0121
0.49954	323.15	1024.37	14.7964	0.0064
0.49954	323.15	543.73	7.68033	0.00412
