Measured thermophysical data. Molar excess enthalpies of binary mixtures of [tributyl phosphate + {CH3(CH2)nOH (n = 0 to 3)}] at 298.15 K
Source: J. Chem. Thermodyn., 2007, 10.1016/j.jct.2006.08.001
Compound 1: tributyl phosphate, C12H27O4P, InChI=1S/C12H27O4P/c1-4-7-10-14-17(13,15-11-8-5-2)16-12-9-6-3/h4-12H2,1-3H3, purity 99%
Compound 2: methanol, CH4O, InChI=1S/CH4O/c1-2/h2H,1H3, purity 99.5%
Compound 3: ethanol, C2H6O, InChI=1S/C2H6O/c1-2-3/h3H,2H2,1H3, purity 99.5%
Compound 4: propan-1-ol, C3H8O, InChI=1S/C3H8O/c1-2-3-4/h4H,2-3H2,1H3, purity 99.8%
Compound 5: butan-1-ol, C4H10O, InChI=1S/C4H10O/c1-2-3-4-5/h5H,2-4H2,1H3, purity 99.8%

System: methanol + tributyl phosphate; phases: Liquid
Fixed: Temperature, K = 298.15
Fixed: Pressure, kPa = 101
Property: Excess molar enthalpy (molar enthalpy of mixing), kJ/mol (Liquid); method: CALVET:UFactor:6
Mole fraction of tributyl phosphate	Excess molar enthalpy (molar enthalpy of mixing), kJ/mol	uncertainty
0.0472	-0.02533	0.00752
0.1316	-0.06216	0.00973
0.154	-0.08186	0.01091
0.1826	-0.10085	0.01205
0.2168	-0.12005	0.0132
0.2825	-0.18107	0.01686
0.3736	-0.23811	0.02029
0.457	-0.26864	0.02212
0.5719	-0.29617	0.02377
0.6476	-0.2897	0.02338
0.6478	-0.27868	0.02272
0.7388	-0.25605	0.02136
0.7924	-0.20749	0.01845
0.8533	-0.1772	0.01663
0.9216	-0.13029	0.01382

System: ethanol + tributyl phosphate; phases: Liquid
Fixed: Temperature, K = 298.15
Fixed: Pressure, kPa = 101
Property: Excess molar enthalpy (molar enthalpy of mixing), kJ/mol (Liquid); method: CALVET:UFactor:8
Mole fraction of tributyl phosphate	Excess molar enthalpy (molar enthalpy of mixing), kJ/mol	uncertainty
0.0174	0.01008	0.00881
0.0671	0.03708	0.01097
0.1231	0.06302	0.01304
0.1753	0.12082	0.01767
0.2147	0.14162	0.01933
0.2413	0.14429	0.01954
0.2419	0.14333	0.01947
0.2817	0.14486	0.01959
0.2827	0.14296	0.01944
0.2833	0.14505	0.0196
0.3313	0.14716	0.01977
0.332	0.1447	0.01958
0.3892	0.12851	0.01828
0.3921	0.12611	0.01809
0.4593	0.10429	0.01634
0.546	0.06584	0.01327
0.5461	0.06537	0.01323
0.5965	0.05036	0.01203
0.7236	0.01675	0.00934
0.8448	0.00735	0.00859
0.8921	-0.0043	0.00834
0.9437	-0.0063	0.0085

System: propan-1-ol + tributyl phosphate; phases: Liquid
Fixed: Temperature, K = 298.15
Fixed: Pressure, kPa = 101
Property: Excess molar enthalpy (molar enthalpy of mixing), kJ/mol (Liquid); method: CALVET:UFactor:6
Mole fraction of tributyl phosphate	Excess molar enthalpy (molar enthalpy of mixing), kJ/mol	uncertainty
0.0376	0.04654	0.00879
0.0834	0.10245	0.01215
0.128	0.13297	0.01398
0.1755	0.16031	0.01562
0.2154	0.20192	0.01812
0.2157	0.19241	0.01754
0.2507	0.21007	0.0186
0.2915	0.21855	0.01911
0.3371	0.20755	0.01845
0.4193	0.18839	0.0173
0.4861	0.14723	0.01483
0.5636	0.11262	0.01276
0.6321	0.07702	0.01062
0.7407	0.03767	0.00826
0.8388	0.01721	0.00703
0.9559	0.01083	0.00665

System: butan-1-ol + tributyl phosphate; phases: Liquid
Fixed: Temperature, K = 298.15
Fixed: Pressure, kPa = 101
Property: Excess molar enthalpy (molar enthalpy of mixing), kJ/mol (Liquid); method: CALVET:UFactor:6
Mole fraction of butan-1-ol	Excess molar enthalpy (molar enthalpy of mixing), kJ/mol	uncertainty
0.0265	0.04686	0.00881
0.0612	0.1036	0.01222
0.1007	0.1547	0.01528
0.1326	0.19319	0.01759
0.1835	0.23957	0.02037
0.2337	0.25516	0.02131
0.2518	0.26881	0.02213
0.2711	0.28125	0.02288
0.2913	0.27604	0.02256
0.2918	0.2743	0.02246
0.3355	0.26196	0.02172
0.3364	0.27171	0.0223
0.3847	0.25963	0.02158
0.4399	0.23427	0.02006
0.5024	0.19101	0.01746
0.5734	0.15587	0.01535
0.6559	0.11253	0.01275
0.7519	0.05685	0.00941
0.8649	0.0315	0.00789
0.9292	0.01401	0.00684
0.9328	0.00999	0.0066
