Measured thermophysical data. Activity coefficients at infinite dilution of organic solutes in 1-hexyl-3- methylimidazolium trifluoroacetate and influence of interfacial adsorption using gas liquid chromatography
Source: J. Chem. Thermodyn., 2014, 10.1016/j.jct.2013.10.038
Compound 1: hexane, C6H14, InChI=1S/C6H14/c1-3-5-6-4-2/h3-6H2,1-2H3, purity 99%
Compound 2: heptane, C7H16, InChI=1S/C7H16/c1-3-5-7-6-4-2/h3-7H2,1-2H3, purity 99%
Compound 3: octane, C8H18, InChI=1S/C8H18/c1-3-5-7-8-6-4-2/h3-8H2,1-2H3, purity 99%
Compound 4: nonane, C9H20, InChI=1S/C9H20/c1-3-5-7-9-8-6-4-2/h3-9H2,1-2H3, purity 99%
Compound 5: 2,2,4-trimethylpentane, C8H18, InChI=1S/C8H18/c1-7(2)6-8(3,4)5/h7H,6H2,1-5H3, purity 99%
Compound 6: cyclohexane, C6H12, InChI=1S/C6H12/c1-2-4-6-5-3-1/h1-6H2, purity 99%
Compound 7: methylcyclohexane, C7H14, InChI=1S/C7H14/c1-7-5-3-2-4-6-7/h7H,2-6H2,1H3, purity 99%
Compound 8: benzene, C6H6, InChI=1S/C6H6/c1-2-4-6-5-3-1/h1-6H, purity 99%
Compound 9: toluene, C7H8, InChI=1S/C7H8/c1-7-5-3-2-4-6-7/h2-6H,1H3, purity 99%
Compound 10: ethylbenzene, C8H10, InChI=1S/C8H10/c1-2-8-6-4-3-5-7-8/h3-7H,2H2,1H3, purity 99%
Compound 11: 1,2-dimethylbenzene, C8H10, InChI=1S/C8H10/c1-7-5-3-4-6-8(7)2/h3-6H,1-2H3, purity 99%
Compound 12: 1,3-dimethylbenzene, C8H10, InChI=1S/C8H10/c1-7-4-3-5-8(2)6-7/h3-6H,1-2H3, purity 99%
Compound 13: 1,4-dimethylbenzene, C8H10, InChI=1S/C8H10/c1-7-3-5-8(2)6-4-7/h3-6H,1-2H3, purity 99%
Compound 14: methanol, CH4O, InChI=1S/CH4O/c1-2/h2H,1H3, purity 99%
Compound 15: ethanol, C2H6O, InChI=1S/C2H6O/c1-2-3/h3H,2H2,1H3, purity 99%
Compound 16: propan-1-ol, C3H8O, InChI=1S/C3H8O/c1-2-3-4/h4H,2-3H2,1H3, purity 99%
Compound 17: propan-2-ol, C3H8O, InChI=1S/C3H8O/c1-3(2)4/h3-4H,1-2H3, purity 99%
Compound 18: 2-methyl-1-propanol, C4H10O, InChI=1S/C4H10O/c1-4(2)3-5/h4-5H,3H2,1-2H3, purity 99%
Compound 19: acetonitrile, C2H3N, InChI=1S/C2H3N/c1-2-3/h1H3, purity 99%
Compound 20: ethyl acetate, C4H8O2, InChI=1S/C4H8O2/c1-3-6-4(2)5/h3H2,1-2H3, purity 99%
Compound 21: acetone, C3H6O, InChI=1S/C3H6O/c1-3(2)4/h1-2H3, purity 99%
Compound 22: tetrahydrofuran, C4H8O, InChI=1S/C4H8O/c1-2-4-5-3-1/h1-4H2, purity 99%
Compound 23: 1,4-dioxane, C4H8O2, InChI=1S/C4H8O2/c1-2-6-4-3-5-1/h1-4H2, purity 99%
Compound 24: dichloromethane, CH2Cl2, InChI=1S/CH2Cl2/c2-1-3/h1H2, purity 99%
Compound 25: trichloromethane, CHCl3, InChI=1S/CHCl3/c2-1(3)4/h1H, purity 99%
Compound 26: tetrachloromethane, CCl4, InChI=1S/CCl4/c2-1(3,4)5, purity 99%
Compound 27: 1,2-dichloroethane, C2H4Cl2, InChI=1S/C2H4Cl2/c3-1-2-4/h1-2H2, purity 99%
Compound 28: chlorobenzene, C6H5Cl, InChI=1S/C6H5Cl/c7-6-4-2-1-3-5-6/h1-5H, purity 99%
Compound 29: bromobenzene, C6H5Br, InChI=1S/C6H5Br/c7-6-4-2-1-3-5-6/h1-5H, purity 99%
Compound 30: cyclohexene, C6H10, InChI=1S/C6H10/c1-2-4-6-5-3-1/h1-2H,3-6H2, purity 99%
Compound 31: styrene, C8H8, InChI=1S/C8H8/c1-2-8-6-4-3-5-7-8/h2-7H,1H2, purity 99%
Compound 32: 1-hexyl-3-methylimidazolium trifluoroacetate, C12H19F3N2O2, InChI=1S/C10H19N2.C2HF3O2/c1-3-4-5-6-7-12-9-8-11(2)10-12;3-2(4,5)1(6)7/h8-10H,3-7H2,1-2H3;(H,6,7)/q+1;/p-1, purity 99.5%

System: 1-hexyl-3-methylimidazolium trifluoroacetate; phases: Liquid
Fixed: Pressure, kPa = 101.325
Property: Mass density, kg/m3 (Liquid); method: Pycnometric method
Temperature, K	Mass density, kg/m3	uncertainty
293.15	1153.5	1.1
303.15	1146.6	1.1
313.15	1140.7	1.1
323.15	1134.4	1.1
333.15	1127.8	1.1
343.15	1121.6	1.1

System: hexane + 1-hexyl-3-methylimidazolium trifluoroacetate; phases: Liquid
Property: Activity coefficient of hexane (Liquid); method: Chromatography
Temperature, K	Pressure, kPa	Mole fraction of hexane	Activity coefficient of hexane	uncertainty
323.15	101	0	28.97	3.05

System: heptane + 1-hexyl-3-methylimidazolium trifluoroacetate; phases: Liquid
Property: Activity coefficient of heptane (Liquid); method: Chromatography
Temperature, K	Pressure, kPa	Mole fraction of heptane	Activity coefficient of heptane	uncertainty
323.15	101	0	26.98	2.84

System: octane + 1-hexyl-3-methylimidazolium trifluoroacetate; phases: Liquid
Property: Activity coefficient of octane (Liquid); method: Chromatography
Temperature, K	Pressure, kPa	Mole fraction of octane	Activity coefficient of octane	uncertainty
323.15	101	0	49.62	5.22

System: nonane + 1-hexyl-3-methylimidazolium trifluoroacetate; phases: Liquid
Property: Activity coefficient of nonane (Liquid); method: Chromatography
Temperature, K	Pressure, kPa	Mole fraction of nonane	Activity coefficient of nonane	uncertainty
323.15	101	0	64.25	6.77

System: 2,2,4-trimethylpentane + 1-hexyl-3-methylimidazolium trifluoroacetate; phases: Liquid
Property: Activity coefficient of 2,2,4-trimethylpentane (Liquid); method: Chromatography
Temperature, K	Pressure, kPa	Mole fraction of 2,2,4-trimethylpentane	Activity coefficient of 2,2,4-trimethylpentane	uncertainty
323.15	101	0	46.78	4.93

System: cyclohexane + 1-hexyl-3-methylimidazolium trifluoroacetate; phases: Liquid
Property: Activity coefficient of cyclohexane (Liquid); method: Chromatography
Temperature, K	Pressure, kPa	Mole fraction of cyclohexane	Activity coefficient of cyclohexane	uncertainty
323.15	101	0	16.9	1.78

System: methylcyclohexane + 1-hexyl-3-methylimidazolium trifluoroacetate; phases: Liquid
Property: Activity coefficient of methylcyclohexane (Liquid); method: Chromatography
Temperature, K	Pressure, kPa	Mole fraction of methylcyclohexane	Activity coefficient of methylcyclohexane	uncertainty
323.15	101	0	19.79	2.08

System: benzene + 1-hexyl-3-methylimidazolium trifluoroacetate; phases: Liquid
Fixed: Pressure, kPa = 101
Fixed: Mole fraction of benzene = 0
Property: Activity coefficient of benzene (Liquid); method: Chromatography
Temperature, K	Activity coefficient of benzene	uncertainty
303.15	2.05	0.22
313.15	2.07	0.22
323.15	2.09	0.22
333.15	2.1	0.22
343.15	2.12	0.22
353.15	2.13	0.22
363.15	2.14	0.22

System: toluene + 1-hexyl-3-methylimidazolium trifluoroacetate; phases: Liquid
Fixed: Pressure, kPa = 101
Fixed: Mole fraction of toluene = 0
Property: Activity coefficient of toluene (Liquid); method: Chromatography
Temperature, K	Activity coefficient of toluene	uncertainty
303.15	2.97	0.31
313.15	3.02	0.32
323.15	3.06	0.32
333.15	3.1	0.33
343.15	3.14	0.33
353.15	3.17	0.33
363.15	3.2	0.34

System: ethylbenzene + 1-hexyl-3-methylimidazolium trifluoroacetate; phases: Liquid
Fixed: Pressure, kPa = 101
Fixed: Mole fraction of ethylbenzene = 0
Property: Activity coefficient of ethylbenzene (Liquid); method: Chromatography
Temperature, K	Activity coefficient of ethylbenzene	uncertainty
303.15	4.1	0.43
313.15	4.16	0.44
323.15	4.22	0.44
333.15	4.25	0.45
343.15	4.32	0.45
353.15	4.34	0.46
363.15	4.36	0.46

System: 1,2-dimethylbenzene + 1-hexyl-3-methylimidazolium trifluoroacetate; phases: Liquid
Fixed: Pressure, kPa = 101
Fixed: Mole fraction of 1,2-dimethylbenzene = 0
Property: Activity coefficient of 1,2-dimethylbenzene (Liquid); method: Chromatography
Temperature, K	Activity coefficient of 1,2-dimethylbenzene	uncertainty
303.15	3.54	0.37
313.15	3.67	0.39
323.15	3.83	0.4
333.15	3.98	0.42
343.15	4.1	0.43
353.15	4.13	0.43
363.15	4.53	0.48

System: 1,3-dimethylbenzene + 1-hexyl-3-methylimidazolium trifluoroacetate; phases: Liquid
Fixed: Pressure, kPa = 101
Fixed: Mole fraction of 1,3-dimethylbenzene = 0
Property: Activity coefficient of 1,3-dimethylbenzene (Liquid); method: Chromatography
Temperature, K	Activity coefficient of 1,3-dimethylbenzene	uncertainty
303.15	4.19	0.44
313.15	4.25	0.45
323.15	4.34	0.46
333.15	4.39	0.46
343.15	4.42	0.46
353.15	4.53	0.48
363.15	4.56	0.48

System: 1,4-dimethylbenzene + 1-hexyl-3-methylimidazolium trifluoroacetate; phases: Liquid
Fixed: Pressure, kPa = 101
Fixed: Mole fraction of 1,4-dimethylbenzene = 0
Property: Activity coefficient of 1,4-dimethylbenzene (Liquid); method: Chromatography
Temperature, K	Activity coefficient of 1,4-dimethylbenzene	uncertainty
303.15	4.12	0.43
313.15	4.18	0.44
323.15	4.24	0.45
333.15	4.29	0.45
343.15	4.32	0.45
353.15	4.42	0.46
363.15	4.43	0.47

System: methanol + 1-hexyl-3-methylimidazolium trifluoroacetate; phases: Liquid
Fixed: Pressure, kPa = 101
Fixed: Mole fraction of methanol = 0
Property: Activity coefficient of methanol (Liquid); method: Chromatography
Temperature, K	Activity coefficient of methanol	uncertainty
303.15	0.1	0.03
313.15	0.11	0.03
323.15	0.12	0.03
333.15	0.13	0.03
343.15	0.13	0.03
353.15	0.16	0.03
363.15	0.16	0.03

System: ethanol + 1-hexyl-3-methylimidazolium trifluoroacetate; phases: Liquid
Fixed: Pressure, kPa = 101
Fixed: Mole fraction of ethanol = 0
Property: Activity coefficient of ethanol (Liquid); method: Chromatography
Temperature, K	Activity coefficient of ethanol	uncertainty
303.15	0.21	0.03
313.15	0.22	0.03
323.15	0.22	0.03
333.15	0.23	0.04
343.15	0.24	0.04
353.15	0.26	0.04
363.15	0.27	0.04

System: propan-1-ol + 1-hexyl-3-methylimidazolium trifluoroacetate; phases: Liquid
Fixed: Pressure, kPa = 101
Fixed: Mole fraction of propan-1-ol = 0
Property: Activity coefficient of propan-1-ol (Liquid); method: Chromatography
Temperature, K	Activity coefficient of propan-1-ol	uncertainty
313.15	0.24	0.04
323.15	0.25	0.04
333.15	0.26	0.04
343.15	0.27	0.04
353.15	0.29	0.04
363.15	0.31	0.04

System: propan-2-ol + 1-hexyl-3-methylimidazolium trifluoroacetate; phases: Liquid
Fixed: Pressure, kPa = 101
Fixed: Mole fraction of propan-2-ol = 0
Property: Activity coefficient of propan-2-ol (Liquid); method: Chromatography
Temperature, K	Activity coefficient of propan-2-ol	uncertainty
303.15	0.34	0.04
313.15	0.35	0.04
323.15	0.36	0.04
333.15	0.38	0.05
343.15	0.39	0.05
353.15	0.4	0.05
363.15	0.42	0.05

System: 2-methyl-1-propanol + 1-hexyl-3-methylimidazolium trifluoroacetate; phases: Liquid
Fixed: Pressure, kPa = 101
Fixed: Mole fraction of 2-methyl-1-propanol = 0
Property: Activity coefficient of 2-methyl-1-propanol (Liquid); method: Chromatography
Temperature, K	Activity coefficient of 2-methyl-1-propanol	uncertainty
323.15	0.29	0.04
333.15	0.3	0.04
343.15	0.3	0.04
353.15	0.31	0.04
363.15	0.31	0.04

System: acetonitrile + 1-hexyl-3-methylimidazolium trifluoroacetate; phases: Liquid
Fixed: Pressure, kPa = 101
Fixed: Mole fraction of acetonitrile = 0
Property: Activity coefficient of acetonitrile (Liquid); method: Chromatography
Temperature, K	Activity coefficient of acetonitrile	uncertainty
303.15	1.01	0.1
313.15	1.05	0.11
323.15	1.11	0.11
333.15	1.16	0.12
343.15	1.22	0.13
353.15	1.28	0.13
363.15	1.32	0.14

System: ethyl acetate + 1-hexyl-3-methylimidazolium trifluoroacetate; phases: Liquid
Fixed: Pressure, kPa = 101
Fixed: Mole fraction of ethyl acetate = 0
Property: Activity coefficient of ethyl acetate (Liquid); method: Chromatography
Temperature, K	Activity coefficient of ethyl acetate	uncertainty
303.15	2.64	0.28
313.15	2.8	0.29
323.15	2.91	0.31
333.15	3.02	0.32
343.15	3.12	0.33
353.15	3.15	0.33
363.15	3.44	0.36

System: acetone + 1-hexyl-3-methylimidazolium trifluoroacetate; phases: Liquid
Fixed: Pressure, kPa = 101
Fixed: Mole fraction of acetone = 0
Property: Activity coefficient of acetone (Liquid); method: Chromatography
Temperature, K	Activity coefficient of acetone	uncertainty
303.15	1.69	0.18
313.15	1.69	0.18
323.15	1.68	0.18
333.15	1.68	0.18
343.15	1.67	0.17
353.15	1.67	0.17
363.15	1.67	0.17

System: tetrahydrofuran + 1-hexyl-3-methylimidazolium trifluoroacetate; phases: Liquid
Fixed: Pressure, kPa = 101
Fixed: Mole fraction of tetrahydrofuran = 0
Property: Activity coefficient of tetrahydrofuran (Liquid); method: Chromatography
Temperature, K	Activity coefficient of tetrahydrofuran	uncertainty
303.15	1.95	0.2
313.15	1.96	0.21
323.15	1.98	0.21
333.15	2	0.21
343.15	2.02	0.21
353.15	2.02	0.21
363.15	2.05	0.22

System: 1,4-dioxane + 1-hexyl-3-methylimidazolium trifluoroacetate; phases: Liquid
Fixed: Pressure, kPa = 101
Fixed: Mole fraction of 1,4-dioxane = 0
Property: Activity coefficient of 1,4-dioxane (Liquid); method: Chromatography
Temperature, K	Activity coefficient of 1,4-dioxane	uncertainty
303.15	1.91	0.2
313.15	1.92	0.2
323.15	1.93	0.2
333.15	1.94	0.2
343.15	1.95	0.2
353.15	1.95	0.2
363.15	1.97	0.21

System: dichloromethane + 1-hexyl-3-methylimidazolium trifluoroacetate; phases: Liquid
Fixed: Pressure, kPa = 101
Fixed: Mole fraction of dichloromethane = 0
Property: Activity coefficient of dichloromethane (Liquid); method: Chromatography
Temperature, K	Activity coefficient of dichloromethane	uncertainty
303.15	0.64	0.07
313.15	0.65	0.07
323.15	0.67	0.07
333.15	0.68	0.07
343.15	0.7	0.07
353.15	0.72	0.08
363.15	0.73	0.08

System: trichloromethane + 1-hexyl-3-methylimidazolium trifluoroacetate; phases: Liquid
Fixed: Pressure, kPa = 101
Fixed: Mole fraction of trichloromethane = 0
Property: Activity coefficient of trichloromethane (Liquid); method: Chromatography
Temperature, K	Activity coefficient of trichloromethane	uncertainty
303.15	0.08	0.03
313.15	0.12	0.03
323.15	0.22	0.03
333.15	0.3	0.04
343.15	0.45	0.05
353.15	0.68	0.07
363.15	1.06	0.11

System: tetrachloromethane + 1-hexyl-3-methylimidazolium trifluoroacetate; phases: Liquid
Fixed: Pressure, kPa = 101
Fixed: Mole fraction of tetrachloromethane = 0
Property: Activity coefficient of tetrachloromethane (Liquid); method: Chromatography
Temperature, K	Activity coefficient of tetrachloromethane	uncertainty
303.15	0.62	0.07
313.15	0.7	0.07
323.15	0.8	0.08
333.15	0.91	0.09
343.15	1.02	0.1
353.15	1.19	0.12
363.15	1.32	0.14

System: 1,2-dichloroethane + 1-hexyl-3-methylimidazolium trifluoroacetate; phases: Liquid
Fixed: Pressure, kPa = 101
Fixed: Mole fraction of 1,2-dichloroethane = 0
Property: Activity coefficient of 1,2-dichloroethane (Liquid); method: Chromatography
Temperature, K	Activity coefficient of 1,2-dichloroethane	uncertainty
303.15	0.62	0.07
313.15	0.75	0.08
323.15	0.9	0.09
333.15	1.1	0.11
343.15	1.26	0.13
353.15	1.62	0.17
363.15	1.67	0.17

System: chlorobenzene + 1-hexyl-3-methylimidazolium trifluoroacetate; phases: Liquid
Fixed: Pressure, kPa = 101
Fixed: Mole fraction of chlorobenzene = 0
Property: Activity coefficient of chlorobenzene (Liquid); method: Chromatography
Temperature, K	Activity coefficient of chlorobenzene	uncertainty
303.15	2.27	0.24
313.15	2.26	0.24
323.15	2.24	0.24
333.15	2.22	0.23
343.15	2.2	0.23
353.15	2.2	0.23
363.15	2.2	0.23

System: bromobenzene + 1-hexyl-3-methylimidazolium trifluoroacetate; phases: Liquid
Fixed: Pressure, kPa = 101
Fixed: Mole fraction of bromobenzene = 0
Property: Activity coefficient of bromobenzene (Liquid); method: Chromatography
Temperature, K	Activity coefficient of bromobenzene	uncertainty
303.15	2.18	0.23
313.15	2.2	0.23
323.15	2.24	0.24
333.15	2.29	0.24
343.15	2.32	0.24
353.15	2.36	0.25
363.15	2.41	0.25

System: cyclohexene + 1-hexyl-3-methylimidazolium trifluoroacetate; phases: Liquid
Property: Activity coefficient of cyclohexene (Liquid); method: Chromatography
Temperature, K	Pressure, kPa	Mole fraction of cyclohexene	Activity coefficient of cyclohexene	uncertainty
323.15	101	0	9.6	1.01

System: styrene + 1-hexyl-3-methylimidazolium trifluoroacetate; phases: Liquid
Fixed: Pressure, kPa = 101
Fixed: Mole fraction of styrene = 0
Property: Activity coefficient of styrene (Liquid); method: Chromatography
Temperature, K	Activity coefficient of styrene	uncertainty
303.15	2.28	0.24
313.15	2.39	0.25
323.15	2.46	0.26
333.15	2.53	0.27
343.15	2.61	0.27
353.15	2.68	0.28
363.15	2.73	0.29
