Measured thermophysical data. Thermodynamic study of (heptane + amine) mixtures. III: Excess and partial  molar volumes in mixtures with secondary, tertiary, and cyclic amines at 298.15 K
Source: J. Chem. Thermodyn., 2011, 10.1016/j.jct.2011.04.017
Compound 1: heptane, C7H16, InChI=1S/C7H16/c1-3-5-7-6-4-2/h3-7H2,1-2H3, purity 99.5%
Compound 2: diethylamine, C4H11N, InChI=1S/C4H11N/c1-3-5-4-2/h5H,3-4H2,1-2H3, purity 99%
Compound 3: dipropylamine, C6H15N, InChI=1S/C6H15N/c1-3-5-7-6-4-2/h7H,3-6H2,1-2H3, purity 99%
Compound 4: dibutylamine, C8H19N, InChI=1S/C8H19N/c1-3-5-7-9-8-6-4-2/h9H,3-8H2,1-2H3, purity 99.5%
Compound 5: triethylamine, C6H15N, InChI=1S/C6H15N/c1-4-7(5-2)6-3/h4-6H2,1-3H3, purity 99.5%
Compound 6: tripropylamine, C9H21N, InChI=1S/C9H21N/c1-4-7-10(8-5-2)9-6-3/h4-9H2,1-3H3, purity 98%
Compound 7: tributylamine, C12H27N, InChI=1S/C12H27N/c1-4-7-10-13(11-8-5-2)12-9-6-3/h4-12H2,1-3H3, purity 99.5%
Compound 8: tripentylamine, C15H33N, InChI=1S/C15H33N/c1-4-7-10-13-16(14-11-8-5-2)15-12-9-6-3/h4-15H2,1-3H3, purity 98%
Compound 9: cyclopentanamine, C5H11N, InChI=1S/C5H11N/c6-5-3-1-2-4-5/h5H,1-4,6H2, purity 99%
Compound 10: cyclohexylamine, C6H13N, InChI=1S/C6H13N/c7-6-4-2-1-3-5-6/h6H,1-5,7H2, purity 99.5%
Compound 11: cycloheptanamine, C7H15N, InChI=1S/C7H15N/c8-7-5-3-1-2-4-6-7/h7H,1-6,8H2, purity 99.5%
Compound 12: cyclododecylamine, C12H25N, InChI=1S/C12H25N/c13-12-10-8-6-4-2-1-3-5-7-9-11-12/h12H,1-11,13H2, purity 98%
Compound 13: azacyclopropane, C2H5N, InChI=1S/C2H5N/c1-2-3-1/h3H,1-2H2, purity 98%
Compound 14: azacyclobutane, C3H7N, InChI=1S/C3H7N/c1-2-4-3-1/h4H,1-3H2, purity 99%
Compound 15: pyrrolidine, C4H9N, InChI=1S/C4H9N/c1-2-4-5-3-1/h5H,1-4H2, purity 99%
Compound 16: azacycloheptane, C6H13N, InChI=1S/C6H13N/c1-2-4-6-7-5-3-1/h7H,1-6H2, purity 97%
Compound 17: heptamethyleneimine, C7H15N, InChI=1S/C7H15N/c1-2-4-6-8-7-5-3-1/h8H,1-7H2, purity 97%

System: diethylamine + heptane; phases: Liquid
Fixed: Temperature, K = 298.15
Fixed: Pressure, kPa = 101
Property: Excess molar volume, m3/mol (Liquid); method: Calculated with densities of this investigation
Mole fraction of heptane	Excess molar volume, m3/mol	uncertainty
0.0357	8.8e-08	8e-09
0.0991	2.3e-07	9e-09
0.2048	4.16e-07	9e-09
0.3059	5.41e-07	1e-08
0.3961	6.08e-07	1e-08
0.5038	6.32e-07	1.1e-08
0.5075	6.34e-07	1.1e-08
0.5948	6.05e-07	1e-08
0.7008	5.3e-07	1e-08
0.8229	3.72e-07	9e-09
0.9072	2.17e-07	8e-09
0.9434	1.38e-07	8e-09

System: heptane + dipropylamine; phases: Liquid
Fixed: Temperature, K = 298.15
Fixed: Pressure, kPa = 101
Property: Excess molar volume, m3/mol (Liquid); method: Calculated with densities of this investigation
Mole fraction of heptane	Excess molar volume, m3/mol	uncertainty
0.0483	4.12e-08	7.9e-09
0.0927	7.92e-08	8e-09
0.2049	1.638e-07	8.2e-09
0.3009	2.18e-07	8.3e-09
0.4071	2.577e-07	8.3e-09
0.5033	2.736e-07	8.4e-09
0.602	2.686e-07	8.4e-09
0.6956	2.443e-07	8.3e-09
0.7744	2.075e-07	8.2e-09
0.8018	1.888e-07	8.2e-09
0.8343	1.673e-07	8.2e-09
0.8819	1.285e-07	8.1e-09
0.9356	7.3e-08	8e-09
0.951	5.64e-08	7.9e-09
0.9521	5.74e-08	7.9e-09
0.9701	3.46e-08	7.9e-09
0.9795	2.57e-08	7.9e-09
0.9892	1.38e-08	7.9e-09

System: dibutylamine + heptane; phases: Liquid
Fixed: Temperature, K = 298.15
Fixed: Pressure, kPa = 101
Property: Excess molar volume, m3/mol (Liquid); method: Calculated with densities of this investigation
Mole fraction of heptane	Excess molar volume, m3/mol	uncertainty
0.1014	2.1e-08	8e-09
0.2041	3.6e-08	8e-09
0.3039	5e-08	8e-09
0.4032	5.9e-08	8e-09
0.5036	6.7e-08	8e-09
0.6077	7.1e-08	8e-09
0.7071	6.6e-08	8e-09
0.8029	5.5e-08	8e-09
0.9061	3.2e-08	8e-09
0.95	1.7e-08	8e-09
0.9703	1.1e-08	8e-09
0.9875	5e-09	8e-09

System: triethylamine + heptane; phases: Liquid
Fixed: Temperature, K = 298.15
Fixed: Pressure, kPa = 101
Property: Excess molar volume, m3/mol (Liquid); method: Calculated with densities of this investigation
Mole fraction of heptane	Excess molar volume, m3/mol	uncertainty
0.0503	1.9e-08	8e-09
0.0966	3.8e-08	8e-09
0.2081	7.7e-08	8e-09
0.3062	1.01e-07	8e-09
0.4097	1.17e-07	8e-09
0.504	1.17e-07	8e-09
0.5055	1.2e-07	8e-09
0.5917	1.13e-07	8e-09
0.6908	1e-07	8e-09
0.7977	7.5e-08	8e-09
0.9032	3.8e-08	8e-09
0.913	3.6e-08	8e-09
0.9518	1.8e-08	8e-09
0.9582	1.6e-08	8e-09
0.978	8e-09	8e-09

System: tripropylamine + heptane; phases: Liquid
Fixed: Temperature, K = 298.15
Fixed: Pressure, kPa = 101
Property: Excess molar volume, m3/mol (Liquid); method: Calculated with densities of this investigation
Mole fraction of heptane	Excess molar volume, m3/mol	uncertainty
0.0343	-5e-09	8e-09
0.0682	-1.1e-08	8e-09
0.0998	-1.5e-08	8e-09
0.1079	-1e-08	8e-09
0.194	-2.6e-08	8e-09
0.2097	-2.3e-08	8e-09
0.2998	-2.9e-08	8e-09
0.4047	-3.3e-08	8e-09
0.4996	-3.7e-08	8e-09
0.6019	-3.9e-08	8e-09
0.7058	-3.2e-08	8e-09
0.8039	-2.4e-08	8e-09
0.9045	-1e-08	8e-09
0.9152	-8e-09	8e-09
0.9626	-2e-09	8e-09
0.9628	1e-09	8e-09
0.984	1e-09	8e-09

System: tributylamine + heptane; phases: Liquid
Fixed: Temperature, K = 298.15
Fixed: Pressure, kPa = 101
Property: Excess molar volume, m3/mol (Liquid); method: Calculated with densities of this investigation
Mole fraction of heptane	Excess molar volume, m3/mol	uncertainty
0.0615	-3e-08	8e-09
0.113	-5.6e-08	8e-09
0.201	-9.6e-08	8e-09
0.3042	-1.36e-07	8e-09
0.4061	-1.64e-07	8e-09
0.4981	-1.73e-07	8e-09
0.5068	-1.76e-07	8e-09
0.5983	-1.83e-07	8e-09
0.6973	-1.68e-07	8e-09
0.7969	-1.35e-07	8e-09
0.9005	-7.8e-08	8e-09
0.9487	-4.3e-08	8e-09

System: heptane + tripentylamine; phases: Liquid
Fixed: Temperature, K = 298.15
Fixed: Pressure, kPa = 101
Property: Excess molar volume, m3/mol (Liquid); method: Calculated with densities of this investigation
Mole fraction of heptane	Excess molar volume, m3/mol	uncertainty
0.055	-4.3e-08	8e-09
0.1035	-8.1e-08	8e-09
0.2066	-1.54e-07	8e-09
0.3005	-2.16e-07	8e-09
0.4249	-2.7e-07	8e-09
0.5023	-2.93e-07	8e-09
0.5192	-2.92e-07	8e-09
0.6036	-3.02e-07	8e-09
0.6923	-2.87e-07	8e-09
0.8022	-2.31e-07	8e-09
0.8999	-1.42e-07	8e-09
0.9573	-7e-08	8e-09
0.9583	-6.9e-08	8e-09
0.9809	-3.2e-08	8e-09
0.9951	-9e-09	8e-09

System: heptane + azacyclopropane; phases: Liquid
Fixed: Temperature, K = 298.15
Fixed: Pressure, kPa = 101
Property: Excess molar volume, m3/mol (Liquid); method: Calculated with densities of this investigation
Mole fraction of heptane	Excess molar volume, m3/mol	uncertainty
0.7898	5.48e-07	1e-08
0.8958	3.66e-07	9e-09
0.9566	1.76e-07	9e-09
0.9805	8.4e-08	9e-09

System: heptane + azacyclobutane; phases: Liquid
Fixed: Temperature, K = 298.15
Fixed: Pressure, kPa = 101
Property: Excess molar volume, m3/mol (Liquid); method: Calculated with densities of this investigation
Mole fraction of heptane	Excess molar volume, m3/mol	uncertainty
0.79	3.36e-07	9e-09
0.7902	3.4e-07	9e-09
0.8489	2.74e-07	8e-09
0.9044	1.92e-07	8e-09
0.9482	1.09e-07	8e-09
0.953	1.02e-07	8e-09
0.9667	7.3e-08	8e-09
0.9752	5.3e-08	8e-09
0.983	3.5e-08	8e-09
0.9901	1.9e-08	8e-09

System: pyrrolidine + heptane; phases: Liquid
Fixed: Temperature, K = 298.15
Fixed: Pressure, kPa = 101
Property: Excess molar volume, m3/mol (Liquid); method: Calculated with densities of this investigation
Mole fraction of heptane	Excess molar volume, m3/mol	uncertainty
0.0457	1.6e-08	8e-09
0.1077	4.6e-08	8e-09
0.1939	9.3e-08	8e-09
0.2983	1.57e-07	8e-09
0.399	2.12e-07	8e-09
0.4578	2.45e-07	8e-09
0.4925	2.56e-07	8e-09
0.5055	2.58e-07	8e-09
0.5985	2.85e-07	8e-09
0.651	2.88e-07	8e-09
0.697	2.87e-07	8e-09
0.7994	2.5e-07	8e-09
0.8976	1.63e-07	8e-09
0.9251	1.28e-07	8e-09
0.9468	9.6e-08	8e-09
0.9719	5.4e-08	8e-09

System: azacycloheptane + heptane; phases: Liquid
Fixed: Temperature, K = 298.15
Fixed: Pressure, kPa = 101
Property: Excess molar volume, m3/mol (Liquid); method: Calculated with densities of this investigation
Mole fraction of heptane	Excess molar volume, m3/mol	uncertainty
0.0441	3e-09	8e-09
0.0882	2e-09	8e-09
0.1936	5e-09	8e-09
0.3113	1.2e-08	8e-09
0.4073	2.1e-08	8e-09
0.4971	2.5e-08	8e-09
0.5009	3e-08	8e-09
0.5988	3.8e-08	8e-09
0.6971	5e-08	8e-09
0.7657	5e-08	8e-09
0.8019	5.2e-08	8e-09
0.8339	4.7e-08	8e-09
0.9	3.6e-08	8e-09
0.9073	3.5e-08	8e-09
0.9077	3.6e-08	8e-09
0.9521	2.3e-08	8e-09
0.9673	1.5e-08	8e-09
0.9737	1.1e-08	8e-09
0.98	9e-09	8e-09
0.9878	5e-09	8e-09
0.9932	3e-09	8e-09
0.9959	2e-09	8e-09
0.998	1e-09	8e-09

System: heptane + heptamethyleneimine; phases: Liquid
Fixed: Temperature, K = 298.15
Fixed: Pressure, kPa = 101
Property: Excess molar volume, m3/mol (Liquid); method: Calculated with densities of this investigation
Mole fraction of heptane	Excess molar volume, m3/mol	uncertainty
0.1009	-4.2e-08	8e-09
0.202	-1.2e-07	8e-09
0.3058	-1.43e-07	8e-09
0.4066	-1.51e-07	8e-09
0.4945	-1.23e-07	8e-09
0.5932	-6.5e-08	8e-09
0.6989	-1.02e-07	8e-09
0.8166	-8e-08	8e-09
0.9161	-2.2e-08	8e-09
0.9855	-1.4e-08	8e-09
0.9918	-7e-09	8e-09

System: cyclohexylamine + heptane; phases: Liquid
Fixed: Temperature, K = 298.15
Fixed: Pressure, kPa = 101
Property: Excess molar volume, m3/mol (Liquid); method: Calculated with densities of this investigation
Mole fraction of heptane	Excess molar volume, m3/mol	uncertainty
0.0562	6.2e-08	8e-09
0.1104	1.08e-07	8e-09
0.2058	1.74e-07	8e-09
0.3052	2.25e-07	8e-09
0.4031	2.68e-07	8e-09
0.4979	2.98e-07	8e-09
0.6039	3.15e-07	8e-09
0.701	3.05e-07	8e-09
0.7994	2.6e-07	8e-09
0.9078	1.57e-07	8e-09
0.9518	9.6e-08	9e-09
0.9573	7.9e-08	8e-09
0.9783	4.4e-08	8e-09
0.9882	2.5e-08	8e-09

System: heptane + cycloheptanamine; phases: Liquid
Fixed: Temperature, K = 298.15
Fixed: Pressure, kPa = 101
Property: Excess molar volume, m3/mol (Liquid); method: Calculated with densities of this investigation
Mole fraction of heptane	Excess molar volume, m3/mol	uncertainty
0.054	-2.2e-08	8e-09
0.1044	-5.2e-08	8e-09
0.2042	-8.3e-08	8e-09
0.2985	-1.03e-07	8e-09
0.3957	-1.07e-07	8e-09
0.4987	-9.5e-08	8e-09
0.5069	-9.8e-08	8e-09
0.6016	-7e-08	8e-09
0.6933	-3.5e-08	8e-09
0.7894	-1e-09	8e-09
0.8993	2.3e-08	8e-09
0.9528	1.6e-08	8e-09
0.9575	2e-08	8e-09
0.9813	9e-09	8e-09
0.9895	5e-09	8e-09
0.9944	3e-09	8e-09

System: heptane + cyclododecylamine; phases: Liquid
Fixed: Temperature, K = 298.15
Fixed: Pressure, kPa = 101
Property: Excess molar volume, m3/mol (Liquid); method: Calculated with densities of this investigation
Mole fraction of heptane	Excess molar volume, m3/mol	uncertainty
0.0593	-1.87e-07	9e-09
0.1148	-3.42e-07	9e-09
0.2015	-5.39e-07	1e-08
0.3031	-7.27e-07	1.1e-08
0.4065	-8.36e-07	1.2e-08
0.4267	-8.57e-07	1.2e-08
0.4958	-8.87e-07	1.3e-08
0.5886	-8.83e-07	1.3e-08
0.6563	-8.56e-07	1.2e-08
0.6864	-7.98e-07	1.2e-08
0.7876	-6.73e-07	1.1e-08
0.8007	-6.26e-07	1.1e-08
0.9004	-3.57e-07	9e-09
0.9467	-2.01e-07	9e-09
0.9783	-8.4e-08	9e-09
0.9892	-4.2e-08	9e-09
0.9942	-2.4e-08	9e-09

System: heptane + cyclopentanamine; phases: Liquid
Fixed: Temperature, K = 298.15
Fixed: Pressure, kPa = 101
Property: Excess molar volume, m3/mol (Liquid); method: Calculated with densities of this investigation
Mole fraction of heptane	Excess molar volume, m3/mol	uncertainty
0.0607	3.1e-08	8e-09
0.1012	5e-08	8e-09
0.1163	6.4e-08	8e-09
0.2082	1.3e-07	8e-09
0.2551	1.64e-07	8e-09
0.299	1.91e-07	8e-09
0.3888	2.56e-07	8e-09
0.4806	3.15e-07	9e-09
0.4871	3.1e-07	9e-09
0.5894	3.54e-07	9e-09
0.6976	3.68e-07	9e-09
0.7943	3.23e-07	9e-09
0.8945	2.15e-07	8e-09
0.9512	1.14e-07	8e-09
0.9743	6.5e-08	8e-09
0.9871	3.3e-08	8e-09

System: heptane + cyclopentanamine; phases: Liquid
Fixed: Temperature, K = 298.15
Fixed: Pressure, kPa = 101
Property: Excess molar volume, m3/mol (Liquid); method: Calculated with densities of this investigation
Mole fraction of heptane	Excess molar volume, m3/mol	uncertainty
0.5429	3.46e-07	9e-09
0.6429	3.7e-07	9e-09
0.7435	3.58e-07	9e-09
0.841	2.89e-07	8e-09
