Measured thermophysical data. Phase equilibrium properties of binary mixtures containing 1,3-pentanediamine (or 1,5-diamino-2-methylpentane) and water at several temperatures
Source: J. Chem. Thermodyn., 2015, 10.1016/j.jct.2014.12.008
Compound 1: 1,3-pentanediamine, C5H14N2, InChI=1S/C5H14N2/c1-2-5(7)3-4-6/h5H,2-4,6-7H2,1H3, purity 98%
Compound 2: 2-methyl-1,5-pentanediamine, C6H16N2, InChI=1S/C6H16N2/c1-6(5-8)3-2-4-7/h6H,2-5,7-8H2,1H3, purity 99%
Compound 3: water, H2O, InChI=1S/H2O/h1H2

System: 1,3-pentanediamine; phases: Liquid, Gas
Property: Vapor or sublimation pressure, kPa (Liquid); method: Closed cell (Static) method
Temperature, K	Vapor or sublimation pressure, kPa	uncertainty
273.15	0.026	0.002
283.15	0.064	0.005
293.15	0.144	0.01
303.15	0.299	0.019
313.15	0.585	0.037
323.15	1.081	0.028
333.15	1.902	0.023
343.15	3.206	0.032
353.15	5.201	0.045
363.15	8.153	0.065

System: 2-methyl-1,5-pentanediamine; phases: Liquid, Gas
Property: Vapor or sublimation pressure, kPa (Liquid); method: Closed cell (Static) method
Temperature, K	Vapor or sublimation pressure, kPa	uncertainty
273.15	0.004	0.001
283.15	0.011	0.001
293.15	0.028	0.002
303.15	0.065	0.005
313.15	0.137	0.009
323.15	0.274	0.017
333.15	0.519	0.033
343.15	0.934	0.024
353.15	1.611	0.022
363.15	2.67	0.028

System: 1,3-pentanediamine + water; phases: Liquid, Gas
Property: Vapor or sublimation pressure, kPa (Liquid); method: Closed cell (Static) method
Temperature, K	Mole fraction of 1,3-pentanediamine	Vapor or sublimation pressure, kPa	uncertainty
273.15	0.13	0.467	0.029
273.15	0.27	0.273	0.017
273.15	0.39	0.168	0.011
273.15	0.4999	0.121	0.008
273.15	0.6298	0.094	0.007
273.15	0.759	0.076	0.005
273.15	0.8888	0.059	0.004
273.15	1	0.026	0.002
283.15	0.13	0.964	0.025
283.15	0.27	0.585	0.037
283.15	0.39	0.377	0.024
283.15	0.4999	0.277	0.018
283.15	0.6298	0.212	0.014
283.15	0.759	0.168	0.011
283.15	0.8888	0.126	0.009
283.15	1	0.064	0.005
293.15	0.13	1.877	0.023
293.15	0.27	1.178	0.03
293.15	0.39	0.792	0.021
293.15	0.4999	0.594	0.037
293.15	0.6298	0.451	0.028
293.15	0.759	0.351	0.022
293.15	0.8888	0.255	0.016
293.15	1	0.144	0.01
303.15	0.13	3.467	0.033
303.15	0.27	2.25	0.025
303.15	0.39	1.568	0.021
303.15	0.4999	1.2	0.031
303.15	0.6298	0.908	0.024
303.15	0.759	0.7	0.018
303.15	0.8888	0.499	0.031
303.15	1	0.299	0.019
313.15	0.13	6.118	0.051
313.15	0.27	4.101	0.037
313.15	0.39	2.949	0.03
313.15	0.4999	2.296	0.026
313.15	0.6298	1.739	0.022
313.15	0.759	1.333	0.02
313.15	0.8888	0.937	0.024
313.15	1	0.585	0.037
323.15	0.13	10.36	0.08
323.15	0.27	7.166	0.058
323.15	0.39	5.294	0.045
323.15	0.4999	4.188	0.038
323.15	0.6298	3.189	0.031
323.15	0.759	2.438	0.027
323.15	0.8888	1.701	0.022
323.15	1	1.081	0.028
333.15	0.13	16.92	0.125
333.15	0.27	12.06	0.092
333.15	0.39	9.121	0.072
333.15	0.4999	7.319	0.059
333.15	0.6298	5.621	0.048
333.15	0.759	4.295	0.039
333.15	0.8888	2.99	0.03
333.15	1	1.902	0.023
343.15	0.13	26.73	0.19
343.15	0.27	19.6	0.14
343.15	0.39	15.14	0.11
343.15	0.4999	12.31	0.09
343.15	0.6298	9.56	0.075
343.15	0.759	7.316	0.06
343.15	0.8888	5.102	0.045
343.15	1	3.206	0.032
353.15	0.13	40.99	0.29
353.15	0.27	30.89	0.22
353.15	0.39	24.31	0.18
353.15	0.4999	20	0.15
353.15	0.6298	15.74	0.12
353.15	0.759	12.08	0.09
353.15	0.8888	8.472	0.069
353.15	1	5.201	0.045
363.15	0.13	61.17	0.42
363.15	0.27	47.35	0.33
363.15	0.39	37.87	0.27
363.15	0.4999	31.5	0.22
363.15	0.6298	25.15	0.18
363.15	0.759	19.4	0.14
363.15	0.8888	13.72	0.1
363.15	1	8.153	0.065

System: water + 2-methyl-1,5-pentanediamine; phases: Liquid, Gas
Property: Vapor or sublimation pressure, kPa (Liquid); method: Closed cell (Static) method
Temperature, K	Mole fraction of 2-methyl-1,5-pentanediamine	Vapor or sublimation pressure, kPa	uncertainty
273.15	0.13	0.491	0.031
273.15	0.2698	0.298	0.019
273.15	0.3898	0.184	0.012
273.15	0.4996	0.122	0.008
273.15	0.63	0.08	0.006
273.15	0.7591	0.049	0.004
273.15	0.89	0.024	0.002
273.15	1	0.004	0.001
283.15	0.13	1.01	0.026
283.15	0.2698	0.636	0.017
283.15	0.3898	0.407	0.026
283.15	0.4996	0.277	0.018
283.15	0.63	0.186	0.012
283.15	0.7591	0.116	0.008
283.15	0.89	0.058	0.004
283.15	1	0.011	0.001
293.15	0.13	1.959	0.024
293.15	0.2698	1.275	0.033
293.15	0.3898	0.844	0.022
293.15	0.4996	0.588	0.037
293.15	0.63	0.404	0.025
293.15	0.7591	0.255	0.016
293.15	0.89	0.13	0.009
293.15	1	0.028	0.002
303.15	0.13	3.607	0.034
303.15	0.2698	2.42	0.027
303.15	0.3898	1.652	0.022
303.15	0.4996	1.176	0.03
303.15	0.63	0.823	0.021
303.15	0.7591	0.528	0.033
303.15	0.89	0.273	0.017
303.15	1	0.065	0.005
313.15	0.13	6.341	0.052
313.15	0.2698	4.378	0.039
313.15	0.3898	3.074	0.031
313.15	0.4996	2.23	0.025
313.15	0.63	1.589	0.022
313.15	0.7591	1.031	0.027
313.15	0.89	0.542	0.034
313.15	1	0.137	0.009
323.15	0.13	10.7	0.08
323.15	0.2698	7.584	0.061
323.15	0.3898	5.465	0.047
323.15	0.4996	4.033	0.037
323.15	0.63	2.921	0.03
323.15	0.7591	1.918	0.024
323.15	0.89	1.021	0.026
323.15	1	0.274	0.017
333.15	0.13	17.39	0.13
333.15	0.2698	12.64	0.1
333.15	0.3898	9.327	0.073
333.15	0.4996	6.992	0.057
333.15	0.63	5.141	0.045
333.15	0.7591	3.411	0.033
333.15	0.89	1.839	0.023
333.15	1	0.519	0.033
343.15	0.13	27.36	0.2
343.15	0.2698	20.36	0.15
343.15	0.3898	15.35	0.11
343.15	0.4996	11.67	0.09
343.15	0.63	8.701	0.069
343.15	0.7591	5.831	0.05
343.15	0.89	3.18	0.032
343.15	1	0.934	0.024
353.15	0.13	41.77	0.29
353.15	0.2698	31.78	0.23
353.15	0.3898	24.44	0.18
353.15	0.4996	18.83	0.14
353.15	0.63	14.22	0.11
353.15	0.7591	9.618	0.076
353.15	0.89	5.301	0.047
353.15	1	1.611	0.022
363.15	0.13	62.07	0.43
363.15	0.2698	48.21	0.34
363.15	0.3898	37.78	0.27
363.15	0.4996	29.46	0.21
363.15	0.63	22.51	0.16
363.15	0.7591	15.36	0.12
363.15	0.89	8.548	0.07
363.15	1	2.67	0.028
