Measured thermophysical data. Density and viscosity of binary liquid systems of N-methylacetamide with aromatic ketones at T = 308.15 K
Source: J. Chem. Thermodyn., 2006, 10.1016/j.jct.2005.05.006
Compound 1: acetophenone, C8H8O, InChI=1S/C8H8O/c1-7(9)8-5-3-2-4-6-8/h2-6H,1H3
Compound 2: N-methylacetamide, C3H7NO, InChI=1S/C3H7NO/c1-3(5)4-2/h1-2H3,(H,4,5)
Compound 3: ethyl phenyl ketone, C9H10O, InChI=1S/C9H10O/c1-2-9(10)8-6-4-3-5-7-8/h3-7H,2H2,1H3
Compound 4: 4'-methylacetophenone, C9H10O, InChI=1S/C9H10O/c1-7-3-5-9(6-4-7)8(2)10/h3-6H,1-2H3
Compound 5: 4'-chloroacetophenone, C8H7ClO, InChI=1S/C8H7ClO/c1-6(10)7-2-4-8(9)5-3-7/h2-5H,1H3

System: acetophenone; phases: Liquid
Property: Viscosity, Pa*s (Liquid); method: CAPTUB::UFactor:2
Temperature, K	Pressure, kPa	Viscosity, Pa*s	uncertainty
308.15	101.3	0.001351	1.9e-05

System: acetophenone; phases: Liquid
Property: Mass density, kg/m3 (Liquid); method: PYCNOM:UFactor:2
Pressure, kPa	Temperature, K	Mass density, kg/m3	uncertainty
101.3	308.15	1020	0.9

System: N-methylacetamide; phases: Liquid
Property: Viscosity, Pa*s (Liquid); method: CAPTUB:UFactor:2
Temperature, K	Pressure, kPa	Viscosity, Pa*s	uncertainty
308.15	101.3	0.003313	3.8e-05

System: N-methylacetamide; phases: Liquid
Property: Mass density, kg/m3 (Liquid); method: PYCNOM:UFactor:2
Pressure, kPa	Temperature, K	Mass density, kg/m3	uncertainty
101.3	308.15	949.7	0.7

System: ethyl phenyl ketone; phases: Liquid
Property: Viscosity, Pa*s (Liquid); method: CAPTUB::UFactor:2
Temperature, K	Pressure, kPa	Viscosity, Pa*s	uncertainty
308.15	101.3	0.001468	2e-05

System: ethyl phenyl ketone; phases: Liquid
Property: Mass density, kg/m3 (Liquid); method: PYCNOM::UFactor:2
Pressure, kPa	Temperature, K	Mass density, kg/m3	uncertainty
101.3	308.15	1000.6	0.9

System: 4'-methylacetophenone; phases: Liquid
Property: Viscosity, Pa*s (Liquid); method: CAPTUB::UFactor:2
Temperature, K	Pressure, kPa	Viscosity, Pa*s	uncertainty
308.15	101.3	0.001536	2.1e-05

System: 4'-methylacetophenone; phases: Liquid
Property: Mass density, kg/m3 (Liquid); method: PYCNOM::UFactor:2
Pressure, kPa	Temperature, K	Mass density, kg/m3	uncertainty
101.3	308.15	996.3	0.9

System: 4'-chloroacetophenone; phases: Liquid
Property: Viscosity, Pa*s (Liquid); method: CAPTUB::UFactor:2
Temperature, K	Pressure, kPa	Viscosity, Pa*s	uncertainty
308.15	101.3	0.002293	2.9e-05

System: 4'-chloroacetophenone; phases: Liquid
Property: Mass density, kg/m3 (Liquid); method: PYCNOM::UFactor:2
Pressure, kPa	Temperature, K	Mass density, kg/m3	uncertainty
101.3	308.15	1181.3	1

System: N-methylacetamide + acetophenone; phases: Liquid
Fixed: Temperature, K = 308.15
Fixed: Pressure, kPa = 101
Property: Viscosity, Pa*s (Liquid); method: CAPTUB:UFactor:2
Mole fraction of acetophenone	Viscosity, Pa*s	uncertainty
0	0.003313	3.8e-05
0.0686	0.003109	3.6e-05
0.138	0.002919	3.4e-05
0.2189	0.002657	3.1e-05
0.3143	0.002397	2.8e-05
0.3938	0.002199	2.6e-05
0.4912	0.001965	2.4e-05
0.6042	0.001747	2.2e-05
0.7227	0.001561	2.1e-05
0.8517	0.001455	2e-05
1	0.001351	1.9e-05

System: N-methylacetamide + acetophenone; phases: Liquid
Fixed: Pressure, kPa = 101
Fixed: Temperature, K = 308.15
Property: Mass density, kg/m3 (Liquid); method: PYCNOM:UFactor:2
Mole fraction of acetophenone	Mass density, kg/m3	uncertainty
0	949.7	0.7
0.0686	958.1	0.7
0.138	965.6	0.7
0.2189	973.6	0.7
0.3143	981.5	0.8
0.3938	988.1	0.8
0.4912	994.1	0.8
0.6042	1000.6	0.8
0.7227	1007.1	0.8
0.8517	1013.3	0.8
1	1020	0.9

System: N-methylacetamide + ethyl phenyl ketone; phases: Liquid
Fixed: Temperature, K = 308.15
Fixed: Pressure, kPa = 101
Property: Viscosity, Pa*s (Liquid); method: CAPTUB:UFactor:2
Mole fraction of ethyl phenyl ketone	Viscosity, Pa*s	uncertainty
0	0.003313	3.8e-05
0.06	0.002972	3.4e-05
0.1269	0.002778	3.2e-05
0.1862	0.00261	3e-05
0.2778	0.00238	2.8e-05
0.3654	0.00219	2.6e-05
0.4649	0.002005	2.4e-05
0.5709	0.001828	2.3e-05
0.6929	0.001648	2.1e-05
0.8315	0.001485	2e-05
1	0.001468	2e-05

System: N-methylacetamide + ethyl phenyl ketone; phases: Liquid
Fixed: Pressure, kPa = 101
Fixed: Temperature, K = 308.15
Property: Mass density, kg/m3 (Liquid); method: PYCNOM:UFactor:2
Mole fraction of ethyl phenyl ketone	Mass density, kg/m3	uncertainty
0	949.7	0.7
0.06	957.2	0.7
0.1269	963.7	0.7
0.1862	968	0.7
0.2778	973.2	0.7
0.3654	977.3	0.8
0.4649	981.7	0.8
0.5709	986	0.8
0.6929	990.5	0.8
0.8315	995	0.8
1	1000.6	0.9

System: N-methylacetamide + 4'-methylacetophenone; phases: Liquid
Fixed: Temperature, K = 308.15
Fixed: Pressure, kPa = 101
Property: Viscosity, Pa*s (Liquid); method: CAPTUB:UFactor:2
Mole fraction of 4'-methylacetophenone	Viscosity, Pa*s	uncertainty
0	0.003313	3.8e-05
0.0617	0.003091	3.5e-05
0.1321	0.002867	3.3e-05
0.2004	0.002666	3.1e-05
0.2836	0.002469	2.9e-05
0.3629	0.002286	2.7e-05
0.4632	0.00208	2.5e-05
0.5582	0.001927	2.4e-05
0.689	0.001722	2.2e-05
0.8305	0.001588	2.1e-05
1	0.001536	2.1e-05

System: N-methylacetamide + 4'-methylacetophenone; phases: Liquid
Fixed: Pressure, kPa = 101
Fixed: Temperature, K = 308.15
Property: Mass density, kg/m3 (Liquid); method: PYCNOM:UFactor:2
Mole fraction of 4'-methylacetophenone	Mass density, kg/m3	uncertainty
0	949.7	0.7
0.0617	956.3	0.7
0.1321	962.4	0.7
0.2004	967.6	0.7
0.2836	972.3	0.7
0.3629	976.5	0.8
0.4632	981	0.8
0.5582	984.6	0.8
0.689	988.9	0.8
0.8305	993	0.8
1	996.3	0.9

System: N-methylacetamide + 4'-chloroacetophenone; phases: Liquid
Fixed: Temperature, K = 308.15
Fixed: Pressure, kPa = 101
Property: Viscosity, Pa*s (Liquid); method: CAPTUB:UFactor:2
Mole fraction of 4'-chloroacetophenone	Viscosity, Pa*s	uncertainty
0	0.003313	3.8e-05
0.0644	0.003273	3.7e-05
0.1311	0.003223	3.7e-05
0.2036	0.003141	3.6e-05
0.2825	0.003035	3.5e-05
0.3696	0.002906	3.4e-05
0.4664	0.002765	3.3e-05
0.5774	0.002604	3.1e-05
0.7003	0.002452	3e-05
0.8405	0.002331	2.9e-05
1	0.002293	2.9e-05

System: N-methylacetamide + 4'-chloroacetophenone; phases: Liquid
Fixed: Pressure, kPa = 101
Fixed: Temperature, K = 308.15
Property: Mass density, kg/m3 (Liquid); method: PYCNOM:UFactor:2
Mole fraction of 4'-chloroacetophenone	Mass density, kg/m3	uncertainty
0	949.7	0.7
0.0644	976.5	0.7
0.1311	1001	0.8
0.2036	1025.2	0.8
0.2825	1048.7	0.8
0.3696	1071.8	0.8
0.4664	1094.5	0.9
0.5774	1117.2	0.9
0.7003	1139	0.9
0.8405	1160.4	1
1	1181.3	1
