Measured thermophysical data. Interactions of some ex-amino acids with tetra-n-alkylammonium bromides in aqueous medium at different temperatures
Source: J. Chem. Thermodyn., 2007, 10.1016/j.jct.2006.08.010
Compound 1: 2-aminoacetic acid, C2H5NO2, InChI=1S/C2H5NO2/c3-1-2(4)5/h1,3H2,(H,4,5)
Compound 2: DL-2-aminopropanoic acid, C3H7NO2, InChI=1S/C3H7NO2/c1-2(4)3(5)6/h2H,4H2,1H3,(H,5,6)
Compound 3: DL-2-amino-3-methylbutanoic acid, C5H11NO2, InChI=1S/C5H11NO2/c1-3(2)4(6)5(7)8/h3-4H,6H2,1-2H3,(H,7,8)
Compound 4: tetramethylammonium bromide, C4H12BrN, InChI=1S/C4H12N.BrH/c1-5(2,3)4;/h1-4H3;1H/q+1;/p-1
Compound 5: tetraethylammonium bromide, C8H20BrN, InChI=1S/C8H20N.BrH/c1-5-9(6-2,7-3)8-4;/h5-8H2,1-4H3;1H/q+1;/p-1
Compound 6: water, H2O, InChI=1S/H2O/h1H2, purity 99.9%

System: 2-aminoacetic acid + tetramethylammonium bromide + water; phases: Liquid
Fixed: Pressure, kPa = 101
Fixed: Solvent: Amount concentration (molarity), mol/dm3 of tetramethylammonium bromide = 0.01
Property: Viscosity, Pa*s (Liquid); method: Capillary tube (Ostwald; Ubbelohde) method
Temperature, K	Amount concentration (molarity), mol/dm3 of 2-aminoacetic acid	Viscosity, Pa*s	uncertainty
298.15	0	0.000886	7e-06
298.15	0.01	0.00089	7e-06
298.15	0.02	0.000892	7e-06
298.15	0.03	0.000893	7e-06
298.15	0.04	0.000895	7e-06
298.15	0.05	0.000896	7e-06
303.15	0	0.000794	6e-06
303.15	0.01	0.000797	6e-06
303.15	0.02	0.000798	6e-06
303.15	0.03	0.0008	6e-06
303.15	0.04	0.000801	6e-06
303.15	0.05	0.000802	6e-06
308.15	0	0.000717	6e-06
308.15	0.01	0.000719	6e-06
308.15	0.02	0.000721	6e-06
308.15	0.03	0.000722	6e-06
308.15	0.04	0.000723	6e-06
308.15	0.05	0.000724	6e-06
313.15	0	0.000652	5e-06
313.15	0.01	0.000653	5e-06
313.15	0.02	0.000654	5e-06
313.15	0.03	0.000655	5e-06
313.15	0.04	0.000655	5e-06
313.15	0.05	0.000656	5e-06

System: 2-aminoacetic acid + tetramethylammonium bromide + water; phases: Liquid
Fixed: Pressure, kPa = 101
Fixed: Solvent: Amount concentration (molarity), mol/dm3 of tetramethylammonium bromide = 0.01
Property: Mass density, kg/m3 (Liquid); method: Pycnometric method
Amount concentration (molarity), mol/dm3 of 2-aminoacetic acid	Temperature, K	Mass density, kg/m3	uncertainty
0	298.15	997.3	0.4
0	303.15	996	0.4
0	308.15	994.8	0.4
0	313.15	993.5	0.4
0.01	298.15	997.6	0.4
0.01	303.15	996.2	0.4
0.01	308.15	995	0.4
0.01	313.15	993.6	0.4
0.02	298.15	997.9	0.5
0.02	303.15	996.5	0.4
0.02	308.15	995.2	0.4
0.02	313.15	993.8	0.4
0.03	298.15	998.3	0.4
0.03	303.15	996.9	0.4
0.03	308.15	995.5	0.4
0.03	313.15	994.1	0.4
0.04	298.15	998.8	0.4
0.04	303.15	997.3	0.4
0.04	308.15	995.9	0.4
0.04	313.15	994.5	0.4
0.05	298.15	999.4	0.4
0.05	303.15	997.9	0.4
0.05	308.15	996.4	0.4
0.05	313.15	994.9	0.4

System: tetramethylammonium bromide + DL-2-aminopropanoic acid + water; phases: Liquid
Fixed: Pressure, kPa = 101
Fixed: Solvent: Amount concentration (molarity), mol/dm3 of tetramethylammonium bromide = 0.01
Property: Viscosity, Pa*s (Liquid); method: Capillary tube (Ostwald; Ubbelohde) method
Temperature, K	Amount concentration (molarity), mol/dm3 of DL-2-aminopropanoic acid	Viscosity, Pa*s	uncertainty
298.15	0	0.000886	7e-06
298.15	0.01	0.000891	7e-06
298.15	0.02	0.000896	7e-06
298.15	0.03	0.000901	7e-06
298.15	0.04	0.000906	7e-06
298.15	0.05	0.000912	7e-06
303.15	0	0.000794	7e-06
303.15	0.01	0.000797	7e-06
303.15	0.02	0.0008	7e-06
303.15	0.03	0.000804	7e-06
303.15	0.04	0.000809	7e-06
303.15	0.05	0.000815	7e-06
308.15	0	0.000717	6e-06
308.15	0.01	0.000719	6e-06
308.15	0.02	0.000721	6e-06
308.15	0.03	0.000725	6e-06
308.15	0.04	0.000729	6e-06
308.15	0.05	0.000734	6e-06
313.15	0	0.000652	6e-06
313.15	0.01	0.000652	6e-06
313.15	0.02	0.000654	6e-06
313.15	0.03	0.000657	6e-06
313.15	0.04	0.000661	6e-06
313.15	0.05	0.000665	6e-06

System: tetramethylammonium bromide + DL-2-aminopropanoic acid + water; phases: Liquid
Fixed: Pressure, kPa = 101
Fixed: Solvent: Amount concentration (molarity), mol/dm3 of tetramethylammonium bromide = 0.01
Property: Mass density, kg/m3 (Liquid); method: Pycnometric method
Amount concentration (molarity), mol/dm3 of DL-2-aminopropanoic acid	Temperature, K	Mass density, kg/m3	uncertainty
0	298.15	997.3	0.5
0	303.15	996	0.5
0	308.15	994.8	0.5
0	313.15	993.5	0.5
0.01	298.15	997.6	0.5
0.01	303.15	996.1	0.5
0.01	308.15	994.8	0.5
0.01	313.15	993.3	0.5
0.02	298.15	998	0.5
0.02	303.15	996.4	0.5
0.02	308.15	995	0.5
0.02	313.15	993.4	0.5
0.03	298.15	998.4	0.5
0.03	303.15	996.8	0.5
0.03	308.15	995.3	0.5
0.03	313.15	993.7	0.5
0.04	298.15	998.9	0.5
0.04	303.15	997.2	0.5
0.04	308.15	995.6	0.5
0.04	313.15	994	0.5
0.05	298.15	999.4	0.5
0.05	303.15	997.7	0.5
0.05	308.15	996	0.5
0.05	313.15	994.4	0.5

System: tetramethylammonium bromide + DL-2-amino-3-methylbutanoic acid + water; phases: Liquid
Fixed: Pressure, kPa = 101
Fixed: Solvent: Amount concentration (molarity), mol/dm3 of tetramethylammonium bromide = 0.01
Property: Viscosity, Pa*s (Liquid); method: Capillary tube (Ostwald; Ubbelohde) method
Temperature, K	Amount concentration (molarity), mol/dm3 of DL-2-amino-3-methylbutanoic acid	Viscosity, Pa*s	uncertainty
298.15	0	0.000886	7e-06
298.15	0.01	0.000903	7e-06
298.15	0.02	0.000914	7e-06
298.15	0.03	0.000928	8e-06
298.15	0.04	0.000943	8e-06
298.15	0.05	0.000955	8e-06
303.15	0	0.000794	7e-06
303.15	0.01	0.000807	7e-06
303.15	0.02	0.000816	7e-06
303.15	0.03	0.000828	7e-06
303.15	0.04	0.000842	7e-06
303.15	0.05	0.000853	7e-06
308.15	0	0.000717	6e-06
308.15	0.01	0.000727	6e-06
308.15	0.02	0.000735	6e-06
308.15	0.03	0.000745	6e-06
308.15	0.04	0.000758	6e-06
308.15	0.05	0.000767	6e-06
313.15	0	0.000652	6e-06
313.15	0.01	0.000658	6e-06
313.15	0.02	0.000666	6e-06
313.15	0.03	0.000675	6e-06
313.15	0.04	0.000685	6e-06
313.15	0.05	0.000694	6e-06

System: tetramethylammonium bromide + DL-2-amino-3-methylbutanoic acid + water; phases: Liquid
Fixed: Pressure, kPa = 101
Fixed: Solvent: Amount concentration (molarity), mol/dm3 of tetramethylammonium bromide = 0.01
Property: Mass density, kg/m3 (Liquid); method: Pycnometric method
Amount concentration (molarity), mol/dm3 of DL-2-amino-3-methylbutanoic acid	Temperature, K	Mass density, kg/m3	uncertainty
0	298.15	997.3	0.5
0	303.15	996	0.5
0	308.15	994.8	0.5
0	313.15	993.5	0.5
0.01	298.15	997.6	0.5
0.01	303.15	996.2	0.5
0.01	308.15	994.7	0.5
0.01	313.15	993.3	0.5
0.02	298.15	998	0.6
0.02	303.15	996.5	0.5
0.02	308.15	994.9	0.5
0.02	313.15	993.4	0.5
0.03	298.15	998.4	0.5
0.03	303.15	996.8	0.5
0.03	308.15	995.2	0.5
0.03	313.15	993.7	0.5
0.04	298.15	998.8	0.5
0.04	303.15	997.1	0.5
0.04	308.15	995.5	0.5
0.04	313.15	994	0.5
0.05	298.15	999.2	0.5
0.05	303.15	997.4	0.5
0.05	308.15	995.8	0.5
0.05	313.15	994.3	0.5

System: 2-aminoacetic acid + tetraethylammonium bromide + water; phases: Liquid
Fixed: Pressure, kPa = 101
Fixed: Solvent: Amount concentration (molarity), mol/dm3 of tetraethylammonium bromide = 0.01
Property: Viscosity, Pa*s (Liquid); method: Capillary tube (Ostwald; Ubbelohde) method
Temperature, K	Amount concentration (molarity), mol/dm3 of 2-aminoacetic acid	Viscosity, Pa*s	uncertainty
298.15	0	0.000887	7e-06
298.15	0.01	0.000875	7e-06
298.15	0.02	0.000876	7e-06
298.15	0.03	0.000879	7e-06
298.15	0.04	0.000884	7e-06
298.15	0.05	0.000889	7e-06
303.15	0	0.000794	6e-06
303.15	0.01	0.000784	6e-06
303.15	0.02	0.000786	6e-06
303.15	0.03	0.00079	6e-06
303.15	0.04	0.000795	6e-06
303.15	0.05	0.000799	6e-06
308.15	0	0.000717	6e-06
308.15	0.01	0.000709	5e-06
308.15	0.02	0.000711	5e-06
308.15	0.03	0.000716	6e-06
308.15	0.04	0.00072	6e-06
308.15	0.05	0.000726	6e-06
313.15	0	0.00065	5e-06
313.15	0.01	0.000644	5e-06
313.15	0.02	0.000647	5e-06
313.15	0.03	0.000651	5e-06
313.15	0.04	0.000656	5e-06
313.15	0.05	0.000662	5e-06

System: 2-aminoacetic acid + tetraethylammonium bromide + water; phases: Liquid
Fixed: Pressure, kPa = 101
Fixed: Solvent: Amount concentration (molarity), mol/dm3 of tetraethylammonium bromide = 0.01
Property: Mass density, kg/m3 (Liquid); method: Pycnometric method
Amount concentration (molarity), mol/dm3 of 2-aminoacetic acid	Temperature, K	Mass density, kg/m3	uncertainty
0	298.15	996.7	0.4
0	303.15	995.3	0.4
0	308.15	994	0.4
0	313.15	992.6	0.4
0.01	298.15	997.1	0.4
0.01	303.15	995.7	0.4
0.01	308.15	994.3	0.4
0.01	313.15	992.8	0.4
0.02	298.15	997.5	0.5
0.02	303.15	996	0.4
0.02	308.15	994.6	0.4
0.02	313.15	993.1	0.4
0.03	298.15	997.9	0.4
0.03	303.15	996.4	0.4
0.03	308.15	995	0.4
0.03	313.15	993.4	0.4
0.04	298.15	998.4	0.4
0.04	303.15	996.8	0.4
0.04	308.15	995.4	0.4
0.04	313.15	993.8	0.4
0.05	298.15	998.9	0.4
0.05	303.15	997.3	0.4
0.05	308.15	995.8	0.4
0.05	313.15	994.2	0.4

System: tetraethylammonium bromide + DL-2-aminopropanoic acid + water; phases: Liquid
Fixed: Pressure, kPa = 101
Fixed: Solvent: Amount concentration (molarity), mol/dm3 of tetraethylammonium bromide = 0.01
Property: Viscosity, Pa*s (Liquid); method: Capillary tube (Ostwald; Ubbelohde) method
Temperature, K	Amount concentration (molarity), mol/dm3 of DL-2-aminopropanoic acid	Viscosity, Pa*s	uncertainty
298.15	0	0.000887	7e-06
298.15	0.01	0.000889	7e-06
298.15	0.02	0.000894	7e-06
298.15	0.03	0.000899	7e-06
298.15	0.04	0.000904	7e-06
298.15	0.05	0.000908	7e-06
303.15	0	0.000794	7e-06
303.15	0.01	0.000796	7e-06
303.15	0.02	0.0008	7e-06
303.15	0.03	0.000805	7e-06
303.15	0.04	0.00081	7e-06
303.15	0.05	0.000814	7e-06
308.15	0	0.000717	6e-06
308.15	0.01	0.000719	6e-06
308.15	0.02	0.000724	6e-06
308.15	0.03	0.000728	6e-06
308.15	0.04	0.000732	6e-06
308.15	0.05	0.000736	6e-06
313.15	0	0.00065	5e-06
313.15	0.01	0.000652	6e-06
313.15	0.02	0.000656	6e-06
313.15	0.03	0.000661	6e-06
313.15	0.04	0.000665	6e-06
313.15	0.05	0.000669	6e-06

System: tetraethylammonium bromide + DL-2-aminopropanoic acid + water; phases: Liquid
Fixed: Pressure, kPa = 101
Fixed: Solvent: Amount concentration (molarity), mol/dm3 of tetraethylammonium bromide = 0.01
Property: Mass density, kg/m3 (Liquid); method: Pycnometric method
Amount concentration (molarity), mol/dm3 of DL-2-aminopropanoic acid	Temperature, K	Mass density, kg/m3	uncertainty
0	298.15	996.7	0.5
0	303.15	995.3	0.5
0	308.15	994	0.5
0	313.15	992.6	0.5
0.01	298.15	997	0.5
0.01	303.15	995.6	0.5
0.01	308.15	994.3	0.5
0.01	313.15	992.9	0.5
0.02	298.15	997.2	0.5
0.02	303.15	995.8	0.5
0.02	308.15	994.6	0.5
0.02	313.15	993.3	0.5
0.03	298.15	997.4	0.5
0.03	303.15	996.1	0.5
0.03	308.15	994.9	0.5
0.03	313.15	993.5	0.5
0.04	298.15	997.6	0.5
0.04	303.15	996.3	0.5
0.04	308.15	995.1	0.5
0.04	313.15	993.8	0.5
0.05	298.15	997.7	0.5
0.05	303.15	996.4	0.5
0.05	308.15	995.3	0.5
0.05	313.15	994	0.5

System: tetraethylammonium bromide + DL-2-amino-3-methylbutanoic acid + water; phases: Liquid
Fixed: Pressure, kPa = 101
Fixed: Solvent: Amount concentration (molarity), mol/dm3 of tetraethylammonium bromide = 0.01
Property: Viscosity, Pa*s (Liquid); method: Capillary tube (Ostwald; Ubbelohde) method
Temperature, K	Amount concentration (molarity), mol/dm3 of DL-2-amino-3-methylbutanoic acid	Viscosity, Pa*s	uncertainty
298.15	0	0.000887	7e-06
298.15	0.01	0.000898	7e-06
298.15	0.02	0.000905	7e-06
298.15	0.03	0.000911	7e-06
298.15	0.04	0.000918	7e-06
298.15	0.05	0.000927	8e-06
303.15	0	0.000794	7e-06
303.15	0.01	0.000801	7e-06
303.15	0.02	0.000806	7e-06
303.15	0.03	0.000812	7e-06
303.15	0.04	0.000818	7e-06
303.15	0.05	0.000825	7e-06
308.15	0	0.000717	6e-06
308.15	0.01	0.00072	6e-06
308.15	0.02	0.000725	6e-06
308.15	0.03	0.000731	6e-06
308.15	0.04	0.000736	6e-06
308.15	0.05	0.000743	6e-06
313.15	0	0.00065	5e-06
313.15	0.01	0.000651	6e-06
313.15	0.02	0.000655	6e-06
313.15	0.03	0.00066	6e-06
313.15	0.04	0.000664	6e-06
313.15	0.05	0.00067	6e-06

System: tetraethylammonium bromide + DL-2-amino-3-methylbutanoic acid + water; phases: Liquid
Fixed: Pressure, kPa = 101
Fixed: Solvent: Amount concentration (molarity), mol/dm3 of tetraethylammonium bromide = 0.01
Property: Mass density, kg/m3 (Liquid); method: Pycnometric method
Amount concentration (molarity), mol/dm3 of DL-2-amino-3-methylbutanoic acid	Temperature, K	Mass density, kg/m3	uncertainty
0	298.15	996.7	0.5
0	303.15	995.3	0.5
0	308.15	994	0.5
0	313.15	992.6	0.5
0.01	298.15	997	0.5
0.01	303.15	995.5	0.5
0.01	308.15	994.1	0.5
0.01	313.15	992.7	0.5
0.02	298.15	997.3	0.5
0.02	303.15	995.7	0.5
0.02	308.15	994.2	0.5
0.02	313.15	992.7	0.5
0.03	298.15	997.5	0.5
0.03	303.15	995.8	0.5
0.03	308.15	994.3	0.5
0.03	313.15	992.8	0.5
0.04	298.15	997.7	0.5
0.04	303.15	996	0.5
0.04	308.15	994.4	0.5
0.04	313.15	992.8	0.5
0.05	298.15	997.8	0.5
0.05	303.15	995.9	0.5
0.05	308.15	994.5	0.5
0.05	313.15	992.8	0.5
