Measured thermophysical data. Heat capacity and thermodynamic properties of lanthanum orthoniobate
Source: J. Chem. Thermodyn., 2019, 10.1016/j.jct.2018.12.041
Compound 1: lanthanum orthoniobate, LaNbO4, InChI=1S/La.Nb.4O/q+3;;;3*-1, purity 98%

System: lanthanum orthoniobate; phases: Crystal 2, Crystal 1, Air at 1 atmosphere
Property: Triple point temperature, K (Crystal 2); method: DSC
Triple point temperature, K	uncertainty
775	10

System: lanthanum orthoniobate; phases: Crystal 2
Property: Mass density, kg/m3 (Crystal 2); method: X-ray diffraction
Temperature, K	Pressure, kPa	Mass density, kg/m3	uncertainty
298	101.325	5900	80

System: lanthanum orthoniobate; phases: Crystal 2
Fixed: Pressure, kPa = 101.325
Property: Molar heat capacity at constant pressure, J/K/mol (Crystal 2); method: Small (less than 1 g) adiabatic calorimetry
Temperature, K	Molar heat capacity at constant pressure, J/K/mol	uncertainty
18.13	1.538	0.097
18.92	1.717	0.108
19.7	1.954	0.122
20.99	2.414	0.061
22.44	2.927	0.071
23.9	3.54	0.083
25.38	4.202	0.096
26.88	4.92	0.111
28.39	5.752	0.127
29.91	6.717	0.146
31.45	7.677	0.184
32.99	8.602	0.201
34.55	9.344	0.215
36.12	10.41	0.24
37.68	11.55	0.26
39.26	12.58	0.28
40.84	13.54	0.3
42.43	14.57	0.32
44.03	15.62	0.34
45.66	16.7	0.36
18.41	1.592	0.1
19.19	1.798	0.112
19.98	2.039	0.127
21.26	2.514	0.063
22.7	3.022	0.073
24.17	3.667	0.086
25.65	4.353	0.099
27.15	5.069	0.114
28.66	5.858	0.129
30.18	6.754	0.167
31.71	7.843	0.187
33.26	8.726	0.203
34.81	9.505	0.218
36.38	10.61	0.24
37.95	11.72	0.26
39.52	12.75	0.28
41.11	13.72	0.3
42.7	14.73	0.32
44.29	15.74	0.34
45.93	16.89	0.36
47.54	18.08	0.39
49.15	19.25	0.41
50.77	20.52	0.17
52.39	21.81	0.17
54.01	22.92	0.18
55.64	23.96	0.18
57.27	25.14	0.19
58.91	25.97	0.19
60.55	27.29	0.2
62.19	28.4	0.21
63.84	29.82	0.21
65.49	30.83	0.22
67.14	31.88	0.22
68.79	32.9	0.23
70.45	33.98	0.24
72.33	35.23	0.24
74.39	36.67	0.25
76.46	38.24	0.26
78.52	39.83	0.27
80.59	41.27	0.27
82.66	42.46	0.28
84.74	43.4	0.28
86.81	44.95	0.29
88.89	46.55	0.3
90.96	47.75	0.34
87.93	46.04	0.3
89.98	47.38	0.31
92.03	48.63	0.34
94.08	49.91	0.35
96.14	51.18	0.35
98.2	52.36	0.36
100.25	53.66	0.36
102.92	54.92	0.37
106.19	56.84	0.38
109.47	58.77	0.39
112.75	60.59	0.4
116.03	62.35	0.4
119.32	64.24	0.41
122.62	65.94	0.42
125.91	67.48	0.43
129.2	69.06	0.44
132.5	70.64	0.44
135.79	72.36	0.45
139.09	73.97	0.46
142.39	75.39	0.47
145.69	76.96	0.47
148.98	78.55	0.48
152.28	80.08	0.49
155.58	81.46	0.49
158.88	82.83	0.5
162.17	84.19	0.51
165.47	85.51	0.51
168.76	86.76	0.52
172.04	88.09	0.53
175.33	89.4	0.53
178.62	90.53	0.54
181.9	91.57	0.54
185.18	92.73	0.55
188.46	93.81	0.55
191.74	94.9	0.56
195.01	95.89	0.56
198.27	97.04	0.57
201.54	98.12	0.57
205.21	99.14	0.58
209.28	100.5	0.6
213.34	101.6	0.6
217.4	102.8	0.6
221.45	104.1	0.6
225.5	105.4	0.6
229.42	106.2	0.6
233.45	107.3	0.6
237.48	108.4	0.6
241.48	109.4	0.6
245.48	110.5	0.6
249.47	111.5	0.6
253.45	112.4	0.6
257.41	113.3	0.6
261.36	114.1	0.7
265.29	114.9	0.7
269.21	115.7	0.7
273.11	116.6	0.7
277	117.4	0.7
280.86	118.1	0.7
284.71	118.8	0.7
288.53	119.6	0.7
292.1	120.2	0.7
295.88	121	0.7
299.63	121.7	0.7
303.75	122.5	0.7
309.93	123.7	0.7
317.07	124.9	0.7
324.04	126	0.7
330.93	127.1	0.7
337.74	128.3	0.7
11.67	0.2823	0.0245
12.44	0.3612	0.0286
13.21	0.4775	0.0349
13.98	0.5794	0.0405
14.75	0.6974	0.0474
15.52	0.8448	0.056
16.29	1.007	0.065
17.06	1.171	0.076
17.84	1.381	0.088
18.63	1.665	0.105
19.42	1.895	0.118

System: lanthanum orthoniobate; phases: Crystal 2
Fixed: Pressure, kPa = 101.325
Property: Molar heat capacity at constant pressure, J/K/mol (Crystal 2); method: DSC
Temperature, K	Molar heat capacity at constant pressure, J/K/mol	uncertainty
319.8	123.4	6.6
329.8	126.1	6.7
339.8	127.4	6.8
349.8	129.2	6.9
359.8	130.8	7
369.8	132.5	7.1
379.8	133	7.1
389.8	134.6	7.2
399.8	136.5	7.3
409.8	136.8	7.3
419.8	139.6	7.5
429.8	140.9	7.5
439.8	141.7	7.6
449.8	142.5	7.6
459.8	143.3	7.7
469.8	143.7	7.7
479.8	144.9	7.7
489.8	145.2	7.8
499.8	145.7	7.8
509.8	146.6	7.8
519.8	147.7	7.9
529.8	148.5	7.9
539.8	149.6	8
549.8	150.5	8
559.8	151.3	8.1
569.8	151.9	8.1
579.8	152.6	8.1
589.8	153.2	8.2
599.8	154.2	8.2
609.8	154.3	8.2
619.8	154.9	8.3
629.8	155.5	8.3
639.8	156.1	8.3
649.8	156	8.3
659.8	156.5	8.4
669.8	157.1	8.4
679.8	157.6	8.4
689.8	158.2	8.4
699.8	159.3	8.5
709.8	160.3	8.6
719.8	160.8	8.6
729.8	161.3	8.6
739.8	161.1	8.6
749.8	161.1	8.6
759.8	161.1	8.6
769.8	160.9	8.6
459.8	143.1	7.6
469.8	144.4	7.7
479.8	144.8	7.7
489.8	145.4	7.8
499.8	146.5	7.8
509.8	147.4	7.9
519.8	148.4	7.9
529.8	149.4	8
539.8	149.9	8
549.8	150.6	8
559.8	151.4	8.1
569.8	152	8.1
579.8	152.5	8.1
589.8	153.1	8.2
599.8	153.8	8.2
609.8	154.3	8.2
619.8	154.8	8.3
629.8	155.3	8.3
639.8	156.1	8.3
649.8	156.7	8.4
659.8	157.4	8.4
669.8	158	8.4
679.8	158.6	8.5
689.8	159.2	8.5
699.8	159.8	8.5
709.8	160.3	8.6
719.8	160.6	8.6
729.8	160.9	8.6
739.8	161	8.6
749.8	160.6	8.6
759.8	159.5	8.5
769.8	157.8	8.4

System: lanthanum orthoniobate; phases: Crystal 1
Fixed: Pressure, kPa = 101.325
Property: Molar heat capacity at constant pressure, J/K/mol (Crystal 1); method: DSC
Temperature, K	Molar heat capacity at constant pressure, J/K/mol	uncertainty
779.8	159.4	8.5
789.8	157.9	8.4
799.8	157.4	8.4
809.8	157.6	8.4
819.8	157.4	8.4
829.8	156.9	8.4
839.8	157.2	8.4
849.8	157.5	8.4
859.8	157.8	8.4
869.8	158.1	8.4
879.8	158.4	8.5
889.8	158.8	8.5
899.8	159.1	8.5
909.8	159.4	8.5
919.8	159.6	8.5
929.8	159.9	8.5
939.8	160.1	8.5
949.8	160.4	8.6
959.8	160.7	8.6
969.8	160.9	8.6
979.8	161.2	8.6
989.8	161.4	8.6
999.8	161.6	8.6
1009.8	161.8	8.6
1019.8	162.1	8.7
1029.8	162.2	8.7
1039.8	162.3	8.7
1049.8	163.4	8.7
1059.8	163.7	8.7
1069.8	164.4	8.8
1079.8	165	8.8
1089.8	165.4	8.8
1099.8	165.8	8.9
1109.8	165.5	8.8
1119.8	165.9	8.9
1129.8	166.5	8.9
1139.8	166.3	8.9
1149.8	166.6	8.9
1159.8	166.6	8.9
1169.8	166.9	8.9
1179.8	167.2	8.9
1189.8	167.7	9
1199.8	168.8	9
1209.8	169.2	9
1219.8	169.9	9.1
1229.8	170.3	9.1
1239.8	170.6	9.1
1249.8	170.9	9.1
1259.8	171.1	9.1
1269.8	170.9	9.1
1279.8	171.3	9.1
1289.8	171.6	9.2
1299.8	171.8	9.2
1309.8	172	9.2
1319.8	173	9.2
1329.8	173	9.2
1339.8	173.1	9.2
779.8	156.7	8.4
789.8	156.7	8.4
799.8	157	8.4
809.8	157.3	8.4
819.8	157.6	8.4
829.8	157.9	8.4
839.8	158.3	8.5
849.8	158.6	8.5
859.8	158.9	8.5
869.8	159.2	8.5
879.8	159.5	8.5
889.8	159.9	8.5
899.8	160.2	8.6
909.8	160.4	8.6
919.8	160.7	8.6
929.8	161	8.6
939.8	161.3	8.6
949.8	161.6	8.6
959.8	161.9	8.6
969.8	162.1	8.7
979.8	162.3	8.7
989.8	162.5	8.7
999.8	162.7	8.7
1009.8	162.9	8.7
1019.8	163.1	8.7
1029.8	163.4	8.7
1039.8	163.6	8.7
1049.8	163.7	8.7
1059.8	163.8	8.7
1069.8	164	8.8
1079.8	164.2	8.8
1089.8	164.3	8.8
1099.8	164.4	8.8
1109.8	164.6	8.8
1119.8	164.7	8.8
1129.8	164.8	8.8
1139.8	164.8	8.8
1149.8	164.9	8.8
1159.8	165	8.8
1169.8	165.1	8.8
1179.8	165.1	8.8
1189.8	165.1	8.8

System: lanthanum orthoniobate; phases: Crystal 2
Fixed: Pressure, kPa = 101.325
Property: Molar heat capacity at constant pressure, J/K/mol (Crystal 2); method: DSC
Temperature, K	Molar heat capacity at constant pressure, J/K/mol	uncertainty
360	131.3	7
380	133.9	7.1
400	136.5	7.3
450	142.1	7.6
500	146.5	7.8
550	150.3	8
600	153.5	8.2
650	156.4	8.3
700	159.1	8.5
750	161.6	8.6
775	162.8	8.7

System: lanthanum orthoniobate; phases: Crystal 2
Fixed: Pressure, kPa = 101.325
Property: Molar entropy, J/K/mol (Crystal 2); method: DSC
Temperature, K	Molar entropy, J/K/mol	uncertainty
360	152.8	12.2
380	160	12.8
400	166.6	13.3
450	183	14.7
500	198.3	15.9
550	212.4	17
600	225.6	18.1
650	238	19.1
700	249.7	20
750	260.8	20.9
775	266.1	21.3

System: lanthanum orthoniobate; phases: Crystal 2
Fixed: Pressure, kPa = 101.325
Property: Molar enthalpy, kJ/mol (Crystal 2); method: DSC
Temperature, K	Molar enthalpy, kJ/mol	uncertainty
360	28.646	1.529
380	31.299	1.671
400	33.902	1.81
450	40.872	2.182
500	48.091	2.567
550	55.514	2.964
600	63.111	3.369
650	70.861	3.783
700	78.751	4.204
750	86.768	4.632
775	90.822	4.849

System: lanthanum orthoniobate; phases: Crystal 1
Fixed: Pressure, kPa = 101.325
Property: Molar heat capacity at constant pressure, J/K/mol (Crystal 1); method: DSC
Temperature, K	Molar heat capacity at constant pressure, J/K/mol	uncertainty
775	155.8	8.3
800	156.3	8.3
900	158.9	8.5
1000	161.9	8.6
1100	165.1	8.8
1200	168.5	9
1300	172.1	9.2
1400	175.7	9.4
1500	179.4	9.6
1600	183.2	9.8

System: lanthanum orthoniobate; phases: Crystal 1
Fixed: Pressure, kPa = 101.325
Property: Molar entropy, J/K/mol (Crystal 1); method: DSC
Temperature, K	Molar entropy, J/K/mol	uncertainty
775	266.1	21.3
800	271	21.7
900	289.6	23.2
1000	306.5	24.5
1100	322.1	25.8
1200	336.6	27
1300	350.2	28
1400	363.1	29.1
1500	375.4	30.1
1600	387.1	31

System: lanthanum orthoniobate; phases: Crystal 1
Fixed: Pressure, kPa = 101.325
Property: Molar enthalpy, kJ/mol (Crystal 1); method: DSC
Temperature, K	Molar enthalpy, kJ/mol	uncertainty
775	90.822	4.849
800	94.723	5.057
900	110.479	5.898
1000	126.516	6.754
1100	142.865	7.627
1200	159.547	8.517
1300	176.579	9.427
1400	193.969	10.355
1500	211.727	11.303
1600	229.858	12.271

System: lanthanum orthoniobate; phases: Crystal 2
Fixed: Pressure, kPa = 101.325
Property: Molar heat capacity at constant pressure, J/K/mol (Crystal 2); method: Small (less than 1 g) adiabatic calorimetry
Temperature, K	Molar heat capacity at constant pressure, J/K/mol	uncertainty
2	0.001002	0.015507
4	0.008013	0.015607
6	0.02712	0.01586
8	0.06659	0.01637
10	0.1449	0.0181
12	0.2927	0.0247
14	0.5427	0.0382
16	0.916	0.0597
18	1.419	0.089
20	2.047	0.127
25	4.11	0.093
30	6.72	0.165
35	9.712	0.221
40	12.96	0.28
45	16.38	0.35
50	19.88	0.42
55	23.42	0.18
60	26.95	0.2
65	30.47	0.22
70	33.94	0.23
75	37.35	0.25
80	40.69	0.27
85	43.97	0.29
90	47.17	0.33
95	50.29	0.35
100	53.31	0.36
110	59.12	0.39
120	64.56	0.41
130	69.68	0.44
140	74.49	0.46
150	78.97	0.48
160	83.19	0.5
170	87.15	0.52
180	90.86	0.54
190	94.36	0.56
200	97.64	0.57
210	100.7	0.6
220	103.7	0.6
230	106.4	0.6
240	109	0.6
250	111.5	0.6
260	113.8	0.7
270	116	0.7
280	118	0.7
290	120	0.7
300	121.9	0.7
320	125.3	0.7
340	128.5	0.7

System: lanthanum orthoniobate; phases: Crystal 2
Fixed: Pressure, kPa = 101.325
Property: Molar entropy, J/K/mol (Crystal 2); method: Small (less than 1 g) adiabatic calorimetry
Temperature, K	Molar entropy, J/K/mol	uncertainty
2	0.0003547	0.0232458
4	0.002734	0.023296
6	0.009126	0.023425
8	0.02176	0.02366
10	0.04418	0.02406
12	0.08256	0.0247
14	0.1452	0.0268
16	0.2407	0.0329
18	0.3765	0.0429
20	0.5576	0.0577
25	1.224	0.05
30	2.197	0.135
35	3.454	0.162
40	4.96	0.199
45	6.683	0.246
50	8.589	0.299
55	10.65	0.18
60	12.84	0.19
65	15.13	0.21
70	17.52	0.23
75	19.98	0.24
80	22.5	0.26
85	25.06	0.28
90	27.67	0.37
95	30.3	0.39
100	32.96	0.4
110	38.31	0.44
120	43.69	0.48
130	49.06	0.51
140	54.41	0.55
150	59.7	0.59
160	64.93	0.62
170	70.1	0.66
180	75.18	0.7
190	80.19	0.73
200	85.12	0.77
210	89.95	0.8
220	94.71	0.84
230	99.38	0.87
240	104	0.9
250	108.5	0.9
260	112.9	1
270	117.2	1
280	121.5	1
290	125.6	1.1
300	129.7	1.1
320	137.7	1.1
340	145.4	1.2

System: lanthanum orthoniobate; phases: Crystal 2
Fixed: Pressure, kPa = 101.325
Property: Molar enthalpy, kJ/mol (Crystal 2); method: Small (less than 1 g) adiabatic calorimetry
Temperature, K	Molar enthalpy, kJ/mol	uncertainty
2	5.947e-07	3.09928e-05
4	8.483e-06	6.2089e-05
6	4.17e-05	9.352e-05
8	0.0001321	0.0001257
10	0.0003369	0.0001591
12	0.000764	0.000195
14	0.001585	0.000235
16	0.003028	0.000314
18	0.005347	0.000442
20	0.008799	0.00064
25	0.02393	0.00071
30	0.05083	0.00252
35	0.09178	0.00335
40	0.1484	0.0045
45	0.2217	0.006
50	0.3123	0.0078
55	0.4205	0.0059
60	0.5464	0.0068
65	0.69	0.0077
70	0.851	0.0087
75	1.029	0.01
80	1.224	0.011
85	1.436	0.013
90	1.664	0.019
95	1.908	0.021
100	2.167	0.022
110	2.729	0.026
120	3.348	0.03
130	4.019	0.034
140	4.74	0.038
150	5.508	0.043
160	6.319	0.048
170	7.171	0.053
180	8.061	0.058
190	8.987	0.063
200	9.948	0.069
210	10.94	0.075
220	11.962	0.081
230	13.012	0.087
240	14.089	0.093
250	15.191	0.099
260	16.318	0.106
270	17.466	0.112
280	18.637	0.119
290	19.827	0.125
300	21.036	0.132
320	23.509	0.146
340	26.048	0.16

System: lanthanum orthoniobate; phases: Crystal 2
Fixed: Pressure, kPa = 101.325
Property: Molar enthalpy, kJ/mol (Crystal 2); method: Drop calorimetry
Lower temperature, K	Upper temperature, K	Molar enthalpy, kJ/mol	uncertainty
294.4	438.42	18.782	1.969
294.15	527.5	31.848	1.282
294.42	644.72	48.53	2.91
294.05	741.48	64.175	2.121

System: lanthanum orthoniobate; phases: Crystal 1
Fixed: Pressure, kPa = 101.325
Property: Molar enthalpy, kJ/mol (Crystal 1); method: Drop calorimetry
Lower temperature, K	Upper temperature, K	Molar enthalpy, kJ/mol	uncertainty
294	835.58	78.681	1.997
293.85	931.17	95.447	4.729
295.15	1030.49	112.557	4.301
295.35	1131.25	128.245	3.878
295.05	1232.95	145.406	5.697
297.55	1311.45	154.93	17.75
295.65	1437.12	181.567	11.219
296.8	1541.5	197.824	22.301
