Measured thermophysical data. Phase equilibria study of binary systems comprising an (ionic liquid + hydrocarbon)
Source: J. Chem. Thermodyn., 2015, 10.1016/j.jct.2014.12.005
Compound 1: 1-methyl-1-propylpyrrolidinium triflate, C9H18F3NO3S, InChI=1S/C8H18N.CHF3O3S/c1-3-6-9(2)7-4-5-8-9;2-1(3,4)8(5,6)7/h3-8H2,1-2H3;(H,5,6,7)/q+1;/p-1, purity 99%
Compound 2: N-butyl-4-cyanopyridinium tricyanomethanide, C14H13N5, InChI=1S/C10H13N2.C4N3/c1-2-3-6-12-7-4-10(9-11)5-8-12;5-1-4(2-6)3-7/h4-5,7-8H,2-3,6H2,1H3;/q+1;-1, purity 98%
Compound 3: heptane, C7H16, InChI=1S/C7H16/c1-3-5-7-6-4-2/h3-7H2,1-2H3, purity 99.5%
Compound 4: benzene, C6H6, InChI=1S/C6H6/c1-2-4-6-5-3-1/h1-6H, purity 99.5%
Compound 5: toluene, C7H8, InChI=1S/C7H8/c1-7-5-3-2-4-6-7/h2-6H,1H3, purity 99.5%
Compound 6: thiophene, C4H4S, InChI=1S/C4H4S/c1-2-4-5-3-1/h1-4H, purity 99%
Compound 7: 2-methylthiophene, C5H6S, InChI=1S/C5H6S/c1-5-3-2-4-6-5/h2-4H,1H3, purity 99%
Compound 8: benzo[b]thiophene, C8H6S, InChI=1S/C8H6S/c1-2-4-8-7(3-1)5-6-9-8/h1-6H, purity 99.5%

System: 1-methyl-1-propylpyrrolidinium triflate; phases: Crystal 1, Liquid, Air at 1 atmosphere
Property: Molar enthalpy of transition or fusion, kJ/mol (Crystal 1); method: DSC
Molar enthalpy of transition or fusion, kJ/mol	uncertainty
37.2	3.79

System: 1-methyl-1-propylpyrrolidinium triflate; phases: Crystal 1, Liquid, Air at 1 atmosphere
Property: Triple point temperature, K (Crystal 1); method: DTA
Triple point temperature, K	uncertainty
350.5	0.4

System: 1-methyl-1-propylpyrrolidinium triflate; phases: Crystal 2, Crystal 1, Air at 1 atmosphere
Property: Triple point temperature, K (Crystal 2); method: DTA
Triple point temperature, K	uncertainty
205.06	0.41

System: 1-methyl-1-propylpyrrolidinium triflate; phases: Crystal 2, Crystal 1, Air at 1 atmosphere
Property: Molar enthalpy of transition or fusion, kJ/mol (Crystal 2); method: DSC
Molar enthalpy of transition or fusion, kJ/mol	uncertainty
1.96	0.23

System: 1-methyl-1-propylpyrrolidinium triflate; phases: Crystal 1, Liquid, Air at 1 atmosphere
Property: Normal melting temperature, K (Crystal 1); method: VISOBS
Normal melting temperature, K	uncertainty
350.7	0.5

System: N-butyl-4-cyanopyridinium tricyanomethanide; phases: Crystal, Liquid, Air at 1 atmosphere
Property: Molar enthalpy of transition or fusion, kJ/mol (Crystal); method: DSC
Molar enthalpy of transition or fusion, kJ/mol	uncertainty
29.66	3.02

System: N-butyl-4-cyanopyridinium tricyanomethanide; phases: Crystal, Liquid, Air at 1 atmosphere
Property: Triple point temperature, K (Crystal); method: DTA
Triple point temperature, K	uncertainty
361.8	0.4

System: N-butyl-4-cyanopyridinium tricyanomethanide; phases: Glass, Liquid, Air at 1 atmosphere
Property: Triple point temperature, K (Glass); method: DTA
Triple point temperature, K	uncertainty
228.2	0.4

System: benzo[b]thiophene; phases: Liquid
Property: Mass density, kg/m3 (Liquid); method: Vibrating tube method
Temperature, K	Pressure, kPa	Mass density, kg/m3	uncertainty
308.15	101.325	1150.55	1.01

System: heptane + 1-methyl-1-propylpyrrolidinium triflate; phases: Liquid mixture 1, Liquid mixture 2, Crystal, Air at 1 atmosphere
Property: Monotectic temperature, K (Liquid mixture 1); method: VISOBS
Monotectic temperature, K	uncertainty
349.6	0.4

System: heptane + 1-methyl-1-propylpyrrolidinium triflate; phases: Liquid, Crystal
Fixed: Pressure, kPa = 101
Property: Solid-liquid equilibrium temperature, K (Liquid); method: VISOBS
Mole fraction of 1-methyl-1-propylpyrrolidinium triflate	Solid-liquid equilibrium temperature, K	uncertainty
1	350.7	0.4
0.9942	350.6	0.4
0.9928	350.5	0.4
0.9874	350.5	0.4
0.9847	350.5	0.4
0.9843	350.5	0.4
0.9705	350.4	0.4
0.9657	350.4	0.4
0.9602	350.4	0.4
0.9509	350.3	0.4
0.9441	350.3	0.4
0.9336	350.3	0.4
0.9264	350.4	0.4
0.9236	350.2	0.4
0.9045	349.9	0.4
0.9024	350.1	0.4
0.9014	350.2	0.4
0.896	350.1	0.4
0.8932	350.1	0.4
0.8897	350.1	0.4

System: heptane + 1-methyl-1-propylpyrrolidinium triflate; phases: Liquid mixture 1, Liquid mixture 2
Fixed: Pressure, kPa = 101
Property: Liquid-liquid equilibrium temperature, K (Liquid mixture 1); method: VISOBS
Mole fraction of 1-methyl-1-propylpyrrolidinium triflate	Liquid-liquid equilibrium temperature, K	uncertainty
0.8864	351	0.5
0.8851	350.8	0.4
0.8822	351.3	0.5
0.8787	352.4	0.5
0.8698	354.9	0.5
0.853	356.6	0.5
0.8387	359.8	0.5
0.8168	364.5	0.5

System: benzene + 1-methyl-1-propylpyrrolidinium triflate; phases: Liquid mixture 1, Liquid mixture 2, Crystal, Air at 1 atmosphere
Property: Monotectic temperature, K (Liquid mixture 1); method: VISOBS
Monotectic temperature, K	uncertainty
301.4	0.4

System: benzene + 1-methyl-1-propylpyrrolidinium triflate; phases: Liquid, Crystal
Fixed: Pressure, kPa = 101
Property: Solid-liquid equilibrium temperature, K (Liquid); method: VISOBS
Mole fraction of 1-methyl-1-propylpyrrolidinium triflate	Solid-liquid equilibrium temperature, K	uncertainty
1	350.7	0.4
0.9651	348.8	0.4
0.952	348.7	0.4
0.9042	346.1	0.4
0.8768	344.8	0.4
0.8495	343.3	0.4
0.8175	341.4	0.4
0.7794	339.1	0.4
0.7534	336.8	0.4
0.7198	334.8	0.4
0.6901	332.9	0.4
0.6475	331.4	0.4
0.619	329	0.4
0.5974	327.2	0.4
0.5661	324.7	0.4
0.5404	322.4	0.4
0.5093	319.8	0.4
0.4802	316.8	0.4
0.4518	314.1	0.4
0.4235	311.5	0.4
0.4016	309.1	0.4
0.3773	307.4	0.4
0.3524	305.2	0.4
0.3281	303.5	0.4

System: thiophene + 1-methyl-1-propylpyrrolidinium triflate; phases: Liquid mixture 1, Liquid mixture 2, Crystal, Air at 1 atmosphere
Property: Monotectic temperature, K (Liquid mixture 1); method: VISOBS
Monotectic temperature, K	uncertainty
275.9	0.4

System: thiophene + 1-methyl-1-propylpyrrolidinium triflate; phases: Liquid, Crystal
Fixed: Pressure, kPa = 101
Property: Solid-liquid equilibrium temperature, K (Liquid); method: VISOBS
Mole fraction of 1-methyl-1-propylpyrrolidinium triflate	Solid-liquid equilibrium temperature, K	uncertainty
1	350.7	0.4
0.969	349	0.4
0.9581	348.3	0.4
0.9479	347.5	0.4
0.9082	345.3	0.4
0.8834	343.3	0.4
0.8544	340.9	0.4
0.8234	339.7	0.4
0.8078	338.8	0.4
0.7983	338	0.4
0.7843	336.3	0.4
0.7571	334.5	0.4
0.7368	333.3	0.4
0.7116	331.4	0.4
0.688	329.2	0.4
0.6645	327.4	0.4
0.6397	325.1	0.4
0.6259	323.8	0.4
0.5999	321.6	0.4
0.5786	319.4	0.4
0.5627	317.8	0.4
0.5467	316	0.4
0.5177	312.3	0.4
0.5049	310.8	0.4
0.4904	309	0.4
0.4723	306.6	0.4
0.4568	305	0.4
0.4312	302.3	0.4
0.4133	300.4	0.4
0.39	297.5	0.4
0.3768	296	0.4
0.3615	294	0.4
0.3435	291.5	0.5
0.3321	289.4	0.5
0.3116	286.5	0.4
0.2892	283.6	0.4
0.2717	281.7	0.4
0.254	278.8	0.5
0.2373	276.9	0.4

System: thiophene + 1-methyl-1-propylpyrrolidinium triflate; phases: Liquid mixture 1, Liquid mixture 2
Property: Liquid-liquid equilibrium temperature, K (Liquid mixture 1); method: VISOBS
Mole fraction of 1-methyl-1-propylpyrrolidinium triflate	Pressure, kPa	Liquid-liquid equilibrium temperature, K	uncertainty
0.2212	101	372.2	0.4

System: benzo[b]thiophene + 1-methyl-1-propylpyrrolidinium triflate; phases: Liquid, Crystal
Fixed: Pressure, kPa = 101
Property: Solid-liquid equilibrium temperature, K (Liquid); method: VISOBS
Mole fraction of 1-methyl-1-propylpyrrolidinium triflate	Solid-liquid equilibrium temperature, K	uncertainty
1	350.7	0.4
0.963	348	0.4
0.905	344.5	0.4
0.8628	342.2	0.4
0.8381	340.6	0.4
0.7993	338.4	0.4
0.778	336.7	0.4
0.7447	334.6	0.4
0.7289	332.7	0.4
0.6894	330.1	0.4
0.6628	328.3	0.4
0.6142	324.8	0.4
0.5965	323.6	0.4
0.5654	321.4	0.4
0.5181	318	0.4
0.4921	315.8	0.4
0.4446	311.9	0.4
0.4255	310.3	0.4
0.4041	308.5	0.4
0.3787	306	0.4
0.357	303.6	0.4
0.3465	302.4	0.4
0.3177	299.2	0.4

System: benzo[b]thiophene + 1-methyl-1-propylpyrrolidinium triflate; phases: Liquid, Crystal
Fixed: Pressure, kPa = 101
Property: Solid-liquid equilibrium temperature, K (Liquid); method: VISOBS
Mole fraction of 1-methyl-1-propylpyrrolidinium triflate	Solid-liquid equilibrium temperature, K	uncertainty
0.2679	298.6	0.4
0.2433	300.2	0.4
0.2161	301.5	0.4
0.1579	303.5	0.4
0.125	303.9	0.4
0.0924	304.4	0.4
0.0698	304.4	0.4
0.0016	304.5	0.4

System: N-butyl-4-cyanopyridinium tricyanomethanide + heptane; phases: Liquid mixture 1, Liquid mixture 2, Crystal, Air at 1 atmosphere
Property: Monotectic temperature, K (Liquid mixture 1); method: VISOBS
Monotectic temperature, K	uncertainty
360.8	0.4

System: N-butyl-4-cyanopyridinium tricyanomethanide + heptane; phases: Liquid, Crystal
Fixed: Pressure, kPa = 101
Property: Solid-liquid equilibrium temperature, K (Liquid); method: VISOBS
Mole fraction of N-butyl-4-cyanopyridinium tricyanomethanide	Solid-liquid equilibrium temperature, K	uncertainty
1	361.8	0.4
0.9887	361.5	0.5
0.9774	361.4	0.4
0.9576	361.4	0.4
0.9297	361.3	0.5
0.9062	361.2	0.8
0.8847	361	1
0.8657	360.9	0.8

System: N-butyl-4-cyanopyridinium tricyanomethanide + heptane; phases: Liquid mixture 1, Liquid mixture 2
Fixed: Pressure, kPa = 101
Property: Liquid-liquid equilibrium temperature, K (Liquid mixture 1); method: VISOBS
Mole fraction of N-butyl-4-cyanopyridinium tricyanomethanide	Liquid-liquid equilibrium temperature, K	uncertainty
0.8113	365.4	0.5
0.7966	368.2	0.5

System: N-butyl-4-cyanopyridinium tricyanomethanide + toluene; phases: Liquid mixture 1, Liquid mixture 2, Crystal, Air at 1 atmosphere
Property: Monotectic temperature, K (Liquid mixture 1); method: VISOBS
Monotectic temperature, K	uncertainty
343.8	0.4

System: N-butyl-4-cyanopyridinium tricyanomethanide + toluene; phases: Liquid, Crystal
Fixed: Pressure, kPa = 101
Property: Solid-liquid equilibrium temperature, K (Liquid); method: VISOBS
Mole fraction of N-butyl-4-cyanopyridinium tricyanomethanide	Solid-liquid equilibrium temperature, K	uncertainty
1	361.8	0.4
0.9875	361.5	0.4
0.9446	360.2	0.4
0.9072	358.9	0.4
0.929	359.8	0.4
0.8784	358.2	0.4
0.8313	356.5	0.4
0.7839	354.9	0.4
0.7363	352.7	0.4
0.6966	350.8	0.4
0.6491	348.7	0.4
0.5884	346.4	0.4
0.5681	345.4	0.4
0.5438	344.2	0.4

System: N-butyl-4-cyanopyridinium tricyanomethanide + toluene; phases: Liquid mixture 1, Liquid mixture 2
Fixed: Pressure, kPa = 101
Property: Liquid-liquid equilibrium temperature, K (Liquid mixture 1); method: VISOBS
Mole fraction of N-butyl-4-cyanopyridinium tricyanomethanide	Liquid-liquid equilibrium temperature, K	uncertainty
0.5208	355.5	1.1
0.5163	360.1	1.3
0.51	368.2	1.4

System: N-butyl-4-cyanopyridinium tricyanomethanide + 2-methylthiophene; phases: Liquid mixture 1, Liquid mixture 2, Crystal, Air at 1 atmosphere
Property: Monotectic temperature, K (Liquid mixture 1); method: VISOBS
Monotectic temperature, K	uncertainty
337.2	0.4

System: N-butyl-4-cyanopyridinium tricyanomethanide + 2-methylthiophene; phases: Liquid, Crystal
Fixed: Pressure, kPa = 101
Property: Solid-liquid equilibrium temperature, K (Liquid); method: VISOBS
Mole fraction of N-butyl-4-cyanopyridinium tricyanomethanide	Solid-liquid equilibrium temperature, K	uncertainty
1	361.8	0.4
0.9925	361.6	0.4
0.9508	360.3	0.4
0.91	358.9	0.4
0.8634	357	0.4
0.8144	355.2	0.4
0.7662	353.1	0.4
0.7122	351.2	0.4
0.6696	349.1	0.4
0.6236	346.5	0.4
0.5793	344.1	0.4
0.531	341.2	0.4
0.5247	340.8	0.4
0.5137	340.2	0.4
0.5014	339.5	0.4
0.488	338.7	0.4
0.4777	338.1	0.4
0.4649	337.5	0.4

System: N-butyl-4-cyanopyridinium tricyanomethanide + 2-methylthiophene; phases: Liquid mixture 1, Liquid mixture 2
Fixed: Pressure, kPa = 101
Property: Liquid-liquid equilibrium temperature, K (Liquid mixture 1); method: VISOBS
Mole fraction of N-butyl-4-cyanopyridinium tricyanomethanide	Liquid-liquid equilibrium temperature, K	uncertainty
0.4526	339.4	1.8
0.4484	346.8	1.4
0.4419	353.9	1.2
0.437	359.8	1.3

System: N-butyl-4-cyanopyridinium tricyanomethanide + benzo[b]thiophene; phases: Liquid mixture 1, Liquid mixture 2, Crystal, Air at 1 atmosphere
Property: Monotectic temperature, K (Liquid mixture 1); method: VISOBS
Monotectic temperature, K	uncertainty
306.6	0.4

System: N-butyl-4-cyanopyridinium tricyanomethanide + benzo[b]thiophene; phases: Liquid, Crystal
Fixed: Pressure, kPa = 101
Property: Solid-liquid equilibrium temperature, K (Liquid); method: VISOBS
Mole fraction of N-butyl-4-cyanopyridinium tricyanomethanide	Solid-liquid equilibrium temperature, K	uncertainty
1	361.8	0.4
0.9108	358.3	0.4
0.8894	357.3	0.4
0.78	352.6	0.4
0.7154	349.2	0.4
0.6837	347.4	0.4
0.6356	344.7	0.4
0.5908	342	0.4
0.5496	339.3	0.4
0.4974	335.1	0.4
0.4613	332.1	0.4
0.4354	329.8	0.4
0.3753	323.8	0.4
0.3406	319.8	0.4
0.3028	315.4	0.4
0.2674	311.9	0.4
0.2582	311.4	0.4
0.24	309.3	0.4
0.2391	309.2	0.4
0.2305	308.2	0.4
