Measured thermophysical data. Relative permittivity of the binary mixtures of 2-methoxyethanol with diethylene glycol, triethylene glycol, tetraethylene glycol, and polyethylene glycol 200 at various temperatures
Source: J. Chem. Thermodyn., 2007, 10.1016/j.jct.2006.09.015
Compound 1: 2-methoxyethan-1-ol, C3H8O2, InChI=1S/C3H8O2/c1-5-3-2-4/h4H,2-3H2,1H3, purity 99%
Compound 2: diethylene glycol, C4H10O3, InChI=1S/C4H10O3/c5-1-3-7-4-2-6/h5-6H,1-4H2, purity 99.5%
Compound 3: triethylene glycol, C6H14O4, InChI=1S/C6H14O4/c7-1-3-9-5-6-10-4-2-8/h7-8H,1-6H2, purity 99%
Compound 4: tetraethylene glycol, C8H18O5, InChI=1S/C8H18O5/c9-1-3-11-5-7-13-8-6-12-4-2-10/h9-10H,1-8H2, purity 99%

System: 2-methoxyethan-1-ol; phases: Liquid
Fixed: Pressure, kPa = 101.3
Fixed: Frequency, MHz = 3
Property: Relative permittivity at various frequencies (Liquid); method: Bridge type OH-301 made in Radelcis, Hungary
Temperature, K	Relative permittivity at various frequencies	uncertainty
293.15	17.38	0.04
298.15	16.95	0.04
303.15	16.56	0.04

System: diethylene glycol; phases: Liquid
Fixed: Pressure, kPa = 101.3
Fixed: Frequency, MHz = 3
Property: Relative permittivity at various frequencies (Liquid); method: OTHER::sMethod:Bridge type OH-301 made in Radelcis, Hungary
Temperature, K	Relative permittivity at various frequencies	uncertainty
293.15	31.81	0.04
298.15	30.95	0.04
303.15	30.03	0.04

System: triethylene glycol; phases: Liquid
Fixed: Pressure, kPa = 101.3
Fixed: Frequency, MHz = 3
Property: Relative permittivity at various frequencies (Liquid); method: OTHER::sMethod:Bridge type OH-301 made in Radelcis, Hungary
Temperature, K	Relative permittivity at various frequencies	uncertainty
293.15	23.69	0.04
298.15	23.07	0.04
303.15	22.43	0.04

System: tetraethylene glycol; phases: Liquid
Fixed: Pressure, kPa = 101.3
Fixed: Frequency, MHz = 3
Property: Relative permittivity at various frequencies (Liquid); method: OTHER::sMethod:Bridge type OH-301 made in Radelcis, Hungary
Temperature, K	Relative permittivity at various frequencies	uncertainty
293.15	20.44	0.04
298.15	19.91	0.04
303.15	19.35	0.04

System: 2-methoxyethan-1-ol + diethylene glycol; phases: Liquid
Fixed: Pressure, kPa = 101.3
Fixed: Frequency, MHz = 3
Property: Relative permittivity at various frequencies (Liquid); method: Bridge type OH-301 made in Radelcis, Hungary
Mole fraction of 2-methoxyethan-1-ol	Temperature, K	Relative permittivity at various frequencies	uncertainty
0	293.15	31.81	0.04
0	298.15	30.95	0.04
0	303.15	30.03	0.04
0.0414	293.15	31.69	0.04
0.0414	298.15	30.71	0.04
0.0414	303.15	29.85	0.04
0.0999	293.15	31.49	0.04
0.0999	298.15	30.39	0.04
0.0999	303.15	29.49	0.04
0.2077	293.15	31.23	0.04
0.2077	298.15	29.85	0.04
0.2077	303.15	29.01	0.04
0.3001	293.15	31.03	0.04
0.3001	298.15	29.41	0.04
0.3001	303.15	28.45	0.04
0.4094	293.15	30.32	0.04
0.4094	298.15	28.67	0.04
0.4094	303.15	27.49	0.04
0.4998	293.15	29.56	0.04
0.4998	298.15	27.81	0.04
0.4998	303.15	26.61	0.04
0.5994	293.15	28.32	0.04
0.5994	298.15	26.68	0.04
0.5994	303.15	25.36	0.04
0.6996	293.15	26.65	0.04
0.6996	298.15	24.99	0.04
0.6996	303.15	23.55	0.04
0.7996	293.15	24.25	0.04
0.7996	298.15	22.78	0.04
0.7996	303.15	21.64	0.04
0.9018	293.15	21.43	0.04
0.9018	298.15	20.27	0.04
0.9018	303.15	19.39	0.04
0.9463	293.15	19.98	0.04
0.9463	298.15	18.88	0.04
0.9463	303.15	18.25	0.04
1	293.15	17.38	0.04
1	298.15	16.95	0.04
1	303.15	16.56	0.04

System: 2-methoxyethan-1-ol + triethylene glycol; phases: Liquid
Fixed: Pressure, kPa = 101.3
Fixed: Frequency, MHz = 3
Property: Relative permittivity at various frequencies (Liquid); method: Bridge type OH-301 made in Radelcis, Hungary
Mole fraction of 2-methoxyethan-1-ol	Temperature, K	Relative permittivity at various frequencies	uncertainty
0	293.15	23.69	0.04
0	298.15	23.07	0.04
0	303.15	22.43	0.04
0.05	293.15	23.69	0.04
0.05	298.15	23.05	0.04
0.05	303.15	22.42	0.04
0.1	293.15	23.7	0.04
0.1	298.15	23.03	0.04
0.1	303.15	22.41	0.04
0.2003	293.15	23.72	0.04
0.2003	298.15	23.06	0.04
0.2003	303.15	22.48	0.04
0.2999	293.15	23.76	0.04
0.2999	298.15	23.07	0.04
0.2999	303.15	22.48	0.04
0.4009	293.15	23.79	0.04
0.4009	298.15	23.06	0.04
0.4009	303.15	22.44	0.04
0.5	293.15	23.82	0.04
0.5	298.15	22.95	0.04
0.5	303.15	22.35	0.04
0.5999	293.15	23.77	0.04
0.5999	298.15	22.76	0.04
0.5999	303.15	21.91	0.04
0.7	293.15	23.62	0.04
0.7	298.15	22.3	0.04
0.7	303.15	21.39	0.04
0.8	293.15	22.92	0.04
0.8	298.15	21.54	0.04
0.8	303.15	20.43	0.04
0.9	293.15	21.26	0.04
0.9	298.15	19.93	0.04
0.9	303.15	19.1	0.04
0.9499	293.15	19.75	0.04
0.9499	298.15	18.81	0.04
0.9499	303.15	18.14	0.04
1	293.15	17.38	0.04
1	298.15	16.95	0.04
1	303.15	16.56	0.04

System: 2-methoxyethan-1-ol + tetraethylene glycol; phases: Liquid
Fixed: Pressure, kPa = 101.3
Fixed: Frequency, MHz = 3
Property: Relative permittivity at various frequencies (Liquid); method: Bridge type OH-301 made in Radelcis, Hungary
Mole fraction of 2-methoxyethan-1-ol	Temperature, K	Relative permittivity at various frequencies	uncertainty
0	293.15	20.44	0.04
0	298.15	19.91	0.04
0	303.15	19.35	0.04
0.0559	293.15	20.56	0.04
0.0559	298.15	19.99	0.04
0.0559	303.15	19.43	0.04
0.1009	293.15	20.66	0.04
0.1009	298.15	20.09	0.04
0.1009	303.15	19.52	0.04
0.2001	293.15	20.92	0.04
0.2001	298.15	20.34	0.04
0.2001	303.15	19.73	0.04
0.3	293.15	21.15	0.04
0.3	298.15	20.58	0.04
0.3	303.15	19.92	0.04
0.4	293.15	21.38	0.04
0.4	298.15	20.78	0.04
0.4	303.15	20.15	0.04
0.5004	293.15	21.63	0.04
0.5004	298.15	20.97	0.04
0.5004	303.15	20.4	0.04
0.5973	293.15	21.86	0.04
0.5973	298.15	21.1	0.04
0.5973	303.15	20.56	0.04
0.7	293.15	22	0.04
0.7	298.15	21.12	0.04
0.7	303.15	20.49	0.04
0.7999	293.15	21.63	0.04
0.7999	298.15	20.71	0.04
0.7999	303.15	20.02	0.04
0.9001	293.15	20.44	0.04
0.9001	298.15	19.57	0.04
0.9001	303.15	18.81	0.04
0.95	293.15	19.17	0.04
0.95	298.15	18.49	0.04
0.95	303.15	17.76	0.04
1	293.15	17.38	0.04
1	298.15	16.95	0.04
1	303.15	16.56	0.04
