Measured thermophysical data. Saturated phase densities of (CO2 + H2O) at temperatures from (293 to 450) K and pressures up to 64 MPa
Source: J. Chem. Thermodyn., 2016, 10.1016/j.jct.2015.06.034
Compound 1: carbon dioxide, CO2, InChI=1S/CO2/c2-1-3, purity 99.95%
Compound 2: water, H2O, InChI=1S/H2O/h1H2, purity 99.9%

System: carbon dioxide + water; phases: Liquid, Gas
Property: Mass density, kg/m3 (Liquid); method: Vibrating tube method
Temperature, K	Pressure, kPa	Mass density, kg/m3	uncertainty
292.7	1450	1004.9	2
292.7	1870	1006.2	2
292.7	3920	1012.8	2
292.7	5550	1016.2	2
292.7	5630	1016.6	2
297.7	1460	1002.7	2
297.8	2530	1006.1	2
297.8	3150	1008	2
297.8	4250	1010.8	2
297.8	4250	1010.8	2
297.7	5130	1012.8	2
297.8	5750	1013.9	2
307.8	220	994.6	2
307.8	800	996.5	2
307.7	2010	999.9	2
307.8	2030	999.9	2
307.8	2950	1002.3	2
307.7	2960	1002.2	2
307.7	3940	1004.4	2.2
307.8	4020	1004.4	2.2
307.7	5200	1006.6	2.2
307.8	5250	1006.7	2.2
307.7	7270	1010	2.2
307.8	7690	1010	2.2
307.7	8070	1010.4	2.2
307.7	8270	1010.6	2.2
307.8	8620	1010.9	2.2
307.7	8840	1010.9	2.2
307.8	9580	1011.5	2.2
307.7	11100	1012.4	2.2
307.8	11480	1012.5	2.2
307.8	15060	1014.5	2
307.7	17730	1016	2
307.8	22320	1018.3	2
307.7	31360	1022.8	2
307.7	38080	1025.9	2
307.7	46540	1030.2	2
322.7	2190	992.7	2
322.8	3150	994.4	2
322.7	3260	994.7	2
322.8	4140	996.1	2
322.7	4350	996.5	2
322.8	5000	997.5	2
322.8	5090	997.8	2
322.8	5910	998.8	2
322.7	6160	999.2	2
322.8	7280	1000.2	2
322.7	8440	1001.9	2.1
322.8	8550	1001.3	2.1
322.7	8570	1002	2.1
322.8	9280	1002.1	2
322.8	10250	1002.8	2
322.7	10330	1003.5	2
322.8	11050	1003.6	2
322.8	12050	1004.2	2
322.8	13340	1005.1	2
322.8	17050	1007.2	2
322.8	21530	1008.9	2
322.7	21730	1009.5	2
322.7	26830	1012.1	2
322.8	31080	1014.2	2
322.8	38030	1017.6	2
322.7	47330	1022.2	2
322.8	56510	1026.3	2
322.7	63440	1028.6	2.2
342.8	2150	981.1	2
342.8	3120	982.5	2
342.8	4240	984	2
342.8	6010	986.2	2
342.8	10650	990.3	2
342.8	15990	994.3	2
342.8	20370	996.7	2
342.8	31420	1001.7	2
342.8	47190	1010.1	2
342.8	61630	1016.9	2
373.2	300	958	2
373.1	700	959	2
373.2	920	959	2
373.2	1820	960	2
373	3180	961.9	2
373	4350	963.1	2
372.9	5190	964	2
373	6130	964.9	2
373	8130	966.7	2
373	8170	966.7	2
373	8420	966.9	2.1
373	10080	968.3	2
373	15870	972.6	2
373	17600	973.5	2
373	27820	979.4	2
373	33240	982.3	2
373	33370	982.5	2
373.1	40290	986	2
373	46450	989.4	2
373	50010	990.3	2
373	62080	997	2
398.5	19460	954	2
398.4	24310	957.1	2
398.4	27050	958.7	2
398.4	32850	962.1	2
398.4	41520	966.9	2
398.3	47220	970.1	2
423.3	2430	918.5	2
423.2	3120	919.1	2
423.3	4170	919.8	2
423.3	5340	920.8	2
423.2	17730	929.8	2
423.2	25010	934.6	2
423.3	46220	947.7	2
423.3	63890	957.7	2
448.5	21770	905.9	2.1
448.5	27760	910	2.1
448.5	33250	913.7	2
448.5	37750	916.7	2
448.5	43580	920.5	2.1
448.5	50000	924.5	2.1

System: carbon dioxide + water; phases: Gas, Liquid
Property: Mass density, kg/m3 (Gas); method: Vibrating tube method
Temperature, K	Pressure, kPa	Mass density, kg/m3	uncertainty
292.7	1870	38.5	3
292.7	3910	97.4	3.5
292.7	5610	187	6
292.7	5630	187.8	5.8
297.8	1420	27.7	2.9
297.8	4240	103.8	3.4
297.8	4240	103.8	3.4
297.8	5080	138.5	3.9
297.8	5680	172	4.7
297.8	6210	217.8	7
307.7	250	4.2	2.8
307.7	790	14.8	2.9
307.7	800	14.9	2.9
307.7	2000	39.2	2.9
307.7	2010	38.7	2.9
307.7	2920	59.1	3
307.7	2940	60.1	3
307.7	3920	85.7	3.2
307.7	3980	86.3	3.2
307.7	5170	125.6	3.6
307.7	5240	126.5	3.5
307.7	6020	159	3.9
307.7	6700	196.1	4.6
307.7	7680	290.3	10.3
307.7	9580	686	10.3
307.7	11040	740.4	8.4
307.7	11450	750.5	8
307.7	15060	812.5	6.4
307.7	17610	842	5.6
307.7	22320	881.2	4.8
307.7	31400	934	4
307.7	46680	993.5	3.2
322.8	2160	39.5	2.9
322.8	3150	61.2	2.9
322.8	3200	61.3	2.9
322.8	4150	83.7	3
322.8	4280	86.9	3
322.8	5000	105.8	3.2
322.8	5070	107.9	3.2
322.8	6050	137.7	3.3
322.8	8450	244.8	4.6
322.8	8550	250.2	4.8
322.8	9120	291.8	5.8
322.8	9280	305.3	6.2
322.8	10250	406	9.3
322.8	11050	499.1	10.3
322.8	12050	581.6	8.7
322.8	13340	645.2	7.3
322.8	17050	740.2	5.6
322.8	17050	739.2	5.6
322.8	21490	800.5	4.8
322.8	21520	799.9	4.8
322.8	26810	847	4.1
322.8	31100	876.3	3.8
322.8	38050	913.1	3.4
322.8	47310	951.2	3.1
322.8	56480	982.4	2.8
322.8	63010	1000.7	2.7
342.8	4160	76.2	2.9
342.8	5880	115.2	2.9
342.8	15900	542.5	5.4
342.8	20280	664.2	4.7
342.8	31370	799	3.7
342.8	47110	891.3	3.1
373	300	4.6	2.5
373	930	13.8	2.7
373	2150	32.7	2.7
373	3170	49.1	2.7
373	4440	71	2.7
373	5140	83.7	2.7
373	6090	101.7	2.8
373	8710	157.6	2.9
373	9780	183.1	2.9
373	15760	356.7	3.6
373	17590	413.2	3.7
373	20200	487	3.9
373	27820	634.6	3.6
373	32040	686.7	3.4
373	33240	699.4	3.4
373	38040	742.5	3.1
373	40300	759.5	3.1
373	46460	798.9	3
373	50040	819.1	2.9
373	62000	872.4	2.6
398.4	19440	373.7	3.1
398.4	24290	476.7	3.3
398.4	27040	525.3	3.3
398.4	32840	607.1	3.1
398.4	41540	692.6	3
398.4	47240	734.7	2.9
423.3	2420	28.4	2.3
423.3	3110	37.8	2.3
423.3	4170	52.4	2.4
423.3	5320	69	2.4
423.3	8730	121.3	2.6
423.3	17590	279.8	2.7
423.3	24980	415.6	3
423.3	46180	661.4	2.7
423.3	63770	765.7	2.6
448.5	4180	47.1	2.3
448.5	21740	312.4	2.7
448.5	27740	403.8	2.7
448.5	33240	476.9	2.7
448.5	37740	527.9	2.7
448.5	43580	583.6	2.7
448.5	50010	634	2.7

System: carbon dioxide + water; phases: Liquid mixture 1, Liquid mixture 2
Property: Mass density, kg/m3 (Liquid mixture 1); method: Vibrating tube method
Temperature, K	Pressure, kPa	Mass density, kg/m3	uncertainty
292.7	5660	1016.9	2
292.7	9990	1019.4	2
292.7	15720	1022.2	2
292.7	15750	1022.3	2
292.7	20430	1024.7	2
292.7	20840	1025	2
292.7	25120	1027.2	2
292.7	25140	1027.2	2
292.7	25580	1027.4	2
292.7	30110	1029.7	2
292.7	30280	1029.8	2
292.7	35160	1032.2	2
292.7	36700	1033	2
292.7	40500	1034.9	2
297.8	6310	1014.5	2
297.8	6330	1014.6	2
297.8	6340	1014.5	2
297.8	6650	1014.7	2
297.8	7090	1015.1	2
297.8	9450	1016.4	2
297.8	11310	1017.4	2
297.8	15270	1019.6	2
297.8	20050	1022.2	2
297.8	24650	1024.5	2
297.8	26710	1025.6	2
297.8	30710	1027.6	2
297.8	35530	1030	2
297.8	40490	1032.5	2
297.8	45260	1034.8	2

System: carbon dioxide + water; phases: Liquid mixture 2, Liquid mixture 1
Property: Mass density, kg/m3 (Liquid mixture 2); method: Vibrating tube method
Temperature, K	Pressure, kPa	Mass density, kg/m3	uncertainty
292.7	5650	781.6	8.8
292.7	5650	781.1	8.9
292.7	6040	796.2	9.2
292.7	10400	867	4.6
292.7	15780	913.3	3.4
292.7	15810	913.4	3.4
292.7	20850	944.9	3.1
292.7	25600	968.2	3
292.7	35550	1008.1	2.7
292.7	40180	1022.5	2.7
297.8	6790	747.5	10.1
297.8	8330	794.5	5.7
297.8	15450	884	4
297.8	17970	904.9	3.5
297.8	20250	918.8	3.4
297.8	24730	944.1	3.1
297.8	26520	954.6	3
297.8	30750	973.7	2.8
297.8	36610	995.4	2.8
297.8	40490	1008.7	2.7
297.8	45340	1023	2.5
297.8	45590	1023.4	2.5
