Measured thermophysical data. Measuring and modeling aqueous electrolyte/amino-acid solutions with ePC-SAFT
Source: J. Chem. Thermodyn., 2014, 10.1016/j.jct.2013.08.018
Compound 1: 2-aminoacetic acid, C2H5NO2, InChI=1S/C2H5NO2/c3-1-2(4)5/h1,3H2,(H,4,5), purity 99%
Compound 2: (S)-2-aminopropanoic acid, C3H7NO2, InChI=1S/C3H7NO2/c1-2(4)3(5)6/h2H,4H2,1H3,(H,5,6)/t2-/m0/s1, purity 99.5%
Compound 3: L-valine, C5H11NO2, InChI=1S/C5H11NO2/c1-3(2)4(6)5(7)8/h3-4H,6H2,1-2H3,(H,7,8)/t4-/m0/s1, purity 99.5%
Compound 4: L-proline, C5H9NO2, InChI=1S/C5H9NO2/c7-5(8)4-2-1-3-6-4/h4,6H,1-3H2,(H,7,8)/t4-/m0/s1, purity 99.5%
Compound 5: lithium chloride, ClLi, InChI=1S/ClH.Li/h1H;/q;+1/p-1, purity 99.5%
Compound 6: lithium bromide, BrLi, InChI=1S/BrH.Li/h1H;/q;+1/p-1, purity 99.5%
Compound 7: lithium iodide, ILi, InChI=1S/HI.Li/h1H;/q;+1/p-1, purity 99.5%
Compound 8: sodium chloride, ClNa, InChI=1S/ClH.Na/h1H;/q;+1/p-1, purity 99.5%
Compound 9: sodium bromide, BrNa, InChI=1S/BrH.Na/h1H;/q;+1/p-1, purity 99.5%
Compound 10: sodium iodide, INa, InChI=1S/HI.Na/h1H;/q;+1/p-1, purity 99.5%
Compound 11: sodium nitrate, NNaO3, InChI=1S/NO3.Na/c2-1(3)4;/q-1;+1, purity 99.5%
Compound 12: sodium sulfate, Na2O4S, InChI=1S/2Na.H2O4S/c;;1-5(2,3)4/h;;(H2,1,2,3,4)/q2*+1;/p-2, purity 99.5%
Compound 13: potassium chloride, ClK, InChI=1S/ClH.K/h1H;/q;+1/p-1, purity 99.5%
Compound 14: potassium bromide, BrK, InChI=1S/BrH.K/h1H;/q;+1/p-1, purity 99.5%
Compound 15: potassium iodide, IK, InChI=1S/HI.K/h1H;/q;+1/p-1, purity 99.5%
Compound 16: potassium nitrate, KNO3, InChI=1S/K.NO3/c;2-1(3)4/q+1;-1, purity 99%
Compound 17: ammonium sulfate, H8N2O4S, InChI=1S/2H3N.H2O4S/c;;1-5(2,3)4/h2*1H3;(H2,1,2,3,4), purity 99.5%
Compound 18: water, H2O, InChI=1S/H2O/h1H2, purity 99.9%

System: 2-aminoacetic acid + sodium chloride + water; phases: Liquid, Crystal
Fixed: Pressure, kPa = 101
Fixed: Temperature, K = 298.15
Property: Molality, mol/kg of 2-aminoacetic acid (Liquid); method: gravimetric method
Molality, mol/kg of sodium chloride	Molality, mol/kg of 2-aminoacetic acid	uncertainty
0	3.32	0.14
1	3.33	0.24
3.01	3.6	0.22

System: 2-aminoacetic acid + sodium chloride + water; phases: Liquid
Fixed: Pressure, kPa = 101
Fixed: Temperature, K = 298.15
Property: Osmotic coefficient (Liquid); method: commercial osmometer Gonotec 070
Molality, mol/kg of 2-aminoacetic acid	Molality, mol/kg of sodium chloride	Osmotic coefficient	uncertainty
0.5	0.5	0.91	0.011
1	0.5	0.906	0.011
1.5	0.5	0.897	0.011
2	0.5	0.891	0.011
0.2	1	0.949	0.01
0.4	1	0.929	0.01
0.6	1	0.941	0.01
0.8	1	0.928	0.01

System: 2-aminoacetic acid + sodium chloride + water; phases: Liquid
Fixed: Pressure, kPa = 101
Fixed: Temperature, K = 298.15
Property: Osmotic coefficient (Liquid); method: commercial osmometer Knauer K-7000
Molality, mol/kg of 2-aminoacetic acid	Molality, mol/kg of sodium chloride	Osmotic coefficient	uncertainty
0	1	0.927	0.01
0.2	1	0.917	0.01
0.4	1	0.909	0.011
0.6	1	0.903	0.011
0.794	1	0.905	0.011
0.989	1	0.891	0.011
1.204	1	0.886	0.011
1.398	1	0.882	0.011
1.587	1	0.889	0.011
1.993	1	0.887	0.011
2.207	1	0.88	0.011
2.603	1	0.884	0.011
2.991	1	0.883	0.011
0	3	1.051	0.01
0.2	3	1.037	0.01
0.398	3	1.025	0.01
0.6	3	1.015	0.01
0.804	3	1.01	0.01
0.995	3	1.004	0.01
1.198	3	1.001	0.01
1.401	3	1.007	0.01
1.595	3	0.99	0.01
1.794	3	0.985	0.01
1.99	3	0.987	0.01
2.198	3	0.983	0.01
2.597	3	0.973	0.01
2.998	3	0.974	0.01

System: 2-aminoacetic acid + potassium chloride + water; phases: Liquid, Crystal
Fixed: Pressure, kPa = 101
Fixed: Temperature, K = 298.15
Property: Molality, mol/kg of 2-aminoacetic acid (Liquid); method: gravitmetric method
Molality, mol/kg of potassium chloride	Molality, mol/kg of 2-aminoacetic acid	uncertainty
1	3.27	0.2
3.01	3.38	0.24

System: 2-aminoacetic acid + potassium chloride + water; phases: Liquid
Fixed: Pressure, kPa = 101
Fixed: Temperature, K = 298.15
Property: Osmotic coefficient (Liquid); method: commercial osmometer Gonotec 070
Molality, mol/kg of 2-aminoacetic acid	Molality, mol/kg of potassium chloride	Osmotic coefficient	uncertainty
0	0.5	0.905	0.011
0.25	0.5	0.909	0.011
0.4	0.5	0.916	0.01
0.62	0.5	0.917	0.01
0.63	0.5	0.911	0.01
0.63	0.5	0.914	0.01
0.8	0.5	0.915	0.01
1.2	0.5	0.89	0.011
1.8	0.5	0.885	0.011
0	1	0.915	0.01
0.26	1	0.902	0.011
0.5	1	0.896	0.011
0.8	1	0.906	0.011

System: 2-aminoacetic acid + potassium chloride + water; phases: Liquid
Fixed: Pressure, kPa = 101
Fixed: Temperature, K = 298.15
Property: Osmotic coefficient (Liquid); method: commercial osmometer Knauer K-7000
Molality, mol/kg of 2-aminoacetic acid	Molality, mol/kg of potassium chloride	Osmotic coefficient	uncertainty
0	1	0.895	0.011
0.199	1	0.9	0.011
0.399	1	0.896	0.011
0.599	1	0.893	0.011
0.809	1	0.895	0.011
1.003	1	0.898	0.011
1.207	1	0.895	0.011
1.391	1	0.893	0.011
1.608	1	0.892	0.011
1.807	1	0.889	0.011
2.002	1	0.885	0.011
2.18	1	0.902	0.011
2.602	1	0.892	0.011
2.989	1	0.888	0.011
0	3	0.938	0.01
0.2	3	0.938	0.01
0.398	3	0.938	0.01
0.598	3	0.941	0.01
0.803	3	0.932	0.01
1.005	3	0.93	0.01
1.2	3	0.944	0.01
1.398	3	0.934	0.01
1.625	3	0.938	0.01
1.803	3	0.931	0.01
2.013	3	0.942	0.01
2.508	3	0.931	0.01
3.011	3	0.941	0.01

System: 2-aminoacetic acid + sodium nitrate + water; phases: Liquid, Crystal
Fixed: Pressure, kPa = 101
Fixed: Temperature, K = 298.15
Property: Molality, mol/kg of 2-aminoacetic acid (Liquid); method: gravimetric method
Molality, mol/kg of sodium nitrate	Molality, mol/kg of 2-aminoacetic acid	uncertainty
1	3.61	0.2
3	4.36	0.26

System: 2-aminoacetic acid + sodium nitrate + water; phases: Liquid
Fixed: Pressure, kPa = 101
Fixed: Temperature, K = 298.15
Property: Osmotic coefficient (Liquid); method: commercial osmometer Gonotec 070
Molality, mol/kg of 2-aminoacetic acid	Molality, mol/kg of sodium nitrate	Osmotic coefficient	uncertainty
0	0.5	0.895	0.011
0.4	0.5	0.883	0.011
0.8	0.5	0.872	0.011
1.3	0.5	0.873	0.011
1.8	0.5	0.854	0.011
0	1	0.865	0.011
0.2	1	0.86	0.011
0.4	1	0.85	0.011
0.8	1	0.861	0.011

System: 2-aminoacetic acid + sodium nitrate + water; phases: Liquid
Fixed: Pressure, kPa = 101
Fixed: Temperature, K = 298.15
Property: Osmotic coefficient (Liquid); method: commercial osmometer Knauer K-7000
Molality, mol/kg of 2-aminoacetic acid	Molality, mol/kg of sodium nitrate	Osmotic coefficient	uncertainty
0	1	0.854	0.011
0.2	1	0.834	0.012
0.403	1	0.832	0.012
0.603	1	0.826	0.012
0.812	1	0.816	0.012
1.001	1	0.81	0.012
1.195	1	0.816	0.012
1.403	1	0.815	0.012
1.608	1	0.805	0.012
1.797	1	0.817	0.012
1.991	1	0.818	0.012
2.176	1	0.806	0.012
2.603	1	0.817	0.012
2.999	1	0.826	0.012
0	3	0.805	0.012
0.2	3	0.815	0.012
0.4	3	0.808	0.012
0.6	3	0.813	0.012
0.799	3	0.796	0.012
0.999	3	0.793	0.012
1.5	3	0.785	0.013
1.998	3	0.779	0.013
2.5	3	0.772	0.013
2.999	3	0.77	0.013

System: 2-aminoacetic acid + water + potassium nitrate; phases: Liquid, Crystal
Fixed: Pressure, kPa = 101
Fixed: Temperature, K = 298.15
Property: Molality, mol/kg of 2-aminoacetic acid (Liquid); method: gravimetric method
Molality, mol/kg of potassium nitrate	Molality, mol/kg of 2-aminoacetic acid	uncertainty
0.99	3.53	0.22
3	3.91	0.26

System: 2-aminoacetic acid + water + potassium nitrate; phases: Liquid
Fixed: Pressure, kPa = 101
Fixed: Temperature, K = 298.15
Property: Osmotic coefficient (Liquid); method: commercial osmometer Knauer K-7000
Molality, mol/kg of 2-aminoacetic acid	Molality, mol/kg of potassium nitrate	Osmotic coefficient	uncertainty
0	1	0.746	0.013
0.201	1	0.747	0.013
0.4	1	0.757	0.013
0.601	1	0.765	0.013
0.814	1	0.766	0.013
0.998	1	0.774	0.013
1.192	1	0.774	0.013
1.401	1	0.774	0.013
1.611	1	0.776	0.013
1.794	1	0.775	0.013
2.001	1	0.778	0.013
2.201	1	0.769	0.013
2.587	1	0.783	0.013
3.004	1	0.804	0.012
0	3	0.599	0.017
0.2	3	0.61	0.017
0.4	3	0.621	0.017
0.603	3	0.632	0.016
0.815	3	0.638	0.016
0.999	3	0.64	0.016
1.201	3	0.648	0.016
1.389	3	0.653	0.016
1.609	3	0.662	0.016
1.798	3	0.665	0.016
2.002	3	0.668	0.015
2.212	3	0.677	0.015
2.596	3	0.666	0.015
3.004	3	0.683	0.015

System: 2-aminoacetic acid + water + ammonium sulfate; phases: Liquid, Crystal
Fixed: Pressure, kPa = 101
Fixed: Temperature, K = 298.15
Property: Molality, mol/kg of 2-aminoacetic acid (Liquid); method: gravimetric method
Molality, mol/kg of ammonium sulfate	Molality, mol/kg of 2-aminoacetic acid	uncertainty
1	3.61	0.22
3	3.64	0.28

System: 2-aminoacetic acid + water + ammonium sulfate; phases: Liquid
Fixed: Pressure, kPa = 101
Fixed: Temperature, K = 298.15
Property: Osmotic coefficient (Liquid); method: commercial osmometer Knauer K-7000
Molality, mol/kg of 2-aminoacetic acid	Molality, mol/kg of ammonium sulfate	Osmotic coefficient	uncertainty
0	1	0.643	0.016
0.2	1	0.661	0.016
0.399	1	0.671	0.015
0.599	1	0.68	0.015
0.8	1	0.699	0.015
0.998	1	0.686	0.015
1.499	1	0.712	0.014
1.999	1	0.727	0.014
2.496	1	0.729	0.014
3	1	0.751	0.013
3.499	1	0.765	0.013
0	3	0.629	0.017
0.2	3	0.636	0.016
0.399	3	0.655	0.016
0.598	3	0.654	0.016
0.799	3	0.659	0.016
0.997	3	0.67	0.015
1.499	3	0.687	0.015
1.999	3	0.702	0.015
2.494	3	0.716	0.014
3	3	0.722	0.014

System: (S)-2-aminopropanoic acid + sodium chloride + water; phases: Liquid, Crystal
Fixed: Temperature, K = 298.15
Fixed: Pressure, kPa = 101
Property: Molality, mol/kg of (S)-2-aminopropanoic acid (Liquid); method: gravimetric method
Molality, mol/kg of sodium chloride	Molality, mol/kg of (S)-2-aminopropanoic acid	uncertainty
0	1.84	0.12
1	1.87	0.18
3.01	1.75	0.18

System: (S)-2-aminopropanoic acid + sodium chloride + water; phases: Liquid
Fixed: Pressure, kPa = 101
Fixed: Temperature, K = 298.15
Property: Osmotic coefficient (Liquid); method: commercial osmometer Knauer K-7000
Molality, mol/kg of (S)-2-aminopropanoic acid	Molality, mol/kg of sodium chloride	Osmotic coefficient	uncertainty
0	1	0.927	0.01
0.198	1	0.934	0.01
0.4	1	0.935	0.01
0.602	1	0.94	0.01
0.799	1	0.945	0.01
1.001	1	0.95	0.01
1.202	1	0.962	0.01
1.397	1	0.964	0.01
1.598	1	0.973	0.01
1.796	1	0.977	0.01
0	3	1.047	0.01
0.206	3	1.045	0.01
0.399	3	1.044	0.01
0.6	3	1.052	0.01
0.799	3	1.048	0.01
0.998	3	1.055	0.01
1.203	3	1.058	0.01
1.393	3	1.059	0.01
1.598	3	1.055	0.01

System: (S)-2-aminopropanoic acid + potassium chloride + water; phases: Liquid, Crystal
Fixed: Temperature, K = 298.15
Fixed: Pressure, kPa = 101
Property: Molality, mol/kg of (S)-2-aminopropanoic acid (Liquid); method: gravimetric method
Molality, mol/kg of potassium chloride	Molality, mol/kg of (S)-2-aminopropanoic acid	uncertainty
1	1.85	0.16
3.01	1.67	0.18

System: (S)-2-aminopropanoic acid + potassium chloride + water; phases: Liquid
Fixed: Pressure, kPa = 101
Fixed: Temperature, K = 298.15
Property: Osmotic coefficient (Liquid); method: commercial osmometer Knauer K-7000
Molality, mol/kg of (S)-2-aminopropanoic acid	Molality, mol/kg of potassium chloride	Osmotic coefficient	uncertainty
0	1	0.897	0.011
0.2	1	0.907	0.011
0.398	1	0.915	0.01
0.6	1	0.917	0.01
0.798	1	0.942	0.01
1	1	0.955	0.01
1.198	1	0.963	0.01
1.399	1	0.974	0.01
1.598	1	0.987	0.01
1.797	1	1.005	0.01
0	3	0.938	0.01
0.2	3	0.952	0.01
0.399	3	0.958	0.01
0.605	3	0.967	0.01
0.788	3	0.982	0.01
1.001	3	0.974	0.01
1.202	3	0.997	0.01
1.405	3	1.004	0.01
1.605	3	1.019	0.01

System: (S)-2-aminopropanoic acid + sodium nitrate + water; phases: Liquid, Crystal
Fixed: Temperature, K = 298.15
Fixed: Pressure, kPa = 101
Property: Molality, mol/kg of (S)-2-aminopropanoic acid (Liquid); method: gravimetric method
Molality, mol/kg of sodium nitrate	Molality, mol/kg of (S)-2-aminopropanoic acid	uncertainty
1	1.98	0.16
3	2.1	0.2

System: (S)-2-aminopropanoic acid + sodium nitrate + water; phases: Liquid
Fixed: Pressure, kPa = 101
Fixed: Temperature, K = 298.15
Property: Osmotic coefficient (Liquid); method: commercial osmometer Knauer K-7000
Molality, mol/kg of (S)-2-aminopropanoic acid	Molality, mol/kg of sodium nitrate	Osmotic coefficient	uncertainty
0	1	0.854	0.011
0.2	1	0.854	0.011
0.402	1	0.844	0.011
0.605	1	0.846	0.011
0.801	1	0.846	0.011
1.008	1	0.859	0.011
1.191	1	0.864	0.011
1.43	1	0.872	0.011
1.597	1	0.899	0.011
1.792	1	0.894	0.011
0	3	0.806	0.012
0.199	3	0.824	0.012
0.399	3	0.825	0.012
0.6	3	0.838	0.012
0.801	3	0.82	0.012
0.996	3	0.846	0.011
1.201	3	0.851	0.011
1.399	3	0.863	0.011
1.606	3	0.862	0.011
1.823	3	0.866	0.011

System: (S)-2-aminopropanoic acid + water + potassium nitrate; phases: Liquid, Crystal
Fixed: Temperature, K = 298.15
Fixed: Pressure, kPa = 101
Property: Molality, mol/kg of (S)-2-aminopropanoic acid (Liquid); method: gravimetric method
Molality, mol/kg of potassium nitrate	Molality, mol/kg of (S)-2-aminopropanoic acid	uncertainty
0.99	1.96	0.18
3	1.94	0.2

System: (S)-2-aminopropanoic acid + water + potassium nitrate; phases: Liquid
Fixed: Pressure, kPa = 101
Fixed: Temperature, K = 298.15
Property: Osmotic coefficient (Liquid); method: commercial osmometer Knauer K-7000
Molality, mol/kg of (S)-2-aminopropanoic acid	Molality, mol/kg of potassium nitrate	Osmotic coefficient	uncertainty
0	1	0.744	0.013
0.199	1	0.774	0.013
0.399	1	0.784	0.013
0.603	1	0.796	0.012
0.802	1	0.795	0.012
1.006	1	0.808	0.012
1.221	1	0.804	0.012
1.4	1	0.822	0.012
1.596	1	0.831	0.012
1.8	1	0.844	0.011
0	3	0.597	0.017
0.201	3	0.614	0.017
0.402	3	0.63	0.016
0.605	3	0.644	0.016
0.801	3	0.645	0.016
1.004	3	0.661	0.016
1.203	3	0.675	0.015
1.401	3	0.691	0.015
1.604	3	0.703	0.015
1.805	3	0.714	0.014

System: (S)-2-aminopropanoic acid + water + ammonium sulfate; phases: Liquid, Crystal
Fixed: Temperature, K = 298.15
Fixed: Pressure, kPa = 101
Property: Molality, mol/kg of (S)-2-aminopropanoic acid (Liquid); method: gravimetric method
Molality, mol/kg of ammonium sulfate	Molality, mol/kg of (S)-2-aminopropanoic acid	uncertainty
1	1.96	0.18
3	1.62	0.22

System: (S)-2-aminopropanoic acid + water + ammonium sulfate; phases: Liquid
Fixed: Pressure, kPa = 101
Fixed: Temperature, K = 298.15
Property: Osmotic coefficient (Liquid); method: commercial osmometer Knauer K-7000
Molality, mol/kg of (S)-2-aminopropanoic acid	Molality, mol/kg of ammonium sulfate	Osmotic coefficient	uncertainty
0	1	0.64	0.016
0.199	1	0.661	0.016
0.4	1	0.678	0.015
0.598	1	0.709	0.014
0.799	1	0.729	0.014
0.999	1	0.736	0.014
1.2	1	0.762	0.013
1.395	1	0.765	0.013
1.593	1	0.779	0.013
1.795	1	0.788	0.013
0	3	0.627	0.017
0.2	3	0.642	0.016
0.399	3	0.648	0.016
0.598	3	0.668	0.015
0.796	3	0.682	0.015
0.998	3	0.704	0.014
1.196	3	0.713	0.014
1.399	3	0.713	0.014
1.599	3	0.743	0.014
1.798	3	0.767	0.013

System: L-valine + sodium chloride + water; phases: Liquid, Crystal
Fixed: Temperature, K = 298.15
Fixed: Pressure, kPa = 101
Property: Molality, mol/kg of L-valine (Liquid); method: gravimetric method
Molality, mol/kg of sodium chloride	Molality, mol/kg of L-valine	uncertainty
0	0.5	0.08
1	0.47	0.12
3.01	0.35	0.12

System: L-valine + sodium chloride + water; phases: Liquid
Fixed: Pressure, kPa = 101
Fixed: Temperature, K = 298.15
Property: Osmotic coefficient (Liquid); method: commercial osmometer Gonotec 070
Molality, mol/kg of L-valine	Molality, mol/kg of sodium chloride	Osmotic coefficient	uncertainty
0.1	0.5	0.927	0.01
0.2	0.5	0.932	0.01
0.3	0.5	0.944	0.01
0.4	0.5	0.954	0.01
0.1	1	0.94	0.01
0.2	1	0.946	0.01
0.3	1	0.956	0.01
0.4	1	0.968	0.01

System: L-valine + sodium chloride + water; phases: Liquid
Fixed: Pressure, kPa = 101
Fixed: Temperature, K = 298.15
Property: Osmotic coefficient (Liquid); method: commercial osmometer Knauer K-7000
Molality, mol/kg of L-valine	Molality, mol/kg of sodium chloride	Osmotic coefficient	uncertainty
0	1	0.925	0.01
0.05	1	0.927	0.01
0.1	1	0.924	0.01
0.15	1	0.938	0.01
0.199	1	0.946	0.01
0.249	1	0.944	0.01
0.295	1	0.942	0.01
0.35	1	0.967	0.01
0.399	1	0.954	0.01
0	3	1.051	0.01
0.053	3	1.059	0.01
0.1	3	1.07	0.01
0.15	3	1.082	0.01
0.2	3	1.079	0.01
0.25	3	1.084	0.01
0.3	3	1.079	0.01
0.349	3	1.08	0.01

System: L-valine + potassium chloride + water; phases: Liquid, Crystal
Fixed: Temperature, K = 298.15
Fixed: Pressure, kPa = 101
Property: Molality, mol/kg of L-valine (Liquid); method: gravimetric method
Molality, mol/kg of potassium chloride	Molality, mol/kg of L-valine	uncertainty
1	0.46	0.12
3.01	0.35	0.14

System: L-valine + potassium chloride + water; phases: Liquid
Fixed: Pressure, kPa = 101
Fixed: Temperature, K = 298.15
Property: Osmotic coefficient (Liquid); method: commercial osmometer Gonotec 070
Molality, mol/kg of L-valine	Molality, mol/kg of potassium chloride	Osmotic coefficient	uncertainty
0.1	0.5	0.918	0.01
0.2	0.5	0.917	0.01
0.3	0.5	0.927	0.01
0.4	0.5	0.934	0.01
0.1	1	0.917	0.01
0.2	1	0.904	0.011
0.3	1	0.921	0.01
0.4	1	0.934	0.01

System: L-valine + potassium chloride + water; phases: Liquid
Fixed: Pressure, kPa = 101
Fixed: Temperature, K = 298.15
Property: Osmotic coefficient (Liquid); method: commercial osmometer Knauer K-7000
Molality, mol/kg of L-valine	Molality, mol/kg of potassium chloride	Osmotic coefficient	uncertainty
0	1	0.897	0.011
0.05	1	0.897	0.011
0.1	1	0.908	0.011
0.15	1	0.905	0.011
0.2	1	0.915	0.01
0.25	1	0.928	0.01
0.3	1	0.931	0.01
0.349	1	0.935	0.01
0.398	1	0.947	0.01
0.45	1	0.951	0.01
0	3	0.935	0.01
0.05	3	0.956	0.01
0.1	3	0.963	0.01
0.15	3	0.968	0.01
0.2	3	0.983	0.01
0.253	3	0.989	0.01
0.3	3	0.989	0.01
0.349	3	0.996	0.01

System: L-valine + sodium nitrate + water; phases: Liquid, Crystal
Fixed: Temperature, K = 298.15
Fixed: Pressure, kPa = 101
Property: Molality, mol/kg of L-valine (Liquid); method: gravimetric method
Molality, mol/kg of sodium nitrate	Molality, mol/kg of L-valine	uncertainty
1	0.52	0.12
3	0.47	0.14

System: L-valine + sodium nitrate + water; phases: Liquid
Fixed: Pressure, kPa = 101
Fixed: Temperature, K = 298.15
Property: Osmotic coefficient (Liquid); method: commercial osmometer Gonotec 070
Molality, mol/kg of L-valine	Molality, mol/kg of sodium nitrate	Osmotic coefficient	uncertainty
0	0.5	0.874	0.011
0.2	0.5	0.892	0.011
0.5	0.5	0.922	0.01
0	1	0.867	0.011
0.2	1	0.875	0.011
0.5	1	0.901	0.011

System: L-valine + sodium nitrate + water; phases: Liquid
Fixed: Pressure, kPa = 101
Fixed: Temperature, K = 298.15
Property: Osmotic coefficient (Liquid); method: commercial osmometer Knauer K-7000
Molality, mol/kg of L-valine	Molality, mol/kg of sodium nitrate	Osmotic coefficient	uncertainty
0	1	0.859	0.011
0.05	1	0.858	0.011
0.1	1	0.857	0.011
0.15	1	0.858	0.011
0.2	1	0.871	0.011
0.25	1	0.878	0.011
0.3	1	0.877	0.011
0.349	1	0.881	0.011
0.4	1	0.879	0.011
0.449	1	0.896	0.011
0.499	1	0.884	0.011
0	3	0.805	0.012
0.051	3	0.81	0.012
0.102	3	0.819	0.012
0.156	3	0.817	0.012
0.205	3	0.823	0.012
0.252	3	0.826	0.012
0.3	3	0.83	0.012
0.355	3	0.825	0.012
0.402	3	0.835	0.012

System: L-valine + water + potassium nitrate; phases: Liquid, Crystal
Fixed: Temperature, K = 298.15
Fixed: Pressure, kPa = 101
Property: Molality, mol/kg of L-valine (Liquid); method: gravimetric method
Molality, mol/kg of potassium nitrate	Molality, mol/kg of L-valine	uncertainty
0.99	0.52	0.12
3	0.45	0.16

System: L-valine + water + potassium nitrate; phases: Liquid
Fixed: Pressure, kPa = 101
Fixed: Temperature, K = 298.15
Property: Osmotic coefficient (Liquid); method: commercial osmometer Knauer K-7000
Molality, mol/kg of L-valine	Molality, mol/kg of potassium nitrate	Osmotic coefficient	uncertainty
0	1	0.744	0.013
0.05	1	0.748	0.013
0.098	1	0.756	0.013
0.152	1	0.764	0.013
0.203	1	0.767	0.013
0.25	1	0.774	0.013
0.3	1	0.781	0.013
0.348	1	0.786	0.013
0.404	1	0.793	0.012
0.455	1	0.794	0.012
0.498	1	0.8	0.012
0	3	0.599	0.017
0.052	3	0.61	0.017
0.102	3	0.627	0.017
0.155	3	0.636	0.016
0.202	3	0.644	0.016
0.251	3	0.649	0.016
0.299	3	0.652	0.016
0.352	3	0.662	0.016
0.401	3	0.669	0.015

System: L-valine + water + ammonium sulfate; phases: Liquid, Crystal
Fixed: Temperature, K = 298.15
Fixed: Pressure, kPa = 101
Property: Molality, mol/kg of L-valine (Liquid); method: gravimetric method
Molality, mol/kg of ammonium sulfate	Molality, mol/kg of L-valine	uncertainty
1	0.47	0.14
3	0.24	0.16

System: L-valine + water + ammonium sulfate; phases: Liquid
Fixed: Pressure, kPa = 101
Fixed: Temperature, K = 298.15
Property: Osmotic coefficient (Liquid); method: commercial osmometer Knauer K-7000
Molality, mol/kg of L-valine	Molality, mol/kg of ammonium sulfate	Osmotic coefficient	uncertainty
0	1	0.643	0.016
0.05	1	0.653	0.016
0.1	1	0.667	0.015
0.15	1	0.676	0.015
0.2	1	0.684	0.015
0.25	1	0.697	0.015
0.299	1	0.703	0.015
0.35	1	0.713	0.014
0.4	1	0.722	0.014
0	3	0.625	0.017
0.05	3	0.634	0.016
0.1	3	0.648	0.016
0.15	3	0.66	0.016
0.2	3	0.667	0.015
0.248	3	0.677	0.015

System: L-proline + sodium chloride + water; phases: Liquid, Crystal
Fixed: Temperature, K = 298.15
Fixed: Pressure, kPa = 101
Property: Molality, mol/kg of L-proline (Liquid); method: gravimetric method
Molality, mol/kg of sodium chloride	Molality, mol/kg of L-proline	uncertainty
0	15.35	0.3
1	15.6	0.42
3.01	17.07	0.43

System: L-proline + sodium chloride + water; phases: Liquid
Fixed: Pressure, kPa = 101
Fixed: Temperature, K = 298.15
Property: Osmotic coefficient (Liquid); method: commercial osmometer Knauer K-7000
Molality, mol/kg of L-proline	Molality, mol/kg of sodium chloride	Osmotic coefficient	uncertainty
0	1	0.927	0.01
0.2	1	0.92	0.01
0.5	1	0.935	0.01
0.999	1	0.988	0.01
1.502	1	1.02	0.01
2.001	1	1.059	0.01
2.503	1	1.054	0.01
2.982	1	1.097	0.011
3.996	1	1.167	0.012
4.998	1	1.193	0.012
5.989	1	1.242	0.013
6.995	1	1.274	0.014
7.98	1	1.341	0.016
8.979	1	1.398	0.017
0	3	1.051	0.01
0.2	3	1.052	0.01
0.5	3	1.054	0.01
0.801	3	1.073	0.01
1.013	3	1.075	0.01
2.008	3	1.101	0.011
3.005	3	1.117	0.011
3.522	3	1.17	0.012
4.029	3	1.195	0.012
4.48	3	1.204	0.012
5	3	1.211	0.012
5.975	3	1.203	0.012

System: L-proline + potassium chloride + water; phases: Liquid, Crystal
Fixed: Temperature, K = 298.15
Fixed: Pressure, kPa = 101
Property: Molality, mol/kg of L-proline (Liquid); method: gravimetric method
Molality, mol/kg of potassium chloride	Molality, mol/kg of L-proline	uncertainty
1	15.64	0.36
3.01	16.49	0.42

System: L-proline + potassium chloride + water; phases: Liquid
Fixed: Pressure, kPa = 101
Fixed: Temperature, K = 298.15
Property: Osmotic coefficient (Liquid); method: commercial osmometer Knauer K-7000
Molality, mol/kg of L-proline	Molality, mol/kg of potassium chloride	Osmotic coefficient	uncertainty
0	1	0.897	0.011
0.199	1	0.907	0.011
0.499	1	0.94	0.01
1.002	1	0.967	0.01
1.502	1	1.019	0.01
2.008	1	1.053	0.01
2.509	1	1.092	0.011
3.005	1	1.112	0.011
3.991	1	1.183	0.012
5.003	1	1.239	0.013
6.014	1	1.304	0.015
6.978	1	1.339	0.016
8.021	1	1.351	0.016
0	3	0.936	0.01
0.204	3	0.951	0.01
0.509	3	0.974	0.01
0.999	3	0.996	0.01
1.503	3	1.022	0.01
2.007	3	1.026	0.01
2.499	3	1.048	0.01
2.992	3	1.081	0.01
3.991	3	1.137	0.011
4.979	3	1.181	0.012
5.98	3	1.208	0.012

System: L-proline + sodium nitrate + water; phases: Liquid, Crystal
Fixed: Temperature, K = 298.15
Fixed: Pressure, kPa = 101
Property: Molality, mol/kg of L-proline (Liquid); method: gravimetric method
Molality, mol/kg of sodium nitrate	Molality, mol/kg of L-proline	uncertainty
1	16.2	0.42
3	18.33	0.47

System: L-proline + sodium nitrate + water; phases: Liquid
Fixed: Pressure, kPa = 101
Fixed: Temperature, K = 298.15
Property: Osmotic coefficient (Liquid); method: commercial osmometer Knauer K-7000
Molality, mol/kg of L-proline	Molality, mol/kg of sodium nitrate	Osmotic coefficient	uncertainty
0	1	0.854	0.011
0.2	1	0.854	0.011
0.5	1	0.862	0.011
0.996	1	0.887	0.011
1.505	1	0.898	0.011
2.007	1	0.927	0.01
2.499	1	0.954	0.01
2.996	1	0.98	0.01
3.994	1	1.026	0.01
4.985	1	1.106	0.011
5.993	1	1.134	0.011
6.981	1	1.196	0.012
7.926	1	1.202	0.012
8.967	1	1.244	0.013
0	3	0.805	0.012
0.2	3	0.826	0.012
0.499	3	0.824	0.012
1.006	3	0.838	0.012
1.509	3	0.862	0.011
2.013	3	0.878	0.011
2.498	3	0.85	0.011
3.015	3	0.899	0.011
3.484	3	0.914	0.01
3.984	3	0.92	0.01
4.987	3	0.987	0.01
5.996	3	1.008	0.01

System: L-proline + water + potassium nitrate; phases: Liquid, Crystal
Fixed: Temperature, K = 298.15
Fixed: Pressure, kPa = 101
Property: Molality, mol/kg of L-proline (Liquid); method: gravimetric method
Molality, mol/kg of potassium nitrate	Molality, mol/kg of L-proline	uncertainty
0.99	16.18	0.42
3	17.85	0.46

System: L-proline + water + potassium nitrate; phases: Liquid
Fixed: Pressure, kPa = 101
Fixed: Temperature, K = 298.15
Property: Osmotic coefficient (Liquid); method: commercial osmometer Knauer K-7000
Molality, mol/kg of L-proline	Molality, mol/kg of potassium nitrate	Osmotic coefficient	uncertainty
0	1	0.747	0.013
0.205	1	0.77	0.013
0.511	1	0.792	0.012
0.999	1	0.829	0.012
1.504	1	0.863	0.011
2	1	0.903	0.011
2.504	1	0.939	0.01
3.007	1	0.97	0.01
3.987	1	1.044	0.01
4.839	1	1.091	0.011
5.985	1	1.142	0.011
7	1	1.205	0.012
7.91	1	1.228	0.013
0	3	0.598	0.017
0.199	3	0.625	0.017
0.502	3	0.679	0.015
1.003	3	0.7	0.015
1.493	3	0.737	0.014
1.998	3	0.785	0.013
2.506	3	0.813	0.012
2.976	3	0.84	0.012
3.983	3	0.878	0.011
4.979	3	0.911	0.01
5.996	3	0.994	0.01

System: L-proline + water + ammonium sulfate; phases: Liquid, Crystal
Fixed: Temperature, K = 298.15
Fixed: Pressure, kPa = 101
Property: Molality, mol/kg of L-proline (Liquid); method: gravimetric method
Molality, mol/kg of ammonium sulfate	Molality, mol/kg of L-proline	uncertainty
1	14.45	0.34
3	12.87	0.38

System: L-proline + water + ammonium sulfate; phases: Liquid
Fixed: Pressure, kPa = 101
Fixed: Temperature, K = 298.15
Property: Osmotic coefficient (Liquid); method: commercial osmometer Knauer K-7000
Molality, mol/kg of L-proline	Molality, mol/kg of ammonium sulfate	Osmotic coefficient	uncertainty
0	1	0.641	0.016
0.199	1	0.676	0.015
0.5	1	0.725	0.014
0.999	1	0.804	0.012
1.499	1	0.867	0.011
1.997	1	0.917	0.01
2.499	1	0.977	0.01
2.996	1	1.023	0.01
3.976	1	1.109	0.011
5.556	1	1.204	0.012
5.99	1	1.228	0.013
6.994	1	1.239	0.013
7.971	1	1.302	0.015
0	3	0.627	0.017
0.199	3	0.653	0.016
0.499	3	0.685	0.015
0.997	3	0.746	0.013
1.497	3	0.806	0.012
1.998	3	0.852	0.011
2.493	3	0.885	0.011
3	3	0.921	0.01
3.99	3	0.978	0.01

System: 2-aminoacetic acid + lithium chloride + water; phases: Liquid
Fixed: Pressure, kPa = 101
Fixed: Temperature, K = 298.15
Property: Osmotic coefficient (Liquid); method: commercial osmometer Gonotec 070
Molality, mol/kg of 2-aminoacetic acid	Molality, mol/kg of lithium chloride	Osmotic coefficient	uncertainty
0	0.5	0.928	0.01
0.4	0.5	0.94	0.01
0.8	0.5	0.933	0.01
1.3	0.5	0.924	0.01
1.8	0.5	0.902	0.011
0	1	0.987	0.01
0.2	1	0.983	0.01
0.4	1	0.985	0.01
0.8	1	0.969	0.01

System: 2-aminoacetic acid + lithium bromide + water; phases: Liquid
Fixed: Pressure, kPa = 101
Fixed: Temperature, K = 298.15
Property: Osmotic coefficient (Liquid); method: commercial osmometer Gonotec 070
Molality, mol/kg of 2-aminoacetic acid	Molality, mol/kg of lithium bromide	Osmotic coefficient	uncertainty
0	0.5	0.978	0.01
0.4	0.5	0.947	0.01
0.8	0.5	0.926	0.01
1.3	0.5	0.921	0.01
1.8	0.5	0.893	0.011
0	1	1.035	0.01
0.2	1	1.025	0.01
0.4	1	1.006	0.01
0.8	1	0.999	0.01

System: 2-aminoacetic acid + water + lithium iodide; phases: Liquid
Fixed: Pressure, kPa = 101
Fixed: Temperature, K = 298.15
Property: Osmotic coefficient (Liquid); method: commercial osmometer Gonotec 070
Molality, mol/kg of 2-aminoacetic acid	Molality, mol/kg of lithium iodide	Osmotic coefficient	uncertainty
0	0.5	1.005	0.01
0.4	0.5	0.979	0.01
0.8	0.5	0.96	0.01
1.3	0.5	0.909	0.011
1.8	0.5	0.901	0.011
0	1	1.073	0.01
0.2	1	1.063	0.01
0.4	1	1.053	0.01
0.8	1	1.018	0.01

System: 2-aminoacetic acid + sodium bromide + water; phases: Liquid
Fixed: Pressure, kPa = 101
Fixed: Temperature, K = 298.15
Property: Osmotic coefficient (Liquid); method: commercial osmometer Gonotec 070
Molality, mol/kg of 2-aminoacetic acid	Molality, mol/kg of sodium bromide	Osmotic coefficient	uncertainty
0	0.5	0.953	0.01
0.4	0.5	0.944	0.01
0.8	0.5	0.938	0.01
1.3	0.5	0.917	0.01
1.8	0.5	0.908	0.011
0	1	0.959	0.01
0.2	1	0.959	0.01
0.4	1	0.947	0.01
0.8	1	0.94	0.01

System: 2-aminoacetic acid + sodium iodide + water; phases: Liquid
Fixed: Pressure, kPa = 101
Fixed: Temperature, K = 298.15
Property: Osmotic coefficient (Liquid); method: commercial osmometer Gonotec 070
Molality, mol/kg of 2-aminoacetic acid	Molality, mol/kg of sodium iodide	Osmotic coefficient	uncertainty
0	0.5	0.955	0.01
0.4	0.5	0.935	0.01
0.8	0.5	0.957	0.01
1.3	0.5	0.948	0.01
1.8	0.5	0.906	0.011
0	1	0.985	0.01
0.2	1	0.978	0.01
0.4	1	0.981	0.01
0.8	1	0.958	0.01

System: 2-aminoacetic acid + water + potassium bromide; phases: Liquid
Fixed: Pressure, kPa = 101
Fixed: Temperature, K = 298.15
Property: Osmotic coefficient (Liquid); method: commercial osmometer Gonotec 070
Molality, mol/kg of 2-aminoacetic acid	Molality, mol/kg of potassium bromide	Osmotic coefficient	uncertainty
0	0.5	0.907	0.011
0.4	0.5	0.921	0.01
0.8	0.5	0.901	0.011
1.3	0.5	0.901	0.011
1.8	0.5	0.881	0.011
0	1	0.919	0.01
0.2	1	0.922	0.01
0.4	1	0.921	0.01
0.8	1	0.917	0.01

System: 2-aminoacetic acid + potassium iodide + water; phases: Liquid
Fixed: Pressure, kPa = 101
Fixed: Temperature, K = 298.15
Property: Osmotic coefficient (Liquid); method: commercial osmometer Gonotec 070
Molality, mol/kg of 2-aminoacetic acid	Molality, mol/kg of potassium iodide	Osmotic coefficient	uncertainty
0	0.5	0.916	0.01
0.4	0.5	0.919	0.01
0.8	0.5	0.915	0.01
1.3	0.5	0.909	0.011
1.8	0.5	0.901	0.011
0	1	0.934	0.01
0.2	1	0.929	0.01
0.4	1	0.917	0.01
0.8	1	0.927	0.01

System: 2-aminoacetic acid + water + sodium sulfate; phases: Liquid
Fixed: Pressure, kPa = 101
Fixed: Temperature, K = 298.15
Property: Osmotic coefficient (Liquid); method: commercial osmometer Gonotec 070
Molality, mol/kg of 2-aminoacetic acid	Molality, mol/kg of sodium sulfate	Osmotic coefficient	uncertainty
0	0.5	0.717	0.014
0.4	0.5	0.756	0.013
0.8	0.5	0.76	0.013
1.3	0.5	0.777	0.013
1.8	0.5	0.809	0.012
0	1	0.658	0.016
0.2	1	0.677	0.015
0.4	1	0.701	0.015
0.8	1	0.723	0.014

System: L-valine + lithium chloride + water; phases: Liquid
Fixed: Pressure, kPa = 101
Fixed: Temperature, K = 298.15
Property: Osmotic coefficient (Liquid); method: commercial osmometer Gonotec 070
Molality, mol/kg of L-valine	Molality, mol/kg of lithium chloride	Osmotic coefficient	uncertainty
0	0.5	0.955	0.01
0.2	0.5	0.972	0.01
0.5	0.5	0.988	0.01
0	1	0.978	0.01
0.2	1	0.997	0.01
0.5	1	1.005	0.01

System: L-valine + lithium bromide + water; phases: Liquid
Fixed: Pressure, kPa = 101
Fixed: Temperature, K = 298.15
Property: Osmotic coefficient (Liquid); method: commercial osmometer Gonotec 070
Molality, mol/kg of L-valine	Molality, mol/kg of lithium bromide	Osmotic coefficient	uncertainty
0	0.5	0.97	0.01
0.2	0.5	0.98	0.01
0.5	0.5	0.993	0.01
0	1	1.038	0.01
0.2	1	1.008	0.01
0.5	1	1.008	0.01

System: L-valine + water + lithium iodide; phases: Liquid
Fixed: Pressure, kPa = 101
Fixed: Temperature, K = 298.15
Property: Osmotic coefficient (Liquid); method: commercial osmometer Gonotec 070
Molality, mol/kg of L-valine	Molality, mol/kg of lithium iodide	Osmotic coefficient	uncertainty
0	0.5	1.008	0.01
0.2	0.5	1	0.01
0.5	0.5	1	0.01
0	1	1.014	0.01
0.2	1	1.08	0.01
0.5	1	1.068	0.01

System: L-valine + sodium bromide + water; phases: Liquid
Fixed: Pressure, kPa = 101
Fixed: Temperature, K = 298.15
Property: Osmotic coefficient (Liquid); method: commercial osmometer Gonotec 070
Molality, mol/kg of L-valine	Molality, mol/kg of sodium bromide	Osmotic coefficient	uncertainty
0	0.5	0.934	0.01
0.2	0.5	0.951	0.01
0.5	0.5	0.968	0.01
0	1	0.971	0.01
0.2	1	0.962	0.01
0.5	1	0.986	0.01

System: L-valine + sodium iodide + water; phases: Liquid
Fixed: Pressure, kPa = 101
Fixed: Temperature, K = 298.15
Property: Osmotic coefficient (Liquid); method: commercial osmometer Gonotec 070
Molality, mol/kg of L-valine	Molality, mol/kg of sodium iodide	Osmotic coefficient	uncertainty
0	0.5	0.95	0.01
0.2	0.5	0.964	0.01
0.5	0.5	0.986	0.01
0	1	1.004	0.01
0.2	1	0.994	0.01
0.5	1	0.993	0.01

System: L-valine + water + potassium bromide; phases: Liquid
Fixed: Pressure, kPa = 101
Fixed: Temperature, K = 298.15
Property: Osmotic coefficient (Liquid); method: commercial osmometer Gonotec 070
Molality, mol/kg of L-valine	Molality, mol/kg of potassium bromide	Osmotic coefficient	uncertainty
0	0.5	0.905	0.011
0.2	0.5	0.924	0.01
0.5	0.5	0.963	0.01
0	1	0.917	0.01
0.2	1	0.919	0.01
0.5	1	0.945	0.01

System: L-valine + potassium iodide + water; phases: Liquid
Fixed: Pressure, kPa = 101
Fixed: Temperature, K = 298.15
Property: Osmotic coefficient (Liquid); method: commercial osmometer Gonotec 070
Molality, mol/kg of L-valine	Molality, mol/kg of potassium iodide	Osmotic coefficient	uncertainty
0	0.5	0.923	0.01
0.2	0.5	0.94	0.01
0.5	0.5	0.975	0.01
0	1	0.927	0.01
0.2	1	0.944	0.01
0.5	1	0.964	0.01

System: L-valine + water + sodium sulfate; phases: Liquid
Fixed: Pressure, kPa = 101
Fixed: Temperature, K = 298.15
Property: Osmotic coefficient (Liquid); method: commercial osmometer Gonotec 070
Molality, mol/kg of L-valine	Molality, mol/kg of sodium sulfate	Osmotic coefficient	uncertainty
0	0.5	0.69	0.015
0.2	0.5	0.73	0.014
0.5	0.5	0.786	0.013
0	1	0.642	0.016
0.2	1	0.661	0.016
0.5	1	0.701	0.015

System: 2-aminoacetic acid + water; phases: Liquid, Crystal
Property: Molality, mol/kg of 2-aminoacetic acid (Liquid); method: gravimetric method
Temperature, K	Pressure, kPa	Molality, mol/kg of 2-aminoacetic acid	uncertainty
298.15	101	3.32	0.14

System: sodium chloride + water; phases: Liquid
Fixed: Pressure, kPa = 101
Fixed: Temperature, K = 298.15
Property: Osmotic coefficient (Liquid); method: commercial osmometer Knauer K-7000
Molality, mol/kg of sodium chloride	Osmotic coefficient	uncertainty
1	0.927	0.01
3	1.051	0.01
3	1.047	0.01
1	0.925	0.01

System: potassium chloride + water; phases: Liquid
Fixed: Pressure, kPa = 101
Fixed: Temperature, K = 298.15
Property: Osmotic coefficient (Liquid); method: commercial osmometer Gonotec 070
Molality, mol/kg of potassium chloride	Osmotic coefficient	uncertainty
0.5	0.905	0.011
1	0.915	0.01

System: potassium chloride + water; phases: Liquid
Fixed: Pressure, kPa = 101
Fixed: Temperature, K = 298.15
Property: Osmotic coefficient (Liquid); method: commercial osmometer Knauer K-7000
Molality, mol/kg of potassium chloride	Osmotic coefficient	uncertainty
1	0.895	0.011
3	0.938	0.01
1	0.897	0.011
3	0.935	0.01
3	0.936	0.01

System: sodium nitrate + water; phases: Liquid
Fixed: Pressure, kPa = 101
Fixed: Temperature, K = 298.15
Property: Osmotic coefficient (Liquid); method: commercial osmometer Gonotec 070
Molality, mol/kg of sodium nitrate	Osmotic coefficient	uncertainty
0.5	0.895	0.011
1	0.865	0.011
0.5	0.874	0.011
1	0.867	0.011

System: sodium nitrate + water; phases: Liquid
Fixed: Pressure, kPa = 101
Fixed: Temperature, K = 298.15
Property: Osmotic coefficient (Liquid); method: commercial osmometer Knauer K-7000
Molality, mol/kg of sodium nitrate	Osmotic coefficient	uncertainty
1	0.854	0.011
3	0.805	0.012
3	0.806	0.012
1	0.859	0.011

System: water + potassium nitrate; phases: Liquid
Fixed: Pressure, kPa = 101
Fixed: Temperature, K = 298.15
Property: Osmotic coefficient (Liquid); method: commercial osmometer Knauer K-7000
Molality, mol/kg of potassium nitrate	Osmotic coefficient	uncertainty
1	0.746	0.013
3	0.599	0.017
1	0.744	0.013
3	0.597	0.017
1	0.747	0.013
3	0.598	0.017

System: water + ammonium sulfate; phases: Liquid
Fixed: Pressure, kPa = 101
Fixed: Temperature, K = 298.15
Property: Osmotic coefficient (Liquid); method: commercial osmometer Knauer K-7000
Molality, mol/kg of ammonium sulfate	Osmotic coefficient	uncertainty
1	0.643	0.016
3	0.629	0.017
1	0.64	0.016
3	0.627	0.017
3	0.625	0.017
1	0.641	0.016

System: (S)-2-aminopropanoic acid + water; phases: Liquid, Crystal
Property: Molality, mol/kg of (S)-2-aminopropanoic acid (Liquid); method: gravimetric method
Pressure, kPa	Temperature, K	Molality, mol/kg of (S)-2-aminopropanoic acid	uncertainty
101	298.15	1.84	0.12

System: L-valine + water; phases: Liquid, Crystal
Property: Molality, mol/kg of L-valine (Liquid); method: gravimetric method
Pressure, kPa	Temperature, K	Molality, mol/kg of L-valine	uncertainty
101	298.15	0.5	0.08

System: L-proline + water; phases: Liquid, Crystal
Property: Molality, mol/kg of L-proline (Liquid); method: gravimetric method
Pressure, kPa	Temperature, K	Molality, mol/kg of L-proline	uncertainty
101	298.15	15.35	0.3

System: lithium chloride + water; phases: Liquid
Fixed: Pressure, kPa = 101
Fixed: Temperature, K = 298.15
Property: Osmotic coefficient (Liquid); method: commercial osmometer Gonotec 070
Molality, mol/kg of lithium chloride	Osmotic coefficient	uncertainty
0.5	0.928	0.01
1	0.987	0.01
0.5	0.955	0.01
1	0.978	0.01

System: lithium bromide + water; phases: Liquid
Fixed: Pressure, kPa = 101
Fixed: Temperature, K = 298.15
Property: Osmotic coefficient (Liquid); method: commercial osmometer Gonotec 070
Molality, mol/kg of lithium bromide	Osmotic coefficient	uncertainty
0.5	0.978	0.01
1	1.035	0.01
0.5	0.97	0.01
1	1.038	0.01

System: water + lithium iodide; phases: Liquid
Fixed: Pressure, kPa = 101
Fixed: Temperature, K = 298.15
Property: Osmotic coefficient (Liquid); method: commercial osmometer Gonotec 070
Molality, mol/kg of lithium iodide	Osmotic coefficient	uncertainty
0.5	1.005	0.01
1	1.073	0.01
0.5	1.008	0.01
1	1.014	0.01

System: sodium bromide + water; phases: Liquid
Fixed: Pressure, kPa = 101
Fixed: Temperature, K = 298.15
Property: Osmotic coefficient (Liquid); method: commercial osmometer Gonotec 070
Molality, mol/kg of sodium bromide	Osmotic coefficient	uncertainty
0.5	0.953	0.01
1	0.959	0.01
0.5	0.934	0.01
1	0.971	0.01

System: sodium iodide + water; phases: Liquid
Fixed: Pressure, kPa = 101
Fixed: Temperature, K = 298.15
Property: Osmotic coefficient (Liquid); method: commercial osmometer Gonotec 070
Molality, mol/kg of sodium iodide	Osmotic coefficient	uncertainty
0.5	0.955	0.01
1	0.985	0.01
0.5	0.95	0.01
1	1.004	0.01

System: water + potassium bromide; phases: Liquid
Fixed: Pressure, kPa = 101
Fixed: Temperature, K = 298.15
Property: Osmotic coefficient (Liquid); method: commercial osmometer Gonotec 070
Molality, mol/kg of potassium bromide	Osmotic coefficient	uncertainty
0.5	0.907	0.011
1	0.919	0.01
0.5	0.905	0.011
1	0.917	0.01

System: potassium iodide + water; phases: Liquid
Fixed: Pressure, kPa = 101
Fixed: Temperature, K = 298.15
Property: Osmotic coefficient (Liquid); method: commercial osmometer Gonotec 070
Molality, mol/kg of potassium iodide	Osmotic coefficient	uncertainty
0.5	0.916	0.01
1	0.934	0.01
0.5	0.923	0.01
1	0.927	0.01

System: water + sodium sulfate; phases: Liquid
Fixed: Pressure, kPa = 101
Fixed: Temperature, K = 298.15
Property: Osmotic coefficient (Liquid); method: commercial osmometer Gonotec 070
Molality, mol/kg of sodium sulfate	Osmotic coefficient	uncertainty
0.5	0.717	0.014
1	0.658	0.016
0.5	0.69	0.015
1	0.642	0.016
