Measured thermophysical data. Densities, surface tensions, and derived surface thermodynamics properties of (trimethylbenzene + propyl acetate, or butyl acetate) from T = 298.15 K to 313.15 K
Source: J. Chem. Thermodyn., 2007, 10.1016/j.jct.2006.07.025
Compound 1: propyl ethanoate, C5H10O2, InChI=1S/C5H10O2/c1-3-4-7-5(2)6/h3-4H2,1-2H3, purity 99.5%
Compound 2: 1,2,4-trimethylbenzene, C9H12, InChI=1S/C9H12/c1-7-4-5-8(2)9(3)6-7/h4-6H,1-3H3, purity 99.2%
Compound 3: 1,3,5-trimethylbenzene, C9H12, InChI=1S/C9H12/c1-7-4-8(2)6-9(3)5-7/h4-6H,1-3H3, purity 99.3%
Compound 4: butyl ethanoate, C6H12O2, InChI=1S/C6H12O2/c1-3-4-5-8-6(2)7/h3-5H2,1-2H3, purity 99.6%

System: propyl ethanoate; phases: Liquid, Gas
Property: Surface tension liquid-gas, N/m (Liquid); method: Pendant drop shape
Temperature, K	Surface tension liquid-gas, N/m	uncertainty
298.15	0.02399	0.00027
303.15	0.02336	0.00026
303.15	0.02335	0.00026
308.15	0.02273	0.00026
313.15	0.0221	0.0003

System: propyl ethanoate; phases: Liquid
Fixed: Pressure, kPa = 101
Property: Mass density, kg/m3 (Liquid); method: Vibrating tube method
Temperature, K	Mass density, kg/m3	uncertainty
298.15	882.64	0.15
303.15	876.99	0.15
308.15	871.33	0.15
313.15	865.68	0.15

System: 1,2,4-trimethylbenzene; phases: Liquid, Gas
Property: Surface tension liquid-gas, N/m (Liquid); method: Pendant drop shape
Temperature, K	Surface tension liquid-gas, N/m	uncertainty
298.15	0.02917	0.00033
303.15	0.02867	0.00032
308.15	0.02817	0.00032
313.15	0.02767	0.00031

System: 1,2,4-trimethylbenzene; phases: Liquid
Fixed: Pressure, kPa = 101
Property: Mass density, kg/m3 (Liquid); method: Vibrating tube method
Temperature, K	Mass density, kg/m3	uncertainty
298.15	871.66	0.19
303.15	867.61	0.19
308.15	863.59	0.19
313.15	859.54	0.19

System: 1,3,5-trimethylbenzene; phases: Liquid, Gas
Property: Surface tension liquid-gas, N/m (Liquid); method: Pendant drop shape
Temperature, K	Surface tension liquid-gas, N/m	uncertainty
298.15	0.02809	0.00031
303.15	0.02767	0.00031
308.15	0.02724	0.0003
313.15	0.02682	0.0003

System: 1,3,5-trimethylbenzene; phases: Liquid
Fixed: Pressure, kPa = 101
Property: Mass density, kg/m3 (Liquid); method: Vibrating tube method
Temperature, K	Mass density, kg/m3	uncertainty
298.15	861.04	0.18
303.15	856.96	0.18
308.15	852.84	0.18
313.15	848.74	0.18

System: butyl ethanoate; phases: Liquid, Gas
Property: Surface tension liquid-gas, N/m (Liquid); method: Pendant drop shape
Temperature, K	Surface tension liquid-gas, N/m	uncertainty
298.15	0.02489	0.00027
303.15	0.02435	0.00027
308.15	0.02382	0.00027
313.15	0.02328	0.00026

System: butyl ethanoate; phases: Liquid
Fixed: Pressure, kPa = 101
Property: Mass density, kg/m3 (Liquid); method: Vibrating tube method
Temperature, K	Mass density, kg/m3	uncertainty
298.15	876.18	0.14
303.15	871.31	0.14
308.15	866.24	0.14
313.15	861.57	0.14

System: 1,2,4-trimethylbenzene + propyl ethanoate; phases: Liquid, Gas
Property: Surface tension liquid-gas, N/m (Liquid); method: Pendant drop shape
Temperature, K	Mole fraction of propyl ethanoate	Surface tension liquid-gas, N/m	uncertainty
298.15	0	0.02917	0.00033
298.15	0.1002	0.02861	0.00032
298.15	0.2008	0.02806	0.00031
298.15	0.302	0.02751	0.00031
298.15	0.4003	0.02697	0.0003
298.15	0.4993	0.02644	0.0003
298.15	0.6006	0.02593	0.00029
298.15	0.7006	0.02544	0.00028
298.15	0.7991	0.02496	0.00028
298.15	0.8991	0.02448	0.00027
298.15	1	0.02399	0.00027
303.15	0	0.02867	0.00032
303.15	0.0982	0.02809	0.00031
303.15	0.1994	0.02753	0.00031
303.15	0.3006	0.02696	0.0003
303.15	0.3996	0.0264	0.0003
303.15	0.503	0.02586	0.00029
303.15	0.6003	0.02534	0.00028
303.15	0.6979	0.02483	0.00028
303.15	0.7993	0.02434	0.00027
303.15	0.8992	0.02386	0.00027
303.15	1	0.02336	0.00026
308.15	0	0.02817	0.00032
308.15	0.0986	0.02757	0.00031
308.15	0.1998	0.02699	0.0003
308.15	0.3028	0.02641	0.0003
308.15	0.4004	0.02583	0.00029
308.15	0.5036	0.02527	0.00029
308.15	0.6003	0.02474	0.00028
308.15	0.6977	0.02422	0.00027
308.15	0.8	0.02372	0.00027
308.15	0.9005	0.02323	0.00026
308.15	1	0.02273	0.00026
313.15	0	0.02767	0.00031
313.15	0.1005	0.02705	0.00031
313.15	0.2001	0.02646	0.0003
313.15	0.2999	0.02586	0.00029
313.15	0.4001	0.02526	0.00029
313.15	0.4998	0.02469	0.00028
313.15	0.6001	0.02415	0.00027
313.15	0.7002	0.02361	0.00027
313.15	0.7998	0.0231	0.00026
313.15	0.9002	0.02261	0.00026
313.15	1	0.0221	0.0003

System: 1,2,4-trimethylbenzene + propyl ethanoate; phases: Liquid
Fixed: Pressure, kPa = 101
Property: Mass density, kg/m3 (Liquid); method: Vibrating tube method
Temperature, K	Mole fraction of propyl ethanoate	Mass density, kg/m3	uncertainty
298.15	0	871.66	0.19
298.15	0.0607	872.13	0.19
298.15	0.1002	872.45	0.19
298.15	0.1578	872.95	0.18
298.15	0.2008	873.32	0.18
298.15	0.2518	873.78	0.18
298.15	0.302	874.24	0.17
298.15	0.3504	874.71	0.17
298.15	0.4003	875.2	0.17
298.15	0.4568	875.78	0.17
298.15	0.4993	876.23	0.17
298.15	0.549	876.77	0.16
298.15	0.6006	877.36	0.16
298.15	0.6494	877.93	0.16
298.15	0.7006	878.55	0.16
298.15	0.7493	879.16	0.16
298.15	0.7991	879.8	0.15
298.15	0.8497	880.49	0.15
298.15	0.8991	881.17	0.15
298.15	0.9464	881.86	0.15
298.15	1	882.64	0.15
303.15	0	867.61	0.19
303.15	0.0982	868.25	0.19
303.15	0.1994	868.98	0.18
303.15	0.3006	869.76	0.18
303.15	0.3996	870.56	0.17
303.15	0.503	871.46	0.17
303.15	0.6003	872.41	0.16
303.15	0.6979	873.41	0.16
303.15	0.7993	874.52	0.15
303.15	0.8992	875.72	0.15
303.15	1	876.99	0.15
308.15	0	863.59	0.19
308.15	0.0986	864.07	0.19
308.15	0.1998	864.65	0.18
308.15	0.3028	865.29	0.18
308.15	0.4004	865.93	0.17
308.15	0.5036	866.67	0.17
308.15	0.6003	867.44	0.16
308.15	0.6977	868.27	0.16
308.15	0.8	869.22	0.16
308.15	0.9005	870.23	0.15
308.15	1	871.33	0.15
313.15	0	859.54	0.19
313.15	0.0497	859.64	0.19
313.15	0.0998	859.82	0.19
313.15	0.15	860.01	0.18
313.15	0.2001	860.24	0.18
313.15	0.2498	860.45	0.18
313.15	0.2999	860.71	0.18
313.15	0.35	860.98	0.17
313.15	0.4001	861.25	0.17
313.15	0.4503	861.53	0.17
313.15	0.4997	861.83	0.17
313.15	0.5502	862.15	0.17
313.15	0.6001	862.48	0.16
313.15	0.6499	862.81	0.16
313.15	0.7	863.18	0.16
313.15	0.7503	863.54	0.16
313.15	0.7998	863.94	0.16
313.15	0.85	864.35	0.15
313.15	0.9002	864.79	0.15
313.15	0.9495	865.18	0.15
313.15	1	865.68	0.15

System: 1,3,5-trimethylbenzene + propyl ethanoate; phases: Liquid, Gas
Property: Surface tension liquid-gas, N/m (Liquid); method: Pendant drop shape
Temperature, K	Mole fraction of propyl ethanoate	Surface tension liquid-gas, N/m	uncertainty
298.15	0	0.02809	0.00031
298.15	0.0996	0.02763	0.00031
298.15	0.2006	0.02716	0.0003
298.15	0.3006	0.0267	0.0003
298.15	0.4003	0.02627	0.00029
298.15	0.4985	0.02585	0.00029
298.15	0.6001	0.02546	0.00028
298.15	0.6987	0.02509	0.00028
298.15	0.7983	0.02473	0.00028
298.15	0.8995	0.02435	0.00027
298.15	1	0.02399	0.00027
303.15	0	0.02767	0.00031
303.15	0.1	0.02718	0.0003
303.15	0.2012	0.02669	0.0003
303.15	0.2995	0.0262	0.00029
303.15	0.3998	0.02574	0.00029
303.15	0.4996	0.0253	0.00028
303.15	0.6004	0.0249	0.00028
303.15	0.7007	0.0245	0.00028
303.15	0.7987	0.02412	0.00027
303.15	0.9009	0.02373	0.00027
303.15	1	0.02335	0.00026
308.15	0	0.02724	0.0003
308.15	0.0985	0.02673	0.0003
308.15	0.1992	0.0262	0.00029
308.15	0.3018	0.02569	0.00029
308.15	0.3991	0.02521	0.00028
308.15	0.5009	0.02475	0.00028
308.15	0.6012	0.02433	0.00028
308.15	0.6997	0.02391	0.00027
308.15	0.7983	0.02352	0.00027
308.15	0.8997	0.02311	0.00026
308.15	1	0.02273	0.00026
313.15	0	0.02682	0.0003
313.15	0.1004	0.02628	0.00029
313.15	0.1999	0.02573	0.00029
313.15	0.3004	0.02519	0.00028
313.15	0.3998	0.02469	0.00028
313.15	0.5001	0.02421	0.00027
313.15	0.6	0.02376	0.00027
313.15	0.7005	0.02333	0.00027
313.15	0.8003	0.02292	0.00026
313.15	0.9003	0.0225	0.00026
313.15	1	0.0221	0.00025

System: 1,3,5-trimethylbenzene + propyl ethanoate; phases: Liquid
Fixed: Pressure, kPa = 101
Property: Mass density, kg/m3 (Liquid); method: Vibrating tube method
Temperature, K	Mole fraction of propyl ethanoate	Mass density, kg/m3	uncertainty
298.15	0	861.04	0.18
298.15	0.0498	861.7	0.17
298.15	0.0996	862.38	0.17
298.15	0.1504	863.1	0.17
298.15	0.2006	863.85	0.17
298.15	0.2502	864.63	0.17
298.15	0.3006	865.46	0.17
298.15	0.3499	866.32	0.16
298.15	0.4003	867.23	0.16
298.15	0.4498	868.17	0.16
298.15	0.4985	869.14	0.16
298.15	0.5526	870.28	0.16
298.15	0.6001	871.33	0.16
298.15	0.65	872.49	0.16
298.15	0.6987	873.7	0.15
298.15	0.7369	874.66	0.15
298.15	0.7983	876.31	0.15
298.15	0.8504	877.83	0.15
298.15	0.8995	879.31	0.15
298.15	0.9397	880.63	0.15
298.15	1	882.64	0.15
303.15	0	856.96	0.18
303.15	0.1	857.96	0.17
303.15	0.2012	859.34	0.17
303.15	0.2995	860.81	0.17
303.15	0.3998	862.5	0.16
303.15	0.4996	864.32	0.16
303.15	0.6004	866.41	0.16
303.15	0.7007	868.63	0.16
303.15	0.7987	871.2	0.15
303.15	0.9009	874.11	0.15
303.15	1	876.99	0.15
308.15	0	852.84	0.18
308.15	0.0985	853.66	0.17
308.15	0.1992	854.81	0.17
308.15	0.3018	856.13	0.17
308.15	0.3991	857.53	0.17
308.15	0.5009	859.15	0.16
308.15	0.6012	861.08	0.16
308.15	0.6997	863.19	0.16
308.15	0.7983	865.52	0.15
308.15	0.8997	868.19	0.15
308.15	1	871.33	0.15
313.15	0	848.74	0.18
313.15	0.0503	848.97	0.18
313.15	0.1004	849.28	0.17
313.15	0.1501	849.65	0.17
313.15	0.1999	850.05	0.17
313.15	0.2499	850.49	0.17
313.15	0.3004	851.02	0.17
313.15	0.3502	851.58	0.17
313.15	0.3998	852.18	0.17
313.15	0.449	852.83	0.16
313.15	0.5001	853.57	0.16
313.15	0.5502	854.4	0.16
313.15	0.6	855.29	0.16
313.15	0.6503	856.26	0.16
313.15	0.7005	857.33	0.16
313.15	0.7499	858.44	0.16
313.15	0.8003	859.87	0.16
313.15	0.8499	861.27	0.15
313.15	0.9003	862.85	0.15
313.15	0.9504	864.3	0.15
313.15	1	865.68	0.15

System: 1,2,4-trimethylbenzene + butyl ethanoate; phases: Liquid, Gas
Property: Surface tension liquid-gas, N/m (Liquid); method: Pendant drop shape
Temperature, K	Mole fraction of butyl ethanoate	Surface tension liquid-gas, N/m	uncertainty
298.15	0	0.02917	0.00033
298.15	0.0998	0.02868	0.00032
298.15	0.2001	0.0282	0.00031
298.15	0.2994	0.02773	0.00031
298.15	0.4003	0.02725	0.0003
298.15	0.4958	0.02678	0.0003
298.15	0.6001	0.02633	0.00029
298.15	0.6999	0.02593	0.00029
298.15	0.7998	0.02557	0.00028
298.15	0.8997	0.02523	0.00028
298.15	1	0.02489	0.00027
303.15	0	0.02867	0.00032
303.15	0.1001	0.02818	0.00031
303.15	0.2009	0.02769	0.00031
303.15	0.3006	0.02722	0.0003
303.15	0.4001	0.02673	0.0003
303.15	0.5004	0.02627	0.00029
303.15	0.6006	0.0258	0.00029
303.15	0.7001	0.0254	0.00028
303.15	0.7997	0.02503	0.00028
303.15	0.9	0.0247	0.00027
303.15	1	0.02435	0.00027
308.15	0	0.02817	0.00032
308.15	0.1005	0.02767	0.00031
308.15	0.1998	0.02718	0.0003
308.15	0.3004	0.0267	0.0003
308.15	0.4003	0.02621	0.00029
308.15	0.5007	0.02575	0.00029
308.15	0.5991	0.02528	0.00028
308.15	0.6995	0.02487	0.00028
308.15	0.7999	0.0245	0.00027
308.15	0.9004	0.02416	0.00027
308.15	1	0.02382	0.00027
313.15	0	0.02767	0.00031
313.15	0.1002	0.02712	0.00031
313.15	0.1995	0.02655	0.0003
313.15	0.3	0.02602	0.00029
313.15	0.3996	0.02548	0.00029
313.15	0.5002	0.02499	0.00028
313.15	0.5998	0.02455	0.00028
313.15	0.6999	0.0242	0.00027
313.15	0.8004	0.0239	0.00027
313.15	0.9005	0.02362	0.00027
313.15	1	0.02328	0.00026

System: 1,2,4-trimethylbenzene + butyl ethanoate; phases: Liquid
Fixed: Pressure, kPa = 101
Property: Mass density, kg/m3 (Liquid); method: Vibrating tube method
Temperature, K	Mole fraction of butyl ethanoate	Mass density, kg/m3	uncertainty
298.15	0	871.66	0.19
298.15	0.0563	871.92	0.19
298.15	0.1045	872.14	0.18
298.15	0.1496	872.35	0.18
298.15	0.1996	872.58	0.18
298.15	0.2533	872.82	0.17
298.15	0.2998	873.03	0.17
298.15	0.3552	873.27	0.17
298.15	0.3998	873.46	0.16
298.15	0.45	873.68	0.16
298.15	0.5001	873.9	0.16
298.15	0.5503	874.11	0.16
298.15	0.5995	874.32	0.15
298.15	0.6495	874.54	0.15
298.15	0.6998	874.75	0.15
298.15	0.7495	874.97	0.15
298.15	0.7999	875.2	0.2
298.15	0.8499	875.43	0.14
298.15	0.8989	875.67	0.14
298.15	0.9478	875.91	0.14
298.15	1	876.18	0.14
303.15	0	867.61	0.19
303.15	0.1001	867.99	0.18
303.15	0.2009	868.38	0.18
303.15	0.3006	868.73	0.17
303.15	0.4001	869.1	0.17
303.15	0.5004	869.45	0.16
303.15	0.6006	869.81	0.16
303.15	0.7001	870.15	0.15
303.15	0.7997	870.43	0.15
303.15	0.9	870.91	0.14
303.15	1	871.31	0.14
308.15	0	863.59	0.19
308.15	0.1005	863.87	0.18
308.15	0.1998	864.16	0.18
308.15	0.3004	864.42	0.17
308.15	0.4003	864.67	0.17
308.15	0.5007	864.93	0.16
308.15	0.5991	865.17	0.16
308.15	0.6995	865.43	0.15
308.15	0.7999	865.68	0.15
308.15	0.9004	865.94	0.14
308.15	1	866.24	0.14
313.15	0	859.54	0.19
313.15	0.0499	859.66	0.19
313.15	0.1002	859.76	0.19
313.15	0.1503	859.87	0.18
313.15	0.1995	859.98	0.18
313.15	0.25	860.08	0.18
313.15	0.3	860.19	0.17
313.15	0.35	860.28	0.17
313.15	0.3996	860.37	0.17
313.15	0.4499	860.46	0.16
313.15	0.5002	860.56	0.16
313.15	0.5499	860.65	0.16
313.15	0.5998	860.73	0.16
313.15	0.6503	860.82	0.15
313.15	0.6999	860.91	0.15
313.15	0.7499	861.01	0.15
313.15	0.8004	861.1	0.15
313.15	0.85	861.21	0.15
313.15	0.9005	861.33	0.15
313.15	0.9496	861.45	0.14
313.15	1	861.57	0.14

System: 1,3,5-trimethylbenzene + butyl ethanoate; phases: Liquid, Gas
Property: Surface tension liquid-gas, N/m (Liquid); method: Pendant drop shape
Temperature, K	Mole fraction of butyl ethanoate	Surface tension liquid-gas, N/m	uncertainty
298.15	0	0.02809	0.00031
298.15	0.1009	0.02772	0.00031
298.15	0.2018	0.02734	0.0003
298.15	0.3003	0.02698	0.0003
298.15	0.4005	0.02661	0.00029
298.15	0.4996	0.02627	0.00029
298.15	0.5979	0.02593	0.00029
298.15	0.7016	0.02562	0.00028
298.15	0.8005	0.02536	0.00028
298.15	0.8981	0.02512	0.00028
298.15	1	0.02489	0.00027
303.15	0	0.02767	0.00031
303.15	0.1005	0.02729	0.0003
303.15	0.1997	0.0269	0.0003
303.15	0.3	0.02653	0.00029
303.15	0.3996	0.02614	0.00029
303.15	0.5007	0.02579	0.00029
303.15	0.6007	0.02545	0.00028
303.15	0.7001	0.02512	0.00028
303.15	0.7971	0.02485	0.00028
303.15	0.9009	0.0246	0.00027
303.15	1	0.02435	0.00027
308.15	0	0.02724	0.0003
308.15	0.1002	0.02684	0.0003
308.15	0.1986	0.02644	0.00029
308.15	0.2997	0.02605	0.00029
308.15	0.4003	0.02566	0.00029
308.15	0.5007	0.02529	0.00028
308.15	0.5997	0.02494	0.00028
308.15	0.7005	0.0246	0.00027
308.15	0.8	0.02432	0.00027
308.15	0.9006	0.02407	0.00027
308.15	1	0.02382	0.00027
313.15	0	0.02682	0.0003
313.15	0.0997	0.02639	0.0003
313.15	0.2012	0.02597	0.00029
313.15	0.2996	0.02557	0.00029
313.15	0.3987	0.02516	0.00028
313.15	0.5008	0.02479	0.00028
313.15	0.5964	0.02442	0.00027
313.15	0.6995	0.02407	0.00027
313.15	0.7994	0.02379	0.00027
313.15	0.9	0.02354	0.00026
313.15	1	0.02328	0.00026

System: 1,3,5-trimethylbenzene + butyl ethanoate; phases: Liquid
Fixed: Pressure, kPa = 101
Property: Mass density, kg/m3 (Liquid); method: Vibrating tube method
Temperature, K	Mole fraction of butyl ethanoate	Mass density, kg/m3	uncertainty
298.15	0	861.04	0.18
298.15	0.0736	861.9	0.17
298.15	0.1009	862.23	0.17
298.15	0.1521	862.84	0.17
298.15	0.2018	863.45	0.17
298.15	0.2523	864.09	0.16
298.15	0.3003	864.7	0.16
298.15	0.3499	865.36	0.16
298.15	0.4005	866.03	0.16
298.15	0.45	866.72	0.16
298.15	0.4996	867.44	0.15
298.15	0.5446	868.11	0.15
298.15	0.5979	868.92	0.15
298.15	0.6503	869.76	0.15
298.15	0.7016	870.59	0.15
298.15	0.7504	871.44	0.15
298.15	0.8005	872.32	0.14
298.15	0.846	873.17	0.14
298.15	0.8981	874.13	0.14
298.15	0.9333	874.87	0.14
298.15	1	876.18	0.14
303.15	0	856.96	0.18
303.15	0.1005	858.04	0.17
303.15	0.1997	859.17	0.17
303.15	0.3	860.37	0.16
303.15	0.3996	861.61	0.16
303.15	0.5007	862.98	0.16
303.15	0.6007	864.4	0.15
303.15	0.7001	865.94	0.15
303.15	0.7971	867.56	0.15
303.15	0.9009	869.4	0.14
303.15	1	871.31	0.14
308.15	0	852.84	0.18
308.15	0.1002	853.8	0.17
308.15	0.1986	854.82	0.17
308.15	0.2997	855.94	0.16
308.15	0.4003	857.12	0.16
308.15	0.5007	858.39	0.16
308.15	0.5997	859.71	0.15
308.15	0.7005	861.18	0.15
308.15	0.8	862.75	0.15
308.15	0.9006	864.44	0.14
308.15	1	866.24	0.14
313.15	0	848.74	0.18
313.15	0.0498	849.12	0.18
313.15	0.0997	849.59	0.17
313.15	0.15	850.08	0.17
313.15	0.2012	850.6	0.17
313.15	0.2502	851.13	0.17
313.15	0.2996	851.64	0.16
313.15	0.3507	852.22	0.16
313.15	0.3987	852.78	0.16
313.15	0.4497	853.39	0.16
313.15	0.5008	854	0.16
313.15	0.5499	854.62	0.16
313.15	0.5964	855.24	0.15
313.15	0.6503	855.99	0.15
313.15	0.6995	856.68	0.15
313.15	0.7499	857.4	0.15
313.15	0.7994	858.19	0.15
313.15	0.8499	858.99	0.15
313.15	0.9	859.83	0.14
313.15	0.9495	860.67	0.14
313.15	1	861.57	0.14
