Measured thermophysical data. Temperature influence on mixing properties of {ethyl tert-butyl ether (ETBE) + gasoline additives}
Source: J. Chem. Thermodyn., 2007, 10.1016/j.jct.2007.05.005
Compound 1: 2-ethoxy-2-methylpropane, C6H14O, InChI=1S/C6H14O/c1-5-7-6(2,3)4/h5H2,1-4H3, purity 99.5%
Compound 2: 2,2,4-trimethylpentane, C8H18, InChI=1S/C8H18/c1-7(2)6-8(3,4)5/h7H,6H2,1-5H3, purity 99.5%
Compound 3: ethylbenzene, C8H10, InChI=1S/C8H10/c1-2-8-6-4-3-5-7-8/h3-7H,2H2,1H3, purity 99.5%
Compound 4: benzene, C6H6, InChI=1S/C6H6/c1-2-4-6-5-3-1/h1-6H, purity 99.5%
Compound 5: toluene, C7H8, InChI=1S/C7H8/c1-7-5-3-2-4-6-7/h2-6H,1H3, purity 99.5%
Compound 6: 2-methylpropan-2-ol, C4H10O, InChI=1S/C4H10O/c1-4(2,3)5/h5H,1-3H3, purity 99.5%
Compound 7: ethanol, C2H6O, InChI=1S/C2H6O/c1-2-3/h3H,2H2,1H3, purity 99.5%

System: 2-ethoxy-2-methylpropane; phases: Liquid
Fixed: Pressure, kPa = 101.3
Property: Speed of sound, m/s (Liquid); method: Sing-around technique in a fixed-path interferometer
Temperature, K	Speed of sound, m/s	uncertainty
288.15	1078.87	2.18
288.15	1076.43	2.17
298.15	1033.23	2.17
298.15	1031.01	2.17
303.15	1010.23	2.17
313.15	965.87	2.16
323.15	922.48	2.16
323.15	920.73	2.16
323.15	922.08	2.16

System: 2-ethoxy-2-methylpropane; phases: Liquid
Fixed: Pressure, kPa = 101.3
Property: Mass density, kg/m3 (Liquid); method: VIBTUB:UFactor:8
Temperature, K	Mass density, kg/m3	uncertainty
288.15	745.656	1.072
288.15	744.955	1.074
298.15	735.357	1.104
298.15	734.806	1.105
303.15	730.186	1.119
313.15	719.687	1.152
323.15	709.007	1.184
323.15	708.642	1.185
323.15	708.996	1.184

System: 2,2,4-trimethylpentane; phases: Liquid
Fixed: Pressure, kPa = 101.3
Property: Speed of sound, m/s (Liquid); method: Sing-around technique in a fixed-path interferometer
Temperature, K	Speed of sound, m/s	uncertainty
288.15	1124.31	2.17
298.15	1082.2	2.17
323.15	979.25	2.16

System: 2,2,4-trimethylpentane; phases: Liquid
Fixed: Pressure, kPa = 101.3
Property: Mass density, kg/m3 (Liquid); method: VIBTUB::UFactor:8
Temperature, K	Mass density, kg/m3	uncertainty
288.15	695.948	1.224
298.15	687.749	1.249
323.15	666.832	1.313

System: ethylbenzene; phases: Liquid
Fixed: Pressure, kPa = 101.3
Property: Speed of sound, m/s (Liquid); method: Sing-around technique in a fixed-path interferometer
Temperature, K	Speed of sound, m/s	uncertainty
288.15	1359.11	2.2
298.15	1316.23	2.19
323.15	1213.59	2.18

System: ethylbenzene; phases: Liquid
Fixed: Pressure, kPa = 101.3
Property: Mass density, kg/m3 (Liquid); method: VIBTUB::UFactor:8
Temperature, K	Mass density, kg/m3	uncertainty
288.15	870.736	0.691
298.15	862.068	0.717
323.15	840.054	0.784

System: benzene; phases: Liquid
Fixed: Pressure, kPa = 101.3
Property: Speed of sound, m/s (Liquid); method: Sing-around technique in a fixed-path interferometer
Temperature, K	Speed of sound, m/s	uncertainty
288.15	1345.47	2.2
298.15	1298.27	2.2
323.15	1184.63	2.18

System: benzene; phases: Liquid
Fixed: Pressure, kPa = 101.3
Property: Mass density, kg/m3 (Liquid); method: VIBTUB:UFactor:8
Temperature, K	Mass density, kg/m3	uncertainty
288.15	884.183	0.65
298.15	873.52	0.683
323.15	846.641	0.765

System: toluene; phases: Liquid
Fixed: Pressure, kPa = 101.3
Property: Speed of sound, m/s (Liquid); method: Sing-around technique in a fixed-path interferometer
Temperature, K	Speed of sound, m/s	uncertainty
288.15	1347.5	2.2
298.15	1303.44	2.19
323.15	1196.6	2.18

System: toluene; phases: Liquid
Fixed: Pressure, kPa = 101.3
Property: Mass density, kg/m3 (Liquid); method: VIBTUB::UFactor:8
Temperature, K	Mass density, kg/m3	uncertainty
288.15	871.457	0.688
298.15	862.173	0.717
323.15	838.706	0.788

System: 2-methylpropan-2-ol; phases: Liquid
Fixed: Pressure, kPa = 101.3
Property: Speed of sound, m/s (Liquid); method: Sing-around technique in a fixed-path interferometer
Temperature, K	Speed of sound, m/s	uncertainty
303.15	1098.21	2.17
313.15	1055.36	2.17
323.15	1013.01	2.16

System: 2-methylpropan-2-ol; phases: Liquid
Fixed: Pressure, kPa = 101.3
Property: Mass density, kg/m3 (Liquid); method: VIBTUB::UFactor:8
Temperature, K	Mass density, kg/m3	uncertainty
303.15	775.028	0.982
313.15	764.554	1.015
323.15	753.679	1.048

System: ethanol; phases: Liquid
Fixed: Pressure, kPa = 101.3
Property: Speed of sound, m/s (Liquid); method: Sing-around technique in a fixed-path interferometer
Temperature, K	Speed of sound, m/s	uncertainty
288.15	1177.3	2.16
298.15	1142.4	2.16
323.15	1059.32	2.15

System: ethanol; phases: Liquid
Fixed: Pressure, kPa = 101.3
Property: Mass density, kg/m3 (Liquid); method: VIBTUB::UFactor:8
Temperature, K	Mass density, kg/m3	uncertainty
288.15	793.644	0.925
298.15	785.082	0.951
323.15	763.177	1.018

System: benzene + 2-ethoxy-2-methylpropane; phases: Liquid
Fixed: Pressure, kPa = 101.3
Property: Speed of sound, m/s (Liquid); method: Sing-around technique in a fixed-path interferometer
Temperature, K	Mole fraction of 2-ethoxy-2-methylpropane	Speed of sound, m/s	uncertainty
288.15	0	1345.47	2.2
288.15	0.049	1327.24	2.23
288.15	0.102	1308.32	2.23
288.15	0.204	1274.76	2.22
288.15	0.299	1245.62	2.21
288.15	0.393	1219.11	2.21
288.15	0.494	1192.07	2.2
288.15	0.589	1168.61	2.2
288.15	0.696	1143.51	2.19
288.15	0.799	1120.27	2.19
288.15	0.906	1097.58	2.18
288.15	0.953	1087.8	2.18
288.15	1	1078.87	2.18
298.15	0	1298.27	2.2
298.15	0.049	1279.97	2.22
298.15	0.102	1261.43	2.22
298.15	0.204	1228.32	2.21
298.15	0.299	1199.43	2.21
298.15	0.393	1173	2.2
298.15	0.494	1146.5	2.19
298.15	0.589	1123.56	2.19
298.15	0.696	1099.04	2.19
298.15	0.799	1075.74	2.18
298.15	0.906	1053.27	2.18
298.15	0.953	1043.98	2.18
298.15	1	1033.23	2.17
323.15	0	1184.63	2.18
323.15	0.049	1165.55	2.21
323.15	0.102	1147.2	2.21
323.15	0.204	1114.67	2.2
323.15	0.299	1086.28	2.19
323.15	0.393	1060.04	2.19
323.15	0.494	1034.18	2.18
323.15	0.589	1011.67	2.18
323.15	0.696	988.29	2.18
323.15	0.799	965.1	2.17
323.15	0.906	942.92	2.17
323.15	0.953	933.45	2.17
323.15	1	922.48	2.16

System: benzene + 2-ethoxy-2-methylpropane; phases: Liquid
Fixed: Pressure, kPa = 101.3
Property: Mass density, kg/m3 (Liquid); method: VIBTUB:UFactor:8
Temperature, K	Mole fraction of 2-ethoxy-2-methylpropane	Mass density, kg/m3	uncertainty
288.15	0	884.183	0.65
288.15	0.049	874.335	0.708
288.15	0.102	864.201	0.734
288.15	0.204	846.222	0.784
288.15	0.299	830.929	0.827
288.15	0.393	816.969	0.867
288.15	0.494	802.925	0.907
288.15	0.589	790.686	0.943
288.15	0.696	777.916	0.98
288.15	0.799	766.357	1.015
288.15	0.906	755	1.049
288.15	0.953	750.242	1.063
288.15	1	745.656	1.072
298.15	0	873.52	0.683
298.15	0.049	863.764	0.738
298.15	0.102	853.699	0.764
298.15	0.204	835.811	0.815
298.15	0.299	820.575	0.858
298.15	0.393	806.647	0.898
298.15	0.494	792.628	0.938
298.15	0.589	780.408	0.974
298.15	0.696	767.647	1.012
298.15	0.799	756.096	1.046
298.15	0.906	744.747	1.08
298.15	0.953	739.991	1.094
298.15	1	735.357	1.104
323.15	0	846.641	0.765
323.15	0.049	837.01	0.817
323.15	0.102	827.068	0.843
323.15	0.204	809.343	0.894
323.15	0.299	794.184	0.937
323.15	0.393	780.301	0.977
323.15	0.494	766.309	1.018
323.15	0.589	754.084	1.054
323.15	0.696	741.314	1.092
323.15	0.799	729.753	1.126
323.15	0.906	718.393	1.16
323.15	0.953	713.647	1.174
323.15	1	709.007	1.184

System: toluene + 2-ethoxy-2-methylpropane; phases: Liquid
Fixed: Pressure, kPa = 101.3
Property: Speed of sound, m/s (Liquid); method: Sing-around technique in a fixed-path interferometer
Temperature, K	Mole fraction of 2-ethoxy-2-methylpropane	Speed of sound, m/s	uncertainty
288.15	0	1347.5	2.2
288.15	0.052	1332.13	2.21
288.15	0.108	1315.25	2.21
288.15	0.217	1282.61	2.21
288.15	0.301	1258.92	2.21
288.15	0.41	1227.96	2.2
288.15	0.505	1202.71	2.2
288.15	0.615	1173.52	2.2
288.15	0.701	1151.45	2.19
288.15	0.805	1125.27	2.19
288.15	0.897	1102.84	2.19
288.15	0.95	1089.79	2.19
288.15	1	1078.87	2.18
298.15	0	1303.44	2.19
298.15	0.052	1288.26	2.21
298.15	0.108	1271.34	2.21
298.15	0.217	1238.11	2.2
298.15	0.301	1214.71	2.2
298.15	0.41	1183.56	2.2
298.15	0.505	1158.12	2.19
298.15	0.615	1129.12	2.19
298.15	0.701	1107.03	2.19
298.15	0.805	1080.53	2.19
298.15	0.897	1058.16	2.18
298.15	0.95	1044.99	2.18
298.15	1	1033.23	2.17
323.15	0	1196.6	2.18
323.15	0.052	1181.64	2.2
323.15	0.108	1163.97	2.2
323.15	0.217	1130.58	2.19
323.15	0.301	1106.48	2.19
323.15	0.41	1074.97	2.19
323.15	0.505	1049.33	2.19
323.15	0.615	1019.69	2.18
323.15	0.701	997.51	2.18
323.15	0.805	970.75	2.18
323.15	0.897	948.16	2.18
323.15	0.95	934.78	2.17
323.15	1	922.48	2.16

System: toluene + 2-ethoxy-2-methylpropane; phases: Liquid
Fixed: Pressure, kPa = 101.3
Property: Mass density, kg/m3 (Liquid); method: VIBTUB:UFactor:8
Temperature, K	Mole fraction of 2-ethoxy-2-methylpropane	Mass density, kg/m3	uncertainty
288.15	0	871.457	0.688
288.15	0.052	864.001	0.725
288.15	0.108	855.965	0.749
288.15	0.217	840.966	0.793
288.15	0.301	829.662	0.826
288.15	0.41	815.355	0.869
288.15	0.505	803.55	0.904
288.15	0.615	789.864	0.945
288.15	0.701	779.62	0.975
288.15	0.805	767.503	1.012
288.15	0.897	757.112	1.043
288.15	0.95	751.062	1.061
288.15	1	745.656	1.072
298.15	0	862.173	0.717
298.15	0.052	854.662	0.754
298.15	0.108	846.56	0.777
298.15	0.217	831.445	0.822
298.15	0.301	820.051	0.856
298.15	0.41	805.638	0.898
298.15	0.505	793.739	0.934
298.15	0.615	779.951	0.975
298.15	0.701	769.63	1.006
298.15	0.805	757.422	1.043
298.15	0.897	746.951	1.074
298.15	0.95	740.859	1.093
298.15	1	735.357	1.104
323.15	0	838.706	0.788
323.15	0.052	831.025	0.825
323.15	0.108	822.744	0.849
323.15	0.217	807.297	0.895
323.15	0.301	795.645	0.93
323.15	0.41	780.903	0.974
323.15	0.505	768.747	1.01
323.15	0.615	754.631	1.052
323.15	0.701	744.088	1.084
323.15	0.805	731.601	1.121
323.15	0.897	720.871	1.154
323.15	0.95	714.65	1.173
323.15	1	709.007	1.184

System: ethylbenzene + 2-ethoxy-2-methylpropane; phases: Liquid
Fixed: Pressure, kPa = 101.3
Property: Speed of sound, m/s (Liquid); method: Sing-around technique in a fixed-path interferometer
Temperature, K	Mole fraction of 2-ethoxy-2-methylpropane	Speed of sound, m/s	uncertainty
288.15	0	1359.11	2.2
288.15	0.062	1341.59	2.21
288.15	0.122	1324.36	2.21
288.15	0.239	1291.09	2.21
288.15	0.353	1258.94	2.21
288.15	0.455	1230.06	2.2
288.15	0.556	1201.7	2.2
288.15	0.653	1174.25	2.2
288.15	0.746	1148.27	2.2
288.15	0.834	1123.25	2.2
288.15	0.918	1099.66	2.2
288.15	0.959	1087.96	2.19
288.15	1	1076.43	2.17
298.15	0	1316.23	2.19
298.15	0.062	1298.45	2.21
298.15	0.122	1281.05	2.21
298.15	0.239	1247.29	2.2
298.15	0.353	1214.82	2.2
298.15	0.455	1185.66	2.2
298.15	0.556	1157.13	2.2
298.15	0.653	1129.35	2.19
298.15	0.746	1103.19	2.19
298.15	0.834	1077.88	2.19
298.15	0.918	1054.05	2.19
298.15	0.959	1042.25	2.19
298.15	1	1031.01	2.17
323.15	0	1213.59	2.18
323.15	0.062	1195.21	2.2
323.15	0.122	1177.25	2.2
323.15	0.239	1142.49	2.19
323.15	0.353	1109	2.19
323.15	0.455	1079.04	2.19
323.15	0.556	1049.8	2.19
323.15	0.653	1021.44	2.18
323.15	0.746	994.59	2.18
323.15	0.834	968.81	2.18
323.15	0.918	944.36	2.18
323.15	0.959	932.2	2.18
323.15	1	920.73	2.16

System: ethylbenzene + 2-ethoxy-2-methylpropane; phases: Liquid
Fixed: Pressure, kPa = 101.3
Property: Mass density, kg/m3 (Liquid); method: VIBTUB:UFactor:8
Temperature, K	Mole fraction of 2-ethoxy-2-methylpropane	Mass density, kg/m3	uncertainty
288.15	0	870.736	0.691
288.15	0.062	862.801	0.726
288.15	0.122	855.221	0.748
288.15	0.239	840.448	0.793
288.15	0.353	826.071	0.836
288.15	0.455	813.347	0.874
288.15	0.556	800.809	0.912
288.15	0.653	788.72	0.949
288.15	0.746	777.039	0.984
288.15	0.834	765.895	1.018
288.15	0.918	755.524	1.049
288.15	0.959	750.111	1.066
288.15	1	744.955	1.074
298.15	0	862.068	0.717
298.15	0.062	854.066	0.752
298.15	0.122	846.39	0.775
298.15	0.239	831.434	0.82
298.15	0.353	816.917	0.864
298.15	0.455	804.045	0.903
298.15	0.556	791.351	0.941
298.15	0.653	779.094	0.978
298.15	0.746	767.306	1.014
298.15	0.834	756.026	1.048
298.15	0.918	745.492	1.08
298.15	0.959	740.037	1.097
298.15	1	734.806	1.105
323.15	0	840.054	0.784
323.15	0.062	831.864	0.82
323.15	0.122	823.917	0.844
323.15	0.239	808.496	0.89
323.15	0.353	793.606	0.935
323.15	0.455	780.291	0.975
323.15	0.556	767.168	1.015
323.15	0.653	754.45	1.053
323.15	0.746	742.327	1.09
323.15	0.834	730.658	1.126
323.15	0.918	719.646	1.159
323.15	0.959	714.068	1.176
323.15	1	708.642	1.185

System: 2,2,4-trimethylpentane + 2-ethoxy-2-methylpropane; phases: Liquid
Fixed: Pressure, kPa = 101.3
Property: Speed of sound, m/s (Liquid); method: Sing-around technique in a fixed-path interferometer
Temperature, K	Mole fraction of 2-ethoxy-2-methylpropane	Speed of sound, m/s	uncertainty
288.15	0	1124.31	2.17
288.15	0.047	1121.18	2.17
288.15	0.1	1118.34	2.17
288.15	0.204	1111.9	2.17
288.15	0.305	1106.75	2.17
288.15	0.4	1101.65	2.17
288.15	0.508	1096.5	2.17
288.15	0.596	1092.53	2.17
288.15	0.699	1088.28	2.17
288.15	0.788	1084.87	2.17
288.15	0.902	1081.5	2.17
288.15	0.949	1080.5	2.17
288.15	1	1078.87	2.18
298.15	0	1082.2	2.17
298.15	0.047	1078.67	2.17
298.15	0.1	1075.54	2.17
298.15	0.204	1068.91	2.17
298.15	0.305	1063.78	2.17
298.15	0.4	1058.5	2.17
298.15	0.508	1053.08	2.17
298.15	0.596	1048.33	2.17
298.15	0.699	1043.82	2.17
298.15	0.788	1040.14	2.17
298.15	0.902	1036.64	2.17
298.15	0.949	1035.36	2.17
298.15	1	1033.23	2.17
323.15	0	979.25	2.16
323.15	0.047	975.15	2.16
323.15	0.1	971.5	2.16
323.15	0.204	964.23	2.16
323.15	0.305	958.38	2.16
323.15	0.4	952.41	2.16
323.15	0.508	946.33	2.16
323.15	0.596	941.25	2.16
323.15	0.699	935.64	2.16
323.15	0.788	931	2.16
323.15	0.902	927.2	2.16
323.15	0.949	925.22	2.16
323.15	1	922.48	2.16

System: 2,2,4-trimethylpentane + 2-ethoxy-2-methylpropane; phases: Liquid
Fixed: Pressure, kPa = 101.3
Property: Mass density, kg/m3 (Liquid); method: VIBTUB:UFactor:8
Temperature, K	Mole fraction of 2-ethoxy-2-methylpropane	Mass density, kg/m3	uncertainty
288.15	0	695.948	1.224
288.15	0.047	697.781	1.219
288.15	0.1	699.904	1.212
288.15	0.204	704.01	1.2
288.15	0.305	708.284	1.187
288.15	0.4	712.599	1.174
288.15	0.508	717.689	1.158
288.15	0.596	722.093	1.145
288.15	0.699	727.55	1.129
288.15	0.788	732.615	1.113
288.15	0.902	739.579	1.092
288.15	0.949	742.53	1.083
288.15	1	745.656	1.072
298.15	0	687.749	1.249
298.15	0.047	689.477	1.244
298.15	0.1	691.5	1.238
298.15	0.204	695.429	1.226
298.15	0.305	699.51	1.214
298.15	0.4	703.649	1.201
298.15	0.508	708.525	1.186
298.15	0.596	712.737	1.174
298.15	0.699	717.974	1.158
298.15	0.788	722.843	1.143
298.15	0.902	729.56	1.123
298.15	0.949	732.405	1.114
298.15	1	735.357	1.104
323.15	0	666.832	1.313
323.15	0.047	668.28	1.309
323.15	0.1	670.054	1.304
323.15	0.204	673.45	1.293
323.15	0.305	677.1	1.282
323.15	0.4	680.717	1.271
323.15	0.508	685.059	1.258
323.15	0.596	688.798	1.247
323.15	0.699	693.436	1.233
323.15	0.788	697.73	1.22
323.15	0.902	703.808	1.201
323.15	0.949	706.371	1.194
323.15	1	709.007	1.184

System: 2-methylpropan-2-ol + 2-ethoxy-2-methylpropane; phases: Liquid
Fixed: Pressure, kPa = 101.3
Property: Speed of sound, m/s (Liquid); method: Sing-around technique in a fixed-path interferometer
Temperature, K	Mole fraction of 2-ethoxy-2-methylpropane	Speed of sound, m/s	uncertainty
303.15	0	1098.21	2.17
303.15	0.06	1085.94	2.18
303.15	0.093	1079.45	2.18
303.15	0.2	1062.93	2.17
303.15	0.298	1050.68	2.17
303.15	0.386	1041.52	2.17
303.15	0.488	1033.46	2.16
303.15	0.632	1024.69	2.16
303.15	0.685	1022.1	2.16
303.15	0.796	1017.92	2.17
303.15	0.896	1014.88	2.17
303.15	0.949	1013.38	2.17
303.15	1	1010.23	2.17
313.15	0	1055.36	2.17
313.15	0.06	1043.37	2.17
313.15	0.093	1037.42	2.17
313.15	0.2	1021.86	2.17
313.15	0.298	1010.1	2.16
313.15	0.386	1000.27	2.16
313.15	0.488	992.26	2.16
313.15	0.632	982.68	2.16
313.15	0.685	979.93	2.16
313.15	0.796	975.09	2.16
313.15	0.896	971.48	2.16
313.15	0.949	969.31	2.16
313.15	1	965.87	2.16
323.15	0	1013.01	2.16
323.15	0.06	1001.65	2.17
323.15	0.093	996.19	2.16
323.15	0.2	980.83	2.16
323.15	0.298	969.12	2.16
323.15	0.386	959.27	2.16
323.15	0.488	950.9	2.16
323.15	0.632	940.83	2.16
323.15	0.685	937.72	2.16
323.15	0.796	932.37	2.16
323.15	0.896	928.25	2.16
323.15	0.949	925.71	2.16
323.15	1	922.08	2.16

System: 2-methylpropan-2-ol + 2-ethoxy-2-methylpropane; phases: Liquid
Fixed: Pressure, kPa = 101.3
Property: Mass density, kg/m3 (Liquid); method: VIBTUB:UFactor:8
Temperature, K	Mole fraction of 2-ethoxy-2-methylpropane	Mass density, kg/m3	uncertainty
303.15	0	775.028	0.982
303.15	0.06	770.981	0.997
303.15	0.093	768.859	1.003
303.15	0.2	762.345	1.023
303.15	0.298	757.005	1.039
303.15	0.386	752.738	1.052
303.15	0.488	748.226	1.065
303.15	0.632	742.556	1.082
303.15	0.685	740.622	1.088
303.15	0.796	736.85	1.1
303.15	0.896	733.592	1.109
303.15	0.949	731.862	1.115
303.15	1	730.186	1.119
313.15	0	764.554	1.015
313.15	0.06	760.486	1.029
313.15	0.093	758.385	1.035
313.15	0.2	751.936	1.055
313.15	0.298	746.63	1.071
313.15	0.386	742.309	1.083
313.15	0.488	737.777	1.097
313.15	0.632	732.028	1.115
313.15	0.685	730.077	1.12
313.15	0.796	726.255	1.132
313.15	0.896	722.99	1.142
313.15	0.949	721.29	1.147
313.15	1	719.687	1.152
323.15	0	753.679	1.048
323.15	0.06	749.635	1.062
323.15	0.093	747.565	1.068
323.15	0.2	741.141	1.088
323.15	0.298	735.846	1.104
323.15	0.386	731.52	1.117
323.15	0.488	726.96	1.13
323.15	0.632	721.169	1.148
323.15	0.685	719.198	1.154
323.15	0.796	715.369	1.165
323.15	0.896	712.15	1.175
323.15	0.949	710.507	1.18
323.15	1	708.996	1.184

System: ethanol + 2-ethoxy-2-methylpropane; phases: Liquid
Fixed: Pressure, kPa = 101.3
Property: Speed of sound, m/s (Liquid); method: Sing-around technique in a fixed-path interferometer
Temperature, K	Mole fraction of 2-ethoxy-2-methylpropane	Speed of sound, m/s	uncertainty
288.15	0	1177.3	2.16
288.15	0.049	1171.37	2.17
288.15	0.097	1165.75	2.17
288.15	0.198	1150.86	2.17
288.15	0.303	1137.38	2.17
288.15	0.395	1127.39	2.17
288.15	0.504	1116.63	2.17
288.15	0.606	1108.37	2.17
288.15	0.691	1101.37	2.17
288.15	0.802	1093.99	2.17
288.15	0.895	1087.79	2.18
288.15	0.935	1084.85	2.18
288.15	1	1078.87	2.18
298.15	0	1142.4	2.16
298.15	0.049	1135.56	2.16
298.15	0.097	1128.87	2.17
298.15	0.198	1112.51	2.17
298.15	0.303	1097.49	2.17
298.15	0.395	1086.4	2.17
298.15	0.504	1074.59	2.17
298.15	0.606	1065.45	2.17
298.15	0.691	1057.95	2.17
298.15	0.802	1049.79	2.17
298.15	0.895	1043	2.17
298.15	0.935	1039.8	2.17
298.15	1	1033.23	2.17
323.15	0	1059.32	2.15
323.15	0.049	1048.59	2.16
323.15	0.097	1038.12	2.16
323.15	0.198	1018.32	2.16
323.15	0.303	999.82	2.16
323.15	0.395	986.27	2.16
323.15	0.504	971.7	2.16
323.15	0.606	959.88	2.16
323.15	0.691	950.98	2.16
323.15	0.802	941.56	2.16
323.15	0.895	933.37	2.16
323.15	0.935	929.43	2.16
323.15	1	922.48	2.16

System: ethanol + 2-ethoxy-2-methylpropane; phases: Liquid
Fixed: Pressure, kPa = 101.3
Property: Mass density, kg/m3 (Liquid); method: VIBTUB:UFactor:8
Temperature, K	Mole fraction of 2-ethoxy-2-methylpropane	Mass density, kg/m3	uncertainty
288.15	0	793.644	0.925
288.15	0.049	790.26	0.938
288.15	0.097	786.997	0.948
288.15	0.198	780.646	0.967
288.15	0.303	774.648	0.985
288.15	0.395	770.061	0.999
288.15	0.504	765.017	1.014
288.15	0.606	760.667	1.027
288.15	0.691	757.429	1.037
288.15	0.802	753.45	1.049
288.15	0.895	749.87	1.06
288.15	0.935	748.296	1.065
288.15	1	745.656	1.072
298.15	0	785.082	0.951
298.15	0.049	781.555	0.965
298.15	0.097	778.154	0.975
298.15	0.198	771.547	0.995
298.15	0.303	765.324	1.013
298.15	0.395	760.556	1.028
298.15	0.504	755.325	1.044
298.15	0.606	750.815	1.057
298.15	0.691	747.458	1.067
298.15	0.802	743.339	1.08
298.15	0.895	739.659	1.091
298.15	0.935	738.056	1.096
298.15	1	735.357	1.104
323.15	0	763.177	1.018
323.15	0.049	759.223	1.034
323.15	0.097	755.418	1.045
323.15	0.198	748.104	1.067
323.15	0.303	741.204	1.087
323.15	0.395	735.962	1.103
323.15	0.504	730.194	1.121
323.15	0.606	725.266	1.135
323.15	0.691	721.666	1.146
323.15	0.802	717.148	1.16
323.15	0.895	713.326	1.172
323.15	0.935	711.669	1.177
323.15	1	709.007	1.184
