Measured thermophysical data. A thermodynamic study on solubility and liquid-liquid phase behaviour for 2,2,2-trifluoroethanol + cyclohexane + 1-butanol at three temperatures and pressure 101.3 kPa
Source: J. Chem. Thermodyn., 2010, 10.1016/j.jct.2010.05.010
Compound 1: cyclohexane, C6H12, InChI=1S/C6H12/c1-2-4-6-5-3-1/h1-6H2
Compound 2: butan-1-ol, C4H10O, InChI=1S/C4H10O/c1-2-3-4-5/h5H,2-4H2,1H3
Compound 3: 2,2,2-trifluoroethanol, C2H3F3O, InChI=1S/C2H3F3O/c3-2(4,5)1-6/h6H,1H2

System: butan-1-ol + 2,2,2-trifluoroethanol + cyclohexane; phases: Liquid mixture 1, Liquid mixture 2
Fixed: Pressure, kPa = 100
Property: Mole fraction of butan-1-ol (Liquid mixture 1); method: Chromatography
Property: Mole fraction of butan-1-ol (Liquid mixture 2); method: Chromatography
Property: Mole fraction of cyclohexane (Liquid mixture 2); method: Chromatography
Temperature, K	Mole fraction of cyclohexane	Mole fraction of butan-1-ol	uncertainty	Mole fraction of butan-1-ol	uncertainty	Mole fraction of cyclohexane	uncertainty
288.15	0.602	0.221	0.007	0.292	0.006	0.252	
288.15	0.674	0.174	0.007	0.27	0.007	0.193	
288.15	0.717	0.146	0.008	0.258	0.008	0.167	
288.15	0.765	0.102	0.008	0.225	0.009	0.143	
288.15	0.818	0.066	0.007	0.192	0.008	0.104	
288.15	0.856	0.042	0.007	0.166	0.012	0.074	
288.15	0.873	0.024	0.009	0.102	0.021	0.055	
288.15	0.415	0.297	0.007	0.297	0.006	0.415	
298.15	0.65	0.151	0.007	0.251	0.006	0.328	
298.15	0.693	0.122	0.008	0.239	0.006	0.267	
298.15	0.727	0.095	0.007	0.22	0.008	0.227	
298.15	0.773	0.064	0.007	0.182	0.007	0.179	
298.15	0.812	0.041	0.007	0.156	0.006	0.122	
298.15	0.832	0.026	0.008	0.13	0.013	0.11	
298.15	0.847	0.014	0.008	0.064	0.019	0.088	
298.15	0.534	0.205	0.007	0.205	0.006	0.534	
308.15	0.642	0.106	0.006	0.185	0.007	0.226	
308.15	0.701	0.085	0.007	0.169	0.007	0.185	
308.15	0.752	0.051	0.007	0.141	0.016	0.158	
308.15	0.775	0.037	0.007	0.119	0.017	0.158	
308.15	0.796	0.025	0.007	0.099	0.016	0.152	
308.15	0.812	0.015	0.007	0.081	0.017	0.153	
308.15	0.819	0.009	0.008	0.051	0.025	0.14	
308.15	0.431	0.183	0.007	0.183	0.006	0.431	

System: butan-1-ol + 2,2,2-trifluoroethanol + cyclohexane; phases: Liquid mixture 1, Liquid mixture 2
Fixed: Pressure, kPa = 100
Property: Mole fraction of butan-1-ol (Liquid mixture 1); method: Titration method
Temperature, K	Mole fraction of cyclohexane	Mole fraction of butan-1-ol	uncertainty
288.15	0.055	0.085	0.003
288.15	0.065	0.115	0.004
288.15	0.073	0.145	0.005
288.15	0.09	0.185	0.006
288.15	0.112	0.222	0.007
288.15	0.152	0.252	0.008
288.15	0.213	0.287	0.009
288.15	0.254	0.294	0.009
288.15	0.276	0.303	0.009
288.15	0.352	0.302	0.009
288.15	0.424	0.295	0.009
288.15	0.492	0.274	0.009
288.15	0.536	0.254	0.008
288.15	0.6	0.223	0.007
288.15	0.643	0.203	0.006
288.15	0.697	0.162	0.005
288.15	0.722	0.145	0.005
288.15	0.784	0.102	0.003
298.15	0.091	0.07	0.003
298.15	0.098	0.098	0.004
298.15	0.103	0.114	0.004
298.15	0.125	0.159	0.005
298.15	0.162	0.188	0.006
298.15	0.2	0.219	0.007
298.15	0.253	0.238	0.007
298.15	0.272	0.246	0.008
298.15	0.303	0.249	0.008
298.15	0.356	0.254	0.008
298.15	0.396	0.252	0.008
298.15	0.462	0.241	0.007
298.15	0.492	0.224	0.007
298.15	0.562	0.2	0.006
298.15	0.6	0.18	0.006
298.15	0.634	0.16	0.005
298.15	0.662	0.142	0.004
298.15	0.679	0.125	0.004
308.15	0.145	0.102	0.003
308.15	0.158	0.127	0.004
308.15	0.165	0.147	0.005
308.15	0.181	0.165	0.005
308.15	0.208	0.18	0.006
308.15	0.253	0.193	0.006
308.15	0.293	0.195	0.006
308.15	0.325	0.195	0.006
308.15	0.356	0.195	0.006
308.15	0.386	0.192	0.006
308.15	0.42	0.189	0.006
308.15	0.452	0.18	0.006
308.15	0.493	0.171	0.005
308.15	0.523	0.161	0.005
308.15	0.552	0.149	0.005
308.15	0.586	0.139	0.004
308.15	0.636	0.116	0.004
308.15	0.692	0.084	0.003
