Measured thermophysical data. Measurement and correlation of solubility of thiourea in two solvent mixtures from T = (283.15 to 313.15) K
Source: J. Chem. Thermodyn., 2016, 10.1016/j.jct.2015.11.004
Compound 1: thiourea, CH4N2S, InChI=1S/CH4N2S/c2-1(3)4/h(H4,2,3,4)
Compound 2: methanol, CH4O, InChI=1S/CH4O/c1-2/h2H,1H3, purity 99.5%
Compound 3: ethanol, C2H6O, InChI=1S/C2H6O/c1-2-3/h3H,2H2,1H3, purity 99.7%
Compound 4: propan-1-ol, C3H8O, InChI=1S/C3H8O/c1-2-3-4/h4H,2-3H2,1H3, purity 99.8%

System: thiourea; phases: Crystal, Liquid, Air at 1 atmosphere
Property: Normal melting temperature, K (Crystal); method: DTA
Normal melting temperature, K	uncertainty
450.16	1.06

System: thiourea; phases: Crystal, Liquid, Air at 1 atmosphere
Property: Molar enthalpy of transition or fusion, kJ/mol (Crystal); method: DSC
Molar enthalpy of transition or fusion, kJ/mol	uncertainty
15.17	0.7

System: thiourea + ethanol + methanol; phases: Liquid, Crystal
Fixed: Pressure, kPa = 100
Property: Mole fraction of thiourea (Liquid); method: Gravimetric
Solvent: Mole fraction of methanol	Temperature, K	Mole fraction of thiourea	uncertainty
0.1	283.15	0.01971	0.00197
0.1	288.15	0.02216	0.00222
0.1	293.15	0.02405	0.00241
0.1	298.15	0.02631	0.00263
0.1	303.15	0.02886	0.00289
0.1	308.15	0.03301	0.00331
0.1	313.15	0.03635	0.00364
0.2	283.15	0.02088	0.00209
0.2	288.15	0.02282	0.0023
0.2	293.15	0.0252	0.00253
0.2	298.15	0.02802	0.00282
0.2	303.15	0.03126	0.00315
0.2	308.15	0.03493	0.00352
0.2	313.15	0.03844	0.00394
0.3	283.15	0.02255	0.0024
0.3	288.15	0.02519	0.00256
0.3	293.15	0.02733	0.00277
0.3	298.15	0.02955	0.00302
0.3	303.15	0.0332	0.00339
0.3	308.15	0.03806	0.00386
0.3	313.15	0.04141	0.00416
0.4	283.15	0.0243	0.00247
0.4	288.15	0.02668	0.00273
0.4	293.15	0.02908	0.00301
0.4	298.15	0.03297	0.00344
0.4	303.15	0.03684	0.00383
0.4	308.15	0.03995	0.0041
0.4	313.15	0.04375	0.00453
0.5	283.15	0.0268	0.00284
0.5	288.15	0.02882	0.00304
0.5	293.15	0.03214	0.00343
0.5	298.15	0.03559	0.00375
0.5	303.15	0.03964	0.00415
0.5	308.15	0.04383	0.00463
0.5	313.15	0.04757	0.00498
0.6	283.15	0.02906	0.00311
0.6	288.15	0.03154	0.00347
0.6	293.15	0.0351	0.00377
0.6	298.15	0.03883	0.00413
0.6	303.15	0.04298	0.00454
0.6	308.15	0.04738	0.00505
0.6	313.15	0.05101	0.00547
0.7	283.15	0.03136	0.00337
0.7	288.15	0.0348	0.00391
0.7	293.15	0.03791	0.00425
0.7	298.15	0.04147	0.00454
0.7	303.15	0.04577	0.00497
0.7	308.15	0.05105	0.00555
0.7	313.15	0.05574	0.00608
0.8	283.15	0.03414	0.00421
0.8	288.15	0.03789	0.00455
0.8	293.15	0.04196	0.00504
0.8	298.15	0.04541	0.00542
0.8	303.15	0.04992	0.00618
0.8	308.15	0.05518	0.00646
0.8	313.15	0.05865	0.00681
0.9	283.15	0.03884	0.00483
0.9	288.15	0.04267	0.00517
0.9	293.15	0.04664	0.00552
0.9	298.15	0.05072	0.00594
0.9	303.15	0.05716	0.00697
0.9	308.15	0.06151	0.00709
0.9	313.15	0.06682	0.00877
1	283.15	0.0421	0.00421
1	288.15	0.04598	0.0046
1	293.15	0.05014	0.00502
1	298.15	0.05398	0.0054
1	303.15	0.06101	0.0061
1	308.15	0.06499	0.0065
1	313.15	0.07441	0.00745
0	283.15	0.01851	0.00185
0	288.15	0.02059	0.00206
0	293.15	0.02221	0.00222
0	298.15	0.02498	0.0025
0	303.15	0.02701	0.0027
0	308.15	0.03149	0.00315
0	313.15	0.03481	0.00348

System: thiourea + methanol + propan-1-ol; phases: Liquid, Crystal
Fixed: Pressure, kPa = 100
Property: Mole fraction of thiourea (Liquid); method: Gravimetric
Solvent: Mole fraction of methanol	Temperature, K	Mole fraction of thiourea	uncertainty
0.1	283.15	0.01323	0.00133
0.1	288.15	0.01436	0.00144
0.1	293.15	0.01636	0.00164
0.1	298.15	0.01824	0.00183
0.1	303.15	0.02051	0.00206
0.1	308.15	0.02325	0.00233
0.1	313.15	0.02605	0.00261
0.2	283.15	0.01451	0.00145
0.2	288.15	0.01605	0.00163
0.2	293.15	0.01773	0.00179
0.2	298.15	0.01976	0.002
0.2	303.15	0.02185	0.00221
0.2	308.15	0.02499	0.00252
0.2	313.15	0.0285	0.00301
0.3	283.15	0.01587	0.00166
0.3	288.15	0.01792	0.00185
0.3	293.15	0.01944	0.00198
0.3	298.15	0.022	0.00227
0.3	303.15	0.02425	0.00251
0.3	308.15	0.02725	0.00281
0.3	313.15	0.0307	0.00308
0.4	283.15	0.01787	0.00191
0.4	288.15	0.01987	0.00213
0.4	293.15	0.02101	0.00228
0.4	298.15	0.02451	0.00262
0.4	303.15	0.02708	0.00297
0.4	308.15	0.03082	0.00337
0.4	313.15	0.03348	0.00396
0.5	283.15	0.02086	0.00232
0.5	288.15	0.02273	0.00252
0.5	293.15	0.02504	0.00288
0.5	298.15	0.02775	0.00304
0.5	303.15	0.03179	0.0035
0.5	308.15	0.03581	0.00389
0.5	313.15	0.03937	0.00433
0.6	283.15	0.02291	0.00262
0.6	288.15	0.02528	0.00294
0.6	293.15	0.02811	0.00321
0.6	298.15	0.03074	0.00354
0.6	303.15	0.03437	0.00371
0.6	308.15	0.03841	0.00422
0.6	313.15	0.04245	0.00467
0.7	283.15	0.02618	0.00329
0.7	288.15	0.02898	0.00366
0.7	293.15	0.03153	0.00391
0.7	298.15	0.03505	0.00431
0.7	303.15	0.03758	0.00455
0.7	308.15	0.04309	0.00527
0.7	313.15	0.04744	0.0056
0.8	283.15	0.02991	0.00453
0.8	288.15	0.03324	0.00473
0.8	293.15	0.03635	0.00525
0.8	298.15	0.03968	0.00552
0.8	303.15	0.04353	0.00644
0.8	308.15	0.04922	0.00684
0.8	313.15	0.05378	0.00757
0.9	283.15	0.03593	0.00567
0.9	288.15	0.03947	0.00605
0.9	293.15	0.04336	0.00659
0.9	298.15	0.04702	0.00697
0.9	303.15	0.05239	0.00819
0.9	308.15	0.05792	0.00811
0.9	313.15	0.06261	0.00972
1	283.15	0.0421	0.00421
1	288.15	0.04598	0.0046
1	293.15	0.05014	0.00502
1	298.15	0.05398	0.0054
1	303.15	0.06101	0.0061
1	308.15	0.06499	0.0065
1	313.15	0.07441	0.00745
0	283.15	0.0116	0.00116
0	288.15	0.01309	0.00131
0	293.15	0.01451	0.00145
0	298.15	0.01589	0.00159
0	303.15	0.0182	0.00182
0	308.15	0.0208	0.00208
0	313.15	0.02399	0.0024

System: thiourea + methanol; phases: Liquid, Crystal
Fixed: Pressure, kPa = 100
Property: Mole fraction of thiourea (Liquid); method: Gravimetric
Temperature, K	Mole fraction of thiourea	uncertainty
283.15	0.0421	0.00421
288.15	0.04598	0.0046
293.15	0.05014	0.00502
298.15	0.05398	0.0054
303.15	0.06101	0.0061
308.15	0.06499	0.0065
313.15	0.07441	0.00745

System: thiourea + ethanol; phases: Liquid, Crystal
Fixed: Pressure, kPa = 100
Property: Mole fraction of thiourea (Liquid); method: Gravimetric
Temperature, K	Mole fraction of thiourea	uncertainty
283.15	0.01851	0.00185
288.15	0.02059	0.00206
293.15	0.02221	0.00222
298.15	0.02498	0.0025
303.15	0.02701	0.0027
308.15	0.03149	0.00315
313.15	0.03481	0.00348

System: thiourea + propan-1-ol; phases: Liquid, Crystal
Fixed: Pressure, kPa = 100
Property: Mole fraction of thiourea (Liquid); method: Gravimetric
Temperature, K	Mole fraction of thiourea	uncertainty
283.15	0.0116	0.00116
288.15	0.01309	0.00131
293.15	0.01451	0.00145
298.15	0.01589	0.00159
303.15	0.0182	0.00182
308.15	0.0208	0.00208
313.15	0.02399	0.0024
