Measured thermophysical data. A study of densities and volumetric properties of binary mixtures containing nitrobenzene at T = (293.15 to 353.15) K
Source: J. Chem. Thermodyn., 2005, 10.1016/j.jct.2004.12.008
Compound 1: nitrobenzene, C6H5NO2, InChI=1S/C6H5NO2/c8-7(9)6-4-2-1-3-5-6/h1-5H, purity 99.8%
Compound 2: benzene, C6H6, InChI=1S/C6H6/c1-2-4-6-5-3-1/h1-6H, purity 99.7%
Compound 3: toluene, C7H8, InChI=1S/C7H8/c1-7-5-3-2-4-6-7/h2-6H,1H3, purity 98%
Compound 4: ethylbenzene, C8H10, InChI=1S/C8H10/c1-2-8-6-4-3-5-7-8/h3-7H,2H2,1H3, purity 99%
Compound 5: styrene, C8H8, InChI=1S/C8H8/c1-2-8-6-4-3-5-7-8/h2-7H,1H2
Compound 6: 1,2-dimethylbenzene, C8H10, InChI=1S/C8H10/c1-7-5-3-4-6-8(7)2/h3-6H,1-2H3, purity 99.7%
Compound 7: 1,3-dimethylbenzene, C8H10, InChI=1S/C8H10/c1-7-4-3-5-8(2)6-7/h3-6H,1-2H3, purity 98%
Compound 8: 1,4-dimethylbenzene, C8H10, InChI=1S/C8H10/c1-7-3-5-8(2)6-4-7/h3-6H,1-2H3, purity 99%

System: nitrobenzene; phases: Liquid
Property: Refractive index (Na D-line) (Liquid); method: Standard Abbe refractometry
Temperature, K	Pressure, kPa	Refractive index (Na D-line)	uncertainty
293.15	101.325	1.55488	0.00072

System: nitrobenzene; phases: Liquid
Fixed: Pressure, kPa = 101
Property: Mass density, kg/m3 (Liquid); method: VIBTUB:UFactor:16
Temperature, K	Mass density, kg/m3	uncertainty
293.15	1202.95	2.29
303.15	1193.56	2.22
313.15	1183.37	2.14
323.15	1172.38	2.05
333.15	1160.59	1.95
343.15	1148	1.85
353.15	1134.61	1.75

System: benzene; phases: Liquid
Property: Refractive index (Na D-line) (Liquid); method: Standard Abbe refractometry
Temperature, K	Pressure, kPa	Refractive index (Na D-line)	uncertainty
293.15	101.325	1.5009	0.0007

System: benzene; phases: Liquid
Fixed: Pressure, kPa = 101
Property: Mass density, kg/m3 (Liquid); method: VIBTUB::UFactor:16
Temperature, K	Mass density, kg/m3	uncertainty
293.15	877.8	1.65
303.15	867.99	1.72
313.15	857.87	1.81
323.15	847.4	1.89
333.15	836.59	1.98
343.15	825.42	2.07

System: toluene; phases: Liquid
Property: Refractive index (Na D-line) (Liquid); method: Standard Abbe refractometry
Temperature, K	Pressure, kPa	Refractive index (Na D-line)	uncertainty
293.15	101.325	1.4965	0.0008

System: toluene; phases: Liquid
Fixed: Pressure, kPa = 101
Property: Mass density, kg/m3 (Liquid); method: VIBTUB::UFactor:16
Temperature, K	Mass density, kg/m3	uncertainty
293.15	866.75	2.5
303.15	857.53	2.56
313.15	848.25	2.62
323.15	838.9	2.68
333.15	829.5	2.74
343.15	820.03	2.8
353.15	810.5	2.86

System: ethylbenzene; phases: Liquid
Property: Refractive index (Na D-line) (Liquid); method: Standard Abbe refractometry
Temperature, K	Pressure, kPa	Refractive index (Na D-line)	uncertainty
293.15	101.325	1.4962	0.0008

System: ethylbenzene; phases: Liquid
Fixed: Pressure, kPa = 101
Property: Mass density, kg/m3 (Liquid); method: VIBTUB:UFactor:128
Temperature, K	Mass density, kg/m3	uncertainty
293.15	867.82	13.86
303.15	858.6	14.45
313.15	851.85	14.88
323.15	847.58	15.16
333.15	845.79	15.28
343.15	846.48	15.24
353.15	849.64	15.05

System: styrene; phases: Liquid
Property: Refractive index (Na D-line) (Liquid); method: Standard Abbe refractometry
Temperature, K	Pressure, kPa	Refractive index (Na D-line)	uncertainty
293.15	101.325	1.546	0.0007

System: styrene; phases: Liquid
Fixed: Pressure, kPa = 101
Property: Mass density, kg/m3 (Liquid); method: VIBTUB::UFactor:16
Temperature, K	Mass density, kg/m3	uncertainty
293.15	906	1.4
303.15	896.44	1.48
313.15	886.88	1.56
323.15	877.32	1.63
333.15	867.76	1.71
343.15	858.2	1.79
353.15	848.64	1.87

System: 1,2-dimethylbenzene; phases: Liquid
Property: Refractive index (Na D-line) (Liquid); method: Standard Abbe refractometry
Temperature, K	Pressure, kPa	Refractive index (Na D-line)	uncertainty
293.15	101.325	1.50573	0.00072

System: 1,2-dimethylbenzene; phases: Liquid
Fixed: Pressure, kPa = 101
Property: Mass density, kg/m3 (Liquid); method: VIBTUB::UFactor:16
Temperature, K	Mass density, kg/m3	uncertainty
293.15	878.6	1.64
303.15	872.25	1.69
313.15	859.67	1.79
323.15	840.84	1.95
333.15	815.74	2.15
343.15	784.38	2.4
353.15	746.76	2.71

System: 1,3-dimethylbenzene; phases: Liquid
Property: Refractive index (Na D-line) (Liquid); method: Standard Abbe refractometry
Temperature, K	Pressure, kPa	Refractive index (Na D-line)	uncertainty
293.15	101.325	1.49735	0.00082

System: 1,3-dimethylbenzene; phases: Liquid
Fixed: Pressure, kPa = 101
Property: Mass density, kg/m3 (Liquid); method: VIBTUB::UFactor:16
Temperature, K	Mass density, kg/m3	uncertainty
293.15	864.2	2.52
303.15	855.76	2.57
313.15	847.11	2.62
323.15	838.27	2.68
333.15	829.22	2.74
343.15	819.97	2.8
353.15	810.51	2.86

System: 1,4-dimethylbenzene; phases: Liquid
Property: Refractive index (Na D-line) (Liquid); method: Standard Abbe refractometry
Temperature, K	Pressure, kPa	Refractive index (Na D-line)	uncertainty
293.15	101.325	1.49577	0.00075

System: 1,4-dimethylbenzene; phases: Liquid
Fixed: Pressure, kPa = 101
Property: Mass density, kg/m3 (Liquid); method: VIBTUB::UFactor:16
Temperature, K	Mass density, kg/m3	uncertainty
293.15	861	1.95
303.15	852.28	2.02
313.15	843.58	2.09
323.15	834.92	2.15
333.15	826.27	2.22
343.15	817.66	2.29
353.15	809.07	2.35

System: benzene + nitrobenzene; phases: Liquid
Fixed: Pressure, kPa = 101
Property: Mass density, kg/m3 (Liquid); method: VIBTUB:UFactor:16
Temperature, K	Mole fraction of benzene	Mass density, kg/m3	uncertainty
293.15	0	1202.95	2.29
293.15	0.0532	1187.99	2.17
293.15	0.1189	1169.24	2.02
293.15	0.1842	1150.3	1.87
293.15	0.2479	1131.5	1.72
293.15	0.3012	1115.52	1.59
293.15	0.3581	1098.17	1.45
293.15	0.425	1077.37	1.29
293.15	0.4891	1057.04	1.13
293.15	0.5311	1043.49	1.02
293.15	0.6023	1020.07	0.83
293.15	0.6521	1003.34	0.7
293.15	0.7198	980.14	0.83
293.15	0.7811	958.64	1
293.15	0.8534	932.66	1.2
293.15	0.9212	907.66	1.4
293.15	1	877.8	1.65
303.15	0	1193.56	2.22
303.15	0.0612	1176.18	2.08
303.15	0.1384	1153.92	1.9
303.15	0.1732	1143.76	1.82
303.15	0.2543	1119.7	1.63
303.15	0.3132	1101.89	1.48
303.15	0.3821	1080.7	1.31
303.15	0.4422	1061.84	1.17
303.15	0.4922	1045.9	1.04
303.15	0.5543	1025.75	0.88
303.15	0.6123	1006.56	0.72
303.15	0.6831	982.62	0.81
303.15	0.7534	958.28	1
303.15	0.8113	937.78	1.16
303.15	0.8713	916.1	1.34
303.15	0.9378	891.52	1.53
303.15	1	867.99	1.72
313.15	0	1183.37	2.14
313.15	0.0522	1168.46	2.02
313.15	0.1234	1147.88	1.85
313.15	0.1923	1127.63	1.69
313.15	0.2612	1107.04	1.52
313.15	0.3122	1091.57	1.4
313.15	0.3723	1073.06	1.25
313.15	0.4234	1057.08	1.13
313.15	0.4865	1037.03	0.97
313.15	0.5382	1020.3	0.84
313.15	0.6032	998.9	0.68
313.15	0.6632	978.75	0.84
313.15	0.7219	958.66	1
313.15	0.7932	933.72	1.2
313.15	0.8428	916.03	1.34
313.15	0.9247	886.12	1.58
313.15	1	857.87	1.81
323.15	0	1172.38	2.05
323.15	0.0479	1158.64	1.94
323.15	0.1387	1132.24	1.72
323.15	0.1842	1118.82	1.62
323.15	0.2487	1099.55	1.46
323.15	0.3286	1075.26	1.27
323.15	0.392	1055.64	1.11
323.15	0.435	1042.13	1.01
323.15	0.5023	1020.68	0.84
323.15	0.543	1007.49	0.73
323.15	0.592	991.42	0.74
323.15	0.6633	967.59	0.93
323.15	0.7328	943.85	1.12
323.15	0.7931	922.82	1.28
323.15	0.8538	901.23	1.46
323.15	0.9423	868.96	1.72
323.15	1	847.4	1.89
333.15	0	1160.59	1.95
333.15	0.0501	1146.17	1.84
333.15	0.1421	1119.35	1.62
333.15	0.1924	1104.47	1.5
333.15	0.2517	1086.72	1.36
333.15	0.3184	1066.47	1.2
333.15	0.3618	1053.11	1.09
333.15	0.4248	1033.47	0.94
333.15	0.4921	1012.12	0.77
333.15	0.5524	992.65	0.73
333.15	0.6013	976.62	0.86
333.15	0.664	955.73	1.02
333.15	0.723	935.71	1.18
333.15	0.7813	915.56	1.34
333.15	0.8342	896.97	1.49
333.15	0.9234	864.89	1.75
333.15	1	836.59	1.98
343.15	0	1148	1.85
343.15	0.0632	1129.76	1.71
343.15	0.1567	1102.42	1.49
343.15	0.219	1083.91	1.34
343.15	0.2678	1069.26	1.22
343.15	0.3347	1048.9	1.06
343.15	0.3972	1029.6	0.91
343.15	0.4581	1010.51	0.76
343.15	0.5124	993.23	0.73
343.15	0.5639	976.61	0.86
343.15	0.6384	952.15	1.05
343.15	0.7038	930.24	1.23
343.15	0.7598	911.15	1.38
343.15	0.8234	889.07	1.56
343.15	0.8824	868.19	1.72
343.15	0.9423	846.61	1.9
343.15	1	825.42	2.07

System: nitrobenzene + toluene; phases: Liquid
Fixed: Pressure, kPa = 101
Property: Mass density, kg/m3 (Liquid); method: VIBTUB:UFactor:16
Temperature, K	Mole fraction of toluene	Mass density, kg/m3	uncertainty
293.15	0	1202.95	2.29
293.15	0.0629	1181.81	2.14
293.15	0.1476	1153.37	1.95
293.15	0.2138	1131.14	1.81
293.15	0.2787	1109.35	1.68
293.15	0.3587	1082.5	1.53
293.15	0.4142	1063.89	1.42
293.15	0.4831	1040.77	1.3
293.15	0.5232	1027.31	1.22
293.15	0.5771	1009.22	1.12
293.15	0.6321	990.75	1.17
293.15	0.6832	973.59	1.36
293.15	0.7234	960.08	1.5
293.15	0.8032	933.21	1.79
293.15	0.8562	915.34	1.98
293.15	0.9213	893.37	2.22
293.15	1	866.75	2.5
303.15	0	1193.56	2.22
303.15	0.0567	1174.37	2.08
303.15	0.1332	1148.52	1.91
303.15	0.185	1131.03	1.79
303.15	0.2304	1115.73	1.7
303.15	0.2798	1099.1	1.6
303.15	0.3674	1069.64	1.42
303.15	0.4026	1057.82	1.36
303.15	0.4656	1036.69	1.24
303.15	0.5072	1022.73	1.17
303.15	0.5782	998.94	1.05
303.15	0.6576	972.35	1.33
303.15	0.7235	950.27	1.57
303.15	0.7965	925.82	1.83
303.15	0.8643	903.09	2.08
303.15	0.9354	879.23	2.33
303.15	1	857.53	2.56
313.15	0	1183.37	2.14
313.15	0.0674	1160.46	1.97
313.15	0.1534	1131.33	1.78
313.15	0.1978	1116.33	1.68
313.15	0.2576	1096.15	1.55
313.15	0.3254	1073.34	1.42
313.15	0.3789	1055.38	1.32
313.15	0.4577	1028.98	1.17
313.15	0.5067	1012.59	1.08
313.15	0.5564	996	1.05
313.15	0.6134	976.98	1.25
313.15	0.674	956.78	1.46
313.15	0.7435	933.64	1.71
313.15	0.8134	910.37	1.96
313.15	0.865	893.2	2.14
313.15	0.9134	877.09	2.31
313.15	1	848.25	2.62
323.15	0	1172.38	2.05
323.15	0.0479	1156.07	1.93
323.15	0.1289	1128.59	1.74
323.15	0.1874	1108.81	1.61
323.15	0.2671	1081.99	1.44
323.15	0.3371	1058.51	1.3
323.15	0.3961	1038.77	1.19
323.15	0.4628	1016.54	1.07
323.15	0.5342	992.79	1.05
323.15	0.6056	969.11	1.3
323.15	0.6854	942.7	1.58
323.15	0.7245	929.78	1.71
323.15	0.8056	903.01	2
323.15	0.8543	886.94	2.17
323.15	0.8965	873.03	2.32
323.15	0.9423	857.93	2.48
323.15	1	838.9	2.68
333.15	0	1160.59	1.95
333.15	0.0575	1141.04	1.81
333.15	0.1435	1111.97	1.61
333.15	0.2345	1081.38	1.42
333.15	0.2978	1060.21	1.29
333.15	0.3534	1041.68	1.18
333.15	0.4213	1019.15	1.05
333.15	0.4896	996.55	0.98
333.15	0.5634	972.23	1.23
333.15	0.6233	952.54	1.44
333.15	0.6856	932.12	1.65
333.15	0.7435	913.17	1.85
333.15	0.7947	896.44	2.03
333.15	0.8634	874.02	2.27
333.15	0.9067	859.9	2.42
333.15	0.9424	848.26	2.54
333.15	1	829.5	2.74
343.15	0	1148	1.85
343.15	0.0523	1130.3	1.72
343.15	0.1389	1101.17	1.52
343.15	0.1924	1083.27	1.41
343.15	0.2684	1057.97	1.25
343.15	0.3289	1037.94	1.13
343.15	0.3889	1018.15	1.01
343.15	0.4521	997.4	0.94
343.15	0.5123	977.7	1.14
343.15	0.5931	951.38	1.41
343.15	0.6532	931.86	1.62
343.15	0.7234	909.14	1.86
343.15	0.7923	886.89	2.09
343.15	0.8534	867.19	2.3
343.15	0.8811	858.27	2.4
343.15	0.9421	838.64	2.6
343.15	1	820.03	2.8
353.15	0	1134.61	1.75
353.15	0.0442	1119.76	1.64
353.15	0.1247	1092.87	1.45
353.15	0.1842	1073.14	1.32
353.15	0.2479	1052.11	1.19
353.15	0.2943	1036.87	1.09
353.15	0.3479	1019.33	0.99
353.15	0.4109	998.83	0.89
353.15	0.4671	980.61	1.08
353.15	0.5239	962.27	1.27
353.15	0.5791	944.5	1.45
353.15	0.6321	927.5	1.63
353.15	0.7913	876.69	2.17
353.15	0.8423	860.48	2.34
353.15	0.8742	850.36	2.44
353.15	0.9311	832.32	2.63
353.15	1	810.5	2.86

System: nitrobenzene + ethylbenzene; phases: Liquid
Fixed: Pressure, kPa = 101
Property: Mass density, kg/m3 (Liquid); method: VIBTUB:UFactor:128
Temperature, K	Mole fraction of ethylbenzene	Mass density, kg/m3	uncertainty
293.15	0	1202.95	18.25
293.15	0.0478	1184.56	17.07
293.15	0.1275	1154.51	15.14
293.15	0.1842	1133.58	13.79
293.15	0.2576	1107.04	12.09
293.15	0.3238	1083.6	10.59
293.15	0.4023	1056.42	8.85
293.15	0.4578	1037.57	7.64
293.15	0.5139	1018.83	6.44
293.15	0.5813	996.7	5.45
293.15	0.6423	977.03	6.73
293.15	0.6931	960.9	7.78
293.15	0.7592	940.24	9.13
293.15	0.8343	917.18	10.64
293.15	0.8824	902.65	11.58
293.15	0.9587	879.94	13.07
293.15	1	867.82	13.86
303.15	0	1193.56	17.65
303.15	0.054	1172.67	16.3
303.15	0.1213	1147.16	14.66
303.15	0.1983	1118.67	12.83
303.15	0.2489	1100.34	11.66
303.15	0.3138	1077.25	10.17
303.15	0.3854	1052.32	8.58
303.15	0.4428	1032.74	7.32
303.15	0.5098	1010.3	5.88
303.15	0.5721	989.85	5.89
303.15	0.6219	973.76	6.93
303.15	0.6839	954.06	8.22
303.15	0.7429	935.62	9.42
303.15	0.8013	917.67	10.59
303.15	0.8632	898.94	11.82
303.15	0.9328	878.24	13.17
303.15	1	858.6	14.45
313.15	0	1183.37	16.99
313.15	0.0538	1162.71	15.66
313.15	0.1387	1130.89	13.61
313.15	0.1932	1110.93	12.33
313.15	0.2378	1094.87	11.3
313.15	0.2947	1074.72	10.01
313.15	0.3571	1053.04	8.62
313.15	0.4139	1033.68	7.38
313.15	0.4917	1007.73	5.71
313.15	0.5523	987.93	6
313.15	0.6139	968.18	7.29
313.15	0.6731	949.53	8.51
313.15	0.7248	933.5	9.55
313.15	0.7932	912.63	10.92
313.15	0.8536	894.54	12.1
313.15	0.9248	873.58	13.46
313.15	1	851.85	14.88
323.15	0	1172.38	16.28
323.15	0.0617	1149.22	14.79
323.15	0.1482	1117.58	12.75
323.15	0.2213	1091.54	11.08
323.15	0.2787	1071.53	9.8
323.15	0.3234	1056.2	8.81
323.15	0.3781	1037.74	7.63
323.15	0.4344	1019.07	6.43
323.15	0.4822	1003.47	5.44
323.15	0.5339	986.86	6.07
323.15	0.592	968.49	7.27
323.15	0.6739	943.12	8.92
323.15	0.7429	922.2	10.29
323.15	0.8137	901.15	11.66
323.15	0.8735	883.68	12.8
323.15	0.9572	859.66	14.37
323.15	1	847.58	15.16
333.15	0	1160.59	15.52
333.15	0.0439	1144.65	14.49
333.15	0.1249	1115.84	12.64
333.15	0.1892	1093.51	11.21
333.15	0.2599	1069.48	9.66
333.15	0.3389	1043.25	7.98
333.15	0.4042	1022.06	6.62
333.15	0.4672	1002.01	5.34
333.15	0.5243	984.15	6.25
333.15	0.5902	963.91	7.57
333.15	0.6645	941.54	9.03
333.15	0.7309	921.93	10.31
333.15	0.8021	901.28	11.65
333.15	0.8623	884.12	12.77
333.15	0.8932	875.4	13.34
333.15	0.9621	856.21	14.6
333.15	1	845.79	15.28
343.15	0	1148	14.71
343.15	0.0535	1129.57	13.53
343.15	0.1122	1109.7	12.25
343.15	0.1834	1086.08	10.73
343.15	0.2478	1065.16	9.39
343.15	0.3044	1047.11	8.23
343.15	0.3782	1024	6.75
343.15	0.4519	1001.42	5.31
343.15	0.513	983.04	6.32
343.15	0.5801	963.22	7.62
343.15	0.6529	942.11	8.99
343.15	0.7238	921.93	10.31
343.15	0.7932	902.5	11.58
343.15	0.852	886.31	12.64
343.15	0.8932	875.09	13.37
343.15	0.9423	861.85	14.24
343.15	1	846.48	15.24
353.15	0	1134.61	13.86
353.15	0.0723	1111.4	12.37
353.15	0.1298	1093.3	11.21
353.15	0.1984	1072.07	9.85
353.15	0.2584	1053.83	8.68
353.15	0.3133	1037.4	7.62
353.15	0.3891	1015.12	6.2
353.15	0.4501	997.51	5.39
353.15	0.524	976.53	6.76
353.15	0.5818	960.38	7.81
353.15	0.663	938.08	9.27
353.15	0.7483	915.1	10.77
353.15	0.7964	902.32	11.61
353.15	0.8423	890.26	12.4
353.15	0.8893	878.02	13.2
353.15	0.9529	861.65	14.27
353.15	1	849.64	15.05

System: nitrobenzene + styrene; phases: Liquid
Fixed: Pressure, kPa = 101
Property: Mass density, kg/m3 (Liquid); method: VIBTUB:UFactor:16
Temperature, K	Mole fraction of styrene	Mass density, kg/m3	uncertainty
293.15	0	1202.95	2.29
293.15	0.0536	1185.47	2.15
293.15	0.1324	1160.15	1.95
293.15	0.1909	1141.63	1.8
293.15	0.2564	1121.18	1.63
293.15	0.3257	1099.86	1.46
293.15	0.3986	1077.76	1.28
293.15	0.4576	1060.12	1.14
293.15	0.5243	1040.42	0.98
293.15	0.5888	1021.61	0.83
293.15	0.6424	1006.13	0.7
293.15	0.7156	985.23	0.77
293.15	0.7756	968.27	0.9
293.15	0.8324	952.34	1.03
293.15	0.8755	940.34	1.13
293.15	0.9424	921.83	1.27
293.15	1	906	1.4
303.15	0	1193.56	2.22
303.15	0.0621	1173.19	2.05
303.15	0.1248	1152.93	1.89
303.15	0.1822	1134.64	1.74
303.15	0.2429	1115.56	1.59
303.15	0.3139	1093.59	1.41
303.15	0.3571	1080.39	1.3
303.15	0.4249	1059.93	1.14
303.15	0.4819	1042.96	1
303.15	0.5487	1023.33	0.85
303.15	0.5901	1011.29	0.75
303.15	0.6528	993.23	0.71
303.15	0.7289	971.58	0.88
303.15	0.7913	954.03	1.02
303.15	0.8592	935.12	1.17
303.15	0.9368	913.72	1.34
303.15	1	896.44	1.48
313.15	0	1183.37	2.14
313.15	0.0492	1167.15	2
313.15	0.1189	1144.52	1.82
313.15	0.1898	1121.9	1.64
313.15	0.2563	1101.03	1.47
313.15	0.3398	1075.31	1.26
313.15	0.4018	1056.54	1.11
313.15	0.4621	1038.54	0.97
313.15	0.5243	1020.21	0.82
313.15	0.5811	1003.69	0.69
313.15	0.6421	986.16	0.76
313.15	0.7132	965.98	0.92
313.15	0.7723	949.39	1.06
313.15	0.8421	930.01	1.21
313.15	0.8942	915.68	1.33
313.15	0.9524	899.79	1.45
313.15	1	886.88	1.56
323.15	0	1172.38	2.05
323.15	0.0598	1152.7	1.89
323.15	0.1329	1129.06	1.7
323.15	0.1942	1109.58	1.54
323.15	0.2458	1093.41	1.41
323.15	0.3239	1069.35	1.21
323.15	0.3891	1049.61	1.06
323.15	0.4314	1036.97	0.96
323.15	0.5028	1015.92	0.79
323.15	0.5622	998.67	0.67
323.15	0.6321	978.64	0.83
323.15	0.6873	963.03	0.95
323.15	0.7419	947.74	1.07
323.15	0.8054	930.15	1.21
323.15	0.8823	909.1	1.38
323.15	0.9339	895.1	1.49
323.15	1	877.32	1.63
333.15	0	1160.59	1.95
333.15	0.0647	1139.39	1.78
333.15	0.1278	1119.07	1.62
333.15	0.1825	1101.73	1.47
333.15	0.2542	1079.38	1.29
333.15	0.3183	1059.76	1.14
333.15	0.3798	1041.24	0.99
333.15	0.4248	1027.86	0.88
333.15	0.4892	1008.97	0.74
333.15	0.5329	996.32	0.69
333.15	0.5892	980.2	0.82
333.15	0.6379	966.41	0.92
333.15	0.7132	945.37	1.09
333.15	0.7987	921.85	1.28
333.15	0.868	903.04	1.43
333.15	0.9468	881.9	1.6
333.15	1	867.76	1.71
343.15	0	1148	1.85
343.15	0.0687	1125.66	1.67
343.15	0.1139	1111.2	1.55
343.15	0.1842	1089.06	1.37
343.15	0.2389	1072.13	1.24
343.15	0.3234	1046.47	1.03
343.15	0.3894	1026.81	0.87
343.15	0.4346	1013.54	0.77
343.15	0.4903	997.4	0.69
343.15	0.5538	979.25	0.83
343.15	0.614	962.29	0.96
343.15	0.6622	948.88	1.06
343.15	0.7319	929.71	1.22
343.15	0.7922	913.35	1.35
343.15	0.8531	896.99	1.48
343.15	0.9234	878.32	1.63
343.15	1	858.2	1.79
353.15	0	1134.61	1.75
353.15	0.055	1116.88	1.6
353.15	0.1376	1090.79	1.39
353.15	0.1726	1079.91	1.3
353.15	0.2389	1059.6	1.14
353.15	0.302	1040.61	0.99
353.15	0.3791	1017.85	0.8
353.15	0.4349	1001.66	0.68
353.15	0.5139	979.13	0.83
353.15	0.5628	965.4	0.94
353.15	0.6249	948.19	1.07
353.15	0.6733	934.94	1.18
353.15	0.7234	921.37	1.29
353.15	0.7981	901.38	1.45
353.15	0.8621	884.47	1.58
353.15	0.9412	863.83	1.75
353.15	1	848.64	1.87

System: 1,2-dimethylbenzene + nitrobenzene; phases: Liquid
Fixed: Pressure, kPa = 101
Property: Mass density, kg/m3 (Liquid); method: VIBTUB:UFactor:16
Temperature, K	Mole fraction of 1,2-dimethylbenzene	Mass density, kg/m3	uncertainty
293.15	0	1202.95	2.29
293.15	0.0498	1184.47	2.15
293.15	0.1289	1155.75	1.91
293.15	0.1892	1134.33	1.74
293.15	0.2532	1112.04	1.56
293.15	0.3234	1088.07	1.37
293.15	0.3891	1066.07	1.2
293.15	0.4421	1048.61	1.06
293.15	0.4923	1032.31	0.93
293.15	0.5534	1012.76	0.77
293.15	0.6132	993.93	0.72
293.15	0.6734	975.26	0.86
293.15	0.7321	957.32	1.01
293.15	0.7931	938.95	1.15
293.15	0.8523	921.38	1.29
293.15	0.9323	898.02	1.48
293.15	1	878.6	1.64
303.15	0	1193.56	2.22
303.15	0.0535	1173.86	2.06
303.15	0.1123	1152.62	1.89
303.15	0.1782	1129.29	1.7
303.15	0.2423	1107.06	1.52
303.15	0.3139	1082.76	1.33
303.15	0.3687	1064.49	1.18
303.15	0.4348	1042.84	1.01
303.15	0.5023	1021.14	0.84
303.15	0.5681	1000.36	0.67
303.15	0.6189	984.56	0.79
303.15	0.6892	963.04	0.96
303.15	0.7422	947.07	1.09
303.15	0.8021	929.26	1.23
303.15	0.8731	908.5	1.4
303.15	0.9298	892.17	1.53
303.15	1	872.25	1.69
313.15	0	1183.37	2.14
313.15	0.0621	1160.16	1.95
313.15	0.1298	1135.44	1.75
313.15	0.1924	1113.1	1.57
313.15	0.2499	1092.98	1.41
313.15	0.3234	1067.82	1.21
313.15	0.3891	1045.81	1.04
313.15	0.4348	1030.76	0.92
313.15	0.5109	1006.14	0.73
313.15	0.5782	984.82	0.79
313.15	0.6328	967.81	0.93
313.15	0.6902	950.21	1.07
313.15	0.7591	929.44	1.23
313.15	0.8244	910.1	1.39
313.15	0.8823	893.22	1.52
313.15	0.9357	877.88	1.65
313.15	1	859.67	1.79
323.15	0	1172.38	2.05
323.15	0.0634	1147.74	1.85
323.15	0.1244	1124.62	1.66
323.15	0.1824	1103.12	1.49
323.15	0.2311	1085.44	1.35
323.15	0.2893	1064.7	1.19
323.15	0.3214	1053.45	1.1
323.15	0.3855	1031.35	0.92
323.15	0.4345	1014.79	0.79
323.15	0.4902	996.28	0.71
323.15	0.5689	970.68	0.91
323.15	0.6321	950.58	1.07
323.15	0.7024	928.68	1.24
323.15	0.7842	903.78	1.44
323.15	0.8725	877.55	1.65
323.15	0.9432	857.03	1.81
323.15	1	840.84	1.95
333.15	0	1160.59	1.95
333.15	0.0598	1135.86	1.75
333.15	0.1132	1114.33	1.58
333.15	0.1935	1082.9	1.33
333.15	0.2491	1061.75	1.16
333.15	0.3011	1042.41	1.01
333.15	0.3672	1018.4	0.82
333.15	0.4189	1000.06	0.68
333.15	0.4783	979.42	0.85
333.15	0.5389	958.84	1.01
333.15	0.5901	941.8	1.14
333.15	0.6598	919.09	1.32
333.15	0.7243	898.58	1.48
333.15	0.7929	877.26	1.65
333.15	0.8687	854.25	1.84
333.15	0.9244	837.72	1.97
333.15	1	815.74	2.15
343.15	0	1148	1.85
343.15	0.0587	1121.63	1.64
343.15	0.1321	1089.78	1.38
343.15	0.1849	1067.6	1.21
343.15	0.2378	1045.95	1.04
343.15	0.3012	1020.73	0.84
343.15	0.3519	1001.09	0.69
343.15	0.4242	973.86	0.89
343.15	0.4981	946.94	1.11
343.15	0.5533	927.38	1.26
343.15	0.6232	903.27	1.45
343.15	0.6623	890.09	1.56
343.15	0.7429	863.56	1.77
343.15	0.8122	841.44	1.94
343.15	0.8823	819.66	2.12
343.15	0.9422	801.51	2.26
343.15	1	784.38	2.4
353.15	0	1134.61	1.75
353.15	0.0623	1103.66	1.5
353.15	0.1133	1079.21	1.3
353.15	0.1892	1044.18	1.02
353.15	0.2489	1017.71	0.82
353.15	0.3129	990.32	0.76
353.15	0.3798	962.71	0.98
353.15	0.4124	949.61	1.09
353.15	0.483	922.01	1.31
353.15	0.5345	902.52	1.46
353.15	0.6084	875.41	1.68
353.15	0.6631	855.98	1.83
353.15	0.7249	834.64	2
353.15	0.7931	811.8	2.19
353.15	0.852	792.66	2.34
353.15	0.9123	773.59	2.49
353.15	1	746.76	2.71

System: nitrobenzene + 1,3-dimethylbenzene; phases: Liquid
Fixed: Pressure, kPa = 101
Property: Mass density, kg/m3 (Liquid); method: VIBTUB:UFactor:16
Temperature, K	Mole fraction of 1,3-dimethylbenzene	Mass density, kg/m3	uncertainty
293.15	0	1202.95	2.29
293.15	0.0549	1181.56	2.14
293.15	0.1248	1154.92	1.95
293.15	0.1832	1133.14	1.81
293.15	0.2489	1109.13	1.66
293.15	0.3134	1086.03	1.51
293.15	0.3681	1066.8	1.4
293.15	0.4234	1047.66	1.29
293.15	0.4892	1025.28	1.17
293.15	0.5321	1010.91	1.09
293.15	0.6013	988.09	1.16
293.15	0.6539	971.01	1.34
293.15	0.7242	948.56	1.58
293.15	0.7811	930.68	1.78
293.15	0.8631	905.36	2.06
293.15	0.9321	884.44	2.29
293.15	1	864.2	2.52
303.15	0	1193.56	2.22
303.15	0.0478	1174.85	2.08
303.15	0.1132	1149.78	1.91
303.15	0.1812	1124.32	1.73
303.15	0.2343	1104.85	1.61
303.15	0.2943	1083.27	1.48
303.15	0.3535	1062.36	1.35
303.15	0.4143	1041.29	1.23
303.15	0.4711	1021.95	1.12
303.15	0.5243	1004.13	1.02
303.15	0.6123	975.24	1.26
303.15	0.6811	953.14	1.5
303.15	0.7423	933.82	1.71
303.15	0.8132	911.82	1.95
303.15	0.8834	890.44	2.18
303.15	0.9432	872.53	2.38
303.15	1	855.76	2.57
313.15	0	1183.37	2.14
313.15	0.0723	1155.17	1.93
313.15	0.1289	1133.64	1.78
313.15	0.1732	1117.09	1.67
313.15	0.2212	1099.45	1.56
313.15	0.2811	1077.85	1.42
313.15	0.3635	1048.82	1.25
313.15	0.4244	1027.87	1.13
313.15	0.4823	1008.31	1.02
313.15	0.5423	988.4	1.09
313.15	0.6131	965.35	1.33
313.15	0.6732	946.15	1.54
313.15	0.749	922.4	1.8
313.15	0.8313	897.16	2.07
313.15	0.8724	884.76	2.21
313.15	0.9331	866.7	2.41
313.15	1	847.11	2.62
323.15	0	1172.38	2.05
323.15	0.0698	1145.18	1.85
323.15	0.1321	1121.54	1.68
323.15	0.1832	1102.55	1.56
323.15	0.2576	1075.53	1.38
323.15	0.3139	1055.55	1.26
323.15	0.3781	1033.23	1.13
323.15	0.4527	1007.89	0.98
323.15	0.5198	985.6	1.09
323.15	0.5631	971.45	1.24
323.15	0.6398	946.86	1.5
323.15	0.7043	926.6	1.71
323.15	0.7731	905.4	1.94
323.15	0.8343	886.88	2.14
323.15	0.8623	878.51	2.24
323.15	0.9423	854.95	2.5
323.15	1	838.27	2.68
333.15	0	1160.59	1.95
333.15	0.0499	1141.14	1.81
333.15	0.1244	1112.83	1.61
333.15	0.1674	1096.86	1.5
333.15	0.234	1072.65	1.34
333.15	0.3089	1046.1	1.18
333.15	0.3598	1028.47	1.07
333.15	0.4242	1006.59	0.95
333.15	0.4972	982.35	1.09
333.15	0.5672	959.63	1.33
333.15	0.6319	939.07	1.54
333.15	0.7133	913.77	1.81
333.15	0.7632	898.55	1.98
333.15	0.8347	877.13	2.21
333.15	0.8824	863.08	2.37
333.15	0.9323	848.58	2.52
333.15	1	829.22	2.74
343.15	0	1148	1.85
343.15	0.0598	1124.88	1.68
343.15	0.1123	1105.06	1.54
343.15	0.1842	1078.58	1.36
343.15	0.2542	1053.5	1.2
343.15	0.3243	1029.04	1.05
343.15	0.3831	1008.98	0.93
343.15	0.4425	989.14	0.99
343.15	0.5131	966.07	1.23
343.15	0.5728	946.96	1.43
343.15	0.6392	926.14	1.65
343.15	0.6901	910.47	1.81
343.15	0.7532	891.38	2.02
343.15	0.8242	870.31	2.25
343.15	0.8731	856.05	2.4
343.15	0.9238	841.48	2.56
343.15	1	819.97	2.8
353.15	0	1134.61	1.75
353.15	0.0532	1114.19	1.6
353.15	0.1289	1085.92	1.4
353.15	0.1984	1060.73	1.23
353.15	0.2429	1044.96	1.12
353.15	0.3092	1021.96	0.98
353.15	0.3711	1000.98	0.85
353.15	0.4248	983.16	1.02
353.15	0.4891	962.26	1.24
353.15	0.5518	942.3	1.44
353.15	0.6138	922.97	1.64
353.15	0.6731	904.84	1.84
353.15	0.7294	887.93	2.02
353.15	0.8013	866.76	2.25
353.15	0.8673	847.71	2.45
353.15	0.9451	825.73	2.69
353.15	1	810.51	2.86

System: nitrobenzene + 1,4-dimethylbenzene; phases: Liquid
Fixed: Pressure, kPa = 101
Property: Mass density, kg/m3 (Liquid); method: VIBTUB:UFactor:16
Temperature, K	Mole fraction of 1,4-dimethylbenzene	Mass density, kg/m3	uncertainty
293.15	0	1202.95	2.29
293.15	0.0587	1179.74	2.11
293.15	0.1232	1154.82	1.92
293.15	0.1933	1128.38	1.72
293.15	0.2516	1106.86	1.56
293.15	0.3298	1078.63	1.34
293.15	0.3891	1057.67	1.19
293.15	0.4423	1039.19	1.05
293.15	0.4983	1020.04	0.91
293.15	0.5512	1002.23	0.78
293.15	0.6242	978.08	0.94
293.15	0.6943	955.34	1.14
293.15	0.7523	936.85	1.3
293.15	0.8211	915.28	1.48
293.15	0.8723	899.49	1.62
293.15	0.9421	878.29	1.8
293.15	1	861	1.95
303.15	0	1193.56	2.22
303.15	0.0623	1168.84	2.03
303.15	0.1123	1149.43	1.88
303.15	0.1823	1122.85	1.67
303.15	0.2429	1100.38	1.5
303.15	0.3189	1072.84	1.29
303.15	0.3894	1047.9	1.11
303.15	0.4376	1031.16	0.99
303.15	0.4889	1013.63	0.86
303.15	0.5321	999.06	0.76
303.15	0.6078	973.98	0.97
303.15	0.6731	952.79	1.15
303.15	0.7561	926.4	1.38
303.15	0.8247	905.05	1.56
303.15	0.8871	885.97	1.73
303.15	0.9316	872.57	1.84
303.15	1	852.28	2.02
313.15	0	1183.36	2.14
313.15	0.0598	1159.6	1.95
313.15	0.1342	1130.81	1.73
313.15	0.1732	1116.05	1.62
313.15	0.2311	1094.53	1.45
313.15	0.3239	1060.94	1.2
313.15	0.3971	1035.18	1.01
313.15	0.4576	1014.35	0.86
313.15	0.514	995.29	0.79
313.15	0.5672	977.61	0.94
313.15	0.6234	959.24	1.09
313.15	0.6831	940.06	1.25
313.15	0.7421	921.43	1.41
313.15	0.7901	906.5	1.54
313.15	0.8611	884.8	1.73
313.15	0.9287	864.54	1.9
313.15	1	843.58	2.09
323.15	0	1172.38	2.05
323.15	0.048	1153.29	1.9
323.15	0.1243	1123.72	1.67
323.15	0.1892	1099.28	1.48
323.15	0.2572	1074.3	1.29
323.15	0.3249	1050.03	1.11
323.15	0.4023	1022.99	0.91
323.15	0.4683	1000.47	0.75
323.15	0.5138	985.24	0.87
323.15	0.5871	961.14	1.07
323.15	0.6422	943.39	1.22
323.15	0.7139	920.72	1.41
323.15	0.7811	899.92	1.59
323.15	0.8428	881.17	1.75
323.15	0.8781	870.6	1.84
323.15	0.9424	851.62	2.01
323.15	1	834.92	2.15
333.15	0	1160.59	1.95
333.15	0.0668	1134.27	1.75
333.15	0.1235	1112.51	1.58
333.15	0.1983	1084.57	1.37
333.15	0.2547	1064.03	1.21
333.15	0.3133	1043.14	1.05
333.15	0.3942	1015.02	0.84
333.15	0.4789	986.4	0.85
333.15	0.5287	969.96	0.99
333.15	0.5902	950.01	1.16
333.15	0.6517	930.44	1.32
333.15	0.7244	907.78	1.52
333.15	0.7923	887.08	1.69
333.15	0.8321	875.13	1.8
333.15	0.8832	860	1.93
333.15	0.9329	845.51	2.05
333.15	1	826.27	2.22
343.15	0	1147.99	1.85
343.15	0.0623	1123.65	1.66
343.15	0.1324	1097.02	1.46
343.15	0.1824	1078.5	1.31
343.15	0.2561	1051.86	1.11
343.15	0.3249	1027.65	0.93
343.15	0.3867	1006.43	0.77
343.15	0.4562	983.11	0.87
343.15	0.5139	964.17	1.03
343.15	0.5719	945.49	1.19
343.15	0.6317	926.6	1.35
343.15	0.691	908.21	1.51
343.15	0.7613	886.86	1.69
343.15	0.8312	866.07	1.87
343.15	0.8931	848.03	2.02
343.15	0.9537	830.69	2.17
343.15	1	817.66	2.29
353.15	0	1134.605	1.746
353.15	0.0479	1116.05	1.6
353.15	0.1123	1091.72	1.41
353.15	0.1742	1068.95	1.24
353.15	0.2498	1041.91	1.03
353.15	0.3013	1023.94	0.9
353.15	0.3781	997.79	0.74
353.15	0.4538	972.7	0.95
353.15	0.5247	949.8	1.15
353.15	0.6149	921.44	1.39
353.15	0.662	906.96	1.51
353.15	0.7137	891.32	1.64
353.15	0.7832	870.68	1.82
353.15	0.8312	856.69	1.94
353.15	0.8813	842.3	2.07
353.15	0.9422	825.1	2.22
353.15	1	809.07	2.35
