Measured thermophysical data. Isobaric vapor-liquid-liquid-solid equilibrium of the water + NaCl + 1-butanol system at 101.3 kPa
Source: J. Chem. Thermodyn., 2016, 10.1016/j.jct.2016.04.013
Compound 1: water, H2O, InChI=1S/H2O/h1H2, purity 99.8%
Compound 2: butan-1-ol, C4H10O, InChI=1S/C4H10O/c1-2-3-4-5/h5H,2-4H2,1H3, purity 99.8%
Compound 3: sodium chloride, ClNa, InChI=1S/ClH.Na/h1H;/q;+1/p-1, purity 99.99%

System: butan-1-ol + sodium chloride + water; phases: Liquid, Crystal
Fixed: Pressure, kPa = 101.3
Property: Mass fraction of sodium chloride (Liquid); method: ICP-OES
Temperature, K	Mass fraction of butan-1-ol	Mass fraction of sodium chloride	uncertainty
376.42	0.9686	0.0003	0.0001
374.65	0.9583	0.0004	0.0001
373.81	0.9519	0.0007	0.0001
372.69	0.949	0.0007	0.0001
372.25	0.9497	0.0008	0.0001
371.15	0.9388	0.0012	0.0001
369.28	0.9037	0.0036	0.0004
369.28	0.0049	0.27	0.027

System: butan-1-ol + sodium chloride + water; phases: Liquid mixture 2, Liquid mixture 1
Fixed: Pressure, kPa = 101.3
Property: Mass fraction of butan-1-ol (Liquid mixture 2); method: Chromatography
Property: Mass fraction of butan-1-ol (Liquid mixture 1); method: Chromatography
Property: Mass fraction of water (Liquid mixture 1); method: Chromatography
Temperature, K	Mass fraction of water	Mass fraction of butan-1-ol	uncertainty	Mass fraction of butan-1-ol	uncertainty	Mass fraction of water	uncertainty
365.72	0.2997	0.7003	0.0122	0.0812	0.0033	0.9188	
365.75	0.222	0.7774	0.009	0.0549	0.0022	0.923	
365.78	0.1976	0.8013	0.0081	0.0461	0.0019	0.9099	
366.02	0.1838	0.8154	0.0075	0.0356	0.0014	0.9011	
366.24	0.1655	0.8327	0.0068	0.0283	0.0012	0.8812	
366.41	0.1582	0.8399	0.0065	0.0241	0.001	0.8633	
366.49	0.1242	0.8732	0.0052	0.0129	0.0005	0.7965	
366.99	0.1127	0.884	0.0047	0.0061	0.0003	0.7463	
367.54	0.0966	0.8998	0.0041	0.0055	0.0002	0.7343	
369.28	0.0927	0.9037	0.0039	0.0049	0.0002	0.7251	

System: butan-1-ol + sodium chloride + water; phases: Liquid, Gas
Fixed: Pressure, kPa = 101.3
Property: Mass fraction of butan-1-ol (Liquid); method: Chromatography
Property: Mass fraction of butan-1-ol (Gas); method: Chromatography
Property: Mass fraction of water (Gas); method: Chromatography
Temperature, K	Mass fraction of water	Mass fraction of butan-1-ol	uncertainty	Mass fraction of butan-1-ol	uncertainty	Mass fraction of water	uncertainty
376.42	0.0311	0.9686	0.0013	0.7304	0.011	0.2696	
373.81	0.0474	0.9519	0.002	0.7145	0.0117	0.2855	
374.24	0.0344	0.9653	0.0014	0.6578	0.014	0.3422	
366.99	0.1127	0.884	0.0047	0.6089	0.016	0.3911	
372.69	0.0503	0.949	0.0021	0.7013	0.0122	0.2987	
365.78	0.1976	0.8013	0.0081	0.5857	0.017	0.4143	
372.25	0.0495	0.9497	0.002	0.6942	0.0125	0.3058	
365.72	0.9188	0.0812	0.0033	0.5839	0.017	0.4161	
365.75	0.923	0.0549	0.0022	0.5884	0.0168	0.4116	
365.78	0.9099	0.0461	0.0019	0.5857	0.017	0.4143	
371.15	0.06	0.9388	0.0025	0.6781	0.0132	0.3219	
366.02	0.9011	0.0356	0.0014	0.5908	0.0167	0.4092	
366.89	0.1063	0.8914	0.0044	0.5965	0.0165	0.4035	
366.24	0.8812	0.0283	0.0012	0.5877	0.0169	0.4123	
366.99	0.7463	0.0061	0.0003	0.6089	0.016	0.3911	
379.16	0.0238	0.976	0.001	0.7259	0.0112	0.2741	
367.54	0.7343	0.0055	0.0002	0.619	0.0156	0.381	
366.41	0.8633	0.0241	0.001	0.5928	0.0167	0.4072	
369.28	0.7251	0.0049	0.0002	0.6643	0.0137	0.3357	
365.72	0.2997	0.7003	0.0122	0.5839	0.017	0.4161	
366.02	0.1838	0.8154	0.0075	0.5908	0.0167	0.4092	
371.76	0.0565	0.9426	0.0023	0.6473	0.0144	0.3527	
366.24	0.1655	0.8327	0.0068	0.5877	0.0169	0.4123	
365.75	0.222	0.7774	0.009	0.5884	0.0168	0.4116	
366.41	0.1582	0.8399	0.0065	0.5928	0.0167	0.4072	
366.49	0.1242	0.8732	0.0052	0.5967	0.0165	0.4033	
367.54	0.0966	0.8998	0.0041	0.619	0.0156	0.381	
366.49	0.7965	0.0129	0.0005	0.5967	0.0165	0.4033	
369.28	0.0927	0.9037	0.0039	0.6643	0.0137	0.3357	
370.17	0.9784	0.0089	0.0004	0.3108	0.0127	0.6892	
374.65	0.0413	0.9583	0.0017	0.7229	0.0113	0.2771	

System: butan-1-ol + water; phases: Liquid, Gas
Fixed: Pressure, kPa = 101.3
Property: Boiling temperature at pressure P, K (Liquid); method: Ebulliometric method (Recirculating still)
Mass fraction of butan-1-ol	Boiling temperature at pressure P, K	uncertainty
0.0812	365.72	0.15
0.7003	365.72	0.15

System: butan-1-ol + water; phases: Liquid mixture 2, Liquid mixture 1
Property: Mass fraction of butan-1-ol (Liquid mixture 2); method: Chromatography
Temperature, K	Pressure, kPa	Mass fraction of butan-1-ol	uncertainty
365.72	101.3	0.7003	0.0122

System: butan-1-ol + water; phases: Liquid mixture 1, Liquid mixture 2
Property: Mass fraction of butan-1-ol (Liquid mixture 1); method: Chromatography
Temperature, K	Pressure, kPa	Mass fraction of butan-1-ol	uncertainty
365.72	101.3	0.0812	0.0033
