Measured thermophysical data. Measurement and correlation of solubility of 4-chloro-2,5-dimethoxynitrobenzene and 4-chloro-2,5- dimethoxyaniline in methanol, ethanol, xylene and toluene
Source: J. Chem. Thermodyn., 2015, 10.1016/j.jct.2014.09.003
Compound 1: 4-chloro-2,5-dimethoxyaniline, C8H10ClNO2, InChI=1S/C8H10ClNO2/c1-11-7-4-6(10)8(12-2)3-5(7)9/h3-4H,10H2,1-2H3
Compound 2: 1-chloro-2,5-dimethoxy-4-nitrobenzene, C8H8ClNO4, InChI=1S/C8H8ClNO4/c1-13-7-4-6(10(11)12)8(14-2)3-5(7)9/h3-4H,1-2H3
Compound 3: methanol, CH4O, InChI=1S/CH4O/c1-2/h2H,1H3, purity 99.5%
Compound 4: ethanol, C2H6O, InChI=1S/C2H6O/c1-2-3/h3H,2H2,1H3, purity 99.7%
Compound 5: toluene, C7H8, InChI=1S/C7H8/c1-7-5-3-2-4-6-7/h2-6H,1H3, purity 99.5%
Compound 6: 1,2-dimethylbenzene, C8H10, InChI=1S/C8H10/c1-7-5-3-4-6-8(7)2/h3-6H,1-2H3, purity 99%
Compound 7: 1,3-dimethylbenzene, C8H10, InChI=1S/C8H10/c1-7-4-3-5-8(2)6-7/h3-6H,1-2H3, purity 99%
Compound 8: 1,4-dimethylbenzene, C8H10, InChI=1S/C8H10/c1-7-3-5-8(2)6-4-7/h3-6H,1-2H3, purity 99%

System: 4-chloro-2,5-dimethoxyaniline; phases: Crystal, Liquid, Air at 1 atmosphere
Property: Normal melting temperature, K (Crystal); method: DTA
Normal melting temperature, K	uncertainty
391.85	0.44

System: 4-chloro-2,5-dimethoxyaniline; phases: Crystal, Liquid, Air at 1 atmosphere
Property: Molar enthalpy of transition or fusion, kJ/mol (Crystal); method: DSC
Molar enthalpy of transition or fusion, kJ/mol	uncertainty
26.68	1.27

System: 1-chloro-2,5-dimethoxy-4-nitrobenzene; phases: Crystal, Liquid, Air at 1 atmosphere
Property: Normal melting temperature, K (Crystal); method: DTA
Normal melting temperature, K	uncertainty
413.66	0.5

System: 1-chloro-2,5-dimethoxy-4-nitrobenzene; phases: Crystal, Liquid, Air at 1 atmosphere
Property: Molar enthalpy of transition or fusion, kJ/mol (Crystal); method: DSC
Molar enthalpy of transition or fusion, kJ/mol	uncertainty
28.02	1.54

System: methanol + 1-chloro-2,5-dimethoxy-4-nitrobenzene; phases: Liquid, Crystal
Fixed: Pressure, kPa = 101.1
Property: Solid-liquid equilibrium temperature, K (Liquid); method: VISOBS
Mole fraction of 1-chloro-2,5-dimethoxy-4-nitrobenzene	Solid-liquid equilibrium temperature, K	uncertainty
0.0004486	279.35	2.07
0.0005175	282.75	1.77
0.0005976	285.55	1.37
0.0007157	288.85	1.22
0.0008955	293.45	1.11
0.001091	297.55	1.01
0.001311	301.75	0.93
0.001565	305.85	0.83
0.001867	309.55	0.76
0.002228	313.25	0.72
0.002657	316.85	0.69
0.003179	320.75	0.67
0.00383	324.85	0.66
0.004644	329.05	0.65

System: ethanol + 1-chloro-2,5-dimethoxy-4-nitrobenzene; phases: Liquid, Crystal
Fixed: Pressure, kPa = 101.1
Property: Solid-liquid equilibrium temperature, K (Liquid); method: VISOBS
Mole fraction of 1-chloro-2,5-dimethoxy-4-nitrobenzene	Solid-liquid equilibrium temperature, K	uncertainty
0.0004197	276.95	1.72
0.0005218	281.05	1.6
0.000644	285.25	1.37
0.0007575	288.25	1.17
0.0008921	291.45	1.1
0.001087	295.75	0.97
0.001351	300.15	0.87
0.001723	305.55	0.79
0.002189	310.45	0.72
0.00274	314.85	0.69
0.003398	319.65	0.67
0.004086	323.65	0.65
0.004802	327.25	0.64
0.00558	330.25	0.63
0.006495	333.35	0.63
0.007636	336.65	0.63
0.009207	340.45	0.62

System: toluene + 1-chloro-2,5-dimethoxy-4-nitrobenzene; phases: Liquid, Crystal
Fixed: Pressure, kPa = 101.1
Property: Solid-liquid equilibrium temperature, K (Liquid); method: VISOBS
Mole fraction of 1-chloro-2,5-dimethoxy-4-nitrobenzene	Solid-liquid equilibrium temperature, K	uncertainty
0.009689	277.45	0.63
0.0107	280.55	0.62
0.01224	283.85	0.62
0.01449	287.85	0.62
0.0178	293.05	0.62
0.02106	297.95	0.62
0.0241	301.85	0.62
0.02735	305.35	0.62
0.0308	308.75	0.62
0.03474	312.35	0.62
0.03934	315.85	0.62
0.04499	319.45	0.62
0.05203	323.45	0.62
0.06102	327.75	0.62
0.07255	332.75	0.62
0.08518	337.35	0.62

System: 1,2-dimethylbenzene + 1-chloro-2,5-dimethoxy-4-nitrobenzene; phases: Liquid, Crystal
Fixed: Pressure, kPa = 101.1
Property: Solid-liquid equilibrium temperature, K (Liquid); method: VISOBS
Mole fraction of 1-chloro-2,5-dimethoxy-4-nitrobenzene	Solid-liquid equilibrium temperature, K	uncertainty
0.008644	277.75	0.63
0.009556	280.45	0.63
0.01071	283.55	0.62
0.01235	287.05	0.62
0.01452	291.45	0.62
0.01736	296.25	0.62
0.02089	301.25	0.62
0.0245	305.65	0.62
0.02825	309.45	0.62
0.03228	313.25	0.62
0.03675	316.85	0.62
0.04182	320.55	0.62
0.04761	323.95	0.62
0.05439	327.55	0.62
0.06243	331.35	0.62
0.07191	335.25	0.62
0.08312	339.35	0.62

System: 1,3-dimethylbenzene + 1-chloro-2,5-dimethoxy-4-nitrobenzene; phases: Liquid, Crystal
Fixed: Pressure, kPa = 101.1
Property: Solid-liquid equilibrium temperature, K (Liquid); method: VISOBS
Mole fraction of 1-chloro-2,5-dimethoxy-4-nitrobenzene	Solid-liquid equilibrium temperature, K	uncertainty
0.007276	277.05	0.65
0.007875	279.95	0.64
0.008721	283.15	0.63
0.009936	286.15	0.62
0.01177	290.05	0.62
0.01458	295.35	0.62
0.01782	300.75	0.62
0.02089	305.05	0.62
0.02399	308.85	0.62
0.0272	312.15	0.62
0.03052	315.45	0.62
0.03409	318.55	0.62
0.03822	321.75	0.62
0.04316	325.05	0.62
0.04905	328.45	0.62
0.05607	332.05	0.62
0.06448	335.35	0.62
0.07471	338.95	0.62

System: 1,4-dimethylbenzene + 1-chloro-2,5-dimethoxy-4-nitrobenzene; phases: Liquid, Crystal
Fixed: Pressure, kPa = 101.1
Property: Solid-liquid equilibrium temperature, K (Liquid); method: VISOBS
Mole fraction of 1-chloro-2,5-dimethoxy-4-nitrobenzene	Solid-liquid equilibrium temperature, K	uncertainty
0.01255	289.55	0.62
0.01447	293.65	0.62
0.01681	297.55	0.62
0.01977	301.95	0.62
0.02301	306.15	0.62
0.02659	310.25	0.62
0.03044	313.85	0.62
0.03474	317.55	0.62
0.03962	321.15	0.62
0.04536	324.65	0.62
0.05219	328.45	0.62
0.06036	332.35	0.62
0.07	336.65	0.62

System: methanol + 4-chloro-2,5-dimethoxyaniline; phases: Liquid, Crystal
Fixed: Pressure, kPa = 101.1
Property: Solid-liquid equilibrium temperature, K (Liquid); method: VISOBS
Mole fraction of 4-chloro-2,5-dimethoxyaniline	Solid-liquid equilibrium temperature, K	uncertainty
0.002824	278.05	0.68
0.003417	282.45	0.67
0.003989	285.85	0.66
0.004653	289.45	0.65
0.005401	292.75	0.64
0.006344	296.65	0.63
0.007341	299.85	0.63
0.008516	303.35	0.63
0.009903	306.55	0.62
0.01155	309.95	0.62
0.01341	313.45	0.62
0.01557	316.45	0.62
0.01811	319.35	0.62
0.02119	322.45	0.62
0.02472	325.45	0.62
0.02893	328.85	0.62

System: ethanol + 4-chloro-2,5-dimethoxyaniline; phases: Liquid, Crystal
Fixed: Pressure, kPa = 101.1
Property: Solid-liquid equilibrium temperature, K (Liquid); method: VISOBS
Mole fraction of 4-chloro-2,5-dimethoxyaniline	Solid-liquid equilibrium temperature, K	uncertainty
0.002736	279.35	0.66
0.00327	282.65	0.67
0.003857	286.45	0.66
0.004468	289.55	0.65
0.004969	292.15	0.64
0.005787	295.55	0.63
0.006947	299.45	0.63
0.008214	303.05	0.63
0.009379	305.85	0.62
0.01149	310.25	0.62
0.01371	313.95	0.62
0.01643	317.65	0.62
0.02011	321.55	0.62
0.02401	325.05	0.62
0.02892	328.65	0.62
0.03442	331.55	0.62
0.04159	335.25	0.62

System: toluene + 4-chloro-2,5-dimethoxyaniline; phases: Liquid, Crystal
Fixed: Pressure, kPa = 101.1
Property: Solid-liquid equilibrium temperature, K (Liquid); method: VISOBS
Mole fraction of 4-chloro-2,5-dimethoxyaniline	Solid-liquid equilibrium temperature, K	uncertainty
0.006497	277.65	0.62
0.008307	281.95	0.62
0.01013	286.05	0.62
0.01255	290.05	0.62
0.0146	293.35	0.62
0.01685	296.45	0.62
0.01938	299.65	0.62
0.0224	302.75	0.62
0.02626	306.25	0.62
0.03119	309.95	0.62
0.03731	313.75	0.62
0.04474	317.65	0.62
0.05363	321.75	0.62
0.06409	325.45	0.62
0.0761	328.95	0.62
0.08944	332.25	0.62
0.10422	335.35	0.62

System: 1,2-dimethylbenzene + 4-chloro-2,5-dimethoxyaniline; phases: Liquid, Crystal
Fixed: Pressure, kPa = 101.1
Property: Solid-liquid equilibrium temperature, K (Liquid); method: VISOBS
Mole fraction of 4-chloro-2,5-dimethoxyaniline	Solid-liquid equilibrium temperature, K	uncertainty
0.005797	278.25	0.63
0.006993	281.85	0.63
0.008308	285.55	0.62
0.009889	289.15	0.62
0.01168	292.75	0.62
0.01363	296.05	0.62
0.01585	299.45	0.62
0.01839	303.25	0.62
0.02144	307.05	0.62
0.02516	310.35	0.62
0.02978	313.65	0.62
0.03578	317.55	0.62
0.04432	321.85	0.62
0.05489	326.25	0.62
0.06766	330.95	0.62
0.0816	335.05	0.62

System: 1,3-dimethylbenzene + 4-chloro-2,5-dimethoxyaniline; phases: Liquid, Crystal
Fixed: Pressure, kPa = 101.1
Property: Solid-liquid equilibrium temperature, K (Liquid); method: VISOBS
Mole fraction of 4-chloro-2,5-dimethoxyaniline	Solid-liquid equilibrium temperature, K	uncertainty
0.004951	277.35	0.63
0.006147	281.85	0.63
0.007386	286.05	0.63
0.008774	289.95	0.62
0.01034	292.85	0.62
0.01205	296.25	0.62
0.01393	299.35	0.62
0.01603	302.35	0.62
0.01856	305.55	0.62
0.02193	309.25	0.62
0.02625	312.75	0.62
0.03177	316.95	0.62
0.03858	321.25	0.62
0.0466	325.05	0.62
0.05607	328.65	0.62
0.06695	332.35	0.62
0.07914	335.65	0.62

System: 1,4-dimethylbenzene + 4-chloro-2,5-dimethoxyaniline; phases: Liquid, Crystal
Fixed: Pressure, kPa = 101.1
Property: Solid-liquid equilibrium temperature, K (Liquid); method: VISOBS
Mole fraction of 4-chloro-2,5-dimethoxyaniline	Solid-liquid equilibrium temperature, K	uncertainty
0.008552	288.55	0.62
0.009853	291.65	0.62
0.0115	294.95	0.62
0.01343	298.45	0.62
0.01582	302.25	0.62
0.01864	306.05	0.62
0.02197	309.65	0.62
0.026	313.55	0.62
0.03096	317.65	0.62
0.03714	321.25	0.62
0.04474	325.25	0.62
0.05388	329.55	0.62
0.06515	334.25	0.62
