Measured thermophysical data. Thermodynamics of molecular solids in organic solvents
Source: J. Chem. Thermodyn., 2012, 10.1016/j.jct.2011.12.015
Compound 1: butyl 4-hydroxybenzoate, C11H14O3, InChI=1S/C11H14O3/c1-2-3-8-14-11(13)9-4-6-10(12)7-5-9/h4-7,12H,2-3,8H2,1H3, purity 99%
Compound 2: benzoic acid, C7H6O2, InChI=1S/C7H6O2/c8-7(9)6-4-2-1-3-5-6/h1-5H,(H,8,9), purity 99.7%

System: butyl 4-hydroxybenzoate; phases: Crystal, Liquid, Air at 1 atmosphere
Property: Molar enthalpy of transition or fusion, kJ/mol (Crystal); method: DSC
Molar enthalpy of transition or fusion, kJ/mol	uncertainty
25.535	0.74

System: butyl 4-hydroxybenzoate; phases: Crystal, Liquid, Air at 1 atmosphere
Property: Normal melting temperature, K (Crystal); method: DTA
Normal melting temperature, K	uncertainty
340.49	0.5

System: butyl 4-hydroxybenzoate; phases: Crystal
Fixed: Pressure, kPa = 101.325
Property: Molar heat capacity at constant pressure, J/K/mol (Crystal); method: Small sample (50 mg) DSC
Temperature, K	Molar heat capacity at constant pressure, J/K/mol	uncertainty
291.02	264.1488016	53.02398738
293.6	266.0910722	53.4124415
296.12	268.22756986	53.80089562
298.7	270.36406752	54.18934974
301.32	272.50056518	54.57780386
303.91	274.63706284	55.16048504
306.52	276.57933344	55.54893916
309.1	278.7158311	55.93739328
311.71	281.04655582	56.3258474
314.32	283.18305348	56.71430152
316.9	285.31955114	57.2969827
319.51	287.65027586	57.68543682
322.12	289.78677352	58.07389094
324.73	292.3117253	58.65657212
328.33	296.1962665	59.43348036
329.85	298.33276416	59.82193448
330.99	299.88658064	60.2103886

System: butyl 4-hydroxybenzoate; phases: Liquid
Fixed: Pressure, kPa = 101.325
Property: Molar heat capacity at constant pressure, J/K/mol (Liquid); method: Small sample (50 mg) DSC
Temperature, K	Molar heat capacity at constant pressure, J/K/mol	uncertainty
353.41	386.90030352	77.49659694
355.11	388.45412	77.88505106
356.8	389.03680118	78.07927812
358.41	389.81370942	78.07927812
360.1	390.3963906	78.27350518
361.82	391.17329884	78.46773224
363.51	391.75598002	78.46773224
365.21	392.53288826	78.6619593
366.81	392.92134238	78.85618636
368.41	393.69825062	78.85618636
370.1	394.08670474	79.05041342
371.82	394.66938592	79.05041342
373.51	395.2520671	79.24464048
375.2	395.83474828	79.43886754
376.92	396.41742946	79.43886754
378.61	397.00011064	79.6330946
379.87	397.38856476	79.6330946

System: benzoic acid; phases: Crystal, Liquid, Air at 1 atmosphere
Property: Molar enthalpy of transition or fusion, kJ/mol (Crystal); method: DSC
Molar enthalpy of transition or fusion, kJ/mol	uncertainty
16.82	0.52

System: benzoic acid; phases: Crystal, Liquid, Air at 1 atmosphere
Property: Normal melting temperature, K (Crystal); method: DTA
Normal melting temperature, K	uncertainty
394.95	0.5

System: benzoic acid; phases: Crystal
Fixed: Pressure, kPa = 101.325
Property: Molar heat capacity at constant pressure, J/K/mol (Crystal); method: Small sample (50 mg) DSC
Temperature, K	Molar heat capacity at constant pressure, J/K/mol	uncertainty
281.06	137.3865075	27.59942284
287.01	140.07317698	28.0879082
293.02	142.8819678	28.6985149
299	145.20227326	29.06487892
305.01	147.40045738	29.55336428
311.02	149.72076284	30.04184964
317	152.16318964	30.530335
323.03	154.4834951	31.01882036
329.02	156.9259219	31.50730572
335.02	159.49047004	31.99579108
341.01	161.93289684	32.48427644
347.02	164.37532364	32.9727618
353	166.6956291	33.46124716
359.01	168.89381322	33.82761118
365.01	171.21411868	34.31609654
369.32	172.8016961	34.68246056

System: benzoic acid; phases: Liquid
Fixed: Pressure, kPa = 101.325
Property: Molar heat capacity at constant pressure, J/K/mol (Liquid); method: Small sample (50 mg) DSC
Temperature, K	Molar heat capacity at constant pressure, J/K/mol	uncertainty
407.4	230.44296858	46.16186652
409	231.4199393	46.4061092
410.6	232.15266734	46.52823054
413.2	233.00751672	46.77247322
414.8	233.49600208	46.77247322
416.5	233.74024476	46.89459456
418	233.98448744	46.89459456
419.6	234.35085146	47.0167159
421.2	234.71721548	47.0167159
422.8	235.0835795	47.13883724
424.4	235.44994352	47.26095858
426	235.81630754	47.26095858
427.6	236.06055022	47.38307992
429.2	236.42691424	47.38307992
430.8	236.79327826	47.50520126
432	237.15964228	47.50520126
