Measured thermophysical data. Universal critical amplitude ratios in binary mixtures of {benzonitrile + alkane}
Source: J. Chem. Thermodyn., 2013, 10.1016/j.jct.2012.12.001
Compound 1: benzonitrile, C7H5N, InChI=1S/C7H5N/c8-6-7-4-2-1-3-5-7/h1-5H
Compound 2: dodecane, C12H26, InChI=1S/C12H26/c1-3-5-7-9-11-12-10-8-6-4-2/h3-12H2,1-2H3
Compound 3: pentadecane, C15H32, InChI=1S/C15H32/c1-3-5-7-9-11-13-15-14-12-10-8-6-4-2/h3-15H2,1-2H3
Compound 4: hexadecane, C16H34, InChI=1S/C16H34/c1-3-5-7-9-11-13-15-16-14-12-10-8-6-4-2/h3-16H2,1-2H3
Compound 5: heptadecane, C17H36, InChI=1S/C17H36/c1-3-5-7-9-11-13-15-17-16-14-12-10-8-6-4-2/h3-17H2,1-2H3
Compound 6: octadecane, C18H38, InChI=1S/C18H38/c1-3-5-7-9-11-13-15-17-18-16-14-12-10-8-6-4-2/h3-18H2,1-2H3

System: benzonitrile + dodecane; phases: Liquid mixture 1, Liquid mixture 2, Air at 1 atmosphere
Property: Upper consolute temperature, K (Liquid mixture 1); method: VISOBS
Upper consolute temperature, K	uncertainty
292.6	0.5

System: benzonitrile + dodecane; phases: Liquid mixture 1, Liquid mixture 2, Air at 1 atmosphere
Property: Upper consolute composition: mole fraction of benzonitrile (Liquid mixture 1); method: method of "equal volume"
Upper consolute composition: mole fraction of benzonitrile	uncertainty
0.586	0.002

System: benzonitrile + pentadecane; phases: Liquid mixture 1, Liquid mixture 2, Air at 1 atmosphere
Property: Upper consolute temperature, K (Liquid mixture 1); method: VISOBS
Upper consolute temperature, K	uncertainty
301.1	0.5

System: benzonitrile + pentadecane; phases: Liquid mixture 1, Liquid mixture 2, Air at 1 atmosphere
Property: Upper consolute composition: mole fraction of benzonitrile (Liquid mixture 1); method: method of "equal volume"
Upper consolute composition: mole fraction of benzonitrile	uncertainty
0.657	0.002

System: benzonitrile + hexadecane; phases: Liquid mixture 1, Liquid mixture 2, Air at 1 atmosphere
Property: Upper consolute temperature, K (Liquid mixture 1); method: VISOBS
Upper consolute temperature, K	uncertainty
304.1	0.5

System: benzonitrile + hexadecane; phases: Liquid mixture 1, Liquid mixture 2, Air at 1 atmosphere
Property: Upper consolute composition: mole fraction of benzonitrile (Liquid mixture 1); method: method of "equal volume"
Upper consolute composition: mole fraction of benzonitrile	uncertainty
0.678	0.004

System: benzonitrile + heptadecane; phases: Liquid mixture 1, Liquid mixture 2, Air at 1 atmosphere
Property: Upper consolute temperature, K (Liquid mixture 1); method: VISOBS
Upper consolute temperature, K	uncertainty
306.4	0.5

System: benzonitrile + heptadecane; phases: Liquid mixture 1, Liquid mixture 2, Air at 1 atmosphere
Property: Upper consolute composition: mole fraction of benzonitrile (Liquid mixture 1); method: method of "equal volume"
Upper consolute composition: mole fraction of benzonitrile	uncertainty
0.695	0.002

System: benzonitrile + heptadecane; phases: Liquid
Fixed: Pressure, kPa = 101
Fixed: Mole fraction of benzonitrile = 0.695
Property: Heat capacity at constant pressure per volume, J/K/m3 (Liquid); method: DSC
Temperature, K	Heat capacity at constant pressure per volume, J/K/m3	uncertainty
339.203	1725100	20000
339.198	1725100	20000
339.132	1724700	20000
339.126	1724700	20000
339.114	1724700	20000
339.108	1724800	20000
339.102	1724700	20000
339.097	1724600	20000
339.014	1724600	20000
339.008	1724500	20000
339.002	1724600	20000
338.996	1724700	20000
338.617	1725200	20000
338.599	1725300	20000
338.588	1725200	20000
338.582	1725400	20000
338.529	1725300	20000
338.452	1724800	20000
338.446	1724900	20000
338.026	1724900	20000
338.021	1724900	20000
338.009	1724800	20000
338.003	1724800	20000
337.902	1724900	20000
337.801	1724400	20000
337.725	1724500	20000
337.6	1724300	20000
337.518	1724100	20000
337.429	1723700	20000
337.321	1723700	20000
337.18	1724100	20000
337.098	1724200	20000
337.003	1724100	20000
336.902	1724400	20000
336.803	1724100	20000
336.701	1723700	20000
336.601	1723400	20000
336.5	1723300	20000
336.4	1723100	20000
336.3	1723200	20000
336.199	1723600	20000
336.098	1723400	20000
336.004	1723600	20000
335.903	1723400	20000
335.802	1723300	20000
335.703	1723500	20000
335.602	1723600	20000
335.501	1723700	20000
335.4	1723700	20000
335.3	1723700	20000
335.205	1723600	20000
335.098	1723300	20000
335.004	1723100	20000
334.904	1722900	20000
334.803	1723000	20000
334.703	1723400	20000
334.602	1723800	20000
334.501	1723900	20000
334.401	1723400	20000
334.3	1722900	20000
334.2	1722600	20000
334.099	1722700	20000
334.005	1722600	20000
333.904	1722600	20000
333.804	1722800	20000
333.703	1722700	20000
333.597	1722200	20000
333.502	1722000	20000
333.402	1722000	20000
333.307	1721900	20000
333.201	1721900	20000
333.1	1722200	20000
333	1722600	20000
332.905	1722700	20000
332.798	1722700	20000
332.704	1722600	20000
332.604	1722200	20000
332.503	1722000	20000
332.403	1722000	20000
332.302	1722100	20000
332.201	1722100	20000
332.101	1721900	20000
332	1722000	20000
331.9	1722000	20000
331.805	1721700	20000
331.705	1721500	20000
331.599	1721300	20000
331.503	1721300	20000
331.403	1721400	20000
331.302	1721200	20000
331.202	1721500	20000
331.101	1721700	20000
331.001	1721500	20000
330.901	1721300	20000
330.8	1721300	20000
330.705	1721300	20000
330.605	1721600	20000
330.504	1721600	20000
330.404	1722100	20000
330.303	1722400	20000
330.202	1722500	20000
330.102	1722000	20000
330.001	1721300	20000
329.9	1721400	20000
329.8	1721400	20000
329.7	1721300	20000
329.606	1721300	20000
329.505	1721100	20000
329.404	1721000	20000
329.304	1720700	20000
329.204	1720800	20000
329.103	1720900	20000
329.002	1720900	20000
328.901	1721300	20000
328.801	1721200	20000
328.7	1721400	20000
328.6	1721500	20000
328.499	1721000	20000
328.399	1720800	20000
328.304	1720700	20000
328.204	1720900	20000
328.103	1720800	20000
328.003	1720800	20000
327.902	1720800	20000
327.796	1721200	20000
327.701	1721000	20000
327.601	1720500	20000
327.5	1720400	20000
327.406	1720500	20000
327.299	1720800	20000
327.199	1721100	20000
327.098	1721000	20000
327.004	1721000	20000
326.903	1720700	20000
326.802	1720400	20000
326.702	1720400	20000
326.601	1720300	20000
326.501	1720200	20000
326.4	1720400	20000
326.299	1720900	20000
326.205	1720900	20000
326.104	1720900	20000
326.004	1720600	20000
325.903	1720200	20000
325.803	1720200	20000
325.702	1720400	20000
325.602	1720300	20000
325.501	1720500	20000
325.401	1720300	20000
325.3	1719500	20000
325.2	1720400	20000
325.099	1720700	20000
325.004	1720700	20000
324.904	1720400	20000
324.803	1720600	20000
324.703	1720600	20000
324.603	1720500	20000
324.502	1720500	20000
324.401	1720500	20000
324.301	1720300	20000
324.2	1720200	20000
324.1	1720200	20000
324.005	1720200	20000
323.904	1720400	20000
323.804	1720500	20000
323.703	1720800	20000
323.603	1720800	20000
323.502	1720700	20000
323.402	1720200	20000
323.301	1720100	20000
323.201	1720100	20000
323.106	1720200	20000
323	1720200	20000
322.905	1720800	20000
322.805	1721200	20000
322.704	1720800	20000
322.604	1720600	20000
322.504	1720600	20000
322.402	1720300	20000
322.302	1720100	20000
322.201	1720100	20000
322.101	1720500	20000
322.001	1720500	20000
321.894	1720400	20000
321.799	1720100	20000
321.699	1720100	20000
321.605	1719900	20000
321.504	1720000	20000
321.404	1720400	20000
321.303	1720600	20000
321.202	1720600	20000
321.102	1720600	20000
321.001	1720300	20000
320.9	1719900	20000
320.8	1720000	20000
320.699	1720000	20000
320.605	1720200	20000
320.505	1720400	20000
320.404	1720700	20000
320.303	1720800	20000
320.203	1720300	20000
320.102	1720500	20000
320.002	1720400	20000
319.901	1720500	20000
319.801	1720700	20000
319.7	1720900	20000
319.6	1721200	20000
319.499	1721300	20000
319.304	1720600	20000
319.198	1720500	20000
319.102	1720600	20000
319.002	1720700	20000
318.902	1721100	20000
318.801	1721400	20000
318.701	1721400	20000
318.6	1721300	20000
318.5	1721100	20000
318.406	1721000	20000
318.304	1721100	20000
318.204	1721200	20000
318.097	1721300	20000
318.003	1721300	20000
317.902	1721500	20000
317.802	1721800	20000
317.701	1721900	20000
317.601	1721900	20000
317.501	1722100	20000
317.405	1721700	20000
317.305	1721500	20000
317.204	1722100	20000
317.163	1722200	20000
316.802	1719200	20000
316.705	1724400	20000
316.604	1724000	20000
316.502	1717700	20000
316.401	1718400	20000
316.303	1718600	20000
316.202	1721400	20000
316.096	1715600	20000
316.003	1715800	20000
315.905	1715500	20000
315.8	1719600	20000
315.702	1724700	20000
315.6	1718500	20000
315.503	1714900	20000
315.402	1717200	20000
315.304	1721800	20000
315.203	1722400	20000
315.101	1719700	20000
315	1715800	20000
314.902	1717900	20000
314.8	1716700	20000
314.703	1722500	20000
314.602	1727600	20000
314.5	1721100	20000
314.402	1717600	20000
314.301	1718000	20000
314.2	1723200	20000
314.098	1722200	20000
314	1725600	20000
313.899	1720600	20000
313.801	1719300	20000
313.7	1718300	20000
313.598	1717000	20000
313.501	1720500	20000
313.4	1725500	20000
313.302	1724400	20000
313.201	1723400	20000
313.103	1719600	20000
313.001	1720300	20000
312.9	1722100	20000
312.802	1722600	20000
312.701	1727300	20000
312.603	1725700	20000
312.498	1727600	20000
312.4	1724000	20000
312.303	1721300	20000
312.201	1722200	20000
312.099	1723400	20000
312.002	1725500	20000
311.901	1728100	20000
311.803	1728700	20000
311.702	1732300	20000
311.6	1729500	20000
311.499	1725800	20000
311.401	1724600	20000
311.3	1725400	20000
311.198	1728000	20000
311.1	1732200	20000
311	1732600	20000
310.948	1730900	20000
310.847	1733600	20000
310.749	1728600	20000
310.648	1733500	20000
310.546	1733700	20000
310.449	1727800	20000
310.347	1732200	20000
310.25	1735000	20000
310.148	1731900	20000
310.047	1736900	20000
309.949	1740400	20000
309.848	1737600	20000
309.746	1736500	20000
309.649	1738100	20000
309.547	1735200	20000
309.449	1738100	20000
309.348	1742200	20000
309.247	1743700	20000
309.145	1747900	20000
309.048	1747000	20000
308.95	1748100	20000
308.849	1745200	20000
308.747	1746500	20000
308.65	1748300	20000
308.548	1753500	20000
308.446	1756400	20000
308.349	1756500	20000
308.232	1750200	20000
308.15	1759200	20000
308.048	1758800	20000
307.947	1764000	20000
307.849	1767300	20000
307.748	1775700	20000
307.646	1779800	20000
307.549	1787300	20000
307.448	1791700	20100
307.35	1804900	20700
307.249	1846500	37500
307.147	2126900	27900
307.049	2038400	22200
306.854	1978000	20200
306.753	2006800	20300
306.651	1945600	20000
306.553	2021100	20000
306.452	1935800	20100
306.351	2003200	20300
306.253	1898300	20000
306.151	2011200	20000
306.05	1910400	20200
305.952	1983400	20000
305.851	1924200	20400
305.754	1942400	20400
305.651	1963900	20000
305.554	1943100	20400
305.452	1925500	20300
305.35	1907800	20000
305.253	1924700	20000
305.152	1901900	20000
305.05	1912200	20000
304.953	1915800	20200
304.851	1881800	20100
304.75	1894400	20100
304.653	1903900	20000
304.551	1901500	20000
304.454	1900600	20000
304.352	1888500	20000
304.348	1889600	20000
304.25	1897700	20100
304.247	1899000	20100
304.149	1904800	20000
304.048	1908600	20000
303.852	1893900	20000
303.751	1898100	20000
303.654	1898100	20000
303.552	1902400	20000
303.45	1894500	20000
303.349	1896200	20000
303.15	1906400	20000
302.951	1885100	20000
302.854	1889600	20000
302.752	1891400	20000
302.65	1899800	20000
302.647	1900100	20000
302.549	1891200	20000
302.451	1890300	20000
302.354	1894400	20000
302.256	1888500	20000
302.159	1898500	20000
302.061	1899800	20000
301.964	1888400	20100
301.866	1884700	20000
301.768	1883300	20000
301.671	1885900	20000
301.667	1887800	20000
301.569	1896800	20000
301.472	1892900	20100
301.374	1877300	20300
301.277	1861100	20000
301.179	1881200	20100
301.082	1880800	20000
300.984	1885200	20000
300.886	1883300	20000
300.789	1885700	20000
300.785	1882900	20000
300.687	1871300	20000
300.59	1873500	20000
300.492	1877500	20000
300.396	1880100	20000
300.297	1884400	20000
300.199	1876100	20000
300.102	1879700	20000
300.004	1870300	20100
299.907	1865300	20000
299.809	1870400	20000
299.712	1875400	20000
299.614	1873800	20000
299.516	1876300	20000
299.419	1872800	20100
299.322	1856400	20000
299.318	1858200	20000
299.22	1870300	20100
299.122	1876400	20000
299.025	1881300	20000
298.928	1874400	20100
298.83	1865800	20000
298.732	1860800	20000
298.635	1857900	20000
298.537	1868700	20000
298.439	1867300	20000
298.435	1868100	20000
298.338	1869500	20000
298.24	1857600	20100
298.143	1849900	20000
298.045	1856100	20000

System: benzonitrile + octadecane; phases: Liquid mixture 1, Liquid mixture 2, Air at 1 atmosphere
Property: Upper consolute temperature, K (Liquid mixture 1); method: VISOBS
Upper consolute temperature, K	uncertainty
309.4	0.5

System: benzonitrile + octadecane; phases: Liquid mixture 1, Liquid mixture 2, Air at 1 atmosphere
Property: Upper consolute composition: mole fraction of benzonitrile (Liquid mixture 1); method: method of "equal volume"
Upper consolute composition: mole fraction of benzonitrile	uncertainty
0.713	0.004

System: benzonitrile + octadecane; phases: Liquid
Fixed: Pressure, kPa = 101
Fixed: Mole fraction of benzonitrile = 0.713
Property: Heat capacity at constant pressure per volume, J/K/m3 (Liquid); method: DSC
Temperature, K	Heat capacity at constant pressure per volume, J/K/m3	uncertainty
341.499	1731200	20000
341.31	1731200	20000
341.121	1730900	20000
340.931	1730900	20000
340.742	1731100	20000
340.553	1730900	20000
340.364	1730700	20000
340.174	1730800	20000
339.986	1730600	20000
339.796	1730900	20000
339.607	1730700	20000
339.418	1730600	20000
339.228	1730200	20000
339.039	1730200	20000
338.85	1729600	20000
338.66	1729900	20000
338.471	1729900	20000
338.282	1729700	20000
338.093	1729300	20000
337.904	1729200	20000
337.715	1729200	20000
337.525	1729100	20000
337.336	1729200	20000
337.147	1729000	20000
336.957	1729000	20000
336.768	1729100	20000
336.579	1729000	20000
336.39	1728800	20000
336.2	1729000	20000
336.011	1729000	20000
335.822	1728600	20000
335.632	1728300	20000
335.444	1728300	20000
335.254	1728100	20000
335.065	1728100	20000
334.876	1728200	20000
334.687	1728100	20000
334.498	1727900	20000
334.308	1727700	20000
334.119	1727800	20000
333.93	1727700	20000
333.74	1728000	20000
333.551	1727600	20000
333.362	1727300	20000
333.173	1727400	20000
332.984	1727300	20000
332.794	1727400	20000
332.605	1727100	20000
332.416	1727100	20000
332.227	1727200	20000
332.038	1727200	20000
331.849	1727200	20000
331.659	1727200	20000
331.47	1727100	20000
331.281	1727300	20000
331.091	1727200	20000
330.902	1727000	20000
330.713	1727000	20000
330.523	1726800	20000
330.334	1726900	20000
330.145	1726900	20000
329.955	1726800	20000
329.767	1726700	20000
329.577	1726700	20000
329.388	1726800	20000
329.199	1726900	20000
329.009	1726800	20000
328.82	1726700	20000
328.631	1726600	20000
328.442	1726900	20000
328.253	1726700	20000
328.063	1726500	20000
327.874	1726500	20000
327.685	1726700	20000
327.496	1726500	20000
327.306	1726600	20000
327.117	1726400	20000
326.928	1726700	20000
326.739	1726700	20000
326.55	1726500	20000
326.361	1726600	20000
326.171	1726400	20000
325.982	1726300	20000
325.793	1726500	20000
325.603	1726500	20000
325.414	1726500	20000
325.225	1726500	20000
325.036	1726500	20000
324.847	1726700	20000
324.657	1726600	20000
324.468	1726600	20000
324.279	1726700	20000
324.09	1726700	20000
323.9	1726900	20000
323.712	1726800	20000
323.522	1726500	20000
323.333	1726700	20000
323.143	1726800	20000
322.954	1726900	20000
322.765	1726900	20000
322.576	1726600	20000
322.387	1726900	20000
322.197	1727200	20000
322.008	1727300	20000
321.819	1727200	20000
321.63	1727200	20000
321.44	1727400	20000
321.251	1727500	20000
321.062	1727600	20000
320.873	1727900	20000
320.684	1728000	20000
320.495	1728000	20000
320.305	1728000	20000
320.116	1728000	20000
319.927	1728200	20000
319.737	1728300	20000
319.548	1728600	20000
319.359	1728600	20000
319.17	1728800	20000
318.981	1729000	20000
318.791	1729200	20000
318.602	1729300	20000
318.413	1729400	20000
318.224	1729800	20000
318.034	1729900	20000
317.845	1730000	20000
317.656	1730100	20000
317.467	1730300	20000
317.277	1730800	20000
317.088	1731000	20000
316.899	1731300	20000
316.71	1731600	20000
316.52	1732000	20000
316.331	1732700	20000
316.142	1733100	20000
315.953	1733200	20000
315.763	1733400	20000
315.574	1733800	20000
315.385	1734200	20000
315.196	1734500	20000
315.078	1732600	20000
315.05	1735200	20000
315.022	1735000	20000
314.994	1735100	20000
314.965	1733300	20000
314.937	1734100	20000
314.909	1734300	20000
314.881	1735100	20000
314.853	1735600	20000
314.825	1736200	20000
314.797	1737400	20000
314.769	1733900	20000
314.74	1734500	20000
314.712	1733900	20000
314.684	1735100	20000
314.656	1737100	20000
314.628	1734500	20000
314.6	1735500	20000
314.572	1735300	20000
314.543	1735400	20000
314.516	1735300	20000
314.488	1735500	20000
314.46	1737000	20000
314.431	1736600	20000
314.403	1738700	20000
314.375	1736600	20000
314.347	1737400	20000
314.319	1736400	20000
314.291	1735200	20000
314.263	1736900	20000
314.235	1735200	20000
314.206	1737800	20000
314.178	1733500	20000
314.15	1737300	20000
314.122	1736800	20000
314.094	1737000	20000
314.066	1735400	20000
314.037	1736700	20000
314.01	1737700	20000
313.981	1738800	20000
313.953	1735100	20000
313.925	1738700	20000
313.897	1738100	20000
313.869	1738900	20000
313.841	1739200	20000
313.813	1739300	20000
313.785	1739100	20000
313.756	1739900	20000
313.728	1741200	20000
313.7	1740400	20000
313.672	1740500	20000
313.644	1741100	20000
313.616	1740700	20000
313.588	1739600	20000
313.56	1737700	20000
313.532	1739000	20000
313.504	1740800	20000
313.475	1742600	20000
313.447	1740900	20000
313.419	1739700	20000
313.391	1740700	20000
313.363	1741400	20000
313.334	1740400	20000
313.307	1739500	20000
313.279	1738800	20000
313.25	1739100	20000
313.223	1740000	20000
313.194	1743700	20000
313.166	1739000	20000
313.138	1742800	20000
313.11	1742400	20000
313.082	1741900	20000
313.054	1742800	20000
313.026	1742300	20000
312.998	1743500	20000
312.97	1744100	20000
312.941	1744500	20000
312.913	1746300	20000
312.885	1745000	20000
312.857	1743700	20000
312.829	1742500	20000
312.801	1741400	20000
312.772	1743700	20000
312.745	1744000	20000
312.716	1743800	20000
312.688	1745000	20000
312.66	1743700	20000
312.632	1744300	20000
312.604	1744400	20000
312.576	1745400	20000
312.548	1746800	20000
312.52	1745100	20000
312.491	1747600	20000
312.463	1743700	20000
312.435	1743500	20000
312.407	1744900	20000
312.379	1744700	20000
312.351	1746400	20000
312.323	1744700	20000
312.295	1746300	20000
312.267	1747800	20000
312.239	1746500	20000
312.21	1746700	20000
312.182	1746000	20000
312.154	1747500	20000
312.126	1749200	20000
312.098	1745700	20000
312.07	1750900	20000
312.041	1752800	20000
312.013	1746900	20000
311.986	1747400	20000
311.957	1749700	20000
311.929	1750300	20000
311.901	1751600	20000
311.873	1749800	20000
311.845	1749600	20000
311.817	1747200	20000
311.788	1748500	20000
311.761	1752000	20000
311.732	1751000	20000
311.704	1751800	20000
311.677	1753400	20000
311.648	1748600	20000
311.62	1752800	20000
311.592	1755100	20000
311.564	1754300	20000
311.536	1753000	20000
311.508	1751000	20000
311.48	1751100	20000
311.451	1754700	20000
311.423	1754200	20000
311.395	1755200	20000
311.367	1751900	20000
311.339	1755200	20000
311.31	1755300	20000
311.283	1754400	20000
311.254	1754900	20000
311.226	1756900	20000
311.198	1757900	20000
311.17	1757800	20000
311.142	1758800	20000
311.114	1758300	20000
311.086	1757600	20000
311.058	1758100	20000
311.029	1759800	20000
311.001	1759800	20000
310.974	1760600	20000
310.945	1761100	20000
310.917	1760700	20000
310.889	1760100	20000
310.861	1761100	20000
310.833	1757300	20000
310.804	1762200	20000
310.777	1762800	20000
310.748	1765000	20000
310.72	1763400	20000
310.692	1763300	20000
310.664	1764600	20000
310.636	1764400	20000
310.608	1764600	20000
310.58	1766300	20000
310.551	1768900	20000
310.523	1769800	20000
310.495	1768500	20000
310.467	1770500	20000
310.439	1771400	20000
310.411	1773500	20000
310.383	1771100	20000
310.354	1774100	20000
310.327	1772700	20000
310.298	1773400	20000
310.27	1775500	20000
310.242	1778600	20000
310.214	1778600	20000
310.186	1779800	20000
310.157	1779800	20000
310.13	1784300	20000
310.102	1782100	20000
310.073	1787100	20000
310.045	1785800	20000
310.017	1787500	20000
309.989	1790300	20100
309.961	1792800	20000
309.933	1792100	20100
309.904	1794300	20100
309.876	1798700	20100
309.848	1800700	20100
309.82	1803600	20100
309.793	1806800	20200
309.765	1810200	20200
309.736	1817500	20400
309.708	1819300	20800
309.68	1826700	23200
309.652	1833800	40000
309.624	1848200	35800
309.596	1869500	32600
309.567	1939300	31100
309.539	2201100	29100
309.511	2150900	26300
309.483	2108700	24300
309.455	2095200	21800
309.427	2070400	23400
309.399	2039600	21700
309.371	2025000	21400
309.343	2035200	21700
309.314	2064600	21000
309.286	2056100	20300
309.258	2022000	20000
309.23	1999200	20000
309.202	1997100	20700
309.174	2001300	21000
309.146	2018700	20400
309.118	2020100	20100
309.089	2003300	20000
309.061	1984100	20100
309.034	1975500	20000
309.005	1977300	20200
308.977	1992600	20300
308.949	2025600	20200
308.921	2016500	20100
308.893	1986400	20100
308.865	1967200	20300
308.836	1951000	20000
308.808	1952000	20100
308.78	1994600	20100
308.752	2032700	20300
308.724	2029400	20300
308.696	1999600	20000
308.668	1961900	20100
308.64	1927600	20000
308.612	1912700	20100
308.584	1941300	20400
308.555	2018100	20300
308.527	2043600	20000
308.5	2008600	20100
308.471	1951900	20100
308.443	1924300	20400
308.415	1912300	21000
308.387	1936500	20400
308.359	1959500	20000
308.33	1970700	20000
308.303	1971900	20100
308.274	1964400	20100
308.246	1946700	20000
308.218	1930400	20000
308.19	1937100	20200
308.161	1961600	20300
308.133	1970100	20000
308.105	1958000	20200
308.077	1941200	20000
308.049	1926900	20200
308.021	1944900	20200
307.993	1961700	20000
307.965	1951300	20000
307.937	1933900	20100
307.909	1938400	20000
307.881	1946700	20200
307.853	1949300	20000
307.824	1947000	20000
307.796	1938300	20000
307.769	1932400	20000
307.74	1939900	20100
307.712	1944000	20000
307.684	1942100	20000
307.656	1937300	20000
307.628	1932400	20000
307.6	1936200	20000
307.571	1936300	20000
307.543	1937500	20000
307.515	1940700	20000
307.487	1935300	20000
307.459	1934700	20000
307.431	1934400	20000
307.403	1932600	20000
307.374	1930400	20000
307.346	1931700	20000
307.318	1935200	20000
307.29	1928800	20000
307.262	1931000	20000
307.234	1925500	20000
307.206	1926400	20000
307.177	1928200	20000
307.149	1929100	20000
307.121	1927400	20000
307.093	1924600	20000
307.065	1932100	20000
307.037	1928000	20000
307.009	1924100	20000
306.981	1927500	20000
306.953	1929700	20000
306.925	1927300	20000
306.896	1923600	20000
306.868	1916900	20000
306.84	1920400	20000
306.812	1915900	20000
306.784	1915500	20000
306.756	1921100	20000
306.728	1922000	20000
306.7	1921800	20000
306.672	1922600	20000
306.644	1923600	20000
306.615	1922000	20000
306.587	1916400	20000
306.559	1920200	20000
306.531	1921200	20000
306.503	1918100	20000
306.475	1914800	20000
306.447	1911200	20000
306.419	1914500	20000
306.39	1910700	20000
306.363	1913300	20000
306.334	1916100	20000
306.306	1915700	20000
306.278	1918100	20000
306.25	1915600	20000
306.222	1914300	20000
306.193	1914700	20000
306.165	1913000	20000
306.138	1917300	20000
306.11	1917400	20000
306.081	1913500	20000
306.053	1913100	20000
306.025	1909600	20000
305.997	1906900	20000
305.969	1909700	20000
305.94	1909200	20000
305.912	1910100	20000
305.885	1911500	20000
305.856	1914100	20000
305.828	1908700	20000
305.8	1907500	20000
305.772	1910000	20000
305.743	1911100	20000
305.716	1909500	20000
305.687	1909100	20000
305.659	1908500	20000
305.632	1908200	20000
305.603	1906500	20000
305.575	1909200	20000
305.547	1908400	20000
305.519	1909000	20000
305.491	1908500	20000
305.463	1909400	20000
305.435	1908100	20000
305.407	1907700	20000
305.379	1906900	20000
305.35	1908400	20000
305.322	1908600	20000
305.294	1908300	20000
305.266	1907500	20000
305.237	1905700	20000
305.209	1904200	20000
305.181	1904700	20000
305.153	1908100	20000
305.125	1903100	20000
305.097	1907100	20000
305.069	1903000	20000
305.041	1902200	20000
305.013	1902200	20000
304.984	1900600	20000
304.956	1902600	20000
304.928	1903200	20000
304.9	1904600	20000
304.872	1904600	20000
304.844	1903700	20000
304.816	1904800	20000
304.788	1900400	20000
304.76	1899700	20000
304.732	1899600	20000
304.703	1904200	20000
304.676	1903500	20000
304.647	1901800	20000
304.619	1901200	20000
304.591	1903900	20000
304.563	1902200	20000
304.535	1903400	20000
304.506	1898500	20000
304.479	1895000	20000
304.45	1900400	20000
304.422	1904200	20000
304.394	1898900	20000
304.366	1899500	20000
304.338	1897300	20000
304.31	1900100	20000
304.282	1893900	20000
304.254	1900600	20000
304.225	1902700	20000
304.198	1897100	20000
304.169	1900600	20000
304.141	1899100	20000
304.113	1897800	20000
304.086	1899300	20000
304.057	1900800	20000
304.029	1897900	20000
304.001	1891800	20000
303.972	1899900	20000
303.944	1898400	20000
303.916	1898300	20000
303.888	1900300	20000
303.86	1892600	20000
303.832	1895200	20000
303.804	1893000	20000
303.776	1897000	20000
303.747	1897900	20000
303.72	1893700	20000
303.691	1893500	20000
303.664	1894100	20000
303.636	1894200	20000
303.607	1895600	20000
303.579	1893500	20000
