Measured thermophysical data. Thermochemical studies of 1-hydroxyisoquinoline, 5-hydroxyisoquinoline and 1,5-dihydroxyisoquinoline
Source: J. Chem. Thermodyn., 2005, 10.1016/j.jct.2005.03.009
Compound 1: carbon dioxide, CO2, InChI=1S/CO2/c2-1-3
Compound 2: nitrogen, N2, InChI=1S/N2/c1-2
Compound 3: water, H2O, InChI=1S/H2O/h1H2
Compound 4: oxygen, O2, InChI=1S/O2/c1-2
Compound 5: 1-hydroxyisoquinoline, C9H7NO, InChI=1S/C9H7NO/c11-9-8-4-2-1-3-7(8)5-6-10-9/h1-6H,(H,10,11)
Compound 6: 5-hydroxyisoquinoline, C9H7NO, InChI=1S/C9H7NO/c11-9-3-1-2-7-6-10-5-4-8(7)9/h1-6,11H
Compound 7: 1,5-dihydroxyisoquinoline, C9H7NO2, InChI=1S/C9H7NO2/c11-8-3-1-2-7-6(8)4-5-10-9(7)12/h1-5,11H,(H,10,12)

System: 1-hydroxyisoquinoline; phases: Gas
Property: Molar enthalpy, kJ/mol (Gas); method: drop microcalorimetry
Temperature, K	Pressure, kPa	Molar enthalpy, kJ/mol	uncertainty
462	101.3	144.9	4.4

System: 5-hydroxyisoquinoline; phases: Gas
Property: Molar enthalpy, kJ/mol (Gas); method: drop microcalorimetry
Temperature, K	Pressure, kPa	Molar enthalpy, kJ/mol	uncertainty
471	101.325	142.8	4.3

System: 1,5-dihydroxyisoquinoline; phases: Gas
Property: Molar enthalpy, kJ/mol (Gas); method: drop microcalorimetry
Temperature, K	Pressure, kPa	Molar enthalpy, kJ/mol	uncertainty
524	101.325	174.5	4.4

Reaction: -1 1-hydroxyisoquinoline + 9 carbon dioxide + .5 nitrogen + 3.5 water + -10.25 oxygen
Property: Specific internal energy of reaction at constant volume, J/g
-30264.3

Reaction: -1 5-hydroxyisoquinoline + 9 carbon dioxide + .5 nitrogen + 3.5 water + -10.25 oxygen
Property: Specific internal energy of reaction at constant volume, J/g
-30678.2

Reaction: -1 1,5-dihydroxyisoquinoline + 9 carbon dioxide + .5 nitrogen + 3.5 water + -9.75 oxygen
Property: Specific internal energy of reaction at constant volume, J/g
-26020.8
