Measured thermophysical data. Thermophysical property measurements on tetrabutylphosphonium sulfate ionic semiclathrate hydrate consisting of the bivalent anion
Source: J. Chem. Thermodyn., 2019, 10.1016/j.jct.2018.11.017
Compound 1: water, H2O, InChI=1S/H2O/h1H2
Compound 2: tetrabutylphosphonium sulfate, C32H72O4P2S, InChI=1S/2C16H36P.H2O4S/c2*1-5-9-13-17(14-10-6-2,15-11-7-3)16-12-8-4;1-5(2,3)4/h2*5-16H2,1-4H3;(H2,1,2,3,4)/q2*+1;/p-2, purity 99%

System: water + tetrabutylphosphonium sulfate; phases: Liquid, Crystal of intercomponent compound 1
Fixed: Pressure, kPa = 101
Property: Solid-liquid equilibrium temperature, K (Liquid); method: VISOBS
Mass fraction of tetrabutylphosphonium sulfate	Solid-liquid equilibrium temperature, K	uncertainty
0.156	273.55	0.2
0.208	276.45	0.2
0.26	278.45	0.2
0.311	279.45	0.2
0.343	279.55	0.2
0.363	279.65	0.2
0.374	279.65	0.2
0.384	279.65	0.2
0.405	279.35	0.2
0.415	279.15	0.2
