Measured thermophysical data. Densities and volume properties of (water + tert-butanol) over the temperature range of (274.15 to 348.15) K at pressure of 0.1 MPa
Source: J. Chem. Thermodyn., 2011, 10.1016/j.jct.2010.10.018
Compound 1: 2-methylpropan-2-ol, C4H10O, InChI=1S/C4H10O/c1-4(2,3)5/h5H,1-3H3, purity 99.5%
Compound 2: water, H2O, InChI=1S/H2O/h1H2, purity 99.8%

System: 2-methylpropan-2-ol; phases: Liquid
Fixed: Pressure, kPa = 101.325
Property: Mass density, kg/m3 (Liquid); method: Vibrating tube method
Temperature, K	Mass density, kg/m3	uncertainty
299.15	779.48	0.27
303.15	775.39	0.27
308.15	770.15	0.27
313.15	764.84	0.27
318.15	759.46	0.28
323.15	753.94	0.28
333.15	742.7	0.29
348.15	725.06	0.3

System: 2-methylpropan-2-ol + water; phases: Liquid
Fixed: Pressure, kPa = 101
Property: Mass density, kg/m3 (Liquid); method: Vibrating tube method
Temperature, K	Mole fraction of 2-methylpropan-2-ol	Mass density, kg/m3	uncertainty
274.15	0	999.899	0.106
274.15	0.00089	999.21	0.11
274.15	0.00146	998.81	0.11
274.15	0.00269	997.91	0.11
274.15	0.00403	997.02	0.11
274.15	0.00513	996.3	0.11
274.15	0.00761	994.82	0.11
274.15	0.01051	993.19	0.11
274.15	0.01405	991.42	0.11
274.15	0.01793	989.78	0.11
274.15	0.02241	988.11	0.11
274.15	0.03005	985.71	0.11
274.15	0.04242	982.79	0.11
274.15	0.08929	966.2	0.12
275.15	0	999.94	0.106
275.15	0.00089	999.25	0.11
275.15	0.00146	998.85	0.11
275.15	0.00269	997.96	0.11
275.15	0.00403	997.06	0.11
275.15	0.00513	996.34	0.11
275.15	0.00761	994.84	0.11
275.15	0.01051	993.21	0.11
275.15	0.01405	991.44	0.11
275.15	0.01793	989.78	0.11
275.15	0.02241	988.08	0.11
275.15	0.03005	985.63	0.11
275.15	0.04242	982.59	0.11
275.15	0.08929	965.24	0.12
276.15	0	999.964	0.106
276.15	0.00089	999.28	0.11
276.15	0.00146	998.89	0.11
276.15	0.00269	997.99	0.11
276.15	0.00403	997.09	0.11
276.15	0.00513	996.36	0.11
276.15	0.00761	994.86	0.11
276.15	0.01051	993.23	0.11
276.15	0.01405	991.43	0.11
276.15	0.01793	989.76	0.11
276.15	0.02241	988.02	0.11
276.15	0.03005	985.53	0.11
276.15	0.04242	982.37	0.11
276.15	0.08929	964.42	0.12
277.15	0	999.972	0.116
277.15	0.00089	999.29	0.12
277.15	0.00146	998.9	0.12
277.15	0.00269	998.01	0.11
277.15	0.00403	997.1	0.11
277.15	0.00513	996.37	0.11
277.15	0.00761	994.85	0.11
277.15	0.01405	991.42	0.11
278.15	0	999.964	0.106
278.15	0.00089	999.28	0.11
278.15	0.00146	998.89	0.11
278.15	0.00269	998.01	0.11
278.15	0.00403	997.1	0.11
278.15	0.00513	996.37	0.11
278.15	0.00761	994.85	0.11
278.15	0.01051	993.21	0.11
278.15	0.01405	991.41	0.11
278.15	0.01793	989.68	0.11
278.15	0.02241	987.87	0.11
278.15	0.0248	986.88	0.11
278.15	0.03005	985.29	0.11
278.15	0.03494	983.86	0.11
278.15	0.04241	981.87	0.11
278.15	0.04242	981.89	0.11
278.15	0.05218	979.23	0.11
278.15	0.05887	977	0.11
278.15	0.06973	972.66	0.11
278.15	0.08929	962.87	0.12
278.15	0.1125	951.21	0.12
278.15	0.15662	929.91	0.13
278.15	0.208	910.57	0.13
278.15	0.24076	899.29	0.13
278.15	0.30233	882.17	0.13
278.15	0.34507	872.16	0.14
278.15	0.4045	860.22	0.14
278.15	0.42247	857.05	0.14
278.15	0.46527	849.9	0.14
278.15	0.53444	839.61	0.15
278.15	0.60288	831.08	0.15
278.15	0.69092	821.72	0.15
278.15	0.72599	818.36	0.16
278.15	0.79993	812.56	0.16
279.15	0	999.94	0.106
279.15	0.00089	999.26	0.11
279.15	0.00146	998.87	0.11
279.15	0.00269	997.99	0.11
279.15	0.00403	997.08	0.11
279.15	0.00513	996.35	0.11
279.15	0.00761	994.79	0.11
279.15	0.01405	991.37	0.11
280.15	0	999.901	0.106
280.15	0.00089	999.22	0.11
280.15	0.00146	998.83	0.11
280.15	0.00269	997.95	0.11
280.15	0.00403	997.04	0.11
280.15	0.00513	996.31	0.11
280.15	0.00761	994.76	0.11
280.15	0.01051	993.13	0.11
280.15	0.01405	991.32	0.11
280.15	0.01793	989.57	0.11
280.15	0.02241	987.69	0.11
280.15	0.03005	985	0.11
280.15	0.04242	981.35	0.11
280.15	0.08929	961.26	0.12
281.15	0	999.848	0.106
281.15	0.00089	999.17	0.11
281.15	0.00146	998.78	0.11
281.15	0.00269	997.9	0.11
281.15	0.00403	996.99	0.11
281.15	0.00513	996.26	0.11
281.15	0.00761	994.7	0.11
281.15	0.01405	991.25	0.11
282.15	0	999.781	0.106
282.15	0.00089	999.1	0.11
282.15	0.00146	998.72	0.11
282.15	0.00269	997.84	0.11
282.15	0.00403	996.93	0.11
282.15	0.00513	996.19	0.11
282.15	0.00761	994.63	0.11
282.15	0.01405	991.16	0.11
283.15	0	999.699	0.106
283.15	0.00089	999.02	0.11
283.15	0.00146	998.63	0.11
283.15	0.00269	997.76	0.11
283.15	0.00403	996.85	0.11
283.15	0.00513	996.12	0.11
283.15	0.00761	994.57	0.11
283.15	0.01405	991.06	0.11
288.15	0	999.09	0.106
288.15	0.00089	998.43	0.11
288.15	0.00146	998.04	0.11
288.15	0.00269	997.17	0.11
288.15	0.00403	996.26	0.11
288.15	0.00513	995.52	0.11
288.15	0.00761	993.96	0.11
288.15	0.01405	990.35	0.11
288.15	0.0248	985.26	0.11
288.15	0.03494	981.48	0.11
288.15	0.04241	978.77	0.11
288.15	0.05218	974.85	0.11
288.15	0.05887	971.81	0.11
288.15	0.06973	966.34	0.12
288.15	0.1125	943.7	0.12
288.15	0.15662	922.09	0.12
288.15	0.208	902.66	0.129
288.15	0.24076	891.25	0.131
288.15	0.30233	874	0.136
288.15	0.34507	863.89	0.138
288.15	0.4045	851.78	0.142
288.15	0.42247	848.63	0.143
288.15	0.46527	841.48	0.145
288.15	0.53444	830.98	0.149
288.15	0.60288	822.27	0.152
288.15	0.69092	812.77	0.156
288.15	0.72599	809.38	0.158
288.15	0.79993	803.46	0.161
288.15	0.8711	797.8	0.165
288.15	0.9183	794.66	0.166
298.15	0	997.043	0.107
298.15	0.00089	996.39	0.11
298.15	0.00146	996	0.11
298.15	0.00269	995.11	0.111
298.15	0.00403	994.19	0.111
298.15	0.00513	993.44	0.111
298.15	0.00761	991.84	0.11
298.15	0.01405	988.08	0.11
298.15	0.0248	982.45	0.11
298.15	0.03494	977.97	0.11
298.15	0.04241	974.54	0.11
298.15	0.05218	969.58	0.11
298.15	0.05887	965.94	0.12
298.15	0.06973	959.94	0.12
298.15	0.1125	936.18	0.12
298.15	0.15662	914.18	0.13
298.15	0.208	894.55	0.13
298.15	0.24076	883.06	0.13
298.15	0.30233	865.6	0.14
298.15	0.34507	855.48	0.14
298.15	0.4045	843.11	0.14
298.15	0.42247	839.94	0.15
298.15	0.46527	832.83	0.15
298.15	0.53444	822.05	0.15
298.15	0.60288	813.22	0.15
298.15	0.69092	803.57	0.16
298.15	0.72599	800.1	0.16
298.15	0.79993	794.07	0.16
298.15	0.8711	788.3	0.17
298.15	0.9183	785.07	0.17
298.15	0.95735	782.74	0.17
298.15	0.96519	782.29	0.17
298.15	0.97953	781.56	0.17
298.15	0.98732	781.18	0.17
298.15	0.99353	780.83	0.17
298.15	0.99628	780.69	0.17
299.15	0.98212	780.36	0.17
299.15	0.99436	779.76	0.17
299.15	0.99599	779.69	0.17
299.15	1	779.48	0.17
303.15	0.98212	776.31	0.17
303.15	0.99436	775.66	0.17
303.15	0.99599	775.58	0.17
303.15	1	775.39	0.17
308.15	0	994.029	0.108
308.15	0.00089	993.36	0.11
308.15	0.00146	992.96	0.11
308.15	0.00269	992.08	0.11
308.15	0.00403	991.15	0.11
308.15	0.00513	990.39	0.11
308.15	0.00761	988.7	0.11
308.15	0.01405	984.86	0.11
308.15	0.0248	978.65	0.11
308.15	0.03494	973.48	0.11
308.15	0.04241	969.43	0.11
308.15	0.05218	963.7	0.12
308.15	0.05887	959.67	0.12
308.15	0.06973	953.09	0.12
308.15	0.1125	928.56	0.12
308.15	0.15662	906.33	0.13
308.15	0.208	886.22	0.13
308.15	0.24076	874.67	0.14
308.15	0.30233	856.97	0.14
308.15	0.34507	846.68	0.14
308.15	0.4045	834.17	0.15
308.15	0.42247	830.99	0.15
308.15	0.46527	823.8	0.15
308.15	0.53444	812.83	0.15
308.15	0.60288	803.86	0.16
308.15	0.69092	794.03	0.16
308.15	0.72599	790.54	0.16
308.15	0.79993	784.37	0.17
308.15	0.8711	778.45	0.17
308.15	0.9183	775.09	0.17
308.15	0.95735	772.63	0.17
308.15	0.96519	772.13	0.17
308.15	0.97953	771.34	0.17
308.15	0.98212	771.14	0.17
308.15	0.99436	770.47	0.17
308.15	0.99599	770.38	0.17
308.15	1	770.14	0.17
313.15	0.98212	765.88	0.18
313.15	0.99436	765.18	0.18
313.15	0.99599	765.09	0.18
313.15	1	764.84	0.18
318.15	0.98212	760.53	0.18
318.15	0.99436	759.8	0.2
318.15	0.99599	759.71	0.18
318.15	1	759.46	0.18
323.15	0	988.03	0.109
323.15	0.00089	987.36	0.11
323.15	0.00146	986.95	0.11
323.15	0.00269	986.1	0.11
323.15	0.00403	985.16	0.11
323.15	0.00513	984.39	0.11
323.15	0.00761	982.75	0.11
323.15	0.01405	978.38	0.11
323.15	0.0248	971.52	0.11
323.15	0.03494	965.43	0.12
323.15	0.04241	960.77	0.12
323.15	0.05218	954.06	0.12
323.15	0.05887	949.57	0.12
323.15	0.06973	942.66	0.12
323.15	0.1125	916.92	0.13
323.15	0.15662	893.97	0.13
323.15	0.208	873.34	0.14
323.15	0.24076	861.46	0.14
323.15	0.30233	843.45	0.14
323.15	0.34507	832.95	0.15
323.15	0.4045	820.18	0.15
323.15	0.42247	816.91	0.15
323.15	0.46527	809.6	0.15
323.15	0.53444	798.37	0.16
323.15	0.60288	789.18	0.16
323.15	0.69092	779.13	0.17
323.15	0.72599	775.51	0.17
323.15	0.79993	769.18	0.17
323.15	0.8711	763	0.17
323.15	0.9183	759.52	0.18
323.15	0.95735	756.76	0.18
323.15	0.96519	756.21	0.18
323.15	0.97953	755.31	0.18
323.15	0.98212	755.09	0.18
323.15	0.99436	754.31	0.18
323.15	0.99599	754.22	0.18
323.15	1	753.94	0.18
333.15	0	983.191	0.11
333.15	0.00089	982.51	0.11
333.15	0.00146	982.1	0.11
333.15	0.00269	981.23	0.11
333.15	0.00403	980.3	0.11
333.15	0.00513	979.52	0.11
333.15	0.00761	977.87	0.11
333.15	0.01405	973.36	0.12
333.15	0.0248	965.88	0.12
333.15	0.03494	959.46	0.12
333.15	0.04241	954.72	0.12
333.15	0.05218	947.17	0.12
333.15	0.05887	942.74	0.12
333.15	0.06973	935.49	0.12
333.15	0.1125	908.96	0.13
333.15	0.15662	885.44	0.13
333.15	0.208	864.42	0.14
333.15	0.24076	852.37	0.14
333.15	0.30233	834.38	0.15
333.15	0.34507	823.51	0.15
333.15	0.4045	810.41	0.15
333.15	0.42247	807.23	0.15
333.15	0.46527	799.78	0.16
333.15	0.53444	788.31	0.16
333.15	0.60288	778.96	0.16
333.15	0.69092	768.71	0.17
333.15	0.72599	765.01	0.17
333.15	0.79993	758.52	0.17
333.15	0.8711	752.17	0.18
333.15	0.9183	748.6	0.18
333.15	0.95735	745.7	0.18
333.15	0.96519	745.12	0.18
333.15	0.97953	744.15	0.18
333.15	0.98212	743.92	0.18
333.15	0.99436	743.11	0.18
333.15	0.99599	743.02	0.18
333.15	1	742.7	0.2
348.15	0	974.838	0.112
348.15	0.00089	974.22	0.11
348.15	0.00146	973.75	0.11
348.15	0.00269	973.04	0.11
348.15	0.00403	972.25	0.11
348.15	0.00513	971.5	0.11
348.15	0.00761	969.81	0.12
348.15	0.01405	965	0.12
348.15	0.0248	957.02	0.12
348.15	0.03494	949.37	0.12
348.15	0.04241	944.24	0.12
348.15	0.05218	936.2	0.12
348.15	0.05887	931.84	0.12
348.15	0.06973	924.4	0.12
348.15	0.1125	896.84	0.13
348.15	0.15662	872.83	0.13
348.15	0.208	850.42	0.14
348.15	0.24076	838.25	0.14
348.15	0.30233	820.05	0.15
348.15	0.34507	808.66	0.15
348.15	0.4045	795.17	0.16
348.15	0.42247	792.36	0.16
348.15	0.46527	784.18	0.16
348.15	0.53444	772.8	0.16
348.15	0.60288	763.18	0.17
348.15	0.69092	752.22	0.17
348.15	0.72599	748.55	0.17
348.15	0.79993	741.72	0.18
348.15	0.8711	734.96	0.18
348.15	0.9183	731.4	0.18
348.15	0.95735	728.29	0.18
348.15	0.96519	727.67	0.18
348.15	0.97953	726.63	0.19
348.15	0.98212	726.41	0.19
348.15	0.99436	725.51	0.19
348.15	0.99599	725.4	0.2
348.15	1	725.05	0.19
