Measured thermophysical data. Standard molar enthalpies of formation of 1-methyl-2-piperidinemethanol, 1-piperidineethanol, and 2-piperidineethanol
Source: J. Chem. Thermodyn., 2006, 10.1016/j.jct.2006.01.005
Compound 1: carbon dioxide, CO2, InChI=1S/CO2/c2-1-3
Compound 2: nitrogen, N2, InChI=1S/N2/c1-2
Compound 3: water, H2O, InChI=1S/H2O/h1H2
Compound 4: oxygen, O2, InChI=1S/O2/c1-2
Compound 5: 1-methyl-2-piperidinemethanol, C7H15NO, InChI=1S/C7H15NO/c1-8-5-3-2-4-7(8)6-9/h7,9H,2-6H2,1H3
Compound 6: 1-(2-hydroxyethyl)piperidine, C7H15NO, InChI=1S/C7H15NO/c9-7-6-8-4-2-1-3-5-8/h9H,1-7H2
Compound 7: 2-(2-hydroxyethyl)piperidine, C7H15NO, InChI=1S/C7H15NO/c9-6-4-7-3-1-2-5-8-7/h7-9H,1-6H2

System: 1-methyl-2-piperidinemethanol; phases: Gas
Property: Molar enthalpy, kJ/mol (Gas); method: Drop calorimetry
Temperature, K	Pressure, kPa	Molar enthalpy, kJ/mol	uncertainty
328.9	100	73.39	1.71

System: 1-(2-hydroxyethyl)piperidine; phases: Gas
Property: Molar enthalpy, kJ/mol (Gas); method: Drop calorimetry
Temperature, K	Pressure, kPa	Molar enthalpy, kJ/mol	uncertainty
326.8	100	68.8	1.68

System: 2-(2-hydroxyethyl)piperidine; phases: Gas
Property: Molar enthalpy, kJ/mol (Gas); method: Drop calorimetry
Temperature, K	Pressure, kPa	Molar enthalpy, kJ/mol	uncertainty
339.1	100	82.61	1.92

Reaction: -1 1-(2-hydroxyethyl)piperidine + 7 carbon dioxide + .5 nitrogen + 7.5 water + -10.25 oxygen
Property: Specific internal energy of reaction at constant volume, J/g
-35513.9

Reaction: -1 2-(2-hydroxyethyl)piperidine + 7 carbon dioxide + .5 nitrogen + 7.5 water + -10.25 oxygen
Property: Specific internal energy of reaction at constant volume, J/g
-35289.3

Reaction: -1 1-methyl-2-piperidinemethanol + 7 carbon dioxide + .5 nitrogen + 7.5 water + -10.25 oxygen
Property: Specific internal energy of reaction at constant volume, J/g
-35537.7
