Measured thermophysical data. P.rho.Tx properties of binary R134a/R245fa system
Source: J. Chem. Thermodyn., 2019, 10.1016/j.jct.2019.03.016
Compound 1: 1,1,1,3,3-pentafluoropropane, C3H3F5, InChI=1S/C3H3F5/c4-2(5)1-3(6,7)8/h2H,1H2, purity 99.99%
Compound 2: 1,1,1,2-tetrafluoroethane, C2H2F4, InChI=1S/C2H2F4/c3-1-2(4,5)6/h1H2, purity 99.9%
Compound 3: trans-1,3,3,3-tetrafluoropropene, C3H2F4, InChI=1S/C3H2F4/c4-2-1-3(5,6)7/h1-2H/b2-1+, purity 99.99%

System: trans-1,3,3,3-tetrafluoropropene; phases: Liquid, Gas
Property: Vapor or sublimation pressure, kPa (Liquid); method: ISOPVT
Temperature, K	Vapor or sublimation pressure, kPa	uncertainty
338.102	1434.8	8.1
332.541	1258.1	8.1
327.655	1116.6	8.1
322.865	989.8	8.1
318.005	872.7	8.1
313.119	766.4	8.1
308.323	670.6	8.1
303.527	584.6	8.1
298.221	499.4	8.1

System: 1,1,1,3,3-pentafluoropropane + 1,1,1,2-tetrafluoroethane; phases: Gas
Property: Mass density, kg/m3 (Gas); method: Burnett expansion method
Temperature, K	Pressure, kPa	Mass fraction of 1,1,1,2-tetrafluoroethane	Mass density, kg/m3	uncertainty
335.157	591.5	0.3	29.3152	0.5301
335.153	458.2	0.3	22.0567	0.4673
335.153	352.3	0.3	16.5952	0.4262
335.155	269.4	0.3	12.486	0.3999
335.155	205.3	0.3	9.3943	0.383
335.162	156.1	0.3	7.068	0.372
330.175	522.7	0.3	26.0685	0.507
330.175	404	0.3	19.6137	0.4542
330.175	310.1	0.3	14.7571	0.4199
330.172	236.8	0.3	11.1032	0.3981
330.172	180.4	0.3	8.3539	0.3838
330.175	137.1	0.3	6.2853	0.3744
325.276	473.9	0.3	24.0308	0.4977
325.273	366.4	0.3	18.0807	0.4505
325.27	281.3	0.3	13.6038	0.4199
325.266	214.9	0.3	10.2355	0.4003
325.258	163.8	0.3	7.7013	0.3873
320.161	405.9	0.3	20.7295	0.4783
320.161	313.1	0.3	15.5967	0.4403
320.16	239.9	0.3	11.7348	0.4159
320.161	183.2	0.3	8.8291	0.3998
320.16	139.5	0.3	6.6429	0.3892
315.178	302.3	0.3	15.3168	0.4451
315.152	231.8	0.3	11.5251	0.4211
315.137	176.9	0.3	8.6718	0.4057
315.13	134.8	0.3	6.5247	0.3951
310.146	300.4	0.3	15.6238	0.4564
310.143	230.9	0.3	11.7553	0.431
310.145	176.6	0.3	8.8445	0.4145
310.145	134.7	0.3	6.6545	0.4032
305.178	256.7	0.3	13.4885	0.4505
305.173	197.1	0.3	10.1488	0.4296
305.167	150.6	0.3	7.636	0.4159
300.097	213.5	0.3	11.3187	0.4453
300.098	163.6	0.3	8.516	0.4288
300.098	124.9	0.3	6.4074	0.4175
335.153	618.8	0.35	30.2714	0.534
335.153	479.7	0.35	22.7759	0.468
335.146	368.8	0.35	17.1367	0.4248
335.145	281.9	0.35	12.8935	0.3973
335.142	214.9	0.35	9.701	0.3794
335.142	163.4	0.35	7.2989	0.3679
330.23	535.4	0.35	26.3432	0.5049
330.223	413.7	0.35	19.8207	0.4511
330.225	317.6	0.35	14.9128	0.4161
330.229	242.7	0.35	11.2201	0.3936
330.229	184.8	0.35	8.4419	0.3792
330.22	140.4	0.35	6.3517	0.3699
325.235	508.1	0.35	25.4361	0.5036
325.231	392.9	0.35	19.1381	0.4523
325.225	301.6	0.35	14.3995	0.4192
325.221	230.5	0.35	10.8342	0.3979
325.227	175.6	0.35	8.1514	0.384
325.236	133.5	0.35	6.1328	0.3748
320.146	425.6	0.35	21.3925	0.4771
320.142	328.1	0.35	16.0957	0.4374
320.14	251.4	0.35	12.1103	0.4119
320.139	191.8	0.35	9.1117	0.3955
320.142	146.1	0.35	6.8555	0.3843
315.157	381.2	0.35	19.4607	0.4705
315.156	293.9	0.35	14.642	0.4356
315.15	225.1	0.35	11.0167	0.4133
315.152	171.8	0.35	8.2888	0.3986
315.155	130.9	0.35	6.2363	0.3884
310.19	340.6	0.35	17.6835	0.4664
310.188	262.9	0.35	13.305	0.4352
310.189	201.4	0.35	10.0105	0.4154
310.191	153.6	0.35	7.5317	0.4026
305.186	260.6	0.35	13.4122	0.4421
305.188	199.7	0.35	10.0911	0.422
305.188	152.5	0.35	7.5924	0.4086
300.123	231.2	0.35	12.1011	0.4432
300.123	177.2	0.35	9.1047	0.4253
300.123	135.3	0.35	6.8503	0.4133
335.237	651.2	0.4	31.4559	0.5403
335.238	504.8	0.4	23.667	0.4705
335.243	388.3	0.4	17.8065	0.4246
335.253	297	0.4	13.397	0.3951
335.238	226.4	0.4	10.0802	0.3762
335.238	172.2	0.4	7.5843	0.3639
330.221	574.5	0.4	27.9735	0.5143
330.221	444.5	0.4	21.0469	0.4553
330.222	341.4	0.4	15.8354	0.4169
330.227	260.9	0.4	11.9142	0.3923
330.225	198.8	0.4	8.9642	0.3764
330.225	151.2	0.4	6.7445	0.3659
325.202	519.8	0.4	25.5247	0.4982
325.199	401.3	0.4	19.2047	0.4469
325.201	307.8	0.4	14.4493	0.4137
325.203	235.1	0.4	10.8714	0.3923
325.203	179.1	0.4	8.1795	0.3783
325.202	136.1	0.4	6.1542	0.3692
320.126	458.4	0.4	22.8449	0.4839
320.122	353.9	0.4	17.1885	0.4399
320.122	271.4	0.4	12.9324	0.4116
320.125	207.3	0.4	9.7301	0.3932
320.128	157.9	0.4	7.3208	0.3812
315.143	408	0.4	20.4322	0.4697
315.148	314.1	0.4	15.3727	0.4328
315.148	240.4	0.4	11.5663	0.4092
315.146	183.4	0.4	8.7024	0.3937
315.146	139.6	0.4	6.5476	0.3834
310.167	342.9	0.4	17.369	0.4557
310.166	263.7	0.4	13.0683	0.4264
310.163	201.7	0.4	9.8326	0.4075
310.166	153.9	0.4	7.3978	0.3947
305.174	287.3	0.4	14.6892	0.4454
305.173	220.1	0.4	11.052	0.423
305.173	168.5	0.4	8.3154	0.4072
305.173	128.4	0.4	6.2564	0.397
300.193	245.9	0.4	12.6914	0.4401
300.19	188.5	0.4	9.5489	0.4212
300.175	143.9	0.4	7.1849	0.4086
335.242	650.6	0.45	30.9076	0.5311
335.242	504	0.45	23.2546	0.4628
335.242	387.5	0.45	17.4965	0.4178
335.242	296.4	0.45	13.1642	0.3889
335.242	225.8	0.45	9.9046	0.3705
335.238	171.7	0.45	7.4522	0.3586
330.195	628.8	0.45	30.374	0.5313
330.195	487.5	0.45	22.8531	0.4646
330.194	374.8	0.45	17.1944	0.4211
330.194	286.7	0.45	12.9369	0.393
330.194	218.5	0.45	9.7336	0.375
330.196	166.1	0.45	7.3234	0.3635
325.215	533.4	0.45	25.8061	0.4957
325.213	411.9	0.45	19.4163	0.4433
325.212	315.8	0.45	14.6087	0.4095
325.217	241.2	0.45	10.9912	0.3877
325.216	183.6	0.45	8.2697	0.3738
325.217	139.5	0.45	6.222	0.3645
320.223	543.6	0.45	27.409	0.5205
320.223	423.3	0.45	20.6222	0.4617
320.229	326	0.45	15.5156	0.4239
320.229	249.6	0.45	11.6738	0.3995
320.227	190.3	0.45	8.7833	0.384
320.227	144.8	0.45	6.6084	0.3736
315.238	431.1	0.45	21.3867	0.4727
315.234	332.3	0.45	16.0913	0.4329
315.231	254.6	0.45	12.107	0.4072
315.233	194.3	0.45	9.1091	0.3907
315.236	147.9	0.45	6.8535	0.3797
310.072	387.6	0.45	19.6294	0.4687
310.072	299.2	0.45	14.769	0.4329
310.077	229.4	0.45	11.1118	0.4098
310.072	175.1	0.45	8.3605	0.3949
310.076	133.4	0.45	6.2903	0.3847
305.211	313.2	0.45	15.8786	0.4481
305.208	240.9	0.45	11.947	0.4219
305.208	184.2	0.45	8.9888	0.405
305.208	140.4	0.45	6.7631	0.3938
300.146	264	0.45	13.4603	0.4387
300.139	202.5	0.45	10.1276	0.4182
300.144	154.6	0.45	7.6198	0.4048
335.242	697.5	0.5	32.7487	0.5437
335.242	540.7	0.5	24.6398	0.4695
335.242	415.9	0.5	18.5387	0.4203
335.241	318.1	0.5	13.9484	0.3887
335.244	242.4	0.5	10.4945	0.3686
335.252	184.3	0.5	7.8958	0.3556
330.11	704.8	0.5	34.142	0.564
330.103	548.6	0.5	25.6886	0.4852
330.109	423.2	0.5	19.3275	0.4328
330.109	324.4	0.5	14.5418	0.3988
330.105	247.6	0.5	10.9412	0.3771
330.104	188.3	0.5	8.2321	0.3634
325.239	600.3	0.5	28.9865	0.5199
325.234	465	0.5	21.8094	0.4575
325.224	357.4	0.5	16.4097	0.4168
325.233	273.3	0.5	12.3461	0.3906
325.232	208.3	0.5	9.2891	0.3738
325.233	158.3	0.5	6.989	0.363
320.231	535.4	0.5	26.0389	0.4991
320.231	413.8	0.5	19.5914	0.4458
320.226	317.5	0.5	14.7406	0.4114
320.227	242.6	0.5	11.0906	0.3892
320.226	184.7	0.5	8.3445	0.3751
320.231	140.4	0.5	6.2782	0.3656
315.247	471.9	0.5	23.2488	0.4829
315.243	364.5	0.5	17.4924	0.4376
315.241	279.6	0.5	13.1611	0.4084
315.241	213.5	0.5	9.9023	0.3896
315.241	162.6	0.5	7.4504	0.3773
310.064	400.8	0.5	19.9081	0.4637
310.062	308.8	0.5	14.9787	0.4277
310.064	236.5	0.5	11.2697	0.4045
310.066	180.5	0.5	8.4792	0.3893
310.068	137.4	0.5	6.3796	0.3793
305.194	342.7	0.5	17.2188	0.452
305.194	263.8	0.5	12.9552	0.4225
305.192	202	0.5	9.7474	0.4034
305.186	154	0.5	7.334	0.391
300.143	274.4	0.5	13.7062	0.4321
300.141	210	0.5	10.3098	0.4118
300.142	160.2	0.5	7.7606	0.3986
335.152	823.8	0.55	39.3455	0.6075
335.146	643.8	0.55	29.6037	0.5115
335.14	497.9	0.55	22.2739	0.4467
335.136	382.3	0.55	16.7588	0.4043
335.133	292.1	0.55	12.6092	0.377
335.133	222.4	0.55	9.4871	0.3598
335.135	169	0.55	7.1379	0.3486
330.193	752.5	0.55	36.1914	0.5803
330.192	586.9	0.55	27.2301	0.4946
330.19	453.2	0.55	20.4877	0.4373
330.192	347.6	0.55	15.4146	0.4001
330.195	265.4	0.55	11.5977	0.3763
330.197	202	0.55	8.7259	0.3611
330.201	153.4	0.55	6.5652	0.3513
325.201	628.8	0.55	30.0651	0.5259
325.198	487.4	0.55	22.6209	0.46
325.198	375	0.55	17.0197	0.4166
325.198	286.9	0.55	12.8054	0.3887
325.198	218.7	0.55	9.6347	0.3709
325.208	166.2	0.55	7.2488	0.3596
320.173	593.8	0.55	29.12	0.5254
320.172	461.6	0.55	21.9097	0.4619
320.172	355.6	0.55	16.4846	0.4203
320.172	272.4	0.55	12.4028	0.3935
320.172	207.8	0.55	9.3317	0.3763
320.172	158.1	0.55	7.0211	0.3651
315.224	511.1	0.55	25.021	0.4935
315.227	395.4	0.55	18.8254	0.4429
315.229	303.7	0.55	14.1639	0.41
315.225	232.1	0.55	10.6569	0.389
315.227	176.8	0.55	8.0181	0.3754
315.228	134.5	0.55	6.0327	0.3661
310.106	454.5	0.55	22.6526	0.4826
310.1	352.2	0.55	17.0439	0.4379
310.098	270.5	0.55	12.8237	0.4093
310.1	206.7	0.55	9.6484	0.391
310.1	157.5	0.55	7.2593	0.3789
305.165	316.9	0.55	15.5826	0.4356
305.161	243.3	0.55	11.7243	0.4104
305.161	186	0.55	8.8212	0.3939
305.165	141.8	0.55	6.6369	0.3828
300.135	312	0.55	15.605	0.4418
300.134	239.6	0.55	11.7411	0.4166
300.127	183.2	0.55	8.8341	0.4001
300.127	139.7	0.55	6.6467	0.3889
