Measured thermophysical data. Solubility modelling and thermodynamic properties of allopurinol in aqueous solutions of four deep eutectic solvents
Source: J. Chem. Thermodyn., 2019, 10.1016/j.jct.2019.01.018
Compound 1: allopurinol, C5H4N4O, InChI=1S/C5H4N4O/c10-5-3-1-8-9-4(3)6-2-7-5/h1-2H,(H2,6,7,8,9,10)
Compound 2: choline chloride, C5H14ClNO, InChI=1S/C5H14NO.ClH/c1-6(2,3)4-5-7;/h7H,4-5H2,1-3H3;1H/q+1;/p-1, purity 99.5%
Compound 3: urea, CH4N2O, InChI=1S/CH4N2O/c2-1(3)4/h(H4,2,3,4), purity 99.6%
Compound 4: glycerol, C3H8O3, InChI=1S/C3H8O3/c4-1-3(6)2-5/h3-6H,1-2H2, purity 99.4%
Compound 5: citric acid, C6H8O7, InChI=1S/C6H8O7/c7-3(8)1-6(13,5(11)12)2-4(9)10/h13H,1-2H2,(H,7,8)(H,9,10)(H,11,12), purity 99.4%
Compound 6: 1,2-ethanediol, C2H6O2, InChI=1S/C2H6O2/c3-1-2-4/h3-4H,1-2H2, purity 99.5%
Compound 7: water, H2O, InChI=1S/H2O/h1H2, purity 99.8%

System: choline chloride + urea; phases: Liquid
Property: Mass density, kg/m3 (Liquid); method: Vibrating tube method
Mole fraction of choline chloride	Pressure, kPa	Temperature, K	Mass density, kg/m3	uncertainty
0.333	101.1	298.15	1210.4	15.9

System: choline chloride + urea; phases: Liquid
Property: Viscosity, Pa*s (Liquid); method: Falling or rolling sphere viscometry
Mole fraction of choline chloride	Pressure, kPa	Temperature, K	Viscosity, Pa*s	uncertainty
0.333	101.1	298.15	1.34832	0.31563

System: choline chloride + glycerol; phases: Liquid
Property: Mass density, kg/m3 (Liquid); method: Vibrating tube method
Mole fraction of choline chloride	Pressure, kPa	Temperature, K	Mass density, kg/m3	uncertainty
0.333	101.1	298.15	1191.3	15.7

System: choline chloride + glycerol; phases: Liquid
Property: Viscosity, Pa*s (Liquid); method: Falling or rolling sphere viscometry
Mole fraction of choline chloride	Pressure, kPa	Temperature, K	Viscosity, Pa*s	uncertainty
0.333	101.1	298.15	0.31714	0.06907

System: choline chloride + 1,2-ethanediol; phases: Liquid
Property: Mass density, kg/m3 (Liquid); method: Vibrating tube method
Mole fraction of choline chloride	Pressure, kPa	Temperature, K	Mass density, kg/m3	uncertainty
0.333	101.1	298.15	1120.4	14.7

System: choline chloride + 1,2-ethanediol; phases: Liquid
Property: Viscosity, Pa*s (Liquid); method: Falling or rolling sphere viscometry
Mole fraction of choline chloride	Pressure, kPa	Temperature, K	Viscosity, Pa*s	uncertainty
0.333	101.1	298.15	0.039452	0.008291

System: choline chloride + citric acid + water; phases: Liquid
Property: Mass density, kg/m3 (Liquid); method: Vibrating tube method
Mole fraction of choline chloride	Mole fraction of citric acid	Pressure, kPa	Temperature, K	Mass density, kg/m3	uncertainty
0.0769	0.0769	101.1	298.15	1197.8	15.6

System: choline chloride + citric acid + water; phases: Liquid
Property: Viscosity, Pa*s (Liquid); method: Falling or rolling sphere viscometry
Mole fraction of choline chloride	Mole fraction of citric acid	Pressure, kPa	Temperature, K	Viscosity, Pa*s	uncertainty
0.0769	0.0769	101.1	298.15	0.013211	0.002776

System: allopurinol + choline chloride + glycerol; phases: Liquid, Crystal
Fixed: Pressure, kPa = 101.1
Fixed: Solvent: Mole fraction of choline chloride = 0.333
Property: Mole fraction of allopurinol (Liquid); method: Chromatography
Temperature, K	Mole fraction of allopurinol	uncertainty
293.15	0.0009671	0.0002901
298.15	0.001101	0.00033
303.15	0.001261	0.000378
308.15	0.00142	0.000426
313.15	0.001601	0.00048
318.15	0.00181	0.000543
323.15	0.002011	0.000603
328.15	0.00226	0.000678
333.15	0.002511	0.000753

System: allopurinol + choline chloride + 1,2-ethanediol; phases: Liquid, Crystal
Fixed: Pressure, kPa = 101.1
Fixed: Solvent: Mole fraction of choline chloride = 0.333
Property: Mole fraction of allopurinol (Liquid); method: Chromatography
Temperature, K	Mole fraction of allopurinol	uncertainty
293.15	0.0006574	0.0001972
298.15	0.000806	0.0002418
303.15	0.000972	0.0002916
308.15	0.001161	0.000348
313.15	0.00137	0.000411
318.15	0.001611	0.000483
323.15	0.00186	0.000558
328.15	0.002181	0.000654
333.15	0.002581	0.000774
