Measured thermophysical data. Extraction of pentylbenzene from high molar mass alkanes (C14 and C17) by N-methyl-2-pyrrolidone
Source: J. Chem. Thermodyn., 2006, 10.1016/j.jct.2005.06.012
Compound 1: N-methylpyrrolidone, C5H9NO, InChI=1S/C5H9NO/c1-6-4-2-3-5(6)7/h2-4H2,1H3
Compound 2: tetradecane, C14H30, InChI=1S/C14H30/c1-3-5-7-9-11-13-14-12-10-8-6-4-2/h3-14H2,1-2H3
Compound 3: heptadecane, C17H36, InChI=1S/C17H36/c1-3-5-7-9-11-13-15-17-16-14-12-10-8-6-4-2/h3-17H2,1-2H3
Compound 4: pentylbenzene, C11H16, InChI=1S/C11H16/c1-2-3-5-8-11-9-6-4-7-10-11/h4,6-7,9-10H,2-3,5,8H2,1H3

System: N-methylpyrrolidone; phases: Liquid
Property: Refractive index (Na D-line) (Liquid); method: Standard Abbe refractometry
Temperature, K	Pressure, kPa	Refractive index (Na D-line)	uncertainty
293.1	101.325	1.4686	0.0008

System: tetradecane; phases: Liquid
Property: Refractive index (Na D-line) (Liquid); method: Standard Abbe refractometry
Temperature, K	Pressure, kPa	Refractive index (Na D-line)	uncertainty
293.1	101.325	1.4291	0.0008

System: heptadecane; phases: Liquid
Property: Refractive index (Na D-line) (Liquid); method: Standard Abbe refractometry
Temperature, K	Pressure, kPa	Refractive index (Na D-line)	uncertainty
293.1	101.325	1.4362	0.0008

System: pentylbenzene; phases: Liquid
Property: Refractive index (Na D-line) (Liquid); method: Standard Abbe refractometry
Temperature, K	Pressure, kPa	Refractive index (Na D-line)	uncertainty
293.1	101.325	1.4887	0.0008

System: tetradecane + N-methylpyrrolidone; phases: Liquid mixture 1, Liquid mixture 2
Fixed: Pressure, kPa = 101
Property: Mole fraction of tetradecane (Liquid mixture 1); method: CHROM:UFactor:8
Temperature, K	Mole fraction of tetradecane	uncertainty
298	0.8185	0.0112
308	0.7898	0.013
318	0.7425	0.016
328	0.6668	0.0207

System: tetradecane + N-methylpyrrolidone; phases: Liquid mixture 2, Liquid mixture 1
Fixed: Pressure, kPa = 101
Property: Mole fraction of tetradecane (Liquid mixture 2); method: CHROM:UFactor:8
Temperature, K	Mole fraction of tetradecane	uncertainty
298	0.0211	0.0013
308	0.0218	0.0014
318	0.0329	0.002
328	0.0541	0.0034

System: heptadecane + N-methylpyrrolidone; phases: Liquid mixture 1, Liquid mixture 2
Fixed: Pressure, kPa = 101
Property: Mole fraction of heptadecane (Liquid mixture 1); method: CHROM:UFactor:8
Temperature, K	Mole fraction of heptadecane	uncertainty
298	0.9319	0.0042
308	0.9015	0.0061
318	0.8822	0.0073
328	0.7937	0.0128

System: heptadecane + N-methylpyrrolidone; phases: Liquid mixture 2, Liquid mixture 1
Fixed: Pressure, kPa = 101
Property: Mole fraction of heptadecane (Liquid mixture 2); method: CHROM:UFactor:8
Temperature, K	Mole fraction of heptadecane	uncertainty
298	0.0121	0.0041
308	0.0146	0.0041
318	0.0161	0.0041
328	0.0198	0.0042

System: pentylbenzene + tetradecane + N-methylpyrrolidone; phases: Liquid mixture 1, Liquid mixture 2
Fixed: Pressure, kPa = 101
Property: Mole fraction of pentylbenzene (Liquid mixture 1); method: CHROM:UFactor:8
Property: Mole fraction of pentylbenzene (Liquid mixture 2); method: CHROM:UFactor:8
Property: Mole fraction of tetradecane (Liquid mixture 2); method: CHROM:UFactor:8
Temperature, K	Mole fraction of tetradecane	Mole fraction of pentylbenzene	uncertainty	Mole fraction of pentylbenzene	uncertainty	Mole fraction of tetradecane	uncertainty
298	0.8185	0	0.0001	0	0.0001	0.0211	
298	0.7824	0.0351	0.0045	0.0196	0.0042	0.026	
298	0.7315	0.0731	0.0058	0.0433	0.0048	0.0307	
298	0.6777	0.1139	0.0076	0.0706	0.0057	0.0371	
298	0.6358	0.1448	0.0091	0.095	0.0067	0.0431	
298	0.5962	0.1703	0.0106	0.1163	0.0077	0.0499	
298	0.5567	0.1863	0.0115	0.1306	0.0084	0.0551	
298	0.5206	0.2003	0.0124	0.1463	0.0092	0.0642	
298	0.5051	0.2154	0.0134	0.1656	0.0103	0.0754	
298	0.4887	0.2275	0.0141	0.1806	0.0112	0.0867	
308	0.7898	0	0.0001	0	0.0001	0.0218	
308	0.7336	0.0332	0.0044	0.0208	0.0042	0.0294	
308	0.6944	0.0657	0.0055	0.0429	0.0047	0.0379	
308	0.6283	0.0998	0.0069	0.0702	0.0057	0.0423	
308	0.5751	0.1279	0.0083	0.0943	0.0067	0.0513	
308	0.5344	0.1534	0.0096	0.1169	0.0077	0.0611	
308	0.4901	0.1669	0.0103	0.1316	0.0085	0.0694	
308	0.4491	0.1831	0.0113	0.1501	0.0094	0.0804	
308	0.4077	0.1981	0.0123	0.1673	0.0104	0.0888	
308	0.3926	0.2139	0.0133	0.1866	0.0116	0.1027	
318	0.7425	0	0.0001	0	0.0001	0.0329	
318	0.6944	0.0316	0.0044	0.0211	0.0042	0.0402	
318	0.6441	0.0654	0.0055	0.0466	0.0048	0.0499	
318	0.5981	0.0951	0.0067	0.072	0.0057	0.0591	
318	0.5305	0.1248	0.0081	0.0925	0.0066	0.0739	
318	0.5045	0.1391	0.0088	0.1173	0.0078	0.0825	
318	0.4846	0.1535	0.0096	0.1335	0.0086	0.093	
318	0.4579	0.1702	0.0105	0.1565	0.0097	0.116	
318	0.4008	0.1796	0.0111	0.1688	0.0105	0.1274	
318	0.3807	0.1857	0.0115	0.1816	0.0113	0.1406	
328	0.6668	0	0.0001	0	0.0001	0.0541	
328	0.6216	0.029	0.0043	0.021	0.0042	0.0576	
328	0.5699	0.0613	0.0053	0.0474	0.0048	0.0712	
328	0.5094	0.0946	0.0067	0.0784	0.006	0.0871	
328	0.4051	0.1325	0.0085	0.1188	0.0078	0.1233	
328	0.3584	0.1441	0.0091	0.1332	0.0085	0.1399	
328	0.3292	0.1529	0.0095	0.1449	0.0091	0.1626	
328	0.3104	0.1629	0.0101	0.1609	0.01	0.2184	

System: pentylbenzene + heptadecane + N-methylpyrrolidone; phases: Liquid mixture 1, Liquid mixture 2
Fixed: Pressure, kPa = 101
Property: Mole fraction of pentylbenzene (Liquid mixture 1); method: CHROM:UFactor:8
Property: Mole fraction of heptadecane (Liquid mixture 2); method: CHROM:UFactor:8
Property: Mole fraction of pentylbenzene (Liquid mixture 2); method: CHROM:UFactor:8
Temperature, K	Mole fraction of heptadecane	Mole fraction of pentylbenzene	uncertainty	Mole fraction of heptadecane	uncertainty	Mole fraction of pentylbenzene	uncertainty
298	0.9319	0	0.0001	0.0121	0.0041	0	
298	0.8995	0.0364	0.0045	0.0149	0.0041	0.0206	
298	0.8626	0.0768	0.0059	0.0178	0.0041	0.0447	
298	0.8272	0.1086	0.0073	0.0212	0.0042	0.0648	
298	0.8013	0.1337	0.0086	0.0236	0.0042	0.0817	
298	0.7688	0.1598	0.0099	0.0271	0.0043	0.1006	
298	0.7423	0.1804	0.0112	0.0305	0.0044	0.1167	
298	0.7263	0.1934	0.012	0.0323	0.0044	0.1262	
298	0.6902	0.2067	0.0128	0.0352	0.0045	0.1376	
298	0.6704	0.2198	0.0136	0.0389	0.0046	0.1496	
308	0.9015	0	0.0001	0.0146	0.0041	0	
308	0.8975	0.0358	0.0045	0.0178	0.0041	0.0209	
308	0.8197	0.0744	0.0058	0.0217	0.0042	0.0441	
308	0.7745	0.1043	0.0071	0.0237	0.0042	0.0658	
308	0.7381	0.1261	0.0082	0.0276	0.0043	0.0827	
308	0.6834	0.152	0.0095	0.0321	0.0044	0.1031	
308	0.6567	0.1691	0.0105	0.0366	0.0045	0.1185	
308	0.6111	0.1832	0.0114	0.0404	0.0046	0.1332	
308	0.5567	0.1977	0.0123	0.0439	0.0047	0.1487	
308	0.5144	0.2104	0.013	0.0459	0.0048	0.1631	
318	0.8822	0	0.0001	0.0161	0.0041	0	
318	0.8475	0.0338	0.0044	0.0222	0.0042	0.0212	
318	0.7855	0.0757	0.0059	0.0265	0.0043	0.0501	
318	0.7437	0.0981	0.0068	0.0295	0.0043	0.0675	
318	0.7095	0.1201	0.0079	0.0358	0.0045	0.0852	
318	0.6683	0.1424	0.009	0.0435	0.0047	0.1059	
318	0.6365	0.1564	0.0097	0.0472	0.0048	0.1194	
318	0.5899	0.1682	0.0104	0.0521	0.005	0.1302	
318	0.5585	0.1807	0.0112	0.0555	0.0051	0.1425	
318	0.5195	0.1835	0.0114	0.0623	0.0053	0.1579	
328	0.7937	0	0.0001	0.0198	0.0042	0	
328	0.7528	0.0335	0.0044	0.0258	0.0043	0.0231	
328	0.6939	0.0735	0.0058	0.0301	0.0043	0.0513	
328	0.6659	0.0967	0.0068	0.0393	0.0046	0.0696	
328	0.6312	0.1155	0.0077	0.0432	0.0047	0.0862	
328	0.5941	0.1368	0.0087	0.0501	0.0049	0.1082	
328	0.5627	0.1527	0.0095	0.0556	0.0051	0.1244	
328	0.5242	0.1661	0.0103	0.0618	0.0053	0.1385	
328	0.5048	0.1723	0.0107	0.0677	0.0055	0.1468	
328	0.4959	0.1776	0.011	0.0719	0.0057	0.1536	
