Measured thermophysical data. Volumetric, acoustic and viscometric behaviour of dipotassium hydrogen phosphate and disodium hydrogen phosphate in aqueous solution of N-acetyl glycine at different temperatures
Source: J. Chem. Thermodyn., 2016, 10.1016/j.jct.2015.10.017
Compound 1: N-acetylglycine, C4H7NO3, InChI=1S/C4H7NO3/c1-3(6)5-2-4(7)8/h2H2,1H3,(H,5,6)(H,7,8), purity 99%
Compound 2: disodium hydrogen phosphate, HNa2O4P, InChI=1S/2Na.H3O4P/c;;1-5(2,3)4/h;;(H3,1,2,3,4)/q2*+1;/p-2, purity 98%
Compound 3: dipotassium hydrogen phosphate, HK2O4P, InChI=1S/2K.H3O4P/c;;1-5(2,3)4/h;;(H3,1,2,3,4)/q2*+1;/p-2, purity 99%
Compound 4: water, H2O, InChI=1S/H2O/h1H2

System: water; phases: Liquid
Fixed: Pressure, kPa = 100
Property: Viscosity, Pa*s (Liquid); method: Falling or rolling sphere viscometry
Temperature, K	Viscosity, Pa*s	uncertainty
288.15	0.001043	0.0002088
293.15	0.0009312	0.0001864
298.15	0.0008319	0.0001665
303.15	0.0007981	0.0001598
308.15	0.0007202	0.0001442

System: N-acetylglycine + water + dipotassium hydrogen phosphate; phases: Liquid
Fixed: Pressure, kPa = 100
Property: Mass density, kg/m3 (Liquid); method: Vibrating tube method
Temperature, K	Solvent: Molality, mol/kg of N-acetylglycine	Molality, mol/kg of dipotassium hydrogen phosphate	Mass density, kg/m3	uncertainty
288.15	0.05	0	1001.32	10.002
288.15	0.05	0.01664	1003.55	10.001
288.15	0.05	0.03387	1005.859	10.001
288.15	0.05	0.05419	1008.581	10.002
288.15	0.05	0.06297	1009.758	10.002
288.15	0.05	0.08641	1012.899	10.004
288.15	0.05	0.16473	1023.394	10.011
288.15	0.05	0.25065	1034.907	10.024
288.15	0.05	0.31481	1043.505	10.037
288.15	0.05	0.48212	1065.924	10.084
288.15	0.05	0.62516	1085.091	10.141
288.15	0.05	0.75062	1101.903	10.202
288.15	0.05	0.83816	1113.633	10.251
288.15	0.05	0.96711	1130.913	10.332
293.15	0.05	0	1000.044	10.002
293.15	0.05	0.01664	1002.274	10.001
293.15	0.05	0.03387	1004.583	10.001
293.15	0.05	0.05419	1007.305	10.002
293.15	0.05	0.06297	1008.482	10.002
293.15	0.05	0.08641	1011.623	10.004
293.15	0.05	0.16473	1022.118	10.011
293.15	0.05	0.25065	1033.631	10.024
293.15	0.05	0.31481	1042.229	10.037
293.15	0.05	0.48212	1064.648	10.084
293.15	0.05	0.62516	1083.815	10.141
293.15	0.05	0.75062	1100.627	10.202
293.15	0.05	0.83816	1112.357	10.251
293.15	0.05	0.96711	1129.637	10.333
298.15	0.05	0	998.801	10.002
298.15	0.05	0.01664	1001.031	10.001
298.15	0.05	0.03387	1003.34	10.001
298.15	0.05	0.05419	1006.062	10.002
298.15	0.05	0.06297	1007.239	10.002
298.15	0.05	0.08641	1010.38	10.004
298.15	0.05	0.16473	1020.875	10.011
298.15	0.05	0.25065	1032.388	10.024
298.15	0.05	0.31481	1040.986	10.037
298.15	0.05	0.48212	1063.405	10.084
298.15	0.05	0.62516	1082.572	10.141
298.15	0.05	0.75062	1099.384	10.202
298.15	0.05	0.83816	1111.114	10.251
298.15	0.05	0.96711	1128.394	10.33
303.15	0.05	0	997.363	10.002
303.15	0.05	0.01664	999.593	10.001
303.15	0.05	0.03387	1001.902	10.001
303.15	0.05	0.05419	1004.624	10.002
303.15	0.05	0.06297	1005.801	10.002
303.15	0.05	0.08641	1008.942	10.004
303.15	0.05	0.16473	1019.437	10.011
303.15	0.05	0.25065	1030.95	10.024
303.15	0.05	0.31481	1039.548	10.037
303.15	0.05	0.48212	1061.967	10.084
303.15	0.05	0.62516	1081.134	10.141
303.15	0.05	0.75062	1097.946	10.202
303.15	0.05	0.83816	1109.676	10.251
303.15	0.05	0.96711	1126.956	10.33
308.15	0.05	0	995.711	10.002
308.15	0.05	0.01664	997.941	10.001
308.15	0.05	0.03387	1000.25	10.001
308.15	0.05	0.05419	1002.972	10.002
308.15	0.05	0.06297	1004.149	10.002
308.15	0.05	0.08641	1007.29	10.004
308.15	0.05	0.16473	1017.785	10.011
308.15	0.05	0.25065	1029.298	10.024
308.15	0.05	0.31481	1037.896	10.037
308.15	0.05	0.48212	1060.315	10.084
308.15	0.05	0.62516	1079.482	10.141
308.15	0.05	0.75062	1096.294	10.202
308.15	0.05	0.83816	1108.024	10.251
308.15	0.05	0.96711	1125.304	10.332
288.15	0.1	0	1002.844	10.002
288.15	0.1	0.01675	1005.089	10.001
288.15	0.1	0.03417	1007.423	10.001
288.15	0.1	0.05389	1010.065	10.002
288.15	0.1	0.06274	1011.251	10.002
288.15	0.1	0.08557	1014.31	10.004
288.15	0.1	0.16227	1024.588	10.011
288.15	0.1	0.25505	1037.021	10.025
288.15	0.1	0.31583	1045.165	10.037
288.15	0.1	0.4798	1067.137	10.084
288.15	0.1	0.62556	1086.669	10.141
288.15	0.1	0.74418	1102.564	10.199
288.15	0.1	0.84693	1116.333	10.256
288.15	0.1	0.95963	1131.434	10.342
293.15	0.1	0	1001.893	10.002
293.15	0.1	0.01675	1004.138	10.001
293.15	0.1	0.03417	1006.472	10.001
293.15	0.1	0.05389	1009.114	10.002
293.15	0.1	0.06274	1010.3	10.003
293.15	0.1	0.08557	1013.359	10.004
293.15	0.1	0.16227	1023.637	10.011
293.15	0.1	0.25505	1036.07	10.024
293.15	0.1	0.31583	1044.214	10.037
293.15	0.1	0.4798	1066.186	10.084
293.15	0.1	0.62556	1085.718	10.141
293.15	0.1	0.74418	1101.613	10.198
293.15	0.1	0.84693	1115.382	10.257
293.15	0.1	0.95963	1130.483	10.319
298.15	0.1	0	1000.369	10.002
298.15	0.1	0.01675	1002.614	10.001
298.15	0.1	0.03417	1004.948	10.001
298.15	0.1	0.05389	1007.59	10.002
298.15	0.1	0.06274	1008.776	10.002
298.15	0.1	0.08557	1011.835	10.004
298.15	0.1	0.16227	1022.113	10.011
298.15	0.1	0.25505	1034.546	10.025
298.15	0.1	0.31583	1042.69	10.037
298.15	0.1	0.4798	1064.662	10.084
298.15	0.1	0.62556	1084.194	10.141
298.15	0.1	0.74418	1100.089	10.199
298.15	0.1	0.84693	1113.858	10.256
298.15	0.1	0.95963	1128.959	10.329
303.15	0.1	0	998.824	10.002
303.15	0.1	0.01675	1001.069	10.001
303.15	0.1	0.03417	1003.403	10.001
303.15	0.1	0.05389	1006.045	10.002
303.15	0.1	0.06274	1007.231	10.002
303.15	0.1	0.08557	1010.29	10.004
303.15	0.1	0.16227	1020.568	10.011
303.15	0.1	0.25505	1033.001	10.025
303.15	0.1	0.31583	1041.145	10.037
303.15	0.1	0.4798	1063.117	10.084
303.15	0.1	0.62556	1082.649	10.141
303.15	0.1	0.74418	1098.544	10.199
303.15	0.1	0.84693	1112.313	10.256
303.15	0.1	0.95963	1127.414	10.333
308.15	0.1	0	997.285	10.002
308.15	0.1	0.01675	999.53	10.001
308.15	0.1	0.03417	1001.864	10.001
308.15	0.1	0.05389	1004.506	10.002
308.15	0.1	0.06274	1005.692	10.002
308.15	0.1	0.08557	1008.751	10.004
308.15	0.1	0.16227	1019.029	10.011
308.15	0.1	0.25505	1031.462	10.025
308.15	0.1	0.31583	1039.606	10.037
308.15	0.1	0.4798	1061.578	10.084
308.15	0.1	0.62556	1081.11	10.141
308.15	0.1	0.74418	1097.005	10.199
308.15	0.1	0.84693	1110.774	10.256
308.15	0.1	0.95963	1125.875	10.336
288.15	0.2	0	1005.542	10.002
288.15	0.2	0.01695	1007.847	10.002
288.15	0.2	0.03316	1010.052	10.002
288.15	0.2	0.05352	1012.821	10.003
288.15	0.2	0.0622	1014.001	10.003
288.15	0.2	0.08512	1017.118	10.004
288.15	0.2	0.16246	1027.637	10.011
288.15	0.2	0.24909	1039.418	10.025
288.15	0.2	0.31667	1048.609	10.039
288.15	0.2	0.47992	1070.811	10.087
288.15	0.2	0.62501	1090.543	10.146
288.15	0.2	0.7464	1107.052	10.207
288.15	0.2	0.84219	1120.08	10.262
288.15	0.2	0.95721	1135.723	10.337
293.15	0.2	0	1004.842	10.002
293.15	0.2	0.01695	1007.113	10.002
293.15	0.2	0.03316	1009.285	10.002
293.15	0.2	0.05352	1012.014	10.003
293.15	0.2	0.0622	1013.177	10.003
293.15	0.2	0.08512	1016.248	10.004
293.15	0.2	0.16246	1026.612	10.011
293.15	0.2	0.24909	1038.22	10.024
293.15	0.2	0.31667	1047.276	10.038
293.15	0.2	0.47992	1069.151	10.084
293.15	0.2	0.62501	1088.593	10.142
293.15	0.2	0.7464	1104.86	10.201
293.15	0.2	0.84219	1117.695	10.253
293.15	0.2	0.95721	1133.108	10.349
298.15	0.2	0	1003.789	10.003
298.15	0.2	0.01695	1006.06	10.002
298.15	0.2	0.03316	1008.232	10.002
298.15	0.2	0.05352	1010.961	10.003
298.15	0.2	0.0622	1012.124	10.003
298.15	0.2	0.08512	1015.195	10.004
298.15	0.2	0.16246	1025.559	10.011
298.15	0.2	0.24909	1037.167	10.024
298.15	0.2	0.31667	1046.223	10.038
298.15	0.2	0.47992	1068.098	10.085
298.15	0.2	0.62501	1087.54	10.142
298.15	0.2	0.7464	1103.807	10.201
298.15	0.2	0.84219	1116.642	10.254
298.15	0.2	0.95721	1132.055	10.325
303.15	0.2	0	1002.598	10.003
303.15	0.2	0.01695	1004.869	10.002
303.15	0.2	0.03316	1007.041	10.002
303.15	0.2	0.05352	1009.77	10.003
303.15	0.2	0.0622	1010.933	10.003
303.15	0.2	0.08512	1014.004	10.005
303.15	0.2	0.16246	1024.368	10.012
303.15	0.2	0.24909	1035.976	10.024
303.15	0.2	0.31667	1045.032	10.038
303.15	0.2	0.47992	1066.907	10.085
303.15	0.2	0.62501	1086.349	10.142
303.15	0.2	0.7464	1102.616	10.201
303.15	0.2	0.84219	1115.451	10.254
303.15	0.2	0.95721	1130.864	10.325
308.15	0.2	0	1001.297	10.003
308.15	0.2	0.01695	1003.568	10.002
308.15	0.2	0.03316	1005.74	10.003
308.15	0.2	0.05352	1008.469	10.003
308.15	0.2	0.0622	1009.632	10.004
308.15	0.2	0.08512	1012.703	10.005
308.15	0.2	0.16246	1023.067	10.012
308.15	0.2	0.24909	1034.675	10.025
308.15	0.2	0.31667	1043.731	10.038
308.15	0.2	0.47992	1065.606	10.085
308.15	0.2	0.62501	1085.048	10.142
308.15	0.2	0.7464	1101.315	10.201
308.15	0.2	0.84219	1114.15	10.255
308.15	0.2	0.95721	1129.563	10.327

System: N-acetylglycine + water + dipotassium hydrogen phosphate; phases: Liquid
Fixed: Pressure, kPa = 100
Fixed: Frequency, MHz = 3
Property: Speed of sound, m/s (Liquid); method: Sing-around technique in a fixed-path interferometer
Temperature, K	Solvent: Molality, mol/kg of N-acetylglycine	Molality, mol/kg of dipotassium hydrogen phosphate	Speed of sound, m/s	uncertainty
288.15	0.05	0	1468.87	10.05
288.15	0.05	0.01664	1471.24	10.05
288.15	0.05	0.03387	1473.69	10.05
288.15	0.05	0.05419	1476.59	10.05
288.15	0.05	0.06297	1477.84	10.05
288.15	0.05	0.08641	1481.17	10.05
288.15	0.05	0.16473	1492.33	10.06
288.15	0.05	0.25065	1504.56	10.08
288.15	0.05	0.31481	1513.7	10.09
288.15	0.05	0.48212	1537.52	10.14
288.15	0.05	0.62516	1557.89	10.21
288.15	0.05	0.75062	1575.76	10.28
288.15	0.05	0.83816	1588.22	10.33
288.15	0.05	0.96711	1606.59	10.42
293.15	0.05	0	1484.83	10.05
293.15	0.05	0.01664	1487.17	10.05
293.15	0.05	0.03387	1489.6	10.05
293.15	0.05	0.05419	1492.45	10.05
293.15	0.05	0.06297	1493.69	10.05
293.15	0.05	0.08641	1496.99	10.05
293.15	0.05	0.16473	1508.01	10.06
293.15	0.05	0.25065	1520.1	10.08
293.15	0.05	0.31481	1529.12	10.09
293.15	0.05	0.48212	1552.66	10.14
293.15	0.05	0.62516	1572.79	10.2
293.15	0.05	0.75062	1590.44	10.27
293.15	0.05	0.83816	1602.76	10.33
293.15	0.05	0.96711	1620.9	10.42
298.15	0.05	0	1499.57	10.05
298.15	0.05	0.01664	1501.91	10.05
298.15	0.05	0.03387	1504.34	10.05
298.15	0.05	0.05419	1507.19	10.05
298.15	0.05	0.06297	1508.43	10.05
298.15	0.05	0.08641	1511.73	10.05
298.15	0.05	0.16473	1522.75	10.06
298.15	0.05	0.25065	1534.84	10.08
298.15	0.05	0.31481	1543.86	10.09
298.15	0.05	0.48212	1567.4	10.14
298.15	0.05	0.62516	1587.53	10.2
298.15	0.05	0.75062	1605.18	10.27
298.15	0.05	0.83816	1617.5	10.33
298.15	0.05	0.96711	1635.64	10.41
303.15	0.05	0	1513.97	10.05
303.15	0.05	0.01664	1516.31	10.05
303.15	0.05	0.03387	1518.74	10.05
303.15	0.05	0.05419	1521.59	10.05
303.15	0.05	0.06297	1522.83	10.05
303.15	0.05	0.08641	1526.13	10.05
303.15	0.05	0.16473	1537.15	10.06
303.15	0.05	0.25065	1549.24	10.08
303.15	0.05	0.31481	1558.26	10.09
303.15	0.05	0.48212	1581.8	10.14
303.15	0.05	0.62516	1601.93	10.2
303.15	0.05	0.75062	1619.58	10.27
303.15	0.05	0.83816	1631.9	10.34
303.15	0.05	0.96711	1650.04	10.33
308.15	0.05	0	1521.66	10.05
308.15	0.05	0.01664	1524	10.05
308.15	0.05	0.03387	1526.43	10.05
308.15	0.05	0.05419	1529.28	10.05
308.15	0.05	0.06297	1530.52	10.05
308.15	0.05	0.08641	1533.82	10.05
308.15	0.05	0.16473	1544.84	10.06
308.15	0.05	0.25065	1556.93	10.08
308.15	0.05	0.31481	1565.95	10.09
308.15	0.05	0.48212	1589.49	10.14
308.15	0.05	0.62516	1609.62	10.21
308.15	0.05	0.75062	1627.27	10.27
308.15	0.05	0.83816	1639.59	10.33
308.15	0.05	0.96711	1657.73	10.42
288.15	0.1	0	1472.07	10.05
288.15	0.1	0.01675	1474.45	10.05
288.15	0.1	0.03417	1476.93	10.05
288.15	0.1	0.05389	1479.74	10.05
288.15	0.1	0.06274	1481	10.05
288.15	0.1	0.08557	1484.25	10.05
288.15	0.1	0.16227	1495.16	10.06
288.15	0.1	0.25505	1508.36	10.08
288.15	0.1	0.31583	1517.01	10.09
288.15	0.1	0.4798	1540.35	10.14
288.15	0.1	0.62556	1561.09	10.21
288.15	0.1	0.74418	1577.97	10.27
288.15	0.1	0.84693	1592.59	10.34
288.15	0.1	0.95963	1608.63	10.4
293.15	0.1	0	1486.67	10.05
293.15	0.1	0.01675	1489.03	10.05
293.15	0.1	0.03417	1491.48	10.05
293.15	0.1	0.05389	1494.25	10.05
293.15	0.1	0.06274	1495.5	10.05
293.15	0.1	0.08557	1498.71	10.05
293.15	0.1	0.16227	1509.5	10.06
293.15	0.1	0.25505	1522.56	10.08
293.15	0.1	0.31583	1531.11	10.09
293.15	0.1	0.4798	1554.18	10.14
293.15	0.1	0.62556	1574.69	10.21
293.15	0.1	0.74418	1591.38	10.27
293.15	0.1	0.84693	1605.83	10.33
293.15	0.1	0.95963	1621.69	10.43
298.15	0.1	0	1501.33	10.05
298.15	0.1	0.01675	1503.69	10.05
298.15	0.1	0.03417	1506.14	10.05
298.15	0.1	0.05389	1508.91	10.05
298.15	0.1	0.06274	1510.16	10.05
298.15	0.1	0.08557	1513.37	10.05
298.15	0.1	0.16227	1524.16	10.06
298.15	0.1	0.25505	1537.22	10.08
298.15	0.1	0.31583	1545.77	10.09
298.15	0.1	0.4798	1568.84	10.14
298.15	0.1	0.62556	1589.35	10.21
298.15	0.1	0.74418	1606.04	10.27
298.15	0.1	0.84693	1620.49	10.33
298.15	0.1	0.95963	1636.35	10.41
303.15	0.1	0	1516.35	10.05
303.15	0.1	0.01675	1518.71	10.05
303.15	0.1	0.03417	1521.16	10.05
303.15	0.1	0.05389	1523.93	10.05
303.15	0.1	0.06274	1525.18	10.05
303.15	0.1	0.08557	1528.39	10.05
303.15	0.1	0.16227	1539.18	10.06
303.15	0.1	0.25505	1552.24	10.08
303.15	0.1	0.31583	1560.79	10.09
303.15	0.1	0.4798	1583.86	10.14
303.15	0.1	0.62556	1604.37	10.2
303.15	0.1	0.74418	1621.06	10.27
303.15	0.1	0.84693	1635.51	10.33
303.15	0.1	0.95963	1651.37	10.34
308.15	0.1	0	1524.65	10.05
308.15	0.1	0.01675	1527.01	10.05
308.15	0.1	0.03417	1529.46	10.05
308.15	0.1	0.05389	1532.23	10.05
308.15	0.1	0.06274	1533.48	10.05
308.15	0.1	0.08557	1536.69	10.05
308.15	0.1	0.16227	1547.48	10.06
308.15	0.1	0.25505	1560.54	10.08
308.15	0.1	0.31583	1569.09	10.09
308.15	0.1	0.4798	1592.16	10.14
308.15	0.1	0.62556	1612.67	10.21
308.15	0.1	0.74418	1629.36	10.27
308.15	0.1	0.84693	1643.81	10.33
308.15	0.1	0.95963	1659.67	10.38
288.15	0.2	0	1476.43	10.05
288.15	0.2	0.01695	1478.84	10.05
288.15	0.2	0.03316	1481.15	10.05
288.15	0.2	0.05352	1484.05	10.05
288.15	0.2	0.0622	1485.29	10.05
288.15	0.2	0.08512	1488.55	10.05
288.15	0.2	0.16246	1499.56	10.06
288.15	0.2	0.24909	1511.9	10.08
288.15	0.2	0.31667	1521.52	10.09
288.15	0.2	0.47992	1544.77	10.15
288.15	0.2	0.62501	1565.43	10.21
288.15	0.2	0.7464	1582.72	10.28
288.15	0.2	0.84219	1596.36	10.34
288.15	0.2	0.95721	1612.74	10.42
293.15	0.2	0	1491.25	10.05
293.15	0.2	0.01695	1493.63	10.05
293.15	0.2	0.03316	1495.92	10.05
293.15	0.2	0.05352	1498.78	10.05
293.15	0.2	0.0622	1500	10.05
293.15	0.2	0.08512	1503.23	10.05
293.15	0.2	0.16246	1514.11	10.06
293.15	0.2	0.24909	1526.3	10.08
293.15	0.2	0.31667	1535.81	10.09
293.15	0.2	0.47992	1558.77	10.14
293.15	0.2	0.62501	1579.19	10.21
293.15	0.2	0.7464	1596.27	10.27
293.15	0.2	0.84219	1609.75	10.33
293.15	0.2	0.95721	1625.93	10.41
298.15	0.2	0	1504.52	10.05
298.15	0.2	0.01695	1506.9	10.05
298.15	0.2	0.03316	1509.19	10.05
298.15	0.2	0.05352	1512.05	10.05
298.15	0.2	0.0622	1513.27	10.05
298.15	0.2	0.08512	1516.5	10.05
298.15	0.2	0.16246	1527.38	10.06
298.15	0.2	0.24909	1539.57	10.08
298.15	0.2	0.31667	1549.08	10.09
298.15	0.2	0.47992	1572.04	10.14
298.15	0.2	0.62501	1592.46	10.21
298.15	0.2	0.7464	1609.54	10.27
298.15	0.2	0.84219	1623.02	10.33
298.15	0.2	0.95721	1639.2	10.43
303.15	0.2	0	1519.01	10.05
303.15	0.2	0.01695	1521.39	10.05
303.15	0.2	0.03316	1523.68	10.05
303.15	0.2	0.05352	1526.54	10.05
303.15	0.2	0.0622	1527.76	10.05
303.15	0.2	0.08512	1530.99	10.05
303.15	0.2	0.16246	1541.87	10.06
303.15	0.2	0.24909	1554.06	10.08
303.15	0.2	0.31667	1563.57	10.09
303.15	0.2	0.47992	1586.53	10.14
303.15	0.2	0.62501	1606.95	10.2
303.15	0.2	0.7464	1624.03	10.27
303.15	0.2	0.84219	1637.51	10.33
303.15	0.2	0.95721	1653.69	10.32
308.15	0.2	0	1527.25	10.05
308.15	0.2	0.01695	1529.63	10.05
308.15	0.2	0.03316	1531.92	10.05
308.15	0.2	0.05352	1534.78	10.05
308.15	0.2	0.0622	1536	10.05
308.15	0.2	0.08512	1539.23	10.05
308.15	0.2	0.16246	1550.11	10.06
308.15	0.2	0.24909	1562.3	10.08
308.15	0.2	0.31667	1571.81	10.09
308.15	0.2	0.47992	1594.77	10.14
308.15	0.2	0.62501	1615.19	10.21
308.15	0.2	0.7464	1632.27	10.27
308.15	0.2	0.84219	1645.75	10.33
308.15	0.2	0.95721	1661.93	10.41

System: N-acetylglycine + water + dipotassium hydrogen phosphate; phases: Liquid
Fixed: Pressure, kPa = 100
Property: Viscosity, Pa*s (Liquid); method: Falling or rolling sphere viscometry
Temperature, K	Solvent: Molality, mol/kg of N-acetylglycine	Molality, mol/kg of dipotassium hydrogen phosphate	Viscosity, Pa*s	uncertainty
288.15	0	0	0.001043	0.0002088
288.15	0	0.01682	0.0010501	0.0002102
288.15	0	0.03476	0.0010577	0.0002117
288.15	0	0.05442	0.001066	0.0002134
288.15	0	0.06215	0.0010693	0.000214
288.15	0	0.08596	0.0010794	0.0002161
288.15	0	0.16325	0.0011121	0.0002226
288.15	0	0.24987	0.0011487	0.0002299
288.15	0	0.30875	0.0011736	0.0002349
288.15	0	0.4795	0.0012458	0.0002494
288.15	0	0.62795	0.0013086	0.000262
288.15	0	0.75112	0.0013607	0.0002724
288.15	0	0.84684	0.0014012	0.0002806
288.15	0	0.95654	0.0014476	0.0002899
293.15	0	0	0.0009312	0.0001864
293.15	0	0.01682	0.0009382	0.0001878
293.15	0	0.03476	0.0009456	0.0001893
293.15	0	0.05442	0.0009538	0.0001909
293.15	0	0.06215	0.000957	0.0001916
293.15	0	0.08596	0.0009669	0.0001935
293.15	0	0.16325	0.0009989	0.0002
293.15	0	0.24987	0.0010349	0.0002072
293.15	0	0.30875	0.0010593	0.0002121
293.15	0	0.4795	0.0011302	0.0002263
293.15	0	0.62795	0.0011918	0.0002386
293.15	0	0.75112	0.0012429	0.0002489
293.15	0	0.84684	0.0012826	0.0002568
293.15	0	0.95654	0.0013282	0.000266
298.15	0	0	0.0008319	0.0001665
298.15	0	0.01682	0.0008385	0.0001678
298.15	0	0.03476	0.0008455	0.0001692
298.15	0	0.05442	0.0008532	0.0001708
298.15	0	0.06215	0.0008562	0.0001714
298.15	0	0.08596	0.0008655	0.0001732
298.15	0	0.16325	0.0008957	0.0001793
298.15	0	0.24987	0.0009296	0.0001861
298.15	0	0.30875	0.0009526	0.0001907
298.15	0	0.4795	0.0010194	0.0002041
298.15	0	0.62795	0.0010774	0.0002157
298.15	0	0.75112	0.0011256	0.0002254
298.15	0	0.84684	0.001163	0.0002329
298.15	0	0.95654	0.0012059	0.0002416
303.15	0	0	0.0007981	0.0001598
303.15	0	0.01682	0.000804	0.0001609
303.15	0	0.03476	0.0008103	0.0001622
303.15	0	0.05442	0.0008173	0.0001636
303.15	0	0.06215	0.00082	0.0001641
303.15	0	0.08596	0.0008284	0.0001658
303.15	0	0.16325	0.0008556	0.0001713
303.15	0	0.24987	0.0008861	0.0001774
303.15	0	0.30875	0.0009068	0.0001815
303.15	0	0.4795	0.0009669	0.0001936
303.15	0	0.62795	0.0010191	0.000204
303.15	0	0.75112	0.0010625	0.0002127
303.15	0	0.84684	0.0010962	0.0002195
303.15	0	0.95654	0.0011348	0.0002272
308.15	0	0	0.0007202	0.0001442
308.15	0	0.01682	0.0007261	0.0001453
308.15	0	0.03476	0.0007324	0.0001466
308.15	0	0.05442	0.0007394	0.000148
308.15	0	0.06215	0.0007421	0.0001485
308.15	0	0.08596	0.0007505	0.0001502
308.15	0	0.16325	0.0007777	0.0001557
308.15	0	0.24987	0.0008082	0.0001618
308.15	0	0.30875	0.0008289	0.0001659
308.15	0	0.4795	0.000889	0.000178
308.15	0	0.62795	0.0009412	0.0001885
308.15	0	0.75112	0.0009846	0.0001972
308.15	0	0.84684	0.0010183	0.0002039
308.15	0	0.95654	0.0010569	0.0002117
288.15	0.05	0	0.001091	0.0002184
288.15	0.05	0.01664	0.0010988	0.00022
288.15	0.05	0.03387	0.001107	0.0002216
288.15	0.05	0.05419	0.0011165	0.0002235
288.15	0.05	0.06297	0.0011207	0.0002243
288.15	0.05	0.08641	0.0011317	0.0002265
288.15	0.05	0.16473	0.0011686	0.0002339
288.15	0.05	0.25065	0.0012091	0.000242
288.15	0.05	0.31481	0.0012393	0.0002481
288.15	0.05	0.48212	0.0013181	0.0002639
288.15	0.05	0.62516	0.0013855	0.0002774
288.15	0.05	0.75062	0.0014445	0.0002892
288.15	0.05	0.83816	0.0014858	0.0002975
288.15	0.05	0.96711	0.0015465	0.0003097
293.15	0.05	0	0.0009664	0.0001935
293.15	0.05	0.01664	0.0009734	0.0001949
293.15	0.05	0.03387	0.0009807	0.0001963
293.15	0.05	0.05419	0.0009892	0.000198
293.15	0.05	0.06297	0.0009929	0.0001988
293.15	0.05	0.08641	0.0010028	0.0002007
293.15	0.05	0.16473	0.0010358	0.0002073
293.15	0.05	0.25065	0.0010719	0.0002146
293.15	0.05	0.31481	0.0010989	0.00022
293.15	0.05	0.48212	0.0011694	0.0002341
293.15	0.05	0.62516	0.0012296	0.0002462
293.15	0.05	0.75062	0.0012824	0.0002568
293.15	0.05	0.83816	0.0013193	0.0002642
293.15	0.05	0.96711	0.0013736	0.0002752
298.15	0.05	0	0.000863	0.0001727
298.15	0.05	0.01664	0.0008693	0.000174
298.15	0.05	0.03387	0.0008759	0.0001753
298.15	0.05	0.05419	0.0008836	0.0001769
298.15	0.05	0.06297	0.000887	0.0001775
298.15	0.05	0.08641	0.0008959	0.0001793
298.15	0.05	0.16473	0.0009258	0.0001853
298.15	0.05	0.25065	0.0009585	0.0001919
298.15	0.05	0.31481	0.0009829	0.0001968
298.15	0.05	0.48212	0.0010467	0.0002096
298.15	0.05	0.62516	0.0011012	0.0002205
298.15	0.05	0.75062	0.001149	0.0002301
298.15	0.05	0.83816	0.0011823	0.0002367
298.15	0.05	0.96711	0.0012315	0.0002468
303.15	0.05	0	0.0008379	0.0001677
303.15	0.05	0.01664	0.0008438	0.0001689
303.15	0.05	0.03387	0.0008498	0.0001701
303.15	0.05	0.05419	0.000857	0.0001715
303.15	0.05	0.06297	0.0008601	0.0001722
303.15	0.05	0.08641	0.0008683	0.0001738
303.15	0.05	0.16473	0.0008959	0.0001793
303.15	0.05	0.25065	0.0009261	0.0001854
303.15	0.05	0.31481	0.0009487	0.0001899
303.15	0.05	0.48212	0.0010076	0.0002017
303.15	0.05	0.62516	0.001058	0.0002118
303.15	0.05	0.75062	0.0011021	0.0002207
303.15	0.05	0.83816	0.0011329	0.0002269
303.15	0.05	0.96711	0.0011783	0.0002359
308.15	0.05	0	0.0007411	0.0001484
308.15	0.05	0.01664	0.000747	0.0001495
308.15	0.05	0.03387	0.000753	0.0001507
308.15	0.05	0.05419	0.0007602	0.0001522
308.15	0.05	0.06297	0.0007633	0.0001528
308.15	0.05	0.08641	0.0007715	0.0001544
308.15	0.05	0.16473	0.0007991	0.00016
308.15	0.05	0.25065	0.0008293	0.000166
308.15	0.05	0.31481	0.0008519	0.0001705
308.15	0.05	0.48212	0.0009108	0.0001823
308.15	0.05	0.62516	0.0009612	0.0001925
308.15	0.05	0.75062	0.0010053	0.0002013
308.15	0.05	0.83816	0.0010361	0.0002075
308.15	0.05	0.96711	0.0010815	0.0002166
288.15	0.1	0	0.0011505	0.0002303
288.15	0.1	0.01675	0.0011594	0.0002321
288.15	0.1	0.03417	0.0011687	0.0002339
288.15	0.1	0.05389	0.0011793	0.0002361
288.15	0.1	0.06274	0.001184	0.000237
288.15	0.1	0.08557	0.0011962	0.0002395
288.15	0.1	0.16227	0.0012372	0.0002477
288.15	0.1	0.25505	0.0012867	0.0002576
288.15	0.1	0.31583	0.0013192	0.0002641
288.15	0.1	0.4798	0.0014067	0.0002816
288.15	0.1	0.62556	0.0014845	0.0002972
288.15	0.1	0.74418	0.0015479	0.00031
288.15	0.1	0.84693	0.0016028	0.000321
288.15	0.1	0.95963	0.0016629	0.0003329
293.15	0.1	0	0.0010189	0.000204
293.15	0.1	0.01675	0.0010267	0.0002055
293.15	0.1	0.03417	0.0010349	0.0002072
293.15	0.1	0.05389	0.0010441	0.000209
293.15	0.1	0.06274	0.0010482	0.0002098
293.15	0.1	0.08557	0.0010589	0.000212
293.15	0.1	0.16227	0.0010947	0.0002191
293.15	0.1	0.25505	0.001138	0.0002278
293.15	0.1	0.31583	0.0011664	0.0002335
293.15	0.1	0.4798	0.001243	0.0002489
293.15	0.1	0.62556	0.001311	0.0002625
293.15	0.1	0.74418	0.0013664	0.0002736
293.15	0.1	0.84693	0.0014144	0.0002833
293.15	0.1	0.95963	0.001467	0.0002938
298.15	0.1	0	0.0009071	0.0001816
298.15	0.1	0.01675	0.000914	0.000183
298.15	0.1	0.03417	0.0009212	0.0001844
298.15	0.1	0.05389	0.0009293	0.000186
298.15	0.1	0.06274	0.0009329	0.0001867
298.15	0.1	0.08557	0.0009424	0.0001886
298.15	0.1	0.16227	0.000974	0.000195
298.15	0.1	0.25505	0.0010122	0.0002026
298.15	0.1	0.31583	0.0010372	0.0002076
298.15	0.1	0.4798	0.0011048	0.0002212
298.15	0.1	0.62556	0.0011648	0.0002332
298.15	0.1	0.74418	0.0012137	0.000243
298.15	0.1	0.84693	0.001256	0.0002515
298.15	0.1	0.95963	0.0013025	0.0002609
303.15	0.1	0	0.0008579	0.0001717
303.15	0.1	0.01675	0.0008638	0.0001729
303.15	0.1	0.03417	0.0008699	0.0001741
303.15	0.1	0.05389	0.0008769	0.0001755
303.15	0.1	0.06274	0.00088	0.0001762
303.15	0.1	0.08557	0.000888	0.0001778
303.15	0.1	0.16227	0.000915	0.0001832
303.15	0.1	0.25505	0.0009477	0.0001897
303.15	0.1	0.31583	0.0009691	0.000194
303.15	0.1	0.4798	0.0010268	0.0002056
303.15	0.1	0.62556	0.0010781	0.0002159
303.15	0.1	0.74418	0.0011199	0.0002242
303.15	0.1	0.84693	0.001156	0.0002315
303.15	0.1	0.95963	0.0011957	0.0002396
308.15	0.1	0	0.0007624	0.0001526
308.15	0.1	0.01675	0.0007685	0.0001538
308.15	0.1	0.03417	0.0007748	0.0001551
308.15	0.1	0.05389	0.0007819	0.0001565
308.15	0.1	0.06274	0.0007851	0.0001572
308.15	0.1	0.08557	0.0007934	0.0001588
308.15	0.1	0.16227	0.0008211	0.0001644
308.15	0.1	0.25505	0.0008547	0.0001711
308.15	0.1	0.31583	0.0008767	0.0001755
308.15	0.1	0.4798	0.0009361	0.0001874
308.15	0.1	0.62556	0.0009889	0.000198
308.15	0.1	0.74418	0.0010318	0.0002066
308.15	0.1	0.84693	0.001069	0.0002141
308.15	0.1	0.95963	0.0011098	0.0002223
288.15	0.2	0	0.0011869	0.0002376
288.15	0.2	0.01695	0.0011976	0.0002397
288.15	0.2	0.03316	0.0012079	0.0002418
288.15	0.2	0.05352	0.0012208	0.0002444
288.15	0.2	0.0622	0.0012263	0.0002455
288.15	0.2	0.08512	0.0012408	0.0002484
288.15	0.2	0.16246	0.0012897	0.0002582
288.15	0.2	0.24909	0.0013446	0.0002692
288.15	0.2	0.31667	0.0013874	0.0002778
288.15	0.2	0.47992	0.0014907	0.0002985
288.15	0.2	0.62501	0.0015825	0.0003169
288.15	0.2	0.7464	0.0016594	0.0003323
288.15	0.2	0.84219	0.00172	0.0003445
288.15	0.2	0.95721	0.0017928	0.0003591
293.15	0.2	0	0.0010479	0.0002098
293.15	0.2	0.01695	0.0010574	0.0002117
293.15	0.2	0.03316	0.0010669	0.0002136
293.15	0.2	0.05352	0.0010788	0.000216
293.15	0.2	0.0622	0.0010839	0.000217
293.15	0.2	0.08512	0.0010972	0.0002196
293.15	0.2	0.16246	0.0011424	0.0002287
293.15	0.2	0.24909	0.001193	0.0002388
293.15	0.2	0.31667	0.0012324	0.0002467
293.15	0.2	0.47992	0.0013278	0.0002659
293.15	0.2	0.62501	0.0014125	0.0002829
293.15	0.2	0.7464	0.0014833	0.0002971
293.15	0.2	0.84219	0.0015393	0.0003083
293.15	0.2	0.95721	0.0016064	0.0003218
298.15	0.2	0	0.0009357	0.0001873
298.15	0.2	0.01695	0.0009444	0.000189
298.15	0.2	0.03316	0.0009527	0.0001907
298.15	0.2	0.05352	0.0009632	0.0001928
298.15	0.2	0.0622	0.0009677	0.0001937
298.15	0.2	0.08512	0.0009795	0.0001961
298.15	0.2	0.16246	0.0010192	0.000204
298.15	0.2	0.24909	0.0010637	0.000213
298.15	0.2	0.31667	0.0010985	0.0002199
298.15	0.2	0.47992	0.0011824	0.0002368
298.15	0.2	0.62501	0.001257	0.0002517
298.15	0.2	0.7464	0.0013193	0.0002642
298.15	0.2	0.84219	0.0013686	0.0002741
298.15	0.2	0.95721	0.0014277	0.0002862
303.15	0.2	0	0.0008904	0.0001782
303.15	0.2	0.01695	0.0008984	0.0001798
303.15	0.2	0.03316	0.0009061	0.0001814
303.15	0.2	0.05352	0.0009157	0.0001833
303.15	0.2	0.0622	0.0009198	0.0001841
303.15	0.2	0.08512	0.0009306	0.0001863
303.15	0.2	0.16246	0.0009671	0.0001936
303.15	0.2	0.24909	0.001008	0.0002018
303.15	0.2	0.31667	0.0010399	0.0002082
303.15	0.2	0.47992	0.0011169	0.0002236
303.15	0.2	0.62501	0.0011854	0.0002374
303.15	0.2	0.7464	0.0012427	0.0002489
303.15	0.2	0.84219	0.0012879	0.000258
303.15	0.2	0.95721	0.0013422	0.0002688
308.15	0.2	0	0.0007856	0.0001573
308.15	0.2	0.01695	0.0007927	0.0001587
308.15	0.2	0.03316	0.0007995	0.00016
308.15	0.2	0.05352	0.000808	0.0001617
308.15	0.2	0.0622	0.0008117	0.0001625
308.15	0.2	0.08512	0.0008213	0.0001644
308.15	0.2	0.16246	0.0008537	0.0001709
308.15	0.2	0.24909	0.00089	0.0001782
308.15	0.2	0.31667	0.0009183	0.0001839
308.15	0.2	0.47992	0.0009867	0.0001976
308.15	0.2	0.62501	0.0010475	0.0002098
308.15	0.2	0.7464	0.0010983	0.00022
308.15	0.2	0.84219	0.0011385	0.000228
308.15	0.2	0.95721	0.0011867	0.0002377

System: N-acetylglycine + disodium hydrogen phosphate + water; phases: Liquid
Fixed: Pressure, kPa = 100
Property: Mass density, kg/m3 (Liquid); method: Vibrating tube method
Temperature, K	Solvent: Molality, mol/kg of N-acetylglycine	Molality, mol/kg of disodium hydrogen phosphate	Mass density, kg/m3	uncertainty
288.15	0.05	0	1001.32	10.004
288.15	0.05	0.01698	1003.595	10.003
288.15	0.05	0.03426	1005.911	10.003
288.15	0.05	0.05415	1008.576	10.004
288.15	0.05	0.06288	1009.746	10.004
288.15	0.05	0.08597	1012.84	10.006
288.15	0.05	0.16274	1023.127	10.013
288.15	0.05	0.25	1034.82	10.026
288.15	0.05	0.31623	1043.695	10.039
288.15	0.05	0.47931	1065.548	10.086
288.15	0.05	0.62262	1084.751	10.143
288.15	0.05	0.74898	1101.683	10.204
288.15	0.05	0.83682	1113.454	10.254
288.15	0.05	0.95635	1129.471	10.329
293.15	0.05	0	1000.044	10.004
293.15	0.05	0.01698	1002.319	10.003
293.15	0.05	0.03426	1004.635	10.003
293.15	0.05	0.05415	1007.3	10.004
293.15	0.05	0.06288	1008.47	10.004
293.15	0.05	0.08597	1011.564	10.006
293.15	0.05	0.16274	1021.851	10.013
293.15	0.05	0.25	1033.544	10.026
293.15	0.05	0.31623	1042.419	10.039
293.15	0.05	0.47931	1064.272	10.086
293.15	0.05	0.62262	1083.475	10.143
293.15	0.05	0.74898	1100.407	10.204
293.15	0.05	0.83682	1112.178	10.254
293.15	0.05	0.95635	1128.195	10.329
298.15	0.05	0	998.801	10.004
298.15	0.05	0.01698	1001.076	10.003
298.15	0.05	0.03426	1003.392	10.003
298.15	0.05	0.05415	1006.057	10.004
298.15	0.05	0.06288	1007.227	10.004
298.15	0.05	0.08597	1010.321	10.006
298.15	0.05	0.16274	1020.608	10.013
298.15	0.05	0.25	1032.301	10.026
298.15	0.05	0.31623	1041.176	10.039
298.15	0.05	0.47931	1063.029	10.086
298.15	0.05	0.62262	1082.232	10.143
298.15	0.05	0.74898	1099.164	10.204
298.15	0.05	0.83682	1110.935	10.254
298.15	0.05	0.95635	1126.952	10.326
303.15	0.05	0	997.363	10.004
303.15	0.05	0.01698	999.638	10.003
303.15	0.05	0.03426	1001.954	10.003
303.15	0.05	0.05415	1004.619	10.004
303.15	0.05	0.06288	1005.789	10.004
303.15	0.05	0.08597	1008.883	10.006
303.15	0.05	0.16274	1019.17	10.013
303.15	0.05	0.25	1030.863	10.026
303.15	0.05	0.31623	1039.738	10.039
303.15	0.05	0.47931	1061.591	10.086
303.15	0.05	0.62262	1080.794	10.143
303.15	0.05	0.74898	1097.726	10.204
303.15	0.05	0.83682	1109.497	10.254
303.15	0.05	0.95635	1125.514	10.326
308.15	0.05	0	995.711	10.004
308.15	0.05	0.01698	997.986	10.003
308.15	0.05	0.03426	1000.302	10.003
308.15	0.05	0.05415	1002.967	10.004
308.15	0.05	0.06288	1004.137	10.004
308.15	0.05	0.08597	1007.231	10.006
308.15	0.05	0.16274	1017.518	10.013
308.15	0.05	0.25	1029.211	10.026
308.15	0.05	0.31623	1038.086	10.039
308.15	0.05	0.47931	1059.939	10.086
308.15	0.05	0.62262	1079.142	10.143
308.15	0.05	0.74898	1096.074	10.204
308.15	0.05	0.83682	1107.845	10.253
308.15	0.05	0.95635	1123.862	10.329
288.15	0.1	0	1002.844	10.004
288.15	0.1	0.01726	1005.157	10.003
288.15	0.1	0.0329	1007.253	10.003
288.15	0.1	0.05429	1010.119	10.004
288.15	0.1	0.0635	1011.353	10.005
288.15	0.1	0.08645	1014.428	10.006
288.15	0.1	0.16385	1024.8	10.013
288.15	0.1	0.25264	1036.698	10.026
288.15	0.1	0.31887	1045.573	10.04
288.15	0.1	0.48148	1067.362	10.087
288.15	0.1	0.62623	1086.759	10.144
288.15	0.1	0.74888	1103.194	10.204
288.15	0.1	0.83863	1115.22	10.255
288.15	0.1	0.95872	1131.312	10.328
293.15	0.1	0	1001.893	10.004
293.15	0.1	0.01726	1004.206	10.003
293.15	0.1	0.0329	1006.302	10.003
293.15	0.1	0.05429	1009.168	10.004
293.15	0.1	0.0635	1010.402	10.005
293.15	0.1	0.08645	1013.477	10.006
293.15	0.1	0.16385	1023.849	10.013
293.15	0.1	0.25264	1035.747	10.026
293.15	0.1	0.31887	1044.622	10.041
293.15	0.1	0.48148	1066.411	10.087
293.15	0.1	0.62623	1085.808	10.144
293.15	0.1	0.74888	1102.243	10.204
293.15	0.1	0.83863	1114.269	10.256
293.15	0.1	0.95872	1130.361	10.322
298.15	0.1	0	1000.369	10.004
298.15	0.1	0.01726	1002.682	10.003
298.15	0.1	0.0329	1004.778	10.003
298.15	0.1	0.05429	1007.644	10.004
298.15	0.1	0.0635	1008.878	10.005
298.15	0.1	0.08645	1011.953	10.006
298.15	0.1	0.16385	1022.325	10.013
298.15	0.1	0.25264	1034.223	10.027
298.15	0.1	0.31887	1043.098	10.04
298.15	0.1	0.48148	1064.887	10.087
298.15	0.1	0.62623	1084.284	10.145
298.15	0.1	0.74888	1100.719	10.205
298.15	0.1	0.83863	1112.745	10.255
298.15	0.1	0.95872	1128.837	10.331
303.15	0.1	0	998.824	10.004
303.15	0.1	0.01726	1001.137	10.003
303.15	0.1	0.0329	1003.233	10.003
303.15	0.1	0.05429	1006.099	10.004
303.15	0.1	0.0635	1007.333	10.005
303.15	0.1	0.08645	1010.408	10.006
303.15	0.1	0.16385	1020.78	10.013
303.15	0.1	0.25264	1032.678	10.027
303.15	0.1	0.31887	1041.553	10.04
303.15	0.1	0.48148	1063.342	10.087
303.15	0.1	0.62623	1082.739	10.145
303.15	0.1	0.74888	1099.174	10.205
303.15	0.1	0.83863	1111.2	10.254
303.15	0.1	0.95872	1127.292	10.334
308.15	0.1	0	997.285	10.004
308.15	0.1	0.01726	999.598	10.003
308.15	0.1	0.0329	1001.694	10.003
308.15	0.1	0.05429	1004.56	10.004
308.15	0.1	0.0635	1005.794	10.005
308.15	0.1	0.08645	1008.869	10.006
308.15	0.1	0.16385	1019.241	10.013
308.15	0.1	0.25264	1031.139	10.027
308.15	0.1	0.31887	1040.014	10.04
308.15	0.1	0.48148	1061.803	10.087
308.15	0.1	0.62623	1081.2	10.145
308.15	0.1	0.74888	1097.635	10.205
308.15	0.1	0.83863	1109.661	10.254
308.15	0.1	0.95872	1125.753	10.337
288.15	0.2	0	1005.542	10.004
288.15	0.2	0.01674	1007.785	10.004
288.15	0.2	0.03348	1010.028	10.004
288.15	0.2	0.05384	1012.757	10.005
288.15	0.2	0.06346	1014.046	10.005
288.15	0.2	0.08607	1017.075	10.006
288.15	0.2	0.16282	1027.36	10.013
288.15	0.2	0.24589	1038.491	10.026
288.15	0.2	0.31903	1048.292	10.041
288.15	0.2	0.4785	1069.661	10.087
288.15	0.2	0.62381	1089.133	10.144
288.15	0.2	0.75705	1106.987	10.209
288.15	0.2	0.84326	1118.539	10.258
288.15	0.2	0.94148	1131.7	10.32
293.15	0.2	0	1004.842	10.004
293.15	0.2	0.01674	1007.085	10.004
293.15	0.2	0.03348	1009.328	10.004
293.15	0.2	0.05384	1012.057	10.005
293.15	0.2	0.06346	1013.346	10.005
293.15	0.2	0.08607	1016.375	10.006
293.15	0.2	0.16282	1026.66	10.013
293.15	0.2	0.24589	1037.791	10.026
293.15	0.2	0.31903	1047.592	10.041
293.15	0.2	0.4785	1068.961	10.087
293.15	0.2	0.62381	1088.433	10.144
293.15	0.2	0.75705	1106.287	10.209
293.15	0.2	0.84326	1117.839	10.258
293.15	0.2	0.94148	1131	10.314
298.15	0.2	0	1003.789	10.005
298.15	0.2	0.01674	1006.032	10.004
298.15	0.2	0.03348	1008.275	10.004
298.15	0.2	0.05384	1011.004	10.005
298.15	0.2	0.06346	1012.293	10.005
298.15	0.2	0.08607	1015.322	10.007
298.15	0.2	0.16282	1025.607	10.014
298.15	0.2	0.24589	1036.738	10.026
298.15	0.2	0.31903	1046.539	10.041
298.15	0.2	0.4785	1067.908	10.087
298.15	0.2	0.62381	1087.38	10.144
298.15	0.2	0.75705	1105.234	10.209
298.15	0.2	0.84326	1116.786	10.258
298.15	0.2	0.94148	1129.947	10.318
303.15	0.2	0	1002.598	10.005
303.15	0.2	0.01674	1004.841	10.004
303.15	0.2	0.03348	1007.084	10.004
303.15	0.2	0.05384	1009.813	10.005
303.15	0.2	0.06346	1011.102	10.006
303.15	0.2	0.08607	1014.131	10.007
303.15	0.2	0.16282	1024.416	10.014
303.15	0.2	0.24589	1035.547	10.026
303.15	0.2	0.31903	1045.348	10.041
303.15	0.2	0.4785	1066.717	10.087
303.15	0.2	0.62381	1086.189	10.144
303.15	0.2	0.75705	1104.043	10.21
303.15	0.2	0.84326	1115.595	10.258
303.15	0.2	0.94148	1128.756	10.318
308.15	0.2	0	1001.297	10.005
308.15	0.2	0.01674	1003.54	10.004
308.15	0.2	0.03348	1005.783	10.005
308.15	0.2	0.05384	1008.512	10.005
308.15	0.2	0.06346	1009.801	10.006
308.15	0.2	0.08607	1012.83	10.007
308.15	0.2	0.16282	1023.115	10.014
308.15	0.2	0.24589	1034.246	10.026
308.15	0.2	0.31903	1044.047	10.041
308.15	0.2	0.4785	1065.416	10.087
308.15	0.2	0.62381	1084.888	10.145
308.15	0.2	0.75705	1102.742	10.21
308.15	0.2	0.84326	1114.294	10.259
308.15	0.2	0.94148	1127.455	10.32

System: N-acetylglycine + disodium hydrogen phosphate + water; phases: Liquid
Fixed: Pressure, kPa = 100
Fixed: Frequency, MHz = 3
Property: Speed of sound, m/s (Liquid); method: Sing-around technique in a fixed-path interferometer
Temperature, K	Solvent: Molality, mol/kg of N-acetylglycine	Molality, mol/kg of disodium hydrogen phosphate	Speed of sound, m/s	uncertainty
288.15	0.05	0	1468.87	10.08
288.15	0.05	0.01698	1471.42	10.08
288.15	0.05	0.03426	1474.01	10.08
288.15	0.05	0.05415	1477	10.08
288.15	0.05	0.06288	1478.31	10.08
288.15	0.05	0.08597	1481.77	10.08
288.15	0.05	0.16274	1493.3	10.09
288.15	0.05	0.25	1506.4	10.11
288.15	0.05	0.31623	1516.34	10.13
288.15	0.05	0.47931	1540.81	10.18
288.15	0.05	0.62262	1562.33	10.25
288.15	0.05	0.74898	1581.29	10.33
288.15	0.05	0.83682	1594.48	10.39
288.15	0.05	0.95635	1612.42	10.48
293.15	0.05	0	1484.83	10.08
293.15	0.05	0.01698	1487.38	10.08
293.15	0.05	0.03426	1489.97	10.08
293.15	0.05	0.05415	1492.96	10.08
293.15	0.05	0.06288	1494.27	10.08
293.15	0.05	0.08597	1497.73	10.08
293.15	0.05	0.16274	1509.26	10.09
293.15	0.05	0.25	1522.36	10.11
293.15	0.05	0.31623	1532.3	10.13
293.15	0.05	0.47931	1556.77	10.18
293.15	0.05	0.62262	1578.29	10.25
293.15	0.05	0.74898	1597.25	10.33
293.15	0.05	0.83682	1610.44	10.39
293.15	0.05	0.95635	1628.38	10.47
298.15	0.05	0	1499.57	10.08
298.15	0.05	0.01698	1502.12	10.08
298.15	0.05	0.03426	1504.71	10.08
298.15	0.05	0.05415	1507.7	10.08
298.15	0.05	0.06288	1509.01	10.08
298.15	0.05	0.08597	1512.47	10.08
298.15	0.05	0.16274	1524	10.09
298.15	0.05	0.25	1537.1	10.11
298.15	0.05	0.31623	1547.04	10.13
298.15	0.05	0.47931	1571.51	10.18
298.15	0.05	0.62262	1593.03	10.25
298.15	0.05	0.74898	1611.99	10.33
298.15	0.05	0.83682	1625.18	10.39
298.15	0.05	0.95635	1643.12	10.48
303.15	0.05	0	1513.97	10.08
303.15	0.05	0.01698	1516.52	10.08
303.15	0.05	0.03426	1519.11	10.08
303.15	0.05	0.05415	1522.1	10.08
303.15	0.05	0.06288	1523.41	10.08
303.15	0.05	0.08597	1526.87	10.08
303.15	0.05	0.16274	1538.4	10.09
303.15	0.05	0.25	1551.5	10.11
303.15	0.05	0.31623	1561.44	10.13
303.15	0.05	0.47931	1585.91	10.18
303.15	0.05	0.62262	1607.43	10.25
303.15	0.05	0.74898	1626.39	10.32
303.15	0.05	0.83682	1639.58	10.4
303.15	0.05	0.95635	1657.52	10.39
308.15	0.05	0	1521.66	10.08
308.15	0.05	0.01698	1524.21	10.08
308.15	0.05	0.03426	1526.8	10.08
308.15	0.05	0.05415	1529.79	10.08
308.15	0.05	0.06288	1531.1	10.08
308.15	0.05	0.08597	1534.56	10.08
308.15	0.05	0.16274	1546.09	10.09
308.15	0.05	0.25	1559.19	10.11
308.15	0.05	0.31623	1569.13	10.13
308.15	0.05	0.47931	1593.6	10.18
308.15	0.05	0.62262	1615.12	10.25
308.15	0.05	0.74898	1634.08	10.33
308.15	0.05	0.83682	1647.27	10.39
308.15	0.05	0.95635	1665.21	10.48
288.15	0.1	0	1472.07	10.08
288.15	0.1	0.01726	1474.66	10.08
288.15	0.1	0.0329	1477.01	10.08
288.15	0.1	0.05429	1480.22	10.08
288.15	0.1	0.0635	1481.6	10.08
288.15	0.1	0.08645	1485.05	10.08
288.15	0.1	0.16385	1496.66	10.09
288.15	0.1	0.25264	1509.99	10.11
288.15	0.1	0.31887	1519.93	10.13
288.15	0.1	0.48148	1544.34	10.18
288.15	0.1	0.62623	1566.07	10.26
288.15	0.1	0.74888	1584.48	10.33
288.15	0.1	0.83863	1597.95	10.39
288.15	0.1	0.95872	1615.97	10.47
293.15	0.1	0	1486.67	10.08
293.15	0.1	0.01726	1489.26	10.08
293.15	0.1	0.0329	1491.61	10.08
293.15	0.1	0.05429	1494.82	10.08
293.15	0.1	0.0635	1496.2	10.08
293.15	0.1	0.08645	1499.65	10.08
293.15	0.1	0.16385	1511.26	10.09
293.15	0.1	0.25264	1524.59	10.11
293.15	0.1	0.31887	1534.53	10.13
293.15	0.1	0.48148	1558.94	10.18
293.15	0.1	0.62623	1580.67	10.26
293.15	0.1	0.74888	1599.08	10.33
293.15	0.1	0.83863	1612.55	10.39
293.15	0.1	0.95872	1630.57	10.49
298.15	0.1	0	1501.33	10.08
298.15	0.1	0.01726	1503.92	10.08
298.15	0.1	0.0329	1506.27	10.08
298.15	0.1	0.05429	1509.48	10.08
298.15	0.1	0.0635	1510.86	10.08
298.15	0.1	0.08645	1514.31	10.08
298.15	0.1	0.16385	1525.92	10.09
298.15	0.1	0.25264	1539.25	10.11
298.15	0.1	0.31887	1549.19	10.13
298.15	0.1	0.48148	1573.6	10.18
298.15	0.1	0.62623	1595.33	10.26
298.15	0.1	0.74888	1613.74	10.33
298.15	0.1	0.83863	1627.21	10.39
298.15	0.1	0.95872	1645.23	10.49
303.15	0.1	0	1516.35	10.08
303.15	0.1	0.01726	1518.94	10.08
303.15	0.1	0.0329	1521.29	10.08
303.15	0.1	0.05429	1524.5	10.08
303.15	0.1	0.0635	1525.88	10.08
303.15	0.1	0.08645	1529.33	10.08
303.15	0.1	0.16385	1540.94	10.09
303.15	0.1	0.25264	1554.27	10.11
303.15	0.1	0.31887	1564.21	10.13
303.15	0.1	0.48148	1588.62	10.18
303.15	0.1	0.62623	1610.35	10.25
303.15	0.1	0.74888	1628.76	10.33
303.15	0.1	0.83863	1642.23	10.4
303.15	0.1	0.95872	1660.25	10.41
308.15	0.1	0	1524.65	10.08
308.15	0.1	0.01726	1527.24	10.08
308.15	0.1	0.0329	1529.59	10.08
308.15	0.1	0.05429	1532.8	10.08
308.15	0.1	0.0635	1534.18	10.08
308.15	0.1	0.08645	1537.63	10.08
308.15	0.1	0.16385	1549.24	10.09
308.15	0.1	0.25264	1562.57	10.11
308.15	0.1	0.31887	1572.51	10.13
308.15	0.1	0.48148	1596.92	10.19
308.15	0.1	0.62623	1618.65	10.26
308.15	0.1	0.74888	1637.06	10.33
308.15	0.1	0.83863	1650.53	10.4
308.15	0.1	0.95872	1668.55	10.46
288.15	0.2	0	1476.43	10.08
288.15	0.2	0.01674	1478.95	10.08
288.15	0.2	0.03348	1481.47	10.08
288.15	0.2	0.05384	1484.53	10.08
288.15	0.2	0.06346	1485.97	10.08
288.15	0.2	0.08607	1489.37	10.08
288.15	0.2	0.16282	1500.92	10.09
288.15	0.2	0.24589	1513.41	10.11
288.15	0.2	0.31903	1524.41	10.13
288.15	0.2	0.4785	1548.4	10.18
288.15	0.2	0.62381	1570.25	10.26
288.15	0.2	0.75705	1590.29	10.34
288.15	0.2	0.84326	1603.26	10.4
288.15	0.2	0.94148	1618.03	10.47
293.15	0.2	0	1491.25	10.08
293.15	0.2	0.01674	1493.76	10.08
293.15	0.2	0.03348	1496.28	10.08
293.15	0.2	0.05384	1499.33	10.08
293.15	0.2	0.06346	1500.78	10.08
293.15	0.2	0.08607	1504.17	10.08
293.15	0.2	0.16282	1515.69	10.09
293.15	0.2	0.24589	1528.16	10.11
293.15	0.2	0.31903	1539.14	10.13
293.15	0.2	0.4785	1563.07	10.18
293.15	0.2	0.62381	1584.88	10.26
293.15	0.2	0.75705	1604.88	10.34
293.15	0.2	0.84326	1617.82	10.4
293.15	0.2	0.94148	1632.57	10.45
298.15	0.2	0	1504.52	10.08
298.15	0.2	0.01674	1507.03	10.08
298.15	0.2	0.03348	1509.55	10.08
298.15	0.2	0.05384	1512.6	10.08
298.15	0.2	0.06346	1514.05	10.08
298.15	0.2	0.08607	1517.44	10.08
298.15	0.2	0.16282	1528.96	10.09
298.15	0.2	0.24589	1541.43	10.11
298.15	0.2	0.31903	1552.41	10.13
298.15	0.2	0.4785	1576.34	10.18
298.15	0.2	0.62381	1598.15	10.26
298.15	0.2	0.75705	1618.15	10.34
298.15	0.2	0.84326	1631.09	10.4
298.15	0.2	0.94148	1645.84	10.49
303.15	0.2	0	1519.01	10.08
303.15	0.2	0.01674	1521.52	10.08
303.15	0.2	0.03348	1524.04	10.08
303.15	0.2	0.05384	1527.09	10.08
303.15	0.2	0.06346	1528.54	10.08
303.15	0.2	0.08607	1531.93	10.08
303.15	0.2	0.16282	1543.45	10.09
303.15	0.2	0.24589	1555.92	10.11
303.15	0.2	0.31903	1566.9	10.1
303.15	0.2	0.4785	1590.83	10.18
303.15	0.2	0.62381	1612.64	10.25
303.15	0.2	0.75705	1632.64	10.33
303.15	0.2	0.84326	1645.58	10.4
303.15	0.2	0.94148	1660.33	10.37
308.15	0.2	0	1527.25	10.08
308.15	0.2	0.01674	1529.76	10.08
308.15	0.2	0.03348	1532.28	10.08
308.15	0.2	0.05384	1535.33	10.08
308.15	0.2	0.06346	1536.78	10.08
308.15	0.2	0.08607	1540.17	10.08
308.15	0.2	0.16282	1551.69	10.09
308.15	0.2	0.24589	1564.16	10.11
308.15	0.2	0.31903	1575.14	10.13
308.15	0.2	0.4785	1599.07	10.18
308.15	0.2	0.62381	1620.88	10.26
308.15	0.2	0.75705	1640.88	10.34
308.15	0.2	0.84326	1653.82	10.4
308.15	0.2	0.94148	1668.57	10.47

System: N-acetylglycine + disodium hydrogen phosphate + water; phases: Liquid
Fixed: Pressure, kPa = 100
Property: Viscosity, Pa*s (Liquid); method: Falling or rolling sphere viscometry
Temperature, K	Solvent: Molality, mol/kg of N-acetylglycine	Molality, mol/kg of disodium hydrogen phosphate	Viscosity, Pa*s	uncertainty
288.15	0	0	0.001043	0.0002088
288.15	0	0.01669	0.0010555	0.0002113
288.15	0	0.03487	0.0010692	0.0002141
288.15	0	0.05412	0.0010836	0.0002169
288.15	0	0.06194	0.0010895	0.0002181
288.15	0	0.08565	0.0011072	0.0002217
288.15	0	0.16197	0.0011645	0.0002332
288.15	0	0.25495	0.0012342	0.0002471
288.15	0	0.31612	0.0012801	0.0002563
288.15	0	0.4813	0.001404	0.0002812
288.15	0	0.62613	0.0015126	0.000303
288.15	0	0.75012	0.0016056	0.0003216
288.15	0	0.85013	0.0016806	0.0003367
288.15	0	0.95898	0.0017622	0.0003531
293.15	0	0	0.0009312	0.0001864
293.15	0	0.01669	0.0009429	0.0001888
293.15	0	0.03487	0.0009556	0.0001913
293.15	0	0.05412	0.000969	0.000194
293.15	0	0.06194	0.0009745	0.0001951
293.15	0	0.08565	0.0009911	0.0001984
293.15	0	0.16197	0.0010444	0.0002091
293.15	0	0.25495	0.0011094	0.0002221
293.15	0	0.31612	0.0011522	0.0002307
293.15	0	0.4813	0.0012676	0.0002539
293.15	0	0.62613	0.0013689	0.0002742
293.15	0	0.75012	0.0014555	0.0002916
293.15	0	0.85013	0.0015254	0.0003056
293.15	0	0.95898	0.0016015	0.0003209
298.15	0	0	0.0008319	0.0001666
298.15	0	0.01669	0.0008421	0.0001686
298.15	0	0.03487	0.0008532	0.0001708
298.15	0	0.05412	0.000865	0.0001732
298.15	0	0.06194	0.0008698	0.0001741
298.15	0	0.08565	0.0008843	0.000177
298.15	0	0.16197	0.000931	0.0001864
298.15	0	0.25495	0.0009879	0.0001978
298.15	0	0.31612	0.0010254	0.0002053
298.15	0	0.4813	0.0011265	0.0002256
298.15	0	0.62613	0.0012151	0.0002434
298.15	0	0.75012	0.001291	0.0002586
298.15	0	0.85013	0.0013522	0.0002709
298.15	0	0.95898	0.0014188	0.0002843
303.15	0	0	0.0007981	0.0001598
303.15	0	0.01669	0.000806	0.0001614
303.15	0	0.03487	0.0008146	0.0001631
303.15	0	0.05412	0.0008238	0.0001649
303.15	0	0.06194	0.0008275	0.0001657
303.15	0	0.08565	0.0008387	0.0001679
303.15	0	0.16197	0.0008749	0.0001752
303.15	0	0.25495	0.0009189	0.000184
303.15	0	0.31612	0.0009479	0.0001898
303.15	0	0.4813	0.0010262	0.0002055
303.15	0	0.62613	0.0010949	0.0002193
303.15	0	0.75012	0.0011537	0.0002311
303.15	0	0.85013	0.0012011	0.0002406
303.15	0	0.95898	0.0012527	0.0002512
308.15	0	0	0.0007202	0.0001442
308.15	0	0.01669	0.0007281	0.0001458
308.15	0	0.03487	0.0007367	0.0001475
308.15	0	0.05412	0.0007459	0.0001493
308.15	0	0.06194	0.0007496	0.0001501
308.15	0	0.08565	0.0007608	0.0001523
308.15	0	0.16197	0.000797	0.0001596
308.15	0	0.25495	0.000841	0.0001684
308.15	0	0.31612	0.00087	0.0001742
308.15	0	0.4813	0.0009483	0.0001899
308.15	0	0.62613	0.001017	0.0002037
308.15	0	0.75012	0.0010758	0.0002155
308.15	0	0.85013	0.0011232	0.000225
308.15	0	0.95898	0.0011748	0.0002354
288.15	0.05	0	0.001091	0.0002184
288.15	0.05	0.01698	0.0011041	0.0002211
288.15	0.05	0.03426	0.0011174	0.0002237
288.15	0.05	0.05415	0.0011327	0.0002268
288.15	0.05	0.06288	0.0011394	0.0002281
288.15	0.05	0.08597	0.0011572	0.0002317
288.15	0.05	0.16274	0.0012163	0.0002435
288.15	0.05	0.25	0.0012835	0.000257
288.15	0.05	0.31623	0.0013345	0.0002672
288.15	0.05	0.47931	0.0014601	0.0002924
288.15	0.05	0.62262	0.0015704	0.0003146
288.15	0.05	0.74898	0.0016677	0.0003341
288.15	0.05	0.83682	0.0017354	0.0003477
288.15	0.05	0.95635	0.0018274	0.0003662
293.15	0.05	0	0.0009664	0.0001935
293.15	0.05	0.01698	0.0009786	0.0001959
293.15	0.05	0.03426	0.000991	0.0001984
293.15	0.05	0.05415	0.0010053	0.0002013
293.15	0.05	0.06288	0.0010116	0.0002025
293.15	0.05	0.08597	0.0010282	0.0002059
293.15	0.05	0.16274	0.0010834	0.0002169
293.15	0.05	0.25	0.0011462	0.0002295
293.15	0.05	0.31623	0.0011938	0.0002391
293.15	0.05	0.47931	0.001311	0.0002626
293.15	0.05	0.62262	0.0014141	0.0002833
293.15	0.05	0.74898	0.0015049	0.0003015
293.15	0.05	0.83682	0.0015681	0.0003142
293.15	0.05	0.95635	0.001654	0.0003315
298.15	0.05	0	0.000863	0.0001728
298.15	0.05	0.01698	0.0008739	0.000175
298.15	0.05	0.03426	0.000885	0.0001772
298.15	0.05	0.05415	0.0008978	0.0001797
298.15	0.05	0.06288	0.0009034	0.0001809
298.15	0.05	0.08597	0.0009182	0.0001838
298.15	0.05	0.16274	0.0009675	0.0001937
298.15	0.05	0.25	0.0010235	0.0002049
298.15	0.05	0.31623	0.001066	0.0002135
298.15	0.05	0.47931	0.0011707	0.0002345
298.15	0.05	0.62262	0.0012627	0.0002529
298.15	0.05	0.74898	0.0013438	0.0002692
298.15	0.05	0.83682	0.0014002	0.0002805
298.15	0.05	0.95635	0.001477	0.000296
303.15	0.05	0	0.0008379	0.0001678
303.15	0.05	0.01698	0.0008459	0.0001694
303.15	0.05	0.03426	0.0008541	0.000171
303.15	0.05	0.05415	0.0008636	0.0001729
303.15	0.05	0.06288	0.0008677	0.0001737
303.15	0.05	0.08597	0.0008786	0.0001759
303.15	0.05	0.16274	0.000915	0.0001832
303.15	0.05	0.25	0.0009564	0.0001915
303.15	0.05	0.31623	0.0009878	0.0001978
303.15	0.05	0.47931	0.0010651	0.0002133
303.15	0.05	0.62262	0.001133	0.0002269
303.15	0.05	0.74898	0.0011929	0.000239
303.15	0.05	0.83682	0.0012346	0.0002473
303.15	0.05	0.95635	0.0012912	0.000259
308.15	0.05	0	0.0007411	0.0001484
308.15	0.05	0.01698	0.0007497	0.0001501
308.15	0.05	0.03426	0.0007584	0.0001518
308.15	0.05	0.05415	0.0007684	0.0001538
308.15	0.05	0.06288	0.0007728	0.0001547
308.15	0.05	0.08597	0.0007844	0.0001571
308.15	0.05	0.16274	0.0008231	0.0001648
308.15	0.05	0.25	0.0008671	0.0001736
308.15	0.05	0.31623	0.0009005	0.0001803
308.15	0.05	0.47931	0.0009827	0.0001968
308.15	0.05	0.62262	0.0010549	0.0002113
308.15	0.05	0.74898	0.0011186	0.0002241
308.15	0.05	0.83682	0.0011629	0.000233
308.15	0.05	0.95635	0.0012231	0.0002451
288.15	0.1	0	0.0011505	0.0002303
288.15	0.1	0.01726	0.0011644	0.0002331
288.15	0.1	0.0329	0.0011769	0.0002356
288.15	0.1	0.05429	0.0011941	0.0002391
288.15	0.1	0.0635	0.0012015	0.0002406
288.15	0.1	0.08645	0.0012199	0.0002442
288.15	0.1	0.16385	0.0012821	0.0002567
288.15	0.1	0.25264	0.0013534	0.000271
288.15	0.1	0.31887	0.0014066	0.0002817
288.15	0.1	0.48148	0.0015371	0.0003078
288.15	0.1	0.62623	0.0016534	0.0003312
288.15	0.1	0.74888	0.0017519	0.0003509
288.15	0.1	0.83863	0.0018239	0.0003654
288.15	0.1	0.95872	0.0019204	0.0003847
293.15	0.1	0	0.0010189	0.000204
293.15	0.1	0.01726	0.0010318	0.0002066
293.15	0.1	0.0329	0.0010435	0.0002089
293.15	0.1	0.05429	0.0010596	0.0002121
293.15	0.1	0.0635	0.0010665	0.0002135
293.15	0.1	0.08645	0.0010837	0.000217
293.15	0.1	0.16385	0.0011416	0.0002286
293.15	0.1	0.25264	0.0012081	0.0002419
293.15	0.1	0.31887	0.0012577	0.0002519
293.15	0.1	0.48148	0.0013795	0.0002763
293.15	0.1	0.62623	0.0014879	0.000298
293.15	0.1	0.74888	0.0015798	0.0003165
293.15	0.1	0.83863	0.001647	0.00033
293.15	0.1	0.95872	0.001737	0.000348
298.15	0.1	0	0.0009071	0.0001816
298.15	0.1	0.01726	0.0009187	0.0001839
298.15	0.1	0.0329	0.0009292	0.000186
298.15	0.1	0.05429	0.0009436	0.0001889
298.15	0.1	0.0635	0.0009498	0.0001902
298.15	0.1	0.08645	0.0009652	0.0001932
298.15	0.1	0.16385	0.0010172	0.0002037
298.15	0.1	0.25264	0.0010769	0.0002156
298.15	0.1	0.31887	0.0011214	0.0002246
298.15	0.1	0.48148	0.0012307	0.0002465
298.15	0.1	0.62623	0.0013279	0.000266
298.15	0.1	0.74888	0.0014103	0.0002825
298.15	0.1	0.83863	0.0014707	0.0002947
298.15	0.1	0.95872	0.0015514	0.0003109
303.15	0.1	0	0.0008579	0.0001718
303.15	0.1	0.01726	0.0008678	0.0001737
303.15	0.1	0.0329	0.0008768	0.0001755
303.15	0.1	0.05429	0.0008891	0.000178
303.15	0.1	0.0635	0.0008943	0.000179
303.15	0.1	0.08645	0.0009075	0.0001817
303.15	0.1	0.16385	0.0009519	0.0001906
303.15	0.1	0.25264	0.0010029	0.0002008
303.15	0.1	0.31887	0.0010409	0.0002084
303.15	0.1	0.48148	0.0011343	0.0002272
303.15	0.1	0.62623	0.0012174	0.0002438
303.15	0.1	0.74888	0.0012878	0.000258
303.15	0.1	0.83863	0.0013393	0.0002683
303.15	0.1	0.95872	0.0014082	0.0002821
308.15	0.1	0	0.0007624	0.0001526
308.15	0.1	0.01726	0.0007716	0.0001545
308.15	0.1	0.0329	0.00078	0.0001562
308.15	0.1	0.05429	0.0007914	0.0001585
308.15	0.1	0.0635	0.0007963	0.0001594
308.15	0.1	0.08645	0.0008086	0.0001619
308.15	0.1	0.16385	0.0008499	0.0001702
308.15	0.1	0.25264	0.0008973	0.0001797
308.15	0.1	0.31887	0.0009327	0.0001868
308.15	0.1	0.48148	0.0010195	0.0002042
308.15	0.1	0.62623	0.0010968	0.0002197
308.15	0.1	0.74888	0.0011623	0.0002328
308.15	0.1	0.83863	0.0012102	0.0002425
308.15	0.1	0.95872	0.0012744	0.0002553
288.15	0.2	0	0.0011869	0.0002376
288.15	0.2	0.01674	0.0012009	0.0002404
288.15	0.2	0.03348	0.0012149	0.0002432
288.15	0.2	0.05384	0.0012319	0.0002466
288.15	0.2	0.06346	0.0012399	0.0002482
288.15	0.2	0.08607	0.0012588	0.000252
288.15	0.2	0.16282	0.0013229	0.0002649
288.15	0.2	0.24589	0.0013922	0.0002788
288.15	0.2	0.31903	0.0014533	0.000291
288.15	0.2	0.4785	0.0015864	0.0003177
288.15	0.2	0.62381	0.0017078	0.0003421
288.15	0.2	0.75705	0.001819	0.0003644
288.15	0.2	0.84326	0.001891	0.0003789
288.15	0.2	0.94148	0.001973	0.0003953
293.15	0.2	0	0.0010479	0.0002098
293.15	0.2	0.01674	0.001061	0.0002124
293.15	0.2	0.03348	0.001074	0.000215
293.15	0.2	0.05384	0.0010899	0.0002182
293.15	0.2	0.06346	0.0010975	0.0002197
293.15	0.2	0.08607	0.0011151	0.0002233
293.15	0.2	0.16282	0.0011751	0.0002353
293.15	0.2	0.24589	0.0012399	0.0002483
293.15	0.2	0.31903	0.0012971	0.0002597
293.15	0.2	0.4785	0.0014216	0.0002847
293.15	0.2	0.62381	0.0015351	0.0003075
293.15	0.2	0.75705	0.0016392	0.0003284
293.15	0.2	0.84326	0.0017065	0.0003419
293.15	0.2	0.94148	0.0017832	0.0003573
298.15	0.2	0	0.0009357	0.0001873
298.15	0.2	0.01674	0.0009475	0.0001897
298.15	0.2	0.03348	0.0009592	0.000192
298.15	0.2	0.05384	0.0009735	0.0001949
298.15	0.2	0.06346	0.0009802	0.0001963
298.15	0.2	0.08607	0.0009961	0.0001994
298.15	0.2	0.16282	0.00105	0.0002102
298.15	0.2	0.24589	0.0011083	0.0002219
298.15	0.2	0.31903	0.0011597	0.0002322
298.15	0.2	0.4785	0.0012716	0.0002547
298.15	0.2	0.62381	0.0013736	0.0002752
298.15	0.2	0.75705	0.0014671	0.0002939
298.15	0.2	0.84326	0.0015277	0.0003061
298.15	0.2	0.94148	0.0015966	0.00032
303.15	0.2	0	0.0008904	0.0001783
303.15	0.2	0.01674	0.0008999	0.0001802
303.15	0.2	0.03348	0.0009093	0.000182
303.15	0.2	0.05384	0.0009208	0.0001844
303.15	0.2	0.06346	0.0009263	0.0001855
303.15	0.2	0.08607	0.000939	0.000188
303.15	0.2	0.16282	0.0009824	0.0001967
303.15	0.2	0.24589	0.0010293	0.0002061
303.15	0.2	0.31903	0.0010707	0.0002144
303.15	0.2	0.4785	0.0011608	0.0002325
303.15	0.2	0.62381	0.0012429	0.0002489
303.15	0.2	0.75705	0.0013181	0.000264
303.15	0.2	0.84326	0.0013668	0.0002738
303.15	0.2	0.94148	0.0014223	0.0002852
308.15	0.2	0	0.0007856	0.0001573
308.15	0.2	0.01674	0.0007951	0.0001592
308.15	0.2	0.03348	0.0008045	0.0001611
308.15	0.2	0.05384	0.000816	0.0001634
308.15	0.2	0.06346	0.0008215	0.0001645
308.15	0.2	0.08607	0.0008342	0.000167
308.15	0.2	0.16282	0.0008776	0.0001757
308.15	0.2	0.24589	0.0009245	0.0001851
308.15	0.2	0.31903	0.0009659	0.0001934
308.15	0.2	0.4785	0.001056	0.0002115
308.15	0.2	0.62381	0.0011381	0.000228
308.15	0.2	0.75705	0.0012133	0.0002431
308.15	0.2	0.84326	0.001262	0.0002528
308.15	0.2	0.94148	0.0013175	0.000264

System: water + dipotassium hydrogen phosphate; phases: Liquid
Fixed: Pressure, kPa = 100
Property: Viscosity, Pa*s (Liquid); method: Falling or rolling sphere viscometry
Temperature, K	Molality, mol/kg of dipotassium hydrogen phosphate	Viscosity, Pa*s	uncertainty
288.15	0.01682	0.0010501	0.0002102
288.15	0.03476	0.0010577	0.0002117
288.15	0.05442	0.001066	0.0002134
288.15	0.06215	0.0010693	0.000214
288.15	0.08596	0.0010794	0.0002161
288.15	0.16325	0.0011121	0.0002226
288.15	0.24987	0.0011487	0.0002299
288.15	0.30875	0.0011736	0.0002349
288.15	0.4795	0.0012458	0.0002494
288.15	0.62795	0.0013086	0.000262
288.15	0.75112	0.0013607	0.0002724
288.15	0.84684	0.0014012	0.0002806
288.15	0.95654	0.0014476	0.0002899
293.15	0.01682	0.0009382	0.0001878
293.15	0.03476	0.0009456	0.0001893
293.15	0.05442	0.0009538	0.0001909
293.15	0.06215	0.000957	0.0001916
293.15	0.08596	0.0009669	0.0001935
293.15	0.16325	0.0009989	0.0002
293.15	0.24987	0.0010349	0.0002072
293.15	0.30875	0.0010593	0.0002121
293.15	0.4795	0.0011302	0.0002263
293.15	0.62795	0.0011918	0.0002386
293.15	0.75112	0.0012429	0.0002489
293.15	0.84684	0.0012826	0.0002568
293.15	0.95654	0.0013282	0.000266
298.15	0.01682	0.0008385	0.0001678
298.15	0.03476	0.0008455	0.0001692
298.15	0.05442	0.0008532	0.0001708
298.15	0.06215	0.0008562	0.0001714
298.15	0.08596	0.0008655	0.0001732
298.15	0.16325	0.0008957	0.0001793
298.15	0.24987	0.0009296	0.0001861
298.15	0.30875	0.0009526	0.0001907
298.15	0.4795	0.0010194	0.0002041
298.15	0.62795	0.0010774	0.0002157
298.15	0.75112	0.0011256	0.0002254
298.15	0.84684	0.001163	0.0002329
298.15	0.95654	0.0012059	0.0002416
303.15	0.01682	0.000804	0.0001609
303.15	0.03476	0.0008103	0.0001622
303.15	0.05442	0.0008173	0.0001636
303.15	0.06215	0.00082	0.0001641
303.15	0.08596	0.0008284	0.0001658
303.15	0.16325	0.0008556	0.0001713
303.15	0.24987	0.0008861	0.0001774
303.15	0.30875	0.0009068	0.0001815
303.15	0.4795	0.0009669	0.0001936
303.15	0.62795	0.0010191	0.000204
303.15	0.75112	0.0010625	0.0002127
303.15	0.84684	0.0010962	0.0002195
303.15	0.95654	0.0011348	0.0002272
308.15	0.01682	0.0007261	0.0001453
308.15	0.03476	0.0007324	0.0001466
308.15	0.05442	0.0007394	0.000148
308.15	0.06215	0.0007421	0.0001485
308.15	0.08596	0.0007505	0.0001502
308.15	0.16325	0.0007777	0.0001557
308.15	0.24987	0.0008082	0.0001618
308.15	0.30875	0.0008289	0.0001659
308.15	0.4795	0.000889	0.000178
308.15	0.62795	0.0009412	0.0001885
308.15	0.75112	0.0009846	0.0001972
308.15	0.84684	0.0010183	0.0002039
308.15	0.95654	0.0010569	0.0002117
288.15	0	0.001043	0.0002088
293.15	0	0.0009312	0.0001864
298.15	0	0.0008319	0.0001665
303.15	0	0.0007981	0.0001598
308.15	0	0.0007202	0.0001442

System: N-acetylglycine + water; phases: Liquid
Fixed: Pressure, kPa = 100
Property: Mass density, kg/m3 (Liquid); method: Vibrating tube method
Temperature, K	Molality, mol/kg of N-acetylglycine	Mass density, kg/m3	uncertainty
288.15	0.05	1001.32	10.002
293.15	0.05	1000.044	10.002
298.15	0.05	998.801	10.002
303.15	0.05	997.363	10.002
308.15	0.05	995.711	10.002
288.15	0.1	1002.844	10.002
293.15	0.1	1001.893	10.002
298.15	0.1	1000.369	10.002
303.15	0.1	998.824	10.002
308.15	0.1	997.285	10.002
288.15	0.2	1005.542	10.002
293.15	0.2	1004.842	10.002
298.15	0.2	1003.789	10.003
303.15	0.2	1002.598	10.003
308.15	0.2	1001.297	10.003

System: N-acetylglycine + water; phases: Liquid
Fixed: Pressure, kPa = 100
Fixed: Frequency, MHz = 3
Property: Speed of sound, m/s (Liquid); method: Sing-around technique in a fixed-path interferometer
Temperature, K	Molality, mol/kg of N-acetylglycine	Speed of sound, m/s	uncertainty
288.15	0.05	1468.87	10.05
293.15	0.05	1484.83	10.05
298.15	0.05	1499.57	10.05
303.15	0.05	1513.97	10.05
308.15	0.05	1521.66	10.05
288.15	0.1	1472.07	10.05
293.15	0.1	1486.67	10.05
298.15	0.1	1501.33	10.05
303.15	0.1	1516.35	10.05
308.15	0.1	1524.65	10.05
288.15	0.2	1476.43	10.05
293.15	0.2	1491.25	10.05
298.15	0.2	1504.52	10.05
303.15	0.2	1519.01	10.05
308.15	0.2	1527.25	10.05

System: N-acetylglycine + water; phases: Liquid
Fixed: Pressure, kPa = 100
Property: Viscosity, Pa*s (Liquid); method: Falling or rolling sphere viscometry
Temperature, K	Molality, mol/kg of N-acetylglycine	Viscosity, Pa*s	uncertainty
288.15	0.05	0.001091	0.0002184
293.15	0.05	0.0009664	0.0001935
298.15	0.05	0.000863	0.0001727
303.15	0.05	0.0008379	0.0001677
308.15	0.05	0.0007411	0.0001484
288.15	0.1	0.0011505	0.0002303
293.15	0.1	0.0010189	0.000204
298.15	0.1	0.0009071	0.0001816
303.15	0.1	0.0008579	0.0001717
308.15	0.1	0.0007624	0.0001526
288.15	0.2	0.0011869	0.0002376
293.15	0.2	0.0010479	0.0002098
298.15	0.2	0.0009357	0.0001873
303.15	0.2	0.0008904	0.0001782
308.15	0.2	0.0007856	0.0001573
288.15	0	0.001043	0.0002088
293.15	0	0.0009312	0.0001864
298.15	0	0.0008319	0.0001665
303.15	0	0.0007981	0.0001598
308.15	0	0.0007202	0.0001442

System: disodium hydrogen phosphate + water; phases: Liquid
Fixed: Pressure, kPa = 100
Property: Viscosity, Pa*s (Liquid); method: Falling or rolling sphere viscometry
Temperature, K	Molality, mol/kg of disodium hydrogen phosphate	Viscosity, Pa*s	uncertainty
288.15	0.01669	0.0010555	0.0002113
288.15	0.03487	0.0010692	0.0002141
288.15	0.05412	0.0010836	0.0002169
288.15	0.06194	0.0010895	0.0002181
288.15	0.08565	0.0011072	0.0002217
288.15	0.16197	0.0011645	0.0002332
288.15	0.25495	0.0012342	0.0002471
288.15	0.31612	0.0012801	0.0002563
288.15	0.4813	0.001404	0.0002812
288.15	0.62613	0.0015126	0.000303
288.15	0.75012	0.0016056	0.0003216
288.15	0.85013	0.0016806	0.0003367
288.15	0.95898	0.0017622	0.0003531
293.15	0.01669	0.0009429	0.0001888
293.15	0.03487	0.0009556	0.0001913
293.15	0.05412	0.000969	0.000194
293.15	0.06194	0.0009745	0.0001951
293.15	0.08565	0.0009911	0.0001984
293.15	0.16197	0.0010444	0.0002091
293.15	0.25495	0.0011094	0.0002221
293.15	0.31612	0.0011522	0.0002307
293.15	0.4813	0.0012676	0.0002539
293.15	0.62613	0.0013689	0.0002742
293.15	0.75012	0.0014555	0.0002916
293.15	0.85013	0.0015254	0.0003056
293.15	0.95898	0.0016015	0.0003209
298.15	0.01669	0.0008421	0.0001686
298.15	0.03487	0.0008532	0.0001708
298.15	0.05412	0.000865	0.0001732
298.15	0.06194	0.0008698	0.0001741
298.15	0.08565	0.0008843	0.000177
298.15	0.16197	0.000931	0.0001864
298.15	0.25495	0.0009879	0.0001978
298.15	0.31612	0.0010254	0.0002053
298.15	0.4813	0.0011265	0.0002256
298.15	0.62613	0.0012151	0.0002434
298.15	0.75012	0.001291	0.0002586
298.15	0.85013	0.0013522	0.0002709
298.15	0.95898	0.0014188	0.0002843
303.15	0.01669	0.000806	0.0001614
303.15	0.03487	0.0008146	0.0001631
303.15	0.05412	0.0008238	0.0001649
303.15	0.06194	0.0008275	0.0001657
303.15	0.08565	0.0008387	0.0001679
303.15	0.16197	0.0008749	0.0001752
303.15	0.25495	0.0009189	0.000184
303.15	0.31612	0.0009479	0.0001898
303.15	0.4813	0.0010262	0.0002055
303.15	0.62613	0.0010949	0.0002193
303.15	0.75012	0.0011537	0.0002311
303.15	0.85013	0.0012011	0.0002406
303.15	0.95898	0.0012527	0.0002512
308.15	0.01669	0.0007281	0.0001458
308.15	0.03487	0.0007367	0.0001475
308.15	0.05412	0.0007459	0.0001493
308.15	0.06194	0.0007496	0.0001501
308.15	0.08565	0.0007608	0.0001523
308.15	0.16197	0.000797	0.0001596
308.15	0.25495	0.000841	0.0001684
308.15	0.31612	0.00087	0.0001742
308.15	0.4813	0.0009483	0.0001899
308.15	0.62613	0.001017	0.0002037
308.15	0.75012	0.0010758	0.0002155
308.15	0.85013	0.0011232	0.000225
308.15	0.95898	0.0011748	0.0002354
288.15	0	0.001043	0.0002088
293.15	0	0.0009312	0.0001864
298.15	0	0.0008319	0.0001665
303.15	0	0.0007981	0.0001598
308.15	0	0.0007202	0.0001442
