Measured thermophysical data. Low-temperature thermodynamic properties of Ir(C5H7O2)3: Connection of entropy with the molecule volume for tris-acetylacetonates of metals
Source: J. Chem. Thermodyn., 2008, 10.1016/j.jct.2007.12.009
Compound 1: iridium, tris(2,4-pentanedionato-O,O')-, (oc-6-11)-, C15H21IrO6, InChI=1S/3C5H7O2.Ir/c3*1-4(6)3-5(2)7;/h3*3H,1-2H3;/q3*-1;+3

System: iridium, tris(2,4-pentanedionato-O,O')-, (oc-6-11)-; phases: Crystal, Liquid, Air at 1 atmosphere
Property: Normal melting temperature, K (Crystal); method: Boetius table
Normal melting temperature, K	uncertainty
543	2

System: iridium, tris(2,4-pentanedionato-O,O')-, (oc-6-11)-; phases: Crystal
Property: Mass density, kg/m3 (Crystal); method: Pycnometric method
Temperature, K	Pressure, kPa	Mass density, kg/m3	uncertainty
300	101.325	1920	21

System: iridium, tris(2,4-pentanedionato-O,O')-, (oc-6-11)-; phases: Crystal
Fixed: Pressure, kPa = 101.325
Property: Molar heat capacity at constant pressure, J/K/mol (Crystal); method: VADIAC:UFactor:8
Temperature, K	Molar heat capacity at constant pressure, J/K/mol	uncertainty
5.45	2.074	0.228
6.87	3.975	0.351
8.06	5.961	0.473
9.3	8.024	0.592
10.45	9.966	0.695
11.59	11.83	0.79
12.77	13.91	0.88
13.92	15.97	0.97
15.01	18.28	1.06
16.1	20.31	1.13
17.35	22.67	1.2
18.8	25.6	1.3
20.44	28.8	1.3
22.23	32.52	1.41
24.22	36.85	1.46
26.35	41.36	1.47
28.54	46.23	1.46
30.84	51.36	1.14
33.24	56.94	1.23
35.68	62.93	1.33
38.17	68.37	1.41
40.64	74.94	1.52
43.15	79.84	1.6
45.67	86.13	1.7
48.17	92.14	1.79
50.63	98.21	1.89
53.62	105.5	2
57.02	113.67	2.14
60.12	121.03	2.26
63.12	127.99	2.37
66.25	135.17	2.48
69.67	143.02	2.61
73.47	151.19	2.74
77.41	159.71	2.88
80.66	166.42	2.98
82.15	169.48	3.03
84.7	174.84	3.12
87.46	180.23	3.2
92.4	189.29	3.11
97.05	198.01	3.18
99.23	202.18	3.22
101.48	205.7	3.2
105.78	213.01	3.3
109.91	219.51	3.36
113.87	225.57	3.4
117.72	231.36	3.45
119.36	233.73	3.47
121.47	236.68	3.49
125.13	241.78	3.53
126.61	243.78	3.55
133.64	254.12	3.63
140.5	262.14	3.7
147.09	270.4	3.8
159.56	284.6	3.9
165.53	291.7	3.9
171.85	298.3	4
178.53	305.4	4
185.09	312.1	4.1
190.64	316.9	4.1
197.04	322.1	4.2
203.35	330.8	4.2
209.61	336.7	4.3
215.79	343.2	4.3
221.89	346.5	4.4
227.9	350.7	4.4
234.23	358.4	4.5
240.9	366.2	4.5
247.43	372.3	4.6
259.66	384.5	4.7
266.26	390.8	4.7
272.53	398.2	4.8
275.46	400.1	4.8
280.13	404.1	4.8
286.32	413.3	4.9
292.45	417.8	4.9
298.52	423.2	5
304.52	430.2	5

System: iridium, tris(2,4-pentanedionato-O,O')-, (oc-6-11)-; phases: Crystal
Property: Molar enthalpy, kJ/mol (Crystal); method: VADIAC:UFactor:8
Temperature, K	Pressure, kPa	Molar enthalpy, kJ/mol	uncertainty
298.15	101.325	73.509	0.825

System: iridium, tris(2,4-pentanedionato-O,O')-, (oc-6-11)-; phases: Crystal
Property: Molar entropy, J/K/mol (Crystal); method: VADIAC:UFactor:8
Temperature, K	Pressure, kPa	Molar entropy, J/K/mol	uncertainty
298.15	101.325	500	6.5
