Measured thermophysical data. The thermodynamics of vaporization of ethyl tert-butyl ether, isobutyl tert-butyl ether, and di-isopropyl ether
Source: J. Chem. Thermodyn., 2007, 10.1016/j.jct.2006.05.007
Compound 1: diisopropyl ether, C6H14O, InChI=1S/C6H14O/c1-5(2)7-6(3)4/h5-6H,1-4H3, purity 99.96%
Compound 2: 2-ethoxy-2-methylpropane, C6H14O, InChI=1S/C6H14O/c1-5-7-6(2,3)4/h5H2,1-4H3
Compound 3: isobutyl tert-butyl ether, C8H18O, InChI=1S/C8H18O/c1-7(2)6-9-8(3,4)5/h7H,6H2,1-5H3

System: diisopropyl ether; phases: Liquid, Gas
Property: Vapor or sublimation pressure, kPa (Liquid); method: Twin ebulliometer
Temperature, K	Vapor or sublimation pressure, kPa	uncertainty
308.577	30.91	0.044
313.252	37.264	0.045
318.654	45.827	0.046
324.172	56.116	0.048
329.4	67.493	0.05
334.98	81.571	0.053
339.026	93.182	0.055
339.73	95.31	0.056
340.412	97.438	0.056

System: 2-ethoxy-2-methylpropane; phases: Liquid, Gas
Property: Vapor or sublimation pressure, kPa (Liquid); method: Twin ebulliometer
Temperature, K	Vapor or sublimation pressure, kPa	uncertainty
298.249	16.831	0.042
303.129	20.877	0.042
307.44	25.072	0.043
312.548	30.91	0.044
317.29	37.264	0.045
322.739	45.827	0.046
328.302	56.116	0.048
333.561	67.493	0.05
339.167	81.571	0.053
343.231	93.182	0.057
343.891	95.31	0.057
344.572	97.438	0.057
345.252	99.604	0.057
345.915	101.688	0.057

System: isobutyl tert-butyl ether; phases: Liquid, Gas
Property: Vapor or sublimation pressure, kPa (Liquid); method: Ebulliometric method (Recirculating still)
Temperature, K	Vapor or sublimation pressure, kPa	uncertainty
310.607	6.234	0.041
317.065	8.426	0.041
322.595	10.801	0.041
327.654	13.429	0.041
333.132	16.831	0.042
338.551	20.877	0.042
343.334	25.072	0.043
349.003	30.91	0.043
354.256	37.264	0.044
360.314	45.827	0.045
366.48	56.116	0.047
372.347	67.493	0.049
378.591	81.571	0.051
383.128	93.182	0.054
383.919	95.31	0.054
384.693	97.438	0.055
385.451	99.604	0.055
