Measured thermophysical data. Thermodynamic and transport properties of acetonitrile + alkanediols liquid mixtures at different temperatures, experimental measurements and modeling
Source: J. Chem. Thermodyn., 2017, 10.1016/j.jct.2017.06.004
Compound 1: acetonitrile, C2H3N, InChI=1S/C2H3N/c1-2-3/h1H3, purity 99%
Compound 2: 1,2-ethanediol, C2H6O2, InChI=1S/C2H6O2/c3-1-2-4/h3-4H,1-2H2, purity 99%
Compound 3: 1,2-propanediol, C3H8O2, InChI=1S/C3H8O2/c1-3(5)2-4/h3-5H,2H2,1H3, purity 99%
Compound 4: propan-1,3-diol, C3H8O2, InChI=1S/C3H8O2/c4-2-1-3-5/h4-5H,1-3H2, purity 98%

System: acetonitrile; phases: Liquid
Fixed: Pressure, kPa = 100
Property: Mass density, kg/m3 (Liquid); method: Vibrating tube method
Temperature, K	Mass density, kg/m3	uncertainty
293.15	782	5
298.15	776	5
303.15	771	5

System: acetonitrile; phases: Liquid
Fixed: Pressure, kPa = 100
Property: Viscosity, Pa*s (Liquid); method: Falling or rolling sphere viscometry
Temperature, K	Viscosity, Pa*s	uncertainty
293.15	0.00036	7e-05
298.15	0.00034	7e-05
303.15	0.00032	6e-05

System: acetonitrile; phases: Liquid
Property: Refractive index (Na D-line) (Liquid); method: Standard Abbe refractometry
Temperature, K	Pressure, kPa	Refractive index (Na D-line)	uncertainty
298.15	100	1.34	0.027

System: 1,2-ethanediol; phases: Liquid
Fixed: Pressure, kPa = 100
Property: Mass density, kg/m3 (Liquid); method: Vibrating tube method
Temperature, K	Mass density, kg/m3	uncertainty
293.15	1113	7
298.15	1109	7
303.15	1106	7

System: 1,2-ethanediol; phases: Liquid
Fixed: Pressure, kPa = 100
Property: Viscosity, Pa*s (Liquid); method: Falling or rolling sphere viscometry
Temperature, K	Viscosity, Pa*s	uncertainty
293.15	0.0209	0.0042
298.15	0.0177	0.0035
303.15	0.0137	0.0027

System: 1,2-ethanediol; phases: Liquid
Property: Refractive index (Na D-line) (Liquid); method: Standard Abbe refractometry
Temperature, K	Pressure, kPa	Refractive index (Na D-line)	uncertainty
298.15	100	1.43	0.029

System: 1,2-propanediol; phases: Liquid
Fixed: Pressure, kPa = 100
Property: Mass density, kg/m3 (Liquid); method: Vibrating tube method
Temperature, K	Mass density, kg/m3	uncertainty
293.15	1036	6
298.15	1033	6
303.15	1029	6

System: 1,2-propanediol; phases: Liquid
Fixed: Pressure, kPa = 100
Property: Viscosity, Pa*s (Liquid); method: Falling or rolling sphere viscometry
Temperature, K	Viscosity, Pa*s	uncertainty
293.15	0.0546	0.0109
298.15	0.0434	0.0087
303.15	0.0338	0.0068

System: 1,2-propanediol; phases: Liquid
Property: Refractive index (Na D-line) (Liquid); method: Standard Abbe refractometry
Temperature, K	Pressure, kPa	Refractive index (Na D-line)	uncertainty
298.15	100	1.429	0.029

System: propan-1,3-diol; phases: Liquid
Fixed: Pressure, kPa = 100
Property: Mass density, kg/m3 (Liquid); method: Vibrating tube method
Temperature, K	Mass density, kg/m3	uncertainty
293.15	1053	6
298.15	1049	6
303.15	1046	6

System: propan-1,3-diol; phases: Liquid
Fixed: Pressure, kPa = 100
Property: Viscosity, Pa*s (Liquid); method: Falling or rolling sphere viscometry
Temperature, K	Viscosity, Pa*s	uncertainty
293.15	0.0531	0.0106
298.15	0.0412	0.0083
303.15	0.0334	0.0067

System: propan-1,3-diol; phases: Liquid
Property: Refractive index (Na D-line) (Liquid); method: Standard Abbe refractometry
Temperature, K	Pressure, kPa	Refractive index (Na D-line)	uncertainty
298.15	100	1.438	0.029

System: acetonitrile + 1,2-ethanediol; phases: Liquid
Fixed: Pressure, kPa = 100
Property: Mass density, kg/m3 (Liquid); method: Vibrating tube method
Temperature, K	Mole fraction of acetonitrile	Mass density, kg/m3	uncertainty
293.15	0	1113	7
293.15	0.1016	1083	7
293.15	0.2004	1054	6
293.15	0.3019	1024	6
293.15	0.3984	994	6
293.15	0.4901	964	6
293.15	0.6353	914	6
293.15	0.6987	892	5
293.15	0.8061	853	5
293.15	0.8984	819	5
293.15	1	782	5
298.15	0	1109	7
298.15	0.1016	1079	7
298.15	0.2004	1051	6
298.15	0.3019	1020	6
298.15	0.3984	990	6
298.15	0.4901	960	6
298.15	0.6353	910	6
298.15	0.6987	887	5
298.15	0.8061	848	5
298.15	0.8984	814	5
298.15	1	776	5
303.15	0	1106	7
303.15	0.1016	1076	7
303.15	0.2004	1047	6
303.15	0.3019	1017	6
303.15	0.3984	986	6
303.15	0.4901	956	6
303.15	0.6353	905	6
303.15	0.6987	882	5
303.15	0.8061	843	5
303.15	0.8984	809	5
303.15	1	771	5

System: acetonitrile + 1,2-ethanediol; phases: Liquid
Fixed: Pressure, kPa = 100
Property: Viscosity, Pa*s (Liquid); method: Falling or rolling sphere viscometry
Temperature, K	Mole fraction of acetonitrile	Viscosity, Pa*s	uncertainty
293.15	0	0.0209	0.0042
293.15	0.1016	0.013	0.0026
293.15	0.2004	0.0084	0.0017
293.15	0.3019	0.00553	0.00111
293.15	0.3984	0.00348	0.0007
293.15	0.4901	0.0024	0.00048
293.15	0.6353	0.00135	0.00027
293.15	0.6987	0.00106	0.00021
293.15	0.8061	0.00071	0.00014
293.15	0.8984	0.00051	0.0001
293.15	1	0.00036	7e-05
298.15	0	0.0177	0.0035
298.15	0.1016	0.0112	0.0022
298.15	0.2004	0.00741	0.00148
298.15	0.3019	0.00487	0.00098
298.15	0.3984	0.00319	0.00064
298.15	0.4901	0.00221	0.00044
298.15	0.6353	0.00125	0.00025
298.15	0.6987	0.00098	0.0002
298.15	0.8061	0.00066	0.00013
298.15	0.8984	0.00048	0.0001
298.15	1	0.00034	7e-05
303.15	0	0.0137	0.0027
303.15	0.1016	0.00925	0.00185
303.15	0.2004	0.00617	0.00124
303.15	0.3019	0.00425	0.00085
303.15	0.3984	0.00285	0.00057
303.15	0.4901	0.00201	0.0004
303.15	0.6353	0.00117	0.00023
303.15	0.6987	0.00093	0.00019
303.15	0.8061	0.00063	0.00013
303.15	0.8984	0.00045	9e-05
303.15	1	0.00032	6e-05

System: acetonitrile + 1,2-ethanediol; phases: Liquid
Fixed: Temperature, K = 298.15
Fixed: Pressure, kPa = 100
Property: Refractive index (Na D-line) (Liquid); method: Standard Abbe refractometry
Mole fraction of acetonitrile	Refractive index (Na D-line)	uncertainty
0	1.43	0.029
0.1016	1.423	0.028
0.2004	1.415	0.028
0.3019	1.407	0.028
0.3984	1.399	0.028
0.4901	1.391	0.028
0.6353	1.378	0.028
0.6987	1.372	0.027
0.8061	1.361	0.027
0.8984	1.352	0.027
1	1.34	0.027

System: 1,2-propanediol + acetonitrile; phases: Liquid
Fixed: Pressure, kPa = 100
Property: Mass density, kg/m3 (Liquid); method: Vibrating tube method
Temperature, K	Mole fraction of acetonitrile	Mass density, kg/m3	uncertainty
293.15	0	1036	6
293.15	0.1127	1018	6
293.15	0.2	1001	6
293.15	0.3055	980	6
293.15	0.4021	958	6
293.15	0.5008	934	6
293.15	0.5989	909	6
293.15	0.6987	881	5
293.15	0.7958	852	5
293.15	0.8961	820	5
293.15	1	782	5
298.15	0	1033	6
298.15	0.1127	1014	6
298.15	0.2	997	6
298.15	0.3055	975	6
298.15	0.4021	954	6
298.15	0.5008	930	6
298.15	0.5989	904	5
298.15	0.6987	876	5
298.15	0.7958	847	5
298.15	0.8961	814	5
298.15	1	776	5
303.15	0	1029	6
303.15	0.1127	1010	6
303.15	0.2	993	6
303.15	0.3055	971	6
303.15	0.4021	949	6
303.15	0.5008	925	6
303.15	0.5989	900	5
303.15	0.6987	872	5
303.15	0.7958	842	5
303.15	0.8961	809	5
303.15	1	771	5

System: 1,2-propanediol + acetonitrile; phases: Liquid
Fixed: Pressure, kPa = 100
Property: Viscosity, Pa*s (Liquid); method: Falling or rolling sphere viscometry
Temperature, K	Mole fraction of acetonitrile	Viscosity, Pa*s	uncertainty
293.15	0	0.0546	0.0109
293.15	0.1127	0.0314	0.0063
293.15	0.2	0.0203	0.0041
293.15	0.3055	0.0122	0.0024
293.15	0.4021	0.00753	0.00151
293.15	0.5008	0.00471	0.00094
293.15	0.5989	0.0029	0.00058
293.15	0.6987	0.00182	0.00036
293.15	0.7958	0.0011	0.00022
293.15	0.8961	0.00066	0.00013
293.15	1	0.00036	7e-05
298.15	0	0.0434	0.0087
298.15	0.1127	0.0254	0.0051
298.15	0.2	0.0169	0.0034
298.15	0.3055	0.0103	0.0021
298.15	0.4021	0.00621	0.00124
298.15	0.5008	0.00402	0.00081
298.15	0.5989	0.00242	0.00049
298.15	0.6987	0.00157	0.00031
298.15	0.7958	0.00097	0.00019
298.15	0.8961	0.00059	0.00012
298.15	1	0.00034	7e-05
303.15	0	0.0338	0.0068
303.15	0.1127	0.0208	0.0042
303.15	0.2	0.0138	0.0028
303.15	0.3055	0.00868	0.00174
303.15	0.4021	0.00548	0.0011
303.15	0.5008	0.00352	0.00071
303.15	0.5989	0.00225	0.00045
303.15	0.6987	0.0014	0.00028
303.15	0.7958	0.00087	0.00017
303.15	0.8961	0.00053	0.00011
303.15	1	0.00032	6e-05

System: 1,2-propanediol + acetonitrile; phases: Liquid
Fixed: Temperature, K = 298.15
Fixed: Pressure, kPa = 100
Property: Refractive index (Na D-line) (Liquid); method: Standard Abbe refractometry
Mole fraction of acetonitrile	Refractive index (Na D-line)	uncertainty
0	1.429	0.029
0.1127	1.422	0.028
0.2	1.418	0.028
0.3055	1.411	0.028
0.4021	1.404	0.028
0.5008	1.396	0.028
0.5989	1.387	0.028
0.6987	1.377	0.028
0.7958	1.366	0.027
0.8961	1.354	0.027
1	1.34	0.027

System: acetonitrile + propan-1,3-diol; phases: Liquid
Fixed: Pressure, kPa = 100
Property: Mass density, kg/m3 (Liquid); method: Vibrating tube method
Temperature, K	Mole fraction of acetonitrile	Mass density, kg/m3	uncertainty
293.15	0	1053	6
293.15	0.1027	1033	6
293.15	0.2001	1014	6
293.15	0.3048	992	6
293.15	0.4057	969	6
293.15	0.5001	945	6
293.15	0.6001	917	6
293.15	0.6993	887	5
293.15	0.8002	854	5
293.15	0.8956	820	5
293.15	1	782	5
298.15	0	1049	6
298.15	0.1027	1030	6
298.15	0.2001	1011	6
298.15	0.3048	988	6
298.15	0.4057	965	6
298.15	0.5001	941	6
298.15	0.6001	913	6
298.15	0.6993	882	5
298.15	0.8002	849	5
298.15	0.8956	815	5
298.15	1	776	5
303.15	0	1046	6
303.15	0.1027	1027	6
303.15	0.2001	1007	6
303.15	0.3048	985	6
303.15	0.4057	961	6
303.15	0.5001	937	6
303.15	0.6001	908	6
303.15	0.6993	878	5
303.15	0.8002	844	5
303.15	0.8956	810	5
303.15	1	771	5

System: acetonitrile + propan-1,3-diol; phases: Liquid
Fixed: Pressure, kPa = 100
Property: Viscosity, Pa*s (Liquid); method: Falling or rolling sphere viscometry
Temperature, K	Mole fraction of acetonitrile	Viscosity, Pa*s	uncertainty
293.15	0	0.0531	0.0106
293.15	0.1027	0.0314	0.0063
293.15	0.2001	0.0196	0.0039
293.15	0.3048	0.0114	0.0023
293.15	0.4057	0.00684	0.00137
293.15	0.5001	0.00412	0.00083
293.15	0.6001	0.00259	0.00052
293.15	0.6993	0.00159	0.00032
293.15	0.8002	0.00092	0.00018
293.15	0.8956	0.00058	0.00012
293.15	1	0.00036	7e-05
298.15	0	0.0412	0.0083
298.15	0.1027	0.0247	0.005
298.15	0.2001	0.0145	0.0029
298.15	0.3048	0.00812	0.00163
298.15	0.4057	0.00469	0.00094
298.15	0.5001	0.00289	0.00058
298.15	0.6001	0.00191	0.00038
298.15	0.6993	0.00123	0.00025
298.15	0.8002	0.00073	0.00015
298.15	0.8956	0.00047	9e-05
298.15	1	0.00034	7e-05
303.15	0	0.0334	0.0067
303.15	0.1027	0.0194	0.0039
303.15	0.2001	0.0112	0.0022
303.15	0.3048	0.00578	0.00116
303.15	0.4057	0.00333	0.00067
303.15	0.5001	0.00221	0.00044
303.15	0.6001	0.00137	0.00027
303.15	0.6993	0.00089	0.00018
303.15	0.8002	0.00058	0.00012
303.15	0.8956	0.00039	8e-05
303.15	1	0.00032	6e-05

System: acetonitrile + propan-1,3-diol; phases: Liquid
Fixed: Temperature, K = 298.15
Fixed: Pressure, kPa = 100
Property: Refractive index (Na D-line) (Liquid); method: Standard Abbe refractometry
Mole fraction of acetonitrile	Refractive index (Na D-line)	uncertainty
0	1.438	0.029
0.1027	1.427	0.029
0.2001	1.419	0.028
0.3048	1.409	0.028
0.4057	1.399	0.028
0.5001	1.39	0.028
0.6001	1.381	0.028
0.6993	1.371	0.027
0.8002	1.362	0.027
0.8956	1.352	0.027
1	1.34	0.027
