Measured thermophysical data. Pressure dependence of excess enthalpy for (benzene + cyclohexane) mixture near the critical locus at T = (558.2, 563.2 and 573.2) K and p = (3 to 15) MPa
Source: J. Chem. Thermodyn., 2014, 10.1016/j.jct.2014.07.016
Compound 1: benzene, C6H6, InChI=1S/C6H6/c1-2-4-6-5-3-1/h1-6H, purity 99.9%
Compound 2: cyclohexane, C6H12, InChI=1S/C6H12/c1-2-4-6-5-3-1/h1-6H2, purity 99.9%

System: benzene + cyclohexane; phases: Fluid (supercritical or subcritical phases)
Property: Excess molar enthalpy (molar enthalpy of mixing), kJ/mol (Fluid (supercritical or subcritical phases)); method: Flow calorimetry
Temperature, K	Mole fraction of benzene	Pressure, kPa	Excess molar enthalpy (molar enthalpy of mixing), kJ/mol	uncertainty
558.2	0.119	3390	0.125	0.149
558.2	0.119	3580	0.147	0.151
558.2	0.119	3790	0.195	0.156
558.2	0.119	3940	0.281	0.219
558.2	0.119	4120	0.607	0.621
558.2	0.119	4290	1.989	0.389
558.2	0.119	4410	0.118	0.243
558.2	0.119	4510	-0.372	0.437
558.2	0.119	4630	0.347	0.213
558.2	0.119	4790	0.362	0.207
558.2	0.119	4920	0.325	0.151
558.2	0.119	5100	0.288	0.15
558.2	0.119	5420	0.251	0.149
558.2	0.119	5610	0.251	0.148
558.2	0.119	5950	0.225	0.148
558.2	0.119	6210	0.225	0.151
558.2	0.119	6470	0.21	0.148
558.2	0.119	6710	0.21	0.148
558.2	0.119	7140	0.21	0.148
558.2	0.119	7790	0.187	0.148
558.2	0.119	8400	0.176	0.148
558.2	0.119	9550	0.183	0.148
558.2	0.119	11000	0.161	0.148
558.2	0.119	13030	0.153	0.148
558.2	0.119	14760	0.157	0.148
558.2	0.342	3360	0.167	0.152
558.2	0.342	3610	0.231	0.159
558.2	0.342	3810	0.363	0.191
558.2	0.342	4010	0.587	0.606
558.2	0.342	4230	2.368	0.721
558.2	0.342	4310	3.257	0.367
558.2	0.342	4420	2.485	0.915
558.2	0.342	4510	0.107	0.929
558.2	0.342	4550	0.085	0.652
558.2	0.342	4640	1.173	0.326
558.2	0.342	4720	1.045	0.356
558.2	0.342	4840	0.832	0.287
558.2	0.342	5090	0.657	0.163
558.2	0.342	5500	0.586	0.152
558.2	0.342	5930	0.511	0.15
558.2	0.342	6470	0.465	0.149
558.2	0.342	6920	0.447	0.148
558.2	0.342	8040	0.404	0.148
558.2	0.342	9520	0.379	0.148
558.2	0.342	11570	0.36	0.148
558.2	0.342	13910	0.349	0.148
558.2	0.447	3190	0.145	0.154
558.2	0.447	3530	0.243	0.155
558.2	0.447	3720	0.334	0.162
558.2	0.447	3920	0.456	0.208
558.2	0.447	4090	0.783	0.671
558.2	0.447	4230	2.066	0.758
558.2	0.447	4340	3.055	0.338
558.2	0.447	4460	2.612	0.263
558.2	0.447	4570	0.058	0.584
558.2	0.447	4640	1.58	0.514
558.2	0.447	4760	1.082	0.403
558.2	0.447	4850	1.002	0.264
558.2	0.447	4910	0.814	0.191
558.2	0.447	5060	0.768	0.229
558.2	0.447	5320	0.685	0.16
558.2	0.447	5690	0.601	0.151
558.2	0.447	6030	0.559	0.149
558.2	0.447	6430	0.531	0.149
558.2	0.447	7100	0.489	0.148
558.2	0.447	8140	0.45	0.148
558.2	0.447	9060	0.429	0.148
558.2	0.447	10990	0.404	0.148
558.2	0.447	13600	0.386	0.148
558.2	0.548	3310	0.158	0.151
558.2	0.548	3480	0.196	0.152
558.2	0.548	3610	0.24	0.157
558.2	0.548	3720	0.275	0.159
558.2	0.548	3790	0.319	0.173
558.2	0.548	3900	0.391	0.201
558.2	0.548	3960	0.49	0.212
558.2	0.548	4100	0.695	0.774
558.2	0.548	4300	2.512	0.611
558.2	0.548	4500	2.037	0.383
558.2	0.548	4640	1.975	0.382
558.2	0.548	4760	1.231	0.301
558.2	0.548	4860	1.002	0.387
558.2	0.548	5080	0.793	0.196
558.2	0.548	5280	0.721	0.166
558.2	0.548	5450	0.673	0.153
558.2	0.548	5690	0.619	0.152
558.2	0.548	5860	0.598	0.15
558.2	0.548	6120	0.557	0.149
558.2	0.548	6850	0.505	0.148
558.2	0.548	7210	0.495	0.148
558.2	0.548	7700	0.471	0.148
558.2	0.548	8110	0.454	0.148
558.2	0.548	9150	0.433	0.148
558.2	0.548	10770	0.405	0.148
558.2	0.548	12810	0.391	0.148
558.2	0.548	14940	0.38	0.148
558.2	0.646	3110	0.11	0.151
558.2	0.646	3450	0.181	0.151
558.2	0.646	3720	0.241	0.161
558.2	0.646	3980	0.419	0.221
558.2	0.646	4150	0.767	0.637
558.2	0.646	4290	1.88	0.561
558.2	0.646	4390	2.282	0.347
558.2	0.646	4470	2.201	0.416
558.2	0.646	4540	1.551	0.389
558.2	0.646	4610	1.762	0.437
558.2	0.646	4790	1.095	0.406
558.2	0.646	4920	0.807	0.308
558.2	0.646	5010	0.763	0.23
558.2	0.646	5510	0.619	0.153
558.2	0.646	5900	0.545	0.149
558.2	0.646	6430	0.491	0.149
558.2	0.646	6910	0.468	0.149
558.2	0.646	8030	0.417	0.149
558.2	0.646	9040	0.4	0.149
558.2	0.646	11060	0.369	0.149
558.2	0.646	13130	0.362	0.148
558.2	0.739	3290	0.107	0.15
558.2	0.739	3610	0.163	0.15
558.2	0.739	3860	0.248	0.161
558.2	0.739	4120	0.419	0.32
558.2	0.739	4340	1.369	0.519
558.2	0.739	4500	1.731	0.423
558.2	0.739	4570	1.254	0.188
558.2	0.739	4650	2.158	0.347
558.2	0.739	4800	0.928	0.52
558.2	0.739	4880	0.794	0.43
558.2	0.739	4960	0.665	0.182
558.2	0.739	5140	0.609	0.183
558.2	0.739	5540	0.511	0.153
558.2	0.739	5850	0.484	0.151
558.2	0.739	6180	0.428	0.15
558.2	0.739	6570	0.405	0.149
558.2	0.739	7560	0.359	0.148
558.2	0.739	8690	0.332	0.148
558.2	0.739	9950	0.322	0.148
558.2	0.739	11710	0.305	0.148
558.2	0.739	14070	0.291	0.148
558.2	0.916	3270	0.021	0.148
558.2	0.916	3820	0.055	0.148
558.2	0.916	4000	0.062	0.15
558.2	0.916	4230	0.125	0.209
558.2	0.916	4320	0.173	0.188
558.2	0.916	4440	0.562	0.162
558.2	0.916	4540	0.553	0.161
558.2	0.916	4700	0.296	0.172
558.2	0.916	4980	0.242	0.159
558.2	0.916	5190	0.207	0.157
558.2	0.916	5300	0.188	0.15
558.2	0.916	5560	0.188	0.149
558.2	0.916	5610	0.176	0.149
558.2	0.916	5820	0.172	0.148
558.2	0.916	5970	0.157	0.162
558.2	0.916	6120	0.16	0.148
558.2	0.916	6470	0.15	0.148
558.2	0.916	6830	0.138	0.148
558.2	0.916	7520	0.125	0.148
558.2	0.916	7770	0.122	0.148
558.2	0.916	8460	0.122	0.148
558.2	0.916	9530	0.115	0.148
558.2	0.916	10250	0.099	0.148
558.2	0.916	11830	0.083	0.148
558.2	0.916	13700	0.083	0.148
563.2	0.119	3700	0.118	0.15
563.2	0.119	3940	0.177	0.155
563.2	0.119	4070	0.239	0.189
563.2	0.119	4300	0.499	0.315
563.2	0.119	4420	0.886	0.178
563.2	0.119	4540	1.252	0.198
563.2	0.119	4610	0.68	0.32
563.2	0.119	4710	0.061	0.558
563.2	0.119	4850	-0.112	0.176
563.2	0.119	4950	0.339	0.165
563.2	0.119	5000	0.354	0.188
563.2	0.119	5160	0.327	0.15
563.2	0.119	5320	0.299	0.151
563.2	0.119	5560	0.27	0.149
563.2	0.119	5870	0.242	0.148
563.2	0.119	6170	0.227	0.148
563.2	0.119	6520	0.214	0.148
563.2	0.119	7360	0.195	0.148
563.2	0.119	8970	0.174	0.148
563.2	0.119	11040	0.16	0.148
563.2	0.119	13790	0.156	0.148
563.2	0.233	3200	0.099	0.149
563.2	0.233	3490	0.142	0.149
563.2	0.233	3720	0.19	0.153
563.2	0.233	3910	0.264	0.162
563.2	0.233	4080	0.376	0.194
563.2	0.233	4240	0.589	0.405
563.2	0.233	4460	1.516	0.422
563.2	0.233	4550	1.967	0.254
563.2	0.233	4620	1.571	0.575
563.2	0.233	4740	0.413	0.452
563.2	0.233	4830	-0.087	0.35
563.2	0.233	4940	0.651	0.178
563.2	0.233	5000	0.686	0.221
563.2	0.233	5100	0.642	0.153
563.2	0.233	5240	0.585	0.153
563.2	0.233	5490	0.5	0.153
563.2	0.233	5650	0.464	0.149
563.2	0.233	5840	0.435	0.15
563.2	0.233	6060	0.407	0.149
563.2	0.233	6360	0.39	0.148
563.2	0.233	7010	0.351	0.148
563.2	0.233	7940	0.323	0.148
563.2	0.233	9110	0.301	0.148
563.2	0.233	11270	0.28	0.148
563.2	0.233	12990	0.271	0.148
563.2	0.342	3440	0.159	0.15
563.2	0.342	3660	0.206	0.152
563.2	0.342	3850	0.277	0.157
563.2	0.342	4040	0.398	0.181
563.2	0.342	4240	0.644	0.46
563.2	0.342	4300	0.801	0.515
563.2	0.342	4550	2.116	0.154
563.2	0.342	4670	1.593	0.163
563.2	0.342	4800	0.255	0.175
563.2	0.342	4900	0.517	0.235
563.2	0.342	5010	0.978	0.234
563.2	0.342	5160	0.828	0.165
563.2	0.342	5270	0.753	0.163
563.2	0.342	5360	0.703	0.155
563.2	0.342	5440	0.67	0.152
563.2	0.342	5890	0.558	0.151
563.2	0.342	6270	0.511	0.149
563.2	0.342	6880	0.456	0.148
563.2	0.342	7420	0.431	0.148
563.2	0.342	8380	0.4	0.148
563.2	0.342	9490	0.381	0.148
563.2	0.342	11050	0.363	0.148
563.2	0.342	12410	0.348	0.148
563.2	0.548	3680	0.21	0.156
563.2	0.548	3930	0.309	0.16
563.2	0.548	4110	0.433	0.235
563.2	0.548	4340	0.846	0.433
563.2	0.548	4460	1.391	0.335
563.2	0.548	4550	1.787	0.343
563.2	0.548	4710	1.6	0.361
563.2	0.548	4810	0.879	0.207
563.2	0.548	4900	0.939	0.19
563.2	0.548	4960	1.533	0.204
563.2	0.548	5010	1.368	0.15
563.2	0.548	5130	1.09	0.254
563.2	0.548	5200	0.998	0.22
563.2	0.548	5300	0.892	0.165
563.2	0.548	5380	0.83	0.176
563.2	0.548	5560	0.744	0.154
563.2	0.548	5660	0.706	0.153
563.2	0.548	5790	0.666	0.154
563.2	0.548	5910	0.635	0.154
563.2	0.548	6030	0.611	0.15
563.2	0.548	6240	0.583	0.149
563.2	0.548	6470	0.553	0.149
563.2	0.548	6770	0.527	0.15
563.2	0.548	7100	0.501	0.148
563.2	0.548	7500	0.478	0.148
563.2	0.548	8140	0.457	0.148
563.2	0.548	9110	0.429	0.148
563.2	0.548	11150	0.395	0.148
563.2	0.548	12880	0.383	0.148
563.2	0.548	14860	0.372	0.148
563.2	0.739	3520	0.119	0.15
563.2	0.739	3770	0.166	0.152
563.2	0.739	4030	0.252	0.159
563.2	0.739	4200	0.353	0.182
563.2	0.739	4380	0.595	0.308
563.2	0.739	4580	1.179	0.199
563.2	0.739	4700	1.239	0.224
563.2	0.739	4790	0.945	0.157
563.2	0.739	4900	0.763	0.156
563.2	0.739	5040	1.219	0.166
563.2	0.739	5140	0.918	0.149
563.2	0.739	5220	0.818	0.196
563.2	0.739	5280	0.76	0.159
563.2	0.739	5420	0.656	0.169
563.2	0.739	5580	0.594	0.16
563.2	0.739	5750	0.537	0.155
563.2	0.739	6030	0.484	0.151
563.2	0.739	6510	0.434	0.149
563.2	0.739	7010	0.397	0.148
563.2	0.739	8060	0.353	0.148
563.2	0.739	9120	0.331	0.148
563.2	0.739	11040	0.306	0.148
563.2	0.739	12660	0.292	0.148
563.2	0.829	3460	0.071	0.149
563.2	0.829	3830	0.115	0.149
563.2	0.829	4050	0.174	0.154
563.2	0.829	4270	0.269	0.181
563.2	0.829	4440	0.508	0.266
563.2	0.829	4520	0.692	0.237
563.2	0.829	4610	0.824	0.185
563.2	0.829	4720	0.815	0.154
563.2	0.829	4820	0.669	0.188
563.2	0.829	4890	0.58	0.168
563.2	0.829	4970	1.16	0.189
563.2	0.829	5100	0.75	0.285
563.2	0.829	5230	0.59	0.18
563.2	0.829	5340	0.519	0.178
563.2	0.829	5490	0.463	0.152
563.2	0.829	5640	0.422	0.151
563.2	0.829	5800	0.383	0.15
563.2	0.829	6020	0.358	0.149
563.2	0.829	6440	0.321	0.149
563.2	0.829	6950	0.296	0.148
563.2	0.829	8040	0.256	0.148
563.2	0.829	9040	0.245	0.148
563.2	0.829	10050	0.235	0.148
563.2	0.829	11990	0.221	0.15
563.2	0.916	3400	0.042	0.148
563.2	0.916	3660	0.034	0.148
563.2	0.916	3860	0.048	0.149
563.2	0.916	4080	0.077	0.149
563.2	0.916	4260	0.104	0.159
563.2	0.916	4380	0.164	0.158
563.2	0.916	4560	0.283	0.179
563.2	0.916	4710	0.396	0.156
563.2	0.916	4790	0.407	0.157
563.2	0.916	5000	0.407	0.156
563.2	0.916	5080	0.381	0.152
563.2	0.916	5310	0.268	0.158
563.2	0.916	5450	0.23	0.151
563.2	0.916	5610	0.206	0.151
563.2	0.916	5820	0.188	0.149
563.2	0.916	6060	0.165	0.149
563.2	0.916	6360	0.154	0.148
563.2	0.916	6920	0.143	0.148
563.2	0.916	8040	0.117	0.148
563.2	0.916	9160	0.11	0.148
563.2	0.916	11120	0.097	0.148
563.2	0.916	12810	0.092	0.148
573.2	0.119	3240	0.053	0.148
573.2	0.119	3580	0.07	0.148
573.2	0.119	4070	0.121	0.15
573.2	0.119	4240	0.155	0.16
573.2	0.119	4440	0.223	0.192
573.2	0.119	4560	0.28	0.221
573.2	0.119	4780	0.439	0.175
573.2	0.119	4890	0.524	0.181
573.2	0.119	4950	0.531	0.151
573.2	0.119	5040	0.475	0.182
573.2	0.119	5140	0.371	0.175
573.2	0.119	5240	0.229	0.181
573.2	0.119	5330	0.168	0.157
573.2	0.119	5410	0.157	0.149
573.2	0.119	5510	0.212	0.152
573.2	0.119	5610	0.25	0.152
573.2	0.119	5720	0.278	0.149
573.2	0.119	5840	0.272	0.148
573.2	0.119	5970	0.265	0.148
573.2	0.119	6040	0.266	0.148
573.2	0.119	6160	0.255	0.148
573.2	0.119	6340	0.238	0.148
573.2	0.119	6590	0.229	0.148
573.2	0.119	6770	0.225	0.148
573.2	0.119	6860	0.217	0.148
573.2	0.119	7350	0.202	0.148
573.2	0.119	7970	0.189	0.148
573.2	0.119	8680	0.177	0.148
573.2	0.119	9870	0.175	0.148
573.2	0.119	11080	0.162	0.148
573.2	0.119	12810	0.156	0.148
573.2	0.119	15060	0.15	0.148
573.2	0.342	3100	0.087	0.149
573.2	0.342	3490	0.125	0.149
573.2	0.342	3820	0.177	0.15
573.2	0.342	4010	0.213	0.155
573.2	0.342	4280	0.31	0.167
573.2	0.342	4430	0.396	0.315
573.2	0.342	4690	0.619	0.244
573.2	0.342	4820	0.808	0.217
573.2	0.342	4940	0.987	0.162
573.2	0.342	5030	1.016	0.15
573.2	0.342	5180	0.815	0.241
573.2	0.342	5360	0.473	0.158
573.2	0.342	5570	0.606	0.159
573.2	0.342	5590	0.639	0.159
573.2	0.342	5830	0.681	0.149
573.2	0.342	5890	0.662	0.149
573.2	0.342	6170	0.598	0.15
573.2	0.342	6370	0.565	0.15
573.2	0.342	6650	0.523	0.149
573.2	0.342	6840	0.499	0.149
573.2	0.342	7080	0.479	0.148
573.2	0.342	7190	0.472	0.149
573.2	0.342	7480	0.45	0.148
573.2	0.342	7860	0.431	0.148
573.2	0.342	8190	0.415	0.148
573.2	0.342	8830	0.391	0.148
573.2	0.342	9790	0.381	0.148
573.2	0.342	10790	0.361	0.148
573.2	0.342	11180	0.357	0.148
573.2	0.342	13170	0.34	0.148
573.2	0.342	15040	0.332	0.148
573.2	0.447	3030	0.087	0.149
573.2	0.447	3450	0.132	0.149
573.2	0.447	3890	0.213	0.151
573.2	0.447	4180	0.287	0.156
573.2	0.447	4460	0.42	0.23
573.2	0.447	4720	0.675	0.252
573.2	0.447	4880	0.908	0.2
573.2	0.447	5000	1.042	0.193
573.2	0.447	5060	1.05	0.162
573.2	0.447	5120	1.017	0.155
573.2	0.447	5190	0.914	0.227
573.2	0.447	5270	0.745	0.219
573.2	0.447	5340	0.637	0.152
573.2	0.447	5420	0.605	0.149
573.2	0.447	5550	0.754	0.17
573.2	0.447	5650	0.822	0.164
573.2	0.447	5740	0.829	0.153
573.2	0.447	5810	0.806	0.155
573.2	0.447	6090	0.714	0.154
573.2	0.447	6550	0.608	0.151
573.2	0.447	6850	0.563	0.149
573.2	0.447	7340	0.514	0.149
573.2	0.447	7900	0.481	0.148
573.2	0.447	8320	0.458	0.148
573.2	0.447	9160	0.43	0.148
573.2	0.447	11020	0.401	0.148
573.2	0.447	12950	0.381	0.148
573.2	0.447	15180	0.371	0.148
573.2	0.548	3110	0.09	0.149
573.2	0.548	3660	0.148	0.149
573.2	0.548	3970	0.218	0.151
573.2	0.548	4160	0.255	0.155
573.2	0.548	4380	0.347	0.183
573.2	0.548	4500	0.42	0.228
573.2	0.548	4620	0.517	0.281
573.2	0.548	4710	0.606	0.25
573.2	0.548	4850	0.797	0.21
573.2	0.548	4930	0.917	0.184
573.2	0.548	5030	0.999	0.168
573.2	0.548	5120	0.972	0.161
573.2	0.548	5290	0.761	0.173
573.2	0.548	5330	0.703	0.179
573.2	0.548	5470	0.697	0.17
573.2	0.548	5570	0.857	0.162
573.2	0.548	5630	0.897	0.162
573.2	0.548	5720	0.902	0.148
573.2	0.548	5810	0.876	0.156
573.2	0.548	5880	0.828	0.157
573.2	0.548	5930	0.798	0.157
573.2	0.548	6090	0.75	0.154
573.2	0.548	6140	0.736	0.154
573.2	0.548	6320	0.672	0.152
573.2	0.548	6500	0.629	0.151
573.2	0.548	6670	0.604	0.149
573.2	0.548	6870	0.578	0.149
573.2	0.548	7270	0.532	0.149
573.2	0.548	7460	0.516	0.148
573.2	0.548	7730	0.494	0.148
573.2	0.548	8030	0.476	0.148
573.2	0.548	8320	0.464	0.148
573.2	0.548	8820	0.444	0.148
573.2	0.548	9630	0.423	0.148
573.2	0.548	9990	0.417	0.148
573.2	0.548	12600	0.385	0.148
573.2	0.548	15070	0.375	0.148
573.2	0.646	2870	0.058	0.148
573.2	0.646	3290	0.088	0.148
573.2	0.646	3570	0.119	0.149
573.2	0.646	3830	0.154	0.149
573.2	0.646	4010	0.187	0.152
573.2	0.646	4260	0.255	0.158
573.2	0.646	4560	0.411	0.21
573.2	0.646	4710	0.533	0.229
573.2	0.646	4840	0.684	0.207
573.2	0.646	4920	0.78	0.185
573.2	0.646	5020	0.857	0.178
573.2	0.646	5100	0.874	0.172
573.2	0.646	5250	0.785	0.173
573.2	0.646	5340	0.696	0.149
573.2	0.646	5390	0.693	0.165
573.2	0.646	5510	0.846	0.173
573.2	0.646	5630	0.931	0.159
573.2	0.646	5690	0.921	0.157
573.2	0.646	5830	0.849	0.149
573.2	0.646	5880	0.821	0.167
573.2	0.646	5970	0.771	0.16
573.2	0.646	6040	0.741	0.16
573.2	0.646	6200	0.678	0.155
573.2	0.646	6400	0.621	0.152
573.2	0.646	6530	0.589	0.149
573.2	0.646	6810	0.551	0.15
573.2	0.646	6850	0.542	0.15
573.2	0.646	6980	0.531	0.149
573.2	0.646	7090	0.517	0.149
573.2	0.646	7730	0.463	0.148
573.2	0.646	8600	0.419	0.148
573.2	0.646	9530	0.398	0.148
573.2	0.646	11040	0.366	0.148
573.2	0.646	12970	0.354	0.148
573.2	0.646	15040	0.339	0.148
573.2	0.739	3350	0.07	0.149
573.2	0.739	3760	0.111	0.149
573.2	0.739	4100	0.166	0.151
573.2	0.739	4440	0.261	0.164
573.2	0.739	4680	0.395	0.213
573.2	0.739	4830	0.522	0.195
573.2	0.739	4970	0.644	0.165
573.2	0.739	5160	0.697	0.155
573.2	0.739	5330	0.602	0.155
573.2	0.739	5550	0.807	0.163
573.2	0.739	5640	0.873	0.155
573.2	0.739	5750	0.812	0.155
573.2	0.739	5850	0.751	0.163
573.2	0.739	5970	0.679	0.161
573.2	0.739	6180	0.592	0.15
573.2	0.739	6410	0.531	0.15
573.2	0.739	6680	0.488	0.151
573.2	0.739	6880	0.459	0.149
573.2	0.739	7090	0.437	0.149
573.2	0.739	7230	0.423	0.148
573.2	0.739	7390	0.413	0.148
573.2	0.739	7710	0.394	0.148
573.2	0.739	7900	0.38	0.148
573.2	0.739	8310	0.37	0.148
573.2	0.739	8640	0.359	0.148
573.2	0.739	9070	0.344	0.149
573.2	0.739	10990	0.314	0.148
573.2	0.739	13070	0.293	0.148
573.2	0.739	15090	0.277	0.148
573.2	0.916	3290	0.001	0.148
573.2	0.916	4060	0.032	0.148
573.2	0.916	4330	0.052	0.149
573.2	0.916	4590	0.082	0.152
573.2	0.916	4810	0.115	0.158
573.2	0.916	4950	0.17	0.156
573.2	0.916	5020	0.176	0.156
573.2	0.916	5200	0.208	0.15
573.2	0.916	5340	0.238	0.162
573.2	0.916	5440	0.321	0.155
573.2	0.916	5530	0.381	0.151
573.2	0.916	5650	0.376	0.15
573.2	0.916	5730	0.326	0.154
573.2	0.916	5840	0.276	0.155
573.2	0.916	5920	0.253	0.153
573.2	0.916	6020	0.23	0.15
573.2	0.916	6140	0.206	0.15
573.2	0.916	6310	0.185	0.149
573.2	0.916	6430	0.171	0.149
573.2	0.916	6570	0.166	0.16
573.2	0.916	6710	0.153	0.148
573.2	0.916	6880	0.141	0.148
573.2	0.916	7060	0.14	0.148
573.2	0.916	7340	0.123	0.148
573.2	0.916	7560	0.116	0.148
573.2	0.916	7870	0.111	0.148
573.2	0.916	8170	0.106	0.148
573.2	0.916	8460	0.101	0.148
573.2	0.916	8870	0.091	0.148
573.2	0.916	9470	0.088	0.148
573.2	0.916	10980	0.074	0.148
573.2	0.916	13070	0.059	0.148
573.2	0.916	14930	0.053	0.148
