Measured thermophysical data. Application of Prigogine Flory Patterson theory to excess molar volume of mixtures of 1-butyl-3-methylimidazolium ionic liquids with N-methyl-2-pyrrolidinone
Source: J. Chem. Thermodyn., 2009, 10.1016/j.jct.2008.09.003
Compound 1: 1-butyl-3-methylimidazolium tetrafluoroborate, C8H15BF4N2, InChI=1S/C8H15N2.BF4/c1-3-4-5-10-7-6-9(2)8-10;2-1(3,4)5/h6-8H,3-5H2,1-2H3;/q+1;-1
Compound 2: 1-butyl-3-methylimidazolium hexafluorophosphate, C8H15F6N2P, InChI=1S/C8H15N2.F6P/c1-3-4-5-10-7-6-9(2)8-10;1-7(2,3,4,5)6/h6-8H,3-5H2,1-2H3;/q+1;-1
Compound 3: N-methylpyrrolidone, C5H9NO, InChI=1S/C5H9NO/c1-6-4-2-3-5(6)7/h2-4H2,1H3, purity 99%

System: 1-butyl-3-methylimidazolium tetrafluoroborate; phases: Liquid
Fixed: Pressure, kPa = 101.325
Property: Mass density, kg/m3 (Liquid); method: Vibrating tube method
Temperature, K	Mass density, kg/m3	uncertainty
288.15	1211.03	7.98
293.15	1197.45	7.8
298.15	1194.6	7.76
303.15	1190.44	7.71

System: 1-butyl-3-methylimidazolium hexafluorophosphate; phases: Liquid
Fixed: Pressure, kPa = 101.325
Property: Mass density, kg/m3 (Liquid); method: Vibrating tube method
Temperature, K	Mass density, kg/m3	uncertainty
288.15	1366.31	10.19
293.15	1363.59	10.15
298.15	1358.54	10.07
303.15	1354.52	10.01

System: N-methylpyrrolidone; phases: Liquid
Fixed: Pressure, kPa = 101.325
Property: Mass density, kg/m3 (Liquid); method: Vibrating tube method
Temperature, K	Mass density, kg/m3	uncertainty
288.15	1028.29	0.25
293.15	1024.76	0.25
298.15	1019.79	0.25
303.15	1015.48	0.24

System: N-methylpyrrolidone + 1-butyl-3-methylimidazolium tetrafluoroborate; phases: Liquid
Fixed: Pressure, kPa = 101
Property: Mass density, kg/m3 (Liquid); method: Vibrating tube method
Temperature, K	Mole fraction of 1-butyl-3-methylimidazolium tetrafluoroborate	Mass density, kg/m3	uncertainty
298.15	0.1005	1066.41	0.5
298.15	0.20027	1094.71	0.85
298.15	0.3097	1119.66	1.35
298.15	0.39986	1137.16	1.87
298.15	0.4992	1153.77	2.55
298.15	0.60001	1167.95	3.37
298.15	0.69931	1179.48	4.3
298.15	0.79967	1189.39	5.37
298.15	0.89838	1198.89	6.56
303.15	0.1005	1061.41	0.5
303.15	0.20027	1088.59	0.84
303.15	0.3097	1112.4	1.33
303.15	0.39986	1128.87	1.84
303.15	0.4992	1144.52	2.51
303.15	0.60001	1157.88	3.31
303.15	0.69931	1168.84	4.22
303.15	0.79967	1178.31	5.27
303.15	0.89838	1187.08	6.43
308.15	0.1005	1056.84	0.49
308.15	0.20027	1084.56	0.83
308.15	0.3097	1108.76	1.32
308.15	0.39986	1125.48	1.83
308.15	0.4992	1141.37	2.49
308.15	0.60001	1155.09	3.29
308.15	0.69931	1166.47	4.2
308.15	0.79967	1176.33	5.25
308.15	0.89838	1185.1	6.41
313.15	0.1005	1052.64	0.49
313.15	0.20027	1080.56	0.82
313.15	0.3097	1104.92	1.31
313.15	0.39986	1121.67	1.81
313.15	0.4992	1137.63	2.48
313.15	0.60001	1151.46	3.27
313.15	0.69931	1163.1	4.18
313.15	0.79967	1173.19	5.22
313.15	0.89838	1181.93	6.37

System: N-methylpyrrolidone + 1-butyl-3-methylimidazolium hexafluorophosphate; phases: Liquid
Fixed: Pressure, kPa = 101
Property: Mass density, kg/m3 (Liquid); method: Vibrating tube method
Temperature, K	Mole fraction of 1-butyl-3-methylimidazolium hexafluorophosphate	Mass density, kg/m3	uncertainty
298.15	0.09532	1095.91	0.53
298.15	0.191	1149.65	0.92
298.15	0.28837	1193.83	1.44
298.15	0.38693	1230.81	2.13
298.15	0.48512	1261.78	2.96
298.15	0.58725	1289.38	4.01
298.15	0.6884	1312.91	5.23
298.15	0.78484	1332.34	6.57
298.15	0.8938	1351.13	8.29
303.15	0.09532	1092.57	0.52
303.15	0.191	1146.52	0.91
303.15	0.28837	1190.89	1.44
303.15	0.38693	1227.97	2.12
303.15	0.48512	1259.09	2.95
303.15	0.58725	1286.69	3.99
303.15	0.6884	1310.28	5.21
303.15	0.78484	1329.7	6.54
303.15	0.8938	1348.47	8.26
308.15	0.09532	1087.71	0.52
308.15	0.191	1141.68	0.9
308.15	0.28837	1186.09	1.42
308.15	0.38693	1223.23	2.1
308.15	0.48512	1254.28	2.93
308.15	0.58725	1281.93	3.96
308.15	0.6884	1305.47	5.17
308.15	0.78484	1324.88	6.5
308.15	0.8938	1343.52	8.2
313.15	0.09532	1083.51	0.51
313.15	0.191	1137.6	0.89
313.15	0.28837	1182.12	1.41
313.15	0.38693	1219.31	2.08
313.15	0.48512	1250.46	2.91
313.15	0.58725	1278.11	3.94
313.15	0.6884	1301.61	5.14
313.15	0.78484	1320.97	6.46
313.15	0.8938	1339.55	8.15
