Measured thermophysical data. Isobaric (vapour + liquid) equilibria data for the binary systems {1,2-dichloroethane (1) + toluene (2)} and {1,2-dichloroethane (1) + acetic acid (2)} at atmospheric pressure
Source: J. Chem. Thermodyn., 2007, 10.1016/j.jct.2006.12.003
Compound 1: toluene, C7H8, InChI=1S/C7H8/c1-7-5-3-2-4-6-7/h2-6H,1H3, purity 99.5%
Compound 2: 1,2-dichloroethane, C2H4Cl2, InChI=1S/C2H4Cl2/c3-1-2-4/h1-2H2, purity 99%
Compound 3: acetic acid, C2H4O2, InChI=1S/C2H4O2/c1-2(3)4/h1H3,(H,3,4), purity 99.7%

System: toluene; phases: Liquid
Property: Refractive index (Na D-line) (Liquid); method: Standard Abbe refractometry
Temperature, K	Pressure, kPa	Refractive index (Na D-line)	uncertainty
293.15	101.325	1.4953	0.0007

System: toluene; phases: Liquid
Property: Mass density, kg/m3 (Liquid); method: VIBTUB:UFactor:4
Temperature, K	Pressure, kPa	Mass density, kg/m3	uncertainty
293.15	101.325	862.2	0.5

System: 1,2-dichloroethane; phases: Liquid
Property: Refractive index (Na D-line) (Liquid); method: Standard Abbe refractometry
Temperature, K	Pressure, kPa	Refractive index (Na D-line)	uncertainty
293.15	101.325	1.4445	0.0007

System: 1,2-dichloroethane; phases: Liquid
Property: Mass density, kg/m3 (Liquid); method: VIBTUB:UFactor:8
Temperature, K	Pressure, kPa	Mass density, kg/m3	uncertainty
293.15	101.325	1251	1

System: acetic acid; phases: Liquid
Property: Refractive index (Na D-line) (Liquid); method: Standard Abbe refractometry
Temperature, K	Pressure, kPa	Refractive index (Na D-line)	uncertainty
293.15	101.325	1.3713	0.0007

System: acetic acid; phases: Liquid
Property: Mass density, kg/m3 (Liquid); method: VIBTUB:UFactor:4
Temperature, K	Pressure, kPa	Mass density, kg/m3	uncertainty
293.15	101.325	1049.4	0.3

System: 1,2-dichloroethane + toluene; phases: Liquid, Gas
Fixed: Pressure, kPa = 101.3
Property: Boiling temperature at pressure P, K (Liquid); method: EBULLIO:UFactor:24
Mole fraction of 1,2-dichloroethane	Boiling temperature at pressure P, K	uncertainty
0.05	380.45	2.04
0.112	378.25	2.04
0.153	376.75	2.04
0.182	375.75	2.04
0.27	374.85	2.04
0.348	372.25	2.04
0.404	371.75	2.04
0.502	370.55	2.04
0.552	369.7	2.04
0.609	368.65	2.04
0.71	366.55	2.04
0.745	365.65	2.04
0.817	362.75	2.04
0.856	362.35	2.04

System: 1,2-dichloroethane + toluene; phases: Gas, Liquid
Fixed: Pressure, kPa = 101.3
Property: Mole fraction of 1,2-dichloroethane (Gas); method: CHROM:UFactor:16
Mole fraction of 1,2-dichloroethane	Mole fraction of 1,2-dichloroethane	uncertainty
0.05	0.136	0.02
0.112	0.22	0.033
0.153	0.287	0.043
0.182	0.338	0.05
0.27	0.48	0.071
0.348	0.538	0.069
0.404	0.626	0.056
0.502	0.715	0.043
0.552	0.742	0.038
0.609	0.8	0.03
0.71	0.83	0.025
0.745	0.84	0.024
0.817	0.868	0.02
0.856	0.898	0.015

System: acetic acid + 1,2-dichloroethane; phases: Liquid, Gas
Fixed: Pressure, kPa = 101.3
Property: Boiling temperature at pressure P, K (Liquid); method: EBULLIO:UFactor:24
Mole fraction of 1,2-dichloroethane	Boiling temperature at pressure P, K	uncertainty
0.051	389.65	2.07
0.11	379.35	2.06
0.187	371.55	2.05
0.233	370.15	2.04
0.267	368.65	2.05
0.277	366.85	2.04
0.31	366.15	2.04
0.453	363.35	2.04
0.55	361.15	2.04
0.576	360.55	2.04
0.686	359.55	2.04
0.704	358.75	2.04
0.775	358.15	2.04
0.83	357.75	2.04
0.881	357.35	2.04
0.937	356.95	2.04
0.992	356.65	2.04

System: acetic acid + 1,2-dichloroethane; phases: Gas, Liquid
Fixed: Pressure, kPa = 101.3
Property: Mole fraction of 1,2-dichloroethane (Gas); method: CHROM:UFactor:16
Mole fraction of 1,2-dichloroethane	Mole fraction of 1,2-dichloroethane	uncertainty
0.051	0.151	0.023
0.11	0.342	0.051
0.187	0.501	0.074
0.233	0.539	0.069
0.267	0.565	0.065
0.277	0.587	0.062
0.31	0.613	0.058
0.453	0.728	0.041
0.55	0.788	0.032
0.576	0.81	0.028
0.686	0.83	0.025
0.704	0.853	0.022
0.775	0.883	0.017
0.83	0.909	0.014
0.881	0.931	0.01
0.937	0.957	0.007
0.992	0.982	0.003
