Measured thermophysical data. Phase behaviour for the (carbon dioxide + 1,3-butanediol diacrylate) and (carbon dioxide + 1,3-butanediol dimethacrylate) systems at elevated pressures and temperatures
Source: J. Chem. Thermodyn., 2014, 10.1016/j.jct.2013.11.030
Compound 1: carbon dioxide, CO2, InChI=1S/CO2/c2-1-3, purity 99.9%
Compound 2: 1,3-butanediol diacrylate, C10H14O4, InChI=1S/C10H14O4/c1-4-9(11)13-7-6-8(3)14-10(12)5-2/h4-5,8H,1-2,6-7H2,3H3, purity 99%
Compound 3: 1,3-butanediol dimethacrylate, C12H18O4, InChI=1S/C12H18O4/c1-8(2)11(13)15-7-6-10(5)16-12(14)9(3)4/h10H,1,3,6-7H2,2,4-5H3, purity 90%

System: carbon dioxide + 1,3-butanediol diacrylate; phases: Liquid, Gas
Property: Vapor or sublimation pressure, kPa (Liquid); method: Closed cell (Static) method
Temperature, K	Mole fraction of 1,3-butanediol diacrylate	Vapor or sublimation pressure, kPa	uncertainty
313.2	0.027	9220	200
313.2	0.043	9430	200
313.2	0.066	9360	200
313.2	0.089	9350	200
313.2	0.117	9240	200
313.2	0.172	8790	190
313.2	0.2	8450	180
313.2	0.243	8100	180
313.2	0.305	7550	170
313.2	0.389	6670	150
313.2	0.458	6190	140
313.2	0.552	5690	130
333.2	0.066	13970	290
333.2	0.089	13820	290
333.2	0.117	13430	280
333.2	0.172	12210	260
333.2	0.2	11810	250
333.2	0.243	10810	230
333.2	0.305	9710	210
333.2	0.389	8600	190
333.2	0.458	7900	170
333.2	0.552	6550	150
353.2	0.066	18380	380
353.2	0.089	18410	380
353.2	0.117	17900	370
353.2	0.172	15760	330
353.2	0.2	15120	310
353.2	0.243	13740	290
353.2	0.305	11900	250
353.2	0.389	10100	220
353.2	0.458	9230	200
353.2	0.552	7670	170
373.2	0.089	21830	450
373.2	0.117	21520	440
373.2	0.172	19310	400
373.2	0.2	18410	380
373.2	0.243	16670	340
373.2	0.305	14170	290
373.2	0.389	12090	250
373.2	0.458	10590	220
373.2	0.552	8530	190
393.2	0.089	24690	500
393.2	0.117	24660	500
393.2	0.172	22450	460
393.2	0.2	21550	440
393.2	0.243	19310	400
393.2	0.305	16590	340
393.2	0.389	14090	290
393.2	0.458	11900	250
393.2	0.552	9380	200

System: carbon dioxide + 1,3-butanediol diacrylate; phases: Gas, Liquid
Property: Vapor or sublimation pressure, kPa (Gas); method: Closed cell (Static) method
Temperature, K	Mole fraction of 1,3-butanediol diacrylate	Vapor or sublimation pressure, kPa	uncertainty
333.2	0.027	13570	280
333.2	0.043	13860	290
353.2	0.027	17760	370
353.2	0.043	17890	370
373.2	0.027	21250	430
373.2	0.043	21590	440
393.2	0.027	23970	490
393.2	0.043	24310	500
393.2	0.066	24900	510

System: carbon dioxide + 1,3-butanediol diacrylate; phases: Liquid, Gas
Property: Critical temperature, K (Liquid); method: Visual observation in an unstirred cell
Mole fraction of 1,3-butanediol diacrylate	Critical temperature, K	uncertainty
0.066	373.2	0.4

System: carbon dioxide + 1,3-butanediol diacrylate; phases: Liquid, Gas
Property: Critical pressure, kPa (Liquid); method: Direct measurement
Mole fraction of 1,3-butanediol diacrylate	Critical pressure, kPa	uncertainty
0.066	21830	70

System: carbon dioxide + 1,3-butanediol dimethacrylate; phases: Liquid, Gas
Property: Vapor or sublimation pressure, kPa (Liquid); method: Closed cell (Static) method
Temperature, K	Mole fraction of 1,3-butanediol dimethacrylate	Vapor or sublimation pressure, kPa	uncertainty
313.2	0.051	9830	210
313.2	0.077	9620	210
313.2	0.087	9500	200
313.2	0.108	9060	200
313.2	0.135	8660	190
313.2	0.163	8440	190
313.2	0.171	8380	180
313.2	0.204	8120	180
313.2	0.267	7610	170
313.2	0.299	7170	170
313.2	0.345	6520	160
313.2	0.44	5480	140
313.2	0.5	4870	130
313.2	0.526	4630	130
313.2	0.634	3940	120
333.2	0.051	14140	290
333.2	0.077	13830	290
333.2	0.108	13210	280
333.2	0.135	12440	260
333.2	0.171	11550	250
333.2	0.204	11120	240
333.2	0.267	10000	220
333.2	0.299	9350	210
333.2	0.345	8240	190
333.2	0.44	7000	170
333.2	0.5	5970	150
333.2	0.526	5760	150
333.2	0.634	4720	130
353.2	0.108	17140	360
353.2	0.135	16240	340
353.2	0.171	14900	310
353.2	0.204	14400	300
353.2	0.267	12240	270
353.2	0.299	11230	250
353.2	0.345	10310	230
353.2	0.44	8450	200
353.2	0.5	7170	180
353.2	0.526	7000	170
353.2	0.634	5380	150
373.2	0.108	20720	430
373.2	0.135	19520	400
373.2	0.171	18200	380
373.2	0.204	17280	360
373.2	0.267	14620	310
373.2	0.299	13100	280
373.2	0.345	12310	270
373.2	0.44	9760	230
373.2	0.5	8310	200
373.2	0.526	7940	190
373.2	0.634	6030	160
393.2	0.108	23170	480
393.2	0.135	22040	450
393.2	0.204	19790	410
393.2	0.267	16760	360
393.2	0.299	15280	330
393.2	0.345	13760	300
393.2	0.44	10950	250
393.2	0.634	6660	170

System: carbon dioxide + 1,3-butanediol dimethacrylate; phases: Gas, Liquid
Property: Vapor or sublimation pressure, kPa (Gas); method: Closed cell (Static) method
Temperature, K	Mole fraction of 1,3-butanediol dimethacrylate	Vapor or sublimation pressure, kPa	uncertainty
353.2	0.051	17280	360
373.2	0.051	20590	420
373.2	0.077	21000	430
393.2	0.051	22660	460
393.2	0.077	23210	480

System: carbon dioxide + 1,3-butanediol dimethacrylate; phases: Liquid, Gas
Property: Critical temperature, K (Liquid); method: Visual observation in an unstirred cell
Mole fraction of 1,3-butanediol dimethacrylate	Critical temperature, K	uncertainty
0.077	353.2	0.4

System: carbon dioxide + 1,3-butanediol dimethacrylate; phases: Liquid, Gas
Property: Critical pressure, kPa (Liquid); method: Direct measurement
Mole fraction of 1,3-butanediol dimethacrylate	Critical pressure, kPa	uncertainty
0.077	17620	70
