Measured thermophysical data. Thermodynamic, transport, and spectroscopic studies for mixtures of isomeric butanediol and N-methyl-2-pyrrolidinone
Source: J. Chem. Thermodyn., 2009, 10.1016/j.jct.2009.06.006
Compound 1: N-methylpyrrolidone, C5H9NO, InChI=1S/C5H9NO/c1-6-4-2-3-5(6)7/h2-4H2,1H3, purity 99%
Compound 2: 1,2-butanediol, C4H10O2, InChI=1S/C4H10O2/c1-2-4(6)3-5/h4-6H,2-3H2,1H3
Compound 3: 1,3-butanediol, C4H10O2, InChI=1S/C4H10O2/c1-4(6)2-3-5/h4-6H,2-3H2,1H3, purity 99%
Compound 4: 1,4-butanediol, C4H10O2, InChI=1S/C4H10O2/c5-3-1-2-4-6/h5-6H,1-4H2, purity 99%
Compound 5: 2,3-butanediol, C4H10O2, InChI=1S/C4H10O2/c1-3(5)4(2)6/h3-6H,1-2H3

System: N-methylpyrrolidone; phases: Liquid
Property: Mass density, kg/m3 (Liquid); method: Vibrating tube method
Temperature, K	Pressure, kPa	Mass density, kg/m3	uncertainty
308.15	101.325	1019.03	0.25

System: N-methylpyrrolidone; phases: Liquid
Property: Viscosity, Pa*s (Liquid); method: Capillary tube (Ostwald; Ubbelohde) method
Temperature, K	Pressure, kPa	Viscosity, Pa*s	uncertainty
308.15	101.325	0.001668	1.3e-05

System: N-methylpyrrolidone; phases: Liquid
Property: Speed of sound, m/s (Liquid); method: Pulse-echo method
Temperature, K	Pressure, kPa	Speed of sound, m/s	uncertainty
308.15	101.325	1509.87	1.25

System: 1,2-butanediol; phases: Liquid
Property: Mass density, kg/m3 (Liquid); method: Vibrating tube method
Temperature, K	Pressure, kPa	Mass density, kg/m3	uncertainty
308.15	101.325	988.25	0.83

System: 1,2-butanediol; phases: Liquid
Property: Viscosity, Pa*s (Liquid); method: Capillary tube (Ostwald; Ubbelohde) method
Temperature, K	Pressure, kPa	Viscosity, Pa*s	uncertainty
308.15	101.325	0.030294	0.000331

System: 1,2-butanediol; phases: Liquid
Property: Speed of sound, m/s (Liquid); method: Pulse-echo method
Temperature, K	Pressure, kPa	Speed of sound, m/s	uncertainty
308.15	101.325	1422.61	2.12

System: 1,3-butanediol; phases: Liquid
Property: Mass density, kg/m3 (Liquid); method: Vibrating tube method
Temperature, K	Pressure, kPa	Mass density, kg/m3	uncertainty
308.15	101.325	991.28	0.24

System: 1,3-butanediol; phases: Liquid
Property: Viscosity, Pa*s (Liquid); method: Capillary tube (Ostwald; Ubbelohde) method
Temperature, K	Pressure, kPa	Viscosity, Pa*s	uncertainty
308.15	101.325	0.054236	0.000302

System: 1,3-butanediol; phases: Liquid
Property: Speed of sound, m/s (Liquid); method: Pulse-echo method
Temperature, K	Pressure, kPa	Speed of sound, m/s	uncertainty
308.15	101.325	1496.03	1.24

System: 1,4-butanediol; phases: Liquid
Property: Mass density, kg/m3 (Liquid); method: Vibrating tube method
Temperature, K	Pressure, kPa	Mass density, kg/m3	uncertainty
308.15	101.325	1003.95	0.24

System: 1,4-butanediol; phases: Liquid
Property: Viscosity, Pa*s (Liquid); method: Capillary tube (Ostwald; Ubbelohde) method
Temperature, K	Pressure, kPa	Viscosity, Pa*s	uncertainty
308.15	101.325	0.047378	0.000317

System: 1,4-butanediol; phases: Liquid
Property: Speed of sound, m/s (Liquid); method: Pulse-echo method
Temperature, K	Pressure, kPa	Speed of sound, m/s	uncertainty
308.15	101.325	1577.76	1.26

System: 2,3-butanediol; phases: Liquid
Property: Mass density, kg/m3 (Liquid); method: Vibrating tube method
Temperature, K	Pressure, kPa	Mass density, kg/m3	uncertainty
308.15	101.325	990.72	0.83

System: 2,3-butanediol; phases: Liquid
Property: Viscosity, Pa*s (Liquid); method: Capillary tube (Ostwald; Ubbelohde) method
Temperature, K	Pressure, kPa	Viscosity, Pa*s	uncertainty
308.15	101.325	0.05138	0.000524

System: 2,3-butanediol; phases: Liquid
Property: Speed of sound, m/s (Liquid); method: Pulse-echo method
Temperature, K	Pressure, kPa	Speed of sound, m/s	uncertainty
308.15	101.325	1456.6	2.13

System: 1,2-butanediol + N-methylpyrrolidone; phases: Liquid
Fixed: Temperature, K = 308.15
Fixed: Pressure, kPa = 101
Property: Viscosity, Pa*s (Liquid); method: Capillary tube (Ostwald; Ubbelohde) method
Mole fraction of 1,2-butanediol	Viscosity, Pa*s	uncertainty
0.0282	0.001835	1.4e-05
0.0564	0.002019	1.6e-05
0.1026	0.002039	1.6e-05
0.1884	0.002067	1.7e-05
0.3027	0.003253	2.8e-05
0.4056	0.003955	3.6e-05
0.4941	0.004933	4.6e-05
0.6024	0.006647	6.4e-05
0.6843	0.008612	8.5e-05
0.7939	0.012613	0.000128
0.888	0.017954	0.000189
0.9396	0.022947	0.000248
0.9764	0.027103	0.000297

System: 1,2-butanediol + N-methylpyrrolidone; phases: Liquid
Fixed: Temperature, K = 308.15
Fixed: Pressure, kPa = 101
Property: Speed of sound, m/s (Liquid); method: Pulse-echo method
Mole fraction of 1,2-butanediol	Speed of sound, m/s	uncertainty
0.0282	1515.79	1.27
0.0564	1510.05	1.29
0.1026	1509.48	1.33
0.1884	1504.2	1.4
0.3027	1496.57	1.5
0.4056	1487.63	1.59
0.4941	1478.66	1.67
0.6024	1471.83	1.76
0.6843	1459.83	1.84
0.7939	1451.72	1.93
0.888	1444.08	2.02
0.9396	1433.69	2.07
0.9764	1425.22	2.1

System: 1,2-butanediol + N-methylpyrrolidone; phases: Liquid
Fixed: Temperature, K = 308.15
Fixed: Pressure, kPa = 101
Property: Excess molar volume, m3/mol (Liquid); method: Direct dilatometry
Mole fraction of 1,2-butanediol	Excess molar volume, m3/mol	uncertainty
0.0176	-1.2e-08	5e-09
0.0674	-5.5e-08	5e-09
0.0777	-6.4e-08	5e-09
0.0936	-6.8e-08	5e-09
0.0998	-9.4e-08	5e-09
0.1104	-1.1e-07	5e-09
0.1172	-1.33e-07	5e-09
0.1763	-1.53e-07	5e-09
0.2053	-1.79e-07	5e-09
0.2235	-2.05e-07	5e-09
0.2485	-2.36e-07	5e-09
0.2493	-2.16e-07	5e-09
0.2827	-2.49e-07	5e-09
0.2924	-2.71e-07	5e-09
0.3248	-2.68e-07	5e-09
0.3361	-2.72e-07	5e-09
0.3432	-2.83e-07	5e-09
0.3843	-2.93e-07	5e-09
0.4095	-3e-07	5e-09
0.4555	-3.02e-07	5e-09
0.4806	-3.05e-07	5e-09
0.5199	-3.12e-07	5e-09
0.5475	-3.07e-07	5e-09
0.5748	-2.93e-07	5e-09
0.5934	-2.92e-07	5e-09
0.6057	-2.85e-07	5e-09
0.63	-2.8e-07	5e-09
0.6515	-2.69e-07	5e-09
0.6744	-2.56e-07	5e-09
0.7069	-2.33e-07	5e-09
0.7533	-2.01e-07	5e-09
0.8073	-1.62e-07	5e-09
0.8614	-1.25e-07	5e-09
0.8948	-9.2e-08	5e-09
0.9231	-7.9e-08	5e-09
0.9466	-6.6e-08	5e-09
0.9482	-6.3e-08	5e-09
0.9584	-6.1e-08	5e-09
0.9652	-5.9e-08	5e-09
0.9776	-4.7e-08	5e-09
0.9798	-4.2e-08	5e-09
0.9912	-1.2e-08	5e-09

System: 1,3-butanediol + N-methylpyrrolidone; phases: Liquid
Fixed: Temperature, K = 308.15
Fixed: Pressure, kPa = 101
Property: Viscosity, Pa*s (Liquid); method: Capillary tube (Ostwald; Ubbelohde) method
Mole fraction of 1,3-butanediol	Viscosity, Pa*s	uncertainty
0.0282	0.001736	1.3e-05
0.0582	0.001864	1.4e-05
0.1089	0.002153	1.7e-05
0.2015	0.002678	2e-05
0.3004	0.003197	2.4e-05
0.4043	0.004211	3.2e-05
0.4985	0.006742	4.9e-05
0.5972	0.009628	6.8e-05
0.7036	0.014662	0.000102
0.798	0.022769	0.000157
0.9029	0.034773	0.000238
0.94	0.043519	0.000303
0.9796	0.051251	0.000287

System: 1,3-butanediol + N-methylpyrrolidone; phases: Liquid
Fixed: Temperature, K = 308.15
Fixed: Pressure, kPa = 101
Property: Speed of sound, m/s (Liquid); method: Pulse-echo method
Mole fraction of 1,3-butanediol	Speed of sound, m/s	uncertainty
0.0282	1499.58	1.25
0.0582	1496.74	1.24
0.1089	1496.45	1.24
0.2015	1491.23	1.24
0.3004	1488.42	1.24
0.4043	1487.01	1.24
0.4985	1484.5	1.24
0.5972	1482.69	1.24
0.7036	1481.16	1.24
0.798	1482.41	1.24
0.9029	1485.06	1.24
0.94	1488.42	1.24
0.9796	1488.84	1.24

System: 1,3-butanediol + N-methylpyrrolidone; phases: Liquid
Fixed: Temperature, K = 308.15
Fixed: Pressure, kPa = 101
Property: Excess molar volume, m3/mol (Liquid); method: Direct dilatometry
Mole fraction of 1,3-butanediol	Excess molar volume, m3/mol	uncertainty
0.0003	-9e-09	5e-09
0.0047	-2.2e-08	5e-09
0.0143	-4.1e-08	5e-09
0.0217	-4.9e-08	5e-09
0.0334	-5.3e-08	5e-09
0.0387	-5.3e-08	5e-09
0.0472	-5.5e-08	5e-09
0.0616	-5.6e-08	5e-09
0.078	-5.5e-08	5e-09
0.0895	-5.4e-08	5e-09
0.1097	-4.2e-08	5e-09
0.1237	-3.9e-08	5e-09
0.1608	-3.6e-08	5e-09
0.2074	-2.6e-08	5e-09
0.2146	-2.4e-08	5e-09
0.2387	-1.9e-08	5e-09
0.2487	-1e-08	5e-09
0.2949	-3e-09	5e-09
0.3052	2e-09	5e-09
0.3425	1.1e-08	5e-09
0.3666	1.3e-08	5e-09
0.4208	2.3e-08	5e-09
0.44	3.1e-08	5e-09
0.4748	3.6e-08	5e-09
0.5171	4.2e-08	5e-09
0.5605	4.8e-08	5e-09
0.5935	5.1e-08	5e-09
0.6201	5.5e-08	5e-09
0.6456	5.2e-08	5e-09
0.6679	5.2e-08	5e-09
0.6845	5e-08	5e-09
0.694	4.7e-08	5e-09
0.7307	3.5e-08	5e-09
0.7566	3.2e-08	5e-09
0.7884	2.6e-08	5e-09
0.8063	2.5e-08	5e-09
0.8357	1.3e-08	5e-09
0.8925	2e-09	5e-09
0.9149	3e-09	5e-09
0.9239	8e-09	5e-09
0.9552	9e-09	5e-09
0.9727	8e-09	5e-09
0.9991	6e-09	5e-09

System: 1,4-butanediol + N-methylpyrrolidone; phases: Liquid
Fixed: Temperature, K = 308.15
Fixed: Pressure, kPa = 101
Property: Viscosity, Pa*s (Liquid); method: Capillary tube (Ostwald; Ubbelohde) method
Mole fraction of 1,4-butanediol	Viscosity, Pa*s	uncertainty
0.0277	0.001784	1.4e-05
0.0556	0.001943	1.5e-05
0.1011	0.002235	1.7e-05
0.1982	0.003025	2.3e-05
0.2982	0.004088	3.1e-05
0.4038	0.00557	4.1e-05
0.4943	0.00706	5.1e-05
0.6011	0.011076	7.8e-05
0.7044	0.016239	0.000111
0.7935	0.021612	0.000149
0.8996	0.03343	0.000227
0.946	0.039294	0.000267
0.965	0.041435	0.00028

System: 1,4-butanediol + N-methylpyrrolidone; phases: Liquid
Fixed: Temperature, K = 308.15
Fixed: Pressure, kPa = 101
Property: Speed of sound, m/s (Liquid); method: Pulse-echo method
Mole fraction of 1,4-butanediol	Speed of sound, m/s	uncertainty
0.0565	1533.37	1.25
0.101	1533.66	1.25
0.1892	1536.15	1.25
0.2806	1550.25	1.26
0.3915	1549.65	1.26
0.4722	1551.44	1.26
0.5803	1556.86	1.26
0.6682	1565.97	1.26
0.7044	1572.26	1.26
0.7935	1578.75	1.26
0.8996	1585.14	1.27
0.946	1591.9	1.27
0.9653	1586.56	1.27

System: 1,4-butanediol + N-methylpyrrolidone; phases: Liquid
Fixed: Temperature, K = 308.15
Fixed: Pressure, kPa = 101
Property: Excess molar volume, m3/mol (Liquid); method: Direct dilatometry
Mole fraction of 1,4-butanediol	Excess molar volume, m3/mol	uncertainty
0.0188	-3.2e-08	5e-09
0.0277	-4.3e-08	5e-09
0.028	-6.1e-08	5e-09
0.0461	-7.1e-08	5e-09
0.0535	-8.3e-08	5e-09
0.078	-9.7e-08	5e-09
0.0895	-1.08e-07	5e-09
0.1052	-1.13e-07	5e-09
0.1307	-1.26e-07	5e-09
0.1557	-1.42e-07	5e-09
0.185	-1.5e-07	5e-09
0.2257	-1.64e-07	5e-09
0.2381	-1.66e-07	5e-09
0.2563	-1.72e-07	5e-09
0.2968	-1.84e-07	5e-09
0.3354	-1.88e-07	5e-09
0.3634	-1.96e-07	5e-09
0.3865	-1.98e-07	5e-09
0.4046	-1.95e-07	5e-09
0.437	-1.94e-07	5e-09
0.485	-1.84e-07	5e-09
0.5355	-1.77e-07	5e-09
0.577	-1.66e-07	5e-09
0.6118	-1.54e-07	5e-09
0.6265	-1.49e-07	5e-09
0.6374	-1.48e-07	5e-09
0.6697	-1.43e-07	5e-09
0.6863	-1.39e-07	5e-09
0.7034	-1.39e-07	5e-09
0.7387	-1.32e-07	5e-09
0.7746	-1.2e-07	5e-09
0.7979	-1.04e-07	5e-09
0.8498	-8.8e-08	5e-09
0.8771	-7.1e-08	5e-09
0.9123	-5.5e-08	5e-09
0.9254	-5.1e-08	5e-09
0.9672	-2.6e-08	5e-09
0.9942	-1.6e-08	5e-09

System: 2,3-butanediol + N-methylpyrrolidone; phases: Liquid
Fixed: Temperature, K = 308.15
Fixed: Pressure, kPa = 101
Property: Viscosity, Pa*s (Liquid); method: Capillary tube (Ostwald; Ubbelohde) method
Mole fraction of 2,3-butanediol	Viscosity, Pa*s	uncertainty
0.0282	0.001924	1.5e-05
0.0534	0.002003	1.6e-05
0.1001	0.002405	1.9e-05
0.1968	0.00291	2.4e-05
0.295	0.003344	2.9e-05
0.3939	0.004159	3.7e-05
0.4746	0.005033	4.7e-05
0.5881	0.007256	6.8e-05
0.6924	0.008758	8.6e-05
0.7916	0.013579	0.000139
0.8948	0.023288	0.000248
0.9431	0.032453	0.000356
0.973	0.039906	0.000443

System: 2,3-butanediol + N-methylpyrrolidone; phases: Liquid
Fixed: Temperature, K = 308.15
Fixed: Pressure, kPa = 101
Property: Speed of sound, m/s (Liquid); method: Pulse-echo method
Mole fraction of 2,3-butanediol	Speed of sound, m/s	uncertainty
0.0282	1544.52	1.32
0.0534	1524.62	1.3
0.1001	1531.58	1.33
0.1968	1520.01	1.41
0.2949	1496.83	1.49
0.3939	1485.5	1.58
0.4746	1477.46	1.65
0.5881	1469.1	1.75
0.6925	1461.23	1.84
0.7916	1454.23	1.93
0.8948	1448.47	2.03
0.9431	1445.74	2.07
0.973	1439.79	2.1

System: 2,3-butanediol + N-methylpyrrolidone; phases: Liquid
Fixed: Temperature, K = 308.15
Fixed: Pressure, kPa = 101
Property: Excess molar volume, m3/mol (Liquid); method: Direct dilatometry
Mole fraction of 2,3-butanediol	Excess molar volume, m3/mol	uncertainty
0.0015	-2.9e-08	6e-09
0.0022	-4.3e-08	5e-09
0.0051	-6.2e-08	5e-09
0.0107	-8.6e-08	5e-09
0.0184	-1.11e-07	5e-09
0.0226	-9.8e-08	5e-09
0.027	-1.5e-07	5e-09
0.041	-1.78e-07	5e-09
0.0606	-2.01e-07	5e-09
0.0667	-2.06e-07	5e-09
0.0755	-2.07e-07	5e-09
0.0865	-2.07e-07	5e-09
0.0908	-2.06e-07	5e-09
0.0996	-2.03e-07	5e-09
0.1102	-1.99e-07	5e-09
0.1135	-1.96e-07	5e-09
0.1176	-1.93e-07	5e-09
0.1323	-1.86e-07	5e-09
0.1518	-1.69e-07	5e-09
0.1734	-1.54e-07	5e-09
0.1849	-1.47e-07	5e-09
0.2001	-1.41e-07	5e-09
0.2086	-1.36e-07	5e-09
0.2137	-1.3e-07	5e-09
0.2251	-1.29e-07	5e-09
0.2329	-1.21e-07	5e-09
0.2407	-1.19e-07	5e-09
0.2468	-1.16e-07	5e-09
0.2543	-1.11e-07	5e-09
0.2683	-1.01e-07	5e-09
0.2829	-9.1e-08	5e-09
0.305	-7.5e-08	5e-09
0.3138	-7e-08	5e-09
0.324	-6.1e-08	5e-09
0.3341	-5.2e-08	5e-09
0.3428	-4.4e-08	5e-09
0.364	-2.6e-08	5e-09
0.3792	-9e-09	5e-09
0.3971	1e-08	5e-09
0.3971	1e-08	5e-09
0.4356	2.5e-08	5e-09
0.4515	3.8e-08	5e-09
0.4699	5.5e-08	5e-09
0.4898	6.8e-08	5e-09
0.5	1.13e-07	5e-09
0.52	1.36e-07	5e-09
0.5465	1.66e-07	5e-09
0.573	1.75e-07	5e-09
0.5809	1.78e-07	5e-09
0.5957	1.88e-07	5e-09
0.6268	1.85e-07	5e-09
0.6433	1.82e-07	5e-09
0.6625	1.71e-07	5e-09
0.6992	1.63e-07	5e-09
0.7232	1.53e-07	5e-09
0.7456	1.49e-07	5e-09
0.7695	1.36e-07	5e-09
0.7848	1.3e-07	5e-09
0.8011	1.23e-07	5e-09
0.8394	1.16e-07	5e-09
0.853	1.04e-07	5e-09
0.8777	8.7e-08	5e-09
0.8909	7.6e-08	5e-09
0.9056	7.1e-08	5e-09
0.9116	6.7e-08	5e-09
0.9201	5.8e-08	5e-09
0.9309	5.3e-08	5e-09
0.9421	4.3e-08	5e-09
0.9563	3.5e-08	5e-09
