Measured thermophysical data. High-pressure densities and derived volumetric properties (excess, apparent, and partial molar volumes) of binary mixtures of {methanol (1) + [BMIM][BF4] (2)}
Source: J. Chem. Thermodyn., 2008, 10.1016/j.jct.2008.05.005
Compound 1: methanol, CH4O, InChI=1S/CH4O/c1-2/h2H,1H3, purity 99.99%
Compound 2: 1-butyl-3-methylimidazolium tetrafluoroborate, C8H15BF4N2, InChI=1S/C8H15N2.BF4/c1-3-4-5-10-7-6-9(2)8-10;2-1(3,4)5/h6-8H,3-5H2,1-2H3;/q+1;-1, purity 99%

System: methanol + 1-butyl-3-methylimidazolium tetrafluoroborate; phases: Liquid
Property: Mass density, kg/m3 (Liquid); method: Vibrating tube method
Mole fraction of 1-butyl-3-methylimidazolium tetrafluoroborate	Temperature, K	Pressure, kPa	Mass density, kg/m3	uncertainty
0.0087	298.15	380	804.76	0.48
0.0087	298.15	4380	808.51	0.48
0.0087	298.15	10910	814.38	0.49
0.0087	298.15	15330	818.18	0.5
0.0087	298.15	19940	821.99	0.51
0.0087	298.15	25770	826.59	0.52
0.0087	298.15	30520	830.16	0.53
0.0087	298.15	35740	833.9	0.54
0.0087	298.15	39880	836.72	0.55
0.0087	323.15	240	781	0.49
0.0087	323.15	5440	786.6	0.5
0.0087	323.15	11020	792.32	0.51
0.0087	323.15	15440	796.64	0.52
0.0087	323.15	20640	801.47	0.53
0.0087	323.15	25660	805.89	0.54
0.0087	323.15	30560	809.96	0.55
0.0087	323.15	35450	813.8	0.57
0.0087	323.15	39410	816.73	0.58
0.0087	348.15	640	757.2	0.49
0.0087	348.15	6020	763.72	0.5
0.0087	348.15	10960	769.43	0.52
0.0087	348.15	15120	774.02	0.53
0.0087	348.15	20440	779.62	0.54
0.0087	348.15	25320	784.47	0.56
0.0087	348.15	30150	789.02	0.57
0.0087	348.15	35120	793.42	0.59
0.0087	348.15	39640	797.19	0.6
0.0087	373.15	680	731.31	0.51
0.0087	373.15	5410	738.04	0.52
0.0087	373.15	10390	744.76	0.53
0.0087	373.15	15450	751.2	0.54
0.0087	373.15	20580	757.35	0.56
0.0087	373.15	25580	762.96	0.58
0.0087	373.15	30780	768.4	0.6
0.0087	373.15	35780	773.25	0.61
0.0087	373.15	39510	776.62	0.63
0.0087	398.15	870	702.45	0.52
0.0087	398.15	5010	709.59	0.53
0.0087	398.15	10030	717.77	0.54
0.0087	398.15	14950	725.27	0.56
0.0087	398.15	20060	732.52	0.58
0.0087	398.15	24980	738.99	0.6
0.0087	398.15	30120	745.21	0.62
0.0087	398.15	35310	750.93	0.64
0.0087	398.15	39970	755.59	0.66
0.0433	298.15	400	867.22	0.42
0.0433	298.15	5270	871.22	0.4
0.0433	298.15	10260	875.17	0.42
0.0433	298.15	15190	878.92	0.42
0.0433	298.15	20020	882.44	0.49
0.0433	298.15	25420	886.2	0.43
0.0433	298.15	30080	889.29	0.49
0.0433	298.15	35420	892.67	0.44
0.0433	298.15	39560	895.16	0.45
0.0433	323.15	440	844.94	0.41
0.0433	323.15	5430	849.82	0.48
0.0433	323.15	10160	854.23	0.41
0.0433	323.15	15250	858.75	0.43
0.0433	323.15	20340	863.04	0.44
0.0433	323.15	25630	867.24	0.44
0.0433	323.15	29940	870.48	0.45
0.0433	323.15	35210	874.21	0.46
0.0433	323.15	39890	877.31	0.47
0.0433	348.15	710	821.46	0.42
0.0433	348.15	5370	826.71	0.42
0.0433	348.15	10670	832.4	0.43
0.0433	348.15	15150	836.97	0.44
0.0433	348.15	20110	841.77	0.45
0.0433	348.15	25180	846.4	0.46
0.0433	348.15	30160	850.67	0.47
0.0433	348.15	35740	855.14	0.48
0.0433	348.15	40010	858.32	0.49
0.0433	373.15	620	797.86	0.43
0.0433	373.15	5500	804.09	0.43
0.0433	373.15	10780	810.45	0.44
0.0433	373.15	15390	815.67	0.45
0.0433	373.15	20210	820.81	0.46
0.0433	373.15	24990	825.57	0.47
0.0433	373.15	30550	830.7	0.54
0.0433	373.15	34970	834.46	0.49
0.0433	373.15	39910	838.34	0.51
0.0433	398.15	1250	772.27	0.52
0.0433	398.15	5060	778.08	0.45
0.0433	398.15	10410	785.75	0.46
0.0433	398.15	15070	791.97	0.47
0.0433	398.15	20310	798.45	0.48
0.0433	398.15	25080	803.88	0.49
0.0433	398.15	30200	809.19	0.51
0.0433	398.15	34960	813.67	0.52
0.0433	398.15	39940	817.88	0.54
0.1302	298.15	300	975.12	0.35
0.1302	298.15	5890	979.15	0.35
0.1302	298.15	10840	982.54	0.35
0.1302	298.15	15680	985.71	0.35
0.1302	298.15	20920	988.97	0.35
0.1302	298.15	25120	991.46	0.35
0.1302	298.15	31070	994.78	0.35
0.1302	298.15	35560	997.14	0.35
0.1302	298.15	40120	999.4	0.35
0.1302	323.15	260	952.36	0.35
0.1302	323.15	6310	957.29	0.32
0.1302	323.15	10140	960.32	0.35
0.1302	323.15	15120	964.14	0.35
0.1302	323.15	20110	967.85	0.35
0.1302	323.15	25120	971.44	0.35
0.1302	323.15	30440	975.12	0.35
0.1302	323.15	35620	978.57	0.35
0.1302	323.15	39620	981.14	0.35
0.1302	348.15	340	931.46	0.36
0.1302	348.15	5710	936.68	0.36
0.1302	348.15	10820	941.38	0.36
0.1302	348.15	15140	945.16	0.36
0.1302	348.15	20370	949.49	0.36
0.1302	348.15	25270	953.3	0.36
0.1302	348.15	30560	957.16	0.36
0.1302	348.15	35420	960.46	0.36
0.1302	348.15	39720	963.19	0.36
0.1302	373.15	840	910.67	0.36
0.1302	373.15	5450	915.31	0.36
0.1302	373.15	10280	919.98	0.36
0.1302	373.15	15170	924.53	0.36
0.1302	373.15	20420	929.19	0.36
0.1302	373.15	25330	933.36	0.37
0.1302	373.15	29810	936.98	0.37
0.1302	373.15	35560	941.4	0.37
0.1302	373.15	40050	944.67	0.37
0.1302	398.15	2310	891.44	0.37
0.1302	398.15	5120	894.51	0.37
0.1302	398.15	10030	899.7	0.37
0.1302	398.15	15020	904.75	0.37
0.1302	398.15	20100	909.67	0.37
0.1302	398.15	25060	914.25	0.38
0.1302	398.15	29970	918.57	0.38
0.1302	398.15	35060	922.81	0.38
0.1302	398.15	39740	926.51	0.39
0.2626	298.15	240	1065.61	0.32
0.2626	298.15	5210	1068.88	0.32
0.2626	298.15	10080	1071.94	0.33
0.2626	298.15	15380	1075.12	0.33
0.2626	298.15	20750	1078.17	0.34
0.2626	298.15	25090	1080.52	0.34
0.2626	298.15	30120	1083.1	0.35
0.2626	298.15	35070	1085.49	0.36
0.2626	298.15	39960	1087.71	0.37
0.2626	323.15	670	1046.2	0.32
0.2626	323.15	5320	1049.53	0.32
0.2626	323.15	10080	1052.82	0.32
0.2626	323.15	15060	1056.14	0.33
0.2626	323.15	20430	1059.59	0.33
0.2626	323.15	25810	1062.91	0.34
0.2626	323.15	30090	1065.44	0.34
0.2626	323.15	35240	1068.37	0.35
0.2626	323.15	39970	1070.95	0.36
0.2626	348.15	860	1026.35	0.32
0.2626	348.15	5060	1029.49	0.32
0.2626	348.15	10410	1033.58	0.32
0.2626	348.15	15090	1037.07	0.32
0.2626	348.15	20420	1040.92	0.32
0.2626	348.15	25310	1044.36	0.33
0.2626	348.15	30210	1047.7	0.33
0.2626	348.15	35080	1050.92	0.34
0.2626	348.15	39920	1054.02	0.34
0.2626	373.15	960	1006.13	0.32
0.2626	373.15	5320	1009.96	0.32
0.2626	373.15	10070	1014.1	0.32
0.2626	373.15	15230	1018.44	0.32
0.2626	373.15	20090	1022.37	0.32
0.2626	373.15	25340	1026.45	0.32
0.2626	373.15	30080	1029.97	0.32
0.2626	373.15	35620	1033.9	0.33
0.2626	373.15	39940	1036.83	0.33
0.2626	398.15	1020	985.77	0.32
0.2626	398.15	5060	989.1	0.32
0.2626	398.15	10120	994.1	0.32
0.2626	398.15	15450	999.14	0.32
0.2626	398.15	20060	1003.34	0.32
0.2626	398.15	25620	1008.18	0.32
0.2626	398.15	30740	1012.44	0.32
0.2626	398.15	35620	1016.31	0.32
0.2626	398.15	39980	1019.62	0.33
0.4988	298.15	250	1144.91	0.34
0.4988	298.15	5310	1147.71	0.35
0.4988	298.15	10050	1150.25	0.36
0.4988	298.15	15620	1153.13	0.38
0.4988	298.15	20140	1155.39	0.4
0.4988	298.15	25410	1157.92	0.42
0.4988	298.15	30410	1160.24	0.44
0.4988	298.15	35740	1162.61	0.47
0.4988	298.15	39780	1164.34	0.49
0.4988	323.15	780	1126.41	0.33
0.4988	323.15	5310	1128.87	0.34
0.4988	323.15	10090	1131.48	0.35
0.4988	323.15	15420	1134.4	0.37
0.4988	323.15	20740	1137.33	0.39
0.4988	323.15	25030	1139.71	0.4
0.4988	323.15	30010	1142.47	0.42
0.4988	323.15	35240	1145.39	0.44
0.4988	323.15	39970	1148.04	0.46
0.4988	348.15	610	1107.55	0.33
0.4988	348.15	5410	1110.43	0.34
0.4988	348.15	10060	1113.45	0.35
0.4988	348.15	15120	1116.66	0.36
0.4988	348.15	20070	1119.71	0.37
0.4988	348.15	25310	1122.86	0.39
0.4988	348.15	30090	1125.66	0.4
0.4988	348.15	35260	1128.6	0.42
0.4988	348.15	39920	1131.18	0.44
0.4988	373.15	880	1088.22	0.33
0.4988	373.15	5470	1091.64	0.33
0.4988	373.15	10080	1095	0.34
0.4988	373.15	15430	1098.81	0.35
0.4988	373.15	20610	1102.41	0.36
0.4988	373.15	25340	1105.63	0.37
0.4988	373.15	30080	1108.78	0.39
0.4988	373.15	35640	1112.39	0.4
0.4988	373.15	39970	1115.12	0.42
0.4988	398.15	990	1069.4	0.33
0.4988	398.15	5080	1072.6	0.33
0.4988	398.15	10470	1077.23	0.34
0.4988	398.15	15210	1081.15	0.34
0.4988	398.15	20030	1085	0.35
0.4988	398.15	25320	1089.05	0.36
0.4988	398.15	30090	1092.57	0.37
0.4988	398.15	35040	1096.06	0.39
0.4988	398.15	39960	1099.38	0.4
0.7501	298.15	310	1186.96	0.39
0.7501	298.15	5080	1189.2	0.41
0.7501	298.15	10030	1191.5	0.43
0.7501	298.15	15420	1193.96	0.46
0.7501	298.15	20890	1196.42	0.49
0.7501	298.15	25680	1198.54	0.52
0.7501	298.15	30080	1200.46	0.55
0.7501	298.15	35290	1202.69	0.58
0.7501	298.15	39910	1204.65	0.62
0.7501	323.15	240	1168.14	0.38
0.7501	323.15	5070	1170.7	0.4
0.7501	323.15	10340	1173.44	0.42
0.7501	323.15	15430	1176.04	0.45
0.7501	323.15	20070	1178.36	0.47
0.7501	323.15	25090	1180.84	0.5
0.7501	323.15	30410	1183.41	0.53
0.7501	323.15	35240	1185.69	0.56
0.7501	323.15	39890	1187.86	0.59
0.7501	348.15	870	1150.03	0.37
0.7501	348.15	5070	1152.55	0.39
0.7501	348.15	10060	1155.48	0.41
0.7501	348.15	15870	1158.8	0.43
0.7501	348.15	20080	1161.16	0.45
0.7501	348.15	25620	1164.19	0.48
0.7501	348.15	30070	1166.56	0.5
0.7501	348.15	35010	1169.13	0.53
0.7501	348.15	39990	1171.65	0.56
0.7501	373.15	840	1131.82	0.37
0.7501	373.15	5010	1134.65	0.38
0.7501	373.15	10320	1138.17	0.4
0.7501	373.15	15090	1141.24	0.42
0.7501	373.15	20420	1144.57	0.44
0.7501	373.15	25080	1147.41	0.46
0.7501	373.15	30410	1150.55	0.48
0.7501	373.15	35210	1153.29	0.51
0.7501	373.15	39980	1155.94	0.53
0.7501	398.15	980	1114.32	0.36
0.7501	398.15	5310	1117.54	0.37
0.7501	398.15	10410	1121.25	0.39
0.7501	398.15	15960	1125.17	0.41
0.7501	398.15	20340	1128.18	0.42
0.7501	398.15	25720	1131.78	0.44
0.7501	398.15	30080	1134.62	0.46
0.7501	398.15	35210	1137.87	0.49
0.7501	398.15	39940	1140.77	0.51
0.9102	298.15	210	1203.93	0.44
0.9102	298.15	5040	1206.16	0.47
0.9102	298.15	10030	1208.41	0.5
0.9102	298.15	15310	1210.74	0.53
0.9102	298.15	20070	1212.8	0.56
0.9102	298.15	25410	1215.05	0.6
0.9102	298.15	30090	1216.97	0.63
0.9102	298.15	39910	1220.87	0.71
0.9102	298.15	39930	1220.88	0.71
0.9102	323.15	230	1185.2	0.43
0.9102	323.15	5040	1187.61	0.45
0.9102	323.15	10030	1190.07	0.48
0.9102	323.15	15470	1192.72	0.51
0.9102	323.15	20090	1194.92	0.54
0.9102	323.15	25310	1197.38	0.57
0.9102	323.15	30450	1199.76	0.61
0.9102	323.15	35860	1202.22	0.65
0.9102	323.15	39860	1204.01	0.68
0.9102	348.15	420	1166.95	0.42
0.9102	348.15	5310	1169.75	0.44
0.9102	348.15	10070	1172.42	0.47
0.9102	348.15	15420	1175.35	0.49
0.9102	348.15	20140	1177.87	0.52
0.9102	348.15	25620	1180.73	0.55
0.9102	348.15	30140	1183.03	0.58
0.9102	348.15	35740	1185.8	0.62
0.9102	348.15	39980	1187.84	0.65
0.9102	373.15	620	1149.53	0.41
0.9102	373.15	5410	1152.54	0.43
0.9102	373.15	10030	1155.38	0.45
0.9102	373.15	15720	1158.79	0.48
0.9102	373.15	20610	1161.64	0.51
0.9102	373.15	25830	1164.62	0.53
0.9102	373.15	30140	1167.01	0.56
0.9102	373.15	35040	1169.67	0.59
0.9102	373.15	39940	1172.26	0.62
0.9102	398.15	1030	1132.67	0.41
0.9102	398.15	5410	1135.7	0.42
0.9102	398.15	10250	1138.98	0.44
0.9102	398.15	15360	1142.35	0.46
0.9102	398.15	20470	1145.63	0.49
0.9102	398.15	25010	1148.46	0.51
0.9102	398.15	30890	1152.03	0.54
0.9102	398.15	35280	1154.61	0.56
0.9102	398.15	39920	1157.27	0.59
