Measured thermophysical data. Vapour pressures of selected organic compounds down to 1 mPa, using mass-loss Knudsen effusion method
Source: J. Chem. Thermodyn., 2014, 10.1016/j.jct.2013.11.038
Compound 1: benzoic acid, C7H6O2, InChI=1S/C7H6O2/c8-7(9)6-4-2-1-3-5-6/h1-5H,(H,8,9), purity 99.97%
Compound 2: 7H-benz[de]anthracen-7-one, C17H10O, InChI=1S/C17H10O/c18-17-14-8-2-1-7-12(14)13-9-3-5-11-6-4-10-15(17)16(11)13/h1-10H, purity 99.4%
Compound 3: octadecane, C18H38, InChI=1S/C18H38/c1-3-5-7-9-11-13-15-17-18-16-14-12-10-8-6-4-2/h3-18H2,1-2H3, purity 99.5%
Compound 4: diphenyl carbonate, C13H10O3, InChI=1S/C13H10O3/c14-13(15-11-7-3-1-4-8-11)16-12-9-5-2-6-10-12/h1-10H, purity 99.8%

System: benzoic acid; phases: Crystal, Liquid, Air at 1 atmosphere
Property: Normal melting temperature, K (Crystal); method: DTA
Normal melting temperature, K	uncertainty
395.37	2.03

System: benzoic acid; phases: Crystal, Liquid, Air at 1 atmosphere
Property: Molar enthalpy of transition or fusion, kJ/mol (Crystal); method: DSC
Molar enthalpy of transition or fusion, kJ/mol	uncertainty
17.91	0.53

System: benzoic acid; phases: Crystal, Gas
Property: Vapor or sublimation pressure, kPa (Crystal); method: Calculated from knudsen effusion weight loss
Temperature, K	Vapor or sublimation pressure, kPa	uncertainty
269.3	2.1e-06	1e-07
269.3	2.2e-06	1e-07
269.3	2.2e-06	1e-07
269.3	2.2e-06	1e-07
269.3	2.2e-06	1e-07
269.3	2.2e-06	1e-07
269.3	2.1e-06	1e-07
275.04	4.9e-06	3e-07
275.04	4.9e-06	3e-07
275.04	5.1e-06	3e-07
275.04	5.1e-06	3e-07
275.04	5.1e-06	3e-07
275.04	5e-06	3e-07
275.04	5.1e-06	3e-07
281.33	1.24e-05	7e-07
281.33	1.2e-05	6e-07
281.33	1.2e-05	6e-07
281.33	1.23e-05	7e-07
281.33	1.25e-05	7e-07
281.33	1.23e-05	7e-07
281.33	1.23e-05	7e-07
287.28	2.67e-05	1.4e-06
287.28	2.68e-05	1.4e-06
287.28	2.65e-05	1.4e-06
287.28	2.73e-05	1.4e-06
287.28	2.76e-05	1.4e-06
287.28	2.75e-05	1.4e-06
287.28	2.71e-05	1.4e-06
293.19	5.61e-05	2.9e-06
293.19	5.66e-05	2.9e-06
293.19	5.72e-05	3e-06
293.19	5.82e-05	3e-06
293.19	5.83e-05	3e-06
293.19	5.78e-05	3e-06
293.19	5.78e-05	3e-06
299.18	0.0001184	6.1e-06
299.18	0.000119	6.2e-06
299.18	0.0001193	6.2e-06
299.18	0.000122	6.3e-06
299.18	0.0001221	6.3e-06
299.18	0.0001211	6.3e-06
299.18	0.0001196	6.2e-06
305.18	0.0002414	1.25e-05
305.18	0.0002421	1.25e-05
305.18	0.0002389	1.24e-05
305.18	0.0002475	1.28e-05
305.18	0.000248	1.28e-05
305.18	0.0002457	1.27e-05
305.18	0.0002454	1.27e-05
311.17	0.0004925	2.53e-05
311.17	0.0004871	2.5e-05
311.17	0.0004899	2.52e-05
311.17	0.0004943	2.54e-05
311.17	0.0004895	2.52e-05
311.17	0.0004987	2.56e-05
311.17	0.0005003	2.57e-05
317.13	0.0009358	4.74e-05
317.13	0.0009339	4.73e-05
317.13	0.0009225	4.67e-05
317.13	0.0009533	4.83e-05
317.13	0.0009611	4.87e-05
317.13	0.0009533	4.83e-05
317.13	0.0009546	4.84e-05

System: benzoic acid; phases: Crystal
Fixed: Pressure, kPa = 101.325
Property: Molar heat capacity at constant pressure, J/K/mol (Crystal); method: Large sample (1 g) DSC
Temperature, K	Molar heat capacity at constant pressure, J/K/mol	uncertainty
308.15	152.1	6.5
318.15	157.3	6.7
328.15	161.6	6.9
338.15	166.9	7.1
348.15	170.8	7.2
358.15	175.6	7.5
368.15	180	7.6
378.15	186.9	7.9

System: 7H-benz[de]anthracen-7-one; phases: Crystal, Liquid, Air at 1 atmosphere
Property: Normal melting temperature, K (Crystal); method: DTA
Normal melting temperature, K	uncertainty
446.78	2.03

System: 7H-benz[de]anthracen-7-one; phases: Crystal, Liquid, Air at 1 atmosphere
Property: Molar enthalpy of transition or fusion, kJ/mol (Crystal); method: DSC
Molar enthalpy of transition or fusion, kJ/mol	uncertainty
26.36	0.75

System: 7H-benz[de]anthracen-7-one; phases: Crystal, Gas
Property: Vapor or sublimation pressure, kPa (Crystal); method: Calculated from knudsen effusion weight loss
Temperature, K	Vapor or sublimation pressure, kPa	uncertainty
360.04	5.6e-06	3e-07
360.04	5.7e-06	3e-07
360.04	5.5e-06	3e-07
360.04	5.6e-06	3e-07
360.04	6e-06	3e-07
360.04	5.5e-06	3e-07
360.04	5.7e-06	3e-07
369.32	1.66e-05	9e-07
369.32	1.64e-05	9e-07
369.32	1.66e-05	9e-07
369.32	1.67e-05	9e-07
369.32	1.69e-05	9e-07
369.32	1.67e-05	9e-07
369.32	1.66e-05	9e-07
380.12	5.1e-05	2.6e-06
380.12	4.99e-05	2.6e-06
380.12	5.13e-05	2.6e-06
380.12	5.18e-05	2.7e-06
380.12	5.22e-05	2.7e-06
380.12	5.13e-05	2.6e-06
380.12	5.12e-05	2.6e-06
390.32	0.0001418	7.3e-06
390.32	0.0001387	7.1e-06
390.32	0.0001425	7.3e-06
390.32	0.0001436	7.4e-06
390.32	0.0001438	7.4e-06
390.32	0.0001411	7.3e-06
400.17	0.0003806	1.95e-05
400.17	0.0003695	1.89e-05
400.17	0.0003684	1.89e-05
400.17	0.000382	1.95e-05
400.17	0.000392	2e-05
400.17	0.0003923	2e-05
400.17	0.0003759	1.92e-05
410.37	0.0009524	4.8e-05
410.37	0.0009358	4.71e-05
410.37	0.0010151	0.000102
410.37	0.0009832	4.95e-05
410.37	0.0009607	4.84e-05
410.37	0.0009536	4.8e-05

System: 7H-benz[de]anthracen-7-one; phases: Crystal
Fixed: Pressure, kPa = 101.325
Property: Molar heat capacity at constant pressure, J/K/mol (Crystal); method: Large sample (1 g) DSC
Temperature, K	Molar heat capacity at constant pressure, J/K/mol	uncertainty
300.47	257.2	10.9
305.43	262.2	11.1
310.4	265.7	11.3
315.36	270.5	11.5
320.32	275	11.7

System: octadecane; phases: Crystal, Liquid, Air at 1 atmosphere
Property: Normal melting temperature, K (Crystal); method: DTA
Normal melting temperature, K	uncertainty
301.46	2.03

System: octadecane; phases: Crystal, Liquid, Air at 1 atmosphere
Property: Molar enthalpy of transition or fusion, kJ/mol (Crystal); method: DSC
Molar enthalpy of transition or fusion, kJ/mol	uncertainty
61.34	1.69

System: octadecane; phases: Crystal, Gas
Property: Vapor or sublimation pressure, kPa (Crystal); method: Calculated from knudsen effusion weight loss
Temperature, K	Vapor or sublimation pressure, kPa	uncertainty
286.34	1.8e-06	1e-07
286.34	2.1e-06	1e-07
286.34	2e-06	1e-07
286.34	1.7e-06	1e-07
286.34	1.8e-06	1e-07
289.28	3.1e-06	2e-07
289.28	3.2e-06	2e-07
289.28	3.2e-06	2e-07
289.28	3.2e-06	2e-07
289.28	3.2e-06	2e-07
289.28	2.9e-06	2e-07
289.28	3e-06	2e-07
292.27	6e-06	3e-07
292.27	6e-06	3e-07
292.27	5.8e-06	3e-07
292.27	5.8e-06	3e-07
292.27	5.9e-06	3e-07
292.27	5.9e-06	3e-07
292.27	5.7e-06	3e-07
295.17	1.02e-05	6e-07
295.17	1.07e-05	6e-07
295.17	1.01e-05	6e-07
295.17	1.01e-05	6e-07
297.99	1.86e-05	1e-06
297.99	1.95e-05	1e-06
297.99	1.9e-05	1e-06
297.99	1.93e-05	1e-06
297.99	1.93e-05	1e-06
297.99	1.9e-05	1e-06
297.99	1.89e-05	1e-06

System: octadecane; phases: Crystal
Fixed: Pressure, kPa = 101.325
Property: Molar heat capacity at constant pressure, J/K/mol (Crystal); method: Large sample (1 g) DSC
Temperature, K	Molar heat capacity at constant pressure, J/K/mol	uncertainty
283.85	448.6	19
285.5	455.2	19.3
287.15	460.7	19.6
288.81	467.3	19.8
290.46	472.4	20.1

System: diphenyl carbonate; phases: Crystal, Gas
Property: Vapor or sublimation pressure, kPa (Crystal); method: Calculated from knudsen effusion weight loss
Temperature, K	Vapor or sublimation pressure, kPa	uncertainty
302.18	2.14e-05	1.2e-06
302.18	2.22e-05	1.2e-06
302.18	2.2e-05	1.2e-06
302.18	2.28e-05	1.2e-06
302.18	2.27e-05	1.2e-06
302.18	2.27e-05	1.2e-06
302.18	2.22e-05	1.2e-06
308.17	5.17e-05	2.7e-06
308.17	5.01e-05	2.6e-06
308.17	5e-05	2.6e-06
308.17	5.17e-05	2.7e-06
308.17	5.01e-05	2.6e-06
308.17	5.05e-05	2.6e-06
308.17	5.09e-05	2.7e-06
314.32	0.0001129	5.9e-06
314.32	0.0001132	5.9e-06
314.32	0.0001142	5.9e-06
314.32	0.0001164	6e-06
314.32	0.0001165	6e-06
314.32	0.0001147	6e-06
314.32	0.0001144	5.9e-06
320.25	0.00024	1.25e-05
320.25	0.0002424	1.26e-05
320.25	0.0002389	1.24e-05
320.25	0.00025	1.29e-05
320.25	0.0002461	1.27e-05
320.25	0.0002467	1.28e-05
320.25	0.0002416	1.25e-05
326.23	0.0005052	2.61e-05
326.23	0.0005075	2.63e-05
326.23	0.0004987	2.58e-05
326.23	0.0005176	2.67e-05
326.23	0.0005117	2.65e-05
326.23	0.0005165	2.67e-05
326.23	0.0005074	2.62e-05
332.24	0.0010428	0.0001056
332.24	0.0010373	0.0001049
332.24	0.0009919	5.03e-05
332.24	0.0010635	0.0001082
332.24	0.0010255	0.0001035
332.24	0.001067	0.0001086
