Measured thermophysical data. Volumetric, ultrasonic, and viscometric behaviour of l-histidine in aqueous-glucose solutions at different temperatures
Source: J. Chem. Thermodyn., 2011, 10.1016/j.jct.2010.11.017
Compound 1: D-glucose, C6H12O6, InChI=1S/C6H12O6/c7-1-3(9)5(11)6(12)4(10)2-8/h1,3-6,8-12H,2H2/t3-,4+,5+,6+/m0/s1, purity 99.9%
Compound 2: L-histidine, C6H9N3O2, InChI=1S/C6H9N3O2/c7-5(6(10)11)1-4-2-8-3-9-4/h2-3,5H,1,7H2,(H,8,9)(H,10,11)/t5-/m0/s1, purity 99%
Compound 3: water, H2O, InChI=1S/H2O/h1H2, purity 99.9%

System: D-glucose + L-histidine + water; phases: Liquid
Fixed: Pressure, kPa = 101
Property: Viscosity, Pa*s (Liquid); method: Capillary tube (Ostwald; Ubbelohde) method
Temperature, K	Molality, mol/kg of L-histidine	Solvent: Mass fraction of D-glucose	Viscosity, Pa*s	uncertainty
293.15	0	0	0.0010019	0.0001005
293.15	0.0199	0	0.0010137	0.0001017
293.15	0.0399	0	0.0010244	0.0001027
293.15	0.0599	0	0.001035	0.0001038
293.15	0.0799	0	0.0010454	0.0001048
293.15	0.1	0	0.0010558	0.0001059
293.15	0.1199	0	0.0010663	0.0001069
293.15	0.14	0	0.001077	0.000108
293.15	0.16	0	0.0010875	0.0001091
293.15	0	0.05	0.0011757	0.000118
293.15	0.02	0.05	0.0011918	0.0001197
293.15	0.04	0.05	0.0012048	0.000121
293.15	0.0599	0.05	0.0012181	0.0001223
293.15	0.0799	0.05	0.0012314	0.0001236
293.15	0.1	0.05	0.0012448	0.000125
293.15	0.12	0.05	0.001258	0.0001263
293.15	0.14	0.05	0.0012715	0.0001277
293.15	0.16	0.05	0.001285	0.000129
293.15	0	0.1	0.0013568	0.0001362
293.15	0.02	0.1	0.0013776	0.0001383
293.15	0.0399	0.1	0.0013932	0.0001399
293.15	0.06	0.1	0.0014101	0.0001416
293.15	0.0799	0.1	0.0014268	0.0001433
293.15	0.1	0.1	0.0014445	0.0001451
293.15	0.12	0.1	0.001461	0.0001467
293.15	0.1399	0.1	0.001478	0.0001484
293.15	0.16	0.1	0.0014957	0.0001502
293.15	0	0.15	0.0015412	0.0001548
293.15	0.02	0.15	0.0015676	0.0001574
293.15	0.04	0.15	0.0015899	0.0001596
293.15	0.06	0.15	0.0016112	0.0001617
293.15	0.08	0.15	0.0016329	0.0001639
293.15	0.0999	0.15	0.0016538	0.000166
293.15	0.1199	0.15	0.0016753	0.0001682
293.15	0.14	0.15	0.0016959	0.0001703
293.15	0.1599	0.15	0.0017166	0.0001724
293.15	0	0.2	0.0018768	0.0001882
293.15	0.02	0.2	0.001912	0.0001917
293.15	0.04	0.2	0.0019398	0.0001945
293.15	0.0599	0.2	0.0019675	0.0001973
293.15	0.0799	0.2	0.001995	0.0002
293.15	0.0999	0.2	0.002023	0.0002028
293.15	0.1199	0.2	0.00205	0.0002056
293.15	0.14	0.2	0.002077	0.0002083
293.15	0.16	0.2	0.0021042	0.000211
298.15	0	0	0.0008903	8.93e-05
298.15	0.0199	0	0.0009001	9.03e-05
298.15	0.0399	0	0.0009083	9.11e-05
298.15	0.0599	0	0.0009164	9.19e-05
298.15	0.0799	0	0.000925	9.28e-05
298.15	0.1	0	0.000933	9.36e-05
298.15	0.1199	0	0.0009411	9.44e-05
298.15	0.14	0	0.00095	9.53e-05
298.15	0.16	0	0.0009583	9.61e-05
298.15	0	0.05	0.0009767	9.8e-05
298.15	0.02	0.05	0.0009894	9.93e-05
298.15	0.04	0.05	0.0009995	0.0001003
298.15	0.0599	0.05	0.0010095	0.0001013
298.15	0.0799	0.05	0.0010194	0.0001023
298.15	0.1	0.05	0.0010293	0.0001033
298.15	0.12	0.05	0.0010392	0.0001043
298.15	0.14	0.05	0.0010496	0.0001054
298.15	0.16	0.05	0.0010597	0.0001064
298.15	0	0.1	0.0011196	0.0001124
298.15	0.02	0.1	0.0011358	0.000114
298.15	0.0399	0.1	0.001148	0.0001152
298.15	0.06	0.1	0.0011604	0.0001165
298.15	0.0799	0.1	0.0011732	0.0001178
298.15	0.1	0.1	0.0011857	0.000119
298.15	0.12	0.1	0.0011982	0.0001203
298.15	0.1399	0.1	0.0012111	0.0001216
298.15	0.16	0.1	0.0012236	0.0001229
298.15	0	0.15	0.0013157	0.000132
298.15	0.02	0.15	0.0013367	0.0001341
298.15	0.04	0.15	0.0013544	0.0001359
298.15	0.06	0.15	0.0013713	0.0001376
298.15	0.08	0.15	0.0013878	0.0001393
298.15	0.0999	0.15	0.0014041	0.0001409
298.15	0.1199	0.15	0.0014202	0.0001425
298.15	0.14	0.15	0.001436	0.0001441
298.15	0.1599	0.15	0.0014521	0.0001457
298.15	0	0.2	0.0016696	0.0001674
298.15	0.02	0.2	0.0016986	0.0001703
298.15	0.04	0.2	0.0017215	0.0001726
298.15	0.0599	0.2	0.0017434	0.0001748
298.15	0.0799	0.2	0.0017658	0.0001771
298.15	0.0999	0.2	0.0017883	0.0001793
298.15	0.1199	0.2	0.0018103	0.0001815
298.15	0.14	0.2	0.0018322	0.0001837
298.15	0.16	0.2	0.0018533	0.0001859
303.15	0	0	0.0007973	8e-05
303.15	0.0199	0	0.0008052	8.07e-05
303.15	0.0399	0	0.0008119	8.14e-05
303.15	0.0599	0	0.0008187	8.21e-05
303.15	0.0799	0	0.0008256	8.28e-05
303.15	0.1	0	0.0008318	8.34e-05
303.15	0.1199	0	0.0008383	8.41e-05
303.15	0.14	0	0.0008451	8.48e-05
303.15	0.16	0	0.0008513	8.54e-05
303.15	0	0.05	0.0008605	8.63e-05
303.15	0.02	0.05	0.0008711	8.74e-05
303.15	0.04	0.05	0.0008794	8.82e-05
303.15	0.0599	0.05	0.0008874	8.9e-05
303.15	0.0799	0.05	0.0008955	8.98e-05
303.15	0.1	0.05	0.0009033	9.06e-05
303.15	0.12	0.05	0.0009112	9.14e-05
303.15	0.14	0.05	0.0009192	9.22e-05
303.15	0.16	0.05	0.0009271	9.3e-05
303.15	0	0.1	0.0009907	9.94e-05
303.15	0.02	0.1	0.0010043	0.0001007
303.15	0.0399	0.1	0.0010144	0.0001017
303.15	0.06	0.1	0.0010249	0.0001028
303.15	0.0799	0.1	0.0010348	0.0001038
303.15	0.1	0.1	0.0010449	0.0001048
303.15	0.12	0.1	0.001055	0.0001058
303.15	0.1399	0.1	0.0010649	0.0001068
303.15	0.16	0.1	0.001075	0.0001078
303.15	0	0.15	0.0011471	0.0001151
303.15	0.02	0.15	0.0011645	0.0001168
303.15	0.04	0.15	0.0011789	0.0001183
303.15	0.06	0.15	0.0011923	0.0001196
303.15	0.08	0.15	0.0012056	0.0001209
303.15	0.0999	0.15	0.0012186	0.0001222
303.15	0.1199	0.15	0.0012314	0.0001235
303.15	0.14	0.15	0.0012447	0.0001249
303.15	0.1599	0.15	0.0012569	0.0001261
303.15	0	0.2	0.0014911	0.0001495
303.15	0.02	0.2	0.0015152	0.0001519
303.15	0.04	0.2	0.0015342	0.0001538
303.15	0.0599	0.2	0.0015522	0.0001556
303.15	0.0799	0.2	0.0015705	0.0001575
303.15	0.0999	0.2	0.0015888	0.0001593
303.15	0.1199	0.2	0.0016066	0.0001611
303.15	0.14	0.2	0.001624	0.0001628
303.15	0.16	0.2	0.0016412	0.0001646
308.15	0	0	0.000719	7.21e-05
308.15	0.0199	0	0.0007255	7.28e-05
308.15	0.0399	0	0.0007309	7.33e-05
308.15	0.0599	0	0.0007362	7.38e-05
308.15	0.0799	0	0.0007415	7.44e-05
308.15	0.1	0	0.0007464	7.48e-05
308.15	0.1199	0	0.0007515	7.54e-05
308.15	0.14	0	0.0007568	7.59e-05
308.15	0.16	0	0.000762	7.64e-05
308.15	0	0.05	0.0007697	7.72e-05
308.15	0.02	0.05	0.0007787	7.81e-05
308.15	0.04	0.05	0.0007856	7.88e-05
308.15	0.0599	0.05	0.0007923	7.95e-05
308.15	0.0799	0.05	0.0007986	8.01e-05
308.15	0.1	0.05	0.0008051	8.07e-05
308.15	0.12	0.05	0.0008115	8.14e-05
308.15	0.14	0.05	0.0008175	8.2e-05
308.15	0.16	0.05	0.0008237	8.26e-05
308.15	0	0.1	0.0008844	8.87e-05
308.15	0.02	0.1	0.0008959	8.98e-05
308.15	0.0399	0.1	0.0009043	9.07e-05
308.15	0.06	0.1	0.0009126	9.15e-05
308.15	0.0799	0.1	0.0009206	9.23e-05
308.15	0.1	0.1	0.0009288	9.32e-05
308.15	0.12	0.1	0.0009364	9.39e-05
308.15	0.1399	0.1	0.0009444	9.47e-05
308.15	0.16	0.1	0.0009524	9.55e-05
308.15	0	0.15	0.0010177	0.0001021
308.15	0.02	0.15	0.0010324	0.0001036
308.15	0.04	0.15	0.0010437	0.0001047
308.15	0.06	0.15	0.0010549	0.0001058
308.15	0.08	0.15	0.0010649	0.0001068
308.15	0.0999	0.15	0.0010752	0.0001079
308.15	0.1199	0.15	0.0010858	0.0001089
308.15	0.14	0.15	0.0010958	0.0001099
308.15	0.1599	0.15	0.001106	0.000111
308.15	0	0.2	0.0013452	0.0001349
308.15	0.02	0.2	0.0013654	0.0001369
308.15	0.04	0.2	0.0013808	0.0001384
308.15	0.0599	0.2	0.0013956	0.0001399
308.15	0.0799	0.2	0.0014101	0.0001414
308.15	0.0999	0.2	0.001425	0.0001429
308.15	0.1199	0.2	0.0014392	0.0001443
308.15	0.14	0.2	0.0014536	0.0001458
308.15	0.16	0.2	0.0014675	0.0001471
313.15	0	0	0.0006526	6.54e-05
313.15	0.0199	0	0.0006581	6.6e-05
313.15	0.0399	0	0.0006623	6.64e-05
313.15	0.0599	0	0.0006665	6.68e-05
313.15	0.0799	0	0.0006705	6.72e-05
313.15	0.1	0	0.0006745	6.76e-05
313.15	0.1199	0	0.0006788	6.81e-05
313.15	0.14	0	0.000683	6.85e-05
313.15	0.16	0	0.0006869	6.89e-05
313.15	0	0.05	0.0006945	6.96e-05
313.15	0.02	0.05	0.0007023	7.04e-05
313.15	0.04	0.05	0.000708	7.1e-05
313.15	0.0599	0.05	0.0007134	7.15e-05
313.15	0.0799	0.05	0.0007186	7.21e-05
313.15	0.1	0.05	0.0007236	7.26e-05
313.15	0.12	0.05	0.0007284	7.3e-05
313.15	0.14	0.05	0.0007335	7.36e-05
313.15	0.16	0.05	0.0007383	7.4e-05
313.15	0	0.1	0.0007901	7.92e-05
313.15	0.02	0.1	0.0007998	8.02e-05
313.15	0.0399	0.1	0.0008065	8.09e-05
313.15	0.06	0.1	0.0008129	8.15e-05
313.15	0.0799	0.1	0.0008193	8.22e-05
313.15	0.1	0.1	0.0008256	8.28e-05
313.15	0.12	0.1	0.0008315	8.34e-05
313.15	0.1399	0.1	0.0008379	8.4e-05
313.15	0.16	0.1	0.0008444	8.47e-05
313.15	0	0.15	0.0008925	8.95e-05
313.15	0.02	0.15	0.0009048	9.07e-05
313.15	0.04	0.15	0.0009139	9.17e-05
313.15	0.06	0.15	0.0009223	9.25e-05
313.15	0.08	0.15	0.000931	9.34e-05
313.15	0.0999	0.15	0.0009392	9.42e-05
313.15	0.1199	0.15	0.000947	9.5e-05
313.15	0.14	0.15	0.000955	9.58e-05
313.15	0.1599	0.15	0.0009625	9.65e-05
313.15	0	0.2	0.0012098	0.0001213
313.15	0.02	0.2	0.0012266	0.000123
313.15	0.04	0.2	0.0012393	0.0001242
313.15	0.0599	0.2	0.0012512	0.0001254
313.15	0.0799	0.2	0.0012627	0.0001266
313.15	0.0999	0.2	0.0012748	0.0001278
313.15	0.1199	0.2	0.001286	0.0001289
313.15	0.14	0.2	0.0012972	0.0001301
313.15	0.16	0.2	0.0013089	0.0001312
318.15	0	0	0.0005972	5.99e-05
318.15	0.0199	0	0.0006018	6.03e-05
318.15	0.0399	0	0.000605	6.07e-05
318.15	0.0599	0	0.0006082	6.1e-05
318.15	0.0799	0	0.0006114	6.13e-05
318.15	0.1	0	0.0006148	6.17e-05
318.15	0.1199	0	0.0006175	6.19e-05
318.15	0.14	0	0.0006208	6.23e-05
318.15	0.16	0	0.0006238	6.26e-05
318.15	0	0.05	0.0006334	6.35e-05
318.15	0.02	0.05	0.0006403	6.42e-05
318.15	0.04	0.05	0.000645	6.47e-05
318.15	0.0599	0.05	0.0006492	6.51e-05
318.15	0.0799	0.05	0.0006534	6.55e-05
318.15	0.1	0.05	0.0006574	6.59e-05
318.15	0.12	0.05	0.0006611	6.63e-05
318.15	0.14	0.05	0.000665	6.67e-05
318.15	0.16	0.05	0.0006687	6.7e-05
318.15	0	0.1	0.0007223	7.24e-05
318.15	0.02	0.1	0.0007307	7.33e-05
318.15	0.0399	0.1	0.000736	7.38e-05
318.15	0.06	0.1	0.0007412	7.43e-05
318.15	0.0799	0.1	0.0007464	7.48e-05
318.15	0.1	0.1	0.0007509	7.53e-05
318.15	0.12	0.1	0.000756	7.58e-05
318.15	0.1399	0.1	0.0007609	7.63e-05
318.15	0.16	0.1	0.0007658	7.68e-05
318.15	0	0.15	0.0008097	8.11e-05
318.15	0.02	0.15	0.0008204	8.22e-05
318.15	0.04	0.15	0.0008278	8.3e-05
318.15	0.06	0.15	0.000835	8.37e-05
318.15	0.08	0.15	0.0008416	8.43e-05
318.15	0.0999	0.15	0.0008478	8.5e-05
318.15	0.1199	0.15	0.0008542	8.56e-05
318.15	0.14	0.15	0.0008603	8.62e-05
318.15	0.1599	0.15	0.0008661	8.68e-05
318.15	0	0.2	0.0011122	0.0001115
318.15	0.02	0.2	0.0011268	0.000113
318.15	0.04	0.2	0.0011368	0.000114
318.15	0.0599	0.2	0.0011467	0.000115
318.15	0.0799	0.2	0.0011558	0.0001159
318.15	0.0999	0.2	0.0011654	0.0001168
318.15	0.1199	0.2	0.0011742	0.0001177
318.15	0.14	0.2	0.0011836	0.0001187
318.15	0.16	0.2	0.0011928	0.0001196

System: D-glucose + L-histidine + water; phases: Liquid
Fixed: Pressure, kPa = 101
Fixed: Frequency, MHz = 3
Property: Speed of sound, m/s (Liquid); method: Linear variable-path acoustic interferometer
Temperature, K	Molality, mol/kg of L-histidine	Solvent: Mass fraction of D-glucose	Speed of sound, m/s	uncertainty
293.15	0	0	1483.6	10.1
293.15	0.0199	0	1488.1	10.1
293.15	0.0399	0	1491.8	10.1
293.15	0.0599	0	1494.5	10.1
293.15	0.0799	0	1496.5	10.1
293.15	0.1	0	1497.4	10.1
293.15	0.1199	0	1497.5	10.1
293.15	0.14	0	1496.5	10.1
293.15	0.16	0	1494.8	10.1
293.15	0	0.05	1499.7	10.1
293.15	0.02	0.05	1503.9	10.1
293.15	0.04	0.05	1507.5	10.1
293.15	0.0599	0.05	1510.5	10.1
293.15	0.0799	0.05	1512.9	10.1
293.15	0.1	0.05	1514.6	10.1
293.15	0.12	0.05	1515.6	10.1
293.15	0.14	0.05	1515.9	10.1
293.15	0.16	0.05	1515.6	10.1
293.15	0	0.1	1521.4	10.1
293.15	0.02	0.1	1525.4	10.1
293.15	0.0399	0.1	1528.9	10.1
293.15	0.06	0.1	1531.8	10.1
293.15	0.0799	0.1	1534.2	10.1
293.15	0.1	0.1	1536	10.1
293.15	0.12	0.1	1537.2	10.1
293.15	0.1399	0.1	1537.8	10.1
293.15	0.16	0.1	1538.2	10.1
293.15	0	0.15	1532.4	10.1
293.15	0.02	0.15	1536.2	10.1
293.15	0.04	0.15	1539.6	10.1
293.15	0.06	0.15	1542.6	10.1
293.15	0.08	0.15	1545.3	10.1
293.15	0.0999	0.15	1547.5	10.1
293.15	0.1199	0.15	1549.3	10.1
293.15	0.14	0.15	1550.5	10.1
293.15	0.1599	0.15	1551.4	10.1
293.15	0	0.2	1543.2	10.1
293.15	0.02	0.2	1546.8	10.1
293.15	0.04	0.2	1550.1	10.1
293.15	0.0599	0.2	1553.1	10.1
293.15	0.0799	0.2	1555.8	10.1
293.15	0.0999	0.2	1558.2	10.1
293.15	0.1199	0.2	1560.3	10.1
293.15	0.14	0.2	1562.1	10.1
293.15	0.16	0.2	1563.6	10.1
298.15	0	0	1496.9	10.1
298.15	0.0199	0	1501.1	10.1
298.15	0.0399	0	1504.4	10.1
298.15	0.0599	0	1506.8	10.1
298.15	0.0799	0	1508.1	10.1
298.15	0.1	0	1508.6	10.1
298.15	0.1199	0	1507.9	10.1
298.15	0.14	0	1506.5	10.1
298.15	0.16	0	1504.2	10.1
298.15	0	0.05	1514.3	10.1
298.15	0.02	0.05	1518.4	10.1
298.15	0.04	0.05	1521.8	10.1
298.15	0.0599	0.05	1524.6	10.1
298.15	0.0799	0.05	1526.7	10.1
298.15	0.1	0.05	1528.1	10.1
298.15	0.12	0.05	1529.1	10.1
298.15	0.14	0.05	1529.1	10.1
298.15	0.16	0.05	1528.4	10.1
298.15	0	0.1	1530.6	10.1
298.15	0.02	0.1	1534.5	10.1
298.15	0.0399	0.1	1537.8	10.1
298.15	0.06	0.1	1540.6	10.1
298.15	0.0799	0.1	1542.8	10.1
298.15	0.1	0.1	1544.5	10.1
298.15	0.12	0.1	1545.6	10.1
298.15	0.1399	0.1	1546.1	10.1
298.15	0.16	0.1	1546.4	10.1
298.15	0	0.15	1542.5	10.1
298.15	0.02	0.15	1546.3	10.1
298.15	0.04	0.15	1549.6	10.1
298.15	0.06	0.15	1552.5	10.1
298.15	0.08	0.15	1555.1	10.1
298.15	0.0999	0.15	1557.2	10.1
298.15	0.1199	0.15	1558.8	10.1
298.15	0.14	0.15	1560	10.1
298.15	0.1599	0.15	1560.6	10.1
298.15	0	0.2	1553.3	10.1
298.15	0.02	0.2	1556.9	10.1
298.15	0.04	0.2	1560.2	10.1
298.15	0.0599	0.2	1563.2	10.1
298.15	0.0799	0.2	1565.8	10.1
298.15	0.0999	0.2	1568.2	10.1
298.15	0.1199	0.2	1570.2	10.1
298.15	0.14	0.2	1572	10.1
298.15	0.16	0.2	1573.3	10.1
303.15	0	0	1508.4	10.1
303.15	0.0199	0	1512.3	10.1
303.15	0.0399	0	1515.1	10.1
303.15	0.0599	0	1517	10.1
303.15	0.0799	0	1517.7	10.1
303.15	0.1	0	1518	10.1
303.15	0.1199	0	1516.4	10.1
303.15	0.14	0	1514.2	10.1
303.15	0.16	0	1511.5	10.1
303.15	0	0.05	1525.1	10.1
303.15	0.02	0.05	1529	10.1
303.15	0.04	0.05	1532.1	10.1
303.15	0.0599	0.05	1534.5	10.1
303.15	0.0799	0.05	1536.3	10.1
303.15	0.1	0.05	1537.3	10.1
303.15	0.12	0.05	1538.1	10.1
303.15	0.14	0.05	1537.5	10.1
303.15	0.16	0.05	1536.9	10.1
303.15	0	0.1	1540.3	10.1
303.15	0.02	0.1	1544	10.1
303.15	0.0399	0.1	1547.1	10.1
303.15	0.06	0.1	1549.7	10.1
303.15	0.0799	0.1	1551.7	10.1
303.15	0.1	0.1	1553.2	10.1
303.15	0.12	0.1	1554.2	10.1
303.15	0.1399	0.1	1554.6	10.1
303.15	0.16	0.1	1555.2	10.1
303.15	0	0.15	1551.5	10.1
303.15	0.02	0.15	1555.2	10.1
303.15	0.04	0.15	1558.4	10.1
303.15	0.06	0.15	1561.2	10.1
303.15	0.08	0.15	1563.7	10.1
303.15	0.0999	0.15	1565.6	10.1
303.15	0.1199	0.15	1567.2	10.1
303.15	0.14	0.15	1568.1	10.1
303.15	0.1599	0.15	1568.6	10.1
303.15	0	0.2	1563.1	10.1
303.15	0.02	0.2	1566.7	10.1
303.15	0.04	0.2	1570	10.1
303.15	0.0599	0.2	1572.9	10.1
303.15	0.0799	0.2	1575.5	10.1
303.15	0.0999	0.2	1577.8	10.1
303.15	0.1199	0.2	1579.7	10.1
303.15	0.14	0.2	1581.3	10.1
303.15	0.16	0.2	1582.5	10.1
308.15	0	0	1519.8	10.1
308.15	0.0199	0	1523.3	10.1
308.15	0.0399	0	1525.7	10.1
308.15	0.0599	0	1527.1	10.1
308.15	0.0799	0	1527.6	10.1
308.15	0.1	0	1527.2	10.1
308.15	0.1199	0	1525.5	10.1
308.15	0.14	0	1522.8	10.1
308.15	0.16	0	1519.8	10.1
308.15	0	0.05	1535.7	10.1
308.15	0.02	0.05	1539.4	10.1
308.15	0.04	0.05	1542.3	10.1
308.15	0.0599	0.05	1544.4	10.1
308.15	0.0799	0.05	1545.9	10.1
308.15	0.1	0.05	1546.5	10.1
308.15	0.12	0.05	1546.8	10.1
308.15	0.14	0.05	1546.2	10.1
308.15	0.16	0.05	1545	10.1
308.15	0	0.1	1550.2	10.1
308.15	0.02	0.1	1553.8	10.1
308.15	0.0399	0.1	1556.7	10.1
308.15	0.06	0.1	1559.1	10.1
308.15	0.0799	0.1	1561	10.1
308.15	0.1	0.1	1562.3	10.1
308.15	0.12	0.1	1563	10.1
308.15	0.1399	0.1	1563.3	10.1
308.15	0.16	0.1	1563.3	10.1
308.15	0	0.15	1560.5	10.1
308.15	0.02	0.15	1564.1	10.1
308.15	0.04	0.15	1567.3	10.1
308.15	0.06	0.15	1570	10.1
308.15	0.08	0.15	1572.3	10.1
308.15	0.0999	0.15	1574.2	10.1
308.15	0.1199	0.15	1575.6	10.1
308.15	0.14	0.15	1576.5	10.1
308.15	0.1599	0.15	1576.8	10.1
308.15	0	0.2	1573.5	10.1
308.15	0.02	0.2	1577.1	10.1
308.15	0.04	0.2	1580.3	10.1
308.15	0.0599	0.2	1583.2	10.1
308.15	0.0799	0.2	1585.8	10.1
308.15	0.0999	0.2	1587.9	10.1
308.15	0.1199	0.2	1589.8	10.1
308.15	0.14	0.2	1591.2	10.1
308.15	0.16	0.2	1592.4	10.1
313.15	0	0	1526.8	10.1
313.15	0.0199	0	1529.9	10.1
313.15	0.0399	0	1531.9	10.1
313.15	0.0599	0	1532.8	10.1
313.15	0.0799	0	1533	10.1
313.15	0.1	0	1532.2	10.1
313.15	0.1199	0	1530.3	10.1
313.15	0.14	0	1527.3	10.1
313.15	0.16	0	1523.7	10.1
313.15	0	0.05	1545.6	10.1
313.15	0.02	0.05	1549.1	10.1
313.15	0.04	0.05	1551.7	10.1
313.15	0.0599	0.05	1553.5	10.1
313.15	0.0799	0.05	1554.5	10.1
313.15	0.1	0.05	1554.8	10.1
313.15	0.12	0.05	1554.5	10.1
313.15	0.14	0.05	1553.5	10.1
313.15	0.16	0.05	1552.1	10.1
313.15	0	0.1	1559.9	10.1
313.15	0.02	0.1	1563.4	10.1
313.15	0.0399	0.1	1566.2	10.1
313.15	0.06	0.1	1568.4	10.1
313.15	0.0799	0.1	1570.1	10.1
313.15	0.1	0.1	1571.2	10.1
313.15	0.12	0.1	1571.5	10.1
313.15	0.1399	0.1	1571.8	10.1
313.15	0.16	0.1	1571.2	10.1
313.15	0	0.15	1569.6	10.1
313.15	0.02	0.15	1573.1	10.1
313.15	0.04	0.15	1576.2	10.1
313.15	0.06	0.15	1578.8	10.1
313.15	0.08	0.15	1581	10.1
313.15	0.0999	0.15	1582.9	10.1
313.15	0.1199	0.15	1584.3	10.1
313.15	0.14	0.15	1585.1	10.1
313.15	0.1599	0.15	1585.2	10.1
313.15	0	0.2	1582.2	10.1
313.15	0.02	0.2	1585.8	10.1
313.15	0.04	0.2	1589	10.1
313.15	0.0599	0.2	1591.8	10.1
313.15	0.0799	0.2	1594.3	10.1
313.15	0.0999	0.2	1596.4	10.1
313.15	0.1199	0.2	1598.1	10.1
313.15	0.14	0.2	1599.4	10.1
313.15	0.16	0.2	1600.5	10.1
318.15	0	0	1533	10.1
318.15	0.0199	0	1535.7	10.1
318.15	0.0399	0	1537.3	10.1
318.15	0.0599	0	1538	10.1
318.15	0.0799	0	1537.6	10.1
318.15	0.1	0	1536.3	10.1
318.15	0.1199	0	1534.1	10.1
318.15	0.14	0	1530.5	10.1
318.15	0.16	0	1526.5	10.1
318.15	0	0.05	1554.5	10.1
318.15	0.02	0.05	1557.8	10.1
318.15	0.04	0.05	1560.2	10.1
318.15	0.0599	0.05	1561.8	10.1
318.15	0.0799	0.05	1562.4	10.1
318.15	0.1	0.05	1562.4	10.1
318.15	0.12	0.05	1561.8	10.1
318.15	0.14	0.05	1560.6	10.1
318.15	0.16	0.05	1559	10.1
318.15	0	0.1	1568.4	10.1
318.15	0.02	0.1	1571.7	10.1
318.15	0.0399	0.1	1574.4	10.1
318.15	0.06	0.1	1576.5	10.1
318.15	0.0799	0.1	1578.1	10.1
318.15	0.1	0.1	1578.8	10.1
318.15	0.12	0.1	1579.1	10.1
318.15	0.1399	0.1	1578.8	10.1
318.15	0.16	0.1	1578	10.1
318.15	0	0.15	1577.2	10.1
318.15	0.02	0.15	1580.6	10.1
318.15	0.04	0.15	1583.6	10.1
318.15	0.06	0.15	1586.2	10.1
318.15	0.08	0.15	1588.2	10.1
318.15	0.0999	0.15	1589.9	10.1
318.15	0.1199	0.15	1591	10.1
318.15	0.14	0.15	1591.7	10.1
318.15	0.1599	0.15	1591.9	10.1
318.15	0	0.2	1591.2	10.1
318.15	0.02	0.2	1594.8	10.1
318.15	0.04	0.2	1597.9	10.1
318.15	0.0599	0.2	1600.7	10.1
318.15	0.0799	0.2	1603.1	10.1
318.15	0.0999	0.2	1605.2	10.1
318.15	0.1199	0.2	1606.7	10.1
318.15	0.14	0.2	1608	10.1
318.15	0.16	0.2	1608.9	10.1

System: D-glucose + L-histidine + water; phases: Liquid
Fixed: Pressure, kPa = 101
Property: Mass density, kg/m3 (Liquid); method: Pycnometric method
Temperature, K	Molality, mol/kg of L-histidine	Solvent: Mass fraction of D-glucose	Mass density, kg/m3	uncertainty
293.15	0	0	998.24	6.01
293.15	0.0199	0	999.39	6.01
293.15	0.0399	0	1000.54	6.01
293.15	0.0599	0	1001.69	6.01
293.15	0.0799	0	1002.84	6.01
293.15	0.1	0	1003.99	6.01
293.15	0.1199	0	1005.14	6.01
293.15	0.14	0	1006.29	6.01
293.15	0.16	0	1007.44	6.01
293.15	0	0.05	1016.28	6.01
293.15	0.02	0.05	1017.33	6.01
293.15	0.04	0.05	1018.38	6.01
293.15	0.0599	0.05	1019.42	6.01
293.15	0.0799	0.05	1020.47	6.01
293.15	0.1	0.05	1021.53	6.01
293.15	0.12	0.05	1022.58	6.01
293.15	0.14	0.05	1023.63	6.01
293.15	0.16	0.05	1024.68	6.01
293.15	0	0.1	1034.79	6.01
293.15	0.02	0.1	1035.74	6.01
293.15	0.0399	0.1	1036.69	6.01
293.15	0.06	0.1	1037.65	6.01
293.15	0.0799	0.1	1038.6	6.01
293.15	0.1	0.1	1039.56	6.01
293.15	0.12	0.1	1040.52	6.01
293.15	0.1399	0.1	1041.48	6.01
293.15	0.16	0.1	1042.44	6.01
293.15	0	0.15	1053.29	6.01
293.15	0.02	0.15	1054.15	6.01
293.15	0.04	0.15	1055.01	6.01
293.15	0.06	0.15	1055.88	6.01
293.15	0.08	0.15	1056.75	6.01
293.15	0.0999	0.15	1057.62	6.01
293.15	0.1199	0.15	1058.49	6.01
293.15	0.14	0.15	1059.37	6.01
293.15	0.1599	0.15	1060.24	6.01
293.15	0	0.2	1072.41	6.01
293.15	0.02	0.2	1073.19	6.01
293.15	0.04	0.2	1073.97	6.01
293.15	0.0599	0.2	1074.75	6.01
293.15	0.0799	0.2	1075.53	6.01
293.15	0.0999	0.2	1076.32	6.01
293.15	0.1199	0.2	1077.11	6.01
293.15	0.14	0.2	1077.91	6.01
293.15	0.16	0.2	1078.71	6.01
298.15	0	0	997.07	6.01
298.15	0.0199	0	998.22	6.01
298.15	0.0399	0	999.37	6.01
298.15	0.0599	0	1000.52	6.01
298.15	0.0799	0	1001.68	6.01
298.15	0.1	0	1002.83	6.01
298.15	0.1199	0	1003.98	6.01
298.15	0.14	0	1005.13	6.01
298.15	0.16	0	1006.28	6.01
298.15	0	0.05	1014.69	6.01
298.15	0.02	0.05	1015.74	6.01
298.15	0.04	0.05	1016.79	6.01
298.15	0.0599	0.05	1017.84	6.01
298.15	0.0799	0.05	1018.89	6.01
298.15	0.1	0.05	1019.95	6.01
298.15	0.12	0.05	1021.01	6.01
298.15	0.14	0.05	1022.06	6.01
298.15	0.16	0.05	1023.11	6.01
298.15	0	0.1	1033.15	6.01
298.15	0.02	0.1	1034.1	6.01
298.15	0.0399	0.1	1035.06	6.01
298.15	0.06	0.1	1036.02	6.01
298.15	0.0799	0.1	1036.98	6.01
298.15	0.1	0.1	1037.94	6.01
298.15	0.12	0.1	1038.91	6.01
298.15	0.1399	0.1	1039.87	6.01
298.15	0.16	0.1	1040.84	6.01
298.15	0	0.15	1051.61	6.01
298.15	0.02	0.15	1052.47	6.01
298.15	0.04	0.15	1053.34	6.01
298.15	0.06	0.15	1054.21	6.01
298.15	0.08	0.15	1055.08	6.01
298.15	0.0999	0.15	1055.96	6.01
298.15	0.1199	0.15	1056.83	6.01
298.15	0.14	0.15	1057.72	6.01
298.15	0.1599	0.15	1058.6	6.01
298.15	0	0.2	1070.31	6.01
298.15	0.02	0.2	1071.09	6.01
298.15	0.04	0.2	1071.88	6.01
298.15	0.0599	0.2	1072.66	6.01
298.15	0.0799	0.2	1073.45	6.01
298.15	0.0999	0.2	1074.25	6.01
298.15	0.1199	0.2	1075.04	6.01
298.15	0.14	0.2	1075.85	6.01
298.15	0.16	0.2	1076.65	6.01
303.15	0	0	995.68	6.01
303.15	0.0199	0	996.83	6.01
303.15	0.0399	0	997.99	6.01
303.15	0.0599	0	999.14	6.01
303.15	0.0799	0	1000.3	6.01
303.15	0.1	0	1001.46	6.01
303.15	0.1199	0	1002.61	6.01
303.15	0.14	0	1003.76	6.01
303.15	0.16	0	1004.91	6.01
303.15	0	0.05	1013.08	6.01
303.15	0.02	0.05	1014.14	6.01
303.15	0.04	0.05	1015.19	6.01
303.15	0.0599	0.05	1016.24	6.01
303.15	0.0799	0.05	1017.3	6.01
303.15	0.1	0.05	1018.36	6.01
303.15	0.12	0.05	1019.42	6.01
303.15	0.14	0.05	1020.47	6.01
303.15	0.16	0.05	1021.52	6.01
303.15	0	0.1	1031.5	6.01
303.15	0.02	0.1	1032.46	6.01
303.15	0.0399	0.1	1033.41	6.01
303.15	0.06	0.1	1034.38	6.01
303.15	0.0799	0.1	1035.34	6.01
303.15	0.1	0.1	1036.31	6.01
303.15	0.12	0.1	1037.29	6.01
303.15	0.1399	0.1	1038.25	6.01
303.15	0.16	0.1	1039.22	6.01
303.15	0	0.15	1049.92	6.01
303.15	0.02	0.15	1050.79	6.01
303.15	0.04	0.15	1051.66	6.01
303.15	0.06	0.15	1052.54	6.01
303.15	0.08	0.15	1053.41	6.01
303.15	0.0999	0.15	1054.29	6.01
303.15	0.1199	0.15	1055.17	6.01
303.15	0.14	0.15	1056.07	6.01
303.15	0.1599	0.15	1056.95	6.01
303.15	0	0.2	1068.17	6.01
303.15	0.02	0.2	1068.96	6.01
303.15	0.04	0.2	1069.75	6.01
303.15	0.0599	0.2	1070.54	6.01
303.15	0.0799	0.2	1071.34	6.01
303.15	0.0999	0.2	1072.13	6.01
303.15	0.1199	0.2	1072.94	6.01
303.15	0.14	0.2	1073.75	6.01
303.15	0.16	0.2	1074.56	6.01
308.15	0	0	994.07	6.01
308.15	0.0199	0	995.23	6.01
308.15	0.0399	0	996.39	6.01
308.15	0.0599	0	997.55	6.01
308.15	0.0799	0	998.71	6.01
308.15	0.1	0	999.87	6.01
308.15	0.1199	0	1001.02	6.01
308.15	0.14	0	1002.19	6.01
308.15	0.16	0	1003.34	6.01
308.15	0	0.05	1011.47	6.01
308.15	0.02	0.05	1012.53	6.01
308.15	0.04	0.05	1013.59	6.01
308.15	0.0599	0.05	1014.65	6.01
308.15	0.0799	0.05	1015.71	6.01
308.15	0.1	0.05	1016.77	6.01
308.15	0.12	0.05	1017.83	6.01
308.15	0.14	0.05	1018.89	6.01
308.15	0.16	0.05	1019.95	6.01
308.15	0	0.1	1029.84	6.01
308.15	0.02	0.1	1030.8	6.01
308.15	0.0399	0.1	1031.76	6.01
308.15	0.06	0.1	1032.74	6.01
308.15	0.0799	0.1	1033.7	6.01
308.15	0.1	0.1	1034.68	6.01
308.15	0.12	0.1	1035.66	6.01
308.15	0.1399	0.1	1036.62	6.01
308.15	0.16	0.1	1037.6	6.01
308.15	0	0.15	1048.37	6.01
308.15	0.02	0.15	1049.24	6.01
308.15	0.04	0.15	1050.12	6.01
308.15	0.06	0.15	1051	6.01
308.15	0.08	0.15	1051.88	6.01
308.15	0.0999	0.15	1052.76	6.01
308.15	0.1199	0.15	1053.65	6.01
308.15	0.14	0.15	1054.54	6.01
308.15	0.1599	0.15	1055.43	6.01
308.15	0	0.2	1065.97	6.02
308.15	0.02	0.2	1066.76	6.02
308.15	0.04	0.2	1067.56	6.02
308.15	0.0599	0.2	1068.36	6.02
308.15	0.0799	0.2	1069.16	6.02
308.15	0.0999	0.2	1069.96	6.02
308.15	0.1199	0.2	1070.78	6.02
308.15	0.14	0.2	1071.59	6.02
308.15	0.16	0.2	1072.4	6.02
313.15	0	0	992.25	6.01
313.15	0.0199	0	993.41	6.01
313.15	0.0399	0	994.58	6.01
313.15	0.0599	0	995.74	6.01
313.15	0.0799	0	996.91	6.01
313.15	0.1	0	998.08	6.01
313.15	0.1199	0	999.23	6.01
313.15	0.14	0	1000.4	6.01
313.15	0.16	0	1001.56	6.01
313.15	0	0.05	1009.85	6.01
313.15	0.02	0.05	1010.91	6.01
313.15	0.04	0.05	1011.98	6.01
313.15	0.0599	0.05	1013.04	6.01
313.15	0.0799	0.05	1014.1	6.01
313.15	0.1	0.05	1015.16	6.01
313.15	0.12	0.05	1016.23	6.01
313.15	0.14	0.05	1017.29	6.01
313.15	0.16	0.05	1018.35	6.01
313.15	0	0.1	1028.17	6.01
313.15	0.02	0.1	1029.14	6.01
313.15	0.0399	0.1	1030.1	6.01
313.15	0.06	0.1	1031.08	6.01
313.15	0.0799	0.1	1032.05	6.01
313.15	0.1	0.1	1033.04	6.01
313.15	0.12	0.1	1034.01	6.01
313.15	0.1399	0.1	1034.98	6.01
313.15	0.16	0.1	1035.97	6.01
313.15	0	0.15	1046.62	6.01
313.15	0.02	0.15	1047.5	6.01
313.15	0.04	0.15	1048.38	6.01
313.15	0.06	0.15	1049.26	6.01
313.15	0.08	0.15	1050.15	6.01
313.15	0.0999	0.15	1051.03	6.01
313.15	0.1199	0.15	1051.92	6.01
313.15	0.14	0.15	1052.83	6.01
313.15	0.1599	0.15	1053.72	6.01
313.15	0	0.2	1063.76	6.02
313.15	0.02	0.2	1064.56	6.02
313.15	0.04	0.2	1065.36	6.02
313.15	0.0599	0.2	1066.16	6.02
313.15	0.0799	0.2	1066.97	6.02
313.15	0.0999	0.2	1067.78	6.02
313.15	0.1199	0.2	1068.6	6.02
313.15	0.14	0.2	1069.42	6.02
313.15	0.16	0.2	1070.24	6.02
318.15	0	0	990.24	6.01
318.15	0.0199	0	991.41	6.01
318.15	0.0399	0	992.58	6.01
318.15	0.0599	0	993.75	6.01
318.15	0.0799	0	994.92	6.01
318.15	0.1	0	996.1	6.01
318.15	0.1199	0	997.26	6.01
318.15	0.14	0	998.44	6.01
318.15	0.16	0	999.6	6.01
318.15	0	0.05	1008.21	6.01
318.15	0.02	0.05	1009.28	6.01
318.15	0.04	0.05	1010.35	6.01
318.15	0.0599	0.05	1011.41	6.01
318.15	0.0799	0.05	1012.48	6.01
318.15	0.1	0.05	1013.55	6.01
318.15	0.12	0.05	1014.62	6.01
318.15	0.14	0.05	1015.68	6.01
318.15	0.16	0.05	1016.74	6.01
318.15	0	0.1	1026.48	6.01
318.15	0.02	0.1	1027.45	6.01
318.15	0.0399	0.1	1028.42	6.01
318.15	0.06	0.1	1029.41	6.01
318.15	0.0799	0.1	1030.38	6.01
318.15	0.1	0.1	1031.37	6.01
318.15	0.12	0.1	1032.35	6.01
318.15	0.1399	0.1	1033.32	6.01
318.15	0.16	0.1	1034.31	6.01
318.15	0	0.15	1044.93	6.02
318.15	0.02	0.15	1045.81	6.02
318.15	0.04	0.15	1046.7	6.02
318.15	0.06	0.15	1047.58	6.02
318.15	0.08	0.15	1048.48	6.02
318.15	0.0999	0.15	1049.37	6.02
318.15	0.1199	0.15	1050.26	6.01
318.15	0.14	0.15	1051.17	6.02
318.15	0.1599	0.15	1052.07	6.02
318.15	0	0.2	1061.52	6.02
318.15	0.02	0.2	1062.32	6.02
318.15	0.04	0.2	1063.13	6.02
318.15	0.0599	0.2	1063.94	6.02
318.15	0.0799	0.2	1064.76	6.02
318.15	0.0999	0.2	1065.57	6.02
318.15	0.1199	0.2	1066.4	6.02
318.15	0.14	0.2	1067.22	6.02
318.15	0.16	0.2	1068.05	6.02

System: L-histidine + water; phases: Liquid
Fixed: Pressure, kPa = 101
Property: Viscosity, Pa*s (Liquid); method: Capillary tube (Ostwald; Ubbelohde) method
Temperature, K	Molality, mol/kg of L-histidine	Viscosity, Pa*s	uncertainty
293.15	0.0199	0.0010137	0.0001016
293.15	0.0399	0.0010244	0.0001027
293.15	0.0599	0.001035	0.0001038
293.15	0.0799	0.0010454	0.0001048
293.15	0.1	0.0010558	0.0001059
293.15	0.1199	0.0010663	0.0001069
293.15	0.14	0.001077	0.000108
293.15	0.16	0.0010875	0.000109
298.15	0.0199	0.0009001	9.03e-05
298.15	0.0399	0.0009083	9.11e-05
298.15	0.0599	0.0009164	9.19e-05
298.15	0.0799	0.000925	9.28e-05
298.15	0.1	0.000933	9.36e-05
298.15	0.1199	0.0009411	9.44e-05
298.15	0.14	0.00095	9.53e-05
298.15	0.16	0.0009583	9.61e-05
303.15	0.0199	0.0008052	8.07e-05
303.15	0.0399	0.0008119	8.14e-05
303.15	0.0599	0.0008187	8.21e-05
303.15	0.0799	0.0008256	8.28e-05
303.15	0.1	0.0008318	8.34e-05
303.15	0.1199	0.0008383	8.41e-05
303.15	0.14	0.0008451	8.47e-05
303.15	0.16	0.0008513	8.54e-05
308.15	0.0199	0.0007255	7.27e-05
308.15	0.0399	0.0007309	7.33e-05
308.15	0.0599	0.0007362	7.38e-05
308.15	0.0799	0.0007415	7.43e-05
308.15	0.1	0.0007464	7.48e-05
308.15	0.1199	0.0007515	7.53e-05
308.15	0.14	0.0007568	7.59e-05
308.15	0.16	0.000762	7.64e-05
313.15	0.0199	0.0006581	6.6e-05
313.15	0.0399	0.0006623	6.64e-05
313.15	0.0599	0.0006665	6.68e-05
313.15	0.0799	0.0006705	6.72e-05
313.15	0.1	0.0006745	6.76e-05
313.15	0.1199	0.0006788	6.81e-05
313.15	0.14	0.000683	6.85e-05
313.15	0.16	0.0006869	6.89e-05
318.15	0.0199	0.0006018	6.03e-05
318.15	0.0399	0.000605	6.07e-05
318.15	0.0599	0.0006082	6.1e-05
318.15	0.0799	0.0006114	6.13e-05
318.15	0.1	0.0006148	6.16e-05
318.15	0.1199	0.0006175	6.19e-05
318.15	0.14	0.0006208	6.22e-05
318.15	0.16	0.0006238	6.25e-05
293.15	0	0.0010019	0.0001004
298.15	0	0.0008903	8.93e-05
303.15	0	0.0007973	7.99e-05
308.15	0	0.000719	7.21e-05
313.15	0	0.0006526	6.54e-05
318.15	0	0.0005972	5.99e-05

System: L-histidine + water; phases: Liquid
Fixed: Pressure, kPa = 101
Fixed: Frequency, MHz = 3
Property: Speed of sound, m/s (Liquid); method: Linear variable-path acoustic interferometer
Temperature, K	Molality, mol/kg of L-histidine	Speed of sound, m/s	uncertainty
293.15	0.0199	1488.1	10.1
293.15	0.0399	1491.8	10.1
293.15	0.0599	1494.5	10.1
293.15	0.0799	1496.5	10.1
293.15	0.1	1497.4	10.1
293.15	0.1199	1497.5	10.1
293.15	0.14	1496.5	10.1
293.15	0.16	1494.8	10.1
298.15	0.0199	1501.1	10.1
298.15	0.0399	1504.4	10.1
298.15	0.0599	1506.8	10.1
298.15	0.0799	1508.1	10.1
298.15	0.1	1508.6	10.1
298.15	0.1199	1507.9	10.1
298.15	0.14	1506.5	10.1
298.15	0.16	1504.2	10.1
303.15	0.0199	1512.3	10.1
303.15	0.0399	1515.1	10.1
303.15	0.0599	1517	10.1
303.15	0.0799	1517.7	10.1
303.15	0.1	1518	10.1
303.15	0.1199	1516.4	10.1
303.15	0.14	1514.2	10.1
303.15	0.16	1511.5	10.1
308.15	0.0199	1523.3	10.1
308.15	0.0399	1525.7	10.1
308.15	0.0599	1527.1	10.1
308.15	0.0799	1527.6	10.1
308.15	0.1	1527.2	10.1
308.15	0.1199	1525.5	10.1
308.15	0.14	1522.8	10.1
308.15	0.16	1519.8	10.1
313.15	0.0199	1529.9	10.1
313.15	0.0399	1531.9	10.1
313.15	0.0599	1532.8	10.1
313.15	0.0799	1533	10.1
313.15	0.1	1532.2	10.1
313.15	0.1199	1530.3	10.1
313.15	0.14	1527.3	10.1
313.15	0.16	1523.7	10.1
318.15	0.0199	1535.7	10.1
318.15	0.0399	1537.3	10.1
318.15	0.0599	1538	10.1
318.15	0.0799	1537.6	10.1
318.15	0.1	1536.3	10.1
318.15	0.1199	1534.1	10.1
318.15	0.14	1530.5	10.1
318.15	0.16	1526.5	10.1
293.15	0	1483.6	10.1
298.15	0	1496.9	10.1
303.15	0	1508.4	10.1
308.15	0	1519.8	10.1
313.15	0	1526.8	10.1
318.15	0	1533	10.1

System: L-histidine + water; phases: Liquid
Fixed: Pressure, kPa = 101
Property: Mass density, kg/m3 (Liquid); method: Pycnometric method
Temperature, K	Molality, mol/kg of L-histidine	Mass density, kg/m3	uncertainty
293.15	0.0199	999.39	6.01
293.15	0.0399	1000.54	6.01
293.15	0.0599	1001.69	6.01
293.15	0.0799	1002.84	6.01
293.15	0.1	1003.99	6.01
293.15	0.1199	1005.14	6.01
293.15	0.14	1006.29	6.01
293.15	0.16	1007.44	6.01
298.15	0.0199	998.22	6.01
298.15	0.0399	999.37	6.01
298.15	0.0599	1000.52	6.01
298.15	0.0799	1001.68	6.01
298.15	0.1	1002.83	6.01
298.15	0.1199	1003.98	6.01
298.15	0.14	1005.13	6.01
298.15	0.16	1006.28	6.01
303.15	0.0199	996.83	6.01
303.15	0.0399	997.99	6.01
303.15	0.0599	999.14	6.01
303.15	0.0799	1000.3	6.01
303.15	0.1	1001.46	6.01
303.15	0.1199	1002.61	6.01
303.15	0.14	1003.76	6.01
303.15	0.16	1004.91	6.01
308.15	0.0199	995.23	6.01
308.15	0.0399	996.39	6.01
308.15	0.0599	997.55	6.01
308.15	0.0799	998.71	6.01
308.15	0.1	999.87	6.01
308.15	0.1199	1001.02	6.01
308.15	0.14	1002.19	6.01
308.15	0.16	1003.34	6.01
313.15	0.0199	993.41	6.01
313.15	0.0399	994.58	6.01
313.15	0.0599	995.74	6.01
313.15	0.0799	996.91	6.01
313.15	0.1	998.08	6.01
313.15	0.1199	999.23	6.01
313.15	0.14	1000.4	6.01
313.15	0.16	1001.56	6.01
318.15	0.0199	991.41	6.01
318.15	0.0399	992.58	6.01
318.15	0.0599	993.75	6.01
318.15	0.0799	994.92	6.01
318.15	0.1	996.1	6.01
318.15	0.1199	997.26	6.01
318.15	0.14	998.44	6.01
318.15	0.16	999.6	6.01
293.15	0	998.24	6.01
298.15	0	997.07	6.01
303.15	0	995.68	6.01
308.15	0	994.07	6.01
313.15	0	992.25	6.01
318.15	0	990.24	6.01

System: D-glucose + water; phases: Liquid
Fixed: Pressure, kPa = 101
Property: Viscosity, Pa*s (Liquid); method: Capillary tube (Ostwald; Ubbelohde) method
Temperature, K	Mass fraction of D-glucose	Viscosity, Pa*s	uncertainty
293.15	0.05	0.0011757	0.000118
293.15	0.1	0.0013568	0.0001362
293.15	0.15	0.0015412	0.0001547
293.15	0.2	0.0018768	0.0001881
298.15	0.05	0.0009767	9.8e-05
298.15	0.1	0.0011196	0.0001124
298.15	0.15	0.0013157	0.000132
298.15	0.2	0.0016696	0.0001674
303.15	0.05	0.0008605	8.63e-05
303.15	0.1	0.0009907	9.93e-05
303.15	0.15	0.0011471	0.000115
303.15	0.2	0.0014911	0.0001495
308.15	0.05	0.0007697	7.72e-05
308.15	0.1	0.0008844	8.87e-05
308.15	0.15	0.0010177	0.0001021
308.15	0.2	0.0013452	0.0001348
313.15	0.05	0.0006945	6.96e-05
313.15	0.1	0.0007901	7.92e-05
313.15	0.15	0.0008925	8.95e-05
313.15	0.2	0.0012098	0.0001213
318.15	0.05	0.0006334	6.35e-05
318.15	0.1	0.0007223	7.24e-05
318.15	0.15	0.0008097	8.11e-05
318.15	0.2	0.0011122	0.0001115
293.15	0	0.0010019	0.0001004
298.15	0	0.0008903	8.93e-05
303.15	0	0.0007973	7.99e-05
308.15	0	0.000719	7.21e-05
313.15	0	0.0006526	6.54e-05
318.15	0	0.0005972	5.99e-05

System: D-glucose + water; phases: Liquid
Fixed: Pressure, kPa = 101
Fixed: Frequency, MHz = 3
Property: Speed of sound, m/s (Liquid); method: Linear variable-path acoustic interferometer
Temperature, K	Mass fraction of D-glucose	Speed of sound, m/s	uncertainty
293.15	0.05	1499.7	10.1
293.15	0.1	1521.4	10.1
293.15	0.15	1532.4	10.1
293.15	0.2	1543.2	10.1
298.15	0.05	1514.3	10.1
298.15	0.1	1530.6	10.1
298.15	0.15	1542.5	10.1
298.15	0.2	1553.3	10.1
303.15	0.05	1525.1	10.1
303.15	0.1	1540.3	10.1
303.15	0.15	1551.5	10.1
303.15	0.2	1563.1	10.1
308.15	0.05	1535.7	10.1
308.15	0.1	1550.2	10.1
308.15	0.15	1560.5	10.1
308.15	0.2	1573.5	10.1
313.15	0.05	1545.6	10.1
313.15	0.1	1559.9	10.1
313.15	0.15	1569.6	10.1
313.15	0.2	1582.2	10.1
318.15	0.05	1554.5	10.1
318.15	0.1	1568.4	10.1
318.15	0.15	1577.2	10.1
318.15	0.2	1591.2	10.1
293.15	0	1483.6	10.1
298.15	0	1496.9	10.1
303.15	0	1508.4	10.1
308.15	0	1519.8	10.1
313.15	0	1526.8	10.1
318.15	0	1533	10.1

System: D-glucose + water; phases: Liquid
Fixed: Pressure, kPa = 101
Property: Mass density, kg/m3 (Liquid); method: Pycnometric method
Temperature, K	Mass fraction of D-glucose	Mass density, kg/m3	uncertainty
293.15	0.05	1016.28	6.01
293.15	0.1	1034.79	6.01
293.15	0.15	1053.29	6.01
293.15	0.2	1072.41	6.01
298.15	0.05	1014.69	6.01
298.15	0.1	1033.15	6.01
298.15	0.15	1051.61	6.01
298.15	0.2	1070.31	6.01
303.15	0.05	1013.08	6.01
303.15	0.1	1031.5	6.01
303.15	0.15	1049.92	6.01
303.15	0.2	1068.17	6.01
308.15	0.05	1011.47	6.01
308.15	0.1	1029.84	6.01
308.15	0.15	1048.37	6.01
308.15	0.2	1065.97	6.01
313.15	0.05	1009.85	6.01
313.15	0.1	1028.17	6.01
313.15	0.15	1046.62	6.01
313.15	0.2	1063.76	6.01
318.15	0.05	1008.21	6.01
318.15	0.1	1026.48	6.01
318.15	0.15	1044.93	6.02
318.15	0.2	1061.52	6.02
293.15	0	998.24	6.01
298.15	0	997.07	6.01
303.15	0	995.68	6.01
308.15	0	994.07	6.01
313.15	0	992.25	6.01
318.15	0	990.24	6.01
