Measured thermophysical data. Effect of ionic liquids, 1-alkyl-4-methylpyridinium bromides on the volumetric, acoustic and viscometric behaviour of aqueous ceftriaxone sodium solutions
Source: J. Chem. Thermodyn., 2019, 10.1016/j.jct.2019.06.029
Compound 1: disodium ceftriaxone, C18H16N8Na2O7S3, InChI=1S/C18H18N8O7S3.2Na/c1-25-18(22-12(28)13(29)23-25)36-4-6-3-34-15-9(14(30)26(15)10(6)16(31)32)21-11(27)8(24-33-2)7-5-35-17(19)20-7;;/h5,9,15H,3-4H2,1-2H3,(H5,19,20,21,23,27,29,31,32);;/q;2*+1/p-2/b24-8-;;/t9-,15-;;/m1../s1, purity 99%
Compound 2: 1-butyl-4-methylpyridinium bromide, C10H16BrN, InChI=1S/C10H16N.BrH/c1-3-4-7-11-8-5-10(2)6-9-11;/h5-6,8-9H,3-4,7H2,1-2H3;1H/q+1;/p-1
Compound 3: 1-hexyl-4-methylpyridinium bromide, C12H20BrN, InChI=1S/C12H20N.BrH/c1-3-4-5-6-9-13-10-7-12(2)8-11-13;/h7-8,10-11H,3-6,9H2,1-2H3;1H/q+1;/p-1
Compound 4: 1-octyl-4-methylpyridinium bromide, C14H24BrN, InChI=1S/C14H24N.BrH/c1-3-4-5-6-7-8-11-15-12-9-14(2)10-13-15;/h9-10,12-13H,3-8,11H2,1-2H3;1H/q+1;/p-1
Compound 5: water, H2O, InChI=1S/H2O/h1H2

System: disodium ceftriaxone + 1-butyl-4-methylpyridinium bromide + water; phases: Liquid
Fixed: Pressure, kPa = 100
Property: Mass density, kg/m3 (Liquid); method: Vibrating tube method
Temperature, K	Molality, mol/kg of disodium ceftriaxone	Solvent: Mass fraction of 1-butyl-4-methylpyridinium bromide	Mass density, kg/m3	uncertainty
288.15	0	0	999.094	0.703
288.15	0.0194	0	1004.572	0.703
288.15	0.0485	0	1012.63	0.703
288.15	0.0773	0	1020.426	0.701
288.15	0.1392	0	1036.628	0.704
288.15	0.1737	0	1045.352	0.703
288.15	0.2166	0	1055.846	0.703
288.15	0.2658	0	1067.513	0.705
288.15	0.306	0	1076.751	0.707
293.15	0	0	998.203	0.704
293.15	0.0194	0	1003.634	0.702
293.15	0.0485	0	1011.611	0.702
293.15	0.0773	0	1019.34	0.7
293.15	0.1392	0	1035.38	0.703
293.15	0.1737	0	1044.01	0.701
293.15	0.2166	0	1054.367	0.702
293.15	0.2658	0	1065.9	0.703
293.15	0.306	0	1075.008	0.705
298.15	0	0	997.042	0.703
298.15	0.0194	0	1002.424	0.701
298.15	0.0485	0	1010.348	0.701
298.15	0.0773	0	1018.009	0.699
298.15	0.1392	0	1033.925	0.702
298.15	0.1737	0	1042.488	0.7
298.15	0.2166	0	1052.805	0.701
298.15	0.2658	0	1064.287	0.702
298.15	0.306	0	1073.303	0.703
303.15	0	0	995.646	0.702
303.15	0.0194	0	1000.987	0.699
303.15	0.0485	0	1008.857	0.7
303.15	0.0773	0	1016.482	0.698
303.15	0.1392	0	1032.28	0.701
303.15	0.1737	0	1040.802	0.7
303.15	0.2166	0	1051.073	0.7
303.15	0.2658	0	1062.5	0.702
303.15	0.306	0	1071.536	0.702
308.15	0	0	994.023	0.7
308.15	0.0194	0	999.338	0.699
308.15	0.0485	0	1007.156	0.699
308.15	0.0773	0	1014.73	0.697
308.15	0.1392	0	1030.46	0.7
308.15	0.1737	0	1038.931	0.699
308.15	0.2166	0	1049.139	0.699
308.15	0.2658	0	1060.418	0.7
308.15	0.306	0	1069.398	0.702
288.15	0	0.01	1001.158	0.734
288.15	0.0469	0.01	1014.458	0.74
288.15	0.0765	0.01	1022.541	0.741
288.15	0.1072	0.01	1030.71	0.743
288.15	0.1402	0.01	1039.253	0.742
288.15	0.1731	0.01	1047.556	0.74
288.15	0.2182	0.01	1058.566	0.74
288.15	0.2671	0.01	1070.049	0.739
288.15	0.3061	0.01	1078.893	0.739
293.15	0	0.01	1000.23	0.732
293.15	0.0469	0.01	1013.369	0.738
293.15	0.0765	0.01	1021.39	0.739
293.15	0.1072	0.01	1029.44	0.746
293.15	0.1402	0.01	1037.874	0.739
293.15	0.1731	0.01	1046.089	0.737
293.15	0.2182	0.01	1056.981	0.738
293.15	0.2671	0.01	1068.346	0.737
293.15	0.3061	0.01	1077.079	0.737
298.15	0	0.01	999.051	0.73
298.15	0.0469	0.01	1012.09	0.736
298.15	0.0765	0.01	1020.049	0.737
298.15	0.1072	0.01	1028.047	0.743
298.15	0.1402	0.01	1036.426	0.737
298.15	0.1731	0.01	1044.578	0.735
298.15	0.2182	0.01	1055.398	0.735
298.15	0.2671	0.01	1066.697	0.733
298.15	0.3061	0.01	1075.34	0.734
303.15	0	0.01	997.647	0.729
303.15	0.0469	0.01	1010.569	0.734
303.15	0.0765	0.01	1018.465	0.734
303.15	0.1072	0.01	1026.399	0.741
303.15	0.1402	0.01	1034.717	0.734
303.15	0.1731	0.01	1042.824	0.733
303.15	0.2182	0.01	1053.595	0.732
303.15	0.2671	0.01	1064.798	0.73
303.15	0.3061	0.01	1073.421	0.728
308.15	0	0.01	996.019	0.727
308.15	0.0469	0.01	1008.86	0.731
308.15	0.0765	0.01	1016.692	0.732
308.15	0.1072	0.01	1024.595	0.734
308.15	0.1402	0.01	1032.858	0.732
308.15	0.1731	0.01	1040.915	0.729
308.15	0.2182	0.01	1051.595	0.729
308.15	0.2671	0.01	1062.76	0.728
308.15	0.3061	0.01	1071.297	0.727
288.15	0	0.015	1002.261	0.739
288.15	0.047	0.015	1015.596	0.725
288.15	0.1081	0.015	1032.062	0.742
288.15	0.1707	0.015	1048.063	0.742
288.15	0.2167	0.015	1059.344	0.741
288.15	0.267	0.015	1071.137	0.742
288.15	0.3047	0.015	1079.701	0.745
293.15	0	0.015	1001.308	0.738
293.15	0.047	0.015	1014.539	0.728
293.15	0.1081	0.015	1030.868	0.741
293.15	0.1707	0.015	1046.699	0.742
293.15	0.2167	0.015	1057.838	0.742
293.15	0.267	0.015	1069.51	0.746
293.15	0.3047	0.015	1077.929	0.748
298.15	0	0.015	1000.134	0.736
298.15	0.047	0.015	1013.222	0.726
298.15	0.1081	0.015	1029.412	0.738
298.15	0.1707	0.015	1045.124	0.738
298.15	0.2167	0.015	1056.187	0.738
298.15	0.267	0.015	1067.763	0.739
298.15	0.3047	0.015	1076.205	0.74
303.15	0	0.015	998.68	0.733
303.15	0.047	0.015	1011.695	0.723
303.15	0.1081	0.015	1027.775	0.735
303.15	0.1707	0.015	1043.378	0.735
303.15	0.2167	0.015	1054.379	0.733
303.15	0.267	0.015	1065.878	0.734
303.15	0.3047	0.015	1074.17	0.735
308.15	0	0.015	996.958	0.73
308.15	0.047	0.015	1009.883	0.716
308.15	0.1081	0.015	1025.865	0.734
308.15	0.1707	0.015	1041.367	0.733
308.15	0.2167	0.015	1052.292	0.733
308.15	0.267	0.015	1063.73	0.733
308.15	0.3047	0.015	1071.99	0.736
288.15	0	0.02	1003.416	0.74
288.15	0.0764	0.02	1024.823	0.73
288.15	0.1078	0.02	1033.199	0.74
288.15	0.1389	0.02	1041.229	0.747
288.15	0.1722	0.02	1049.641	0.738
288.15	0.218	0.02	1060.838	0.734
288.15	0.2633	0.02	1071.466	0.738
288.15	0.3049	0.02	1080.957	0.748
293.15	0	0.02	1002.472	0.734
293.15	0.0764	0.02	1023.648	0.729
293.15	0.1078	0.02	1031.945	0.735
293.15	0.1389	0.02	1039.919	0.741
293.15	0.1722	0.02	1048.231	0.734
293.15	0.218	0.02	1059.316	0.736
293.15	0.2633	0.02	1069.943	0.74
293.15	0.3049	0.02	1079.3	0.747
298.15	0	0.02	1001.256	0.731
298.15	0.0764	0.02	1022.272	0.727
298.15	0.1078	0.02	1030.502	0.733
298.15	0.1389	0.02	1038.397	0.74
298.15	0.1722	0.02	1046.635	0.732
298.15	0.218	0.02	1057.654	0.731
298.15	0.2633	0.02	1068.097	0.735
298.15	0.3049	0.02	1077.35	0.736
303.15	0	0.02	999.765	0.729
303.15	0.0764	0.02	1020.618	0.724
303.15	0.1078	0.02	1028.791	0.73
303.15	0.1389	0.02	1036.625	0.736
303.15	0.1722	0.02	1044.809	0.727
303.15	0.218	0.02	1055.696	0.726
303.15	0.2633	0.02	1066.111	0.729
303.15	0.3049	0.02	1075.322	0.736
308.15	0	0.02	998.102	0.735
308.15	0.0764	0.02	1018.842	0.725
308.15	0.1078	0.02	1026.965	0.733
308.15	0.1389	0.02	1034.756	0.74
308.15	0.1722	0.02	1042.878	0.731
308.15	0.218	0.02	1053.747	0.728
308.15	0.2633	0.02	1064.059	0.732
308.15	0.3049	0.02	1073.237	0.743

System: disodium ceftriaxone + 1-butyl-4-methylpyridinium bromide + water; phases: Liquid
Fixed: Pressure, kPa = 100
Fixed: Frequency, MHz = 3
Property: Speed of sound, m/s (Liquid); method: Single path-length method
Temperature, K	Molality, mol/kg of disodium ceftriaxone	Solvent: Mass fraction of 1-butyl-4-methylpyridinium bromide	Speed of sound, m/s	uncertainty
288.15	0	0	1466.52	2.29
288.15	0.0194	0	1472.68	2.29
288.15	0.0485	0	1481.4	2.29
288.15	0.0773	0	1489.81	2.28
288.15	0.1392	0	1506.44	2.28
288.15	0.1737	0	1515.22	2.28
288.15	0.2166	0	1525.8	2.28
288.15	0.2658	0	1537.2	2.28
288.15	0.306	0	1545.59	2.28
293.15	0	0	1482.66	2.29
293.15	0.0194	0	1488.46	2.29
293.15	0.0485	0	1496.74	2.28
293.15	0.0773	0	1504.58	2.28
293.15	0.1392	0	1520.35	2.28
293.15	0.1737	0	1528.65	2.28
293.15	0.2166	0	1538.6	2.28
293.15	0.2658	0	1549.49	2.28
293.15	0.306	0	1557.36	2.28
298.15	0	0	1496.96	2.29
298.15	0.0194	0	1502.38	2.28
298.15	0.0485	0	1510.15	2.28
298.15	0.0773	0	1517.5	2.28
298.15	0.1392	0	1532.61	2.28
298.15	0.1737	0	1540.55	2.28
298.15	0.2166	0	1550.06	2.28
298.15	0.2658	0	1560.5	2.28
298.15	0.306	0	1567.82	2.27
303.15	0	0	1509.44	2.29
303.15	0.0194	0	1514.47	2.28
303.15	0.0485	0	1521.74	2.28
303.15	0.0773	0	1528.67	2.28
303.15	0.1392	0	1542.95	2.28
303.15	0.1737	0	1550.46	2.28
303.15	0.2166	0	1559.46	2.28
303.15	0.2658	0	1569.3	2.28
303.15	0.306	0	1576.34	2.27
308.15	0	0	1520.15	2.28
308.15	0.0194	0	1524.85	2.28
308.15	0.0485	0	1531.62	2.28
308.15	0.0773	0	1538.14	2.28
308.15	0.1392	0	1551.72	2.28
308.15	0.1737	0	1558.85	2.28
308.15	0.2166	0	1567.41	2.28
308.15	0.2658	0	1576.79	2.28
308.15	0.306	0	1584.14	2.27
288.15	0	0.01	1472.72	2.37
288.15	0.0469	0.01	1486.45	2.35
288.15	0.0765	0.01	1494.68	2.34
288.15	0.1072	0.01	1502.86	2.35
288.15	0.1402	0.01	1511.33	2.33
288.15	0.1731	0.01	1519.5	2.33
288.15	0.2182	0.01	1530.39	2.32
288.15	0.2671	0.01	1541.64	2.32
288.15	0.3061	0.01	1550.34	2.33
293.15	0	0.01	1488.15	2.35
293.15	0.0469	0.01	1501.2	2.33
293.15	0.0765	0.01	1509	2.33
293.15	0.1072	0.01	1516.76	2.35
293.15	0.1402	0.01	1524.78	2.32
293.15	0.1731	0.01	1532.56	2.32
293.15	0.2182	0.01	1542.89	2.32
293.15	0.2671	0.01	1553.57	2.31
293.15	0.3061	0.01	1561.83	2.32
298.15	0	0.01	1501.89	2.33
298.15	0.0469	0.01	1514.24	2.32
298.15	0.0765	0.01	1521.62	2.32
298.15	0.1072	0.01	1529.05	2.33
298.15	0.1402	0.01	1536.67	2.31
298.15	0.1731	0.01	1544.11	2.31
298.15	0.2182	0.01	1553.99	2.3
298.15	0.2671	0.01	1563.92	2.3
298.15	0.3061	0.01	1571.81	2.31
303.15	0	0.01	1513.66	2.32
303.15	0.0469	0.01	1525.29	2.31
303.15	0.0765	0.01	1532.25	2.31
303.15	0.1072	0.01	1539.47	2.33
303.15	0.1402	0.01	1546.71	2.31
303.15	0.1731	0.01	1553.75	2.3
303.15	0.2182	0.01	1563.05	2.3
303.15	0.2671	0.01	1572.65	2.3
303.15	0.3061	0.01	1580.25	2.3
308.15	0	0.01	1523.89	2.31
308.15	0.0469	0.01	1534.83	2.31
308.15	0.0765	0.01	1541.56	2.3
308.15	0.1072	0.01	1548.21	2.31
308.15	0.1402	0.01	1555.24	2.3
308.15	0.1731	0.01	1561.83	2.3
308.15	0.2182	0.01	1570.64	2.3
308.15	0.2671	0.01	1579.93	2.29
308.15	0.3061	0.01	1587.02	2.3
288.15	0	0.015	1475.5	2.35
288.15	0.047	0.015	1489.17	2.33
288.15	0.1081	0.015	1505.68	2.33
288.15	0.1707	0.015	1521.4	2.33
288.15	0.2167	0.015	1532.6	2.33
288.15	0.267	0.015	1544.22	2.33
288.15	0.3047	0.015	1552.71	2.33
293.15	0	0.015	1490.78	2.34
293.15	0.047	0.015	1503.78	2.32
293.15	0.1081	0.015	1519.49	2.33
293.15	0.1707	0.015	1534.53	2.33
293.15	0.2167	0.015	1545.1	2.32
293.15	0.267	0.015	1556.15	2.32
293.15	0.3047	0.015	1564.17	2.32
298.15	0	0.015	1504.14	2.33
298.15	0.047	0.015	1516.4	2.3
298.15	0.1081	0.015	1531.3	2.32
298.15	0.1707	0.015	1545.72	2.31
298.15	0.2167	0.015	1555.67	2.31
298.15	0.267	0.015	1566.11	2.31
298.15	0.3047	0.015	1573.86	2.31
303.15	0	0.015	1515.71	2.31
303.15	0.047	0.015	1527.27	2.3
303.15	0.1081	0.015	1541.58	2.3
303.15	0.1707	0.015	1555.15	2.31
303.15	0.2167	0.015	1564.64	2.31
303.15	0.267	0.015	1574.6	2.31
303.15	0.3047	0.015	1581.84	2.3
308.15	0	0.015	1525.79	2.31
308.15	0.047	0.015	1536.67	2.3
308.15	0.1081	0.015	1550.21	2.3
308.15	0.1707	0.015	1563.1	2.3
308.15	0.2167	0.015	1572.08	2.3
308.15	0.267	0.015	1581.59	2.3
308.15	0.3047	0.015	1588.61	2.3
288.15	0	0.02	1478	2.34
288.15	0.0764	0.02	1499.57	2.32
288.15	0.1078	0.02	1507.83	2.32
288.15	0.1389	0.02	1515.86	2.33
288.15	0.1722	0.02	1524.11	2.32
288.15	0.218	0.02	1535.05	2.32
288.15	0.2633	0.02	1545.5	2.32
288.15	0.3049	0.02	1554.89	2.32
293.15	0	0.02	1493.27	2.31
293.15	0.0764	0.02	1513.71	2.31
293.15	0.1078	0.02	1521.6	2.31
293.15	0.1389	0.02	1529.08	2.31
293.15	0.1722	0.02	1536.93	2.3
293.15	0.218	0.02	1547.39	2.3
293.15	0.2633	0.02	1557.33	2.3
293.15	0.3049	0.02	1566.2	2.29
298.15	0	0.02	1506.52	2.3
298.15	0.0764	0.02	1525.75	2.3
298.15	0.1078	0.02	1533.28	2.3
298.15	0.1389	0.02	1540.47	2.31
298.15	0.1722	0.02	1547.95	2.3
298.15	0.218	0.02	1557.88	2.3
298.15	0.2633	0.02	1567.3	2.3
298.15	0.3049	0.02	1575.8	2.29
303.15	0	0.02	1517.03	2.3
303.15	0.0764	0.02	1535.75	2.29
303.15	0.1078	0.02	1543	2.29
303.15	0.1389	0.02	1550.13	2.29
303.15	0.1722	0.02	1557.41	2.3
303.15	0.218	0.02	1566.8	2.3
303.15	0.2633	0.02	1575.68	2.29
303.15	0.3049	0.02	1583.6	2.29
308.15	0	0.02	1527.71	2.31
308.15	0.0764	0.02	1544.9	2.3
308.15	0.1078	0.02	1551.75	2.3
308.15	0.1389	0.02	1558.26	2.3
308.15	0.1722	0.02	1564.98	2.3
308.15	0.218	0.02	1574	2.3
308.15	0.2633	0.02	1582.58	2.3
308.15	0.3049	0.02	1590.29	2.3

System: disodium ceftriaxone + 1-butyl-4-methylpyridinium bromide + water; phases: Liquid
Fixed: Pressure, kPa = 100
Property: Viscosity, Pa*s (Liquid); method: Falling or rolling sphere viscometry
Temperature, K	Molality, mol/kg of disodium ceftriaxone	Solvent: Mass fraction of 1-butyl-4-methylpyridinium bromide	Viscosity, Pa*s	uncertainty
288.15	0	0	0.001136	4.7e-05
288.15	0.0194	0	0.001196	4.9e-05
288.15	0.0485	0	0.001273	5.2e-05
288.15	0.0773	0	0.001365	5.6e-05
288.15	0.1392	0	0.001604	6.6e-05
288.15	0.1737	0	0.001745	7.2e-05
288.15	0.2166	0	0.001964	8.1e-05
288.15	0.2658	0	0.002205	9.1e-05
288.15	0.306	0	0.002447	0.0001
293.15	0	0	0.001001	4.1e-05
293.15	0.0194	0	0.001053	4.3e-05
293.15	0.0485	0	0.00112	4.6e-05
293.15	0.0773	0	0.0012	4.9e-05
293.15	0.1392	0	0.001399	5.7e-05
293.15	0.1737	0	0.001527	6.3e-05
293.15	0.2166	0	0.001701	7e-05
293.15	0.2658	0	0.001918	7.9e-05
293.15	0.306	0	0.002122	8.7e-05
298.15	0	0	0.00089	3.7e-05
298.15	0.0194	0	0.000935	3.8e-05
298.15	0.0485	0	0.000994	4.1e-05
298.15	0.0773	0	0.001062	4.4e-05
298.15	0.1392	0	0.001231	5.1e-05
298.15	0.1737	0	0.001348	5.5e-05
298.15	0.2166	0	0.001495	6.1e-05
298.15	0.2658	0	0.001674	6.9e-05
298.15	0.306	0	0.001858	7.6e-05
303.15	0	0	0.000797	3.3e-05
303.15	0.0194	0	0.000829	3.4e-05
303.15	0.0485	0	0.000885	3.6e-05
303.15	0.0773	0	0.000945	3.9e-05
303.15	0.1392	0	0.0011	4.5e-05
303.15	0.1737	0	0.001195	4.9e-05
303.15	0.2166	0	0.001323	5.4e-05
303.15	0.2658	0	0.00148	6.1e-05
303.15	0.306	0	0.001638	6.7e-05
308.15	0	0	0.000718	2.9e-05
308.15	0.0194	0	0.000744	3.1e-05
308.15	0.0485	0	0.000794	3.3e-05
308.15	0.0773	0	0.000849	3.5e-05
308.15	0.1392	0	0.000982	4e-05
308.15	0.1737	0	0.00107	4.4e-05
308.15	0.2166	0	0.001184	4.9e-05
308.15	0.2658	0	0.001322	5.4e-05
308.15	0.306	0	0.001455	6e-05
288.15	0	0.01	0.001165	4.8e-05
288.15	0.0469	0.01	0.001293	5.3e-05
288.15	0.0765	0.01	0.00139	5.7e-05
288.15	0.1072	0.01	0.001504	6.2e-05
288.15	0.1402	0.01	0.001632	6.7e-05
288.15	0.1731	0.01	0.001767	7.3e-05
288.15	0.2182	0.01	0.001993	8.2e-05
288.15	0.2671	0.01	0.002266	9.3e-05
288.15	0.3061	0.01	0.002518	0.000104
293.15	0	0.01	0.001024	4.2e-05
293.15	0.0469	0.01	0.001134	4.7e-05
293.15	0.0765	0.01	0.001219	5e-05
293.15	0.1072	0.01	0.00131	5.4e-05
293.15	0.1402	0.01	0.001427	5.9e-05
293.15	0.1731	0.01	0.001543	6.3e-05
293.15	0.2182	0.01	0.001729	7.1e-05
293.15	0.2671	0.01	0.001959	8.1e-05
293.15	0.3061	0.01	0.002173	9e-05
298.15	0	0.01	0.000907	3.7e-05
298.15	0.0469	0.01	0.000998	4.1e-05
298.15	0.0765	0.01	0.001077	4.4e-05
298.15	0.1072	0.01	0.001157	4.8e-05
298.15	0.1402	0.01	0.001256	5.2e-05
298.15	0.1731	0.01	0.001364	5.6e-05
298.15	0.2182	0.01	0.001519	6.2e-05
298.15	0.2671	0.01	0.001718	7.1e-05
298.15	0.3061	0.01	0.001904	7.8e-05
303.15	0	0.01	0.000813	3.3e-05
303.15	0.0469	0.01	0.000892	3.7e-05
303.15	0.0765	0.01	0.000965	4e-05
303.15	0.1072	0.01	0.001035	4.3e-05
303.15	0.1402	0.01	0.00112	4.6e-05
303.15	0.1731	0.01	0.001213	5e-05
303.15	0.2182	0.01	0.001351	5.6e-05
303.15	0.2671	0.01	0.001524	6.3e-05
303.15	0.3061	0.01	0.00168	6.9e-05
308.15	0	0.01	0.000734	3e-05
308.15	0.0469	0.01	0.000805	3.3e-05
308.15	0.0765	0.01	0.000863	3.5e-05
308.15	0.1072	0.01	0.000931	3.8e-05
308.15	0.1402	0.01	0.001007	4.1e-05
308.15	0.1731	0.01	0.001086	4.5e-05
308.15	0.2182	0.01	0.001208	5e-05
308.15	0.2671	0.01	0.00135	5.6e-05
308.15	0.3061	0.01	0.001492	6.1e-05
288.15	0	0.015	0.001176	4.8e-05
288.15	0.047	0.015	0.001321	5.5e-05
288.15	0.1081	0.015	0.001511	6.2e-05
288.15	0.1707	0.015	0.001806	7.4e-05
288.15	0.2167	0.015	0.002024	8.4e-05
288.15	0.267	0.015	0.00232	9.6e-05
288.15	0.3047	0.015	0.002556	0.000106
293.15	0	0.015	0.001037	4.3e-05
293.15	0.047	0.015	0.001176	4.9e-05
293.15	0.1081	0.015	0.001342	5.5e-05
293.15	0.1707	0.015	0.001567	6.5e-05
293.15	0.2167	0.015	0.001764	7.3e-05
293.15	0.267	0.015	0.00201	8.3e-05
293.15	0.3047	0.015	0.002232	9.2e-05
298.15	0	0.015	0.000919	3.8e-05
298.15	0.047	0.015	0.001024	4.3e-05
298.15	0.1081	0.015	0.001183	4.9e-05
298.15	0.1707	0.015	0.001379	5.7e-05
298.15	0.2167	0.015	0.001544	6.4e-05
298.15	0.267	0.015	0.001757	7.3e-05
298.15	0.3047	0.015	0.001937	8e-05
303.15	0	0.015	0.000824	3.4e-05
303.15	0.047	0.015	0.000918	3.8e-05
303.15	0.1081	0.015	0.001055	4.3e-05
303.15	0.1707	0.015	0.001224	5e-05
303.15	0.2167	0.015	0.001369	5.6e-05
303.15	0.267	0.015	0.001552	6.4e-05
303.15	0.3047	0.015	0.001706	7e-05
308.15	0	0.015	0.000745	3.1e-05
308.15	0.047	0.015	0.000827	3.4e-05
308.15	0.1081	0.015	0.000948	3.9e-05
308.15	0.1707	0.015	0.001096	4.5e-05
308.15	0.2167	0.015	0.001222	5e-05
308.15	0.267	0.015	0.00138	5.7e-05
308.15	0.3047	0.015	0.001514	6.2e-05
288.15	0	0.02	0.001195	4.9e-05
288.15	0.0764	0.02	0.001423	5.9e-05
288.15	0.1078	0.02	0.001545	6.4e-05
288.15	0.1389	0.02	0.001673	6.9e-05
288.15	0.1722	0.02	0.001823	7.5e-05
288.15	0.218	0.02	0.002106	8.7e-05
288.15	0.2633	0.02	0.002346	9.7e-05
288.15	0.3049	0.02	0.002628	0.000109
293.15	0	0.02	0.001044	4.3e-05
293.15	0.0764	0.02	0.001241	5.1e-05
293.15	0.1078	0.02	0.001355	5.6e-05
293.15	0.1389	0.02	0.001464	6e-05
293.15	0.1722	0.02	0.001589	6.6e-05
293.15	0.218	0.02	0.001787	7.4e-05
293.15	0.2633	0.02	0.002022	8.4e-05
293.15	0.3049	0.02	0.002267	9.4e-05
298.15	0	0.02	0.000926	3.8e-05
298.15	0.0764	0.02	0.001103	4.5e-05
298.15	0.1078	0.02	0.001192	4.9e-05
298.15	0.1389	0.02	0.001295	5.3e-05
298.15	0.1722	0.02	0.001399	5.8e-05
298.15	0.218	0.02	0.001577	6.5e-05
298.15	0.2633	0.02	0.001772	7.3e-05
298.15	0.3049	0.02	0.001983	8.2e-05
303.15	0	0.02	0.000833	3.4e-05
303.15	0.0764	0.02	0.000989	4.1e-05
303.15	0.1078	0.02	0.001065	4.4e-05
303.15	0.1389	0.02	0.001152	4.7e-05
303.15	0.1722	0.02	0.001244	5.1e-05
303.15	0.218	0.02	0.001395	5.8e-05
303.15	0.2633	0.02	0.001562	6.5e-05
303.15	0.3049	0.02	0.001738	7.2e-05
308.15	0	0.02	0.00075	3.1e-05
308.15	0.0764	0.02	0.000884	3.6e-05
308.15	0.1078	0.02	0.000954	3.9e-05
308.15	0.1389	0.02	0.001031	4.2e-05
308.15	0.1722	0.02	0.001113	4.6e-05
308.15	0.218	0.02	0.001245	5.1e-05
308.15	0.2633	0.02	0.001389	5.7e-05
308.15	0.3049	0.02	0.001544	6.4e-05

System: disodium ceftriaxone + 1-hexyl-4-methylpyridinium bromide + water; phases: Liquid
Fixed: Pressure, kPa = 100
Property: Mass density, kg/m3 (Liquid); method: Vibrating tube method
Temperature, K	Molality, mol/kg of disodium ceftriaxone	Solvent: Mass fraction of 1-hexyl-4-methylpyridinium bromide	Mass density, kg/m3	uncertainty
288.15	0	0	999.094	0.703
288.15	0.0194	0	1004.572	0.703
288.15	0.0485	0	1012.63	0.703
288.15	0.0773	0	1020.426	0.701
288.15	0.1392	0	1036.628	0.704
288.15	0.1737	0	1045.352	0.703
288.15	0.2166	0	1055.846	0.703
288.15	0.2658	0	1067.513	0.705
288.15	0.306	0	1076.751	0.707
293.15	0	0	998.203	0.704
293.15	0.0194	0	1003.634	0.702
293.15	0.0485	0	1011.611	0.702
293.15	0.0773	0	1019.34	0.7
293.15	0.1392	0	1035.38	0.703
293.15	0.1737	0	1044.01	0.701
293.15	0.2166	0	1054.367	0.702
293.15	0.2658	0	1065.9	0.703
293.15	0.306	0	1075.008	0.705
298.15	0	0	997.042	0.703
298.15	0.0194	0	1002.424	0.701
298.15	0.0485	0	1010.348	0.701
298.15	0.0773	0	1018.009	0.699
298.15	0.1392	0	1033.925	0.702
298.15	0.1737	0	1042.488	0.7
298.15	0.2166	0	1052.805	0.701
298.15	0.2658	0	1064.287	0.702
298.15	0.306	0	1073.303	0.703
303.15	0	0	995.646	0.702
303.15	0.0194	0	1000.987	0.699
303.15	0.0485	0	1008.857	0.7
303.15	0.0773	0	1016.482	0.698
303.15	0.1392	0	1032.28	0.701
303.15	0.1737	0	1040.802	0.7
303.15	0.2166	0	1051.073	0.7
303.15	0.2658	0	1062.5	0.702
303.15	0.306	0	1071.536	0.702
308.15	0	0	994.023	0.7
308.15	0.0194	0	999.338	0.699
308.15	0.0485	0	1007.156	0.699
308.15	0.0773	0	1014.73	0.697
308.15	0.1392	0	1030.46	0.7
308.15	0.1737	0	1038.931	0.699
308.15	0.2166	0	1049.139	0.699
308.15	0.2658	0	1060.418	0.7
308.15	0.306	0	1069.398	0.702
288.15	0	0.01	1000.905	0.727
288.15	0.0187	0.01	1006.245	0.728
288.15	0.0476	0.01	1014.342	0.73
288.15	0.077	0.01	1022.36	0.73
288.15	0.1083	0.01	1030.666	0.73
288.15	0.1389	0.01	1038.601	0.728
288.15	0.172	0.01	1046.922	0.729
288.15	0.2192	0.01	1058.454	0.727
288.15	0.2671	0.01	1069.69	0.728
288.15	0.306	0.01	1078.49	0.728
293.15	0	0.01	999.956	0.725
293.15	0.0187	0.01	1005.234	0.724
293.15	0.0476	0.01	1013.241	0.727
293.15	0.077	0.01	1021.175	0.727
293.15	0.1083	0.01	1029.39	0.733
293.15	0.1389	0.01	1037.205	0.728
293.15	0.172	0.01	1045.463	0.726
293.15	0.2192	0.01	1056.868	0.728
293.15	0.2671	0.01	1068.006	0.726
293.15	0.306	0.01	1076.671	0.725
298.15	0	0.01	998.796	0.724
298.15	0.0187	0.01	1004.026	0.723
298.15	0.0476	0.01	1011.97	0.725
298.15	0.077	0.01	1019.832	0.726
298.15	0.1083	0.01	1027.984	0.73
298.15	0.1389	0.01	1035.78	0.724
298.15	0.172	0.01	1043.977	0.724
298.15	0.2192	0.01	1055.291	0.724
298.15	0.2671	0.01	1066.342	0.723
298.15	0.306	0.01	1074.96	0.723
303.15	0	0.01	997.389	0.723
303.15	0.0187	0.01	1002.58	0.721
303.15	0.0476	0.01	1010.473	0.723
303.15	0.077	0.01	1018.272	0.724
303.15	0.1083	0.01	1026.375	0.728
303.15	0.1389	0.01	1034.099	0.722
303.15	0.172	0.01	1042.247	0.722
303.15	0.2192	0.01	1053.48	0.721
303.15	0.2671	0.01	1064.465	0.72
303.15	0.306	0.01	1073.018	0.718
308.15	0	0.01	995.718	0.721
308.15	0.0187	0.01	1000.872	0.719
308.15	0.0476	0.01	1008.704	0.722
308.15	0.077	0.01	1016.462	0.722
308.15	0.1083	0.01	1024.499	0.727
308.15	0.1389	0.01	1032.185	0.72
308.15	0.172	0.01	1040.295	0.72
308.15	0.2192	0.01	1051.461	0.719
308.15	0.2671	0.01	1062.4	0.719
308.15	0.306	0.01	1070.889	0.718
288.15	0	0.015	1001.786	0.723
288.15	0.0474	0.015	1015.201	0.726
288.15	0.0772	0.015	1023.331	0.724
288.15	0.108	0.015	1031.503	0.722
288.15	0.1726	0.015	1047.995	0.723
288.15	0.2678	0.015	1070.732	0.727
288.15	0.3064	0.015	1079.5	0.728
293.15	0	0.015	1000.817	0.727
293.15	0.0474	0.015	1014.13	0.731
293.15	0.0772	0.015	1022.191	0.729
293.15	0.108	0.015	1030.296	0.727
293.15	0.1726	0.015	1046.602	0.728
293.15	0.2678	0.015	1069.07	0.732
293.15	0.3064	0.015	1077.693	0.73
298.15	0	0.015	999.636	0.72
298.15	0.0474	0.015	1012.82	0.723
298.15	0.0772	0.015	1020.805	0.722
298.15	0.108	0.015	1028.849	0.721
298.15	0.1726	0.015	1045.024	0.72
298.15	0.2678	0.015	1067.39	0.725
298.15	0.3064	0.015	1075.938	0.724
303.15	0	0.015	998.196	0.718
303.15	0.0474	0.015	1011.289	0.721
303.15	0.0772	0.015	1019.235	0.719
303.15	0.108	0.015	1027.207	0.718
303.15	0.1726	0.015	1043.275	0.718
303.15	0.2678	0.015	1065.471	0.721
303.15	0.3064	0.015	1073.937	0.72
308.15	0	0.015	996.546	0.717
308.15	0.0474	0.015	1009.55	0.72
308.15	0.0772	0.015	1017.444	0.718
308.15	0.108	0.015	1025.359	0.717
308.15	0.1726	0.015	1041.337	0.716
308.15	0.2678	0.015	1063.397	0.72
308.15	0.3064	0.015	1071.819	0.719
288.15	0	0.02	1002.564	0.721
288.15	0.0474	0.02	1015.991	0.719
288.15	0.0764	0.02	1023.895	0.719
288.15	0.1067	0.02	1031.952	0.719
288.15	0.1397	0.02	1040.503	0.723
288.15	0.1727	0.02	1048.815	0.717
288.15	0.2175	0.02	1059.734	0.721
288.15	0.2663	0.02	1071.198	0.72
288.15	0.3056	0.02	1080.17	0.728
293.15	0	0.02	1001.802	0.721
293.15	0.0474	0.02	1015.118	0.722
293.15	0.0764	0.02	1022.939	0.721
293.15	0.1067	0.02	1030.917	0.721
293.15	0.1397	0.02	1039.383	0.726
293.15	0.1727	0.02	1047.591	0.721
293.15	0.2175	0.02	1058.417	0.725
293.15	0.2663	0.02	1069.763	0.724
293.15	0.3056	0.02	1078.49	0.727
298.15	0	0.02	1000.384	0.717
298.15	0.0474	0.02	1013.589	0.717
298.15	0.0764	0.02	1021.36	0.717
298.15	0.1067	0.02	1029.297	0.716
298.15	0.1397	0.02	1037.698	0.721
298.15	0.1727	0.02	1045.844	0.716
298.15	0.2175	0.02	1056.594	0.72
298.15	0.2663	0.02	1067.888	0.718
298.15	0.3056	0.02	1076.59	0.72
303.15	0	0.02	998.926	0.714
303.15	0.0474	0.02	1012.038	0.714
303.15	0.0764	0.02	1019.746	0.712
303.15	0.1067	0.02	1027.606	0.713
303.15	0.1397	0.02	1035.948	0.717
303.15	0.1727	0.02	1044.049	0.712
303.15	0.2175	0.02	1054.673	0.717
303.15	0.2663	0.02	1065.887	0.714
303.15	0.3056	0.02	1074.509	0.718
308.15	0	0.02	997.238	0.714
308.15	0.0474	0.02	1010.267	0.712
308.15	0.0764	0.02	1017.94	0.711
308.15	0.1067	0.02	1025.753	0.711
308.15	0.1397	0.02	1034.04	0.715
308.15	0.1727	0.02	1042.077	0.71
308.15	0.2175	0.02	1052.697	0.715
308.15	0.2663	0.02	1063.813	0.711
308.15	0.3056	0.02	1072.405	0.718

System: disodium ceftriaxone + 1-hexyl-4-methylpyridinium bromide + water; phases: Liquid
Fixed: Pressure, kPa = 100
Fixed: Frequency, MHz = 3
Property: Speed of sound, m/s (Liquid); method: Single path-length method
Temperature, K	Molality, mol/kg of disodium ceftriaxone	Solvent: Mass fraction of 1-hexyl-4-methylpyridinium bromide	Speed of sound, m/s	uncertainty
288.15	0	0	1466.52	2.29
288.15	0.0194	0	1472.68	2.29
288.15	0.0485	0	1481.4	2.29
288.15	0.0773	0	1489.81	2.28
288.15	0.1392	0	1506.44	2.28
288.15	0.1737	0	1515.22	2.28
288.15	0.2166	0	1525.8	2.28
288.15	0.2658	0	1537.2	2.28
288.15	0.306	0	1545.59	2.28
293.15	0	0	1482.66	2.29
293.15	0.0194	0	1488.46	2.29
293.15	0.0485	0	1496.74	2.28
293.15	0.0773	0	1504.58	2.28
293.15	0.1392	0	1520.35	2.28
293.15	0.1737	0	1528.65	2.28
293.15	0.2166	0	1538.6	2.28
293.15	0.2658	0	1549.49	2.28
293.15	0.306	0	1557.36	2.28
298.15	0	0	1496.96	2.29
298.15	0.0194	0	1502.38	2.28
298.15	0.0485	0	1510.15	2.28
298.15	0.0773	0	1517.5	2.28
298.15	0.1392	0	1532.61	2.28
298.15	0.1737	0	1540.55	2.28
298.15	0.2166	0	1550.06	2.28
298.15	0.2658	0	1560.5	2.28
298.15	0.306	0	1567.82	2.27
303.15	0	0	1509.44	2.29
303.15	0.0194	0	1514.47	2.28
303.15	0.0485	0	1521.74	2.28
303.15	0.0773	0	1528.67	2.28
303.15	0.1392	0	1542.95	2.28
303.15	0.1737	0	1550.46	2.28
303.15	0.2166	0	1559.46	2.28
303.15	0.2658	0	1569.3	2.28
303.15	0.306	0	1576.34	2.27
308.15	0	0	1520.15	2.28
308.15	0.0194	0	1524.85	2.28
308.15	0.0485	0	1531.62	2.28
308.15	0.0773	0	1538.14	2.28
308.15	0.1392	0	1551.72	2.28
308.15	0.1737	0	1558.85	2.28
308.15	0.2166	0	1567.41	2.28
308.15	0.2658	0	1576.79	2.28
308.15	0.306	0	1584.14	2.27
288.15	0	0.01	1473.12	2.38
288.15	0.0187	0.01	1478.8	2.37
288.15	0.0476	0.01	1487.2	2.36
288.15	0.077	0.01	1495.36	2.35
288.15	0.1083	0.01	1503.78	2.35
288.15	0.1389	0.01	1511.73	2.34
288.15	0.172	0.01	1519.91	2.33
288.15	0.2192	0.01	1531.23	2.33
288.15	0.2671	0.01	1542.37	2.33
288.15	0.306	0.01	1551.14	2.33
293.15	0	0.01	1488.65	2.36
293.15	0.0187	0.01	1494.04	2.35
293.15	0.0476	0.01	1501.98	2.35
293.15	0.077	0.01	1509.76	2.34
293.15	0.1083	0.01	1517.72	2.35
293.15	0.1389	0.01	1525.22	2.32
293.15	0.172	0.01	1532.97	2.32
293.15	0.2192	0.01	1543.91	2.31
293.15	0.2671	0.01	1554.35	2.32
293.15	0.306	0.01	1562.52	2.32
298.15	0	0.01	1502.25	2.34
298.15	0.0187	0.01	1507.34	2.34
298.15	0.0476	0.01	1514.9	2.33
298.15	0.077	0.01	1522.26	2.33
298.15	0.1083	0.01	1529.83	2.33
298.15	0.1389	0.01	1537.02	2.32
298.15	0.172	0.01	1544.41	2.32
298.15	0.2192	0.01	1554.69	2.31
298.15	0.2671	0.01	1564.7	2.31
298.15	0.306	0.01	1572.52	2.32
303.15	0	0.01	1514.05	2.33
303.15	0.0187	0.01	1518.81	2.32
303.15	0.0476	0.01	1526	2.32
303.15	0.077	0.01	1532.96	2.32
303.15	0.1083	0.01	1540.3	2.33
303.15	0.1389	0.01	1547.2	2.31
303.15	0.172	0.01	1554.09	2.31
303.15	0.2192	0.01	1563.88	2.3
303.15	0.2671	0.01	1573.36	2.3
303.15	0.306	0.01	1580.7	2.31
308.15	0	0.01	1524	2.31
308.15	0.0187	0.01	1528.47	2.31
308.15	0.0476	0.01	1535.2	2.31
308.15	0.077	0.01	1541.94	2.31
308.15	0.1083	0.01	1548.8	2.31
308.15	0.1389	0.01	1555.26	2.3
308.15	0.172	0.01	1562	2.3
308.15	0.2192	0.01	1571.14	2.3
308.15	0.2671	0.01	1580.29	2.3
308.15	0.306	0.01	1587.28	2.3
288.15	0	0.015	1476.52	2.38
288.15	0.0474	0.015	1490.06	2.36
288.15	0.0772	0.015	1498.25	2.35
288.15	0.108	0.015	1506.42	2.34
288.15	0.1726	0.015	1522.45	2.33
288.15	0.2678	0.015	1544.83	2.32
288.15	0.3064	0.015	1553.2	2.32
293.15	0	0.015	1491.57	2.34
293.15	0.0474	0.015	1504.59	2.33
293.15	0.0772	0.015	1512.3	2.32
293.15	0.108	0.015	1520.08	2.31
293.15	0.1726	0.015	1535.31	2.31
293.15	0.2678	0.015	1556.5	2.3
293.15	0.3064	0.015	1564.51	2.3
298.15	0	0.015	1504.9	2.34
298.15	0.0474	0.015	1517.18	2.33
298.15	0.0772	0.015	1524.56	2.32
298.15	0.108	0.015	1531.88	2.32
298.15	0.1726	0.015	1546.72	2.31
298.15	0.2678	0.015	1566.64	2.31
298.15	0.3064	0.015	1574.42	2.3
303.15	0	0.015	1516.4	2.33
303.15	0.0474	0.015	1528	2.32
303.15	0.0772	0.015	1535	2.32
303.15	0.108	0.015	1542.09	2.31
303.15	0.1726	0.015	1555.95	2.3
303.15	0.2678	0.015	1575.02	2.3
303.15	0.3064	0.015	1582.4	2.3
308.15	0	0.015	1526.23	2.33
308.15	0.0474	0.015	1537.13	2.31
308.15	0.0772	0.015	1543.82	2.31
308.15	0.108	0.015	1550.53	2.3
308.15	0.1726	0.015	1563.67	2.3
308.15	0.2678	0.015	1582.01	2.3
308.15	0.3064	0.015	1589.04	2.29
288.15	0	0.02	1479.63	2.37
288.15	0.0474	0.02	1492.88	2.35
288.15	0.0764	0.02	1500.62	2.34
288.15	0.1067	0.02	1508.5	2.33
288.15	0.1397	0.02	1516.85	2.33
288.15	0.1727	0.02	1524.89	2.33
288.15	0.2175	0.02	1535.54	2.33
288.15	0.2663	0.02	1546.76	2.31
288.15	0.3056	0.02	1555.19	2.32
293.15	0	0.02	1493.8	2.32
293.15	0.0474	0.02	1506.32	2.31
293.15	0.0764	0.02	1513.72	2.3
293.15	0.1067	0.02	1521.17	2.3
293.15	0.1397	0.02	1529.04	2.3
293.15	0.1727	0.02	1536.77	2.3
293.15	0.2175	0.02	1546.87	2.3
293.15	0.2663	0.02	1557.51	2.29
293.15	0.3056	0.02	1565.49	2.29
298.15	0	0.02	1507.55	2.31
298.15	0.0474	0.02	1519.54	2.31
298.15	0.0764	0.02	1526.52	2.3
298.15	0.1067	0.02	1533.72	2.3
298.15	0.1397	0.02	1541.29	2.3
298.15	0.1727	0.02	1548.57	2.29
298.15	0.2175	0.02	1558.14	2.3
298.15	0.2663	0.02	1568.19	2.29
298.15	0.3056	0.02	1575.79	2.28
303.15	0	0.02	1518.9	2.31
303.15	0.0474	0.02	1530.21	2.31
303.15	0.0764	0.02	1536.93	2.31
303.15	0.1067	0.02	1543.72	2.3
303.15	0.1397	0.02	1550.76	2.3
303.15	0.1727	0.02	1557.73	2.29
303.15	0.2175	0.02	1566.82	2.3
303.15	0.2663	0.02	1576.48	2.29
303.15	0.3056	0.02	1583.68	2.28
308.15	0	0.02	1528.64	2.33
308.15	0.0474	0.02	1539.21	2.32
308.15	0.0764	0.02	1545.78	2.31
308.15	0.1067	0.02	1551.96	2.3
308.15	0.1397	0.02	1558.75	2.3
308.15	0.1727	0.02	1565.38	2.3
308.15	0.2175	0.02	1574.03	2.3
308.15	0.2663	0.02	1583.29	2.29
308.15	0.3056	0.02	1590.12	2.29

System: disodium ceftriaxone + 1-hexyl-4-methylpyridinium bromide + water; phases: Liquid
Fixed: Pressure, kPa = 100
Property: Viscosity, Pa*s (Liquid); method: Falling or rolling sphere viscometry
Temperature, K	Molality, mol/kg of disodium ceftriaxone	Solvent: Mass fraction of 1-hexyl-4-methylpyridinium bromide	Viscosity, Pa*s	uncertainty
288.15	0	0	0.001136	4.7e-05
288.15	0.0194	0	0.001196	4.9e-05
288.15	0.0485	0	0.001273	5.2e-05
288.15	0.0773	0	0.001365	5.6e-05
288.15	0.1392	0	0.001604	6.6e-05
288.15	0.1737	0	0.001745	7.2e-05
288.15	0.2166	0	0.001964	8.1e-05
288.15	0.2658	0	0.002205	9.1e-05
288.15	0.306	0	0.002447	0.0001
293.15	0	0	0.001001	4.1e-05
293.15	0.0194	0	0.001053	4.3e-05
293.15	0.0485	0	0.00112	4.6e-05
293.15	0.0773	0	0.0012	4.9e-05
293.15	0.1392	0	0.001399	5.7e-05
293.15	0.1737	0	0.001527	6.3e-05
293.15	0.2166	0	0.001701	7e-05
293.15	0.2658	0	0.001918	7.9e-05
293.15	0.306	0	0.002122	8.7e-05
298.15	0	0	0.00089	3.7e-05
298.15	0.0194	0	0.000935	3.8e-05
298.15	0.0485	0	0.000994	4.1e-05
298.15	0.0773	0	0.001062	4.4e-05
298.15	0.1392	0	0.001231	5.1e-05
298.15	0.1737	0	0.001348	5.5e-05
298.15	0.2166	0	0.001495	6.1e-05
298.15	0.2658	0	0.001674	6.9e-05
298.15	0.306	0	0.001858	7.6e-05
303.15	0	0	0.000797	3.3e-05
303.15	0.0194	0	0.000829	3.4e-05
303.15	0.0485	0	0.000885	3.6e-05
303.15	0.0773	0	0.000945	3.9e-05
303.15	0.1392	0	0.0011	4.5e-05
303.15	0.1737	0	0.001195	4.9e-05
303.15	0.2166	0	0.001323	5.4e-05
303.15	0.2658	0	0.00148	6.1e-05
303.15	0.306	0	0.001638	6.7e-05
308.15	0	0	0.000718	2.9e-05
308.15	0.0194	0	0.000744	3.1e-05
308.15	0.0485	0	0.000794	3.3e-05
308.15	0.0773	0	0.000849	3.5e-05
308.15	0.1392	0	0.000982	4e-05
308.15	0.1737	0	0.00107	4.4e-05
308.15	0.2166	0	0.001184	4.9e-05
308.15	0.2658	0	0.001322	5.4e-05
308.15	0.306	0	0.001455	6e-05
288.15	0	0.01	0.001172	4.8e-05
288.15	0.0187	0.01	0.001221	5e-05
288.15	0.0476	0.01	0.001316	5.4e-05
288.15	0.077	0.01	0.001412	5.8e-05
288.15	0.1083	0.01	0.001521	6.2e-05
288.15	0.1389	0.01	0.001641	6.8e-05
288.15	0.172	0.01	0.001784	7.3e-05
288.15	0.2192	0.01	0.002011	8.3e-05
288.15	0.2671	0.01	0.002288	9.4e-05
288.15	0.306	0.01	0.00255	0.000105
293.15	0	0.01	0.001028	4.2e-05
293.15	0.0187	0.01	0.001065	4.4e-05
293.15	0.0476	0.01	0.001152	4.7e-05
293.15	0.077	0.01	0.001233	5.1e-05
293.15	0.1083	0.01	0.001329	5.5e-05
293.15	0.1389	0.01	0.001432	5.9e-05
293.15	0.172	0.01	0.001555	6.4e-05
293.15	0.2192	0.01	0.001751	7.2e-05
293.15	0.2671	0.01	0.001987	8.2e-05
293.15	0.306	0.01	0.002197	9.1e-05
298.15	0	0.01	0.000913	3.8e-05
298.15	0.0187	0.01	0.000947	3.9e-05
298.15	0.0476	0.01	0.001019	4.2e-05
298.15	0.077	0.01	0.001092	4.5e-05
298.15	0.1083	0.01	0.001178	4.8e-05
298.15	0.1389	0.01	0.001264	5.2e-05
298.15	0.172	0.01	0.001369	5.6e-05
298.15	0.2192	0.01	0.001539	6.3e-05
298.15	0.2671	0.01	0.001737	7.2e-05
298.15	0.306	0.01	0.001919	7.9e-05
303.15	0	0.01	0.000817	3.4e-05
303.15	0.0187	0.01	0.000847	3.5e-05
303.15	0.0476	0.01	0.000911	3.7e-05
303.15	0.077	0.01	0.000974	4e-05
303.15	0.1083	0.01	0.001047	4.3e-05
303.15	0.1389	0.01	0.001125	4.6e-05
303.15	0.172	0.01	0.001216	5e-05
303.15	0.2192	0.01	0.001363	5.6e-05
303.15	0.2671	0.01	0.001534	6.3e-05
303.15	0.306	0.01	0.00169	7e-05
308.15	0	0.01	0.000738	3e-05
308.15	0.0187	0.01	0.000764	3.1e-05
308.15	0.0476	0.01	0.000818	3.4e-05
308.15	0.077	0.01	0.000875	3.6e-05
308.15	0.1083	0.01	0.000938	3.9e-05
308.15	0.1389	0.01	0.00101	4.2e-05
308.15	0.172	0.01	0.001088	4.5e-05
308.15	0.2192	0.01	0.001216	5e-05
308.15	0.2671	0.01	0.001365	5.6e-05
308.15	0.306	0.01	0.001499	6.2e-05
288.15	0	0.015	0.001183	4.9e-05
288.15	0.0474	0.015	0.001322	5.4e-05
288.15	0.0772	0.015	0.001418	5.8e-05
288.15	0.108	0.015	0.001534	6.3e-05
288.15	0.1726	0.015	0.001807	7.4e-05
288.15	0.2678	0.015	0.002329	9.6e-05
288.15	0.3064	0.015	0.002584	0.000106
293.15	0	0.015	0.001039	4.3e-05
293.15	0.0474	0.015	0.001159	4.8e-05
293.15	0.0772	0.015	0.001244	5.1e-05
293.15	0.108	0.015	0.00134	5.5e-05
293.15	0.1726	0.015	0.001572	6.5e-05
293.15	0.2678	0.015	0.002011	8.3e-05
293.15	0.3064	0.015	0.002228	9.2e-05
298.15	0	0.015	0.000924	3.8e-05
298.15	0.0474	0.015	0.001029	4.2e-05
298.15	0.0772	0.015	0.0011	4.5e-05
298.15	0.108	0.015	0.001184	4.9e-05
298.15	0.1726	0.015	0.001398	5.8e-05
298.15	0.2678	0.015	0.001772	7.3e-05
298.15	0.3064	0.015	0.001956	8.1e-05
303.15	0	0.015	0.000824	3.4e-05
303.15	0.0474	0.015	0.000917	3.8e-05
303.15	0.0772	0.015	0.00098	4e-05
303.15	0.108	0.015	0.001054	4.3e-05
303.15	0.1726	0.015	0.001231	5.1e-05
303.15	0.2678	0.015	0.001556	6.4e-05
303.15	0.3064	0.015	0.001716	7.1e-05
308.15	0	0.015	0.000746	3.1e-05
308.15	0.0474	0.015	0.000826	3.4e-05
308.15	0.0772	0.015	0.000881	3.6e-05
308.15	0.108	0.015	0.000946	3.9e-05
308.15	0.1726	0.015	0.001098	4.5e-05
308.15	0.2678	0.015	0.001379	5.7e-05
308.15	0.3064	0.015	0.001513	6.2e-05
288.15	0	0.02	0.001195	4.9e-05
288.15	0.0474	0.02	0.001338	5.5e-05
288.15	0.0764	0.02	0.001432	5.9e-05
288.15	0.1067	0.02	0.001545	6.4e-05
288.15	0.1397	0.02	0.001685	6.9e-05
288.15	0.1727	0.02	0.001832	7.6e-05
288.15	0.2175	0.02	0.002065	8.5e-05
288.15	0.2663	0.02	0.00236	9.7e-05
288.15	0.3056	0.02	0.002612	0.000107
293.15	0	0.02	0.00105	4.3e-05
293.15	0.0474	0.02	0.001172	4.8e-05
293.15	0.0764	0.02	0.001255	5.2e-05
293.15	0.1067	0.02	0.001353	5.6e-05
293.15	0.1397	0.02	0.00147	6.1e-05
293.15	0.1727	0.02	0.001592	6.6e-05
293.15	0.2175	0.02	0.001788	7.4e-05
293.15	0.2663	0.02	0.002033	8.4e-05
293.15	0.3056	0.02	0.002251	9.3e-05
298.15	0	0.02	0.000934	3.8e-05
298.15	0.0474	0.02	0.001038	4.3e-05
298.15	0.0764	0.02	0.001116	4.6e-05
298.15	0.1067	0.02	0.0012	5e-05
298.15	0.1397	0.02	0.001302	5.4e-05
298.15	0.1727	0.02	0.001412	5.8e-05
298.15	0.2175	0.02	0.001585	6.5e-05
298.15	0.2663	0.02	0.001798	7.4e-05
298.15	0.3056	0.02	0.001984	8.2e-05
303.15	0	0.02	0.000834	3.4e-05
303.15	0.0474	0.02	0.000923	3.8e-05
303.15	0.0764	0.02	0.000991	4.1e-05
303.15	0.1067	0.02	0.001062	4.4e-05
303.15	0.1397	0.02	0.001143	4.7e-05
303.15	0.1727	0.02	0.001242	5.1e-05
303.15	0.2175	0.02	0.001387	5.7e-05
303.15	0.2663	0.02	0.001567	6.5e-05
303.15	0.3056	0.02	0.001726	7.1e-05
308.15	0	0.02	0.000753	3.1e-05
308.15	0.0474	0.02	0.000831	3.4e-05
308.15	0.0764	0.02	0.000888	3.7e-05
308.15	0.1067	0.02	0.000951	3.9e-05
308.15	0.1397	0.02	0.00103	4.2e-05
308.15	0.1727	0.02	0.001112	4.6e-05
308.15	0.2175	0.02	0.001243	5.1e-05
308.15	0.2663	0.02	0.001394	5.7e-05
308.15	0.3056	0.02	0.001534	6.3e-05

System: disodium ceftriaxone + 1-octyl-4-methylpyridinium bromide + water; phases: Liquid
Fixed: Pressure, kPa = 100
Property: Mass density, kg/m3 (Liquid); method: Vibrating tube method
Temperature, K	Molality, mol/kg of disodium ceftriaxone	Solvent: Mass fraction of 1-octyl-4-methylpyridinium bromide	Mass density, kg/m3	uncertainty
288.15	0	0	999.094	0.703
288.15	0.0194	0	1004.572	0.703
288.15	0.0485	0	1012.63	0.703
288.15	0.0773	0	1020.426	0.701
288.15	0.1392	0	1036.628	0.704
288.15	0.1737	0	1045.352	0.703
288.15	0.2166	0	1055.846	0.703
288.15	0.2658	0	1067.513	0.705
288.15	0.306	0	1076.751	0.707
293.15	0	0	998.203	0.704
293.15	0.0194	0	1003.634	0.702
293.15	0.0485	0	1011.611	0.702
293.15	0.0773	0	1019.34	0.7
293.15	0.1392	0	1035.38	0.703
293.15	0.1737	0	1044.01	0.701
293.15	0.2166	0	1054.367	0.702
293.15	0.2658	0	1065.9	0.703
293.15	0.306	0	1075.008	0.705
298.15	0	0	997.042	0.703
298.15	0.0194	0	1002.424	0.701
298.15	0.0485	0	1010.348	0.701
298.15	0.0773	0	1018.009	0.699
298.15	0.1392	0	1033.925	0.702
298.15	0.1737	0	1042.488	0.7
298.15	0.2166	0	1052.805	0.701
298.15	0.2658	0	1064.287	0.702
298.15	0.306	0	1073.303	0.703
303.15	0	0	995.646	0.702
303.15	0.0194	0	1000.987	0.699
303.15	0.0485	0	1008.857	0.7
303.15	0.0773	0	1016.482	0.698
303.15	0.1392	0	1032.28	0.701
303.15	0.1737	0	1040.802	0.7
303.15	0.2166	0	1051.073	0.7
303.15	0.2658	0	1062.5	0.702
303.15	0.306	0	1071.536	0.702
308.15	0	0	994.023	0.7
308.15	0.0194	0	999.338	0.699
308.15	0.0485	0	1007.156	0.699
308.15	0.0773	0	1014.73	0.697
308.15	0.1392	0	1030.46	0.7
308.15	0.1737	0	1038.931	0.699
308.15	0.2166	0	1049.139	0.699
308.15	0.2658	0	1060.418	0.7
308.15	0.306	0	1069.398	0.702
288.15	0	0.01	1000.536	0.718
288.15	0.0193	0.01	1005.993	0.719
288.15	0.0469	0.01	1013.643	0.718
288.15	0.0768	0.01	1021.752	0.718
288.15	0.1069	0.01	1029.678	0.722
288.15	0.1382	0.01	1037.708	0.716
288.15	0.172	0.01	1046.175	0.714
288.15	0.2175	0.01	1057.219	0.713
288.15	0.2658	0.01	1068.487	0.713
288.15	0.3045	0.01	1077.268	0.716
293.15	0	0.01	999.566	0.716
293.15	0.0193	0.01	1004.974	0.716
293.15	0.0469	0.01	1012.554	0.716
293.15	0.0768	0.01	1020.585	0.715
293.15	0.1069	0.01	1028.447	0.721
293.15	0.1382	0.01	1036.407	0.714
293.15	0.172	0.01	1044.78	0.712
293.15	0.2175	0.01	1055.69	0.712
293.15	0.2658	0.01	1066.89	0.711
293.15	0.3045	0.01	1075.57	0.713
298.15	0	0.01	998.379	0.715
298.15	0.0193	0.01	1003.748	0.714
298.15	0.0469	0.01	1011.263	0.714
298.15	0.0768	0.01	1019.235	0.714
298.15	0.1069	0.01	1027.037	0.72
298.15	0.1382	0.01	1034.945	0.712
298.15	0.172	0.01	1043.272	0.711
298.15	0.2175	0.01	1054.101	0.71
298.15	0.2658	0.01	1065.15	0.71
298.15	0.3045	0.01	1073.79	0.712
303.15	0	0.01	996.945	0.714
303.15	0.0193	0.01	1002.275	0.713
303.15	0.0469	0.01	1009.749	0.713
303.15	0.0768	0.01	1017.675	0.712
303.15	0.1069	0.01	1025.417	0.719
303.15	0.1382	0.01	1033.268	0.711
303.15	0.172	0.01	1041.562	0.71
303.15	0.2175	0.01	1052.35	0.709
303.15	0.2658	0.01	1063.385	0.708
303.15	0.3045	0.01	1071.91	0.708
308.15	0	0.01	995.3	0.712
308.15	0.0193	0.01	1000.589	0.711
308.15	0.0469	0.01	1008	0.711
308.15	0.0768	0.01	1015.876	0.711
308.15	0.1069	0.01	1023.585	0.717
308.15	0.1382	0.01	1031.382	0.709
308.15	0.172	0.01	1039.608	0.708
308.15	0.2175	0.01	1050.37	0.707
308.15	0.2658	0.01	1061.32	0.707
308.15	0.3045	0.01	1069.82	0.709
288.15	0	0.015	1001.29	0.721
288.15	0.0184	0.015	1006.525	0.721
288.15	0.0485	0.015	1014.855	0.721
288.15	0.0767	0.015	1022.471	0.721
288.15	0.1077	0.015	1030.648	0.721
288.15	0.1393	0.015	1038.772	0.721
288.15	0.1713	0.015	1046.79	0.721
288.15	0.2182	0.015	1058.17	0.722
288.15	0.2668	0.015	1069.565	0.725
288.15	0.3056	0.015	1078.338	0.726
293.15	0	0.015	1000.319	0.721
293.15	0.0184	0.015	1005.509	0.72
293.15	0.0485	0.015	1013.767	0.72
293.15	0.0767	0.015	1021.315	0.719
293.15	0.1077	0.015	1029.405	0.719
293.15	0.1393	0.015	1037.461	0.719
293.15	0.1713	0.015	1045.39	0.719
293.15	0.2182	0.015	1056.64	0.72
293.15	0.2668	0.015	1067.89	0.721
293.15	0.3056	0.015	1076.602	0.723
298.15	0	0.015	999.123	0.719
298.15	0.0184	0.015	1004.267	0.718
298.15	0.0485	0.015	1012.461	0.718
298.15	0.0767	0.015	1019.944	0.717
298.15	0.1077	0.015	1027.99	0.717
298.15	0.1393	0.015	1035.999	0.717
298.15	0.1713	0.015	1043.89	0.717
298.15	0.2182	0.015	1055.056	0.719
298.15	0.2668	0.015	1066.249	0.723
298.15	0.3056	0.015	1074.858	0.723
303.15	0	0.015	997.706	0.718
303.15	0.0184	0.015	1002.818	0.716
303.15	0.0485	0.015	1010.955	0.716
303.15	0.0767	0.015	1018.41	0.715
303.15	0.1077	0.015	1026.386	0.715
303.15	0.1393	0.015	1034.327	0.715
303.15	0.1713	0.015	1042.183	0.715
303.15	0.2182	0.015	1053.29	0.716
303.15	0.2668	0.015	1064.388	0.717
303.15	0.3056	0.015	1072.925	0.718
308.15	0	0.015	996.048	0.715
308.15	0.0184	0.015	1001.12	0.714
308.15	0.0485	0.015	1009.201	0.714
308.15	0.0767	0.015	1016.59	0.714
308.15	0.1077	0.015	1024.535	0.714
308.15	0.1393	0.015	1032.428	0.714
308.15	0.1713	0.015	1040.243	0.714
308.15	0.2182	0.015	1051.294	0.714
308.15	0.2668	0.015	1062.33	0.716
308.15	0.3056	0.015	1070.83	0.718
288.15	0	0.02	1002.094	0.723
288.15	0.0188	0.02	1007.446	0.72
288.15	0.0471	0.02	1015.276	0.72
288.15	0.0769	0.02	1023.36	0.72
288.15	0.1075	0.02	1031.427	0.719
288.15	0.1392	0.02	1039.55	0.719
288.15	0.1719	0.02	1047.77	0.718
288.15	0.2185	0.02	1059.091	0.718
288.15	0.2671	0.02	1070.496	0.72
288.15	0.306	0.02	1079.302	0.728
293.15	0	0.02	1001.102	0.719
293.15	0.0188	0.02	1006.41	0.717
293.15	0.0471	0.02	1014.182	0.717
293.15	0.0769	0.02	1022.181	0.717
293.15	0.1075	0.02	1030.158	0.717
293.15	0.1392	0.02	1038.22	0.716
293.15	0.1719	0.02	1046.34	0.716
293.15	0.2185	0.02	1057.526	0.717
293.15	0.2671	0.02	1068.76	0.721
293.15	0.306	0.02	1077.515	0.726
298.15	0	0.02	999.874	0.717
298.15	0.0188	0.02	1005.136	0.715
298.15	0.0471	0.02	1012.846	0.715
298.15	0.0769	0.02	1020.779	0.715
298.15	0.1075	0.02	1028.72	0.714
298.15	0.1392	0.02	1036.731	0.714
298.15	0.1719	0.02	1044.812	0.713
298.15	0.2185	0.02	1055.919	0.714
298.15	0.2671	0.02	1067.16	0.716
298.15	0.306	0.02	1075.809	0.719
303.15	0	0.02	998.407	0.714
303.15	0.0188	0.02	1003.637	0.712
303.15	0.0471	0.02	1011.298	0.712
303.15	0.0769	0.02	1019.189	0.711
303.15	0.1075	0.02	1027.053	0.711
303.15	0.1392	0.02	1035.012	0.711
303.15	0.1719	0.02	1043.04	0.71
303.15	0.2185	0.02	1054.078	0.711
303.15	0.2671	0.02	1065.189	0.713
303.15	0.306	0.02	1073.77	0.718
308.15	0	0.02	996.742	0.714
308.15	0.0188	0.02	1001.93	0.711
308.15	0.0471	0.02	1009.528	0.711
308.15	0.0769	0.02	1017.36	0.711
308.15	0.1075	0.02	1025.196	0.71
308.15	0.1392	0.02	1033.099	0.711
308.15	0.1719	0.02	1041.092	0.708
308.15	0.2185	0.02	1052.076	0.709
308.15	0.2671	0.02	1063.113	0.711
308.15	0.306	0.02	1071.703	0.719

System: disodium ceftriaxone + 1-octyl-4-methylpyridinium bromide + water; phases: Liquid
Fixed: Pressure, kPa = 100
Fixed: Frequency, MHz = 3
Property: Speed of sound, m/s (Liquid); method: Single path-length method
Temperature, K	Molality, mol/kg of disodium ceftriaxone	Solvent: Mass fraction of 1-octyl-4-methylpyridinium bromide	Speed of sound, m/s	uncertainty
288.15	0	0	1466.52	2.29
288.15	0.0194	0	1472.68	2.29
288.15	0.0485	0	1481.4	2.29
288.15	0.0773	0	1489.81	2.28
288.15	0.1392	0	1506.44	2.28
288.15	0.1737	0	1515.22	2.28
288.15	0.2166	0	1525.8	2.28
288.15	0.2658	0	1537.2	2.28
288.15	0.306	0	1545.59	2.28
293.15	0	0	1482.66	2.29
293.15	0.0194	0	1488.46	2.29
293.15	0.0485	0	1496.74	2.28
293.15	0.0773	0	1504.58	2.28
293.15	0.1392	0	1520.35	2.28
293.15	0.1737	0	1528.65	2.28
293.15	0.2166	0	1538.6	2.28
293.15	0.2658	0	1549.49	2.28
293.15	0.306	0	1557.36	2.28
298.15	0	0	1496.96	2.29
298.15	0.0194	0	1502.38	2.28
298.15	0.0485	0	1510.15	2.28
298.15	0.0773	0	1517.5	2.28
298.15	0.1392	0	1532.61	2.28
298.15	0.1737	0	1540.55	2.28
298.15	0.2166	0	1550.06	2.28
298.15	0.2658	0	1560.5	2.28
298.15	0.306	0	1567.82	2.27
303.15	0	0	1509.44	2.29
303.15	0.0194	0	1514.47	2.28
303.15	0.0485	0	1521.74	2.28
303.15	0.0773	0	1528.67	2.28
303.15	0.1392	0	1542.95	2.28
303.15	0.1737	0	1550.46	2.28
303.15	0.2166	0	1559.46	2.28
303.15	0.2658	0	1569.3	2.28
303.15	0.306	0	1576.34	2.27
308.15	0	0	1520.15	2.28
308.15	0.0194	0	1524.85	2.28
308.15	0.0485	0	1531.62	2.28
308.15	0.0773	0	1538.14	2.28
308.15	0.1392	0	1551.72	2.28
308.15	0.1737	0	1558.85	2.28
308.15	0.2166	0	1567.41	2.28
308.15	0.2658	0	1576.79	2.28
308.15	0.306	0	1584.14	2.27
288.15	0	0.01	1473.76	2.39
288.15	0.0193	0.01	1479.3	2.38
288.15	0.0469	0.01	1487	2.36
288.15	0.0768	0.01	1495.15	2.35
288.15	0.1069	0.01	1503.27	2.33
288.15	0.1382	0.01	1511.19	2.33
288.15	0.172	0.01	1519.57	2.33
288.15	0.2175	0.01	1530.45	2.32
288.15	0.2658	0.01	1541.61	2.32
288.15	0.3045	0.01	1550.06	2.32
293.15	0	0.01	1489.14	2.37
293.15	0.0193	0.01	1494.47	2.36
293.15	0.0469	0.01	1501.73	2.34
293.15	0.0768	0.01	1509.53	2.33
293.15	0.1069	0.01	1517.12	2.34
293.15	0.1382	0.01	1524.68	2.32
293.15	0.172	0.01	1532.7	2.32
293.15	0.2175	0.01	1543.08	2.31
293.15	0.2658	0.01	1553.63	2.31
293.15	0.3045	0.01	1561.6	2.31
298.15	0	0.01	1502.61	2.35
298.15	0.0193	0.01	1507.68	2.34
298.15	0.0469	0.01	1514.71	2.33
298.15	0.0768	0.01	1522.08	2.32
298.15	0.1069	0.01	1529.33	2.32
298.15	0.1382	0.01	1536.43	2.31
298.15	0.172	0.01	1544	2.31
298.15	0.2175	0.01	1553.96	2.3
298.15	0.2658	0.01	1563.86	2.3
298.15	0.3045	0.01	1571.66	2.3
303.15	0	0.01	1514.51	2.33
303.15	0.0193	0.01	1519.22	2.32
303.15	0.0469	0.01	1525.78	2.32
303.15	0.0768	0.01	1532.75	2.31
303.15	0.1069	0.01	1539.64	2.31
303.15	0.1382	0.01	1546.43	2.3
303.15	0.172	0.01	1553.65	2.3
303.15	0.2175	0.01	1562.94	2.3
303.15	0.2658	0.01	1572.52	2.29
303.15	0.3045	0.01	1579.79	2.3
308.15	0	0.01	1524.53	2.32
308.15	0.0193	0.01	1528.99	2.31
308.15	0.0469	0.01	1535.28	2.31
308.15	0.0768	0.01	1541.89	2.31
308.15	0.1069	0.01	1548.36	2.29
308.15	0.1382	0.01	1554.84	2.3
308.15	0.172	0.01	1561.67	2.3
308.15	0.2175	0.01	1570.71	2.29
308.15	0.2658	0.01	1579.63	2.29
308.15	0.3045	0.01	1586.57	2.29
288.15	0	0.015	1477.02	2.38
288.15	0.0184	0.015	1482.08	2.37
288.15	0.0485	0.015	1490.2	2.35
288.15	0.0767	0.015	1497.72	2.34
288.15	0.1077	0.015	1505.75	2.33
288.15	0.1393	0.015	1513.67	2.32
288.15	0.1713	0.015	1521.51	2.32
288.15	0.2182	0.015	1532.57	2.31
288.15	0.2668	0.015	1543.73	2.31
288.15	0.3056	0.015	1552.32	2.31
293.15	0	0.015	1492.15	2.37
293.15	0.0184	0.015	1496.96	2.35
293.15	0.0485	0.015	1504.69	2.34
293.15	0.0767	0.015	1511.84	2.33
293.15	0.1077	0.015	1519.44	2.32
293.15	0.1393	0.015	1526.95	2.32
293.15	0.1713	0.015	1534.43	2.31
293.15	0.2182	0.015	1545.02	2.31
293.15	0.2668	0.015	1555.54	2.3
293.15	0.3056	0.015	1563.67	2.3
298.15	0	0.015	1505.26	2.35
298.15	0.0184	0.015	1509.84	2.34
298.15	0.0485	0.015	1517.19	2.32
298.15	0.0767	0.015	1523.93	2.32
298.15	0.1077	0.015	1531.14	2.31
298.15	0.1393	0.015	1538.35	2.31
298.15	0.1713	0.015	1545.51	2.3
298.15	0.2182	0.015	1555.49	2.3
298.15	0.2668	0.015	1565.52	2.3
298.15	0.3056	0.015	1573.27	2.3
303.15	0	0.015	1516.71	2.33
303.15	0.0184	0.015	1521.01	2.33
303.15	0.0485	0.015	1527.98	2.32
303.15	0.0767	0.015	1534.38	2.31
303.15	0.1077	0.015	1541.28	2.3
303.15	0.1393	0.015	1548.11	2.3
303.15	0.1713	0.015	1554.89	2.3
303.15	0.2182	0.015	1564.4	2.29
303.15	0.2668	0.015	1573.95	2.29
303.15	0.3056	0.015	1581.33	2.3
308.15	0	0.015	1526.42	2.32
308.15	0.0184	0.015	1530.54	2.31
308.15	0.0485	0.015	1537.18	2.31
308.15	0.0767	0.015	1543.22	2.3
308.15	0.1077	0.015	1549.78	2.3
308.15	0.1393	0.015	1556.3	2.29
308.15	0.1713	0.015	1562.77	2.29
308.15	0.2182	0.015	1571.77	2.29
308.15	0.2668	0.015	1580.65	2.29
308.15	0.3056	0.015	1587.92	2.29
288.15	0	0.02	1480.54	2.39
288.15	0.0188	0.02	1485.45	2.37
288.15	0.0471	0.02	1492.72	2.35
288.15	0.0769	0.02	1500.34	2.34
288.15	0.1075	0.02	1508.06	2.33
288.15	0.1392	0.02	1515.88	2.32
288.15	0.1719	0.02	1523.76	2.32
288.15	0.2185	0.02	1534.63	2.31
288.15	0.2671	0.02	1545.57	2.31
288.15	0.306	0.02	1554.27	2.31
293.15	0	0.02	1495.34	2.34
293.15	0.0188	0.02	1500.02	2.34
293.15	0.0471	0.02	1506.93	2.32
293.15	0.0769	0.02	1514.18	2.31
293.15	0.1075	0.02	1521.51	2.31
293.15	0.1392	0.02	1528.93	2.3
293.15	0.1719	0.02	1536.46	2.3
293.15	0.2185	0.02	1546.83	2.29
293.15	0.2671	0.02	1557.25	2.29
293.15	0.306	0.02	1565.41	2.29
298.15	0	0.02	1508.19	2.33
298.15	0.0188	0.02	1512.62	2.33
298.15	0.0471	0.02	1519.2	2.32
298.15	0.0769	0.02	1526.16	2.31
298.15	0.1075	0.02	1533.12	2.3
298.15	0.1392	0.02	1540.2	2.3
298.15	0.1719	0.02	1547.4	2.29
298.15	0.2185	0.02	1557.25	2.29
298.15	0.2671	0.02	1567.1	2.29
298.15	0.306	0.02	1575.5	2.29
303.15	0	0.02	1519.47	2.32
303.15	0.0188	0.02	1523.7	2.32
303.15	0.0471	0.02	1529.99	2.31
303.15	0.0769	0.02	1536.46	2.3
303.15	0.1075	0.02	1543.07	2.3
303.15	0.1392	0.02	1549.84	2.29
303.15	0.1719	0.02	1556.73	2.29
303.15	0.2185	0.02	1565.96	2.29
303.15	0.2671	0.02	1575.34	2.29
303.15	0.306	0.02	1583.29	2.29
308.15	0	0.02	1528.82	2.33
308.15	0.0188	0.02	1532.88	2.32
308.15	0.0471	0.02	1538.87	2.31
308.15	0.0769	0.02	1545.09	2.31
308.15	0.1075	0.02	1551.45	2.3
308.15	0.1392	0.02	1557.8	2.3
308.15	0.1719	0.02	1564.38	2.29
308.15	0.2185	0.02	1573.24	2.29
308.15	0.2671	0.02	1582.16	2.29
308.15	0.306	0.02	1589.29	2.29

System: disodium ceftriaxone + 1-octyl-4-methylpyridinium bromide + water; phases: Liquid
Fixed: Pressure, kPa = 100
Property: Viscosity, Pa*s (Liquid); method: Falling or rolling sphere viscometry
Temperature, K	Molality, mol/kg of disodium ceftriaxone	Solvent: Mass fraction of 1-octyl-4-methylpyridinium bromide	Viscosity, Pa*s	uncertainty
288.15	0	0	0.001136	4.7e-05
288.15	0.0194	0	0.001196	4.9e-05
288.15	0.0485	0	0.001273	5.2e-05
288.15	0.0773	0	0.001365	5.6e-05
288.15	0.1392	0	0.001604	6.6e-05
288.15	0.1737	0	0.001745	7.2e-05
288.15	0.2166	0	0.001964	8.1e-05
288.15	0.2658	0	0.002205	9.1e-05
288.15	0.306	0	0.002447	0.0001
293.15	0	0	0.001001	4.1e-05
293.15	0.0194	0	0.001053	4.3e-05
293.15	0.0485	0	0.00112	4.6e-05
293.15	0.0773	0	0.0012	4.9e-05
293.15	0.1392	0	0.001399	5.7e-05
293.15	0.1737	0	0.001527	6.3e-05
293.15	0.2166	0	0.001701	7e-05
293.15	0.2658	0	0.001918	7.9e-05
293.15	0.306	0	0.002122	8.7e-05
298.15	0	0	0.00089	3.7e-05
298.15	0.0194	0	0.000935	3.8e-05
298.15	0.0485	0	0.000994	4.1e-05
298.15	0.0773	0	0.001062	4.4e-05
298.15	0.1392	0	0.001231	5.1e-05
298.15	0.1737	0	0.001348	5.5e-05
298.15	0.2166	0	0.001495	6.1e-05
298.15	0.2658	0	0.001674	6.9e-05
298.15	0.306	0	0.001858	7.6e-05
303.15	0	0	0.000797	3.3e-05
303.15	0.0194	0	0.000829	3.4e-05
303.15	0.0485	0	0.000885	3.6e-05
303.15	0.0773	0	0.000945	3.9e-05
303.15	0.1392	0	0.0011	4.5e-05
303.15	0.1737	0	0.001195	4.9e-05
303.15	0.2166	0	0.001323	5.4e-05
303.15	0.2658	0	0.00148	6.1e-05
303.15	0.306	0	0.001638	6.7e-05
308.15	0	0	0.000718	2.9e-05
308.15	0.0194	0	0.000744	3.1e-05
308.15	0.0485	0	0.000794	3.3e-05
308.15	0.0773	0	0.000849	3.5e-05
308.15	0.1392	0	0.000982	4e-05
308.15	0.1737	0	0.00107	4.4e-05
308.15	0.2166	0	0.001184	4.9e-05
308.15	0.2658	0	0.001322	5.4e-05
308.15	0.306	0	0.001455	6e-05
288.15	0	0.01	0.001179	4.9e-05
288.15	0.0193	0.01	0.001243	5.1e-05
288.15	0.0469	0.01	0.001314	5.4e-05
288.15	0.0768	0.01	0.001411	5.8e-05
288.15	0.1069	0.01	0.00152	6.3e-05
288.15	0.1382	0.01	0.001642	6.8e-05
288.15	0.172	0.01	0.001786	7.4e-05
288.15	0.2175	0.01	0.00201	8.3e-05
288.15	0.2658	0.01	0.002281	9.4e-05
288.15	0.3045	0.01	0.002521	0.000104
293.15	0	0.01	0.001031	4.2e-05
293.15	0.0193	0.01	0.001076	4.4e-05
293.15	0.0469	0.01	0.00115	4.7e-05
293.15	0.0768	0.01	0.001235	5.1e-05
293.15	0.1069	0.01	0.00133	5.5e-05
293.15	0.1382	0.01	0.001433	5.9e-05
293.15	0.172	0.01	0.001558	6.4e-05
293.15	0.2175	0.01	0.001747	7.2e-05
293.15	0.2658	0.01	0.001979	8.2e-05
293.15	0.3045	0.01	0.002189	9e-05
298.15	0	0.01	0.000915	3.8e-05
298.15	0.0193	0.01	0.000949	3.9e-05
298.15	0.0469	0.01	0.001021	4.2e-05
298.15	0.0768	0.01	0.001094	4.5e-05
298.15	0.1069	0.01	0.001174	4.8e-05
298.15	0.1382	0.01	0.001264	5.2e-05
298.15	0.172	0.01	0.001372	5.6e-05
298.15	0.2175	0.01	0.001535	6.3e-05
298.15	0.2658	0.01	0.001732	7.1e-05
298.15	0.3045	0.01	0.001911	7.9e-05
303.15	0	0.01	0.000817	3.4e-05
303.15	0.0193	0.01	0.000847	3.5e-05
303.15	0.0469	0.01	0.000909	3.7e-05
303.15	0.0768	0.01	0.000974	4e-05
303.15	0.1069	0.01	0.001046	4.3e-05
303.15	0.1382	0.01	0.001124	4.6e-05
303.15	0.172	0.01	0.001219	5e-05
303.15	0.2175	0.01	0.001359	5.6e-05
303.15	0.2658	0.01	0.001528	6.3e-05
303.15	0.3045	0.01	0.001681	6.9e-05
308.15	0	0.01	0.000737	3e-05
308.15	0.0193	0.01	0.00077	3.2e-05
308.15	0.0469	0.01	0.000816	3.4e-05
308.15	0.0768	0.01	0.000873	3.6e-05
308.15	0.1069	0.01	0.000936	3.9e-05
308.15	0.1382	0.01	0.001006	4.1e-05
308.15	0.172	0.01	0.001091	4.5e-05
308.15	0.2175	0.01	0.001212	5e-05
308.15	0.2658	0.01	0.00136	5.6e-05
308.15	0.3045	0.01	0.001492	6.1e-05
288.15	0	0.015	0.001196	4.9e-05
288.15	0.0184	0.015	0.001244	5.1e-05
288.15	0.0485	0.015	0.001333	5.5e-05
288.15	0.0767	0.015	0.001452	6e-05
288.15	0.1077	0.015	0.001543	6.4e-05
288.15	0.1393	0.015	0.001671	6.9e-05
288.15	0.1713	0.015	0.001817	7.5e-05
288.15	0.2182	0.015	0.002048	8.4e-05
288.15	0.2668	0.015	0.002331	9.6e-05
288.15	0.3056	0.015	0.002592	0.000107
293.15	0	0.015	0.001046	4.3e-05
293.15	0.0184	0.015	0.001089	4.5e-05
293.15	0.0485	0.015	0.001169	4.8e-05
293.15	0.0767	0.015	0.001252	5.2e-05
293.15	0.1077	0.015	0.001351	5.6e-05
293.15	0.1393	0.015	0.00146	6e-05
293.15	0.1713	0.015	0.001587	6.5e-05
293.15	0.2182	0.015	0.001776	7.3e-05
293.15	0.2668	0.015	0.002019	8.3e-05
293.15	0.3056	0.015	0.002238	9.2e-05
298.15	0	0.015	0.000929	3.8e-05
298.15	0.0184	0.015	0.00097	4e-05
298.15	0.0485	0.015	0.001039	4.3e-05
298.15	0.0767	0.015	0.001109	4.6e-05
298.15	0.1077	0.015	0.001194	4.9e-05
298.15	0.1393	0.015	0.001287	5.3e-05
298.15	0.1713	0.015	0.001397	5.8e-05
298.15	0.2182	0.015	0.001562	6.4e-05
298.15	0.2668	0.015	0.001768	7.3e-05
298.15	0.3056	0.015	0.001952	8.1e-05
303.15	0	0.015	0.000833	3.4e-05
303.15	0.0184	0.015	0.000867	3.6e-05
303.15	0.0485	0.015	0.000929	3.8e-05
303.15	0.0767	0.015	0.000989	4.1e-05
303.15	0.1077	0.015	0.001064	4.4e-05
303.15	0.1393	0.015	0.001145	4.7e-05
303.15	0.1713	0.015	0.001239	5.1e-05
303.15	0.2182	0.015	0.001382	5.7e-05
303.15	0.2668	0.015	0.001557	6.4e-05
303.15	0.3056	0.015	0.001714	7.1e-05
308.15	0	0.015	0.000749	3.1e-05
308.15	0.0184	0.015	0.000781	3.2e-05
308.15	0.0485	0.015	0.000828	3.4e-05
308.15	0.0767	0.015	0.000885	3.6e-05
308.15	0.1077	0.015	0.000953	3.9e-05
308.15	0.1393	0.015	0.001023	4.2e-05
308.15	0.1713	0.015	0.001108	4.6e-05
308.15	0.2182	0.015	0.001233	5.1e-05
308.15	0.2668	0.015	0.001385	5.7e-05
308.15	0.3056	0.015	0.00152	6.3e-05
288.15	0	0.02	0.001217	5e-05
288.15	0.0188	0.02	0.001269	5.2e-05
288.15	0.0471	0.02	0.001358	5.6e-05
288.15	0.0769	0.02	0.001459	6e-05
288.15	0.1075	0.02	0.001576	6.5e-05
288.15	0.1392	0.02	0.001705	7.1e-05
288.15	0.1719	0.02	0.001858	7.7e-05
288.15	0.2185	0.02	0.002093	8.7e-05
288.15	0.2671	0.02	0.002385	9.9e-05
288.15	0.306	0.02	0.002643	0.000109
293.15	0	0.02	0.001063	4.4e-05
293.15	0.0188	0.02	0.001108	4.6e-05
293.15	0.0471	0.02	0.001183	4.9e-05
293.15	0.0769	0.02	0.001271	5.3e-05
293.15	0.1075	0.02	0.001374	5.7e-05
293.15	0.1392	0.02	0.001487	6.2e-05
293.15	0.1719	0.02	0.001622	6.7e-05
293.15	0.2185	0.02	0.001814	7.5e-05
293.15	0.2671	0.02	0.002057	8.5e-05
293.15	0.306	0.02	0.002289	9.5e-05
298.15	0	0.02	0.000941	3.9e-05
298.15	0.0188	0.02	0.000977	4e-05
298.15	0.0471	0.02	0.001047	4.3e-05
298.15	0.0769	0.02	0.001124	4.6e-05
298.15	0.1075	0.02	0.001209	5e-05
298.15	0.1392	0.02	0.001308	5.4e-05
298.15	0.1719	0.02	0.001427	5.9e-05
298.15	0.2185	0.02	0.001593	6.6e-05
298.15	0.2671	0.02	0.001804	7.5e-05
298.15	0.306	0.02	0.001996	8.3e-05
303.15	0	0.02	0.000844	3.5e-05
303.15	0.0188	0.02	0.000863	3.5e-05
303.15	0.0471	0.02	0.000937	3.9e-05
303.15	0.0769	0.02	0.001004	4.1e-05
303.15	0.1075	0.02	0.001084	4.5e-05
303.15	0.1392	0.02	0.001165	4.8e-05
303.15	0.1719	0.02	0.001267	5.2e-05
303.15	0.2185	0.02	0.001411	5.8e-05
303.15	0.2671	0.02	0.001588	6.6e-05
303.15	0.306	0.02	0.001757	7.3e-05
308.15	0	0.02	0.00076	3.1e-05
308.15	0.0188	0.02	0.000786	3.2e-05
308.15	0.0471	0.02	0.000842	3.5e-05
308.15	0.0769	0.02	0.000901	3.7e-05
308.15	0.1075	0.02	0.00097	4e-05
308.15	0.1392	0.02	0.001042	4.3e-05
308.15	0.1719	0.02	0.001133	4.7e-05
308.15	0.2185	0.02	0.001256	5.2e-05
308.15	0.2671	0.02	0.001409	5.8e-05
308.15	0.306	0.02	0.001559	6.4e-05

System: disodium ceftriaxone + water; phases: Liquid
Fixed: Pressure, kPa = 100
Property: Mass density, kg/m3 (Liquid); method: Vibrating tube method
Temperature, K	Molality, mol/kg of disodium ceftriaxone	Mass density, kg/m3	uncertainty
288.15	0.0194	1004.572	0.663
288.15	0.0485	1012.63	0.661
288.15	0.0773	1020.426	0.657
288.15	0.1392	1036.628	0.656
288.15	0.1737	1045.352	0.652
288.15	0.2166	1055.846	0.65
288.15	0.2658	1067.513	0.648
288.15	0.306	1076.751	0.647
293.15	0.0194	1003.634	0.662
293.15	0.0485	1011.611	0.66
293.15	0.0773	1019.34	0.656
293.15	0.1392	1035.38	0.655
293.15	0.1737	1044.01	0.651
293.15	0.2166	1054.367	0.649
293.15	0.2658	1065.9	0.647
293.15	0.306	1075.008	0.646
298.15	0.0194	1002.424	0.661
298.15	0.0485	1010.348	0.659
298.15	0.0773	1018.009	0.655
298.15	0.1392	1033.925	0.654
298.15	0.1737	1042.488	0.65
298.15	0.2166	1052.805	0.648
298.15	0.2658	1064.287	0.646
298.15	0.306	1073.303	0.645
303.15	0.0194	1000.987	0.66
303.15	0.0485	1008.857	0.658
303.15	0.0773	1016.482	0.655
303.15	0.1392	1032.28	0.653
303.15	0.1737	1040.802	0.65
303.15	0.2166	1051.073	0.648
303.15	0.2658	1062.5	0.646
303.15	0.306	1071.536	0.644
308.15	0.0194	999.338	0.659
308.15	0.0485	1007.156	0.657
308.15	0.0773	1014.73	0.654
308.15	0.1392	1030.46	0.653
308.15	0.1737	1038.931	0.649
308.15	0.2166	1049.139	0.647
308.15	0.2658	1060.418	0.645
308.15	0.306	1069.398	0.645
288.15	0	999.094	0.664
293.15	0	998.203	0.665
298.15	0	997.042	0.664
303.15	0	995.646	0.663
308.15	0	994.023	0.661

System: disodium ceftriaxone + water; phases: Liquid
Fixed: Pressure, kPa = 100
Fixed: Frequency, MHz = 3
Property: Speed of sound, m/s (Liquid); method: Single path-length method
Temperature, K	Molality, mol/kg of disodium ceftriaxone	Speed of sound, m/s	uncertainty
288.15	0.0194	1472.68	2.04
288.15	0.0485	1481.4	2.04
288.15	0.0773	1489.81	2.03
288.15	0.1392	1506.44	2.04
288.15	0.1737	1515.22	2.04
288.15	0.2166	1525.8	2.04
288.15	0.2658	1537.2	2.04
288.15	0.306	1545.59	2.04
293.15	0.0194	1488.46	2.03
293.15	0.0485	1496.74	2.03
293.15	0.0773	1504.58	2.03
293.15	0.1392	1520.35	2.03
293.15	0.1737	1528.65	2.03
293.15	0.2166	1538.6	2.04
293.15	0.2658	1549.49	2.04
293.15	0.306	1557.36	2.04
298.15	0.0194	1502.38	2.03
298.15	0.0485	1510.15	2.03
298.15	0.0773	1517.5	2.03
298.15	0.1392	1532.61	2.03
298.15	0.1737	1540.55	2.03
298.15	0.2166	1550.06	2.03
298.15	0.2658	1560.5	2.03
298.15	0.306	1567.82	2.03
303.15	0.0194	1514.47	2.03
303.15	0.0485	1521.74	2.03
303.15	0.0773	1528.67	2.03
303.15	0.1392	1542.95	2.03
303.15	0.1737	1550.46	2.03
303.15	0.2166	1559.46	2.03
303.15	0.2658	1569.3	2.03
303.15	0.306	1576.34	2.03
308.15	0.0194	1524.85	2.03
308.15	0.0485	1531.62	2.03
308.15	0.0773	1538.14	2.03
308.15	0.1392	1551.72	2.03
308.15	0.1737	1558.85	2.03
308.15	0.2166	1567.41	2.03
308.15	0.2658	1576.79	2.03
308.15	0.306	1584.14	2.04
288.15	0	1466.52	2.04
293.15	0	1482.66	2.04
298.15	0	1496.96	2.04
303.15	0	1509.44	2.03
308.15	0	1520.15	2.03

System: disodium ceftriaxone + water; phases: Liquid
Fixed: Pressure, kPa = 100
Property: Viscosity, Pa*s (Liquid); method: Falling or rolling sphere viscometry
Temperature, K	Molality, mol/kg of disodium ceftriaxone	Viscosity, Pa*s	uncertainty
288.15	0.0194	0.001196	4.9e-05
288.15	0.0485	0.001273	5.2e-05
288.15	0.0773	0.001365	5.6e-05
288.15	0.1392	0.001604	6.5e-05
288.15	0.1737	0.001745	7.1e-05
288.15	0.2166	0.001964	8e-05
288.15	0.2658	0.002205	9e-05
288.15	0.306	0.002447	0.0001
293.15	0.0194	0.001053	4.3e-05
293.15	0.0485	0.00112	4.6e-05
293.15	0.0773	0.0012	4.9e-05
293.15	0.1392	0.001399	5.7e-05
293.15	0.1737	0.001527	6.2e-05
293.15	0.2166	0.001701	6.9e-05
293.15	0.2658	0.001918	7.8e-05
293.15	0.306	0.002122	8.6e-05
298.15	0.0194	0.000935	3.8e-05
298.15	0.0485	0.000994	4e-05
298.15	0.0773	0.001062	4.3e-05
298.15	0.1392	0.001231	5e-05
298.15	0.1737	0.001348	5.5e-05
298.15	0.2166	0.001495	6.1e-05
298.15	0.2658	0.001674	6.8e-05
298.15	0.306	0.001858	7.6e-05
303.15	0.0194	0.000829	3.4e-05
303.15	0.0485	0.000885	3.6e-05
303.15	0.0773	0.000945	3.9e-05
303.15	0.1392	0.0011	4.5e-05
303.15	0.1737	0.001195	4.9e-05
303.15	0.2166	0.001323	5.4e-05
303.15	0.2658	0.00148	6e-05
303.15	0.306	0.001638	6.7e-05
308.15	0.0194	0.000744	3e-05
308.15	0.0485	0.000794	3.2e-05
308.15	0.0773	0.000849	3.5e-05
308.15	0.1392	0.000982	4e-05
308.15	0.1737	0.00107	4.4e-05
308.15	0.2166	0.001184	4.8e-05
308.15	0.2658	0.001322	5.4e-05
308.15	0.306	0.001455	5.9e-05
288.15	0	0.001136	4.6e-05
293.15	0	0.001001	4.1e-05
298.15	0	0.00089	3.6e-05
303.15	0	0.000797	3.2e-05
308.15	0	0.000718	2.9e-05

System: 1-butyl-4-methylpyridinium bromide + water; phases: Liquid
Fixed: Pressure, kPa = 100
Property: Mass density, kg/m3 (Liquid); method: Vibrating tube method
Temperature, K	Mass fraction of 1-butyl-4-methylpyridinium bromide	Mass density, kg/m3	uncertainty
288.15	0.01	1001.158	0.637
293.15	0.01	1000.23	0.635
298.15	0.01	999.051	0.634
303.15	0.01	997.647	0.634
308.15	0.01	996.019	0.632
288.15	0.015	1002.261	0.642
293.15	0.015	1001.308	0.642
298.15	0.015	1000.134	0.64
303.15	0.015	998.68	0.637
308.15	0.015	996.958	0.636
288.15	0.02	1003.416	0.644
293.15	0.02	1002.472	0.638
298.15	0.02	1001.256	0.636
303.15	0.02	999.765	0.635
308.15	0.02	998.102	0.643
288.15	0	999.094	0.601
293.15	0	998.203	0.601
298.15	0	997.042	0.601
303.15	0	995.646	0.601
308.15	0	994.023	0.601

System: 1-butyl-4-methylpyridinium bromide + water; phases: Liquid
Fixed: Pressure, kPa = 100
Fixed: Frequency, MHz = 3
Property: Speed of sound, m/s (Liquid); method: Single path-length method
Temperature, K	Mass fraction of 1-butyl-4-methylpyridinium bromide	Speed of sound, m/s	uncertainty
288.15	0.01	1472.72	2.1
293.15	0.01	1488.15	2.08
298.15	0.01	1501.89	2.07
303.15	0.01	1513.66	2.05
308.15	0.01	1523.89	2.05
288.15	0.015	1475.5	2.08
293.15	0.015	1490.78	2.08
298.15	0.015	1504.14	2.07
303.15	0.015	1515.71	2.04
308.15	0.015	1525.79	2.05
288.15	0.02	1478	2.08
293.15	0.02	1493.27	2.05
298.15	0.02	1506.52	2.04
303.15	0.02	1517.03	2.03
308.15	0.02	1527.71	2.05
288.15	0	1466.52	2.01
293.15	0	1482.66	2.01
298.15	0	1496.96	2.01
303.15	0	1509.44	2.01
308.15	0	1520.15	2.01

System: 1-butyl-4-methylpyridinium bromide + water; phases: Liquid
Fixed: Pressure, kPa = 100
Property: Viscosity, Pa*s (Liquid); method: Falling or rolling sphere viscometry
Temperature, K	Mass fraction of 1-butyl-4-methylpyridinium bromide	Viscosity, Pa*s	uncertainty
288.15	0.01	0.001165	4.7e-05
293.15	0.01	0.001024	4.2e-05
298.15	0.01	0.000907	3.7e-05
303.15	0.01	0.000813	3.3e-05
308.15	0.01	0.000734	3e-05
288.15	0.015	0.001176	4.8e-05
293.15	0.015	0.001037	4.2e-05
298.15	0.015	0.000919	3.7e-05
303.15	0.015	0.000824	3.4e-05
308.15	0.015	0.000745	3e-05
288.15	0.02	0.001195	4.9e-05
293.15	0.02	0.001044	4.3e-05
298.15	0.02	0.000926	3.8e-05
303.15	0.02	0.000833	3.4e-05
308.15	0.02	0.00075	3.1e-05
288.15	0	0.001136	4.6e-05
293.15	0	0.001001	4.1e-05
298.15	0	0.00089	3.6e-05
303.15	0	0.000797	3.2e-05
308.15	0	0.000718	2.9e-05

System: 1-hexyl-4-methylpyridinium bromide + water; phases: Liquid
Fixed: Pressure, kPa = 100
Property: Mass density, kg/m3 (Liquid); method: Vibrating tube method
Temperature, K	Mass fraction of 1-hexyl-4-methylpyridinium bromide	Mass density, kg/m3	uncertainty
288.15	0.01	1000.905	0.627
293.15	0.01	999.956	0.625
298.15	0.01	998.796	0.625
303.15	0.01	997.389	0.624
308.15	0.01	995.718	0.624
288.15	0.015	1001.786	0.624
293.15	0.015	1000.817	0.629
298.15	0.015	999.636	0.622
303.15	0.015	998.196	0.621
308.15	0.015	996.546	0.62
288.15	0.02	1002.564	0.621
293.15	0.02	1001.802	0.62
298.15	0.02	1000.384	0.619
303.15	0.02	998.926	0.615
308.15	0.02	997.238	0.617
288.15	0	999.094	0.601
293.15	0	998.203	0.601
298.15	0	997.042	0.601
303.15	0	995.646	0.601
308.15	0	994.023	0.601

System: 1-hexyl-4-methylpyridinium bromide + water; phases: Liquid
Fixed: Pressure, kPa = 100
Fixed: Frequency, MHz = 3
Property: Speed of sound, m/s (Liquid); method: Single path-length method
Temperature, K	Mass fraction of 1-hexyl-4-methylpyridinium bromide	Speed of sound, m/s	uncertainty
288.15	0.01	1473.12	2.12
293.15	0.01	1488.65	2.09
298.15	0.01	1502.25	2.08
303.15	0.01	1514.05	2.06
308.15	0.01	1524	2.05
288.15	0.015	1476.52	2.12
293.15	0.015	1491.57	2.08
298.15	0.015	1504.9	2.08
303.15	0.015	1516.4	2.07
308.15	0.015	1526.23	2.07
288.15	0.02	1479.63	2.11
293.15	0.02	1493.8	2.06
298.15	0.02	1507.55	2.05
303.15	0.02	1518.9	2.05
308.15	0.02	1528.64	2.07
288.15	0	1466.52	2.01
293.15	0	1482.66	2.01
298.15	0	1496.96	2.01
303.15	0	1509.44	2.01
308.15	0	1520.15	2.01

System: 1-hexyl-4-methylpyridinium bromide + water; phases: Liquid
Fixed: Pressure, kPa = 100
Property: Viscosity, Pa*s (Liquid); method: Falling or rolling sphere viscometry
Temperature, K	Mass fraction of 1-hexyl-4-methylpyridinium bromide	Viscosity, Pa*s	uncertainty
288.15	0.01	0.001172	4.8e-05
293.15	0.01	0.001028	4.2e-05
298.15	0.01	0.000913	3.7e-05
303.15	0.01	0.000817	3.3e-05
308.15	0.01	0.000738	3e-05
288.15	0.015	0.001183	4.8e-05
293.15	0.015	0.001039	4.2e-05
298.15	0.015	0.000924	3.8e-05
303.15	0.015	0.000824	3.4e-05
308.15	0.015	0.000746	3e-05
288.15	0.02	0.001195	4.9e-05
293.15	0.02	0.00105	4.3e-05
298.15	0.02	0.000934	3.8e-05
303.15	0.02	0.000834	3.4e-05
308.15	0.02	0.000753	3.1e-05
288.15	0	0.001136	4.6e-05
293.15	0	0.001001	4.1e-05
298.15	0	0.00089	3.6e-05
303.15	0	0.000797	3.2e-05
308.15	0	0.000718	2.9e-05

System: 1-octyl-4-methylpyridinium bromide + water; phases: Liquid
Fixed: Pressure, kPa = 100
Property: Mass density, kg/m3 (Liquid); method: Vibrating tube method
Temperature, K	Mass fraction of 1-octyl-4-methylpyridinium bromide	Mass density, kg/m3	uncertainty
288.15	0.01	1000.536	0.619
293.15	0.01	999.566	0.617
298.15	0.01	998.379	0.616
303.15	0.01	996.945	0.616
308.15	0.01	995.3	0.616
288.15	0.015	1001.29	0.621
293.15	0.015	1000.319	0.621
298.15	0.015	999.123	0.62
303.15	0.015	997.706	0.619
308.15	0.015	996.048	0.618
288.15	0.02	1002.094	0.622
293.15	0.02	1001.102	0.618
298.15	0.02	999.874	0.616
303.15	0.02	998.407	0.615
308.15	0.02	996.742	0.617
288.15	0	999.094	0.601
293.15	0	998.203	0.601
298.15	0	997.042	0.601
303.15	0	995.646	0.601
308.15	0	994.023	0.601

System: 1-octyl-4-methylpyridinium bromide + water; phases: Liquid
Fixed: Pressure, kPa = 100
Fixed: Frequency, MHz = 3
Property: Speed of sound, m/s (Liquid); method: Single path-length method
Temperature, K	Mass fraction of 1-octyl-4-methylpyridinium bromide	Speed of sound, m/s	uncertainty
288.15	0.01	1473.76	2.13
293.15	0.01	1489.14	2.11
298.15	0.01	1502.61	2.09
303.15	0.01	1514.51	2.07
308.15	0.01	1524.53	2.06
288.15	0.015	1477.02	2.13
293.15	0.015	1492.15	2.11
298.15	0.015	1505.26	2.09
303.15	0.015	1516.71	2.07
308.15	0.015	1526.42	2.06
288.15	0.02	1480.54	2.13
293.15	0.02	1495.34	2.08
298.15	0.02	1508.19	2.07
303.15	0.02	1519.47	2.06
308.15	0.02	1528.82	2.07
288.15	0	1466.52	2.01
293.15	0	1482.66	2.01
298.15	0	1496.96	2.01
303.15	0	1509.44	2.01
308.15	0	1520.15	2.01

System: 1-octyl-4-methylpyridinium bromide + water; phases: Liquid
Fixed: Pressure, kPa = 100
Property: Viscosity, Pa*s (Liquid); method: Falling or rolling sphere viscometry
Temperature, K	Mass fraction of 1-octyl-4-methylpyridinium bromide	Viscosity, Pa*s	uncertainty
288.15	0.01	0.001179	4.8e-05
293.15	0.01	0.001031	4.2e-05
298.15	0.01	0.000915	3.7e-05
303.15	0.01	0.000817	3.3e-05
308.15	0.01	0.000737	3e-05
288.15	0.015	0.001196	4.9e-05
293.15	0.015	0.001046	4.3e-05
298.15	0.015	0.000929	3.8e-05
303.15	0.015	0.000833	3.4e-05
308.15	0.015	0.000749	3.1e-05
288.15	0.02	0.001217	5e-05
293.15	0.02	0.001063	4.4e-05
298.15	0.02	0.000941	3.8e-05
303.15	0.02	0.000844	3.4e-05
308.15	0.02	0.00076	3.1e-05
288.15	0	0.001136	4.6e-05
293.15	0	0.001001	4.1e-05
298.15	0	0.00089	3.6e-05
303.15	0	0.000797	3.2e-05
308.15	0	0.000718	2.9e-05
