Measured thermophysical data. The (p,q,T) of (methanol + benzene) and (methanol + ethylbenzene)
Source: J. Chem. Thermodyn., 2005, 10.1016/j.jct.2005.03.006
Compound 1: benzene, C6H6, InChI=1S/C6H6/c1-2-4-6-5-3-1/h1-6H, purity 99.98%
Compound 2: methanol, CH4O, InChI=1S/CH4O/c1-2/h2H,1H3, purity 99.87%
Compound 3: ethylbenzene, C8H10, InChI=1S/C8H10/c1-2-8-6-4-3-5-7-8/h3-7H,2H2,1H3, purity 99.97%

System: methanol; phases: Liquid
Property: Mass density, kg/m3 (Liquid); method: Buoyancy - hydrostatic balance
Temperature, K	Pressure, kPa	Mass density, kg/m3	uncertainty
298.15	100	792.6	10
298.15	5000	796.2	10
298.15	9900	801	10
298.15	19700	808.4	10
298.15	29500	816	10
298.15	39300	823.8	10
298.15	49100	830	10
298.15	58900	836.3	10
323.15	100	770.3	10
323.15	5000	774.2	10
323.15	9900	778.2	10
323.15	19700	787	10
323.15	29500	795	10
323.15	39300	803.4	10
323.15	49100	811	10
323.15	58900	818.2	10
348.15	5000	748.9	10
348.15	9900	753.9	10
348.15	19700	764.1	10
348.15	29500	773.1	10
348.15	39300	782.6	10
348.15	49100	790.9	10
348.15	58900	798.9	10
373.15	5000	721.1	10
373.15	9900	727.7	10
373.15	19700	739.3	10
373.15	29500	750.4	10
373.15	39300	760.2	10
373.15	49100	769.6	10
373.15	58900	778.2	10
398.15	5000	690	10
398.15	9900	697.6	10
398.15	19700	712.8	10
398.15	29500	725.4	10
398.15	39300	736	10
398.15	49100	747.2	10
398.15	58900	757	10
423.15	5000	652.8	10
423.15	9900	665.2	10
423.15	19700	683.6	10
423.15	29500	698.8	10
423.15	39300	710.8	10
423.15	49100	723.9	10
423.15	58900	735	10
448.15	5000	610.4	10
448.15	9900	628.9	10
448.15	19700	652.4	10
448.15	29500	670.8	10
448.15	39300	685.6	10
448.15	49100	700	10
448.15	58900	713	10
473.15	5000	553.4	10
473.15	9900	585	10
473.15	19700	620.2	10
473.15	29500	642	10
473.15	39300	660.6	10
473.15	49100	677.2	10
473.15	58900	691.2	10
498.15	9900	525	10
498.15	19700	584.8	10
498.15	29500	613.4	10
498.15	39300	636	10
498.15	49100	655	10
498.15	58900	670	10

System: ethylbenzene; phases: Liquid
Property: Mass density, kg/m3 (Liquid); method: Buoyancy - hydrostatic balance
Temperature, K	Pressure, kPa	Mass density, kg/m3	uncertainty
292.25	100	867	10
292.25	5000	870.8	10
292.25	9900	874	10
292.25	19700	881.3	10
292.25	29500	887.1	10
292.25	39300	893	10
292.25	49100	898.5	10
292.25	58900	903.8	10
313.45	100	849.1	10
313.45	5000	853.1	10
313.45	19700	864.4	10
313.45	29500	871.4	10
313.45	39300	877.6	10
313.45	49100	883.6	10
313.45	58900	889.4	10
336.55	100	828.7	10
336.55	5000	833.6	10
336.55	9900	838.5	10
336.55	19700	845.8	10
336.55	29500	854	10
336.55	39300	860.9	10
336.55	49100	867.8	10
336.55	58900	873.6	10
358.81	100	808.4	10
358.81	5000	814.5	10
358.81	9900	820	10
358.81	19700	827.6	10
358.81	29500	836.8	10
358.81	39300	844.8	10
358.81	49100	852.4	10
358.81	58900	858.6	10
382.95	5000	793	10
382.95	9900	799	10
382.95	19700	808.1	10
382.95	29500	818.2	10
382.95	39300	827.1	10
382.95	49100	835.1	10
382.95	58900	842.5	10
408.05	5000	770.4	10
408.05	9900	777.3	10
408.05	19700	788.5	10
408.05	29500	799.7	10
408.05	39300	809.5	10
408.05	49100	817.9	10
408.05	58900	826	10
434.45	5000	746	10
434.45	9900	754.4	10
434.45	19700	768.1	10
434.45	29500	780.5	10
434.45	39300	791	10
434.45	49100	800.4	10
434.45	58900	808.6	10
461.85	5000	718.6	10
461.85	9900	728.8	10
461.85	19700	746.2	10
461.85	29500	760	10
461.85	39300	771.7	10
461.85	49100	782.3	10
461.85	58900	791	10
490.15	5000	687	10
490.15	9900	700	10
490.15	19700	720.9	10
490.15	29500	737.2	10
490.15	39300	750.7	10
490.15	49100	762.9	10
490.15	58900	773.2	10

System: methanol + benzene; phases: Liquid
Property: Mass density, kg/m3 (Liquid); method: Buoyancy - hydrostatic balance
Mass fraction of methanol	Pressure, kPa	Temperature, K	Mass density, kg/m3	uncertainty
0.25	100	291.15	857.7	10
0.25	100	313.66	835	10
0.25	5000	291.15	862	10
0.25	5000	313.66	840.1	10
0.25	5000	337.37	816.2	10
0.25	5000	361.64	789.2	10
0.25	5000	383.16	764.1	10
0.25	5000	407.66	732	10
0.25	5000	429.26	699.7	10
0.25	5000	453.2	659.6	10
0.25	5000	475.26	616.4	10
0.25	5000	497.17	566.6	10
0.25	9900	291.15	866.1	10
0.25	9900	313.66	844.8	10
0.25	9900	337.37	822.1	10
0.25	9900	361.64	796.5	10
0.25	9900	383.16	772.6	10
0.25	9900	407.66	741.5	10
0.25	9900	429.26	710.6	10
0.25	9900	453.2	673.3	10
0.25	9900	475.26	639.6	10
0.25	9900	497.17	598.9	10
0.25	19700	291.15	873.8	10
0.25	19700	313.66	852.9	10
0.25	19700	337.37	831	10
0.25	19700	361.64	806.8	10
0.25	19700	383.16	784.4	10
0.25	19700	407.66	757.6	10
0.25	19700	429.26	731.1	10
0.25	19700	453.2	699.7	10
0.25	19700	475.26	669.8	10
0.25	19700	497.17	639	10
0.25	29500	291.15	880.6	10
0.25	29500	313.66	860.8	10
0.25	29500	337.37	840	10
0.25	29500	361.64	817.1	10
0.25	29500	383.16	796.3	10
0.25	29500	407.66	771.3	10
0.25	29500	429.26	748.2	10
0.25	29500	453.2	720.8	10
0.25	29500	475.26	694.3	10
0.25	29500	497.17	664.5	10
0.25	39300	291.15	887.3	10
0.25	39300	313.66	868.4	10
0.25	39300	337.37	848.3	10
0.25	39300	361.64	826.9	10
0.25	39300	383.16	807.6	10
0.25	39300	407.66	784.6	10
0.25	39300	429.26	762.9	10
0.25	39300	453.2	736.9	10
0.25	39300	475.26	710.8	10
0.25	39300	497.17	684.2	10
0.25	49100	291.15	893.2	10
0.25	49100	313.66	875.1	10
0.25	49100	337.37	856	10
0.25	49100	361.64	835	10
0.25	49100	383.16	815.9	10
0.25	49100	407.66	793.3	10
0.25	49100	429.26	773	10
0.25	49100	453.2	748.8	10
0.25	49100	475.26	725.7	10
0.25	49100	497.17	701.6	10
0.25	58900	291.15	899.1	10
0.25	58900	313.66	881	10
0.25	58900	337.37	862.7	10
0.25	58900	361.64	842.7	10
0.25	58900	383.16	824.8	10
0.25	58900	407.66	803.2	10
0.25	58900	429.26	783.8	10
0.25	58900	453.2	760.9	10
0.25	58900	475.26	739.4	10
0.25	58900	497.17	717	10
0.5	100	287.65	840.5	10
0.5	100	297.35	830.9	10
0.5	100	322.15	806.5	10
0.5	5000	287.65	844.4	10
0.5	5000	297.35	835.6	10
0.5	5000	322.15	811.8	10
0.5	5000	341.35	791.4	10
0.5	5000	356.15	775.2	10
0.5	5000	376.65	750.9	10
0.5	5000	402.15	718.4	10
0.5	5000	428.15	678.8	10
0.5	5000	453.65	634	10
0.5	5000	497.15	520.7	10
0.5	9900	287.65	847.9	10
0.5	9900	297.35	839.9	10
0.5	9900	322.15	817	10
0.5	9900	341.35	797.7	10
0.5	9900	356.15	781.8	10
0.5	9900	376.65	758.2	10
0.5	9900	402.15	726.6	10
0.5	9900	428.15	689.5	10
0.5	9900	453.65	649.1	10
0.5	9900	497.15	570	10
0.5	19700	287.65	855.8	10
0.5	19700	297.35	847.7	10
0.5	19700	322.15	825.3	10
0.5	19700	341.35	807.3	10
0.5	19700	356.15	792	10
0.5	19700	376.65	770.8	10
0.5	19700	402.15	742.7	10
0.5	19700	428.15	710.6	10
0.5	19700	453.65	676.5	10
0.5	19700	497.15	617.6	10
0.5	29500	287.65	863	10
0.5	29500	297.35	855	10
0.5	29500	322.15	833.4	10
0.5	29500	341.35	816.2	10
0.5	29500	356.15	802.8	10
0.5	29500	376.65	784	10
0.5	29500	402.15	757.7	10
0.5	29500	428.15	728.7	10
0.5	29500	453.65	697.6	10
0.5	29500	497.15	643.1	10
0.5	39300	287.65	869.5	10
0.5	39300	297.35	862.1	10
0.5	39300	322.15	841.4	10
0.5	39300	341.35	825.1	10
0.5	39300	356.15	811.7	10
0.5	39300	376.65	793.2	10
0.5	39300	402.15	769	10
0.5	39300	428.15	742.1	10
0.5	39300	453.65	714	10
0.5	39300	497.15	661.9	10
0.5	49100	287.65	875.2	10
0.5	49100	297.35	868	10
0.5	49100	322.15	848.2	10
0.5	49100	341.35	832.9	10
0.5	49100	356.15	819.8	10
0.5	49100	376.65	801.8	10
0.5	49100	402.15	778.9	10
0.5	49100	428.15	753.2	10
0.5	49100	453.65	727	10
0.5	49100	497.15	680.8	10
0.5	58900	287.65	881	10
0.5	58900	297.35	874	10
0.5	58900	322.15	855.1	10
0.5	58900	341.35	840	10
0.5	58900	356.15	827.6	10
0.5	58900	402.15	788.6	10
0.5	58900	428.15	764.7	10
0.5	58900	453.65	739.3	10
0.5	58900	497.15	694.6	10
0.75	100	292.65	815.2	10
0.75	100	314.15	795.6	10
0.75	5000	292.65	819.9	10
0.75	5000	314.15	800.3	10
0.75	5000	338.35	776.6	10
0.75	5000	361.65	750.9	10
0.75	5000	383.15	724.9	10
0.75	5000	406.65	693.4	10
0.75	5000	431.35	656.6	10
0.75	5000	458.5	605.4	10
0.75	5000	477.35	558.2	10
0.75	5000	496.65	483.6	10
0.75	9900	292.65	824.2	10
0.75	9900	314.15	804.7	10
0.75	9900	338.35	781.6	10
0.75	9900	361.65	757	10
0.75	9900	383.15	732.5	10
0.75	9900	406.65	703.3	10
0.75	9900	431.35	667.9	10
0.75	9900	458.5	624.7	10
0.75	9900	477.35	590.9	10
0.75	9900	496.65	549.1	10
0.75	19700	292.65	832.1	10
0.75	19700	314.15	813	10
0.75	19700	338.35	791	10
0.75	19700	361.65	767.9	10
0.75	19700	383.15	745	10
0.75	19700	406.65	718.9	10
0.75	19700	431.35	689.5	10
0.75	19700	458.5	653.6	10
0.75	19700	477.35	628.5	10
0.75	19700	496.65	601.8	10
0.75	29500	292.65	839.2	10
0.75	29500	314.15	821.1	10
0.75	29500	338.35	800.2	10
0.75	29500	361.65	778.4	10
0.75	29500	383.15	757.4	10
0.75	29500	406.65	733.3	10
0.75	29500	431.35	706.7	10
0.75	29500	458.5	674.8	10
0.75	29500	477.35	652.3	10
0.75	29500	496.65	628.5	10
0.75	39300	292.65	846.4	10
0.75	39300	314.15	828.8	10
0.75	39300	338.35	809	10
0.75	39300	361.65	788.1	10
0.75	39300	383.15	768.2	10
0.75	39300	406.65	745	10
0.75	39300	431.35	720	10
0.75	39300	458.5	690.2	10
0.75	39300	477.35	669.8	10
0.75	39300	496.65	647.8	10
0.75	49100	292.65	852.5	10
0.75	49100	314.15	835.9	10
0.75	49100	338.35	817.1	10
0.75	49100	361.65	797	10
0.75	49100	383.15	777.8	10
0.75	49100	406.65	755.9	10
0.75	49100	431.35	732.5	10
0.75	49100	458.5	705	10
0.75	49100	477.35	686.2	10
0.75	49100	496.65	665.6	10
0.75	58900	292.65	858.7	10
0.75	58900	338.35	823.9	10
0.75	58900	361.65	804.9	10
0.75	58900	383.15	786.9	10
0.75	58900	406.65	766.2	10
0.75	58900	431.35	744.1	10
0.75	58900	458.5	718.3	10
0.75	58900	477.35	699.9	10
0.75	58900	496.65	680.8	10

System: methanol + ethylbenzene; phases: Liquid
Property: Mass density, kg/m3 (Liquid); method: Buoyancy - hydrostatic balance
Mass fraction of methanol	Pressure, kPa	Temperature, K	Mass density, kg/m3	uncertainty
0.25	100	292.65	848	10
0.25	100	314.65	828.6	10
0.25	5000	292.65	851.5	10
0.25	5000	314.65	833.1	10
0.25	5000	335.45	815	10
0.25	5000	359.95	790.3	10
0.25	5000	385.75	763.2	10
0.25	5000	407.15	739	10
0.25	5000	433.5	707.9	10
0.25	5000	460.45	668.7	10
0.25	5000	497.95	623	10
0.25	9900	292.65	855.3	10
0.25	9900	314.65	837.2	10
0.25	9900	335.45	819.5	10
0.25	9900	359.95	796.2	10
0.25	9900	385.75	770.7	10
0.25	9900	407.15	748.1	10
0.25	9900	433.5	719.4	10
0.25	9900	460.45	683.4	10
0.25	9900	497.95	640.4	10
0.25	19700	292.65	862.7	10
0.25	19700	314.65	845.1	10
0.25	19700	335.45	828.3	10
0.25	19700	359.95	807.6	10
0.25	19700	385.75	785.7	10
0.25	19700	407.15	765	10
0.25	19700	433.5	739	10
0.25	19700	460.45	708.2	10
0.25	19700	497.95	671	10
0.25	29700	292.65	868.8	10
0.25	29700	314.65	852	10
0.25	29700	335.45	836.8	10
0.25	29700	359.95	817.7	10
0.25	29700	385.75	797.4	10
0.25	29700	407.15	778.9	10
0.25	29700	433.5	755.8	10
0.25	29700	460.45	727.1	10
0.25	29700	497.95	693.7	10
0.25	39300	292.65	874.8	10
0.25	39300	314.65	859	10
0.25	39300	335.45	844.1	10
0.25	39300	359.95	825.5	10
0.25	39300	385.75	806	10
0.25	39300	433.5	767	10
0.25	39300	460.45	740.5	10
0.25	39300	497.95	710.4	10
0.25	49100	292.65	880.7	10
0.25	49100	314.65	869.3	10
0.25	49100	335.45	850.4	10
0.25	49100	359.95	831.8	10
0.25	49100	385.75	813	10
0.25	49100	407.15	796.4	10
0.25	49100	433.5	775	10
0.25	49100	460.45	751.2	10
0.25	49100	497.95	724.5	10
0.25	58900	292.65	886.8	10
0.25	58900	314.65	871.5	10
0.25	58900	335.45	856.4	10
0.25	58900	359.95	838	10
0.25	58900	385.75	819.7	10
0.25	58900	407.15	804.1	10
0.25	58900	433.5	784.4	10
0.25	58900	460.45	761.5	10
0.25	58900	497.95	736	10
0.5	100	292.05	830.6	10
0.5	100	314.55	810.8	10
0.5	5000	292.05	834.1	10
0.5	5000	314.55	815.2	10
0.5	5000	337.65	794.3	10
0.5	5000	360.45	771.3	10
0.5	5000	384.45	744	10
0.5	5000	408.15	713.2	10
0.5	5000	434.15	677.4	10
0.5	5000	460.25	634.7	10
0.5	5000	491.15	554	10
0.5	9900	292.05	838.5	10
0.5	9900	314.55	819.6	10
0.5	9900	337.65	799.5	10
0.5	9900	360.45	778.5	10
0.5	9900	384.45	754.8	10
0.5	9900	408.15	729.5	10
0.5	9900	434.15	695.9	10
0.5	9900	460.25	653.7	10
0.5	9900	491.15	594.2	10
0.5	19700	292.05	845.6	10
0.5	19700	314.55	827.8	10
0.5	19700	337.65	808.3	10
0.5	19700	360.45	788.1	10
0.5	19700	384.45	766.4	10
0.5	19700	408.15	742.4	10
0.5	19700	434.15	712.8	10
0.5	19700	460.25	677.5	10
0.5	19700	491.15	633.2	10
0.5	29700	292.05	852.2	10
0.5	29700	314.55	835.2	10
0.5	29700	337.65	816.7	10
0.5	29700	360.45	797.9	10
0.5	29700	384.45	777.5	10
0.5	29700	408.15	754.8	10
0.5	29700	434.15	728.6	10
0.5	29700	460.25	697.7	10
0.5	29700	491.15	656.5	10
0.5	39300	292.05	858.6	10
0.5	39300	314.55	842	10
0.5	39300	337.65	824.4	10
0.5	39300	360.45	806.5	10
0.5	39300	384.45	786.6	10
0.5	39300	408.15	765.3	10
0.5	39300	434.15	741.1	10
0.5	39300	460.25	713.4	10
0.5	49100	292.05	864.4	10
0.5	49100	314.55	848.6	10
0.5	49100	337.65	831.7	10
0.5	49100	360.45	814.1	10
0.5	49100	384.45	797.7	10
0.5	49100	408.15	774.1	10
0.5	49100	434.15	751.2	10
0.5	49100	460.25	726.4	10
0.5	49100	491.15	693	10
0.5	58900	292.05	871.2	10
0.5	58900	314.55	854.4	10
0.5	58900	337.65	837.8	10
0.5	58900	360.45	820.5	10
0.5	58900	384.45	801.6	10
0.5	58900	408.15	783	10
0.5	58900	434.15	761.4	10
0.5	58900	460.25	738.3	10
0.5	58900	491.15	708.6	10
0.75	100	292.4	813.3	10
0.75	100	317.6	795.3	10
0.75	5000	292.4	817.6	10
0.75	5000	317.6	799.8	10
0.75	5000	335.35	778.8	10
0.75	5000	358.8	754.4	10
0.75	5000	384.05	725.4	10
0.75	5000	410.05	691	10
0.75	5000	434.35	654.7	10
0.75	5000	459.55	608.3	10
0.75	5000	489.65	527.2	10
0.75	9900	292.4	822.1	10
0.75	9900	317.6	804	10
0.75	9900	335.35	783	10
0.75	9900	358.8	759.7	10
0.75	9900	384.05	732.8	10
0.75	9900	410.05	701	10
0.75	9900	434.35	668.2	10
0.75	9900	459.55	628.7	10
0.75	9900	489.65	571	10
0.75	19700	292.4	827.7	10
0.75	19700	317.6	810.8	10
0.75	19700	335.35	790.7	10
0.75	19700	358.8	768.5	10
0.75	19700	384.05	743	10
0.75	19700	410.05	714.3	10
0.75	19700	434.35	686	10
0.75	19700	459.55	651.4	10
0.75	19700	489.65	607	10
0.75	29700	292.4	836.5	10
0.75	29700	317.6	820.2	10
0.75	29700	335.35	801.3	10
0.75	29700	358.8	780.5	10
0.75	29700	384.05	757.2	10
0.75	29700	410.05	731.6	10
0.75	29700	434.35	706.5	10
0.75	29700	459.55	677.4	10
0.75	29700	489.65	640.3	10
0.75	39300	292.4	843	10
0.75	39300	317.6	827.4	10
0.75	39300	335.35	809.4	10
0.75	39300	358.8	789.6	10
0.75	39300	384.05	767.3	10
0.75	39300	410.05	742.6	10
0.75	39300	434.35	719	10
0.75	39300	459.55	692.5	10
0.75	39300	489.65	659.7	10
0.75	49100	292.4	848.8	10
0.75	49100	317.6	833.6	10
0.75	49100	335.35	816.4	10
0.75	49100	358.8	797.4	10
0.75	49100	384.05	776.2	10
0.75	49100	410.05	753.1	10
0.75	49100	434.35	730.7	10
0.75	49100	459.55	706.4	10
0.75	49100	489.65	677.3	10
0.75	58900	292.4	855.8	10
0.75	58900	317.6	840.4	10
0.75	58900	335.35	823.5	10
0.75	58900	358.8	805.5	10
0.75	58900	384.05	785.4	10
0.75	58900	410.05	763	10
0.75	58900	434.35	742.3	10
0.75	58900	459.55	719.5	10
0.75	58900	489.65	692.8	10
