Measured thermophysical data. Comparative study of physico-chemical properties of binary mixtures of N,N-dimethylformamide with 1-alkanols at different temperatures
Source: J. Chem. Thermodyn., 2012, 10.1016/j.jct.2011.12.002
Compound 1: pentan-1-ol, C5H12O, InChI=1S/C5H12O/c1-2-3-4-5-6/h6H,2-5H2,1H3, purity 99.5%
Compound 2: hexan-1-ol, C6H14O, InChI=1S/C6H14O/c1-2-3-4-5-6-7/h7H,2-6H2,1H3, purity 99.5%
Compound 3: heptan-1-ol, C7H16O, InChI=1S/C7H16O/c1-2-3-4-5-6-7-8/h8H,2-7H2,1H3, purity 99%
Compound 4: dimethylformamide, C3H7NO, InChI=1S/C3H7NO/c1-4(2)3-5/h3H,1-2H3, purity 99.8%

System: pentan-1-ol; phases: Liquid
Fixed: Pressure, kPa = 101.325
Property: Refractive index (Na D-line) (Liquid); method: Standard Abbe refractometry
Temperature, K	Refractive index (Na D-line)	uncertainty
298.15	1.4085	0.0009
303.15	1.4069	0.0009
308.15	1.4059	0.0009
313.15	1.4039	0.0009

System: pentan-1-ol; phases: Liquid
Fixed: Pressure, kPa = 101
Property: Speed of sound, m/s (Liquid); method: Sing-around technique in a fixed-path interferometer
Temperature, K	Speed of sound, m/s	uncertainty
298.15	1275	1.24
303.15	1258.3	1.24
308.15	1247.6	1.24
313.15	1225	1.24

System: pentan-1-ol; phases: Liquid
Fixed: Pressure, kPa = 101
Property: Mass density, kg/m3 (Liquid); method: Vibrating tube method
Temperature, K	Mass density, kg/m3	uncertainty
298.15	810.19	0.237
303.15	806.5	0.237
308.15	802.79	0.237
313.15	799.05	0.238

System: hexan-1-ol; phases: Liquid
Fixed: Pressure, kPa = 101.325
Property: Refractive index (Na D-line) (Liquid); method: Standard Abbe refractometry
Temperature, K	Refractive index (Na D-line)	uncertainty
298.15	1.416	0.0009
303.15	1.4157	0.0009
308.15	1.4141	0.0009
313.15	1.4127	0.0009

System: hexan-1-ol; phases: Liquid
Fixed: Pressure, kPa = 101
Property: Speed of sound, m/s (Liquid); method: Sing-around technique in a fixed-path interferometer
Temperature, K	Speed of sound, m/s	uncertainty
298.15	1304.72	1.25
303.15	1287.9	1.25
308.15	1271.14	1.24
313.15	1251.6	1.24

System: hexan-1-ol; phases: Liquid
Fixed: Pressure, kPa = 101
Property: Mass density, kg/m3 (Liquid); method: Vibrating tube method
Temperature, K	Mass density, kg/m3	uncertainty
298.15	815.33	0.236
303.15	812.118	0.236
308.15	808.482	0.237
313.15	804.511	0.237

System: heptan-1-ol; phases: Liquid
Fixed: Pressure, kPa = 101.325
Property: Refractive index (Na D-line) (Liquid); method: Standard Abbe refractometry
Temperature, K	Refractive index (Na D-line)	uncertainty
298.15	1.4226	0.0009
303.15	1.4204	0.0009
308.15	1.419	0.0009
313.15	1.4176	0.0009

System: heptan-1-ol; phases: Liquid
Fixed: Pressure, kPa = 101
Property: Speed of sound, m/s (Liquid); method: Sing-around technique in a fixed-path interferometer
Temperature, K	Speed of sound, m/s	uncertainty
298.15	1327.32	1.25
303.15	1310.58	1.25
308.15	1293.86	1.25
313.15	1277.15	1.24

System: heptan-1-ol; phases: Liquid
Fixed: Pressure, kPa = 101
Property: Mass density, kg/m3 (Liquid); method: Vibrating tube method
Temperature, K	Mass density, kg/m3	uncertainty
298.15	818.802	0.236
303.15	815.287	0.236
308.15	811.737	0.237
313.15	808.092	0.237

System: dimethylformamide; phases: Liquid
Fixed: Pressure, kPa = 101.325
Property: Refractive index (Na D-line) (Liquid); method: Standard Abbe refractometry
Temperature, K	Refractive index (Na D-line)	uncertainty
298.15	1.428	0.0009
303.15	1.4271	0.0009
308.15	1.4252	0.0009
313.15	1.4222	0.0009

System: dimethylformamide; phases: Liquid
Fixed: Pressure, kPa = 101
Property: Speed of sound, m/s (Liquid); method: Sing-around technique in a fixed-path interferometer
Temperature, K	Speed of sound, m/s	uncertainty
298.15	1457.69	1.28
303.15	1438.26	1.27
308.15	1421.95	1.27
313.15	1395.69	1.27

System: dimethylformamide; phases: Liquid
Fixed: Pressure, kPa = 101
Property: Mass density, kg/m3 (Liquid); method: Vibrating tube method
Temperature, K	Mass density, kg/m3	uncertainty
298.15	944.29	0.233
303.15	939.047	0.232
308.15	934.721	0.232
313.15	929.478	0.233

System: dimethylformamide + pentan-1-ol; phases: Liquid
Fixed: Pressure, kPa = 101
Property: Refractive index (Na D-line) (Liquid); method: Standard Abbe refractometry
Temperature, K	Mole fraction of dimethylformamide	Refractive index (Na D-line)	uncertainty
298.15	0	1.4085	0.0009
298.15	0.126	1.4102	0.0009
298.15	0.2626	1.4121	0.0009
298.15	0.4616	1.4151	0.0009
298.15	0.535	1.4164	0.0009
298.15	0.6372	1.4184	0.0009
298.15	0.6957	1.4197	0.0009
298.15	0.8152	1.4226	0.0009
298.15	0.8648	1.424	0.0009
298.15	0.94	1.4261	0.0009
298.15	1	1.428	0.0009
303.15	0	1.4069	0.0009
303.15	0.126	1.4085	0.0009
303.15	0.2626	1.4105	0.0009
303.15	0.4616	1.4137	0.0009
303.15	0.535	1.415	0.0009
303.15	0.6372	1.4171	0.0009
303.15	0.6957	1.4184	0.0009
303.15	0.8152	1.4214	0.0009
303.15	0.8648	1.4228	0.0009
303.15	0.94	1.425	0.0009
303.15	1	1.4271	0.0009
308.15	0	1.4059	0.0009
308.15	0.126	1.4073	0.0009
308.15	0.2626	1.4091	0.0009
308.15	0.4616	1.4121	0.0009
308.15	0.535	1.4134	0.0009
308.15	0.6372	1.4154	0.0009
308.15	0.6957	1.4166	0.0009
308.15	0.8152	1.4195	0.0009
308.15	0.8648	1.4208	0.0009
308.15	0.94	1.423	0.0009
308.15	1	1.4252	0.0009
313.15	0	1.4039	0.0009
313.15	0.126	1.4051	0.0009
313.15	0.2626	1.4067	0.0009
313.15	0.4616	1.4095	0.0009
313.15	0.535	1.4107	0.0009
313.15	0.6372	1.4126	0.0009
313.15	0.6957	1.4138	0.0009
313.15	0.8152	1.4165	0.0009
313.15	0.8648	1.4179	0.0009
313.15	0.94	1.42	0.0009
313.15	1	1.4222	0.0009

System: dimethylformamide + pentan-1-ol; phases: Liquid
Fixed: Pressure, kPa = 101
Property: Speed of sound, m/s (Liquid); method: Sing-around technique in a fixed-path interferometer
Temperature, K	Mole fraction of dimethylformamide	Speed of sound, m/s	uncertainty
298.15	0	1275	1.24
298.15	0.0793	1284.16	1.25
298.15	0.2866	1312.7	1.26
298.15	0.4261	1338.17	1.26
298.15	0.5048	1353.33	1.26
298.15	0.6254	1377.69	1.27
298.15	0.6638	1385.72	1.27
298.15	0.7952	1414.28	1.27
298.15	0.8706	1431.36	1.28
298.15	0.9363	1446.69	1.28
298.15	1	1457.69	1.28
303.15	0	1258.3	1.24
303.15	0.0793	1266.27	1.24
303.15	0.2866	1292.3	1.25
303.15	0.4261	1315.43	1.25
303.15	0.5048	1330.4	1.26
303.15	0.6254	1354.45	1.26
303.15	0.6638	1362.39	1.26
303.15	0.7952	1390.6	1.27
303.15	0.8706	1407.48	1.27
303.15	0.9363	1422.65	1.27
303.15	1	1438.26	1.27
308.15	0	1247.6	1.24
308.15	0.0793	1254.88	1.24
308.15	0.2866	1278.92	1.25
308.15	0.4261	1299.69	1.25
308.15	0.5048	1314.45	1.25
308.15	0.6254	1338.18	1.26
308.15	0.6638	1346.02	1.26
308.15	0.7952	1373.87	1.27
308.15	0.8706	1390.54	1.27
308.15	0.9363	1405.51	1.27
308.15	1	1421.95	1.27
313.15	0	1225	1.24
313.15	0.0793	1231.89	1.24
313.15	0.2866	1254.1	1.25
313.15	0.4261	1273.51	1.25
313.15	0.5048	1286.77	1.26
313.15	0.6254	1308.98	1.26
313.15	0.6638	1316.62	1.26
313.15	0.7952	1344.22	1.27
313.15	0.8706	1360.68	1.27
313.15	0.9363	1377.48	1.27
313.15	1	1395.69	1.27

System: dimethylformamide + pentan-1-ol; phases: Liquid
Fixed: Pressure, kPa = 101
Property: Mass density, kg/m3 (Liquid); method: Vibrating tube method
Temperature, K	Mole fraction of dimethylformamide	Mass density, kg/m3	uncertainty
298.15	0	810.19	0.237
298.15	0.0793	817.703	0.237
298.15	0.2866	839.145	0.236
298.15	0.4261	855.287	0.235
298.15	0.5048	865.191	0.235
298.15	0.6254	881.628	0.234
298.15	0.6638	887.222	0.234
298.15	0.7952	907.753	0.234
298.15	0.8706	920.481	0.234
298.15	0.9363	932.248	0.233
298.15	1	944.29	0.233
303.15	0	806.5	0.237
303.15	0.0793	813.902	0.237
303.15	0.2866	834.991	0.236
303.15	0.4261	850.948	0.235
303.15	0.5048	860.771	0.234
303.15	0.6254	877.057	0.234
303.15	0.6638	882.57	0.234
303.15	0.7952	902.852	0.233
303.15	0.8706	915.438	0.233
303.15	0.9363	927.121	0.233
303.15	1	939.047	0.232
308.15	0	802.79	0.237
308.15	0.0793	810.085	0.237
308.15	0.2866	831.008	0.236
308.15	0.4261	846.912	0.235
308.15	0.5048	856.66	0.235
308.15	0.6254	872.883	0.234
308.15	0.6638	878.372	0.234
308.15	0.7952	898.571	0.233
308.15	0.8706	911.093	0.233
308.15	0.9363	922.718	0.233
308.15	1	934.721	0.232
313.15	0	799.05	0.238
313.15	0.0793	806.206	0.237
313.15	0.2866	826.869	0.236
313.15	0.4261	842.544	0.235
313.15	0.5048	852.209	0.235
313.15	0.6254	868.222	0.234
313.15	0.6638	873.663	0.234
313.15	0.7952	893.602	0.233
313.15	0.8706	906.016	0.233
313.15	0.9363	917.522	0.233
313.15	1	929.478	0.233

System: dimethylformamide + pentan-1-ol; phases: Liquid
Fixed: Pressure, kPa = 101
Property: Excess molar volume, m3/mol (Liquid); method: Calculated with densities of this investigation
Temperature, K	Mole fraction of dimethylformamide	Excess molar volume, m3/mol	uncertainty
298.15	0	0	1e-08
298.15	0.0793	3e-08	8e-09
298.15	0.2866	1.02e-07	8e-09
298.15	0.4261	1.4e-07	8e-09
298.15	0.5048	1.47e-07	8e-09
298.15	0.6254	1.38e-07	8e-09
298.15	0.6638	1.29e-07	8e-09
298.15	0.7952	8.4e-08	8e-09
298.15	0.8706	5.6e-08	8e-09
298.15	0.9363	2.9e-08	8e-09
298.15	1	0	1e-08
303.15	0	0	1e-08
303.15	0.0793	3.4e-08	8e-09
303.15	0.2866	1.2e-07	8e-09
303.15	0.4261	1.57e-07	8e-09
303.15	0.5048	1.61e-07	8e-09
303.15	0.6254	1.47e-07	8e-09
303.15	0.6638	1.39e-07	8e-09
303.15	0.7952	9.4e-08	8e-09
303.15	0.8706	6.4e-08	8e-09
303.15	0.9363	3.2e-08	8e-09
303.15	1	0	1e-08
308.15	0	0	1e-08
308.15	0.0793	4.4e-08	8e-09
308.15	0.2866	1.38e-07	8e-09
308.15	0.4261	1.72e-07	8e-09
308.15	0.5048	1.78e-07	8e-09
308.15	0.6254	1.61e-07	8e-09
308.15	0.6638	1.53e-07	8e-09
308.15	0.7952	1.06e-07	8e-09
308.15	0.8706	7.6e-08	8e-09
308.15	0.9363	4.3e-08	8e-09
308.15	1	0	1e-08
313.15	0	0	1e-08
313.15	0.0793	5.2e-08	8e-09
313.15	0.2866	1.5e-07	8e-09
313.15	0.4261	1.89e-07	8e-09
313.15	0.5048	1.92e-07	8e-09
313.15	0.6254	1.77e-07	8e-09
313.15	0.6638	1.67e-07	8e-09
313.15	0.7952	1.21e-07	8e-09
313.15	0.8706	8.7e-08	8e-09
313.15	0.9363	5.2e-08	8e-09
313.15	1	0	1e-08

System: dimethylformamide + hexan-1-ol; phases: Liquid
Fixed: Pressure, kPa = 101
Property: Refractive index (Na D-line) (Liquid); method: Standard Abbe refractometry
Temperature, K	Mole fraction of dimethylformamide	Refractive index (Na D-line)	uncertainty
298.15	0	1.416	0.0009
298.15	0.1471	1.417	0.0009
298.15	0.2616	1.4178	0.0009
298.15	0.46	1.4195	0.0009
298.15	0.572	1.4207	0.0009
298.15	0.6732	1.422	0.0009
298.15	0.7554	1.4232	0.0009
298.15	0.8187	1.4243	0.0009
298.15	0.8856	1.4255	0.0009
298.15	0.9456	1.4268	0.0009
298.15	1	1.428	0.0009
303.15	0	1.4157	0.0009
303.15	0.1471	1.4165	0.0009
303.15	0.2616	1.4172	0.0009
303.15	0.46	1.4188	0.0009
303.15	0.572	1.4198	0.0009
303.15	0.6732	1.421	0.0009
303.15	0.7554	1.4222	0.0009
303.15	0.8187	1.4232	0.0009
303.15	0.8856	1.4245	0.0009
303.15	0.9456	1.4257	0.0009
303.15	1	1.4271	0.0009
308.15	0	1.4141	0.0009
308.15	0.1471	1.4147	0.0009
308.15	0.2616	1.4154	0.0009
308.15	0.46	1.4169	0.0009
308.15	0.572	1.4178	0.0009
308.15	0.6732	1.4189	0.0009
308.15	0.7554	1.42	0.0009
308.15	0.8187	1.4211	0.0009
308.15	0.8856	1.4224	0.0009
308.15	0.9456	1.4237	0.0009
308.15	1	1.4252	0.0009
313.15	0	1.4127	0.0009
313.15	0.1471	1.413	0.0009
313.15	0.2616	1.4135	0.0009
313.15	0.46	1.4146	0.0009
313.15	0.572	1.4154	0.0009
313.15	0.6732	1.4163	0.0009
313.15	0.7554	1.4173	0.0009
313.15	0.8187	1.4182	0.0009
313.15	0.8856	1.4194	0.0009
313.15	0.9456	1.4206	0.0009
313.15	1	1.4222	0.0009

System: dimethylformamide + hexan-1-ol; phases: Liquid
Fixed: Pressure, kPa = 101
Property: Speed of sound, m/s (Liquid); method: Sing-around technique in a fixed-path interferometer
Temperature, K	Mole fraction of dimethylformamide	Speed of sound, m/s	uncertainty
298.15	0	1304.72	1.25
298.15	0.1669	1320.31	1.25
298.15	0.3181	1336.09	1.26
298.15	0.4602	1353.26	1.26
298.15	0.5702	1368.85	1.27
298.15	0.6593	1383.12	1.27
298.15	0.7442	1398.71	1.27
298.15	0.8184	1413.86	1.27
298.15	0.8862	1429.08	1.28
298.15	0.9444	1443.16	1.28
298.15	1	1457.69	1.28
303.15	0	1287.9	1.25
303.15	0.1669	1301.38	1.25
303.15	0.3181	1315.89	1.25
303.15	0.4602	1332.07	1.26
303.15	0.5702	1346.87	1.26
303.15	0.6593	1360.84	1.27
303.15	0.7442	1376.12	1.27
303.15	0.8184	1391.58	1.27
303.15	0.8862	1407.34	1.27
303.15	0.9444	1422.63	1.27
303.15	1	1438.26	1.27
308.15	0	1271.14	1.24
308.15	0.1669	1281.24	1.25
308.15	0.3181	1293.03	1.25
308.15	0.4602	1307.45	1.26
308.15	0.5702	1321.49	1.26
308.15	0.6593	1335.29	1.26
308.15	0.7442	1350.99	1.27
308.15	0.8184	1367.27	1.27
308.15	0.8862	1384.92	1.27
308.15	0.9444	1402.57	1.27
308.15	1	1421.95	1.27
313.15	0	1251.6	1.24
313.15	0.1669	1260.04	1.24
313.15	0.3181	1270.64	1.25
313.15	0.4602	1284.03	1.25
313.15	0.5702	1297.27	1.25
313.15	0.6593	1310.34	1.26
313.15	0.7442	1325.36	1.26
313.15	0.8184	1341.33	1.26
313.15	0.8862	1358.62	1.27
313.15	0.9444	1375.95	1.27
313.15	1	1395.69	1.27

System: dimethylformamide + hexan-1-ol; phases: Liquid
Fixed: Pressure, kPa = 101
Property: Mass density, kg/m3 (Liquid); method: Vibrating tube method
Temperature, K	Mole fraction of dimethylformamide	Mass density, kg/m3	uncertainty
298.15	0	815.33	0.236
298.15	0.1669	828.988	0.236
298.15	0.3181	843.068	0.236
298.15	0.4602	858.176	0.235
298.15	0.5702	871.588	0.234
298.15	0.6593	883.724	0.234
298.15	0.7442	896.546	0.234
298.15	0.8184	908.876	0.234
298.15	0.8862	921.153	0.234
298.15	0.9444	932.567	0.234
298.15	1	944.29	0.233
303.15	0	812.118	0.236
303.15	0.1669	825.495	0.236
303.15	0.3181	839.324	0.235
303.15	0.4602	854.268	0.234
303.15	0.5702	867.468	0.234
303.15	0.6593	879.381	0.234
303.15	0.7442	891.958	0.233
303.15	0.8184	904.069	0.233
303.15	0.8862	916.169	0.233
303.15	0.9444	927.432	0.233
303.15	1	939.047	0.232
308.15	0	808.482	0.237
308.15	0.1669	821.705	0.236
308.15	0.3181	835.421	0.236
308.15	0.4602	850.294	0.235
308.15	0.5702	863.392	0.234
308.15	0.6593	875.223	0.234
308.15	0.7442	887.698	0.234
308.15	0.8184	899.717	0.233
308.15	0.8862	911.761	0.233
308.15	0.9444	923.026	0.233
308.15	1	934.721	0.232
313.15	0	804.511	0.237
313.15	0.1669	817.521	0.236
313.15	0.3181	831.029	0.235
313.15	0.4602	845.79	0.235
313.15	0.5702	858.77	0.234
313.15	0.6593	870.507	0.234
313.15	0.7442	882.883	0.234
313.15	0.8184	894.755	0.233
313.15	0.8862	906.671	0.233
313.15	0.9444	917.843	0.233
313.15	1	929.478	0.233

System: dimethylformamide + hexan-1-ol; phases: Liquid
Fixed: Pressure, kPa = 101
Property: Excess molar volume, m3/mol (Liquid); method: Calculated with densities of this investigation
Temperature, K	Mole fraction of dimethylformamide	Excess molar volume, m3/mol	uncertainty
298.15	0	0	1e-08
298.15	0.1669	7.7e-08	8e-09
298.15	0.3181	1.45e-07	8e-09
298.15	0.4602	1.97e-07	8e-09
298.15	0.5702	2.05e-07	8e-09
298.15	0.6593	1.93e-07	8e-09
298.15	0.7442	1.64e-07	8e-09
298.15	0.8184	1.26e-07	8e-09
298.15	0.8862	8.5e-08	8e-09
298.15	0.9444	4.3e-08	8e-09
298.15	1	0	1e-08
303.15	0	0	1e-08
303.15	0.1669	8.9e-08	8e-09
303.15	0.3181	1.61e-07	8e-09
303.15	0.4602	2.04e-07	8e-09
303.15	0.5702	2.12e-07	8e-09
303.15	0.6593	2.03e-07	8e-09
303.15	0.7442	1.78e-07	8e-09
303.15	0.8184	1.41e-07	8e-09
303.15	0.8862	9.7e-08	8e-09
303.15	0.9444	5e-08	8e-09
303.15	1	0	1e-08
308.15	0	0	1e-08
308.15	0.1669	1.01e-07	8e-09
308.15	0.3181	1.78e-07	8e-09
308.15	0.4602	2.18e-07	8e-09
308.15	0.5702	2.29e-07	8e-09
308.15	0.6593	2.22e-07	8e-09
308.15	0.7442	1.98e-07	8e-09
308.15	0.8184	1.63e-07	8e-09
308.15	0.8862	1.16e-07	8e-09
308.15	0.9444	6.3e-08	8e-09
308.15	1	0	1e-08
313.15	0	0	1e-08
313.15	0.1669	1.14e-07	8e-09
313.15	0.3181	2e-07	8e-09
313.15	0.4602	2.34e-07	8e-09
313.15	0.5702	2.43e-07	8e-09
313.15	0.6593	2.32e-07	8e-09
313.15	0.7442	2.05e-07	8e-09
313.15	0.8184	1.71e-07	8e-09
313.15	0.8862	1.25e-07	8e-09
313.15	0.9444	6.9e-08	8e-09
313.15	1	0	1e-08

System: dimethylformamide + heptan-1-ol; phases: Liquid
Fixed: Pressure, kPa = 101
Property: Refractive index (Na D-line) (Liquid); method: Standard Abbe refractometry
Temperature, K	Mole fraction of dimethylformamide	Refractive index (Na D-line)	uncertainty
298.15	0	1.4226	0.0009
298.15	0.2235	1.4229	0.0009
298.15	0.3261	1.4231	0.0009
298.15	0.4965	1.4235	0.0009
298.15	0.6096	1.4241	0.0009
298.15	0.7074	1.4248	0.0009
298.15	0.7877	1.4255	0.0009
298.15	0.8544	1.4262	0.0009
298.15	0.9099	1.4269	0.0009
298.15	0.9459	1.4273	0.0009
298.15	1	1.428	0.0009
303.15	0	1.4204	0.0009
303.15	0.2235	1.4209	0.0009
303.15	0.3261	1.4211	0.0009
303.15	0.4965	1.4218	0.0009
303.15	0.6096	1.4226	0.0009
303.15	0.7074	1.4233	0.0009
303.15	0.7877	1.4241	0.0009
303.15	0.8544	1.4249	0.0009
303.15	0.9099	1.4257	0.0009
303.15	0.9459	1.4262	0.0009
303.15	1	1.4271	0.0009
308.15	0	1.419	0.0009
308.15	0.2235	1.4193	0.0009
308.15	0.3261	1.4195	0.0009
308.15	0.4965	1.42	0.0009
308.15	0.6096	1.4207	0.0009
308.15	0.7074	1.4214	0.0009
308.15	0.7877	1.4222	0.0009
308.15	0.8544	1.4229	0.0009
308.15	0.9099	1.4236	0.0009
308.15	0.9459	1.4242	0.0009
308.15	1	1.4252	0.0009
313.15	0	1.4176	0.0009
313.15	0.2235	1.4173	0.0009
313.15	0.3261	1.4174	0.0009
313.15	0.4965	1.4177	0.0009
313.15	0.6096	1.4182	0.0009
313.15	0.7074	1.4187	0.0009
313.15	0.7877	1.4193	0.0009
313.15	0.8544	1.42	0.0009
313.15	0.9099	1.4206	0.0009
313.15	0.9459	1.4211	0.0009
313.15	1	1.4222	0.0009

System: dimethylformamide + heptan-1-ol; phases: Liquid
Fixed: Pressure, kPa = 101
Property: Speed of sound, m/s (Liquid); method: Sing-around technique in a fixed-path interferometer
Temperature, K	Mole fraction of dimethylformamide	Speed of sound, m/s	uncertainty
298.15	0	1327.32	1.25
298.15	0.1852	1334.78	1.25
298.15	0.3466	1344.12	1.26
298.15	0.4928	1355.89	1.26
298.15	0.6004	1367.58	1.26
298.15	0.6878	1380.04	1.26
298.15	0.7679	1394.76	1.27
298.15	0.8369	1409.86	1.27
298.15	0.8984	1425.52	1.27
298.15	0.951	1441.11	1.28
298.15	1	1457.69	1.28
303.15	0	1310.58	1.25
303.15	0.1852	1317.71	1.25
303.15	0.3466	1326.85	1.25
303.15	0.4928	1338.4	1.25
303.15	0.6004	1349.77	1.26
303.15	0.6878	1361.83	1.26
303.15	0.7679	1375.88	1.26
303.15	0.8369	1390.69	1.26
303.15	0.8984	1406.33	1.27
303.15	0.951	1421.75	1.27
303.15	1	1438.26	1.27
308.15	0	1293.86	1.25
308.15	0.1852	1300.74	1.25
308.15	0.3466	1309.94	1.25
308.15	0.4928	1321.58	1.25
308.15	0.6004	1333.06	1.25
308.15	0.6878	1345.24	1.26
308.15	0.7679	1359.3	1.26
308.15	0.8369	1373.95	1.26
308.15	0.8984	1389.43	1.27
308.15	0.951	1405.16	1.27
308.15	1	1421.95	1.27
313.15	0	1277.15	1.24
313.15	0.1852	1283.24	1.24
313.15	0.3466	1291.41	1.25
313.15	0.4928	1302.13	1.25
313.15	0.6004	1312.92	1.25
313.15	0.6878	1324.2	1.25
313.15	0.7679	1337.21	1.26
313.15	0.8369	1350.8	1.26
313.15	0.8984	1365.34	1.27
313.15	0.951	1379.94	1.27
313.15	1	1395.69	1.27

System: dimethylformamide + heptan-1-ol; phases: Liquid
Fixed: Pressure, kPa = 101
Property: Mass density, kg/m3 (Liquid); method: Vibrating tube method
Temperature, K	Mole fraction of dimethylformamide	Mass density, kg/m3	uncertainty
298.15	0	818.802	0.236
298.15	0.1852	831.904	0.236
298.15	0.3466	845.532	0.236
298.15	0.4928	860.272	0.235
298.15	0.6004	873.098	0.235
298.15	0.6878	885.078	0.235
298.15	0.7679	897.547	0.234
298.15	0.8369	909.632	0.234
298.15	0.8984	921.608	0.234
298.15	0.951	932.867	0.234
298.15	1	944.29	0.233
303.15	0	815.287	0.236
303.15	0.1852	828.123	0.236
303.15	0.3466	841.523	0.235
303.15	0.4928	856.066	0.234
303.15	0.6004	868.69	0.234
303.15	0.6878	880.46	0.234
303.15	0.7679	892.711	0.233
303.15	0.8369	904.6	0.233
303.15	0.8984	916.428	0.233
303.15	0.951	927.588	0.233
303.15	1	939.047	0.232
308.15	0	811.737	0.237
308.15	0.1852	824.425	0.236
308.15	0.3466	837.709	0.235
308.15	0.4928	852.143	0.235
308.15	0.6004	864.638	0.234
308.15	0.6878	876.302	0.234
308.15	0.7679	888.442	0.234
308.15	0.8369	900.252	0.233
308.15	0.8984	912.037	0.233
308.15	0.951	923.226	0.233
308.15	1	934.721	0.232
313.15	0	808.092	0.237
313.15	0.1852	820.525	0.236
313.15	0.3466	833.606	0.235
313.15	0.4928	847.87	0.234
313.15	0.6004	860.225	0.234
313.15	0.6878	871.707	0.234
313.15	0.7679	883.661	0.234
313.15	0.8369	895.228	0.233
313.15	0.8984	906.853	0.233
313.15	0.951	917.945	0.233
313.15	1	929.478	0.233

System: dimethylformamide + heptan-1-ol; phases: Liquid
Fixed: Pressure, kPa = 101
Property: Excess molar volume, m3/mol (Liquid); method: Calculated with densities of this investigation
Temperature, K	Mole fraction of dimethylformamide	Excess molar volume, m3/mol	uncertainty
298.15	0	0	1e-08
298.15	0.1852	1.16e-07	8e-09
298.15	0.3466	2.03e-07	8e-09
298.15	0.4928	2.56e-07	8e-09
298.15	0.6004	2.63e-07	8e-09
298.15	0.6878	2.44e-07	8e-09
298.15	0.7679	2.06e-07	8e-09
298.15	0.8369	1.57e-07	8e-09
298.15	0.8984	1.03e-07	8e-09
298.15	0.951	5.1e-08	8e-09
298.15	1	0	1e-08
303.15	0	0	1e-08
303.15	0.1852	1.31e-07	8e-09
303.15	0.3466	2.23e-07	8e-09
303.15	0.4928	2.75e-07	8e-09
303.15	0.6004	2.84e-07	8e-09
303.15	0.6878	2.69e-07	8e-09
303.15	0.7679	2.34e-07	8e-09
303.15	0.8369	1.86e-07	8e-09
303.15	0.8984	1.28e-07	8e-09
303.15	0.951	6.9e-08	8e-09
303.15	1	0	1e-08
308.15	0	0	1e-08
308.15	0.1852	1.43e-07	8e-09
308.15	0.3466	2.39e-07	8e-09
308.15	0.4928	2.92e-07	8e-09
308.15	0.6004	3.06e-07	8e-09
308.15	0.6878	2.93e-07	8e-09
308.15	0.7679	2.6e-07	8e-09
308.15	0.8369	2.1e-07	8e-09
308.15	0.8984	1.48e-07	8e-09
308.15	0.951	7.9e-08	8e-09
308.15	1	0	1e-08
313.15	0	0	1e-08
313.15	0.1852	1.59e-07	8e-09
313.15	0.3466	2.59e-07	8e-09
313.15	0.4928	3.09e-07	8e-09
313.15	0.6004	3.19e-07	9e-09
313.15	0.6878	3.09e-07	8e-09
313.15	0.7679	2.77e-07	8e-09
313.15	0.8369	2.35e-07	8e-09
313.15	0.8984	1.72e-07	8e-09
313.15	0.951	9.6e-08	8e-09
313.15	1	0	1e-08
