Measured thermophysical data. The effect of 1-hexyl-3-methylimidazolium bromide ionic liquid as a co-solvent on the aqueous solubility of lamotrigine at T = (293.2-313.2) K
Source: J. Chem. Thermodyn., 2019, 10.1016/j.jct.2019.02.013
Compound 1: lamotrigine, C9H7Cl2N5, InChI=1S/C9H7Cl2N5/c10-5-3-1-2-4(6(5)11)7-8(12)14-9(13)16-15-7/h1-3H,(H4,12,13,14,16), purity 99%
Compound 2: 3-hexyl-1-methyl-1H-imidazolium bromide, C10H19BrN2, InChI=1S/C10H19N2.BrH/c1-3-4-5-6-7-12-9-8-11(2)10-12;/h8-10H,3-7H2,1-2H3;1H/q+1;/p-1
Compound 3: water, H2O, InChI=1S/H2O/h1H2

System: 3-hexyl-1-methyl-1H-imidazolium bromide; phases: Liquid
Property: Mass density, kg/m3 (Liquid); method: Vibrating tube method
Temperature, K	Pressure, kPa	Mass density, kg/m3	uncertainty
298.15	101.325	1223.8	2.3

System: 3-hexyl-1-methyl-1H-imidazolium bromide; phases: Liquid
Property: Refractive index (Na D-line) (Liquid); method: Standard Abbe refractometry
Temperature, K	Pressure, kPa	Refractive index (Na D-line)	uncertainty
298.15	101.325	1.529	0.02

System: 3-hexyl-1-methyl-1H-imidazolium bromide; phases: Liquid
Property: Speed of sound, m/s (Liquid); method: Single path-length method
Temperature, K	Pressure, kPa	Speed of sound, m/s	uncertainty
298.15	101.325	1587.2	2.2

System: lamotrigine + 3-hexyl-1-methyl-1H-imidazolium bromide + water; phases: Liquid, Crystal
Fixed: Pressure, kPa = 86.5
Property: Mole fraction of lamotrigine (Liquid); method: UV-Vis spectrophotometer
Temperature, K	Solvent: Mass fraction of 3-hexyl-1-methyl-1H-imidazolium bromide	Mole fraction of lamotrigine	uncertainty
293.2	0	8.4e-06	5e-06
298.2	0	1e-05	6e-06
303.2	0	1.2e-05	7e-06
308.2	0	1.7e-05	1e-05
313.2	0	2.1e-05	1.3e-05
293.2	0.097	3.3e-05	2e-05
298.2	0.097	4.4e-05	2.6e-05
303.2	0.097	5.7e-05	3.4e-05
308.2	0.097	7e-05	4.2e-05
313.2	0.097	8.4e-05	5e-05
293.2	0.199	9.1e-05	5.5e-05
298.2	0.199	0.00011	7e-05
303.2	0.199	0.00013	8e-05
308.2	0.199	0.00017	0.0001
313.2	0.199	0.00022	0.00013
293.2	0.296	0.00029	0.00017
298.2	0.296	0.00032	0.00019
303.2	0.296	0.00034	0.0002
308.2	0.296	0.00036	0.00022
313.2	0.296	0.00039	0.00023
293.2	0.389	0.00053	0.00032
298.2	0.389	0.00074	0.00044
303.2	0.389	0.00089	0.00053
308.2	0.389	0.0011	0.0007
313.2	0.389	0.0013	0.0008
293.2	0.491	0.0012	0.0007
298.2	0.491	0.002	0.0012
303.2	0.491	0.0017	0.001
308.2	0.491	0.002	0.0012
313.2	0.491	0.0024	0.0014
293.2	0.595	0.0026	0.0016
298.2	0.595	0.0031	0.0019
303.2	0.595	0.0036	0.0022
308.2	0.595	0.0039	0.0023
313.2	0.595	0.0044	0.0026
293.2	0.689	0.0044	0.0026
298.2	0.689	0.0052	0.0031
303.2	0.689	0.0057	0.0034
308.2	0.689	0.0064	0.0038
313.2	0.689	0.0073	0.0044
293.2	0.799	0.0084	0.005
298.2	0.799	0.0099	0.0059
303.2	0.799	0.012	0.007
308.2	0.799	0.013	0.008
313.2	0.799	0.015	0.009

System: lamotrigine + water; phases: Liquid, Crystal
Fixed: Pressure, kPa = 86.5
Property: Mole fraction of lamotrigine (Liquid); method: UV-Vis spectrophotometer
Temperature, K	Mole fraction of lamotrigine	uncertainty
293.2	8.4e-06	5e-06
298.2	1e-05	6e-06
303.2	1.2e-05	7e-06
308.2	1.7e-05	1e-05
313.2	2.1e-05	1.3e-05
