Measured thermophysical data. The solubilities of benzene polycarboxylic acids in water
Source: J. Chem. Thermodyn., 2006, 10.1016/j.jct.2005.07.007
Compound 1: water, H2O, InChI=1S/H2O/h1H2
Compound 2: benzoic acid, C7H6O2, InChI=1S/C7H6O2/c8-7(9)6-4-2-1-3-5-6/h1-5H,(H,8,9), purity 99.9%
Compound 3: 1,4-benzenedicarboxylic acid, C8H6O4, InChI=1S/C8H6O4/c9-7(10)5-1-2-6(4-3-5)8(11)12/h1-4H,(H,9,10)(H,11,12), purity 99%
Compound 4: 1,2,4-benzenetricarboxylic acid, C9H6O6, InChI=1S/C9H6O6/c10-7(11)4-1-2-5(8(12)13)6(3-4)9(14)15/h1-3H,(H,10,11)(H,12,13)(H,14,15), purity 99%
Compound 5: 1,3,5-benzenetricarboxylic acid, C9H6O6, InChI=1S/C9H6O6/c10-7(11)4-1-5(8(12)13)3-6(2-4)9(14)15/h1-3H,(H,10,11)(H,12,13)(H,14,15), purity 97%
Compound 6: 1,2,4,5-benzenetetracarboxylic acid, C10H6O8, InChI=1S/C10H6O8/c11-7(12)3-1-4(8(13)14)6(10(17)18)2-5(3)9(15)16/h1-2H,(H,11,12)(H,13,14)(H,15,16)(H,17,18), purity 97%

System: benzoic acid + water; phases: Liquid, Crystal
Fixed: Pressure, kPa = 101
Property: Molality, mol/kg (Liquid); method: titration
Temperature, K	Molality, mol/kg	uncertainty
281.15	0.0173	0.0035
295.65	0.0297	0.0059
300.15	0.034	0.0068
305.15	0.0398	0.008
309.65	0.0407	0.0081
318.15	0.0594	0.0119
333.15	0.0976	0.0195
337.15	0.121	0.0242

System: 1,4-benzenedicarboxylic acid + water; phases: Liquid, Crystal
Fixed: Pressure, kPa = 101
Property: Molality, mol/kg (Liquid); method: titration
Temperature, K	Molality, mol/kg	uncertainty
278.15	0.000772	0.000154
284.15	0.000563	0.000113
288.65	0.000427	8.5e-05
293.15	0.000381	7.6e-05
298.65	0.00039	7.8e-05
303.15	0.000404	8.1e-05
307.15	0.000444	8.9e-05
312.15	0.000455	9.1e-05
317.15	0.00045	9e-05
322.15	0.000487	9.7e-05
326.65	0.00055	0.00011
331.65	0.000624	0.000125

System: 1,2,4-benzenetricarboxylic acid + water; phases: Liquid, Crystal
Fixed: Pressure, kPa = 101
Property: Molality, mol/kg (Liquid); method: titration
Temperature, K	Molality, mol/kg	uncertainty
280.65	0.0433	0.0087
285.65	0.0504	0.0101
290.15	0.0647	0.0129
295.65	0.0765	0.0153
300.15	0.0946	0.0189
304.65	0.1144	0.0229
309.15	0.1434	0.0287
314.15	0.1733	0.0347
319.15	0.2482	0.0496
323.15	0.2871	0.0574
328.15	0.3974	0.0795
331.15	0.4471	0.0894

System: 1,3,5-benzenetricarboxylic acid + water; phases: Liquid, Crystal
Fixed: Pressure, kPa = 101
Property: Molality, mol/kg (Liquid); method: titration
Temperature, K	Molality, mol/kg	uncertainty
277.15	0.00559	0.00112
280.15	0.00503	0.00101
282.15	0.0063	0.00126
283.15	0.00598	0.0012
287.15	0.00794	0.00159
288.65	0.00657	0.00131
292.65	0.00814	0.00163
293.15	0.007	0.0014
297.15	0.00998	0.002
298.15	0.01077	0.00215
299.15	0.0105	0.0021
302.15	0.01189	0.00238
304.15	0.01098	0.0022
306.65	0.01468	0.00294
309.15	0.01807	0.00361
311.65	0.01818	0.00364
313.65	0.01773	0.00355
316.65	0.0223	0.00446
320.65	0.02648	0.0053
325.65	0.0364	0.00728
330.15	0.03694	0.00739

System: 1,2,4,5-benzenetetracarboxylic acid + water; phases: Liquid, Crystal
Fixed: Pressure, kPa = 101
Property: Molality, mol/kg (Liquid); method: titration
Temperature, K	Molality, mol/kg	uncertainty
278.15	0.015	0.003
279.15	0.0168	0.0034
282.15	0.0205	0.0041
283.15	0.0226	0.0045
286.15	0.0235	0.0047
288.15	0.0266	0.0053
290.15	0.0296	0.0059
293.15	0.0329	0.0066
297.15	0.0352	0.007
298.15	0.0432	0.0086
302.15	0.0516	0.0103
306.65	0.0697	0.0139
307.15	0.0693	0.0139
311.15	0.0896	0.0179
319.15	0.1444	0.0289
326.15	0.1947	0.0389
330.65	0.2176	0.0435
