Measured thermophysical data. (Liquid + liquid) equilibria of four alcohol-water systems containing 1,8-cineole at T = 298.15 K
Source: J. Chem. Thermodyn., 2016, 10.1016/j.jct.2016.06.010
Compound 1: 1,3,3-trimethyl-2-oxabicyclo[2.2.2]octane, C10H18O, InChI=1S/C10H18O/c1-9(2)8-4-6-10(3,11-9)7-5-8/h8H,4-7H2,1-3H3, purity 99%
Compound 2: methanol, CH4O, InChI=1S/CH4O/c1-2/h2H,1H3, purity 99.9%
Compound 3: ethanol, C2H6O, InChI=1S/C2H6O/c1-2-3/h3H,2H2,1H3, purity 99.8%
Compound 4: propan-1-ol, C3H8O, InChI=1S/C3H8O/c1-2-3-4/h4H,2-3H2,1H3, purity 99.7%
Compound 5: water, H2O, InChI=1S/H2O/h1H2
Compound 6: butan-1-ol, C4H10O, InChI=1S/C4H10O/c1-2-3-4-5/h5H,2-4H2,1H3, purity 99.5%

System: 1,3,3-trimethyl-2-oxabicyclo[2.2.2]octane; phases: Liquid
Property: Mass density, kg/m3 (Liquid); method: Vibrating tube method
Temperature, K	Pressure, kPa	Mass density, kg/m3	uncertainty
293.15	101.325	924.84	2.02

System: 1,3,3-trimethyl-2-oxabicyclo[2.2.2]octane; phases: Liquid
Property: Refractive index (Na D-line) (Liquid); method: Standard Abbe refractometry
Temperature, K	Pressure, kPa	Refractive index (Na D-line)	uncertainty
293.15	101.325	1.45756	0.00107

System: methanol; phases: Liquid
Property: Mass density, kg/m3 (Liquid); method: Vibrating tube method
Temperature, K	Pressure, kPa	Mass density, kg/m3	uncertainty
293.15	101.325	791.2	2.01

System: methanol; phases: Liquid
Property: Refractive index (Na D-line) (Liquid); method: Standard Abbe refractometry
Temperature, K	Pressure, kPa	Refractive index (Na D-line)	uncertainty
293.15	101.325	1.32826	0.00105

System: ethanol; phases: Liquid
Property: Mass density, kg/m3 (Liquid); method: Vibrating tube method
Temperature, K	Pressure, kPa	Mass density, kg/m3	uncertainty
293.15	101.325	789.38	2.01

System: ethanol; phases: Liquid
Property: Refractive index (Na D-line) (Liquid); method: Standard Abbe refractometry
Temperature, K	Pressure, kPa	Refractive index (Na D-line)	uncertainty
293.15	101.325	1.36134	0.00105

System: propan-1-ol; phases: Liquid
Property: Mass density, kg/m3 (Liquid); method: Vibrating tube method
Temperature, K	Pressure, kPa	Mass density, kg/m3	uncertainty
293.15	101.325	803.85	2.01

System: propan-1-ol; phases: Liquid
Property: Refractive index (Na D-line) (Liquid); method: Standard Abbe refractometry
Temperature, K	Pressure, kPa	Refractive index (Na D-line)	uncertainty
293.15	101.325	1.38461	0.00105

System: water; phases: Liquid
Property: Mass density, kg/m3 (Liquid); method: Vibrating tube method
Temperature, K	Pressure, kPa	Mass density, kg/m3	uncertainty
293.15	101.325	998.15	2.01

System: water; phases: Liquid
Property: Refractive index (Na D-line) (Liquid); method: Standard Abbe refractometry
Temperature, K	Pressure, kPa	Refractive index (Na D-line)	uncertainty
293.15	101.325	1.33299	0.00105

System: butan-1-ol; phases: Liquid
Property: Mass density, kg/m3 (Liquid); method: Vibrating tube method
Temperature, K	Pressure, kPa	Mass density, kg/m3	uncertainty
293.15	101.325	809.75	2.01

System: butan-1-ol; phases: Liquid
Property: Refractive index (Na D-line) (Liquid); method: Standard Abbe refractometry
Temperature, K	Pressure, kPa	Refractive index (Na D-line)	uncertainty
293.15	101.325	1.39911	0.00105

System: methanol + 1,3,3-trimethyl-2-oxabicyclo[2.2.2]octane + water; phases: Liquid mixture 1, Liquid mixture 2
Fixed: Temperature, K = 298.15
Fixed: Pressure, kPa = 100
Property: Mole fraction of water (Liquid mixture 1); method: Chromatography
Property: Mole fraction of water (Liquid mixture 2); method: Chromatography
Property: Mole fraction of methanol (Liquid mixture 2); method: Chromatography
Mole fraction of methanol	Mole fraction of water	uncertainty	Mole fraction of water	uncertainty	Mole fraction of methanol	uncertainty
0	0.9997	0.0003	0.0479	0.02	0	
0.1539	0.8445	0.0284	0.068	0.0204	0.1224	
0.2203	0.7771	0.0285	0.0906	0.0208	0.2172	
0.2698	0.7268	0.0291	0.1176	0.0228	0.2919	
0.3313	0.6605	0.0299	0.1679	0.0263	0.3592	
0.3626	0.6238	0.0311	0.2032	0.0325	0.3895	
0.3861	0.5957	0.0332	0.2359	0.0395	0.4122	
0.4272	0.5391	0.0203	0.3019	0.0201	0.448	

System: ethanol + 1,3,3-trimethyl-2-oxabicyclo[2.2.2]octane + water; phases: Liquid mixture 2, Liquid mixture 1
Fixed: Temperature, K = 298.15
Fixed: Pressure, kPa = 100
Property: Mole fraction of ethanol (Liquid mixture 2); method: Chromatography
Property: Mole fraction of ethanol (Liquid mixture 1); method: Chromatography
Property: Mole fraction of water (Liquid mixture 1); method: Chromatography
Mole fraction of water	Mole fraction of ethanol	uncertainty	Mole fraction of ethanol	uncertainty	Mole fraction of water	uncertainty
0.0479	0		0		0.9997	
0.0811	0.0769	0.0518	0.0441	0.0282	0.955	
0.1143	0.1587	0.0467	0.0821	0.0282	0.9171	
0.1538	0.2311	0.0355	0.1089	0.0279	0.8897	
0.2253	0.3238	0.028	0.147	0.0276	0.8505	
0.2937	0.3673	0.0213	0.1737	0.0267	0.8216	
0.396	0.3851	0.0202	0.2141	0.0258	0.7744	
0.4782	0.3717	0.0208	0.2422	0.0244	0.7368	
0.5547	0.3435	0.0201	0.2775	0.0201	0.6834	

System: propan-1-ol + 1,3,3-trimethyl-2-oxabicyclo[2.2.2]octane + water; phases: Liquid mixture 2, Liquid mixture 1
Fixed: Temperature, K = 298.15
Fixed: Pressure, kPa = 100
Property: Mole fraction of propan-1-ol (Liquid mixture 2); method: Chromatography
Property: Mole fraction of propan-1-ol (Liquid mixture 1); method: Chromatography
Property: Mole fraction of water (Liquid mixture 1); method: Chromatography
Mole fraction of water	Mole fraction of propan-1-ol	uncertainty	Mole fraction of propan-1-ol	uncertainty	Mole fraction of water	uncertainty
0.0479	0		0		0.9997	
0.0727	0.0776	0.0576	0.0119	0.0119	0.9878	
0.1043	0.1532	0.0486	0.0184	0.0184	0.9811	
0.1324	0.2096	0.0379	0.0226	0.02	0.9769	
0.1922	0.2969	0.031	0.0283	0.02	0.9711	
0.2602	0.3614	0.0272	0.0338	0.02	0.9659	
0.3138	0.4076	0.022	0.0414	0.02	0.958	
0.4051	0.428	0.0203	0.0493	0.02	0.9502	
0.5014	0.3941	0.0202	0.0622	0.02	0.9368	

System: butan-1-ol + 1,3,3-trimethyl-2-oxabicyclo[2.2.2]octane + water; phases: Liquid mixture 1, Liquid mixture 2
Fixed: Temperature, K = 298.15
Fixed: Pressure, kPa = 100
Property: Mole fraction of butan-1-ol (Liquid mixture 1); method: Chromatography
Property: Mole fraction of butan-1-ol (Liquid mixture 2); method: Chromatography
Property: Mole fraction of water (Liquid mixture 2); method: Chromatography
Mole fraction of water	Mole fraction of butan-1-ol	uncertainty	Mole fraction of butan-1-ol	uncertainty	Mole fraction of water	uncertainty
0.9997	0		0		0.0479	
0.9817	0.0181	0.0181	0.5014	0.0204	0.4116	
0.9813	0.0187	0.0187	0.4873	0.0203	0.5127	
0.9963	0.0031	0.0031	0.0703	0.0496	0.0791	
0.9949	0.0045	0.0045	0.1461	0.0495	0.1123	
0.9939	0.0057	0.0057	0.2048	0.0478	0.1386	
0.9924	0.0072	0.0072	0.2708	0.0414	0.1698	
0.9908	0.0086	0.0086	0.3334	0.0372	0.2092	
0.9892	0.0103	0.0103	0.3981	0.0299	0.2512	
0.9863	0.0134	0.0134	0.4652	0.024	0.3257	

System: 1,3,3-trimethyl-2-oxabicyclo[2.2.2]octane + water; phases: Liquid mixture 2, Liquid mixture 1
Property: Mole fraction of water (Liquid mixture 2); method: Chromatography
Temperature, K	Pressure, kPa	Mole fraction of water	uncertainty
298.15	100	0.0479	0.02

System: 1,3,3-trimethyl-2-oxabicyclo[2.2.2]octane + water; phases: Liquid mixture 1, Liquid mixture 2
Property: Mole fraction of water (Liquid mixture 1); method: Chromatography
Pressure, kPa	Temperature, K	Mole fraction of water	uncertainty
100	298.15	0.9997	0.0003

System: butan-1-ol + water; phases: Liquid mixture 2, Liquid mixture 1
Property: Mole fraction of butan-1-ol (Liquid mixture 2); method: Chromatography
Temperature, K	Pressure, kPa	Mole fraction of butan-1-ol	uncertainty
298.15	100	0.4873	0.0203

System: butan-1-ol + water; phases: Liquid mixture 1, Liquid mixture 2
Property: Mole fraction of butan-1-ol (Liquid mixture 1); method: Chromatography
Temperature, K	Pressure, kPa	Mole fraction of butan-1-ol	uncertainty
298.15	100	0.0187	0.0187
