Measured thermophysical data. Thermodynamic functions for solubility of 3-nitro-o-toluic acid in nine organic solvents from T = (283.15 to 318.15) K and apparent thermodynamic properties of solutions
Source: J. Chem. Thermodyn., 2017, 10.1016/j.jct.2017.02.017
Compound 1: 2-methyl-3-nitrobenzoic acid, C8H7NO4, InChI=1S/C8H7NO4/c1-5-6(8(10)11)3-2-4-7(5)9(12)13/h2-4H,1H3,(H,10,11), purity 98.1%
Compound 2: methanol, CH4O, InChI=1S/CH4O/c1-2/h2H,1H3, purity 99.6%
Compound 3: ethanol, C2H6O, InChI=1S/C2H6O/c1-2-3/h3H,2H2,1H3, purity 99.5%
Compound 4: propan-1-ol, C3H8O, InChI=1S/C3H8O/c1-2-3-4/h4H,2-3H2,1H3, purity 99.5%
Compound 5: propan-2-ol, C3H8O, InChI=1S/C3H8O/c1-3(2)4/h3-4H,1-2H3, purity 99.5%
Compound 6: acetonitrile, C2H3N, InChI=1S/C2H3N/c1-2-3/h1H3, purity 99.4%
Compound 7: ethyl acetate, C4H8O2, InChI=1S/C4H8O2/c1-3-6-4(2)5/h3H2,1-2H3, purity 99.5%
Compound 8: acetone, C3H6O, InChI=1S/C3H6O/c1-3(2)4/h1-2H3, purity 99.4%
Compound 9: 1,4-dioxane, C4H8O2, InChI=1S/C4H8O2/c1-2-6-4-3-5-1/h1-4H2, purity 99.5%
Compound 10: butanone, C4H8O, InChI=1S/C4H8O/c1-3-4(2)5/h3H2,1-2H3, purity 99.5%

System: methanol + 2-methyl-3-nitrobenzoic acid; phases: Liquid, Crystal
Fixed: Pressure, kPa = 101.2
Property: Mole fraction of 2-methyl-3-nitrobenzoic acid (Liquid); method: Chromatography
Temperature, K	Mole fraction of 2-methyl-3-nitrobenzoic acid	uncertainty
283.15	0.01615	0.00087
285.65	0.01797	0.00097
288.15	0.02016	0.00109
290.65	0.02254	0.00122
293.15	0.02553	0.00138
295.65	0.0286	0.00155
298.15	0.03188	0.00172
300.65	0.03536	0.00191
303.15	0.03919	0.00212
305.65	0.0436	0.00236
308.15	0.04829	0.00261
310.65	0.05286	0.00286
313.15	0.05794	0.00313
315.65	0.06341	0.00343
318.15	0.06849	0.0037

System: ethanol + 2-methyl-3-nitrobenzoic acid; phases: Liquid, Crystal
Fixed: Pressure, kPa = 101.2
Property: Mole fraction of 2-methyl-3-nitrobenzoic acid (Liquid); method: Chromatography
Temperature, K	Mole fraction of 2-methyl-3-nitrobenzoic acid	uncertainty
283.15	0.01488	0.0008
285.65	0.0165	0.00089
288.15	0.01855	0.001
290.65	0.02068	0.00112
293.15	0.02322	0.00126
295.65	0.02591	0.0014
298.15	0.0286	0.00155
300.65	0.03167	0.00171
303.15	0.03509	0.0019
305.65	0.03878	0.0021
308.15	0.04305	0.00233
310.65	0.04754	0.00257
313.15	0.05241	0.00283
315.65	0.05787	0.00313
318.15	0.06401	0.00346

System: propan-1-ol + 2-methyl-3-nitrobenzoic acid; phases: Liquid, Crystal
Fixed: Pressure, kPa = 101.2
Property: Mole fraction of 2-methyl-3-nitrobenzoic acid (Liquid); method: Chromatography
Temperature, K	Mole fraction of 2-methyl-3-nitrobenzoic acid	uncertainty
283.15	0.01113	0.0006
285.65	0.01268	0.00069
288.15	0.01437	0.00078
290.65	0.01619	0.00088
293.15	0.01821	0.00098
295.65	0.0205	0.00111
298.15	0.02308	0.00125
300.65	0.0258	0.0014
303.15	0.02911	0.00157
305.65	0.03259	0.00176
308.15	0.03645	0.00197
310.65	0.04038	0.00218
313.15	0.04553	0.00246
315.65	0.05058	0.00273
318.15	0.05565	0.00301

System: propan-2-ol + 2-methyl-3-nitrobenzoic acid; phases: Liquid, Crystal
Fixed: Pressure, kPa = 101.2
Property: Mole fraction of 2-methyl-3-nitrobenzoic acid (Liquid); method: Chromatography
Temperature, K	Mole fraction of 2-methyl-3-nitrobenzoic acid	uncertainty
283.15	0.01292	0.0007
285.65	0.01453	0.00079
288.15	0.01645	0.00089
290.65	0.01843	0.001
293.15	0.02056	0.00111
295.65	0.023	0.00124
298.15	0.0259	0.0014
300.65	0.02892	0.00156
303.15	0.03241	0.00175
305.65	0.03617	0.00196
308.15	0.03956	0.00214
310.65	0.04377	0.00237
313.15	0.04848	0.00262
315.65	0.05332	0.00288
318.15	0.05873	0.00318

System: acetonitrile + 2-methyl-3-nitrobenzoic acid; phases: Liquid, Crystal
Fixed: Pressure, kPa = 101.2
Property: Mole fraction of 2-methyl-3-nitrobenzoic acid (Liquid); method: Chromatography
Temperature, K	Mole fraction of 2-methyl-3-nitrobenzoic acid	uncertainty
283.15	0.00849	0.000459
285.65	0.009185	0.000497
288.15	0.00993	0.000537
290.65	0.01075	0.00058
293.15	0.01171	0.00063
295.65	0.01273	0.00069
298.15	0.01383	0.00075
300.65	0.01493	0.00081
303.15	0.01606	0.00087
305.65	0.01723	0.00093
308.15	0.01857	0.001
310.65	0.01993	0.00108
313.15	0.02114	0.00114
315.65	0.02259	0.00122
318.15	0.0242	0.00131

System: ethyl acetate + 2-methyl-3-nitrobenzoic acid; phases: Liquid, Crystal
Fixed: Pressure, kPa = 101.2
Property: Mole fraction of 2-methyl-3-nitrobenzoic acid (Liquid); method: Chromatography
Temperature, K	Mole fraction of 2-methyl-3-nitrobenzoic acid	uncertainty
283.15	0.03116	0.00168
285.65	0.03255	0.00176
288.15	0.03413	0.00184
290.65	0.03572	0.00193
293.15	0.03734	0.00202
295.65	0.03896	0.00211
298.15	0.04057	0.00219
300.65	0.0423	0.00229
303.15	0.04415	0.00239
305.65	0.04602	0.00249
308.15	0.04778	0.00258
310.65	0.04989	0.0027
313.15	0.05179	0.0028
315.65	0.05397	0.00292
318.15	0.05599	0.00303

System: acetone + 2-methyl-3-nitrobenzoic acid; phases: Liquid, Crystal
Fixed: Pressure, kPa = 101.2
Property: Mole fraction of 2-methyl-3-nitrobenzoic acid (Liquid); method: Chromatography
Temperature, K	Mole fraction of 2-methyl-3-nitrobenzoic acid	uncertainty
283.15	0.06008	0.00325
285.65	0.06142	0.00332
288.15	0.06266	0.00339
290.65	0.06413	0.00347
293.15	0.06546	0.00354
295.65	0.06683	0.00361
298.15	0.06837	0.00369
300.65	0.06995	0.00378
303.15	0.0715	0.00386
305.65	0.0728	0.00393
308.15	0.07448	0.00403
310.65	0.0761	0.00411
313.15	0.07772	0.0042
315.65	0.07933	0.00429
318.15	0.08084	0.00437

System: 1,4-dioxane + 2-methyl-3-nitrobenzoic acid; phases: Liquid, Crystal
Fixed: Pressure, kPa = 101.2
Property: Mole fraction of 2-methyl-3-nitrobenzoic acid (Liquid); method: Chromatography
Temperature, K	Mole fraction of 2-methyl-3-nitrobenzoic acid	uncertainty
285.65	0.07037	0.0038
288.15	0.07177	0.00388
290.65	0.07342	0.00397
293.15	0.0749	0.00405
295.65	0.0764	0.00413
298.15	0.07789	0.00421
300.65	0.07962	0.0043
303.15	0.08137	0.0044
305.65	0.08313	0.00449
308.15	0.08473	0.00458
310.65	0.0865	0.00467
313.15	0.08842	0.00478
315.65	0.09016	0.00487
318.15	0.09205	0.00497

System: butanone + 2-methyl-3-nitrobenzoic acid; phases: Liquid, Crystal
Fixed: Pressure, kPa = 101.2
Property: Mole fraction of 2-methyl-3-nitrobenzoic acid (Liquid); method: Chromatography
Temperature, K	Mole fraction of 2-methyl-3-nitrobenzoic acid	uncertainty
283.15	0.05276	0.00285
285.65	0.05438	0.00294
288.15	0.05601	0.00303
290.65	0.05763	0.00311
293.15	0.05925	0.0032
295.65	0.06088	0.00329
298.15	0.06263	0.00338
300.65	0.06446	0.00348
303.15	0.06638	0.00359
305.65	0.06833	0.00369
308.15	0.07032	0.0038
310.65	0.07225	0.0039
313.15	0.07413	0.00401
315.65	0.07642	0.00413
318.15	0.07858	0.00425
