Measured thermophysical data. Limiting partial molar volumes and expansibilities of ammonium perchlorate, tetraalkylammonium perchlorates, and tetrabutylammonium tetraphenylborate in N,N-dimethylformamide
Source: J. Chem. Thermodyn., 2006, 10.1016/j.jct.2005.05.008
Compound 1: ammonium perchlorate, ClH4NO4, InChI=1S/ClHO4.H3N/c2-1(3,4)5;/h(H,2,3,4,5);1H3
Compound 2: tetramethylammonium perchlorate, C4H12ClNO4, InChI=1S/C4H12N.ClHO4/c1-5(2,3)4;2-1(3,4)5/h1-4H3;(H,2,3,4,5)/q+1;/p-1
Compound 3: tetraethylammonium perchlorate, C8H20ClNO4, InChI=1S/C8H20N.ClHO4/c1-5-9(6-2,7-3)8-4;2-1(3,4)5/h5-8H2,1-4H3;(H,2,3,4,5)/q+1;/p-1
Compound 4: tetrapropylammonium perchlorate, C12H28ClNO4, InChI=1S/C12H28N.ClHO4/c1-5-9-13(10-6-2,11-7-3)12-8-4;2-1(3,4)5/h5-12H2,1-4H3;(H,2,3,4,5)/q+1;/p-1
Compound 5: tetrabutylammonium perchlorate, C16H36ClNO4, InChI=1S/C16H36N.ClHO4/c1-5-9-13-17(14-10-6-2,15-11-7-3)16-12-8-4;2-1(3,4)5/h5-16H2,1-4H3;(H,2,3,4,5)/q+1;/p-1
Compound 6: tetrabutylammonium tetraphenylborate(1-), C40H56BN, InChI=1S/C24H20B.C16H36N/c1-5-13-21(14-6-1)25(22-15-7-2-8-16-22,23-17-9-3-10-18-23)24-19-11-4-12-20-24;1-5-9-13-17(14-10-6-2,15-11-7-3)16-12-8-4/h1-20H;5-16H2,1-4H3/q-1;+1
Compound 7: dimethylformamide, C3H7NO, InChI=1S/C3H7NO/c1-4(2)3-5/h3H,1-2H3, purity 99.9%
Compound 8: N,N-dimethylethanamide, C4H9NO, InChI=1S/C4H9NO/c1-4(6)5(2)3/h1-3H3

System: dimethylformamide; phases: Liquid
Property: Mass density, kg/m3 (Liquid); method: VIBTUB:UFactor:4
Temperature, K	Pressure, kPa	Mass density, kg/m3	uncertainty
298.15	101.325	943.792	0.284

System: N,N-dimethylethanamide; phases: Liquid
Property: Mass density, kg/m3 (Liquid); method: VIBTUB:UFactor:4
Temperature, K	Pressure, kPa	Mass density, kg/m3	uncertainty
298.15	101.325	936.357	0.284

System: dimethylformamide + ammonium perchlorate; phases: Liquid
Fixed: Pressure, kPa = 101
Property: Mass density, kg/m3 (Liquid); method: Vibrating tube method
Temperature, K	Ratio of amount of solute to mass of solution, mol/kg of ammonium perchlorate	Mass density, kg/m3	uncertainty
283.15	0	958.076	0.275
283.15	0.03653	960.513	0.275
283.15	0.05332	961.626	0.275
283.15	0.07026	962.746	0.276
283.15	0.1039	964.968	0.276
283.15	0.1408	967.394	0.276
283.15	0.1904	970.659	0.277
283.15	0.239	973.852	0.277
283.15	0.289	977.145	0.278
283.15	0.3406	980.544	0.278
293.15	0	948.56	0.274
293.15	0.03653	951.03	0.274
293.15	0.05332	952.156	0.274
293.15	0.07026	953.291	0.274
293.15	0.1039	955.53	0.275
293.15	0.1408	957.992	0.275
293.15	0.1904	961.274	0.275
293.15	0.239	964.498	0.276
293.15	0.289	967.819	0.276
293.15	0.3406	971.245	0.277
298.15	0	943.791	0.273
298.15	0.03653	946.28	0.273
298.15	0.05332	947.411	0.274
298.15	0.07026	948.55	0.274
298.15	0.1039	950.805	0.274
298.15	0.1408	953.281	0.274
298.15	0.1904	956.576	0.275
298.15	0.239	959.814	0.275
298.15	0.289	963.149	0.276
298.15	0.3406	966.591	0.276
303.15	0	939.019	0.273
303.15	0.03653	941.52	0.273
303.15	0.05332	942.659	0.273
303.15	0.07026	943.807	0.273
303.15	0.1039	946.072	0.273
303.15	0.1408	948.558	0.274
303.15	0.1904	951.875	0.274
303.15	0.239	955.128	0.275
303.15	0.289	958.475	0.275
303.15	0.3406	961.93	0.276
313.15	0	929.437	0.272
313.15	0.03653	931.971	0.272
313.15	0.05332	933.126	0.272
313.15	0.07026	934.287	0.272
313.15	0.1039	936.579	0.272
313.15	0.1408	939.089	0.273
313.15	0.1904	942.439	0.273
313.15	0.239	945.721	0.274
313.15	0.289	949.106	0.274
313.15	0.3406	952.591	0.274
323.15	0	919.808	0.271
323.15	0.03653	922.379	0.271
323.15	0.05332	923.551	0.271
323.15	0.07026	924.725	0.271
323.15	0.1039	927.041	0.271
323.15	0.1408	929.58	0.272
323.15	0.1904	932.965	0.272
323.15	0.239	936.28	0.273
323.15	0.289	939.701	0.273
323.15	0.3406	943.215	0.273
333.15	0	910.122	0.27
333.15	0.03653	912.729	0.27
333.15	0.05332	913.914	0.27
333.15	0.07026	915.105	0.27
333.15	0.1039	917.451	0.271
333.15	0.1408	920.016	0.271
333.15	0.1904	923.445	0.271
333.15	0.239	926.789	0.272
333.15	0.289	930.254	0.272
333.15	0.3406	933.8	0.272

System: dimethylformamide + tetramethylammonium perchlorate; phases: Liquid
Fixed: Pressure, kPa = 101
Property: Mass density, kg/m3 (Liquid); method: Vibrating tube method
Temperature, K	Ratio of amount of solute to mass of solution, mol/kg of tetramethylammonium perchlorate	Mass density, kg/m3	uncertainty
283.15	0	958.067	0.269
283.15	0.01523	958.937	0.269
283.15	0.01902	959.151	0.269
283.15	0.02912	959.718	0.269
283.15	0.03309	959.941	0.27
283.15	0.03853	960.244	0.27
283.15	0.04774	960.757	0.27
283.15	0.05313	961.055	0.27
283.15	0.0674	961.841	0.27
283.15	0.08195	962.642	0.27
283.15	0.09648	963.443	0.27
293.15	0	948.553	0.267
293.15	0.01523	949.438	0.267
293.15	0.01902	949.656	0.267
293.15	0.02912	950.233	0.268
293.15	0.03309	950.46	0.268
293.15	0.03853	950.768	0.268
293.15	0.04774	951.288	0.268
293.15	0.05313	951.59	0.268
293.15	0.0674	952.388	0.268
293.15	0.08195	953.2	0.268
293.15	0.09648	954.007	0.268
298.15	0	943.79	0.266
298.15	0.01523	944.682	0.266
298.15	0.01902	944.901	0.267
298.15	0.02912	945.481	0.267
298.15	0.03309	945.71	0.267
298.15	0.03853	946.019	0.267
298.15	0.04774	946.545	0.267
298.15	0.05313	946.848	0.267
298.15	0.0674	947.652	0.267
298.15	0.08195	948.469	0.267
298.15	0.09648	949.284	0.267
303.15	0	939.014	0.265
303.15	0.01523	939.914	0.266
303.15	0.01902	940.135	0.266
303.15	0.02912	940.72	0.266
303.15	0.03309	940.951	0.266
303.15	0.03853	941.262	0.266
303.15	0.04774	941.792	0.266
303.15	0.05313	942.097	0.266
303.15	0.0674	942.907	0.266
303.15	0.08195	943.731	0.266
303.15	0.09648	944.551	0.266
313.15	0	929.43	0.264
313.15	0.01523	930.347	0.264
313.15	0.01902	930.572	0.264
313.15	0.02912	931.168	0.264
313.15	0.03309	931.402	0.264
313.15	0.03853	931.719	0.264
313.15	0.04774	932.257	0.264
313.15	0.05313	932.568	0.264
313.15	0.0674	933.392	0.264
313.15	0.08195	934.229	0.264
313.15	0.09648	935.06	0.265
323.15	0	919.797	0.262
323.15	0.01523	920.732	0.262
323.15	0.01902	920.962	0.262
323.15	0.02912	921.569	0.262
323.15	0.03309	921.807	0.262
323.15	0.03853	922.13	0.262
323.15	0.04774	922.676	0.262
323.15	0.05313	922.995	0.262
323.15	0.0674	923.831	0.263
323.15	0.08195	924.679	0.263
323.15	0.09648	925.524	0.263
333.15	0	910.117	0.26
333.15	0.01523	911.066	0.26
333.15	0.01902	911.299	0.26
333.15	0.02912	911.916	0.261
333.15	0.03309	912.157	0.261
333.15	0.03853	912.486	0.261
333.15	0.04774	913.042	0.261
333.15	0.05313	913.365	0.261
333.15	0.0674	914.216	0.261
333.15	0.08195	915.082	0.261
333.15	0.09648	915.939	0.261

System: dimethylformamide + tetraethylammonium perchlorate; phases: Liquid
Fixed: Pressure, kPa = 101
Property: Mass density, kg/m3 (Liquid); method: Vibrating tube method
Temperature, K	Ratio of amount of solute to mass of solution, mol/kg of tetraethylammonium perchlorate	Mass density, kg/m3	uncertainty
283.15	0	958.067	0.269
283.15	0.02269	959.351	0.269
283.15	0.04218	960.443	0.27
283.15	0.06274	961.586	0.27
283.15	0.08215	962.663	0.27
283.15	0.1147	964.449	0.27
283.15	0.1455	966.152	0.271
283.15	0.1761	967.825	0.271
283.15	0.2062	969.465	0.272
293.15	0	948.553	0.267
293.15	0.02269	949.863	0.267
293.15	0.04218	950.975	0.268
293.15	0.06274	952.142	0.268
293.15	0.08215	953.234	0.268
293.15	0.1147	955.047	0.269
293.15	0.1455	956.775	0.269
293.15	0.1761	958.473	0.269
293.15	0.2062	960.139	0.27
298.15	0	943.79	0.266
298.15	0.02269	945.114	0.267
298.15	0.04218	946.237	0.267
298.15	0.06274	947.409	0.267
298.15	0.08215	948.513	0.267
298.15	0.1147	950.338	0.268
298.15	0.1455	952.082	0.268
298.15	0.1761	953.791	0.268
298.15	0.2062	955.471	0.269
303.15	0	939.014	0.265
303.15	0.02269	940.349	0.266
303.15	0.04218	941.482	0.266
303.15	0.06274	942.667	0.266
303.15	0.08215	943.781	0.266
303.15	0.1147	945.623	0.267
303.15	0.1455	947.378	0.267
303.15	0.1761	949.101	0.267
303.15	0.2062	950.793	0.268
313.15	0	929.43	0.264
313.15	0.02269	930.795	0.264
313.15	0.04218	931.951	0.264
313.15	0.06274	933.155	0.264
313.15	0.08215	934.288	0.265
313.15	0.1147	936.165	0.265
313.15	0.1455	937.945	0.265
313.15	0.1761	939.7	0.266
313.15	0.2062	941.419	0.266
323.15	0	919.797	0.262
323.15	0.02269	921.19	0.262
323.15	0.04218	922.369	0.262
323.15	0.06274	923.599	0.263
323.15	0.08215	924.748	0.263
323.15	0.1147	926.661	0.263
323.15	0.1455	928.473	0.263
323.15	0.1761	930.257	0.264
323.15	0.2062	932.007	0.264
333.15	0	910.117	0.26
333.15	0.02269	911.533	0.26
333.15	0.04218	912.731	0.261
333.15	0.06274	913.987	0.261
333.15	0.08215	915.156	0.261
333.15	0.1147	917.106	0.261
333.15	0.1455	918.957	0.262
333.15	0.1761	920.766	0.262
333.15	0.2062	922.55	0.262

System: dimethylformamide + tetrapropylammonium perchlorate; phases: Liquid
Fixed: Pressure, kPa = 101
Property: Mass density, kg/m3 (Liquid); method: Vibrating tube method
Temperature, K	Ratio of amount of solute to mass of solution, mol/kg of tetrapropylammonium perchlorate	Mass density, kg/m3	uncertainty
283.15	0	958.067	0.269
283.15	0.01826	958.921	0.269
283.15	0.02772	959.359	0.269
283.15	0.03739	959.804	0.269
283.15	0.05602	960.652	0.27
283.15	0.07557	961.532	0.27
283.15	0.105	962.853	0.27
283.15	0.1323	964.068	0.27
283.15	0.1595	965.279	0.271
283.15	0.1889	966.57	0.271
293.15	0	948.553	0.267
293.15	0.01826	949.431	0.267
293.15	0.02772	949.88	0.267
293.15	0.03739	950.335	0.268
293.15	0.05602	951.208	0.268
293.15	0.07557	952.108	0.268
293.15	0.105	953.456	0.268
293.15	0.1323	954.704	0.268
293.15	0.1595	955.944	0.269
293.15	0.1889	957.263	0.269
298.15	0	943.79	0.266
298.15	0.01826	944.677	0.266
298.15	0.02772	945.132	0.267
298.15	0.03739	945.594	0.267
298.15	0.05602	946.474	0.267
298.15	0.07557	947.385	0.267
298.15	0.105	948.752	0.267
298.15	0.1323	950.012	0.268
298.15	0.1595	951.267	0.268
298.15	0.1889	952.6	0.268
303.15	0	939.014	0.265
303.15	0.01826	939.914	0.266
303.15	0.02772	940.374	0.266
303.15	0.03739	940.842	0.266
303.15	0.05602	941.736	0.266
303.15	0.07557	942.66	0.266
303.15	0.105	944.04	0.266
303.15	0.1323	945.316	0.267
303.15	0.1595	946.585	0.267
303.15	0.1889	947.938	0.267
313.15	0	929.43	0.264
313.15	0.01826	930.356	0.264
313.15	0.02772	930.828	0.264
313.15	0.03739	931.308	0.264
313.15	0.05602	932.224	0.264
313.15	0.07557	933.171	0.264
313.15	0.105	934.587	0.265
313.15	0.1323	935.896	0.265
313.15	0.1595	937.195	0.265
313.15	0.1889	938.585	0.265
323.15	0	919.797	0.262
323.15	0.01826	920.751	0.262
323.15	0.02772	921.238	0.262
323.15	0.03739	921.731	0.262
323.15	0.05602	922.67	0.262
323.15	0.07557	923.642	0.263
323.15	0.105	925.097	0.263
323.15	0.1323	926.436	0.263
323.15	0.1595	927.766	0.263
323.15	0.1889	929.191	0.264
333.15	0	910.117	0.26
333.15	0.01826	911.09	0.26
333.15	0.02772	911.587	0.26
333.15	0.03739	912.092	0.261
333.15	0.05602	913.055	0.261
333.15	0.07557	914.058	0.261
333.15	0.105	915.555	0.261
333.15	0.1323	916.928	0.261
333.15	0.1595	918.295	0.262
333.15	0.1889	919.755	0.262

System: dimethylformamide + tetrabutylammonium perchlorate; phases: Liquid
Fixed: Pressure, kPa = 101
Property: Mass density, kg/m3 (Liquid); method: Vibrating tube method
Temperature, K	Ratio of amount of solute to mass of solution, mol/kg of tetrabutylammonium perchlorate	Mass density, kg/m3	uncertainty
283.15	0	958.067	0.269
283.15	0.02852	959.148	0.269
283.15	0.05393	960.097	0.27
283.15	0.07866	961.015	0.27
283.15	0.1047	961.969	0.27
283.15	0.1431	963.376	0.27
283.15	0.1824	964.794	0.271
283.15	0.222	966.232	0.271
283.15	0.2619	967.661	0.271
293.15	0	948.553	0.267
293.15	0.02852	949.672	0.267
293.15	0.05393	950.653	0.268
293.15	0.07866	951.604	0.268
293.15	0.1047	952.588	0.268
293.15	0.1431	954.042	0.268
293.15	0.1824	955.511	0.269
293.15	0.222	956.99	0.269
293.15	0.2619	958.466	0.269
298.15	0	943.79	0.266
298.15	0.02852	944.93	0.267
298.15	0.05393	945.929	0.267
298.15	0.07866	946.892	0.267
298.15	0.1047	947.89	0.267
298.15	0.1431	949.37	0.267
298.15	0.1824	950.86	0.268
298.15	0.222	952.366	0.268
298.15	0.2619	953.862	0.268
303.15	0	939.014	0.265
303.15	0.02852	940.173	0.266
303.15	0.05393	941.191	0.266
303.15	0.07866	942.17	0.266
303.15	0.1047	943.187	0.266
303.15	0.1431	944.69	0.266
303.15	0.1824	946.204	0.267
303.15	0.222	947.732	0.267
303.15	0.2619	949.254	0.267
313.15	0	929.43	0.264
313.15	0.02852	930.632	0.264
313.15	0.05393	931.686	0.264
313.15	0.07866	932.697	0.264
313.15	0.1047	933.756	0.264
313.15	0.1431	935.303	0.265
313.15	0.1824	936.87	0.265
313.15	0.222	938.448	0.265
313.15	0.2619	940.016	0.266
323.15	0	919.797	0.262
323.15	0.02852	921.05	0.262
323.15	0.05393	922.138	0.262
323.15	0.07866	923.191	0.262
323.15	0.1047	924.277	0.263
323.15	0.1431	925.877	0.263
323.15	0.1824	927.496	0.263
323.15	0.222	929.126	0.264
323.15	0.2619	930.747	0.264
333.15	0	910.117	0.26
333.15	0.02852	911.409	0.26
333.15	0.05393	912.535	0.261
333.15	0.07866	913.625	0.261
333.15	0.1047	914.75	0.261
333.15	0.1431	916.4	0.261
333.15	0.1824	918.08	0.262
333.15	0.222	919.765	0.262
333.15	0.2619	921.436	0.262

System: dimethylformamide + tetrabutylammonium tetraphenylborate(1-); phases: Liquid
Fixed: Pressure, kPa = 101
Property: Mass density, kg/m3 (Liquid); method: Vibrating tube method
Temperature, K	Ratio of amount of solute to mass of solution, mol/kg of tetrabutylammonium tetraphenylborate(1-)	Mass density, kg/m3	uncertainty
283.15	0	958.082	0.269
283.15	0.01668	958.516	0.269
283.15	0.02323	958.686	0.269
283.15	0.03036	958.87	0.269
283.15	0.03378	958.958	0.269
283.15	0.05121	959.407	0.269
283.15	0.06816	959.843	0.27
283.15	0.09369	960.494	0.27
283.15	0.1182	961.12	0.27
283.15	0.1427	961.745	0.27
283.15	0.169	962.408	0.27
293.15	0	948.568	0.267
293.15	0.01668	949.042	0.267
293.15	0.02323	949.226	0.267
293.15	0.03036	949.427	0.267
293.15	0.03378	949.523	0.267
293.15	0.05121	950.01	0.268
293.15	0.06816	950.482	0.268
293.15	0.09369	951.186	0.268
293.15	0.1182	951.862	0.268
293.15	0.1427	952.538	0.268
293.15	0.169	953.258	0.268
298.15	0	943.8	0.266
298.15	0.01668	944.291	0.266
298.15	0.02323	944.483	0.266
298.15	0.03036	944.691	0.266
298.15	0.03378	944.791	0.267
298.15	0.05121	945.297	0.267
298.15	0.06816	945.786	0.267
298.15	0.09369	946.519	0.267
298.15	0.1182	947.226	0.267
298.15	0.1427	947.928	0.267
298.15	0.169	948.678	0.267
303.15	0	939.026	0.265
303.15	0.01668	939.536	0.265
303.15	0.02323	939.736	0.266
303.15	0.03036	939.952	0.266
303.15	0.03378	940.055	0.266
303.15	0.05121	940.58	0.266
303.15	0.06816	941.09	0.266
303.15	0.09369	941.85	0.266
303.15	0.1182	942.582	0.266
303.15	0.1427	943.309	0.266
303.15	0.169	944.085	0.266
313.15	0	929.444	0.264
313.15	0.01668	929.993	0.264
313.15	0.02323	930.208	0.264
313.15	0.03036	930.44	0.264
313.15	0.03378	930.552	0.264
313.15	0.05121	931.117	0.264
313.15	0.06816	931.666	0.264
313.15	0.09369	932.481	0.264
313.15	0.1182	933.271	0.264
313.15	0.1427	934.055	0.264
313.15	0.169	934.89	0.265
323.15	0	919.813	0.262
323.15	0.01668	920.404	0.262
323.15	0.02323	920.634	0.262
323.15	0.03036	920.884	0.262
323.15	0.03378	921.003	0.262
323.15	0.05121	921.611	0.262
323.15	0.06816	922.201	0.262
323.15	0.09369	923.077	0.262
323.15	0.1182	923.922	0.263
323.15	0.1427	924.765	0.263
323.15	0.169	925.664	0.263
333.15	0	910.121	0.26
333.15	0.01668	910.757	0.26
333.15	0.02323	911.004	0.26
333.15	0.03036	911.273	0.26
333.15	0.03378	911.401	0.26
333.15	0.05121	912.05	0.261
333.15	0.06816	912.684	0.261
333.15	0.09369	913.625	0.261
333.15	0.1182	914.524	0.261
333.15	0.1427	915.431	0.261
333.15	0.169	916.394	0.261
