Measured thermophysical data. (Liquid + liquid) equilibrium of ternary and quaternary systems containing heptane, cyclohexane, toluene and the ionic liquid [EMim][N(CN)2]. Experimental data and correlation
Source: J. Chem. Thermodyn., 2016, 10.1016/j.jct.2015.10.018
Compound 1: 1-ethyl-3-methylimidazolium dicyanamide, C8H11N5, InChI=1S/C6H11N2.C2N3/c1-3-8-5-4-7(2)6-8;3-1-5-2-4/h4-6H,3H2,1-2H3;/q+1;-1, purity 98%
Compound 2: heptane, C7H16, InChI=1S/C7H16/c1-3-5-7-6-4-2/h3-7H2,1-2H3, purity 99%
Compound 3: cyclohexane, C6H12, InChI=1S/C6H12/c1-2-4-6-5-3-1/h1-6H2, purity 99.5%
Compound 4: toluene, C7H8, InChI=1S/C7H8/c1-7-5-3-2-4-6-7/h2-6H,1H3, purity 99.8%

System: 1-ethyl-3-methylimidazolium dicyanamide; phases: Liquid
Property: Mass density, kg/m3 (Liquid); method: Vibrating tube method
Temperature, K	Pressure, kPa	Mass density, kg/m3	uncertainty
298.15	101.325	1102.03	1.05

System: 1-ethyl-3-methylimidazolium dicyanamide; phases: Liquid
Property: Refractive index (Na D-line) (Liquid); method: Standard Abbe refractometry
Temperature, K	Pressure, kPa	Refractive index (Na D-line)	uncertainty
298.15	101.325	1.51452	0.00051

System: heptane; phases: Liquid
Property: Mass density, kg/m3 (Liquid); method: Vibrating tube method
Temperature, K	Pressure, kPa	Mass density, kg/m3	uncertainty
298.15	101.325	679.57	0.25

System: heptane; phases: Liquid
Property: Refractive index (Na D-line) (Liquid); method: Standard Abbe refractometry
Temperature, K	Pressure, kPa	Refractive index (Na D-line)	uncertainty
298.15	101.325	1.38529	0.00037

System: cyclohexane; phases: Liquid
Property: Mass density, kg/m3 (Liquid); method: Vibrating tube method
Temperature, K	Pressure, kPa	Mass density, kg/m3	uncertainty
298.15	101.325	773.88	0.17

System: cyclohexane; phases: Liquid
Property: Refractive index (Na D-line) (Liquid); method: Standard Abbe refractometry
Temperature, K	Pressure, kPa	Refractive index (Na D-line)	uncertainty
298.15	101.325	1.42356	0.00033

System: toluene; phases: Liquid
Property: Mass density, kg/m3 (Liquid); method: Vibrating tube method
Temperature, K	Pressure, kPa	Mass density, kg/m3	uncertainty
298.15	101.325	862.23	0.13

System: toluene; phases: Liquid
Property: Refractive index (Na D-line) (Liquid); method: Standard Abbe refractometry
Temperature, K	Pressure, kPa	Refractive index (Na D-line)	uncertainty
298.15	101.325	1.49398	0.00031

System: toluene + heptane + 1-ethyl-3-methylimidazolium dicyanamide; phases: Liquid mixture 2, Liquid mixture 1
Fixed: Temperature, K = 298.15
Fixed: Pressure, kPa = 101.3
Property: Mole fraction of heptane (Liquid mixture 2); method: Chromatography
Property: Mole fraction of heptane (Liquid mixture 1); method: Chromatography
Property: Mole fraction of toluene (Liquid mixture 1); method: Chromatography
Mole fraction of toluene	Mole fraction of heptane	uncertainty	Mole fraction of heptane	uncertainty	Mole fraction of toluene	uncertainty
0	0.007	0.007	1		0	
0.018	0.003	0.003	0.954	0.011	0.046	
0.041	0.003	0.003	0.88	0.011	0.12	
0.062	0.003	0.003	0.807	0.011	0.193	
0.095	0.003	0.003	0.703	0.012	0.297	
0.121	0.002	0.002	0.608	0.012	0.392	
0.157	0.002	0.002	0.497	0.012	0.503	
0.179	0.001	0.001	0.392	0.012	0.608	
0.223	0.001	0.001	0.27	0.011	0.73	
0.251	0.001	0.001	0.161	0.011	0.839	
0.342	0		0		1	

System: toluene + cyclohexane + 1-ethyl-3-methylimidazolium dicyanamide; phases: Liquid mixture 2, Liquid mixture 1
Fixed: Temperature, K = 298.15
Fixed: Pressure, kPa = 101.3
Property: Mole fraction of cyclohexane (Liquid mixture 2); method: Chromatography
Property: Mole fraction of cyclohexane (Liquid mixture 1); method: Chromatography
Property: Mole fraction of toluene (Liquid mixture 1); method: Chromatography
Mole fraction of toluene	Mole fraction of cyclohexane	uncertainty	Mole fraction of cyclohexane	uncertainty	Mole fraction of toluene	uncertainty
0	0.021	0.008	1		0	
0.029	0.018	0.008	0.929	0.011	0.071	
0.062	0.016	0.008	0.824	0.011	0.176	
0.082	0.016	0.008	0.751	0.011	0.249	
0.112	0.015	0.008	0.644	0.012	0.356	
0.138	0.013	0.008	0.549	0.012	0.451	
0.167	0.013	0.008	0.462	0.012	0.538	
0.182	0.012	0.008	0.384	0.012	0.616	
0.223	0.009	0.008	0.275	0.011	0.725	
0.252	0.006	0.006	0.171	0.011	0.829	
0.342	0		0		1	

System: cyclohexane + heptane + 1-ethyl-3-methylimidazolium dicyanamide; phases: Liquid mixture 2, Liquid mixture 1
Fixed: Temperature, K = 298.15
Fixed: Pressure, kPa = 101.3
Property: Mole fraction of heptane (Liquid mixture 2); method: Chromatography
Property: Mole fraction of heptane (Liquid mixture 1); method: Chromatography
Property: Mole fraction of cyclohexane (Liquid mixture 1); method: Chromatography
Mole fraction of cyclohexane	Mole fraction of heptane	uncertainty	Mole fraction of heptane	uncertainty	Mole fraction of cyclohexane	uncertainty
0	0.007	0.007	1		0	
0.001	0.003	0.003	0.931	0.011	0.069	
0.004	0.002	0.002	0.801	0.011	0.199	
0.006	0.002	0.002	0.664	0.012	0.336	
0.008	0.001	0.001	0.552	0.012	0.448	
0.011	0.001	0.001	0.418	0.012	0.582	
0.015	0.001	0.001	0.285	0.012	0.715	
0.017	0.001	0.001	0.165	0.011	0.835	
0.021	0		0		1	

System: heptane + 1-ethyl-3-methylimidazolium dicyanamide; phases: Liquid mixture 2, Liquid mixture 1
Property: Mole fraction of heptane (Liquid mixture 2); method: Chromatography
Temperature, K	Pressure, kPa	Mole fraction of heptane	uncertainty
298.15	101.3	0.007	0.007

System: toluene + 1-ethyl-3-methylimidazolium dicyanamide; phases: Liquid mixture 2, Liquid mixture 1
Property: Mole fraction of toluene (Liquid mixture 2); method: Chromatography
Temperature, K	Pressure, kPa	Mole fraction of toluene	uncertainty
298.15	101.3	0.342	0.008

System: cyclohexane + 1-ethyl-3-methylimidazolium dicyanamide; phases: Liquid mixture 2, Liquid mixture 1
Property: Mole fraction of cyclohexane (Liquid mixture 2); method: Chromatography
Pressure, kPa	Temperature, K	Mole fraction of cyclohexane	uncertainty
101.3	298.15	0.021	0.008
