Measured thermophysical data. Excess molar enthalpies of dimethyl carbonate and (butanol isomers and 1-pentanol) at T = (298.15, 313.15, and 328.15) K and p = (0.1, 1.0, and 10.0) MPa
Source: J. Chem. Thermodyn., 2006, 10.1016/j.jct.2005.07.011
Compound 1: dimethyl carbonate, C3H6O3, InChI=1S/C3H6O3/c1-5-3(4)6-2/h1-2H3, purity 99.9%
Compound 2: butan-1-ol, C4H10O, InChI=1S/C4H10O/c1-2-3-4-5/h5H,2-4H2,1H3, purity 99%
Compound 3: butan-2-ol, C4H10O, InChI=1S/C4H10O/c1-3-4(2)5/h4-5H,3H2,1-2H3, purity 99%
Compound 4: 2-methylpropan-2-ol, C4H10O, InChI=1S/C4H10O/c1-4(2,3)5/h5H,1-3H3, purity 99%
Compound 5: pentan-1-ol, C5H12O, InChI=1S/C5H12O/c1-2-3-4-5-6/h6H,2-5H2,1H3, purity 99%

System: butan-1-ol + dimethyl carbonate; phases: Liquid
Property: Excess molar enthalpy (molar enthalpy of mixing), kJ/mol (Liquid); method: Flow calorimetry
Temperature, K	Pressure, kPa	Mole fraction of dimethyl carbonate	Excess molar enthalpy (molar enthalpy of mixing), kJ/mol	uncertainty
298.15	1000	0.05	0.5333	0.0182
298.15	1000	0.1	0.9722	0.0179
298.15	1000	0.15	1.3246	0.018
298.15	1000	0.2	1.6041	0.0186
298.15	1000	0.25	1.8194	0.0191
298.15	1000	0.3	1.9804	0.0194
298.15	1000	0.35	2.0968	0.0197
298.15	1000	0.4	2.1602	0.0196
298.15	1000	0.45	2.1979	0.0195
298.15	1000	0.5	2.2001	0.0192
298.15	1000	0.55	2.1567	0.0185
298.15	1000	0.6	2.0691	0.0176
298.15	1000	0.65	1.9593	0.0166
298.15	1000	0.7	1.8215	0.0154
298.15	1000	0.75	1.6383	0.0138
298.15	1000	0.8	1.4073	0.0119
298.15	1000	0.85	1.1276	0.0096
298.15	1000	0.9	0.7979	0.007
298.15	1000	0.95	0.4144	0.004
313.15	100	0.049	0.5216	0.0191
313.15	100	0.099	0.9831	0.019
313.15	100	0.149	1.3746	0.0182
313.15	100	0.199	1.6907	0.0178
313.15	100	0.25	1.9391	0.018
313.15	100	0.299	2.1176	0.0183
313.15	100	0.351	2.2573	0.0188
313.15	100	0.4	2.3423	0.0191
313.15	100	0.449	2.3915	0.0193
313.15	100	0.499	2.3982	0.0194
313.15	100	0.549	2.371	0.0193
313.15	100	0.6	2.2839	0.0189
313.15	100	0.651	2.1578	0.0185
313.15	100	0.699	1.9924	0.0178
313.15	100	0.751	1.7865	0.0171
313.15	100	0.8	1.5396	0.0167
313.15	100	0.85	1.2493	0.0174
313.15	100	0.899	0.8527	0.0177
313.15	100	0.949	0.4522	0.0166
313.15	1000	0.049	0.5324	0.0193
313.15	1000	0.099	0.9963	0.0191
313.15	1000	0.149	1.3866	0.0182
313.15	1000	0.199	1.7004	0.0178
313.15	1000	0.25	1.9495	0.018
313.15	1000	0.299	2.1262	0.0184
313.15	1000	0.35	2.2703	0.0189
313.15	1000	0.399	2.3534	0.0192
313.15	1000	0.449	2.3934	0.0193
313.15	1000	0.499	2.3964	0.0193
313.15	1000	0.549	2.3592	0.0192
313.15	1000	0.6	2.2711	0.0188
313.15	1000	0.651	2.1445	0.0183
313.15	1000	0.699	1.9806	0.0177
313.15	1000	0.751	1.7736	0.0169
313.15	1000	0.8	1.5409	0.0168
313.15	1000	0.849	1.2373	0.0172
313.15	1000	0.899	0.8622	0.0176
313.15	1000	0.949	0.438	0.0171
313.15	10000	0.049	0.5175	0.0194
313.15	10000	0.101	1.005	0.0191
313.15	10000	0.151	1.3877	0.0179
313.15	10000	0.202	1.6939	0.0177
313.15	10000	0.249	1.9262	0.0179
313.15	10000	0.3	2.1174	0.0183
313.15	10000	0.349	2.2445	0.0187
313.15	10000	0.401	2.3373	0.0191
313.15	10000	0.451	2.3822	0.0193
313.15	10000	0.501	2.3896	0.0193
313.15	10000	0.551	2.3418	0.0191
313.15	10000	0.602	2.2629	0.0187
313.15	10000	0.65	2.1466	0.0186
313.15	10000	0.75	1.7771	0.0166
313.15	10000	0.799	1.5385	0.0169
313.15	10000	0.849	1.2245	0.0167
313.15	10000	0.899	0.8801	0.0175
313.15	10000	0.949	0.4373	0.0182
328.15	1000	0.05	0.539	0.0196
328.15	1000	0.1	1.016	0.0199
328.15	1000	0.15	1.427	0.0194
328.15	1000	0.2	1.7496	0.0196
328.15	1000	0.25	2.0194	0.0203
328.15	1000	0.3	2.2216	0.0209
328.15	1000	0.35	2.3786	0.0215
328.15	1000	0.4	2.4925	0.0219
328.15	1000	0.45	2.5445	0.0218
328.15	1000	0.5	2.5498	0.0216
328.15	1000	0.55	2.5188	0.0211
328.15	1000	0.6	2.4399	0.0203
328.15	1000	0.65	2.3187	0.0192
328.15	1000	0.7	2.1463	0.0177
328.15	1000	0.75	1.9154	0.0158
328.15	1000	0.8	1.6393	0.0136
328.15	1000	0.85	1.335	0.0112
328.15	1000	0.9	0.9333	0.008
328.15	1000	0.95	0.4768	0.0046

System: butan-2-ol + dimethyl carbonate; phases: Liquid
Property: Excess molar enthalpy (molar enthalpy of mixing), kJ/mol (Liquid); method: Flow calorimetry
Temperature, K	Pressure, kPa	Mole fraction of dimethyl carbonate	Excess molar enthalpy (molar enthalpy of mixing), kJ/mol	uncertainty
298.15	1000	0.05	0.5284	0.0191
298.15	1000	0.1	0.9908	0.0189
298.15	1000	0.15	1.373	0.0191
298.15	1000	0.2	1.6752	0.0197
298.15	1000	0.25	1.9202	0.0203
298.15	1000	0.3	2.1057	0.0208
298.15	1000	0.35	2.2394	0.0211
298.15	1000	0.4	2.3216	0.0212
298.15	1000	0.45	2.37	0.0211
298.15	1000	0.5	2.3766	0.0207
298.15	1000	0.55	2.3409	0.0201
298.15	1000	0.6	2.2624	0.0193
298.15	1000	0.65	2.1448	0.0181
298.15	1000	0.7	1.9906	0.0168
298.15	1000	0.75	1.7991	0.0151
298.15	1000	0.8	1.5316	0.0128
298.15	1000	0.9	0.9005	0.0078
298.15	1000	0.95	0.4802	0.0045
313.15	100	0.051	0.5173	0.0194
313.15	100	0.102	0.9976	0.0192
313.15	100	0.148	1.3535	0.0183
313.15	100	0.202	1.7222	0.0188
313.15	100	0.251	1.9905	0.0184
313.15	100	0.352	2.3877	0.0206
313.15	100	0.4	2.513	0.0207
313.15	100	0.45	2.5905	0.0209
313.15	100	0.501	2.616	0.021
313.15	100	0.551	2.5987	0.021
313.15	100	0.6	2.5427	0.0208
313.15	100	0.649	2.4323	0.0204
313.15	100	0.701	2.2647	0.0198
313.15	100	0.749	2.059	0.0194
313.15	100	0.799	1.7808	0.0191
313.15	100	0.849	1.4442	0.0191
313.15	100	0.899	1.0391	0.0199
313.15	100	0.951	0.5363	0.02
313.15	1000	0.051	0.5304	0.0194
313.15	1000	0.098	0.9799	0.0191
313.15	1000	0.149	1.3726	0.0187
313.15	1000	0.198	1.7191	0.0187
313.15	1000	0.251	1.9985	0.0184
313.15	1000	0.348	2.3833	0.0205
313.15	1000	0.4	2.5049	0.0205
313.15	1000	0.451	2.5842	0.0209
313.15	1000	0.501	2.6117	0.021
313.15	1000	0.551	2.6035	0.021
313.15	1000	0.6	2.5352	0.0207
313.15	1000	0.649	2.438	0.0204
313.15	1000	0.701	2.2679	0.0198
313.15	1000	0.749	2.0637	0.0195
313.15	1000	0.799	1.7823	0.0191
313.15	1000	0.85	1.447	0.0178
313.15	1000	0.899	1.0369	0.0202
313.15	1000	0.951	0.529	0.0206
313.15	10000	0.051	0.5656	0.0199
313.15	10000	0.1	1.0371	0.0197
313.15	10000	0.15	1.4374	0.019
313.15	10000	0.2	1.7764	0.019
313.15	10000	0.25	2.0484	0.0192
313.15	10000	0.301	2.261	0.0197
313.15	10000	0.35	2.42	0.0203
313.15	10000	0.399	2.5291	0.0207
313.15	10000	0.451	2.5955	0.0209
313.15	10000	0.501	2.6156	0.021
313.15	10000	0.551	2.5848	0.0209
313.15	10000	0.599	2.5184	0.0207
313.15	10000	0.65	2.3844	0.0205
313.15	10000	0.751	1.9826	0.0183
313.15	10000	0.801	1.7282	0.0183
313.15	10000	0.851	1.3996	0.0187
313.15	10000	0.901	0.9944	0.0196
313.15	10000	0.949	0.5327	0.0199
328.15	1000	0.05	0.5351	0.0201
328.15	1000	0.1	1.019	0.0202
328.15	1000	0.15	1.4432	0.0196
328.15	1000	0.201	1.7927	0.0203
328.15	1000	0.25	2.0769	0.021
328.15	1000	0.302	2.3156	0.0215
328.15	1000	0.352	2.4804	0.0226
328.15	1000	0.402	2.5965	0.023
328.15	1000	0.45	2.6674	0.0232
328.15	1000	0.502	2.6933	0.023
328.15	1000	0.551	2.6614	0.0225
328.15	1000	0.603	2.5827	0.0217
328.15	1000	0.653	2.4704	0.0207
328.15	1000	0.7	2.3089	0.0192
328.15	1000	0.751	2.0752	0.0172
328.15	1000	0.802	1.7904	0.0148
328.15	1000	0.9	1.0574	0.009
328.15	1000	0.95	0.5627	0.0052

System: 2-methylpropan-2-ol + dimethyl carbonate; phases: Liquid
Fixed: Pressure, kPa = 1000
Property: Excess molar enthalpy (molar enthalpy of mixing), kJ/mol (Liquid); method: Flow calorimetry
Temperature, K	Mole fraction of dimethyl carbonate	Excess molar enthalpy (molar enthalpy of mixing), kJ/mol	uncertainty
298.15	0.05	0.536	0.0189
298.15	0.1	0.9932	0.0188
298.15	0.15	1.3757	0.018
298.15	0.2	1.6901	0.0181
298.15	0.25	1.9583	0.0185
298.15	0.3	2.1605	0.0189
298.15	0.35	2.318	0.0196
298.15	0.4	2.4467	0.0202
298.15	0.45	2.5235	0.0204
298.15	0.5	2.5527	0.0205
298.15	0.55	2.5314	0.0205
298.15	0.6	2.4584	0.0201
298.15	0.65	2.3625	0.0197
298.15	0.7	2.2059	0.0194
298.15	0.75	1.9822	0.0188
298.15	0.8	1.7235	0.0189
298.15	0.9	1.0533	0.0176
298.15	0.95	0.5618	0.0203
328.15	0.05	0.5207	0.0181
328.15	0.1	0.9562	0.0182
328.15	0.15	1.3351	0.0181
328.15	0.2	1.6691	0.0182
328.15	0.25	1.9328	0.0185
328.15	0.3	2.1566	0.0192
328.15	0.35	2.3247	0.0196
328.15	0.4	2.4397	0.0201
328.15	0.45	2.5189	0.0204
328.15	0.5	2.5452	0.0205
328.15	0.55	2.5246	0.0204
328.15	0.6	2.4646	0.0202
328.15	0.65	2.3525	0.0197
328.15	0.7	2.1996	0.0194
328.15	0.75	1.9643	0.0186
328.15	0.8	1.7203	0.019
328.15	0.9	1.0263	0.0178
328.15	0.95	0.5369	0.0202

System: pentan-1-ol + dimethyl carbonate; phases: Liquid
Property: Excess molar enthalpy (molar enthalpy of mixing), kJ/mol (Liquid); method: FLOW:UFactor:2
Temperature, K	Pressure, kPa	Mole fraction of dimethyl carbonate	Excess molar enthalpy (molar enthalpy of mixing), kJ/mol	uncertainty
298.15	1000	0.05	0.5577	0.0211
298.15	1000	0.101	1.0275	0.0241
298.15	1000	0.151	1.3984	0.0277
298.15	1000	0.2	1.695	0.0311
298.15	1000	0.25	1.921	0.0338
298.15	1000	0.3	2.0849	0.0357
298.15	1000	0.35	2.1939	0.037
298.15	1000	0.4	2.2681	0.0379
298.15	1000	0.45	2.3114	0.0383
298.15	1000	0.5	2.3109	0.0381
298.15	1000	0.55	2.2644	0.0372
298.15	1000	0.601	2.1769	0.0357
298.15	1000	0.651	2.0645	0.0339
298.15	1000	0.701	1.8975	0.0312
298.15	1000	0.75	1.6857	0.0278
298.15	1000	0.851	1.1437	0.0193
298.15	1000	0.899	0.82	0.0143
298.15	1000	0.949	0.435	0.0083
313.15	100	0.05	0.5776	0.0224
313.15	100	0.101	1.0827	0.0256
313.15	100	0.151	1.4829	0.0286
313.15	100	0.2	1.8078	0.0318
313.15	100	0.25	2.0651	0.0347
313.15	100	0.301	2.2641	0.0372
313.15	100	0.351	2.3908	0.0388
313.15	100	0.402	2.4832	0.0401
313.15	100	0.451	2.52	0.0406
313.15	100	0.501	2.5136	0.0405
313.15	100	0.549	2.4687	0.0399
313.15	100	0.601	2.3708	0.0385
313.15	100	0.648	2.2497	0.0371
313.15	100	0.749	1.867	0.0317
313.15	100	0.799	1.5714	0.0284
313.15	100	0.851	1.2701	0.0255
313.15	100	0.899	0.8672	0.0227
313.15	100	0.949	0.4317	0.0193
313.15	1000	0.05	0.5602	0.0222
313.15	1000	0.101	1.0664	0.0256
313.15	1000	0.151	1.4721	0.0284
313.15	1000	0.2	1.7877	0.0315
313.15	1000	0.25	2.0485	0.0345
313.15	1000	0.301	2.2486	0.037
313.15	1000	0.351	2.3825	0.0387
313.15	1000	0.401	2.4738	0.04
313.15	1000	0.45	2.5159	0.0405
313.15	1000	0.501	2.516	0.0405
313.15	1000	0.549	2.4685	0.0399
313.15	1000	0.601	2.3669	0.0385
313.15	1000	0.652	2.2421	0.0368
313.15	1000	0.749	1.9049	0.0322
313.15	1000	0.799	1.6185	0.0288
313.15	1000	0.851	1.2891	0.0254
313.15	1000	0.899	0.9401	0.0234
313.15	1000	0.949	0.457	0.0208
313.15	10000	0.05	0.5672	0.0222
313.15	10000	0.101	1.0689	0.0255
313.15	10000	0.151	1.4744	0.0284
313.15	10000	0.199	1.7851	0.0314
313.15	10000	0.249	2.042	0.0344
313.15	10000	0.3	2.2448	0.037
313.15	10000	0.349	2.38	0.0387
313.15	10000	0.4	2.4642	0.0398
313.15	10000	0.449	2.5067	0.0404
313.15	10000	0.499	2.5115	0.0405
313.15	10000	0.551	2.4611	0.0398
313.15	10000	0.6	2.3715	0.0385
313.15	10000	0.65	2.2396	0.0373
313.15	10000	0.85	1.2926	0.0262
313.15	10000	0.899	0.928	0.0234
313.15	10000	0.949	0.4444	0.0211
328.15	1000	0.05	0.572	0.0224
328.15	1000	0.101	1.0774	0.0259
328.15	1000	0.151	1.4891	0.0294
328.15	1000	0.202	1.844	0.0333
328.15	1000	0.252	2.1177	0.0366
328.15	1000	0.3	2.3241	0.0392
328.15	1000	0.35	2.4789	0.0412
328.15	1000	0.4	2.5782	0.0425
328.15	1000	0.45	2.6337	0.0431
328.15	1000	0.5	2.6408	0.0431
328.15	1000	0.55	2.6011	0.0423
328.15	1000	0.601	2.511	0.0408
328.15	1000	0.651	2.3781	0.0386
328.15	1000	0.701	2.1946	0.0356
328.15	1000	0.75	1.9716	0.0322
328.15	1000	0.851	1.3666	0.0227
328.15	1000	0.899	0.9915	0.0169
328.15	1000	0.949	0.5087	0.0095
