Measured thermophysical data. Standard molar enthalpies of formation of 2-furancarbonitrile, 2-acetylfuran, and 3-furaldehyde
Source: J. Chem. Thermodyn., 2009, 10.1016/j.jct.2008.08.004
Compound 1: carbon dioxide, CO2, InChI=1S/CO2/c2-1-3
Compound 2: nitrogen, N2, InChI=1S/N2/c1-2
Compound 3: water, H2O, InChI=1S/H2O/h1H2
Compound 4: oxygen, O2, InChI=1S/O2/c1-2
Compound 5: 2-cyanofuran, C5H3NO, InChI=1S/C5H3NO/c6-4-5-2-1-3-7-5/h1-3H, purity 99%
Compound 6: 2-acetylfuran, C6H6O2, InChI=1S/C6H6O2/c1-5(7)6-3-2-4-8-6/h2-4H,1H3, purity 99%
Compound 7: 3-furaldehyde, C5H4O2, InChI=1S/C5H4O2/c6-3-5-1-2-7-4-5/h1-4H, purity 97%

System: 2-cyanofuran; phases: Liquid, Gas
Property: Molar enthalpy of vaporization or sublimation, kJ/mol (Liquid); method: Static calorimetry
Temperature, K	Molar enthalpy of vaporization or sublimation, kJ/mol	uncertainty
298.15	44.8	0.8

System: 2-cyanofuran; phases: Gas
Property: Molar enthalpy, kJ/mol (Gas); method: Calvet-Micro Calorimetry
Temperature, K	Pressure, kPa	Molar enthalpy, kJ/mol	uncertainty
329	100	47.8	0.8

System: 2-acetylfuran; phases: Liquid, Gas
Property: Molar enthalpy of vaporization or sublimation, kJ/mol (Liquid); method: Static calorimetry
Temperature, K	Molar enthalpy of vaporization or sublimation, kJ/mol	uncertainty
298.15	53	1.2

System: 2-acetylfuran; phases: Gas
Property: Molar enthalpy, kJ/mol (Gas); method: Calvet-Micro Calorimetry
Temperature, K	Pressure, kPa	Molar enthalpy, kJ/mol	uncertainty
350	100	59.8	1.2

System: 3-furaldehyde; phases: Liquid, Gas
Property: Molar enthalpy of vaporization or sublimation, kJ/mol (Liquid); method: Static calorimetry
Temperature, K	Molar enthalpy of vaporization or sublimation, kJ/mol	uncertainty
298.15	48.1	1

System: 3-furaldehyde; phases: Gas
Property: Molar enthalpy, kJ/mol (Gas); method: Calvet-Micro Calorimetry
Temperature, K	Pressure, kPa	Molar enthalpy, kJ/mol	uncertainty
329	100	51.2	1

Reaction: -1 2-cyanofuran + 5 carbon dioxide + .5 nitrogen + 1.5 water + -5.25 oxygen
Property: Specific internal energy of reaction at constant volume, J/g
-26415.2

Reaction: -1 2-acetylfuran + 6 carbon dioxide + 3 water + -6.5 oxygen
Property: Specific internal energy of reaction at constant volume, J/g
-26854

Reaction: -1 3-furaldehyde + 5 carbon dioxide + 2 water + -5 oxygen
Property: Specific internal energy of reaction at constant volume, J/g
-24345
