Measured thermophysical data. Thermodynamic study of (alkyl esters + a,x-alkyl dihalides) V. Hex and Vex for 25 binary mixtures {xCu-1H2u-1CO2CH3 + (1-x)a,x-ClCH2(CH2)v-2CH2Cl}, where u = 1 to 5, a = 1 and v = x = 2 to 6
Source: J. Chem. Thermodyn., 2007, 10.1016/j.jct.2006.10.008
Compound 1: methyl methanoate, C2H4O2, InChI=1S/C2H4O2/c1-4-2-3/h2H,1H3
Compound 2: ethyl methanoate, C3H6O2, InChI=1S/C3H6O2/c1-2-5-3-4/h3H,2H2,1H3
Compound 3: propyl methanoate, C4H8O2, InChI=1S/C4H8O2/c1-2-3-6-4-5/h4H,2-3H2,1H3
Compound 4: butyl methanoate, C5H10O2, InChI=1S/C5H10O2/c1-2-3-4-7-5-6/h5H,2-4H2,1H3
Compound 5: pentyl methanoate, C6H12O2, InChI=1S/C6H12O2/c1-2-3-4-5-8-6-7/h6H,2-5H2,1H3
Compound 6: 1,2-dichloroethane, C2H4Cl2, InChI=1S/C2H4Cl2/c3-1-2-4/h1-2H2
Compound 7: 1,3-dichloropropane, C3H6Cl2, InChI=1S/C3H6Cl2/c4-2-1-3-5/h1-3H2
Compound 8: 1,4-dichlorobutane, C4H8Cl2, InChI=1S/C4H8Cl2/c5-3-1-2-4-6/h1-4H2
Compound 9: 1,5-dichloropentane, C5H10Cl2, InChI=1S/C5H10Cl2/c6-4-2-1-3-5-7/h1-5H2
Compound 10: 1,6-dichlorohexane, C6H12Cl2, InChI=1S/C6H12Cl2/c7-5-3-1-2-4-6-8/h1-6H2

System: 1,2-dichloroethane + methyl methanoate; phases: Liquid
Fixed: Pressure, kPa = 101
Fixed: Temperature, K = 298.15
Property: Excess molar enthalpy (molar enthalpy of mixing), kJ/mol (Liquid); method: Calvet calorimetry
Mole fraction of methyl methanoate	Excess molar enthalpy (molar enthalpy of mixing), kJ/mol	uncertainty
0.0754	0.0266	0.001
0.1373	0.0459	0.0011
0.1901	0.0634	0.0013
0.2508	0.0793	0.0014
0.3109	0.0916	0.0015
0.3728	0.0996	0.0016
0.4325	0.1033	0.0016
0.4874	0.1028	0.0016
0.5372	0.1006	0.0016
0.5928	0.0947	0.0015
0.6569	0.086	0.0014
0.7322	0.0733	0.0013
0.8084	0.0578	0.0012
0.8844	0.0398	0.0011
0.9514	0.0205	0.0009

System: 1,2-dichloroethane + methyl methanoate; phases: Liquid
Fixed: Pressure, kPa = 101
Fixed: Temperature, K = 298.15
Property: Mass density, kg/m3 (Liquid); method: VIBTUB:UFactor:4:UFactor:4
Mole fraction of methyl methanoate	Mass density, kg/m3	uncertainty
0.0778	1227.3	0.78
0.1458	1211.22	0.75
0.2144	1194.43	0.71
0.2795	1177.71	0.68
0.3474	1160.37	0.64
0.4099	1143.76	0.61
0.4725	1126.96	0.57
0.5316	1110.73	0.54
0.5888	1094.68	0.51
0.6463	1077.99	0.48
0.6998	1062.25	0.45
0.753	1046.16	0.41
0.8045	1030.32	0.38
0.8548	1014.49	0.35
0.9043	998.6	0.33
0.9525	982.78	0.34

System: methyl methanoate + 1,3-dichloropropane; phases: Liquid
Fixed: Pressure, kPa = 101
Fixed: Temperature, K = 298.15
Property: Excess molar enthalpy (molar enthalpy of mixing), kJ/mol (Liquid); method: Calvet calorimetry
Mole fraction of methyl methanoate	Excess molar enthalpy (molar enthalpy of mixing), kJ/mol	uncertainty
0.0855	0.0884	0.0015
0.2024	0.2064	0.0024
0.3078	0.2817	0.003
0.4178	0.3358	0.0034
0.4624	0.3446	0.0034
0.4877	0.3481	0.0035
0.5024	0.3503	0.0035
0.5476	0.3527	0.0035
0.5583	0.3432	0.0034
0.5978	0.3375	0.0034
0.6499	0.3264	0.0033
0.7069	0.3087	0.0032
0.7674	0.2841	0.003
0.8297	0.2449	0.0027
0.893	0.1875	0.0023
0.9533	0.1031	0.0017

System: methyl methanoate + 1,3-dichloropropane; phases: Liquid
Fixed: Pressure, kPa = 101
Fixed: Temperature, K = 298.15
Property: Mass density, kg/m3 (Liquid); method: VIBTUB:UFactor:4
Mole fraction of methyl methanoate	Mass density, kg/m3	uncertainty
0.0849	1165.85	0.65
0.165	1152.81	0.63
0.244	1139.5	0.6
0.3177	1126.33	0.57
0.386	1113.56	0.55
0.4563	1099.9	0.52
0.5138	1088.31	0.5
0.5789	1074.43	0.47
0.635	1062.04	0.45
0.688	1049.82	0.42
0.7384	1037.54	0.4
0.7876	1025.35	0.37
0.8341	1013.43	0.35
0.878	1001.59	0.33
0.9206	989.81	0.34
0.9607	978.24	0.35

System: methyl methanoate + 1,4-dichlorobutane; phases: Liquid
Fixed: Pressure, kPa = 101
Fixed: Temperature, K = 298.15
Property: Excess molar enthalpy (molar enthalpy of mixing), kJ/mol (Liquid); method: Calvet calorimetry
Mole fraction of methyl methanoate	Excess molar enthalpy (molar enthalpy of mixing), kJ/mol	uncertainty
0.1071	0.1775	0.0022
0.2326	0.3348	0.0034
0.3559	0.4443	0.0042
0.4541	0.5006	0.0047
0.5426	0.5185	0.0048
0.5971	0.5148	0.0048
0.6515	0.5096	0.0047
0.7083	0.4875	0.0046
0.7662	0.4518	0.0043
0.8103	0.393	0.0038
0.8803	0.3159	0.0033
0.9274	0.2293	0.0027
0.9702	0.1337	0.002

System: methyl methanoate + 1,4-dichlorobutane; phases: Liquid
Fixed: Pressure, kPa = 101
Fixed: Temperature, K = 298.15
Property: Mass density, kg/m3 (Liquid); method: VIBTUB:UFactor:4
Mole fraction of methyl methanoate	Mass density, kg/m3	uncertainty
0.1002	1123.14	0.57
0.1967	1112.22	0.54
0.2763	1102.15	0.52
0.3523	1092.16	0.5
0.4263	1081.69	0.48
0.4898	1072.05	0.46
0.5567	1061.23	0.44
0.615	1051.3	0.42
0.6692	1041.41	0.4
0.7199	1031.71	0.39
0.7663	1022.34	0.37
0.8116	1012.65	0.35
0.8535	1003.36	0.33
0.8907	994.7	0.33
0.9302	985.1	0.34
0.9657	976.07	0.35

System: methyl methanoate + 1,5-dichloropentane; phases: Liquid
Fixed: Pressure, kPa = 101
Fixed: Temperature, K = 298.15
Property: Excess molar enthalpy (molar enthalpy of mixing), kJ/mol (Liquid); method: Calvet calorimetry
Mole fraction of methyl methanoate	Excess molar enthalpy (molar enthalpy of mixing), kJ/mol	uncertainty
0.1095	0.2187	0.0025
0.2232	0.3698	0.0037
0.3299	0.4988	0.0047
0.4118	0.5674	0.0052
0.4763	0.6096	0.0055
0.5269	0.6131	0.0055
0.5661	0.6206	0.0056
0.613	0.6293	0.0057
0.6627	0.6177	0.0056
0.7114	0.6028	0.0054
0.7734	0.5604	0.0051
0.8369	0.4817	0.0046
0.88	0.3917	0.0039
0.9328	0.2801	0.0031
0.9693	0.1509	0.0024

System: methyl methanoate + 1,5-dichloropentane; phases: Liquid
Fixed: Pressure, kPa = 101
Fixed: Temperature, K = 298.15
Property: Mass density, kg/m3 (Liquid); method: VIBTUB:UFactor:4
Mole fraction of methyl methanoate	Mass density, kg/m3	uncertainty
0.1169	1086.48	0.49
0.2211	1077.88	0.48
0.3054	1070.16	0.46
0.3849	1062.32	0.45
0.4622	1054	0.43
0.5291	1046.2	0.41
0.5925	1038.15	0.4
0.6496	1030.38	0.38
0.7004	1022.87	0.37
0.7481	1015.48	0.35
0.792	1008.18	0.34
0.8333	1001	0.32
0.8711	993.92	0.33
0.9066	986.88	0.34
0.94	980.05	0.35
0.9705	973.45	0.35

System: methyl methanoate + 1,6-dichlorohexane; phases: Liquid
Fixed: Pressure, kPa = 101
Fixed: Temperature, K = 298.15
Property: Excess molar enthalpy (molar enthalpy of mixing), kJ/mol (Liquid); method: Calvet calorimetry
Mole fraction of methyl methanoate	Excess molar enthalpy (molar enthalpy of mixing), kJ/mol	uncertainty
0.0953	0.2425	0.0027
0.2199	0.4592	0.0044
0.3324	0.609	0.0055
0.4307	0.6964	0.0062
0.5033	0.7287	0.0064
0.5596	0.7339	0.0065
0.5977	0.7378	0.0065
0.6601	0.7237	0.0064
0.7167	0.6977	0.0062
0.7749	0.6517	0.0058
0.8296	0.5747	0.0053
0.8855	0.4729	0.0045
0.935	0.3269	0.0036
0.974	0.1739	0.0026

System: methyl methanoate + 1,6-dichlorohexane; phases: Liquid
Fixed: Pressure, kPa = 101
Fixed: Temperature, K = 298.15
Property: Mass density, kg/m3 (Liquid); method: VIBTUB:UFactor:4
Mole fraction of methyl methanoate	Mass density, kg/m3	uncertainty
0.1205	1057.33	0.44
0.2277	1050.93	0.42
0.3234	1044.52	0.41
0.4146	1037.85	0.4
0.4858	1032.03	0.39
0.555	1025.73	0.37
0.6169	1019.68	0.36
0.6713	1013.87	0.35
0.7244	1007.71	0.34
0.7696	1002.16	0.33
0.811	996.6	0.33
0.8479	991.36	0.33
0.8838	986.03	0.34
0.9163	980.96	0.35
0.9461	976	0.35
0.9737	970.7	0.36

System: 1,2-dichloroethane + ethyl methanoate; phases: Liquid
Fixed: Pressure, kPa = 101
Fixed: Temperature, K = 298.15
Property: Excess molar enthalpy (molar enthalpy of mixing), kJ/mol (Liquid); method: Calvet calorimetry
Mole fraction of ethyl methanoate	Excess molar enthalpy (molar enthalpy of mixing), kJ/mol	uncertainty
0.0533	-0.0314	0.0011
0.117	-0.0725	0.0014
0.1872	-0.1122	0.0017
0.2551	-0.1475	0.0019
0.3201	-0.1809	0.0022
0.3798	-0.209	0.0024
0.4359	-0.2297	0.0026
0.4835	-0.2442	0.0027
0.5094	-0.2501	0.0027
0.5591	-0.2504	0.0027
0.6134	-0.24	0.0026
0.6735	-0.2284	0.0025
0.7374	-0.2029	0.0024
0.8	-0.1662	0.0021
0.8714	-0.1182	0.0017
0.9368	-0.0611	0.0013

System: 1,2-dichloroethane + ethyl methanoate; phases: Liquid
Fixed: Pressure, kPa = 101
Fixed: Temperature, K = 298.15
Property: Mass density, kg/m3 (Liquid); method: VIBTUB:UFactor:4
Mole fraction of ethyl methanoate	Mass density, kg/m3	uncertainty
0.0571	1226.06	0.78
0.1212	1204.8	0.73
0.1793	1185.79	0.69
0.2317	1168.78	0.66
0.2946	1148.35	0.62
0.355	1128.9	0.58
0.4144	1109.76	0.54
0.465	1093.66	0.51
0.5294	1073.24	0.47
0.5889	1054.49	0.43
0.6485	1035.88	0.39
0.7065	1017.61	0.36
0.7648	999.52	0.32
0.8239	981.06	0.35
0.8823	962.96	0.37
0.9345	946.9	0.39

System: ethyl methanoate + 1,3-dichloropropane; phases: Liquid
Fixed: Pressure, kPa = 101
Fixed: Temperature, K = 298.15
Property: Excess molar enthalpy (molar enthalpy of mixing), kJ/mol (Liquid); method: Calvet calorimetry
Mole fraction of ethyl methanoate	Excess molar enthalpy (molar enthalpy of mixing), kJ/mol	uncertainty
0.1171	0.0342	0.0011
0.2311	0.0689	0.0013
0.3403	0.0846	0.0014
0.435	0.0819	0.0014
0.5147	0.0692	0.0013
0.5813	0.0519	0.0012
0.6354	0.0374	0.0011
0.682	0.0246	0.001
0.7186	0.0124	0.0009
0.7381	-0.0155	0.0009
0.7773	-0.0284	0.001
0.8208	-0.0385	0.0011
0.8622	-0.0441	0.0011
0.9018	-0.0359	0.0011
0.9383	-0.0189	0.0009
0.9723	-0.0012	0.0008

System: ethyl methanoate + 1,3-dichloropropane; phases: Liquid
Fixed: Pressure, kPa = 101
Fixed: Temperature, K = 298.15
Property: Mass density, kg/m3 (Liquid); method: VIBTUB:UFactor:4
Mole fraction of ethyl methanoate	Mass density, kg/m3	uncertainty
0.0758	1161.82	0.64
0.1392	1147.48	0.62
0.2059	1132.04	0.58
0.2686	1117.5	0.56
0.336	1101.45	0.52
0.3983	1086.31	0.49
0.4584	1071.44	0.46
0.5183	1056.42	0.43
0.5752	1041.98	0.41
0.6319	1027.35	0.38
0.6884	1012.54	0.35
0.7433	997.87	0.33
0.7967	983.56	0.34
0.849	969.23	0.36
0.9005	954.87	0.38
0.949	941.1	0.39

System: ethyl methanoate + 1,4-dichlorobutane; phases: Liquid
Fixed: Pressure, kPa = 101
Fixed: Temperature, K = 298.15
Property: Excess molar enthalpy (molar enthalpy of mixing), kJ/mol (Liquid); method: Calvet calorimetry
Mole fraction of ethyl methanoate	Excess molar enthalpy (molar enthalpy of mixing), kJ/mol	uncertainty
0.083	0.1097	0.0017
0.1706	0.1759	0.0022
0.256	0.2206	0.0025
0.3368	0.2442	0.0027
0.4094	0.2436	0.0027
0.473	0.2303	0.0026
0.5279	0.2115	0.0024
0.5977	0.1652	0.0021
0.6452	0.1422	0.0019
0.6966	0.1047	0.0016
0.7477	0.0697	0.0013
0.803	0.045	0.0011
0.8543	0.0265	0.001
0.907	0.0156	0.0009
0.9569	0.0093	0.0009

System: ethyl methanoate + 1,4-dichlorobutane; phases: Liquid
Fixed: Pressure, kPa = 101
Fixed: Temperature, K = 298.15
Property: Mass density, kg/m3 (Liquid); method: VIBTUB:UFactor:4
Mole fraction of ethyl methanoate	Mass density, kg/m3	uncertainty
0.0774	1120.56	0.56
0.1549	1107.96	0.54
0.229	1095.35	0.51
0.2982	1083.08	0.49
0.3653	1070.71	0.46
0.4302	1058.33	0.44
0.4921	1046.05	0.41
0.5517	1033.83	0.39
0.6131	1020.82	0.36
0.6683	1008.67	0.34
0.7211	996.7	0.33
0.7717	984.84	0.34
0.8212	973.13	0.35
0.8674	961.66	0.37
0.9134	949.8	0.38
0.9569	938.37	0.4

System: ethyl methanoate + 1,5-dichloropentane; phases: Liquid
Fixed: Pressure, kPa = 101
Fixed: Temperature, K = 298.15
Property: Excess molar enthalpy (molar enthalpy of mixing), kJ/mol (Liquid); method: Calvet calorimetry
Mole fraction of ethyl methanoate	Excess molar enthalpy (molar enthalpy of mixing), kJ/mol	uncertainty
0.1024	0.1409	0.0019
0.2043	0.2235	0.0025
0.2974	0.295	0.0031
0.3848	0.3351	0.0034
0.4598	0.3453	0.0035
0.5273	0.3389	0.0034
0.5845	0.321	0.0033
0.6305	0.297	0.0031
0.6809	0.2596	0.0028
0.7286	0.2305	0.0026
0.7798	0.1899	0.0023
0.8289	0.1486	0.002
0.8791	0.109	0.0017
0.9215	0.0696	0.0014
0.9634	0.0314	0.0011

System: ethyl methanoate + 1,5-dichloropentane; phases: Liquid
Fixed: Pressure, kPa = 101
Fixed: Temperature, K = 298.15
Property: Mass density, kg/m3 (Liquid); method: VIBTUB:UFactor:4
Mole fraction of ethyl methanoate	Mass density, kg/m3	uncertainty
0.0955	1084.27	0.49
0.1752	1074.48	0.47
0.2534	1064.51	0.45
0.3284	1054.28	0.43
0.3985	1044.1	0.41
0.4628	1034.31	0.39
0.5327	1023.03	0.37
0.5897	1013.34	0.35
0.6456	1003.36	0.33
0.698	993.61	0.33
0.7473	983.9	0.34
0.7941	974.37	0.35
0.8401	964.52	0.36
0.8829	954.89	0.38
0.9235	945.49	0.39
0.9625	936.01	0.4

System: ethyl methanoate + 1,6-dichlorohexane; phases: Liquid
Fixed: Pressure, kPa = 101
Fixed: Temperature, K = 298.15
Property: Excess molar enthalpy (molar enthalpy of mixing), kJ/mol (Liquid); method: Calvet calorimetry
Mole fraction of ethyl methanoate	Excess molar enthalpy (molar enthalpy of mixing), kJ/mol	uncertainty
0.102	0.1711	0.0022
0.205	0.2978	0.0031
0.2968	0.3913	0.0038
0.3852	0.4411	0.0042
0.4641	0.4605	0.0043
0.5316	0.4655	0.0044
0.5845	0.4581	0.0043
0.6442	0.4361	0.0042
0.6907	0.406	0.0039
0.7399	0.3651	0.0036
0.7869	0.3061	0.0032
0.8348	0.2503	0.0028
0.8829	0.175	0.0022
0.9248	0.1191	0.0018
0.9656	0.0618	0.0014

System: ethyl methanoate + 1,6-dichlorohexane; phases: Liquid
Fixed: Pressure, kPa = 101
Fixed: Temperature, K = 298.15
Property: Mass density, kg/m3 (Liquid); method: VIBTUB:UFactor:4
Mole fraction of ethyl methanoate	Mass density, kg/m3	uncertainty
0.0997	1055.27	0.43
0.196	1046.53	0.41
0.28	1038.19	0.4
0.3577	1029.9	0.38
0.4304	1021.49	0.36
0.4965	1013.36	0.35
0.558	1005.21	0.33
0.6159	997.06	0.33
0.67	988.91	0.34
0.7203	980.91	0.35
0.7675	973	0.35
0.8114	965.17	0.36
0.8538	957.24	0.37
0.893	949.58	0.38
0.9301	941.93	0.39
0.9649	934.51	0.4

System: 1,2-dichloroethane + propyl methanoate; phases: Liquid
Fixed: Pressure, kPa = 101
Fixed: Temperature, K = 298.15
Property: Excess molar enthalpy (molar enthalpy of mixing), kJ/mol (Liquid); method: Calvet calorimetry
Mole fraction of propyl methanoate	Excess molar enthalpy (molar enthalpy of mixing), kJ/mol	uncertainty
0.0489	-0.0374	0.0011
0.1034	-0.0843	0.0015
0.1594	-0.1412	0.0019
0.2211	-0.1981	0.0023
0.28	-0.2544	0.0028
0.3363	-0.3072	0.0032
0.3886	-0.3527	0.0035
0.4382	-0.3907	0.0038
0.483	-0.4196	0.004
0.5155	-0.4351	0.0041
0.5716	-0.4376	0.0042
0.6361	-0.4199	0.004
0.7083	-0.3758	0.0037
0.7725	-0.3135	0.0032
0.8488	-0.2282	0.0026
0.9302	-0.122	0.0018

System: 1,2-dichloroethane + propyl methanoate; phases: Liquid
Fixed: Pressure, kPa = 101
Fixed: Temperature, K = 298.15
Property: Mass density, kg/m3 (Liquid); method: VIBTUB:UFactor:4
Mole fraction of propyl methanoate	Mass density, kg/m3	uncertainty
0.0538	1223.09	0.77
0.1017	1203.75	0.73
0.1515	1184.04	0.69
0.2043	1163.71	0.65
0.2575	1143.76	0.61
0.3685	1103.98	0.53
0.4248	1084.54	0.49
0.4826	1065.09	0.45
0.5426	1045.46	0.41
0.6034	1026.11	0.38
0.6652	1006.9	0.34
0.7294	987.38	0.34
0.794	968.29	0.36
0.8599	949.22	0.38
0.9286	929.85	0.41

System: propyl methanoate + 1,3-dichloropropane; phases: Liquid
Fixed: Pressure, kPa = 101
Fixed: Temperature, K = 298.15
Property: Excess molar enthalpy (molar enthalpy of mixing), kJ/mol (Liquid); method: Calvet calorimetry
Mole fraction of propyl methanoate	Excess molar enthalpy (molar enthalpy of mixing), kJ/mol	uncertainty
0.0618	-0.003	0.0008
0.1342	-0.017	0.0009
0.2092	-0.0398	0.0011
0.2838	-0.0676	0.0013
0.3515	-0.0965	0.0015
0.4148	-0.1243	0.0018
0.4714	-0.1497	0.0019
0.503	-0.1662	0.0021
0.5539	-0.193	0.0023
0.6084	-0.2099	0.0024
0.6696	-0.2055	0.0024
0.7356	-0.1844	0.0022
0.8024	-0.1526	0.002
0.8727	-0.108	0.0016
0.9394	-0.0561	0.0013

System: propyl methanoate + 1,3-dichloropropane; phases: Liquid
Fixed: Pressure, kPa = 101
Fixed: Temperature, K = 298.15
Property: Mass density, kg/m3 (Liquid); method: VIBTUB:UFactor:4
Mole fraction of propyl methanoate	Mass density, kg/m3	uncertainty
0.0612	1161.75	0.64
0.1204	1145.46	0.61
0.1775	1129.76	0.58
0.2355	1113.91	0.55
0.2944	1097.92	0.52
0.3527	1082.1	0.49
0.4109	1066.46	0.45
0.4695	1050.7	0.42
0.5286	1034.93	0.39
0.5863	1019.65	0.36
0.6459	1003.85	0.33
0.7044	988.35	0.34
0.763	972.97	0.36
0.8214	957.74	0.37
0.8796	942.43	0.39
0.9386	927.1	0.41

System: 1,4-dichlorobutane + propyl methanoate; phases: Liquid
Fixed: Pressure, kPa = 101
Fixed: Temperature, K = 298.15
Property: Excess molar enthalpy (molar enthalpy of mixing), kJ/mol (Liquid); method: Calvet calorimetry
Mole fraction of propyl methanoate	Excess molar enthalpy (molar enthalpy of mixing), kJ/mol	uncertainty
0.0711	0.0285	0.001
0.1446	0.0411	0.0011
0.2182	0.0439	0.0011
0.2908	0.0273	0.001
0.3554	0.0089	0.0009
0.4191	-0.0128	0.0009
0.4755	-0.0293	0.001
0.5267	-0.0443	0.0011
0.5668	-0.0557	0.0012
0.6196	-0.0705	0.0013
0.681	-0.0777	0.0014
0.7427	-0.0719	0.0013
0.8085	-0.0598	0.0012
0.875	-0.0393	0.0011
0.939	-0.0223	0.001

System: 1,4-dichlorobutane + propyl methanoate; phases: Liquid
Fixed: Pressure, kPa = 101
Fixed: Temperature, K = 298.15
Property: Mass density, kg/m3 (Liquid); method: VIBTUB:UFactor:4
Mole fraction of propyl methanoate	Mass density, kg/m3	uncertainty
0.0695	1119.11	0.56
0.1347	1106.03	0.53
0.1987	1092.92	0.51
0.2624	1079.78	0.48
0.3279	1066.03	0.45
0.3884	1053.07	0.43
0.4509	1039.59	0.4
0.5061	1027.51	0.38
0.5671	1013.93	0.35
0.6204	1001.93	0.33
0.6808	988.13	0.34
0.7363	975.18	0.35
0.7901	962.5	0.37
0.8426	950.01	0.38
0.8965	936.97	0.4
0.9466	924.57	0.41

System: propyl methanoate + 1,5-dichloropentane; phases: Liquid
Fixed: Pressure, kPa = 101
Fixed: Temperature, K = 298.15
Property: Excess molar enthalpy (molar enthalpy of mixing), kJ/mol (Liquid); method: Calvet calorimetry
Mole fraction of propyl methanoate	Excess molar enthalpy (molar enthalpy of mixing), kJ/mol	uncertainty
0.0792	0.0571	0.0012
0.1664	0.0915	0.0015
0.2538	0.1155	0.0017
0.3307	0.1208	0.0017
0.4063	0.1179	0.0017
0.4789	0.1051	0.0016
0.5175	0.0922	0.0015
0.5645	0.0738	0.0014
0.6145	0.0594	0.0012
0.6665	0.0391	0.0011
0.7229	0.02	0.0009
0.7817	0.0067	0.0008
0.8389	-0.0104	0.0009
0.8948	-0.0212	0.0009
0.9503	-0.012	0.0009

System: propyl methanoate + 1,5-dichloropentane; phases: Liquid
Fixed: Pressure, kPa = 101
Fixed: Temperature, K = 298.15
Property: Mass density, kg/m3 (Liquid); method: VIBTUB:UFactor:4
Mole fraction of propyl methanoate	Mass density, kg/m3	uncertainty
0.0753	1084.21	0.49
0.1495	1073.17	0.47
0.2212	1062.01	0.44
0.2884	1051.29	0.42
0.3607	1039.4	0.4
0.4174	1029.7	0.38
0.4802	1018.63	0.36
0.5386	1008.06	0.34
0.6024	996.11	0.33
0.6568	985.57	0.34
0.7118	974.66	0.35
0.8133	953.48	0.38
0.8586	943.64	0.39
0.9056	933.22	0.4
0.9555	921.68	0.42

System: propyl methanoate + 1,6-dichlorohexane; phases: Liquid
Fixed: Pressure, kPa = 101
Fixed: Temperature, K = 298.15
Property: Excess molar enthalpy (molar enthalpy of mixing), kJ/mol (Liquid); method: Calvet calorimetry
Mole fraction of propyl methanoate	Excess molar enthalpy (molar enthalpy of mixing), kJ/mol	uncertainty
0.083	0.0666	0.0013
0.1781	0.12	0.0017
0.2715	0.1583	0.002
0.3516	0.1767	0.0021
0.4261	0.179	0.0022
0.5	0.1686	0.0021
0.5567	0.1468	0.0019
0.6558	0.1084	0.0016
0.7057	0.0851	0.0014
0.7584	0.0628	0.0013
0.815	0.0416	0.0011
0.8628	0.0252	0.001
0.91	0.0122	0.0009
0.9591	0.0089	0.0009

System: propyl methanoate + 1,6-dichlorohexane; phases: Liquid
Fixed: Pressure, kPa = 101
Fixed: Temperature, K = 298.15
Property: Mass density, kg/m3 (Liquid); method: VIBTUB:UFactor:4
Mole fraction of propyl methanoate	Mass density, kg/m3	uncertainty
0.0918	1053.78	0.43
0.1702	1044.88	0.41
0.2469	1035.63	0.39
0.3218	1026.16	0.37
0.3877	1017.4	0.36
0.4551	1008	0.34
0.5167	998.95	0.32
0.5747	990.06	0.33
0.6303	981.16	0.34
0.6844	972.09	0.36
0.7354	963.2	0.37
0.7849	954.19	0.38
0.8768	936.4	0.4
0.9196	927.69	0.41
0.9603	919.06	0.42

System: 1,2-dichloroethane + butyl methanoate; phases: Liquid
Fixed: Pressure, kPa = 101
Fixed: Temperature, K = 298.15
Property: Excess molar enthalpy (molar enthalpy of mixing), kJ/mol (Liquid); method: Calvet calorimetry
Mole fraction of butyl methanoate	Excess molar enthalpy (molar enthalpy of mixing), kJ/mol	uncertainty
0.0414	-0.0399	0.0012
0.0923	-0.0887	0.0015
0.1436	-0.1434	0.0019
0.1984	-0.2011	0.0024
0.2527	-0.2589	0.0028
0.3048	-0.3137	0.0032
0.3561	-0.3558	0.0035
0.4041	-0.3935	0.0038
0.4493	-0.4197	0.004
0.4629	-0.4209	0.004
0.5202	-0.4289	0.0041
0.5856	-0.4203	0.004
0.6594	-0.3882	0.0038
0.7406	-0.3284	0.0033
0.829	-0.2379	0.0027
0.9165	-0.1334	0.0019

System: 1,2-dichloroethane + butyl methanoate; phases: Liquid
Fixed: Pressure, kPa = 101
Fixed: Temperature, K = 298.15
Property: Mass density, kg/m3 (Liquid); method: VIBTUB:UFactor:4
Mole fraction of butyl methanoate	Mass density, kg/m3	uncertainty
0.0446	1222.63	0.77
0.087	1201.85	0.73
0.1314	1180.87	0.68
0.1786	1159.63	0.64
0.2266	1138.77	0.6
0.277	1117.89	0.56
0.3837	1076.58	0.48
0.4403	1056.07	0.43
0.5	1035.47	0.39
0.5622	1014.9	0.35
0.6248	995.09	0.33
0.6931	974.48	0.35
0.7645	953.92	0.38
0.8389	933.51	0.4

System: 1,3-dichloropropane + butyl methanoate; phases: Liquid
Fixed: Pressure, kPa = 101
Fixed: Temperature, K = 298.15
Property: Excess molar enthalpy (molar enthalpy of mixing), kJ/mol (Liquid); method: Calvet calorimetry
Mole fraction of butyl methanoate	Excess molar enthalpy (molar enthalpy of mixing), kJ/mol	uncertainty
0.0521	-0.0289	0.001
0.1142	-0.0529	0.0012
0.1765	-0.0866	0.0015
0.2379	-0.1268	0.0018
0.2982	-0.1611	0.002
0.3557	-0.2052	0.0024
0.4108	-0.2483	0.0027
0.4602	-0.2777	0.0029
0.5057	-0.2981	0.0031
0.5508	-0.2997	0.0031
0.6114	-0.2887	0.003
0.6872	-0.2611	0.0028
0.7608	-0.2203	0.0025
0.8457	-0.1573	0.002
0.9261	-0.0861	0.0015

System: 1,3-dichloropropane + butyl methanoate; phases: Liquid
Fixed: Pressure, kPa = 101
Fixed: Temperature, K = 298.15
Property: Mass density, kg/m3 (Liquid); method: VIBTUB:UFactor:4
Mole fraction of butyl methanoate	Mass density, kg/m3	uncertainty
0.0505	1161.51	0.64
0.101	1144.56	0.61
0.1523	1127.68	0.58
0.2044	1110.9	0.54
0.2581	1094	0.51
0.313	1077.09	0.48
0.3693	1060.1	0.44
0.4847	1026.45	0.38
0.5445	1009.59	0.34
0.6675	976.01	0.35
0.7309	959.34	0.37
0.7964	942.5	0.39
0.862	925.98	0.41
0.9296	909.27	0.43

System: 1,4-dichlorobutane + butyl methanoate; phases: Liquid
Fixed: Pressure, kPa = 101
Fixed: Temperature, K = 298.15
Property: Excess molar enthalpy (molar enthalpy of mixing), kJ/mol (Liquid); method: Calvet calorimetry
Mole fraction of butyl methanoate	Excess molar enthalpy (molar enthalpy of mixing), kJ/mol	uncertainty
0.0614	-0.0115	0.0009
0.1294	-0.0303	0.001
0.1998	-0.0548	0.0012
0.2674	-0.0914	0.0015
0.3309	-0.1226	0.0017
0.3925	-0.163	0.0021
0.4407	-0.1977	0.0023
0.4897	-0.2232	0.0025
0.5404	-0.2268	0.0025
0.5969	-0.2256	0.0025
0.6592	-0.2146	0.0024
0.7249	-0.1929	0.0023
0.795	-0.1613	0.002
0.8656	-0.1173	0.0017
0.9356	-0.0625	0.0013

System: 1,4-dichlorobutane + butyl methanoate; phases: Liquid
Fixed: Pressure, kPa = 101
Fixed: Temperature, K = 298.15
Property: Mass density, kg/m3 (Liquid); method: VIBTUB:UFactor:4
Mole fraction of butyl methanoate	Mass density, kg/m3	uncertainty
0.0624	1118.28	0.56
0.1208	1103.88	0.53
0.1776	1089.9	0.5
0.2372	1075.3	0.47
0.346	1048.8	0.42
0.4096	1033.38	0.39
0.4679	1019.27	0.36
0.5213	1006.41	0.34
0.6434	977.11	0.35
0.7039	962.64	0.37
0.7624	948.68	0.38
0.821	934.76	0.4
0.8802	920.71	0.42
0.9398	906.62	0.43

System: butyl methanoate + 1,5-dichloropentane; phases: Liquid
Fixed: Pressure, kPa = 101
Fixed: Temperature, K = 298.15
Property: Excess molar enthalpy (molar enthalpy of mixing), kJ/mol (Liquid); method: Calvet calorimetry
Mole fraction of butyl methanoate	Excess molar enthalpy (molar enthalpy of mixing), kJ/mol	uncertainty
0.0722	0.003	0.0008
0.1463	-0.0035	0.0008
0.2242	-0.0226	0.001
0.2989	-0.0464	0.0012
0.3685	-0.0785	0.0014
0.4319	-0.1121	0.0017
0.4894	-0.1319	0.0018
0.5395	-0.1481	0.0019
0.5701	-0.1549	0.002
0.5843	-0.1542	0.002
0.6266	-0.1439	0.0019
0.6861	-0.1303	0.0018
0.7462	-0.1132	0.0017
0.8107	-0.0904	0.0015
0.8755	-0.0652	0.0013
0.9382	-0.0374	0.0011

System: butyl methanoate + 1,5-dichloropentane; phases: Liquid
Fixed: Pressure, kPa = 101
Fixed: Temperature, K = 298.15
Property: Mass density, kg/m3 (Liquid); method: VIBTUB:UFactor:4
Mole fraction of butyl methanoate	Mass density, kg/m3	uncertainty
0.0753	1081.49	0.48
0.1366	1070.16	0.46
0.2613	1046.7	0.41
0.3251	1034.45	0.39
0.3849	1022.81	0.37
0.4446	1011	0.34
0.5039	999.1	0.32
0.6199	975.33	0.35
0.676	963.59	0.37
0.732	951.7	0.38
0.787	939.85	0.39
0.841	928.06	0.41
0.8939	916.34	0.42
0.9477	904.29	0.44

System: butyl methanoate + 1,6-dichlorohexane; phases: Liquid
Fixed: Pressure, kPa = 101
Fixed: Temperature, K = 298.15
Property: Excess molar enthalpy (molar enthalpy of mixing), kJ/mol (Liquid); method: Calvet calorimetry
Mole fraction of butyl methanoate	Excess molar enthalpy (molar enthalpy of mixing), kJ/mol	uncertainty
0.095	0.0251	0.001
0.1874	0.0412	0.0011
0.2768	0.0425	0.0011
0.3583	0.0302	0.001
0.4321	0.0055	0.0008
0.4949	-0.0291	0.001
0.5195	-0.0379	0.0011
0.5526	-0.0541	0.0012
0.566	-0.0588	0.0012
0.616	-0.0777	0.0014
0.6674	-0.0869	0.0015
0.7246	-0.0856	0.0014
0.7832	-0.0764	0.0014
0.8346	-0.0657	0.0013
0.892	-0.0428	0.0011
0.9474	-0.0247	0.001

System: butyl methanoate + 1,6-dichlorohexane; phases: Liquid
Fixed: Pressure, kPa = 101
Fixed: Temperature, K = 298.15
Property: Mass density, kg/m3 (Liquid); method: VIBTUB:UFactor:4
Mole fraction of butyl methanoate	Mass density, kg/m3	uncertainty
0.074	1053.56	0.43
0.1444	1043.66	0.41
0.2217	1032.43	0.39
0.2795	1023.76	0.37
0.3441	1013.82	0.35
0.4081	1003.67	0.33
0.5278	983.77	0.34
0.586	973.68	0.35
0.641	963.84	0.37
0.702	952.63	0.38
0.7544	942.71	0.39
0.856	922.68	0.41
0.9056	912.53	0.43
0.9528	902.59	0.44

System: 1,2-dichloroethane + pentyl methanoate; phases: Liquid
Fixed: Pressure, kPa = 101
Fixed: Temperature, K = 298.15
Property: Excess molar enthalpy (molar enthalpy of mixing), kJ/mol (Liquid); method: Calvet calorimetry
Mole fraction of pentyl methanoate	Excess molar enthalpy (molar enthalpy of mixing), kJ/mol	uncertainty
0.0406	-0.0343	0.0011
0.0934	-0.0828	0.0015
0.1501	-0.1412	0.0019
0.2054	-0.1919	0.0023
0.2613	-0.2439	0.0027
0.3157	-0.2822	0.003
0.3653	-0.3202	0.0033
0.4153	-0.3507	0.0035
0.4604	-0.3718	0.0037
0.5014	-0.3831	0.0037
0.5593	-0.387	0.0038
0.6338	-0.3677	0.0036
0.7235	-0.3138	0.0032
0.8158	-0.23	0.0026
0.9141	-0.1263	0.0018

System: 1,2-dichloroethane + pentyl methanoate; phases: Liquid
Fixed: Pressure, kPa = 101
Fixed: Temperature, K = 298.15
Property: Mass density, kg/m3 (Liquid); method: VIBTUB:UFactor:4
Mole fraction of pentyl methanoate	Mass density, kg/m3	uncertainty
0.0396	1221.77	0.77
0.0779	1199.93	0.72
0.1181	1178.31	0.68
0.1601	1156.97	0.64
0.2047	1135.53	0.59
0.2505	1114.67	0.55
0.3008	1093.1	0.51
0.3529	1072.02	0.47
0.4074	1051.23	0.42
0.4655	1030.4	0.38
0.5288	1009.11	0.34
0.5948	988.32	0.34
0.6639	967.94	0.36
0.7399	946.95	0.39
0.8201	926.19	0.41
0.906	905.54	0.44

System: 1,3-dichloropropane + pentyl methanoate; phases: Liquid
Fixed: Pressure, kPa = 101
Fixed: Temperature, K = 298.15
Property: Excess molar enthalpy (molar enthalpy of mixing), kJ/mol (Liquid); method: Calvet calorimetry
Mole fraction of pentyl methanoate	Excess molar enthalpy (molar enthalpy of mixing), kJ/mol	uncertainty
0.0477	-0.0278	0.001
0.1093	-0.0632	0.0013
0.1729	-0.1024	0.0016
0.2358	-0.1426	0.0019
0.2905	-0.183	0.0022
0.3427	-0.2213	0.0025
0.3933	-0.2533	0.0027
0.4564	-0.2764	0.0029
0.5122	-0.2836	0.003
0.5719	-0.2854	0.003
0.6452	-0.2741	0.0029
0.7254	-0.2449	0.0027
0.8109	-0.1884	0.0023
0.9161	-0.1019	0.0016

System: 1,3-dichloropropane + pentyl methanoate; phases: Liquid
Fixed: Pressure, kPa = 101
Fixed: Temperature, K = 298.15
Property: Mass density, kg/m3 (Liquid); method: VIBTUB:UFactor:4
Mole fraction of pentyl methanoate	Mass density, kg/m3	uncertainty
0.0471	1159.68	0.64
0.0911	1142.71	0.61
0.1377	1125.33	0.57
0.1848	1108.29	0.54
0.2341	1091.1	0.5
0.3403	1056.06	0.43
0.4528	1021.65	0.37
0.5122	1004.48	0.33
0.5737	987.37	0.34
0.6379	970.23	0.36
0.7034	953.41	0.38
0.7721	936.49	0.4
0.8438	919.53	0.42
0.9188	902.44	0.44

System: 1,4-dichlorobutane + pentyl methanoate; phases: Liquid
Fixed: Pressure, kPa = 101
Fixed: Temperature, K = 298.15
Property: Excess molar enthalpy (molar enthalpy of mixing), kJ/mol (Liquid); method: Calvet calorimetry
Mole fraction of pentyl methanoate	Excess molar enthalpy (molar enthalpy of mixing), kJ/mol	uncertainty
0.0558	-0.0154	0.0009
0.1297	-0.0426	0.0011
0.2099	-0.0757	0.0014
0.2822	-0.115	0.0017
0.3497	-0.1562	0.002
0.4176	-0.1848	0.0022
0.4615	-0.2057	0.0024
0.4847	-0.2103	0.0024
0.5352	-0.2186	0.0025
0.5989	-0.2141	0.0024
0.6703	-0.2083	0.0024
0.7496	-0.1825	0.0022
0.8354	-0.1344	0.0018
0.9293	-0.07	0.0013

System: 1,4-dichlorobutane + pentyl methanoate; phases: Liquid
Fixed: Pressure, kPa = 101
Fixed: Temperature, K = 298.15
Property: Mass density, kg/m3 (Liquid); method: VIBTUB:UFactor:4
Mole fraction of pentyl methanoate	Mass density, kg/m3	uncertainty
0.0535	1118.26	0.56
0.1055	1103.42	0.53
0.1566	1089.12	0.5
0.2106	1074.27	0.47
0.2635	1060	0.44
0.3199	1045.06	0.41
0.3768	1030.28	0.38
0.4344	1015.59	0.35
0.4908	1001.46	0.33
0.5505	986.81	0.34
0.6109	972.26	0.36
0.6726	957.67	0.37
0.7351	943.19	0.39
0.7986	928.74	0.41
0.8646	914.02	0.42
0.9292	899.89	0.44

System: 1,5-dichloropentane + pentyl methanoate; phases: Liquid
Fixed: Pressure, kPa = 101
Fixed: Temperature, K = 298.15
Property: Excess molar enthalpy (molar enthalpy of mixing), kJ/mol (Liquid); method: Calvet calorimetry
Mole fraction of pentyl methanoate	Excess molar enthalpy (molar enthalpy of mixing), kJ/mol	uncertainty
0.0613	-0.0127	0.0009
0.141	-0.0317	0.001
0.2146	-0.0558	0.0012
0.2884	-0.0862	0.0015
0.3563	-0.1141	0.0017
0.4177	-0.1314	0.0018
0.4725	-0.1462	0.0019
0.5239	-0.1486	0.0019
0.5551	-0.1518	0.002
0.6165	-0.1452	0.0019
0.6887	-0.1344	0.0018
0.7706	-0.1139	0.0017
0.8586	-0.0783	0.0014
0.9347	-0.0417	0.0011

System: 1,5-dichloropentane + pentyl methanoate; phases: Liquid
Fixed: Pressure, kPa = 101
Fixed: Temperature, K = 298.15
Property: Mass density, kg/m3 (Liquid); method: VIBTUB:UFactor:4
Mole fraction of pentyl methanoate	Mass density, kg/m3	uncertainty
0.0607	1082.26	0.49
0.1185	1069.95	0.46
0.1761	1057.7	0.44
0.2336	1045.52	0.41
0.2924	1033.04	0.39
0.3501	1020.86	0.36
0.4661	996.38	0.33
0.5254	983.92	0.34
0.6434	959.15	0.37
0.7028	946.7	0.39
0.7612	934.48	0.4
0.8194	922.34	0.41
0.8788	909.95	0.43
0.9368	897.88	0.44

System: pentyl methanoate + 1,6-dichlorohexane; phases: Liquid
Fixed: Pressure, kPa = 101
Fixed: Temperature, K = 298.15
Property: Excess molar enthalpy (molar enthalpy of mixing), kJ/mol (Liquid); method: Calvet calorimetry
Mole fraction of pentyl methanoate	Excess molar enthalpy (molar enthalpy of mixing), kJ/mol	uncertainty
0.0697	-0.0111	0.0009
0.162	-0.0249	0.001
0.2559	-0.0476	0.0012
0.3406	-0.0718	0.0013
0.4168	-0.0942	0.0015
0.4813	-0.1058	0.0016
0.4927	-0.1085	0.0016
0.5399	-0.1149	0.0017
0.5935	-0.1104	0.0016
0.6653	-0.1001	0.0016
0.731	-0.0866	0.0015
0.8005	-0.0697	0.0013
0.8731	-0.0468	0.0011
0.9459	-0.0234	0.001

System: pentyl methanoate + 1,6-dichlorohexane; phases: Liquid
Fixed: Pressure, kPa = 101
Fixed: Temperature, K = 298.15
Property: Mass density, kg/m3 (Liquid); method: VIBTUB:UFactor:4
Mole fraction of pentyl methanoate	Mass density, kg/m3	uncertainty
0.0731	1051.9	0.42
0.1352	1041.69	0.4
0.1967	1031.48	0.38
0.3212	1010.41	0.34
0.3822	999.88	0.32
0.4398	989.79	0.33
0.558	968.7	0.36
0.6153	958.24	0.37
0.6723	947.69	0.38
0.7282	937.22	0.4
0.7836	926.72	0.41
0.839	916.1	0.42
0.893	905.58	0.43
0.9462	895.13	0.45
