Measured thermophysical data. Solubility of L-histidine in different aqueous binary solvent mixtures from 283.15 K to 318.15 K with experimental measurement and thermodynamic modelling
Source: J. Chem. Thermodyn., 2017, 10.1016/j.jct.2016.09.039
Compound 1: L-histidine, C6H9N3O2, InChI=1S/C6H9N3O2/c7-5(6(10)11)1-4-2-8-3-9-4/h2-3,5H,1,7H2,(H,8,9)(H,10,11)/t5-/m0/s1, purity 99%
Compound 2: acetone, C3H6O, InChI=1S/C3H6O/c1-3(2)4/h1-2H3, purity 99.5%
Compound 3: ethanol, C2H6O, InChI=1S/C2H6O/c1-2-3/h3H,2H2,1H3, purity 99.5%
Compound 4: propan-2-ol, C3H8O, InChI=1S/C3H8O/c1-3(2)4/h3-4H,1-2H3, purity 99.5%
Compound 5: water, H2O, InChI=1S/H2O/h1H2

System: acetone + L-histidine + water; phases: Liquid, Crystal
Fixed: Pressure, kPa = 100
Property: Mole fraction of L-histidine (Liquid); method: Gravimetric method
Temperature, K	Solvent: Mole fraction of acetone	Mole fraction of L-histidine	uncertainty
283.15	0	0.003503	0.000666
283.15	0.05	0.002315	0.00044
283.15	0.1	0.001495	0.000284
283.15	0.2	0.000565	0.000108
283.15	0.3	0.000203	3.9e-05
283.15	0.4	8.3e-05	1.6e-05
283.15	0.5	3.3e-05	7e-06
283.15	0.6	9e-06	6e-06
288.15	0	0.003845	0.000731
288.15	0.05	0.002506	0.000476
288.15	0.1	0.001647	0.000313
288.15	0.2	0.000689	0.000132
288.15	0.3	0.00027	5.2e-05
288.15	0.4	0.00011	2.1e-05
288.15	0.5	4.8e-05	9e-06
288.15	0.6	1.5e-05	1.1e-05
293.15	0	0.004172	0.000793
293.15	0.05	0.002762	0.000525
293.15	0.1	0.001801	0.000343
293.15	0.2	0.000755	0.000144
293.15	0.3	0.000301	5.8e-05
293.15	0.4	0.000133	2.6e-05
293.15	0.5	6.1e-05	1.2e-05
293.15	0.6	2e-05	1.4e-05
298.15	0	0.004587	0.000872
298.15	0.05	0.00312	0.000593
298.15	0.1	0.001966	0.000374
298.15	0.2	0.000865	0.000165
298.15	0.3	0.000357	6.9e-05
298.15	0.4	0.000145	2.8e-05
298.15	0.5	6.9e-05	1.3e-05
298.15	0.6	2.7e-05	1.9e-05
303.15	0	0.0051	0.000969
303.15	0.05	0.003467	0.000659
303.15	0.1	0.002255	0.000429
303.15	0.2	0.000942	0.00018
303.15	0.3	0.000413	7.9e-05
303.15	0.4	0.000169	3.3e-05
303.15	0.5	8.6e-05	1.7e-05
303.15	0.6	3.2e-05	2.3e-05
308.15	0	0.005621	0.001068
308.15	0.05	0.004004	0.000761
308.15	0.1	0.002661	0.000506
308.15	0.2	0.001054	0.000202
308.15	0.3	0.000458	8.8e-05
308.15	0.4	0.000195	3.8e-05
308.15	0.5	9.4e-05	1.8e-05
308.15	0.6	3.7e-05	2.6e-05
313.15	0	0.006131	0.001165
313.15	0.05	0.004475	0.000851
313.15	0.1	0.002956	0.000562
313.15	0.2	0.001245	0.000238
313.15	0.3	0.000539	0.000104
313.15	0.4	0.000228	4.4e-05
313.15	0.5	0.000102	2e-05
313.15	0.6	3.9e-05	2.7e-05
318.15	0	0.006674	0.001268
318.15	0.05	0.004872	0.000926
318.15	0.1	0.003282	0.000624
318.15	0.2	0.00137	0.000262
318.15	0.3	0.000579	0.000112
318.15	0.4	0.000236	4.6e-05
318.15	0.5	0.00011	2.1e-05
318.15	0.6	4.1e-05	2.9e-05

System: ethanol + L-histidine + water; phases: Liquid, Crystal
Fixed: Pressure, kPa = 100
Property: Mole fraction of L-histidine (Liquid); method: Gravimetric method
Temperature, K	Solvent: Mole fraction of ethanol	Mole fraction of L-histidine	uncertainty
283.15	0	0.003503	0.000638
283.15	0.05	0.002017	0.000367
283.15	0.1	0.00133	0.000242
283.15	0.2	0.000767	0.00014
283.15	0.3	0.000484	8.8e-05
283.15	0.4	0.000289	5.3e-05
283.15	0.5	0.000162	3e-05
283.15	0.6	8.7e-05	1.6e-05
283.15	0.7	5.9e-05	1.5e-05
288.15	0	0.003845	0.0007
288.15	0.05	0.002256	0.000411
288.15	0.1	0.001496	0.000273
288.15	0.2	0.000891	0.000163
288.15	0.3	0.000559	0.000102
288.15	0.4	0.00034	6.2e-05
288.15	0.5	0.000196	3.6e-05
288.15	0.6	0.000102	1.9e-05
288.15	0.7	6.7e-05	1.7e-05
293.15	0	0.004172	0.00076
293.15	0.05	0.002556	0.000466
293.15	0.1	0.00171	0.000312
293.15	0.2	0.00107	0.000195
293.15	0.3	0.000662	0.000121
293.15	0.4	0.000381	7e-05
293.15	0.5	0.000231	4.3e-05
293.15	0.6	0.000124	2.3e-05
293.15	0.7	7.1e-05	1.8e-05
298.15	0	0.004587	0.000835
298.15	0.05	0.002924	0.000533
298.15	0.1	0.001957	0.000357
298.15	0.2	0.00125	0.000228
298.15	0.3	0.000749	0.000137
298.15	0.4	0.000447	8.2e-05
298.15	0.5	0.000257	4.7e-05
298.15	0.6	0.000144	2.7e-05
298.15	0.7	8e-05	2.1e-05
303.15	0	0.0051	0.000928
303.15	0.05	0.003297	0.000601
303.15	0.1	0.002315	0.000422
303.15	0.2	0.001407	0.000257
303.15	0.3	0.000854	0.000156
303.15	0.4	0.000488	9e-05
303.15	0.5	0.000274	5.1e-05
303.15	0.6	0.000156	2.9e-05
303.15	0.7	8.2e-05	2.1e-05
308.15	0	0.005621	0.001023
308.15	0.05	0.003877	0.000706
308.15	0.1	0.002698	0.000492
308.15	0.2	0.001669	0.000304
308.15	0.3	0.001034	0.000189
308.15	0.4	0.000594	0.000109
308.15	0.5	0.000315	5.8e-05
308.15	0.6	0.000175	3.3e-05
308.15	0.7	9.1e-05	2.4e-05
313.15	0	0.006131	0.001116
313.15	0.05	0.004395	0.0008
313.15	0.1	0.003183	0.00058
313.15	0.2	0.001917	0.00035
313.15	0.3	0.001169	0.000214
313.15	0.4	0.000662	0.000122
313.15	0.5	0.000374	6.9e-05
313.15	0.6	0.000193	3.6e-05
313.15	0.7	9.8e-05	2.6e-05
318.15	0	0.006674	0.001215
318.15	0.05	0.005085	0.000926
318.15	0.1	0.003903	0.000712
318.15	0.2	0.002346	0.000428
318.15	0.3	0.001392	0.000255
318.15	0.4	0.000796	0.000146
318.15	0.5	0.000417	7.7e-05
318.15	0.6	0.000225	4.2e-05
318.15	0.7	0.000105	2.8e-05

System: propan-2-ol + L-histidine + water; phases: Liquid, Crystal
Fixed: Pressure, kPa = 100
Property: Mole fraction of L-histidine (Liquid); method: Gravimetric method
Temperature, K	Solvent: Mole fraction of propan-2-ol	Mole fraction of L-histidine	uncertainty
283.15	0	0.003503	0.000666
283.15	0.05	0.00179	0.00034
283.15	0.1	0.001104	0.00021
283.15	0.2	0.000589	0.000112
283.15	0.3	0.000337	6.4e-05
283.15	0.4	0.000173	3.3e-05
283.15	0.5	6.3e-05	1.3e-05
283.15	0.6	1.4e-05	1e-05
288.15	0	0.003845	0.000731
288.15	0.05	0.002073	0.000394
288.15	0.1	0.001338	0.000255
288.15	0.2	0.000708	0.000135
288.15	0.3	0.000408	7.8e-05
288.15	0.4	0.000204	3.9e-05
288.15	0.5	8e-05	1.6e-05
288.15	0.6	1.9e-05	1.4e-05
293.15	0	0.004172	0.000793
293.15	0.05	0.002397	0.000456
293.15	0.1	0.001624	0.000309
293.15	0.2	0.00088	0.000168
293.15	0.3	0.000492	9.4e-05
293.15	0.4	0.000243	4.7e-05
293.15	0.5	9.3e-05	1.9e-05
293.15	0.6	2.6e-05	1.9e-05
298.15	0	0.004587	0.000872
298.15	0.05	0.002871	0.000546
298.15	0.1	0.00196	0.000373
298.15	0.2	0.001054	0.000201
298.15	0.3	0.000552	0.000106
298.15	0.4	0.000284	5.5e-05
298.15	0.5	0.000128	2.5e-05
298.15	0.6	3.6e-05	2.6e-05
303.15	0	0.0051	0.000969
303.15	0.05	0.003285	0.000625
303.15	0.1	0.002338	0.000445
303.15	0.2	0.001283	0.000245
303.15	0.3	0.000661	0.000126
303.15	0.4	0.000352	6.8e-05
303.15	0.5	0.000157	3.1e-05
303.15	0.6	5e-05	3.6e-05
308.15	0	0.005621	0.001068
308.15	0.05	0.003793	0.000721
308.15	0.1	0.002775	0.000528
308.15	0.2	0.001525	0.000291
308.15	0.3	0.000804	0.000154
308.15	0.4	0.000424	8.2e-05
308.15	0.5	0.000201	3.9e-05
308.15	0.6	6.9e-05	5e-05
313.15	0	0.006131	0.001165
313.15	0.05	0.004288	0.000815
313.15	0.1	0.003194	0.000607
313.15	0.2	0.001806	0.000344
313.15	0.3	0.000957	0.000183
313.15	0.4	0.000522	0.0001
313.15	0.5	0.000253	4.9e-05
313.15	0.6	9.4e-05	6.8e-05
318.15	0	0.006674	0.001268
318.15	0.05	0.004998	0.00095
318.15	0.1	0.003798	0.000723
318.15	0.2	0.002128	0.000406
318.15	0.3	0.001173	0.000224
318.15	0.4	0.000646	0.000124
318.15	0.5	0.000322	6.3e-05
318.15	0.6	0.000124	9e-05

System: L-histidine + water; phases: Liquid, Crystal
Fixed: Pressure, kPa = 100
Property: Mole fraction of L-histidine (Liquid); method: Gravimetric method
Temperature, K	Mole fraction of L-histidine	uncertainty
283.15	0.003503	0.000666
288.15	0.003845	0.000731
293.15	0.004172	0.000793
298.15	0.004587	0.000872
303.15	0.0051	0.000969
308.15	0.005621	0.001068
313.15	0.006131	0.001165
318.15	0.006674	0.001268
