Measured thermophysical data. Measurement and correlation of physicochemical properties of phosphonium-based deep eutectic solvents at several temperatures (293.15 K - 343.15 K) for CO2 capture
Source: J. Chem. Thermodyn., 2017, 10.1016/j.jct.2017.05.020
Compound 1: allyltriphenylphosphonium bromide, C21H20BrP, InChI=1S/C21H20P.BrH/c1-2-18-22(19-12-6-3-7-13-19,20-14-8-4-9-15-20)21-16-10-5-11-17-21;/h2-17H,1,18H2;1H/q+1;/p-1, purity 99%
Compound 2: diethylene glycol, C4H10O3, InChI=1S/C4H10O3/c5-1-3-7-4-2-6/h5-6H,1-4H2, purity 99%
Compound 3: triethylene glycol, C6H14O4, InChI=1S/C6H14O4/c7-1-3-9-5-6-10-4-2-8/h7-8H,1-6H2, purity 99%

System: diethylene glycol; phases: Liquid
Fixed: Pressure, kPa = 100
Property: Mass density, kg/m3 (Liquid); method: Vibrating tube method
Temperature, K	Mass density, kg/m3	uncertainty
293.15	1116.5	7.4
298.15	1113	7.4
303.15	1109.4	7.3
308.15	1105.8	7.3
313.15	1102.2	7.3
318.15	1098.6	7.3
323.15	1095	7.2
328.15	1091.4	7.2
333.15	1087.7	7.2
338.15	1084	7.2
343.15	1080.3	7.1

System: diethylene glycol; phases: Liquid
Fixed: Pressure, kPa = 100
Property: Refractive index (Na D-line) (Liquid); method: Standard Abbe refractometry
Temperature, K	Refractive index (Na D-line)	uncertainty
293.15	1.4477	0.0032
298.15	1.4461	0.0032
303.15	1.4446	0.0032
308.15	1.443	0.0032
313.15	1.4415	0.0032
318.15	1.44	0.0032
323.15	1.4384	0.0032
328.15	1.4368	0.0032
333.15	1.4351	0.0032
338.15	1.4334	0.0032
343.15	1.4317	0.0032

System: triethylene glycol; phases: Liquid
Fixed: Pressure, kPa = 100
Property: Mass density, kg/m3 (Liquid); method: Vibrating tube method
Temperature, K	Mass density, kg/m3	uncertainty
293.15	1124.6	7.9
298.15	1120.8	7.9
303.15	1116.9	7.8
308.15	1113	7.8
313.15	1109.1	7.8
318.15	1105.2	7.7
323.15	1101.3	7.7
328.15	1097.4	7.7
333.15	1093.5	7.7
338.15	1089.6	7.6
343.15	1085.6	7.6

System: triethylene glycol; phases: Liquid
Fixed: Pressure, kPa = 100
Property: Refractive index (Na D-line) (Liquid); method: Standard Abbe refractometry
Temperature, K	Refractive index (Na D-line)	uncertainty
293.15	1.4576	0.0035
298.15	1.4558	0.0035
303.15	1.4541	0.0035
308.15	1.4523	0.0035
313.15	1.4505	0.0035
318.15	1.4488	0.0035
323.15	1.4469	0.0035
328.15	1.445	0.0035
333.15	1.4434	0.0035
338.15	1.4417	0.0035
343.15	1.4399	0.0035

System: diethylene glycol + allyltriphenylphosphonium bromide; phases: Liquid
Fixed: Pressure, kPa = 100
Property: Mass density, kg/m3 (Liquid); method: Vibrating tube method
Temperature, K	Mass fraction of allyltriphenylphosphonium bromide	Mass density, kg/m3	uncertainty
293.15	0.4745	1201.1	7.6
298.15	0.4745	1197.5	7.6
303.15	0.4745	1193.8	7.6
308.15	0.4745	1190.1	7.6
313.15	0.4745	1186.4	7.5
318.15	0.4745	1182.7	7.5
323.15	0.4745	1179	7.5
328.15	0.4745	1175.4	7.5
333.15	0.4745	1171.7	7.4
338.15	0.4745	1167.9	7.4
343.15	0.4745	1164.2	7.4
293.15	0.2653	1159.9	7.6
298.15	0.2653	1156.3	7.6
303.15	0.2653	1152.6	7.5
308.15	0.2653	1149	7.5
313.15	0.2653	1145.3	7.5
318.15	0.2653	1141.7	7.5
323.15	0.2653	1138	7.4
328.15	0.2653	1134.4	7.4
333.15	0.2653	1130.7	7.4
338.15	0.2653	1127	7.4
343.15	0.2653	1123.3	7.4
293.15	0.1842	1146.3	7.5
298.15	0.1842	1142.7	7.4
303.15	0.1842	1139.1	7.4
308.15	0.1842	1135.5	7.4
313.15	0.1842	1131.9	7.4
318.15	0.1842	1128.2	7.3
323.15	0.1842	1124.6	7.3
328.15	0.1842	1121	7.3
333.15	0.1842	1117.3	7.3
338.15	0.1842	1113.6	7.2
343.15	0.1842	1109.9	7.2
293.15	0	1116.5	7.4
298.15	0	1113	7.4
303.15	0	1109.4	7.3
308.15	0	1105.8	7.3
313.15	0	1102.2	7.3
318.15	0	1098.6	7.3
323.15	0	1095	7.2
328.15	0	1091.4	7.2
333.15	0	1087.7	7.2
338.15	0	1084	7.2
343.15	0	1080.3	7.1

System: diethylene glycol + allyltriphenylphosphonium bromide; phases: Liquid
Fixed: Pressure, kPa = 100
Property: Refractive index (Na D-line) (Liquid); method: Standard Abbe refractometry
Temperature, K	Mass fraction of allyltriphenylphosphonium bromide	Refractive index (Na D-line)	uncertainty
293.15	0.4745	1.5446	0.0039
298.15	0.4745	1.543	0.0039
303.15	0.4745	1.5413	0.0039
308.15	0.4745	1.5396	0.0039
313.15	0.4745	1.538	0.0039
318.15	0.4745	1.5363	0.0039
323.15	0.4745	1.5346	0.0039
328.15	0.4745	1.5329	0.0039
333.15	0.4745	1.5313	0.0039
338.15	0.4745	1.5296	0.0039
343.15	0.4745	1.5279	0.0039
293.15	0.2653	1.4955	0.0037
298.15	0.2653	1.4938	0.0038
303.15	0.2653	1.4921	0.0038
308.15	0.2653	1.4904	0.0037
313.15	0.2653	1.4887	0.0037
318.15	0.2653	1.487	0.0037
323.15	0.2653	1.4853	0.0037
328.15	0.2653	1.4836	0.0037
333.15	0.2653	1.4819	0.0037
338.15	0.2653	1.4802	0.0037
343.15	0.2653	1.4785	0.0037
293.15	0.1842	1.4817	0.0036
298.15	0.1842	1.4801	0.0036
303.15	0.1842	1.4784	0.0036
308.15	0.1842	1.4768	0.0036
313.15	0.1842	1.4752	0.0036
318.15	0.1842	1.4735	0.0036
323.15	0.1842	1.4718	0.0036
328.15	0.1842	1.4701	0.0036
333.15	0.1842	1.4684	0.0035
338.15	0.1842	1.4668	0.0035
343.15	0.1842	1.4651	0.0035
293.15	0	1.4477	0.0032
298.15	0	1.4461	0.0032
303.15	0	1.4446	0.0032
308.15	0	1.443	0.0032
313.15	0	1.4415	0.0032
318.15	0	1.44	0.0032
323.15	0	1.4384	0.0032
328.15	0	1.4368	0.0032
333.15	0	1.4351	0.0032
338.15	0	1.4334	0.0032
343.15	0	1.4317	0.0032

System: triethylene glycol + allyltriphenylphosphonium bromide; phases: Liquid
Fixed: Pressure, kPa = 100
Property: Mass density, kg/m3 (Liquid); method: Vibrating tube method
Temperature, K	Mass fraction of allyltriphenylphosphonium bromide	Mass density, kg/m3	uncertainty
293.15	0.3895	1190.8	7.7
298.15	0.3895	1187.1	7.7
303.15	0.3895	1183.4	7.7
308.15	0.3895	1179.7	7.7
313.15	0.3895	1176.1	7.7
318.15	0.3895	1172.4	7.6
323.15	0.3895	1168.7	7.6
328.15	0.3895	1165	7.6
333.15	0.3895	1161.3	7.6
338.15	0.3895	1157.6	7.5
343.15	0.3895	1153.9	7.5
293.15	0.2033	1159.2	7.8
298.15	0.2033	1155.5	7.8
303.15	0.2033	1151.7	7.7
308.15	0.2033	1148	7.7
313.15	0.2033	1144.2	7.7
318.15	0.2033	1140.5	7.7
323.15	0.2033	1136.7	7.6
328.15	0.2033	1133	7.6
333.15	0.2033	1129.2	7.6
338.15	0.2033	1125.5	7.6
343.15	0.2033	1121.7	7.5
293.15	0.1375	1146.2	7.9
298.15	0.1375	1142.5	7.9
303.15	0.1375	1138.8	7.9
308.15	0.1375	1135	7.8
313.15	0.1375	1131.3	7.8
318.15	0.1375	1127.5	7.8
323.15	0.1375	1123.7	7.8
328.15	0.1375	1119.9	7.7
333.15	0.1375	1116.1	7.7
338.15	0.1375	1112.2	7.7
343.15	0.1375	1108.4	7.7
293.15	0	1124.6	7.9
298.15	0	1120.8	7.9
303.15	0	1116.9	7.8
308.15	0	1113	7.8
313.15	0	1109.1	7.8
318.15	0	1105.2	7.7
323.15	0	1101.3	7.7
328.15	0	1097.4	7.7
333.15	0	1093.5	7.7
338.15	0	1089.6	7.6
343.15	0	1085.6	7.6

System: triethylene glycol + allyltriphenylphosphonium bromide; phases: Liquid
Fixed: Pressure, kPa = 100
Property: Refractive index (Na D-line) (Liquid); method: Standard Abbe refractometry
Temperature, K	Mass fraction of allyltriphenylphosphonium bromide	Refractive index (Na D-line)	uncertainty
293.15	0.3895	1.5314	0.0037
298.15	0.3895	1.5297	0.0037
303.15	0.3895	1.528	0.0037
308.15	0.3895	1.5263	0.0037
313.15	0.3895	1.5245	0.0037
318.15	0.3895	1.5228	0.0037
323.15	0.3895	1.5211	0.0037
328.15	0.3895	1.5193	0.0037
333.15	0.3895	1.5176	0.0037
338.15	0.3895	1.5158	0.0037
343.15	0.3895	1.5141	0.0037
293.15	0.2033	1.4945	0.0039
298.15	0.2033	1.4927	0.0039
303.15	0.2033	1.4909	0.0039
308.15	0.2033	1.4892	0.0039
313.15	0.2033	1.4874	0.0039
318.15	0.2033	1.4857	0.0039
323.15	0.2033	1.4839	0.0039
328.15	0.2033	1.4822	0.0039
333.15	0.2033	1.4804	0.0039
338.15	0.2033	1.4787	0.0039
343.15	0.2033	1.4769	0.0039
293.15	0.1375	1.4803	0.0038
298.15	0.1375	1.4786	0.0038
303.15	0.1375	1.4769	0.0038
308.15	0.1375	1.4752	0.0038
313.15	0.1375	1.4735	0.0038
318.15	0.1375	1.4717	0.0038
323.15	0.1375	1.47	0.0038
328.15	0.1375	1.4683	0.0038
333.15	0.1375	1.4666	0.0038
338.15	0.1375	1.4649	0.0038
343.15	0.1375	1.4632	0.0038
293.15	0	1.4576	0.0035
298.15	0	1.4558	0.0035
303.15	0	1.4541	0.0035
308.15	0	1.4523	0.0035
313.15	0	1.4505	0.0035
318.15	0	1.4488	0.0035
323.15	0	1.4469	0.0035
328.15	0	1.445	0.0035
333.15	0	1.4434	0.0035
338.15	0	1.4417	0.0035
343.15	0	1.4399	0.0035
