Measured thermophysical data. Acoustical and volumetric investigation of polyethylene glycol 400 and polyethylene glycol 4000 in aqueous solutions of glycerol at different temperatures
Source: J. Chem. Thermodyn., 2018, 10.1016/j.jct.2018.07.015
Compound 1: glycerol, C3H8O3, InChI=1S/C3H8O3/c4-1-3(6)2-5/h3-6H,1-2H2, purity 99%
Compound 2: water, H2O, InChI=1S/H2O/h1H2

System: glycerol + water; phases: Liquid
Fixed: Pressure, kPa = 100
Property: Mass density, kg/m3 (Liquid); method: Vibrating tube method
Temperature, K	Molality, mol/kg of glycerol	Mass density, kg/m3	uncertainty
293.15	0	998.211	0.303
298.15	0	997.047	0.304
303.15	0	995.656	0.304
308.15	0	994.039	0.303
293.15	0.01	998.452	0.302
298.15	0.01	997.308	0.302
303.15	0.01	995.869	0.302
308.15	0.01	994.253	0.302
293.15	0.03	998.865	0.302
298.15	0.03	997.707	0.302
303.15	0.03	996.304	0.303
308.15	0.03	994.684	0.303
293.15	0.05	999.29	0.303
298.15	0.05	998.124	0.303
303.15	0.05	996.72	0.303
308.15	0.05	995.094	0.303
293.15	0.07	999.691	0.303
298.15	0.07	998.513	0.303
303.15	0.07	997.109	0.303
308.15	0.07	995.469	0.304

System: glycerol + water; phases: Liquid
Fixed: Pressure, kPa = 100
Fixed: Frequency, MHz = 3
Property: Speed of sound, m/s (Liquid); method: Single path-length method
Temperature, K	Molality, mol/kg of glycerol	Speed of sound, m/s	uncertainty
293.15	0	1482.25	1.03
298.15	0	1495.85	1.03
303.15	0	1508.54	1.03
308.15	0	1519.14	1.03
293.15	0.01	1483.16	1.03
298.15	0.01	1496.96	1.03
303.15	0.01	1509.28	1.03
308.15	0.01	1519.9	1.03
293.15	0.03	1483.95	1.03
298.15	0.03	1497.76	1.03
303.15	0.03	1510.03	1.03
308.15	0.03	1520.61	1.03
293.15	0.05	1484.77	1.03
298.15	0.05	1498.57	1.03
303.15	0.05	1510.7	1.03
308.15	0.05	1521.24	1.03
293.15	0.07	1485.48	1.03
298.15	0.07	1499.35	1.03
303.15	0.07	1511.43	1.03
308.15	0.07	1521.82	1.03
