Measured thermophysical data. Thermophysical properties of 1-hexyl-3-methyl imidazolium based ionic liquids with tetrafluoroborate, hexafluorophosphate and bis(trifluoromethylsulfonyl)imide anions
Source: J. Chem. Thermodyn., 2008, 10.1016/j.jct.2008.04.016
Compound 1: 1-hexyl-3-methylimidazolium tetrafluoroborate, C10H19BF4N2, InChI=1S/C10H19N2.BF4/c1-3-4-5-6-7-12-9-8-11(2)10-12;2-1(3,4)5/h8-10H,3-7H2,1-2H3;/q+1;-1
Compound 2: 1-hexyl-3-methylimidazolium bis[(trifluoromethyl)sulfonyl]imide, C12H19F6N3O4S2, InChI=1S/C10H19N2.C2F6NO4S2/c1-3-4-5-6-7-12-9-8-11(2)10-12;3-1(4,5)14(10,11)9-15(12,13)2(6,7)8/h8-10H,3-7H2,1-2H3;/q+1;-1
Compound 3: 1-hexyl-3-methylimidazolium hexafluorophosphate, C10H19F6N2P, InChI=1S/C10H19N2.F6P/c1-3-4-5-6-7-12-9-8-11(2)10-12;1-7(2,3,4,5)6/h8-10H,3-7H2,1-2H3;/q+1;-1

System: 1-hexyl-3-methylimidazolium tetrafluoroborate; phases: Liquid, Air at 1 atmosphere
Property: Surface tension liquid-gas, N/m (Liquid); method: DROPW:UFactor:8
Temperature, K	Surface tension liquid-gas, N/m	uncertainty
298.15	0.0368	0.0015
308.15	0.0356	0.0015
318.15	0.0342	0.0015
328.15	0.033	0.0014
338.15	0.0327	0.0014

System: 1-hexyl-3-methylimidazolium tetrafluoroborate; phases: Liquid
Fixed: Pressure, kPa = 101.325
Property: Viscosity, Pa*s (Liquid); method: CAPTUB:UFactor:4
Temperature, K	Viscosity, Pa*s	uncertainty
288.2	0.141	0.025
298.2	0.102	0.024
308.2	0.069	0.024
318.2	0.043	0.024
328.2	0.03	0.024
338.2	0.021	0.024

System: 1-hexyl-3-methylimidazolium tetrafluoroborate; phases: Liquid
Fixed: Pressure, kPa = 101.325
Property: Refractive index (Na D-line) (Liquid); method: ABBE:UFactor:4
Temperature, K	Refractive index (Na D-line)	uncertainty
302.95	1.42672	0.00126
307.75	1.42613	0.00126
313.15	1.42539	0.00126
318.05	1.42443	0.00126
322.95	1.42346	0.00126
328.05	1.42232	0.00126
332.95	1.42146	0.00126

System: 1-hexyl-3-methylimidazolium tetrafluoroborate; phases: Liquid
Fixed: Pressure, kPa = 101.325
Property: Mass density, kg/m3 (Liquid); method: VIBTUB:UFactor:12
Temperature, K	Mass density, kg/m3	uncertainty
298.15	1145.32	1.33
308.15	1138.51	1.29
318.15	1131.67	1.26
328.15	1124.89	1.22
338.15	1118.16	1.19
348.15	1111.47	1.15
358.15	1104.84	1.12

System: 1-hexyl-3-methylimidazolium bis[(trifluoromethyl)sulfonyl]imide; phases: Liquid, Air at 1 atmosphere
Property: Surface tension liquid-gas, N/m (Liquid); method: DROPW:UFactor:8
Temperature, K	Surface tension liquid-gas, N/m	uncertainty
298.15	0.0325	0.0014
308.15	0.0316	0.0014
318.15	0.0305	0.0014
328.15	0.0297	0.0014
338.15	0.0286	0.0013

System: 1-hexyl-3-methylimidazolium bis[(trifluoromethyl)sulfonyl]imide; phases: Liquid
Fixed: Pressure, kPa = 101.325
Property: Viscosity, Pa*s (Liquid); method: CAPTUB:UFactor:4
Temperature, K	Viscosity, Pa*s	uncertainty
288.2	0.097	0.024
298.2	0.068	0.024
308.2	0.046	0.024
318.2	0.032	0.024
328.2	0.024	0.024

System: 1-hexyl-3-methylimidazolium bis[(trifluoromethyl)sulfonyl]imide; phases: Liquid
Fixed: Pressure, kPa = 101.325
Property: Refractive index (Na D-line) (Liquid); method: ABBE:UFactor:4
Temperature, K	Refractive index (Na D-line)	uncertainty
302.95	1.42958	0.00126
307.75	1.42844	0.00126
313.15	1.42737	0.00126
318.05	1.42649	0.00126
322.95	1.42578	0.00126
328.05	1.42484	0.00126
332.95	1.42376	0.00126

System: 1-hexyl-3-methylimidazolium bis[(trifluoromethyl)sulfonyl]imide; phases: Liquid
Fixed: Pressure, kPa = 101.325
Property: Mass density, kg/m3 (Liquid); method: VIBTUB:UFactor:12
Temperature, K	Mass density, kg/m3	uncertainty
298.15	1372.13	2.52
308.15	1363.17	2.48
318.15	1354.23	2.43
328.15	1344.94	2.39
338.15	1335.86	2.34
348.15	1326.91	2.29
358.15	1318.16	2.25

System: 1-hexyl-3-methylimidazolium hexafluorophosphate; phases: Liquid, Air at 1 atmosphere
Property: Surface tension liquid-gas, N/m (Liquid); method: DROPV:UFactor:8
Temperature, K	Surface tension liquid-gas, N/m	uncertainty
298.15	0.0421	0.002
308.15	0.0407	0.002
318.15	0.0394	0.0019
328.15	0.038	0.0019
338.15	0.0366	0.0018

System: 1-hexyl-3-methylimidazolium hexafluorophosphate; phases: Liquid
Fixed: Pressure, kPa = 101.325
Property: Viscosity, Pa*s (Liquid); method: CAPTUB:UFactor:4
Temperature, K	Viscosity, Pa*s	uncertainty
288.2	1.018	0.208
298.2	0.607	0.103
308.2	0.345	0.048
318.2	0.215	0.031
328.2	0.152	0.026
338.2	0.113	0.024
348.2	0.087	0.024

System: 1-hexyl-3-methylimidazolium hexafluorophosphate; phases: Liquid
Fixed: Pressure, kPa = 101.325
Property: Refractive index (Na D-line) (Liquid); method: ABBE:UFactor:4
Temperature, K	Refractive index (Na D-line)	uncertainty
302.95	1.41694	0.00126
307.75	1.41631	0.00126
313.15	1.41531	0.00126
318.05	1.41479	0.00126
322.95	1.41362	0.00126
328.05	1.41307	0.00126
332.95	1.41231	0.00126

System: 1-hexyl-3-methylimidazolium hexafluorophosphate; phases: Liquid
Fixed: Pressure, kPa = 101.325
Property: Mass density, kg/m3 (Liquid); method: VIBTUB:UFactor:12
Temperature, K	Mass density, kg/m3	uncertainty
298.15	1293.41	2.11
308.15	1285.78	2.07
318.15	1277.92	2.03
328.15	1269.88	1.99
338.15	1262.13	1.95
348.15	1254.36	1.91
358.15	1246.81	1.87
