Measured thermophysical data. Dynamic viscosities of the ternary liquid mixtures (dimethyl carbonate + methanol + ethanol) and (dimethyl carbonate + methanol + hexane) at several temperatures
Source: J. Chem. Thermodyn., 2006, 10.1016/j.jct.2005.07.008
Compound 1: methanol, CH4O, InChI=1S/CH4O/c1-2/h2H,1H3, purity 99.8%
Compound 2: ethanol, C2H6O, InChI=1S/C2H6O/c1-2-3/h3H,2H2,1H3, purity 99.9%
Compound 3: hexane, C6H14, InChI=1S/C6H14/c1-3-5-6-4-2/h3-6H2,1-2H3, purity 99.5%
Compound 4: dimethyl carbonate, C3H6O3, InChI=1S/C3H6O3/c1-5-3(4)6-2/h1-2H3, purity 99%

System: methanol; phases: Liquid
Fixed: Pressure, kPa = 101.325
Property: Viscosity, Pa*s (Liquid); method: CAPTUB:UFactor:4
Temperature, K	Viscosity, Pa*s	uncertainty
293.15	0.000581	1.6e-05
298.15	0.000553	1.5e-05
303.15	0.000506	1.4e-05
313.15	0.000443	1.3e-05

System: methanol; phases: Liquid
Fixed: Pressure, kPa = 101.325
Property: Mass density, kg/m3 (Liquid); method: VIBTUB:UFactor:2
Temperature, K	Mass density, kg/m3	uncertainty
293.15	791.8	0.3
298.15	786.6	0.3
303.15	782.4	0.3
313.15	772.8	0.3

System: ethanol; phases: Liquid
Property: Viscosity, Pa*s (Liquid); method: CAPTUB:UFactor:4
Temperature, K	Pressure, kPa	Viscosity, Pa*s	uncertainty
298.15	101.325	0.001105	2.7e-05

System: ethanol; phases: Liquid
Property: Mass density, kg/m3 (Liquid); method: VIBTUB:UFactor:2
Temperature, K	Pressure, kPa	Mass density, kg/m3	uncertainty
298.15	101.325	785	0.3

System: hexane; phases: Liquid
Fixed: Pressure, kPa = 101.325
Property: Viscosity, Pa*s (Liquid); method: CAPTUB:UFactor:4
Temperature, K	Viscosity, Pa*s	uncertainty
293.15	0.00031	1e-05
298.15	0.000301	1e-05
303.15	0.000281	9e-06
313.15	0.000256	9e-06

System: dimethyl carbonate; phases: Liquid
Fixed: Pressure, kPa = 101.325
Property: Viscosity, Pa*s (Liquid); method: CAPTUB:UFactor:4
Temperature, K	Viscosity, Pa*s	uncertainty
293.15	0.000623	1.7e-05
298.15	0.000584	1.6e-05
303.15	0.000549	1.5e-05
313.15	0.000488	1.4e-05

System: dimethyl carbonate; phases: Liquid
Fixed: Pressure, kPa = 101.325
Property: Mass density, kg/m3 (Liquid); method: VIBTUB:UFactor:4
Temperature, K	Mass density, kg/m3	uncertainty
293.15	1069.9	0.6
298.15	1063.3	0.6
303.15	1056.7	0.6
313.15	1043.4	0.6

System: methanol + hexane + dimethyl carbonate; phases: Liquid
Fixed: Pressure, kPa = 101
Property: Viscosity, Pa*s (Liquid); method: CAPTUB:UFactor:4
Temperature, K	Mole fraction of dimethyl carbonate	Mole fraction of methanol	Viscosity, Pa*s	uncertainty
293.15	0.0493	0.9023	0.000541	1.5e-05
293.15	0.0506	0.0433	0.000309	1e-05
293.15	0.0964	0.1871	0.000326	1e-05
293.15	0.0965	0.2923	0.00035	1.1e-05
293.15	0.0976	0.1014	0.000314	1e-05
293.15	0.0993	0.6993	0.000465	1.3e-05
293.15	0.1002	0.4947	0.000416	1.2e-05
293.15	0.1006	0.5983	0.000441	1.3e-05
293.15	0.1007	0.7993	0.000502	1.4e-05
293.15	0.101	0.3912	0.000377	1.1e-05
293.15	0.1967	0.2931	0.000365	1.1e-05
293.15	0.1974	0.0976	0.000324	1e-05
293.15	0.1992	0.7007	0.000489	1.4e-05
293.15	0.2005	0.5998	0.000448	1.3e-05
293.15	0.201	0.3966	0.00039	1.2e-05
293.15	0.2015	0.1996	0.000339	1e-05
293.15	0.2016	0.4952	0.000419	1.2e-05
293.15	0.2506	0.2447	0.00036	1.1e-05
293.15	0.292	0.2023	0.00036	1.1e-05
293.15	0.2995	0.0984	0.000342	1.1e-05
293.15	0.3011	0.4984	0.000441	1.3e-05
293.15	0.302	0.3021	0.000384	1.1e-05
293.15	0.303	0.5957	0.000483	1.4e-05
293.15	0.3038	0.3946	0.000422	1.2e-05
293.15	0.3981	0.5026	0.000489	1.4e-05
293.15	0.3985	0.0945	0.000362	1.1e-05
293.15	0.4012	0.2951	0.000419	1.2e-05
293.15	0.4021	0.3977	0.000445	1.3e-05
293.15	0.4029	0.1958	0.000383	1.1e-05
293.15	0.4476	0.452	0.000481	1.4e-05
293.15	0.5011	0.0966	0.00039	1.2e-05
293.15	0.5021	0.2991	0.000455	1.3e-05
293.15	0.5058	0.3937	0.000484	1.4e-05
293.15	0.5166	0.1716	0.000412	1.2e-05
293.15	0.6007	0.2027	0.000453	1.3e-05
293.15	0.6027	0.297	0.000499	1.4e-05
293.15	0.6046	0.0969	0.000429	1.3e-05
293.15	0.6992	0.0934	0.000463	1.3e-05
293.15	0.7011	0.1978	0.000502	1.4e-05
293.15	0.7994	0.0984	0.000517	1.4e-05
298.15	0.0493	0.9023	0.000508	1.4e-05
298.15	0.0506	0.0433	0.000299	1e-05
298.15	0.0964	0.1871	0.000309	1e-05
298.15	0.0965	0.2923	0.000329	1e-05
298.15	0.0976	0.1014	0.000304	1e-05
298.15	0.0993	0.6993	0.000435	1.3e-05
298.15	0.1002	0.4947	0.000383	1.1e-05
298.15	0.1006	0.5983	0.000411	1.2e-05
298.15	0.1007	0.7993	0.000477	1.3e-05
298.15	0.101	0.3912	0.000356	1.1e-05
298.15	0.1967	0.2931	0.000345	1.1e-05
298.15	0.1974	0.0976	0.000307	1e-05
298.15	0.1992	0.7007	0.000464	1.3e-05
298.15	0.2005	0.5998	0.00042	1.2e-05
298.15	0.201	0.3966	0.000366	1.1e-05
298.15	0.2015	0.1996	0.000325	1e-05
298.15	0.2016	0.4952	0.000392	1.2e-05
298.15	0.2506	0.2447	0.000344	1.1e-05
298.15	0.292	0.2023	0.000339	1.1e-05
298.15	0.2995	0.0984	0.000323	1e-05
298.15	0.3011	0.4984	0.000415	1.2e-05
298.15	0.302	0.3021	0.000361	1.1e-05
298.15	0.303	0.5957	0.000453	1.3e-05
298.15	0.3038	0.3946	0.00039	1.2e-05
298.15	0.3981	0.5026	0.000469	1.3e-05
298.15	0.3985	0.0945	0.000342	1.1e-05
298.15	0.4012	0.2951	0.000387	1.2e-05
298.15	0.4021	0.3977	0.000414	1.2e-05
298.15	0.4029	0.1958	0.000361	1.1e-05
298.15	0.4476	0.452	0.000456	1.3e-05
298.15	0.5011	0.0966	0.000371	1.1e-05
298.15	0.5021	0.2991	0.000433	1.3e-05
298.15	0.5058	0.3937	0.000459	1.3e-05
298.15	0.5166	0.1716	0.000387	1.2e-05
298.15	0.6007	0.2027	0.000436	1.3e-05
298.15	0.6027	0.297	0.000474	1.3e-05
298.15	0.6046	0.0969	0.0004	1.2e-05
298.15	0.6992	0.0934	0.000434	1.3e-05
298.15	0.7011	0.1978	0.000478	1.4e-05
298.15	0.7994	0.0984	0.000487	1.4e-05
303.15	0.049	0.0492	0.000875	2.2e-05
303.15	0.0501	0.9013	0.00051	1.4e-05
303.15	0.0982	0.0956	0.00077	2e-05
303.15	0.0999	0.3013	0.000701	1.8e-05
303.15	0.1	0.5996	0.000584	1.6e-05
303.15	0.1003	0.4998	0.00062	1.7e-05
303.15	0.1007	0.3965	0.000668	1.8e-05
303.15	0.1008	0.6989	0.00055	1.5e-05
303.15	0.1011	0.7999	0.000517	1.4e-05
303.15	0.1042	0.1912	0.000734	1.9e-05
303.15	0.1901	0.1033	0.000681	1.8e-05
303.15	0.1966	0.2042	0.000643	1.7e-05
303.15	0.2002	0.3	0.000615	1.6e-05
303.15	0.2002	0.6001	0.000529	1.5e-05
303.15	0.2005	0.5007	0.000556	1.5e-05
303.15	0.2012	0.4006	0.000594	1.6e-05
303.15	0.2012	0.6984	0.000501	1.4e-05
303.15	0.2515	0.2524	0.000593	1.6e-05
303.15	0.2977	0.1035	0.000613	1.6e-05
303.15	0.3015	0.5985	0.000492	1.4e-05
303.15	0.3017	0.197	0.000603	1.6e-05
303.15	0.3018	0.3977	0.000539	1.5e-05
303.15	0.3023	0.4983	0.000516	1.4e-05
303.15	0.3025	0.3005	0.000561	1.5e-05
303.15	0.3961	0.4025	0.000508	1.4e-05
303.15	0.3985	0.1042	0.00058	1.6e-05
303.15	0.3988	0.3016	0.000548	1.5e-05
303.15	0.4002	0.5015	0.000492	1.4e-05
303.15	0.4021	0.1993	0.000554	1.5e-05
303.15	0.4903	0.5097	0.000478	1.4e-05
303.15	0.4999	0.1997	0.000525	1.5e-05
303.15	0.503	0.0971	0.000541	1.5e-05
303.15	0.504	0.2974	0.000508	1.4e-05
303.15	0.5078	0.3939	0.000507	1.4e-05
303.15	0.6008	0.3016	0.000507	1.4e-05
303.15	0.6018	0.0999	0.000523	1.5e-05
303.15	0.6688	0.2225	0.000504	1.4e-05
303.15	0.7041	0.0972	0.000517	1.4e-05
303.15	0.7041	0.1993	0.000511	1.4e-05
303.15	0.7982	0.1007	0.000513	1.4e-05
313.15	0.049	0.0492	0.000287	9e-06
313.15	0.0501	0.9013	0.00042	1.2e-05
313.15	0.0982	0.0956	0.000257	9e-06
313.15	0.0999	0.3013	0.000278	9e-06
313.15	0.1	0.5996	0.000339	1e-05
313.15	0.1003	0.4998	0.000314	1e-05
313.15	0.1007	0.3965	0.000297	1e-05
313.15	0.1008	0.6989	0.000359	1.1e-05
313.15	0.1011	0.7999	0.000388	1.2e-05
313.15	0.1042	0.1912	0.000264	9e-06
313.15	0.1901	0.1033	0.000265	9e-06
313.15	0.1966	0.2042	0.000273	9e-06
313.15	0.2002	0.3	0.00029	9e-06
313.15	0.2002	0.6001	0.00031	1e-05
313.15	0.2005	0.5007	0.000326	1e-05
313.15	0.2012	0.4006	0.000305	1e-05
313.15	0.2012	0.6984	0.000379	1.1e-05
313.15	0.2515	0.2524	0.000378	1.1e-05
313.15	0.2977	0.1035	0.000277	9e-06
313.15	0.3015	0.5985	0.000376	1.1e-05
313.15	0.3017	0.197	0.000288	9e-06
313.15	0.3018	0.3977	0.000326	1e-05
313.15	0.3023	0.4983	0.000347	1.1e-05
313.15	0.3025	0.3005	0.000304	1e-05
313.15	0.3961	0.4025	0.000344	1.1e-05
313.15	0.3985	0.1042	0.000292	1e-05
313.15	0.3988	0.3016	0.000335	1e-05
313.15	0.4002	0.5015	0.000371	1.1e-05
313.15	0.4021	0.1993	0.000305	1e-05
313.15	0.4903	0.5097	0.000255	9e-06
313.15	0.4999	0.1997	0.000329	1e-05
313.15	0.503	0.0971	0.000313	1e-05
313.15	0.504	0.2974	0.000367	1.1e-05
313.15	0.5078	0.3939	0.000383	1.1e-05
313.15	0.6008	0.3016	0.00038	1.1e-05
313.15	0.6018	0.0999	0.000338	1.1e-05
313.15	0.6688	0.2225	0.000361	1.1e-05
313.15	0.7041	0.0972	0.000369	1.1e-05
313.15	0.7041	0.1993	0.000396	1.2e-05
313.15	0.7982	0.1007	0.000413	1.2e-05

System: methanol + hexane + dimethyl carbonate; phases: Liquid
Fixed: Pressure, kPa = 101
Property: Speed of sound, m/s (Liquid); method: FPINT:UFactor:2
Temperature, K	Mole fraction of dimethyl carbonate	Mole fraction of methanol	Speed of sound, m/s	uncertainty
293.15	0.0493	0.9023	1108	2
293.15	0.0506	0.0433	1090	2
293.15	0.0964	0.1871	1081	2
293.15	0.0965	0.2923	1079	2
293.15	0.0976	0.1014	1083	2
293.15	0.0993	0.6993	1085	2
293.15	0.1002	0.4947	1075	2
293.15	0.1006	0.5983	1076	2
293.15	0.1007	0.7993	1102	2
293.15	0.101	0.3912	1078	2
293.15	0.1967	0.2931	1080	2
293.15	0.1974	0.0976	1084	2
293.15	0.1992	0.7007	1116	2
293.15	0.2005	0.5998	1098	2
293.15	0.201	0.3966	1083	2
293.15	0.2015	0.1996	1081	2
293.15	0.2016	0.4952	1086	2
293.15	0.2506	0.2447	1083	2
293.15	0.292	0.2023	1086	2
293.15	0.2995	0.0984	1087	2
293.15	0.3011	0.4984	1106	2
293.15	0.302	0.3021	1089	2
293.15	0.303	0.5957	1125	2
293.15	0.3038	0.3946	1095	2
293.15	0.3981	0.5026	1138	2
293.15	0.3985	0.0945	1094	2
293.15	0.4012	0.2951	1104	2
293.15	0.4021	0.3977	1117	2
293.15	0.4029	0.1958	1097	2
293.15	0.4476	0.452	1142	2
293.15	0.5011	0.0966	1106	2
293.15	0.5021	0.2991	1127	2
293.15	0.5058	0.3937	1148	2
293.15	0.5166	0.1716	1113	2
293.15	0.6007	0.2027	1137	2
293.15	0.6027	0.297	1161	2
293.15	0.6046	0.0969	1123	2
293.15	0.6992	0.0934	1145	2
293.15	0.7011	0.1978	1168	2
293.15	0.7994	0.0984	1177	2
298.15	0.0493	0.9023	1086	2
298.15	0.0506	0.0433	1068	2
298.15	0.0964	0.1871	1059	2
298.15	0.0965	0.2923	1057	2
298.15	0.0976	0.1014	1062	2
298.15	0.0993	0.6993	1066	2
298.15	0.1002	0.4947	1056	2
298.15	0.1006	0.5983	1060	2
298.15	0.1007	0.7993	1080	2
298.15	0.101	0.3912	1054	2
298.15	0.1967	0.2931	1059	2
298.15	0.1974	0.0976	1063	2
298.15	0.1992	0.7007	1096	2
298.15	0.2005	0.5998	1079	2
298.15	0.201	0.3966	1063	2
298.15	0.2015	0.1996	1060	2
298.15	0.2016	0.4952	1068	2
298.15	0.2506	0.2447	1061	2
298.15	0.292	0.2023	1065	2
298.15	0.2995	0.0984	1065	2
298.15	0.3011	0.4984	1088	2
298.15	0.302	0.3021	1069	2
298.15	0.303	0.5957	1108	2
298.15	0.3038	0.3946	1076	2
298.15	0.3981	0.5026	1120	2
298.15	0.3985	0.0945	1073	2
298.15	0.4012	0.2951	1085	2
298.15	0.4021	0.3977	1097	2
298.15	0.4029	0.1958	1076	2
298.15	0.4476	0.452	1122	2
298.15	0.5011	0.0966	1084	2
298.15	0.5021	0.2991	1107	2
298.15	0.5058	0.3937	1130	2
298.15	0.5166	0.1716	1093	2
298.15	0.6007	0.2027	1116	2
298.15	0.6027	0.297	1139	2
298.15	0.6046	0.0969	1102	2
298.15	0.6992	0.0934	1124	2
298.15	0.7011	0.1978	1148	2
298.15	0.7994	0.0984	1156	2
303.15	0.0493	0.9023	1075	2
303.15	0.0506	0.0433	1045	2
303.15	0.0964	0.1871	1036	2
303.15	0.0965	0.2923	1035	2
303.15	0.0976	0.1014	1039	2
303.15	0.0993	0.6993	1047	2
303.15	0.1002	0.4947	1035	2
303.15	0.1006	0.5983	1037	2
303.15	0.1007	0.7993	1064	2
303.15	0.101	0.3912	1035	2
303.15	0.1967	0.2931	1037	2
303.15	0.1974	0.0976	1039	2
303.15	0.1992	0.7007	1078	2
303.15	0.2005	0.5998	1058	2
303.15	0.201	0.3966	1042	2
303.15	0.2015	0.1996	1038	2
303.15	0.2016	0.4952	1046	2
303.15	0.2506	0.2447	1041	2
303.15	0.292	0.2023	1043	2
303.15	0.2995	0.0984	1044	2
303.15	0.3011	0.4984	1066	2
303.15	0.302	0.3021	1047	2
303.15	0.303	0.5957	1089	2
303.15	0.3038	0.3946	1054	2
303.15	0.3981	0.5026	1099	2
303.15	0.3985	0.0945	1051	2
303.15	0.4012	0.2951	1064	2
303.15	0.4021	0.3977	1077	2
303.15	0.4029	0.1958	1055	2
303.15	0.4476	0.452	1103	2
303.15	0.5011	0.0966	1062	2
303.15	0.5021	0.2991	1087	2
303.15	0.5058	0.3937	1111	2
303.15	0.5166	0.1716	1072	2
303.15	0.6007	0.2027	1095	2
303.15	0.6027	0.297	1121	2
303.15	0.6046	0.0969	1081	2
303.15	0.6992	0.0934	1103	2
303.15	0.7011	0.1978	1127	2
303.15	0.7994	0.0984	1135	2
313.15	0.0493	0.9023	1038	2
313.15	0.0506	0.0433	1002	2
313.15	0.0964	0.1871	992	2
313.15	0.0965	0.2923	990	2
313.15	0.0976	0.1014	995	2
313.15	0.0993	0.6993	1010	2
313.15	0.1002	0.4947	990	2
313.15	0.1006	0.5983	996	2
313.15	0.1007	0.7993	1029	2
313.15	0.101	0.3912	989	2
313.15	0.1967	0.2931	994	2
313.15	0.1974	0.0976	994	2
313.15	0.1992	0.7007	1040	2
313.15	0.2005	0.5998	1019	2
313.15	0.201	0.3966	1000	2
313.15	0.2015	0.1996	994	2
313.15	0.2016	0.4952	1006	2
313.15	0.2506	0.2447	998	2
313.15	0.292	0.2023	1000	2
313.15	0.2995	0.0984	1000	2
313.15	0.3011	0.4984	1027	2
313.15	0.302	0.3021	1005	2
313.15	0.303	0.5957	1052	2
313.15	0.3038	0.3946	1015	2
313.15	0.3981	0.5026	1061	2
313.15	0.3985	0.0945	1008	2
313.15	0.4012	0.2951	1023	2
313.15	0.4021	0.3977	1037	2
313.15	0.4029	0.1958	1013	2
313.15	0.4476	0.452	1063	2
313.15	0.5011	0.0966	1020	2
313.15	0.5021	0.2991	1048	2
313.15	0.5058	0.3937	1071	2
313.15	0.5166	0.1716	1030	2
313.15	0.6007	0.2027	1054	2
313.15	0.6027	0.297	1080	2
313.15	0.6046	0.0969	1038	2
313.15	0.6992	0.0934	1060	2
313.15	0.7011	0.1978	1085	2
313.15	0.7994	0.0984	1092	2

System: methanol + hexane + dimethyl carbonate; phases: Liquid
Fixed: Pressure, kPa = 101
Property: Mass density, kg/m3 (Liquid); method: VIBTUB:UFactor:2
Temperature, K	Mole fraction of dimethyl carbonate	Mole fraction of methanol	Mass density, kg/m3	uncertainty
293.15	0.0493	0.9023	796.8	0.3
293.15	0.0506	0.0433	673.2	0.4
293.15	0.0964	0.1871	695	0.4
293.15	0.0965	0.2923	704.1	0.4
293.15	0.0976	0.1014	689.1	0.4
293.15	0.0993	0.6993	769.2	0.4
293.15	0.1002	0.4947	729.7	0.4
293.15	0.1006	0.5983	747.5	0.4
293.15	0.1007	0.7993	801	0.3
293.15	0.101	0.3912	716.1	0.4
293.15	0.1967	0.2931	741.6	0.4
293.15	0.1974	0.0976	719.1	0.4
293.15	0.1992	0.7007	839.2	0.4
293.15	0.2005	0.5998	806.2	0.4
293.15	0.201	0.3966	759.6	0.4
293.15	0.2015	0.1996	731.6	0.4
293.15	0.2016	0.4952	779.8	0.4
293.15	0.2506	0.2447	756.1	0.4
293.15	0.292	0.2023	766.2	0.4
293.15	0.2995	0.0984	754.1	0.4
293.15	0.3011	0.4984	836.4	0.4
293.15	0.302	0.3021	788.1	0.4
293.15	0.303	0.5957	874.3	0.4
293.15	0.3038	0.3946	809.1	0.4
293.15	0.3981	0.5026	902.3	0.5
293.15	0.3985	0.0945	790.5	0.4
293.15	0.4012	0.2951	834.3	0.4
293.15	0.4021	0.3977	865.1	0.5
293.15	0.4029	0.1958	811.5	0.4
293.15	0.4476	0.452	915.6	0.5
293.15	0.5011	0.0966	833.6	0.5
293.15	0.5021	0.2991	890.3	0.5
293.15	0.5058	0.3937	929.5	0.5
293.15	0.5166	0.1716	859.2	0.5
293.15	0.6007	0.2027	913.1	0.5
293.15	0.6027	0.297	951.5	0.5
293.15	0.6046	0.0969	881.8	0.5
293.15	0.6992	0.0934	929.2	0.5
293.15	0.7011	0.1978	971.1	0.5
293.15	0.7994	0.0984	989	0.5
298.15	0.0493	0.9023	791.6	0.3
298.15	0.0506	0.0433	668.6	0.4
298.15	0.0964	0.1871	690.2	0.4
298.15	0.0965	0.2923	699.2	0.4
298.15	0.0976	0.1014	684.2	0.4
298.15	0.0993	0.6993	763.1	0.4
298.15	0.1002	0.4947	724.1	0.4
298.15	0.1006	0.5983	741.7	0.4
298.15	0.1007	0.7993	794.9	0.3
298.15	0.101	0.3912	711.1	0.4
298.15	0.1967	0.2931	736.4	0.4
298.15	0.1974	0.0976	714.1	0.4
298.15	0.1992	0.7007	834	0.4
298.15	0.2005	0.5998	800.5	0.4
298.15	0.201	0.3966	754.3	0.4
298.15	0.2015	0.1996	726.2	0.4
298.15	0.2016	0.4952	773.7	0.4
298.15	0.2506	0.2447	750.8	0.4
298.15	0.292	0.2023	760.8	0.4
298.15	0.2995	0.0984	748.9	0.4
298.15	0.3011	0.4984	830.9	0.4
298.15	0.302	0.3021	782.8	0.4
298.15	0.303	0.5957	868.7	0.4
298.15	0.3038	0.3946	803.6	0.4
298.15	0.3981	0.5026	897.2	0.5
298.15	0.3985	0.0945	785.3	0.4
298.15	0.4012	0.2951	828.9	0.4
298.15	0.4021	0.3977	859.4	0.5
298.15	0.4029	0.1958	805.9	0.4
298.15	0.4476	0.452	909.6	0.5
298.15	0.5011	0.0966	828	0.5
298.15	0.5021	0.2991	884.4	0.5
298.15	0.5058	0.3937	923.4	0.5
298.15	0.5166	0.1716	853.4	0.5
298.15	0.6007	0.2027	907.1	0.5
298.15	0.6027	0.297	946.2	0.5
298.15	0.6046	0.0969	875.7	0.5
298.15	0.6992	0.0934	923	0.5
298.15	0.7011	0.1978	965.7	0.5
298.15	0.7994	0.0984	982.7	0.5
303.15	0.0493	0.9023	787	0.3
303.15	0.0506	0.0433	663.8	0.4
303.15	0.0964	0.1871	685.2	0.4
303.15	0.0965	0.2923	693.5	0.4
303.15	0.0976	0.1014	679.4	0.4
303.15	0.0993	0.6993	758.8	0.4
303.15	0.1002	0.4947	719	0.4
303.15	0.1006	0.5983	737.1	0.4
303.15	0.1007	0.7993	791.2	0.3
303.15	0.101	0.3912	706.1	0.4
303.15	0.1967	0.2931	731.2	0.4
303.15	0.1974	0.0976	709.3	0.4
303.15	0.1992	0.7007	828.7	0.4
303.15	0.2005	0.5998	795.6	0.4
303.15	0.201	0.3966	749	0.4
303.15	0.2015	0.1996	721.3	0.4
303.15	0.2016	0.4952	768.8	0.4
303.15	0.2506	0.2447	745.5	0.4
303.15	0.292	0.2023	755.5	0.4
303.15	0.2995	0.0984	743.6	0.4
303.15	0.3011	0.4984	825.9	0.4
303.15	0.302	0.3021	777.4	0.4
303.15	0.303	0.5957	863.1	0.4
303.15	0.3038	0.3946	798.1	0.4
303.15	0.3981	0.5026	891.5	0.5
303.15	0.3985	0.0945	779.8	0.4
303.15	0.4012	0.2951	823.3	0.4
303.15	0.4021	0.3977	853.6	0.5
303.15	0.4029	0.1958	800.3	0.4
303.15	0.4476	0.452	903.8	0.5
303.15	0.5011	0.0966	822.2	0.5
303.15	0.5021	0.2991	880	0.5
303.15	0.5058	0.3937	917.8	0.5
303.15	0.5166	0.1716	847.5	0.5
303.15	0.6007	0.2027	901.1	0.5
303.15	0.6027	0.297	940.2	0.5
303.15	0.6046	0.0969	869.7	0.5
303.15	0.6992	0.0934	916.8	0.5
303.15	0.7011	0.1978	958.9	0.5
303.15	0.7994	0.0984	976.3	0.5
313.15	0.0493	0.9023	777.5	0.3
313.15	0.0506	0.0433	654.8	0.4
313.15	0.0964	0.1871	675.2	0.4
313.15	0.0965	0.2923	683.4	0.4
313.15	0.0976	0.1014	670.2	0.4
313.15	0.0993	0.6993	748.2	0.4
313.15	0.1002	0.4947	707.9	0.4
313.15	0.1006	0.5983	726.1	0.4
313.15	0.1007	0.7993	780.6	0.3
313.15	0.101	0.3912	694.8	0.4
313.15	0.1967	0.2931	720.6	0.4
313.15	0.1974	0.0976	699.2	0.4
313.15	0.1992	0.7007	818.2	0.4
313.15	0.2005	0.5998	784.7	0.4
313.15	0.201	0.3966	738.3	0.4
313.15	0.2015	0.1996	710.7	0.4
313.15	0.2016	0.4952	757.6	0.4
313.15	0.2506	0.2447	734.7	0.4
313.15	0.292	0.2023	744.5	0.4
313.15	0.2995	0.0984	732.8	0.4
313.15	0.3011	0.4984	814.6	0.4
313.15	0.302	0.3021	766.2	0.4
313.15	0.303	0.5957	852	0.4
313.15	0.3038	0.3946	786.9	0.4
313.15	0.3981	0.5026	880.1	0.5
313.15	0.3985	0.0945	768.5	0.4
313.15	0.4012	0.2951	811.6	0.4
313.15	0.4021	0.3977	841.9	0.5
313.15	0.4029	0.1958	788.9	0.4
313.15	0.4476	0.452	891.8	0.5
313.15	0.5011	0.0966	810.6	0.5
313.15	0.5021	0.2991	866.9	0.5
313.15	0.5058	0.3937	905.6	0.5
313.15	0.5166	0.1716	835.7	0.5
313.15	0.6007	0.2027	888.8	0.5
313.15	0.6027	0.297	927.5	0.5
313.15	0.6046	0.0969	857.7	0.5
313.15	0.6992	0.0934	904.5	0.5
313.15	0.7011	0.1978	946	0.5
313.15	0.7994	0.0984	963.5	0.5

System: ethanol + methanol + dimethyl carbonate; phases: Liquid
Fixed: Pressure, kPa = 101
Property: Viscosity, Pa*s (Liquid); method: CAPTUB:UFactor:4
Temperature, K	Mole fraction of dimethyl carbonate	Mole fraction of methanol	Viscosity, Pa*s	uncertainty
293.15	0.049	0.0492	0.001047	2.6e-05
293.15	0.0501	0.9013	0.000588	1.6e-05
293.15	0.0982	0.0956	0.000932	2.3e-05
293.15	0.0999	0.3013	0.000817	2.1e-05
293.15	0.1	0.5996	0.000677	1.8e-05
293.15	0.1003	0.4998	0.000723	1.9e-05
293.15	0.1007	0.3965	0.000795	2e-05
293.15	0.1008	0.6989	0.000636	1.7e-05
293.15	0.1011	0.7999	0.000596	1.6e-05
293.15	0.1042	0.1912	0.000866	2.2e-05
293.15	0.1901	0.1033	0.000808	2.1e-05
293.15	0.1966	0.2042	0.000753	1.9e-05
293.15	0.2002	0.3	0.000716	1.9e-05
293.15	0.2002	0.6001	0.000609	1.6e-05
293.15	0.2005	0.5007	0.000644	1.7e-05
293.15	0.2012	0.4006	0.000682	1.8e-05
293.15	0.2012	0.6984	0.000576	1.6e-05
293.15	0.2515	0.2524	0.00069	1.8e-05
293.15	0.2977	0.1035	0.000713	1.9e-05
293.15	0.3015	0.5985	0.000565	1.5e-05
293.15	0.3017	0.197	0.000694	1.8e-05
293.15	0.3018	0.3977	0.000622	1.7e-05
293.15	0.3023	0.4983	0.000593	1.6e-05
293.15	0.3025	0.3005	0.00065	1.7e-05
293.15	0.3961	0.4025	0.000583	1.6e-05
293.15	0.3985	0.1042	0.000671	1.8e-05
293.15	0.3988	0.3016	0.000629	1.7e-05
293.15	0.4002	0.5015	0.000563	1.5e-05
293.15	0.4021	0.1993	0.000638	1.7e-05
293.15	0.4903	0.5097	0.00054	1.5e-05
293.15	0.4999	0.1997	0.000602	1.6e-05
293.15	0.503	0.0971	0.000622	1.7e-05
293.15	0.504	0.2974	0.000581	1.6e-05
293.15	0.5078	0.3939	0.000562	1.5e-05
293.15	0.6008	0.3016	0.000574	1.6e-05
293.15	0.6018	0.0999	0.000598	1.6e-05
293.15	0.6688	0.2225	0.000578	1.6e-05
293.15	0.7041	0.0972	0.000591	1.6e-05
293.15	0.7041	0.1993	0.000594	1.6e-05
293.15	0.7982	0.1007	0.000584	1.6e-05
298.15	0.049	0.0492	0.000958	2.4e-05
298.15	0.0501	0.9013	0.000546	1.5e-05
298.15	0.0982	0.0956	0.000838	2.1e-05
298.15	0.0999	0.3013	0.00075	1.9e-05
298.15	0.1	0.5996	0.000628	1.7e-05
298.15	0.1003	0.4998	0.000668	1.8e-05
298.15	0.1007	0.3965	0.000723	1.9e-05
298.15	0.1008	0.6989	0.000591	1.6e-05
298.15	0.1011	0.7999	0.000554	1.5e-05
298.15	0.1042	0.1912	0.000796	2e-05
298.15	0.1901	0.1033	0.000737	1.9e-05
298.15	0.1966	0.2042	0.000693	1.8e-05
298.15	0.2002	0.3	0.000664	1.7e-05
298.15	0.2002	0.6001	0.000567	1.5e-05
298.15	0.2005	0.5007	0.000597	1.6e-05
298.15	0.2012	0.4006	0.00064	1.7e-05
298.15	0.2012	0.6984	0.000536	1.5e-05
298.15	0.2515	0.2524	0.000639	1.7e-05
298.15	0.2977	0.1035	0.000659	1.7e-05
298.15	0.3015	0.5985	0.000527	1.5e-05
298.15	0.3017	0.197	0.000648	1.7e-05
298.15	0.3018	0.3977	0.000578	1.6e-05
298.15	0.3023	0.4983	0.000552	1.5e-05
298.15	0.3025	0.3005	0.000604	1.6e-05
298.15	0.3961	0.4025	0.000544	1.5e-05
298.15	0.3985	0.1042	0.000621	1.7e-05
298.15	0.3988	0.3016	0.000583	1.6e-05
298.15	0.4002	0.5015	0.000525	1.5e-05
298.15	0.4021	0.1993	0.000591	1.6e-05
298.15	0.4903	0.5097	0.000506	1.4e-05
298.15	0.4999	0.1997	0.000565	1.5e-05
298.15	0.503	0.0971	0.000579	1.6e-05
298.15	0.504	0.2974	0.000543	1.5e-05
298.15	0.5078	0.3939	0.000534	1.5e-05
298.15	0.6008	0.3016	0.000534	1.5e-05
298.15	0.6018	0.0999	0.00056	1.5e-05
298.15	0.6688	0.2225	0.000536	1.5e-05
298.15	0.7041	0.0972	0.000551	1.5e-05
298.15	0.7041	0.1993	0.000549	1.5e-05
298.15	0.7982	0.1007	0.000547	1.5e-05
303.15	0.049	0.0492	0.000875	2.2e-05
303.15	0.0501	0.9013	0.00051	1.4e-05
303.15	0.0982	0.0956	0.00077	2e-05
303.15	0.0999	0.3013	0.000701	1.8e-05
303.15	0.1	0.5996	0.000584	1.6e-05
303.15	0.1003	0.4998	0.00062	1.7e-05
303.15	0.1007	0.3965	0.000668	1.8e-05
303.15	0.1008	0.6989	0.00055	1.5e-05
303.15	0.1011	0.7999	0.000517	1.4e-05
303.15	0.1042	0.1912	0.000734	1.9e-05
303.15	0.1901	0.1033	0.000681	1.8e-05
303.15	0.1966	0.2042	0.000643	1.7e-05
303.15	0.2002	0.3	0.000615	1.6e-05
303.15	0.2002	0.6001	0.000529	1.5e-05
303.15	0.2005	0.5007	0.000556	1.5e-05
303.15	0.2012	0.4006	0.000594	1.6e-05
303.15	0.2012	0.6984	0.000501	1.4e-05
303.15	0.2515	0.2524	0.000593	1.6e-05
303.15	0.2977	0.1035	0.000613	1.6e-05
303.15	0.3015	0.5985	0.000492	1.4e-05
303.15	0.3017	0.197	0.000603	1.6e-05
303.15	0.3018	0.3977	0.000539	1.5e-05
303.15	0.3023	0.4983	0.000516	1.4e-05
303.15	0.3025	0.3005	0.000561	1.5e-05
303.15	0.3961	0.4025	0.000508	1.4e-05
303.15	0.3985	0.1042	0.00058	1.6e-05
303.15	0.3988	0.3016	0.000548	1.5e-05
303.15	0.4002	0.5015	0.000492	1.4e-05
303.15	0.4021	0.1993	0.000554	1.5e-05
303.15	0.4903	0.5097	0.000478	1.4e-05
303.15	0.4999	0.1997	0.000525	1.5e-05
303.15	0.503	0.0971	0.000541	1.5e-05
303.15	0.504	0.2974	0.000508	1.4e-05
303.15	0.5078	0.3939	0.000507	1.4e-05
303.15	0.6008	0.3016	0.000507	1.4e-05
303.15	0.6018	0.0999	0.000523	1.5e-05
303.15	0.6688	0.2225	0.000504	1.4e-05
303.15	0.7041	0.0972	0.000517	1.4e-05
303.15	0.7041	0.1993	0.000511	1.4e-05
303.15	0.7982	0.1007	0.000513	1.4e-05
313.15	0.049	0.0492	0.000739	1.9e-05
313.15	0.0501	0.9013	0.000447	1.3e-05
313.15	0.0982	0.0956	0.000649	1.7e-05
313.15	0.0999	0.3013	0.000602	1.6e-05
313.15	0.1	0.5996	0.000507	1.4e-05
313.15	0.1003	0.4998	0.000538	1.5e-05
313.15	0.1007	0.3965	0.000592	1.6e-05
313.15	0.1008	0.6989	0.00048	1.4e-05
313.15	0.1011	0.7999	0.000454	1.3e-05
313.15	0.1042	0.1912	0.000626	1.7e-05
313.15	0.1901	0.1033	0.000573	1.6e-05
313.15	0.1966	0.2042	0.000554	1.5e-05
313.15	0.2002	0.3	0.000532	1.5e-05
313.15	0.2002	0.6001	0.000462	1.3e-05
313.15	0.2005	0.5007	0.000485	1.4e-05
313.15	0.2012	0.4006	0.000512	1.4e-05
313.15	0.2012	0.6984	0.000441	1.3e-05
313.15	0.2515	0.2524	0.000515	1.4e-05
313.15	0.2977	0.1035	0.000529	1.5e-05
313.15	0.3015	0.5985	0.000434	1.3e-05
313.15	0.3017	0.197	0.000517	1.4e-05
313.15	0.3018	0.3977	0.000472	1.3e-05
313.15	0.3023	0.4983	0.000453	1.3e-05
313.15	0.3025	0.3005	0.000494	1.4e-05
313.15	0.3961	0.4025	0.000447	1.3e-05
313.15	0.3985	0.1042	0.000499	1.4e-05
313.15	0.3988	0.3016	0.000504	1.4e-05
313.15	0.4002	0.5015	0.000433	1.3e-05
313.15	0.4021	0.1993	0.000482	1.4e-05
313.15	0.4903	0.5097	0.00042	1.2e-05
313.15	0.4999	0.1997	0.000464	1.3e-05
313.15	0.503	0.0971	0.000474	1.3e-05
313.15	0.504	0.2974	0.000448	1.3e-05
313.15	0.5078	0.3939	0.000452	1.3e-05
313.15	0.6008	0.3016	0.000441	1.3e-05
313.15	0.6018	0.0999	0.000462	1.3e-05
313.15	0.6688	0.2225	0.000446	1.3e-05
313.15	0.7041	0.0972	0.000458	1.3e-05
313.15	0.7041	0.1993	0.000447	1.3e-05
313.15	0.7982	0.1007	0.000458	1.3e-05

System: ethanol + methanol + dimethyl carbonate; phases: Liquid
Fixed: Pressure, kPa = 101
Property: Speed of sound, m/s (Liquid); method: FPINT:UFactor:2
Temperature, K	Mole fraction of dimethyl carbonate	Mole fraction of methanol	Speed of sound, m/s	uncertainty
293.15	0.049	0.0492	1161	2
293.15	0.0501	0.9013	1130	2
293.15	0.0982	0.0956	1164	2
293.15	0.0999	0.3013	1157	2
293.15	0.1	0.5996	1147	2
293.15	0.1003	0.4998	1151	2
293.15	0.1007	0.3965	1155	2
293.15	0.1008	0.6989	1143	2
293.15	0.1011	0.7999	1139	2
293.15	0.1042	0.1912	1162	2
293.15	0.1901	0.1033	1168	2
293.15	0.1966	0.2042	1165	2
293.15	0.2002	0.3	1163	2
293.15	0.2002	0.6001	1154	2
293.15	0.2005	0.5007	1157	2
293.15	0.2012	0.4006	1161	2
293.15	0.2012	0.6984	1151	2
293.15	0.2515	0.2524	1167	2
293.15	0.2977	0.1035	1172	2
293.15	0.3015	0.5985	1162	2
293.15	0.3017	0.197	1172	2
293.15	0.3018	0.3977	1167	2
293.15	0.3023	0.4983	1165	2
293.15	0.3025	0.3005	1170	2
293.15	0.3961	0.4025	1174	2
293.15	0.3985	0.1042	1179	2
293.15	0.3988	0.3016	1176	2
293.15	0.4002	0.5015	1172	2
293.15	0.4021	0.1993	1177	2
293.15	0.4903	0.5097	1180	2
293.15	0.4999	0.1997	1184	2
293.15	0.503	0.0971	1185	2
293.15	0.504	0.2974	1183	2
293.15	0.5078	0.3939	1182	2
293.15	0.6008	0.3016	1191	2
293.15	0.6018	0.0999	1192	2
293.15	0.6688	0.2225	1196	2
293.15	0.7041	0.0972	1200	2
293.15	0.7041	0.1993	1199	2
293.15	0.7982	0.1007	1208	2
298.15	0.049	0.0492	1144	2
298.15	0.0501	0.9013	1111	2
298.15	0.0982	0.0956	1145	2
298.15	0.0999	0.3013	1138	2
298.15	0.1	0.5996	1128	2
298.15	0.1003	0.4998	1132	2
298.15	0.1007	0.3965	1136	2
298.15	0.1008	0.6989	1124	2
298.15	0.1011	0.7999	1120	2
298.15	0.1042	0.1912	1143	2
298.15	0.1901	0.1033	1150	2
298.15	0.1966	0.2042	1147	2
298.15	0.2002	0.3	1144	2
298.15	0.2002	0.6001	1135	2
298.15	0.2005	0.5007	1138	2
298.15	0.2012	0.4006	1141	2
298.15	0.2012	0.6984	1132	2
298.15	0.2515	0.2524	1149	2
298.15	0.2977	0.1035	1155	2
298.15	0.3015	0.5985	1142	2
298.15	0.3017	0.197	1154	2
298.15	0.3018	0.3977	1147	2
298.15	0.3023	0.4983	1144	2
298.15	0.3025	0.3005	1151	2
298.15	0.3961	0.4025	1153	2
298.15	0.3985	0.1042	1161	2
298.15	0.3988	0.3016	1155	2
298.15	0.4002	0.5015	1151	2
298.15	0.4021	0.1993	1159	2
298.15	0.4903	0.5097	1160	2
298.15	0.4999	0.1997	1163	2
298.15	0.503	0.0971	1166	2
298.15	0.504	0.2974	1162	2
298.15	0.5078	0.3939	1161	2
298.15	0.6008	0.3016	1169	2
298.15	0.6018	0.0999	1172	2
298.15	0.6688	0.2225	1175	2
298.15	0.7041	0.0972	1179	2
298.15	0.7041	0.1993	1177	2
298.15	0.7982	0.1007	1186	2
303.15	0.049	0.0492	1127	2
303.15	0.0501	0.9013	1098	2
303.15	0.0982	0.0956	1127	2
303.15	0.0999	0.3013	1122	2
303.15	0.1	0.5996	1111	2
303.15	0.1003	0.4998	1116	2
303.15	0.1007	0.3965	1120	2
303.15	0.1008	0.6989	1108	2
303.15	0.1011	0.7999	1105	2
303.15	0.1042	0.1912	1127	2
303.15	0.1901	0.1033	1132	2
303.15	0.1966	0.2042	1130	2
303.15	0.2002	0.3	1127	2
303.15	0.2002	0.6001	1118	2
303.15	0.2005	0.5007	1121	2
303.15	0.2012	0.4006	1124	2
303.15	0.2012	0.6984	1115	2
303.15	0.2515	0.2524	1131	2
303.15	0.2977	0.1035	1136	2
303.15	0.3015	0.5985	1125	2
303.15	0.3017	0.197	1135	2
303.15	0.3018	0.3977	1130	2
303.15	0.3023	0.4983	1127	2
303.15	0.3025	0.3005	1133	2
303.15	0.3961	0.4025	1136	2
303.15	0.3985	0.1042	1141	2
303.15	0.3988	0.3016	1138	2
303.15	0.4002	0.5015	1134	2
303.15	0.4021	0.1993	1139	2
303.15	0.4903	0.5097	1143	2
303.15	0.4999	0.1997	1145	2
303.15	0.503	0.0971	1147	2
303.15	0.504	0.2974	1144	2
303.15	0.5078	0.3939	1143	2
303.15	0.6008	0.3016	1151	2
303.15	0.6018	0.0999	1153	2
303.15	0.6688	0.2225	1156	2
303.15	0.7041	0.0972	1159	2
303.15	0.7041	0.1993	1159	2
303.15	0.7982	0.1007	1166	2
313.15	0.049	0.0492	1092	2
313.15	0.0501	0.9013	1063	2
313.15	0.0982	0.0956	1092	2
313.15	0.0999	0.3013	1087	2
313.15	0.1	0.5996	1077	2
313.15	0.1003	0.4998	1081	2
313.15	0.1007	0.3965	1084	2
313.15	0.1008	0.6989	1073	2
313.15	0.1011	0.7999	1069	2
313.15	0.1042	0.1912	1090	2
313.15	0.1901	0.1033	1095	2
313.15	0.1966	0.2042	1093	2
313.15	0.2002	0.3	1091	2
313.15	0.2002	0.6001	1082	2
313.15	0.2005	0.5007	1085	2
313.15	0.2012	0.4006	1087	2
313.15	0.2012	0.6984	1079	2
313.15	0.2515	0.2524	1094	2
313.15	0.2977	0.1035	1099	2
313.15	0.3015	0.5985	1087	2
313.15	0.3017	0.197	1098	2
313.15	0.3018	0.3977	1092	2
313.15	0.3023	0.4983	1090	2
313.15	0.3025	0.3005	1096	2
313.15	0.3961	0.4025	1097	2
313.15	0.3985	0.1042	1103	2
313.15	0.3988	0.3016	1100	2
313.15	0.4002	0.5015	1095	2
313.15	0.4021	0.1993	1102	2
313.15	0.4903	0.5097	1103	2
313.15	0.4999	0.1997	1107	2
313.15	0.503	0.0971	1108	2
313.15	0.504	0.2974	1104	2
313.15	0.5078	0.3939	1103	2
313.15	0.6008	0.3016	1110	2
313.15	0.6018	0.0999	1113	2
313.15	0.6688	0.2225	1115	2
313.15	0.7041	0.0972	1117	2
313.15	0.7041	0.1993	1117	2
313.15	0.7982	0.1007	1123	2

System: ethanol + methanol + dimethyl carbonate; phases: Liquid
Fixed: Pressure, kPa = 101
Property: Mass density, kg/m3 (Liquid); method: VIBTUB:UFactor:2
Temperature, K	Mole fraction of dimethyl carbonate	Mole fraction of methanol	Mass density, kg/m3	uncertainty
293.15	0.049	0.0492	809	0.3
293.15	0.0501	0.9013	818.5	0.3
293.15	0.0982	0.0956	828.1	0.3
293.15	0.0999	0.3013	831.9	0.3
293.15	0.1	0.5996	837.5	0.3
293.15	0.1003	0.4998	835.5	0.3
293.15	0.1007	0.3965	833.8	0.3
293.15	0.1008	0.6989	839.8	0.3
293.15	0.1011	0.7999	842.3	0.3
293.15	0.1042	0.1912	831.9	0.3
293.15	0.1901	0.1033	861.5	0.3
293.15	0.1966	0.2042	866.7	0.3
293.15	0.2002	0.3	870.5	0.3
293.15	0.2002	0.6001	880.2	0.3
293.15	0.2005	0.5007	876.9	0.3
293.15	0.2012	0.4006	874.1	0.3
293.15	0.2012	0.6984	884.2	0.3
293.15	0.2515	0.2524	887.4	0.3
293.15	0.2977	0.1035	898	0.3
293.15	0.3015	0.5985	919.3	0.3
293.15	0.3017	0.197	903	0.3
293.15	0.3018	0.3977	910.3	0.3
293.15	0.3023	0.4983	915.1	0.3
293.15	0.3025	0.3005	906.8	0.3
293.15	0.3961	0.4025	942.5	0.4
293.15	0.3985	0.1042	929.5	0.3
293.15	0.3988	0.3016	938.3	0.4
293.15	0.4002	0.5015	949	0.4
293.15	0.4021	0.1993	934.6	0.3
293.15	0.4903	0.5097	978	0.4
293.15	0.4999	0.1997	963.5	0.4
293.15	0.503	0.0971	959.1	0.4
293.15	0.504	0.2974	969.8	0.4
293.15	0.5078	0.3939	976.6	0.4
293.15	0.6008	0.3016	997.1	0.4
293.15	0.6018	0.0999	985.6	0.4
293.15	0.6688	0.2225	1010.3	0.4
293.15	0.7041	0.0972	1010.8	0.4
293.15	0.7041	0.1993	1017.5	0.5
293.15	0.7982	0.1007	1033.4	0.5
298.15	0.049	0.0492	804.2	0.3
298.15	0.0501	0.9013	813.6	0.3
298.15	0.0982	0.0956	823.3	0.3
298.15	0.0999	0.3013	827.3	0.3
298.15	0.1	0.5996	832.6	0.3
298.15	0.1003	0.4998	830.7	0.3
298.15	0.1007	0.3965	829.1	0.3
298.15	0.1008	0.6989	834.9	0.3
298.15	0.1011	0.7999	837.4	0.3
298.15	0.1042	0.1912	826.8	0.3
298.15	0.1901	0.1033	856.6	0.3
298.15	0.1966	0.2042	861.7	0.3
298.15	0.2002	0.3	865.4	0.3
298.15	0.2002	0.6001	875	0.3
298.15	0.2005	0.5007	871.8	0.3
298.15	0.2012	0.4006	869	0.3
298.15	0.2012	0.6984	878.9	0.3
298.15	0.2515	0.2524	882.4	0.3
298.15	0.2977	0.1035	892.4	0.3
298.15	0.3015	0.5985	913.8	0.3
298.15	0.3017	0.197	897.6	0.3
298.15	0.3018	0.3977	904.9	0.3
298.15	0.3023	0.4983	909.6	0.3
298.15	0.3025	0.3005	901.3	0.3
298.15	0.3961	0.4025	936.8	0.4
298.15	0.3985	0.1042	923.9	0.3
298.15	0.3988	0.3016	932.7	0.4
298.15	0.4002	0.5015	943.3	0.4
298.15	0.4021	0.1993	929	0.4
298.15	0.4903	0.5097	971.8	0.4
298.15	0.4999	0.1997	957.7	0.4
298.15	0.503	0.0971	953.2	0.4
298.15	0.504	0.2974	963.9	0.4
298.15	0.5078	0.3939	970.6	0.4
298.15	0.6008	0.3016	991	0.4
298.15	0.6018	0.0999	979.8	0.4
298.15	0.6688	0.2225	1004.2	0.4
298.15	0.7041	0.0972	1004.9	0.4
298.15	0.7041	0.1993	1011.4	0.5
298.15	0.7982	0.1007	1026.9	0.5
303.15	0.049	0.0492	799.7	0.3
303.15	0.0501	0.9013	808.7	0.3
303.15	0.0982	0.0956	818.7	0.3
303.15	0.0999	0.3013	822.3	0.3
303.15	0.1	0.5996	827.6	0.3
303.15	0.1003	0.4998	825.7	0.3
303.15	0.1007	0.3965	824.1	0.3
303.15	0.1008	0.6989	829.7	0.3
303.15	0.1011	0.7999	832.2	0.3
303.15	0.1042	0.1912	822	0.3
303.15	0.1901	0.1033	851.4	0.3
303.15	0.1966	0.2042	856.5	0.3
303.15	0.2002	0.3	860.1	0.3
303.15	0.2002	0.6001	869.5	0.3
303.15	0.2005	0.5007	866.4	0.3
303.15	0.2012	0.4006	863.6	0.3
303.15	0.2012	0.6984	873.4	0.3
303.15	0.2515	0.2524	876.8	0.3
303.15	0.2977	0.1035	887.3	0.3
303.15	0.3015	0.5985	908	0.3
303.15	0.3017	0.197	891.9	0.3
303.15	0.3018	0.3977	899.3	0.3
303.15	0.3023	0.4983	903.9	0.3
303.15	0.3025	0.3005	895.9	0.3
303.15	0.3961	0.4025	930.9	0.4
303.15	0.3985	0.1042	918.1	0.3
303.15	0.3988	0.3016	926.8	0.4
303.15	0.4002	0.5015	937.2	0.4
303.15	0.4021	0.1993	923.1	0.4
303.15	0.4903	0.5097	966	0.4
303.15	0.4999	0.1997	951.6	0.4
303.15	0.503	0.0971	947.3	0.4
303.15	0.504	0.2974	957.7	0.4
303.15	0.5078	0.3939	964.4	0.4
303.15	0.6008	0.3016	984.7	0.4
303.15	0.6018	0.0999	973.7	0.4
303.15	0.6688	0.2225	997.6	0.4
303.15	0.7041	0.0972	998.6	0.4
303.15	0.7041	0.1993	1004.9	0.4
303.15	0.7982	0.1007	1020.5	0.5
313.15	0.049	0.0492	790.3	0.3
313.15	0.0501	0.9013	798.7	0.3
313.15	0.0982	0.0956	808.8	0.3
313.15	0.0999	0.3013	812.6	0.3
313.15	0.1	0.5996	817.5	0.3
313.15	0.1003	0.4998	815.8	0.3
313.15	0.1007	0.3965	814.3	0.3
313.15	0.1008	0.6989	819.6	0.3
313.15	0.1011	0.7999	821.9	0.3
313.15	0.1042	0.1912	812.3	0.3
313.15	0.1901	0.1033	840.9	0.3
313.15	0.1966	0.2042	846.1	0.3
313.15	0.2002	0.3	849.6	0.3
313.15	0.2002	0.6001	858.7	0.3
313.15	0.2005	0.5007	855.7	0.3
313.15	0.2012	0.4006	853	0.3
313.15	0.2012	0.6984	862.5	0.3
313.15	0.2515	0.2524	866.1	0.3
313.15	0.2977	0.1035	875.5	0.3
313.15	0.3015	0.5985	896.6	0.3
313.15	0.3017	0.197	880.7	0.3
313.15	0.3018	0.3977	888	0.3
313.15	0.3023	0.4983	892.6	0.3
313.15	0.3025	0.3005	884.7	0.3
313.15	0.3961	0.4025	919.2	0.4
313.15	0.3985	0.1042	906.3	0.3
313.15	0.3988	0.3016	915.1	0.4
313.15	0.4002	0.5015	925.3	0.4
313.15	0.4021	0.1993	911.5	0.4
313.15	0.4903	0.5097	953.5	0.4
313.15	0.4999	0.1997	939.5	0.4
313.15	0.503	0.0971	935.2	0.4
313.15	0.504	0.2974	945.5	0.4
313.15	0.5078	0.3939	952.1	0.4
313.15	0.6008	0.3016	972.1	0.4
313.15	0.6018	0.0999	961	0.4
313.15	0.6688	0.2225	984.8	0.4
313.15	0.7041	0.0972	985.8	0.4
313.15	0.7041	0.1993	992	0.4
313.15	0.7982	0.1007	1007.4	0.5
