Measured thermophysical data. Vapour pressures and enthalpies of vaporization of a series of the ferrocene derivatives
Source: J. Chem. Thermodyn., 2007, 10.1016/j.jct.2006.09.001
Compound 1: ferrocene, C10H10Fe, InChI=1S/2C5H5.Fe/c2*1-2-4-5-3-1;/h2*1-5H;
Compound 2: (hydroxymethyl)ferrocene, C11H12FeO, InChI=1S/C6H7O.C5H5.Fe/c7-5-6-3-1-2-4-6;1-2-4-5-3-1;/h1-4,7H,5H2;1-5H;/q2*-1;+2
Compound 3: benzylferrocene, C17H16Fe, InChI=1S/C12H11.C5H5.Fe/c1-2-6-11(7-3-1)10-12-8-4-5-9-12;1-2-4-5-3-1;/h1-9H,10H2;1-5H;/q2*-1;+2
Compound 4: benzoylferrocene, C17H14FeO, InChI=1S/C12H9O.C5H5.Fe/c13-12(11-8-4-5-9-11)10-6-2-1-3-7-10;1-2-4-5-3-1;/h1-9H;1-5H;/q2*-1;+2

System: ferrocene; phases: Crystal, Liquid, Air at 1 atmosphere
Property: Molar enthalpy of transition or fusion, kJ/mol (Crystal); method: DSC
Molar enthalpy of transition or fusion, kJ/mol	uncertainty
18.3	0.6

System: ferrocene; phases: Crystal, Liquid, Air at 1 atmosphere
Property: Normal melting temperature, K (Crystal); method: DTA
Normal melting temperature, K	uncertainty
447.8	0.5

System: ferrocene; phases: Crystal, Gas
Property: Vapor or sublimation pressure, kPa (Crystal); method: Transpiration method
Temperature, K	Vapor or sublimation pressure, kPa	uncertainty
289.7	0.00041	3e-05
299.6	0.00116	6e-05
303.5	0.00169	9e-05
303.6	0.00172	9e-05
307.5	0.00249	0.00014
312.5	0.00388	0.00021
317.6	0.00605	0.00033
322.6	0.00945	0.00051
322.7	0.00932	0.0005
327.6	0.014	0.00075
332.8	0.02131	0.00113
332.8	0.02096	0.00111
337.9	0.03024	0.0016
342.9	0.04379	0.00233
348	0.06337	0.00337
353.1	0.09205	0.00489
358.3	0.13344	0.00702
363.4	0.18028	0.00937

System: (hydroxymethyl)ferrocene; phases: Crystal, Liquid, Air at 1 atmosphere
Property: Molar enthalpy of transition or fusion, kJ/mol (Crystal); method: DSC
Molar enthalpy of transition or fusion, kJ/mol	uncertainty
23.7	0.8

System: (hydroxymethyl)ferrocene; phases: Crystal, Liquid, Air at 1 atmosphere
Property: Normal melting temperature, K (Crystal); method: DTA
Normal melting temperature, K	uncertainty
352.2	0.7

System: (hydroxymethyl)ferrocene; phases: Liquid, Gas
Property: Vapor or sublimation pressure, kPa (Liquid); method: TRANSPIR:UFactor:2
Temperature, K	Vapor or sublimation pressure, kPa	uncertainty
353.2	0.00788	0.0008
355.2	0.00938	0.00095
357.3	0.0104	0.00105
358.9	0.01181	0.0012
359.6	0.01286	0.0013
361.6	0.01452	0.00147
363.4	0.01668	0.00169
364.7	0.01879	0.00193
366.1	0.02236	0.00227
366.5	0.02159	0.00219
368.9	0.02708	0.00272
369	0.02499	0.00251
370.5	0.02709	0.00275
371.8	0.03178	0.00322
372.5	0.03208	0.00326
374	0.03745	0.00377
375.6	0.03813	0.00385
377	0.04507	0.00458
379.7	0.05509	0.00556
383.7	0.06949	0.00699
385	0.07524	0.00758
386.8	0.08377	0.00843
389.6	0.09595	0.00969
393.7	0.13009	0.01312

System: (hydroxymethyl)ferrocene; phases: Crystal, Gas
Property: Vapor or sublimation pressure, kPa (Crystal); method: TRANSPIR:UFactor:2
Temperature, K	Vapor or sublimation pressure, kPa	uncertainty
313.3	0.00011	1e-05
313.3	0.00011	1e-05
316.7	0.00015	2e-05
316.7	0.00015	2e-05
320.4	0.00025	3e-05
320.4	0.00025	3e-05
323.3	0.00036	4e-05
327.3	0.00056	6e-05
330.4	0.00079	8e-05
330.4	0.00078	8e-05
333.7	0.00116	0.00012
333.8	0.00111	0.00011
335.9	0.0015	0.00015
336.2	0.00149	0.00015
339.8	0.00218	0.00022
341.1	0.00254	0.00026
342	0.0029	0.0003
343.3	0.00329	0.00034
346	0.00416	0.00042
347.3	0.00468	0.00048
347.4	0.00492	0.0005

System: benzylferrocene; phases: Crystal, Liquid, Air at 1 atmosphere
Property: Molar enthalpy of transition or fusion, kJ/mol (Crystal); method: DSC
Molar enthalpy of transition or fusion, kJ/mol	uncertainty
23.7	0.5

System: benzylferrocene; phases: Crystal, Liquid, Air at 1 atmosphere
Property: Normal melting temperature, K (Crystal); method: DTA
Normal melting temperature, K	uncertainty
349.2	0.7

System: benzylferrocene; phases: Liquid, Gas
Property: Vapor or sublimation pressure, kPa (Liquid); method: Transpiration method
Temperature, K	Vapor or sublimation pressure, kPa	uncertainty
350.7	0.00111	6e-05
352.9	0.00129	7e-05
356.9	0.00181	0.0001
361	0.00247	0.00013
365	0.00332	0.00017
369	0.0046	0.00024
373.1	0.00602	0.00031
377.1	0.0082	0.00043

System: benzylferrocene; phases: Crystal, Gas
Property: Vapor or sublimation pressure, kPa (Crystal); method: TRANSPIR:UFactor:2
Temperature, K	Vapor or sublimation pressure, kPa	uncertainty
311.7	1.2e-05	2e-06
313	1.3e-05	2e-06
318	2.7e-05	3e-06
323.3	5.2e-05	6e-06
325.1	6.4e-05	7e-06
325.3	6.5e-05	7e-06
327.2	8.6e-05	9e-06
331.3	0.000132	1.5e-05
331.9	0.000152	1.6e-05
333.3	0.00017	1.8e-05
335.9	0.000236	2.4e-05
338.4	0.000303	3.2e-05
338.9	0.000323	3.3e-05
341.3	0.000442	4.6e-05

System: benzoylferrocene; phases: Crystal, Liquid, Air at 1 atmosphere
Property: Molar enthalpy of transition or fusion, kJ/mol (Crystal); method: DSC
Molar enthalpy of transition or fusion, kJ/mol	uncertainty
29.9	0.7

System: benzoylferrocene; phases: Crystal, Liquid, Air at 1 atmosphere
Property: Normal melting temperature, K (Crystal); method: DTA
Normal melting temperature, K	uncertainty
382.6	0.5

System: benzoylferrocene; phases: Liquid, Gas
Property: Vapor or sublimation pressure, kPa (Liquid); method: Transpiration method
Temperature, K	Vapor or sublimation pressure, kPa	uncertainty
384	0.00187	0.0001
386.2	0.00223	0.00012
389.1	0.0027	0.00014
392.4	0.00338	0.00018
396	0.00428	0.00022
397.9	0.00488	0.00025
402	0.00618	0.00035
402.6	0.00664	0.00034
404.8	0.00742	0.00039
408.8	0.00977	0.0005
408.9	0.00961	0.00049
410.6	0.01054	0.00054
413.6	0.01254	0.00065
416.8	0.01548	0.0008
419.7	0.01891	0.00097
423.3	0.02256	0.00116
426.6	0.02806	0.00144
429.6	0.03229	0.00164

System: benzoylferrocene; phases: Crystal, Gas
Property: Vapor or sublimation pressure, kPa (Crystal); method: Transpiration method
Temperature, K	Vapor or sublimation pressure, kPa	uncertainty
342.3	2.2e-05	1e-06
347.2	3.8e-05	2e-06
350.2	5.3e-05	3e-06
350.9	5.8e-05	3e-06
353	7.5e-05	4e-06
356	9.7e-05	5e-06
357.8	0.000123	7e-06
360.3	0.000164	9e-06
363	0.00021	1.1e-05
364	0.000246	1.4e-05
366.4	0.000313	1.7e-05
370	0.000441	2.4e-05
371.7	0.000553	3.1e-05
373.6	0.000674	3.7e-05
377.3	0.000963	5.2e-05
379.3	0.001207	6.5e-05
