Measured thermophysical data. Excess molar properties of ternary system (ethanol + water + 1,3-dimethylimidazolium methyl sulfate) and its binary mixtures at several temperatures
Source: J. Chem. Thermodyn., 2008, 10.1016/j.jct.2008.04.006
Compound 1: ethanol, C2H6O, InChI=1S/C2H6O/c1-2-3/h3H,2H2,1H3
Compound 2: water, H2O, InChI=1S/H2O/h1H2
Compound 3: 1,3-dimethylimidazolium methylsulfate, C6H12N2O4S, InChI=1S/C5H9N2.CH4O4S/c1-6-3-4-7(2)5-6;1-5-6(2,3)4/h3-5H,1-2H3;1H3,(H,2,3,4)/q+1;/p-1

System: ethanol; phases: Liquid
Property: Refractive index (Na D-line) (Liquid); method: Standard Abbe refractometry
Temperature, K	Pressure, kPa	Refractive index (Na D-line)	uncertainty
298.15	101.325	1.36023	0.00068

System: ethanol; phases: Liquid
Fixed: Pressure, kPa = 100
Property: Viscosity, Pa*s (Liquid); method: CAPTUB::UFactor:8
Temperature, K	Viscosity, Pa*s	uncertainty
298.15	0.001082	0.000403
313.15	0.000827	0.000402
328.15	0.000641	0.000401

System: ethanol; phases: Liquid
Fixed: Pressure, kPa = 100
Property: Mass density, kg/m3 (Liquid); method: VIBTUB::UFactor:2
Temperature, K	Mass density, kg/m3	uncertainty
298.15	785.46	0.24
313.15	772	0.25
328.15	758.55	0.26

System: water; phases: Liquid
Property: Refractive index (Na D-line) (Liquid); method: Standard Abbe refractometry
Temperature, K	Pressure, kPa	Refractive index (Na D-line)	uncertainty
298.15	101.325	1.33251	0.00068

System: water; phases: Liquid
Fixed: Pressure, kPa = 100
Property: Viscosity, Pa*s (Liquid); method: CAPTUB::UFactor:16
Temperature, K	Viscosity, Pa*s	uncertainty
298.15	0.00089	0.000408
313.15	0.000653	0.000405
328.15	0.000504	0.000403

System: water; phases: Liquid
Fixed: Pressure, kPa = 100
Property: Mass density, kg/m3 (Liquid); method: VIBTUB::UFactor:2
Temperature, K	Mass density, kg/m3	uncertainty
298.15	997.2	0.08
313.15	992.21	0.08
328.15	985.69	0.09

System: 1,3-dimethylimidazolium methylsulfate; phases: Liquid
Property: Refractive index (Na D-line) (Liquid); method: Standard Abbe refractometry
Temperature, K	Pressure, kPa	Refractive index (Na D-line)	uncertainty
298.15	101.325	1.48296	0.00121

System: 1,3-dimethylimidazolium methylsulfate; phases: Liquid
Fixed: Pressure, kPa = 100
Property: Viscosity, Pa*s (Liquid); method: CAPTUB:UFactor:16
Temperature, K	Viscosity, Pa*s	uncertainty
298.15	0.0777	0.0097
313.15	0.04168	0.00292
328.15	0.02521	0.00181

System: 1,3-dimethylimidazolium methylsulfate; phases: Liquid
Fixed: Pressure, kPa = 100
Property: Mass density, kg/m3 (Liquid); method: VIBTUB:UFactor:2
Temperature, K	Mass density, kg/m3	uncertainty
298.15	1329.12	3.59
313.15	1318.56	3.53
328.15	1308.13	3.47

System: water + 1,3-dimethylimidazolium methylsulfate; phases: Liquid
Fixed: Pressure, kPa = 100
Property: Viscosity, Pa*s (Liquid); method: CAPTUB:UFactor:16
Temperature, K	Mole fraction of water	Viscosity, Pa*s	uncertainty
298.15	0	0.0777	0.0097
298.15	0.0497	0.0681	0.0061
298.15	0.1475	0.0536	0.0016
298.15	0.2128	0.04493	0.00305
298.15	0.3086	0.03523	0.0024
298.15	0.3869	0.02757	0.00189
298.15	0.4947	0.01955	0.00136
298.15	0.5959	0.01388	0.001
298.15	0.6947	0.009599	0.000774
298.15	0.7966	0.005928	0.000603
298.15	0.8962	0.002925	0.000466
298.15	0.9485	0.001745	0.000427
298.15	1	0.00089	0.000408
313.15	0	0.04168	0.00292
313.15	0.0497	0.03751	0.00262
313.15	0.1475	0.03044	0.00212
313.15	0.2128	0.02586	0.00181
313.15	0.3086	0.02076	0.00146
313.15	0.3869	0.01693	0.00121
313.15	0.4947	0.01241	0.00093
313.15	0.5959	0.009041	0.000749
313.15	0.6947	0.006368	0.000623
313.15	0.7966	0.004027	0.000515
313.15	0.8962	0.002069	0.000436
313.15	0.9485	0.001261	0.000415
313.15	1	0.000653	0.000405
328.15	0	0.02521	0.00181
328.15	0.0497	0.02395	0.00172
328.15	0.1475	0.01985	0.00143
328.15	0.2128	0.01711	0.00124
328.15	0.3086	0.01379	0.00101
328.15	0.3869	0.0105	0.00083
328.15	0.4947	0.008521	0.000727
328.15	0.5959	0.006336	0.000623
328.15	0.6947	0.004518	0.00054
328.15	0.7966	0.002917	0.000466
328.15	0.8962	0.001548	0.000422
328.15	0.9485	0.00099	0.00041
328.15	1	0.000504	0.000403

System: water + 1,3-dimethylimidazolium methylsulfate; phases: Liquid
Fixed: Temperature, K = 298.15
Fixed: Pressure, kPa = 100
Property: Refractive index (Na D-line) (Liquid); method: Standard Abbe refractometry
Mole fraction of water	Refractive index (Na D-line)	uncertainty
0	1.48296	0.00121
0.0497	1.48187	0.00117
0.1475	1.47986	0.00109
0.2128	1.47824	0.00104
0.3086	1.47536	0.00097
0.3869	1.47252	0.00092
0.4947	1.46739	0.00085
0.5959	1.46071	0.00079
0.6947	1.45105	0.00075
0.7966	1.43485	0.00071
0.8962	1.40572	0.00069
0.9485	1.37848	0.00068
1	1.33251	0.00068

System: water + 1,3-dimethylimidazolium methylsulfate; phases: Liquid
Fixed: Pressure, kPa = 100
Property: Mass density, kg/m3 (Liquid); method: VIBTUB:UFactor:2
Temperature, K	Mole fraction of water	Mass density, kg/m3	uncertainty
298.15	0	1329.12	3.59
298.15	0.0497	1326.99	3.27
298.15	0.1475	1322.81	2.68
298.15	0.2128	1319.54	2.32
298.15	0.3086	1313.75	1.85
298.15	0.3869	1307.71	1.52
298.15	0.4947	1296.97	1.12
298.15	0.5959	1282.77	0.82
298.15	0.6947	1262.17	0.58
298.15	0.7966	1226.82	0.39
298.15	0.8962	1162.06	0.25
298.15	0.9485	1100.41	0.18
298.15	1	997.2	0.08
313.15	0	1318.56	3.53
313.15	0.0497	1316.44	3.21
313.15	0.1475	1312.31	2.63
313.15	0.2128	1309.03	2.28
313.15	0.3086	1303.27	1.82
313.15	0.3869	1297.25	1.49
313.15	0.4947	1286.56	1.1
313.15	0.5959	1272.39	0.8
313.15	0.6947	1251.91	0.57
313.15	0.7966	1216.82	0.38
313.15	0.8962	1152.98	0.24
313.15	0.9485	1092.64	0.17
313.15	1	992.21	0.08
328.15	0	1308.13	3.47
328.15	0.0497	1306.09	3.16
328.15	0.1475	1301.96	2.59
328.15	0.2128	1298.64	2.24
328.15	0.3086	1292.81	1.79
328.15	0.3869	1286.89	1.46
328.15	0.4947	1276.22	1.08
328.15	0.5959	1262.04	0.78
328.15	0.6947	1240.95	0.55
328.15	0.7966	1206.64	0.38
328.15	0.8962	1143.43	0.24
328.15	0.9485	1084.03	0.18
328.15	1	985.69	0.09

System: ethanol + 1,3-dimethylimidazolium methylsulfate; phases: Liquid
Fixed: Pressure, kPa = 100
Property: Viscosity, Pa*s (Liquid); method: CAPTUB:UFactor:8
Temperature, K	Mole fraction of ethanol	Viscosity, Pa*s	uncertainty
298.15	0	0.0777	0.0051
298.15	0.0669	0.0621	0.0024
298.15	0.1228	0.0516	0.0013
298.15	0.2212	0.03697	0.00143
298.15	0.2944	0.02956	0.00112
298.15	0.3984	0.02026	0.00082
298.15	0.5	0.01283	0.00061
298.15	0.5926	0.008784	0.000514
298.15	0.6921	0.005706	0.000459
298.15	0.797	0.003513	0.000425
298.15	0.8957	0.002096	0.00041
298.15	0.945	0.001602	0.000406
298.15	1	0.001082	0.000403
313.15	0	0.04168	0.00174
313.15	0.0669	0.03442	0.00141
313.15	0.1228	0.02938	0.00119
313.15	0.2212	0.0228	0.00094
313.15	0.2944	0.01797	0.00077
313.15	0.3984	0.01287	0.00062
313.15	0.5	0.008823	0.000519
313.15	0.5926	0.006258	0.000469
313.15	0.6921	0.004309	0.000437
313.15	0.797	0.002649	0.000415
313.15	0.8957	0.001603	0.000406
313.15	0.945	0.001225	0.000404
313.15	1	0.000827	0.000402
328.15	0	0.02521	0.00109
328.15	0.0669	0.02143	0.00094
328.15	0.1228	0.01872	0.00083
328.15	0.2212	0.01507	0.0007
328.15	0.2944	0.01228	0.00061
328.15	0.3984	0.009141	0.000531
328.15	0.5	0.006461	0.000475
328.15	0.5926	0.004727	0.000445
328.15	0.6921	0.003246	0.000422
328.15	0.797	0.002077	0.00041
328.15	0.8957	0.001265	0.000404
328.15	0.945	0.000961	0.000402
328.15	1	0.000641	0.000401

System: ethanol + 1,3-dimethylimidazolium methylsulfate; phases: Liquid
Fixed: Temperature, K = 298.15
Fixed: Pressure, kPa = 100
Property: Refractive index (Na D-line) (Liquid); method: Standard Abbe refractometry
Mole fraction of ethanol	Refractive index (Na D-line)	uncertainty
0	1.48296	0.00121
0.0669	1.48028	0.00115
0.1228	1.47773	0.00111
0.2212	1.47336	0.00104
0.2944	1.46936	0.00099
0.3984	1.46252	0.00092
0.5	1.45421	0.00085
0.5926	1.44554	0.0008
0.6921	1.43248	0.00076
0.797	1.41494	0.00072
0.8957	1.39329	0.00069
0.945	1.37874	0.00068
1	1.36023	0.00068

System: ethanol + 1,3-dimethylimidazolium methylsulfate; phases: Liquid
Fixed: Pressure, kPa = 100
Property: Mass density, kg/m3 (Liquid); method: VIBTUB:UFactor:2
Temperature, K	Mole fraction of ethanol	Mass density, kg/m3	uncertainty
298.15	0	1329.12	3.59
298.15	0.0669	1316.47	3.12
298.15	0.1228	1305.19	2.76
298.15	0.2212	1282.46	2.18
298.15	0.2944	1263.18	1.8
298.15	0.3984	1231.22	1.33
298.15	0.5	1192.8	0.96
298.15	0.5926	1150.85	0.69
298.15	0.6921	1094.3	0.45
298.15	0.797	1018.1	0.26
298.15	0.8957	923.16	0.2
298.15	0.945	864.26	0.2
298.15	1	785.46	0.24
313.15	0	1318.56	3.53
313.15	0.0669	1305.89	3.07
313.15	0.1228	1294.59	2.71
313.15	0.2212	1271.77	2.14
313.15	0.2944	1252.46	1.76
313.15	0.3984	1220.4	1.31
313.15	0.5	1181.88	0.94
313.15	0.5926	1139.74	0.67
313.15	0.6921	1082.98	0.44
313.15	0.797	1006.41	0.25
313.15	0.8957	910.98	0.21
313.15	0.945	851.76	0.21
313.15	1	772	0.25
328.15	0	1308.13	3.47
328.15	0.0669	1295.53	3.02
328.15	0.1228	1284.2	2.66
328.15	0.2212	1261.38	2.1
328.15	0.2944	1241.97	1.73
328.15	0.3984	1209.57	1.28
328.15	0.5	1171.12	0.92
328.15	0.5926	1128.74	0.66
328.15	0.6921	1071.75	0.43
328.15	0.797	994.72	0.26
328.15	0.8957	898.7	0.22
328.15	0.945	839.06	0.22
328.15	1	758.55	0.26

System: ethanol + water + 1,3-dimethylimidazolium methylsulfate; phases: Liquid
Fixed: Pressure, kPa = 100
Fixed: Temperature, K = 298.15
Property: Viscosity, Pa*s (Liquid); method: CAPTUB:UFactor:12
Mole fraction of ethanol	Mole fraction of water	Viscosity, Pa*s	uncertainty
0.0395	0.9469	0.001476	0.000411
0.0567	0.9117	0.001857	0.000417
0.0674	0.8724	0.002493	0.000429
0.0859	0.8132	0.003449	0.000452
0.0984	0.3754	0.01942	0.00106
0.0987	0.5532	0.01082	0.00069
0.1015	0.8858	0.002008	0.00042
0.1018	0.1512	0.03376	0.00187
0.1168	0.8536	0.002306	0.000425
0.118	0.7046	0.004992	0.0005
0.1409	0.8036	0.002793	0.000436
0.1629	0.8252	0.002345	0.000426
0.1736	0.7351	0.003548	0.000455
0.1877	0.7851	0.002547	0.00043
0.1977	0.3341	0.01481	0.00085
0.1993	0.4914	0.00877	0.000616
0.2074	0.1334	0.02462	0.00135
0.2203	0.7294	0.002903	0.000438
0.2319	0.7572	0.00243	0.000428
0.2333	0.6125	0.005161	0.000504
0.2646	0.6542	0.003378	0.00045
0.2974	0.4312	0.007164	0.000563
0.2977	0.2925	0.01129	0.00071
0.3053	0.6498	0.00279	0.000436
0.3097	0.1162	0.01787	0.00099
0.3106	0.6797	0.002401	0.000427
0.3421	0.5256	0.00415	0.000472
0.3603	0.5691	0.00308	0.000443
0.3959	0.5651	0.00262	0.000432
0.3982	0.3694	0.005798	0.000522
0.4003	0.2497	0.008498	0.000608
0.4116	0.099	0.0128	0.00077
0.44	0.4474	0.003565	0.000455
0.4561	0.4839	0.002789	0.000436
0.4936	0.3108	0.004661	0.000489
0.4999	0.2083	0.006438	0.000541
0.5094	0.4837	0.002023	0.00042
0.55	0.3595	0.002981	0.00044
0.5579	0.3933	0.002433	0.000428
0.5968	0.2475	0.003677	0.000458
0.6032	0.1652	0.004767	0.000492
0.6047	0.3697	0.00205	0.00042
0.6995	0.1844	0.002827	0.000436
0.7142	0.119	0.003381	0.00045
0.7386	0.2088	0.002056	0.00042
0.8266	0.1385	0.001706	0.000415

System: ethanol + water + 1,3-dimethylimidazolium methylsulfate; phases: Liquid
Fixed: Pressure, kPa = 100
Fixed: Temperature, K = 298.15
Property: Refractive index (Na D-line) (Liquid); method: Standard Abbe refractometry
Mole fraction of water	Mole fraction of ethanol	Refractive index (Na D-line)	uncertainty
0.099	0.4116	1.45547	0.00085
0.1162	0.3097	1.46277	0.0009
0.119	0.7142	1.41078	0.00071
0.1334	0.2074	1.46879	0.00095
0.1385	0.8266	1.37463	0.00068
0.1512	0.1018	1.47397	0.00101
0.1652	0.6032	1.42503	0.00073
0.1844	0.6995	1.40033	0.0007
0.2083	0.4999	1.43624	0.00075
0.2088	0.7386	1.38184	0.00069
0.2475	0.5968	1.4119	0.00071
0.2497	0.4003	1.44555	0.00077
0.2925	0.2977	1.45368	0.0008
0.3108	0.4936	1.42247	0.00072
0.3341	0.1977	1.46062	0.00083
0.3595	0.55	1.39703	0.0007
0.3694	0.3982	1.4314	0.00073
0.3697	0.6047	1.37434	0.0007
0.3754	0.0984	1.46636	0.00086
0.3933	0.5579	1.38377	0.0007
0.4312	0.2974	1.43994	0.00074
0.4474	0.44	1.40571	0.0007
0.4837	0.5094	1.36644	0.00072
0.4839	0.4561	1.38933	0.00072
0.4914	0.1993	1.44719	0.00075
0.5256	0.3421	1.41318	0.00072
0.5532	0.0987	1.45376	0.00077
0.5651	0.3959	1.38179	0.0007
0.5691	0.3603	1.39462	0.00071
0.6125	0.2333	1.42101	0.0007
0.6498	0.3053	1.38487	0.00072
0.6542	0.2646	1.39976	0.00069
0.6797	0.3106	1.36652	0.00071
0.7046	0.118	1.42814	0.00071
0.7294	0.2203	1.38736	0.0007
0.7351	0.1736	1.40412	0.00069
0.7572	0.2319	1.3654	0.0007
0.7851	0.1877	1.37432	0.00069
0.8036	0.1409	1.38872	0.00068
0.8132	0.0859	1.40706	0.00069
0.8252	0.1629	1.36307	0.00069
0.8536	0.1168	1.37265	0.00068
0.8724	0.0674	1.38837	0.00069
0.8858	0.1015	1.35907	0.00068
0.9117	0.0567	1.36927	0.00068
0.9469	0.0395	1.35275	0.00068

System: ethanol + water + 1,3-dimethylimidazolium methylsulfate; phases: Liquid
Fixed: Pressure, kPa = 100
Fixed: Temperature, K = 298.15
Property: Mass density, kg/m3 (Liquid); method: VIBTUB:UFactor:2
Mole fraction of ethanol	Mole fraction of water	Mass density, kg/m3	uncertainty
0.0395	0.9469	1015.67	0.18
0.0567	0.9117	1047.95	0.23
0.0674	0.8724	1088.92	0.3
0.0859	0.8132	1129.02	0.26
0.0984	0.3754	1278.05	1.16
0.0987	0.5532	1245.98	0.66
0.1015	0.8858	993.73	0.29
0.1018	0.1512	1297.71	2.07
0.1168	0.8536	1023.04	0.3
0.118	0.7046	1173.78	0.37
0.1409	0.8036	1056.23	0.3
0.1629	0.8252	972.21	0.41
0.1736	0.7351	1088.08	0.35
0.1877	0.7851	995.17	0.46
0.1977	0.3341	1247.33	0.94
0.1993	0.4914	1207.69	0.57
0.2074	0.1334	1271.13	1.62
0.2203	0.7294	1021.07	0.53
0.2319	0.7572	948.04	0.62
0.2333	0.6125	1121.69	0.39
0.2646	0.6542	1046.02	0.37
0.2974	0.4312	1167.48	0.55
0.2977	0.2925	1212.46	0.76
0.3053	0.6498	985.36	0.82
0.3097	0.1162	1241.15	1.25
0.3106	0.6797	922.59	0.79
0.3421	0.5256	1071.36	0.67
0.3603	0.5691	1003.79	0.7
0.3959	0.5651	950.67	0.75
0.3982	0.3694	1122.89	0.5
0.4003	0.2497	1171.78	0.61
0.4116	0.099	1206.04	0.95
0.44	0.4474	1026.33	0.53
0.4561	0.4839	964.51	0.93
0.4936	0.3108	1077.51	0.53
0.4999	0.2083	1127.15	0.6
0.5094	0.4837	870.25	1.02
0.55	0.3595	976.77	0.65
0.5579	0.3933	925.82	0.67
0.5968	0.2475	1025.79	0.44
0.6032	0.1652	1074.11	0.48
0.6047	0.3697	882.94	0.74
0.6995	0.1844	970.02	0.34
0.7142	0.119	1008.89	0.28
0.7386	0.2088	894.73	0.44
0.8266	0.1385	857.86	0.31
