Measured thermophysical data. Thermodynamic study of Cs3Na(MoO4)2: Determination of the standard enthalpy of formation and standard entropy at 298.15 K
Source: J. Chem. Thermodyn., 2018, 10.1016/j.jct.2018.01.016
Compound 1: molybdenum, Mo, InChI=1S/Mo
Compound 2: cesium, Cs, InChI=1S/Cs
Compound 3: oxygen, O2, InChI=1S/O2/c1-2
Compound 4: sodium, Na, InChI=1S/Na
Compound 5: sodium molybdate, MoNa2O4, InChI=1S/Mo.2Na.4O/q;2*+1;;;2*-1, purity 99.9%
Compound 6: cesium molybdate, Cs2MoO4, InChI=1S/2Cs.Mo.4O/q2*+1;;;;2*-1
Compound 7: tricesium sodium molybdate, Cs3Mo2NaO8, InChI=1S/3Cs.2Mo.Na.8O/q3*+1;;;+1;;;;;4*-1

System: tricesium sodium molybdate; phases: Crystal
Property: Mass density, kg/m3 (Crystal); method: X-ray diffraction
Temperature, K	Pressure, kPa	Mass density, kg/m3	uncertainty
295	101.325	4299.1	4.8

System: tricesium sodium molybdate; phases: Crystal
Property: Mass density, kg/m3 (Crystal); method: Neutron diffraction
Temperature, K	Pressure, kPa	Mass density, kg/m3	uncertainty
295	101.325	4317	9

System: tricesium sodium molybdate; phases: Crystal
Fixed: Pressure, kPa = 101.325
Property: Molar heat capacity at constant pressure, J/K/mol (Crystal); method: RELAXCAL
Temperature, K	Molar heat capacity at constant pressure, J/K/mol	uncertainty
0.5	0.00045383	0.00041468
1	0.00369	0.0005074
2	0.03146	0.00251
3	0.11642	0.00875
4	0.30727	0.02262
5	0.66987	0.04879
6	1.2819	0.0928
7	2.2191	0.16
8	3.5323	0.2539
9	5.2148	0.374
10	7.1622	0.5127
15	20.251	1.447
20	36.35	2.287
25	53.269	3.35
30	69.657	4.381
35	84.753	4.653
40	98.318	5.398
45	110.42	6.06
50	121.25	6.66
55	131.03	6.25
60	139.93	6.67
65	148.12	7.06
70	155.73	7.43
75	162.85	7.77
80	169.58	8.09
85	175.97	8.39
90	182.07	8.68
95	187.9	8.96
100	193.49	9.23
110	204.01	8.5
120	213.72	8.9
130	222.65	9.27
140	230.86	9.61
150	238.37	9.93
160	245.23	10.21
170	251.48	10.47
180	257.18	10.71
190	262.36	10.93
200	267.08	11.12
210	271.37	11.3
220	275.28	11.46
230	278.85	11.61
240	282.1	11.75
250	285.08	11.87
260	287.8	11.98
270	290.3	12.09
273.15	291.04	12.12
280	292.59	12.18
290	294.69	12.27
298.15	296.29	12.34
300	296.63	12.35

System: tricesium sodium molybdate; phases: Crystal
Fixed: Pressure, kPa = 101.325
Property: Molar entropy, J/K/mol (Crystal); method: RELAXCAL
Temperature, K	Molar entropy, J/K/mol	uncertainty
0.5	0.00015398	0.00014476
1	0.00123	0.0002004
2	0.01094	0.00123
3	0.0382	0.00418
4	0.09602	0.01041
5	0.20141	0.02174
6	0.37522	0.04041
7	0.64056	0.06888
8	1.0198	0.1095
9	1.5303	0.1642
10	2.1781	0.2335
15	7.4127	0.794
20	15.4	1.453
25	25.325	2.389
30	36.5	3.443
35	48.389	3.985
40	60.608	4.991
45	72.9	6.004
50	85.105	7.009
55	97.127	6.948
60	108.91	7.79
65	120.44	8.62
70	131.7	9.42
75	142.69	10.21
80	153.42	10.97
85	163.89	11.72
90	174.12	12.45
95	184.13	13.17
100	193.91	13.87
110	212.85	13.3
120	231.02	14.43
130	248.49	15.52
140	265.29	16.57
150	281.48	17.58
160	297.09	18.56
170	312.14	19.5
180	326.68	20.41
190	340.73	21.28
200	354.31	22.13
210	367.44	22.95
220	380.16	23.75
230	392.47	24.51
240	404.41	25.26
250	415.99	25.98
260	427.22	26.69
270	438.13	27.37
273.15	441.51	27.58
280	448.73	28.03
290	459.04	28.67
298.15	467.23	29.18
300	469.06	29.3

System: tricesium sodium molybdate; phases: Crystal
Fixed: Pressure, kPa = 101.325
Property: Molar enthalpy, kJ/mol (Crystal); method: RELAXCAL
Temperature, K	Molar enthalpy, kJ/mol	uncertainty
0.5	5.8899e-08	2.45917e-07
1	9.2557e-07	2.692e-07
2	1.85e-05	1.607e-06
3	9.244e-05	7.19e-06
4	0.00030429	2.282e-05
5	0.00079285	5.845e-05
6	0.00177	0.0001292
7	0.00352	0.0002554
8	0.00639	0.0004618
9	0.01077	0.000776
10	0.01696	0.001217
15	0.08381	0.005996
20	0.22463	0.01414
25	0.44866	0.02823
30	0.75639	0.04758
35	1.143	0.0628
40	1.6013	0.0879
45	2.1237	0.1166
50	2.7034	0.1484
55	3.3344	0.159
60	4.0121	0.1913
65	4.7325	0.2257
70	5.4923	0.2619
75	6.2889	0.2999
80	7.1202	0.3396
85	7.9842	0.3808
90	8.8794	0.4234
95	9.8045	0.4676
100	10.758	0.513
110	12.746	0.531
120	14.836	0.618
130	17.018	0.709
140	19.286	0.803
150	21.633	0.901
160	24.051	1.002
170	26.535	1.105
180	29.079	1.211
190	31.677	1.319
200	34.325	1.429
210	37.017	1.541
220	39.751	1.655
230	42.522	1.771
240	45.327	1.887
250	48.163	2.006
260	51.028	2.125
270	53.918	2.245
273.15	54.834	2.283
280	56.833	2.367
290	59.769	2.489
298.15	62.178	2.589
300	62.726	2.612

System: tricesium sodium molybdate; phases: Crystal
Fixed: Pressure, kPa = 101.325
Property: Molar heat capacity at constant pressure, J/K/mol (Crystal); method: RELAXCAL
Temperature, K	Molar heat capacity at constant pressure, J/K/mol	uncertainty
1.89	0.0298	0.0025
1.891	0.0298	0.0025
1.893	0.0299	0.0025
1.984	0.0341	0.0029
1.985	0.0342	0.0029
1.985	0.0342	0.0029
2.086	0.0392	0.0032
2.089	0.0393	0.0033
2.089	0.0392	0.0033
2.195	0.0459	0.0036
2.196	0.0461	0.0036
2.196	0.0462	0.0037
2.307	0.0545	0.0042
2.308	0.0546	0.0042
2.309	0.0545	0.0042
2.421	0.063	0.0048
2.422	0.063	0.0048
2.424	0.0628	0.0048
2.543	0.0724	0.0054
2.544	0.0727	0.0054
2.544	0.0725	0.0054
2.671	0.0838	0.0062
2.672	0.0839	0.0062
2.673	0.084	0.0062
2.805	0.0965	0.0071
2.806	0.0963	0.0071
2.807	0.0967	0.0071
2.947	0.1119	0.0082
2.948	0.1117	0.0082
2.948	0.1119	0.0082
3.094	0.1307	0.0095
3.096	0.131	0.0095
3.096	0.1309	0.0095
3.251	0.1533	0.0111
3.251	0.1529	0.0111
3.253	0.1537	0.0112
3.415	0.1789	0.013
3.416	0.1791	0.013
3.418	0.1794	0.013
3.586	0.2095	0.0152
3.587	0.2106	0.0153
3.588	0.2092	0.0152
3.764	0.2474	0.0179
3.764	0.2464	0.0178
3.766	0.2475	0.0179
3.951	0.2908	0.0208
3.954	0.2897	0.0208
3.955	0.2905	0.0209
4.146	0.3428	0.0246
4.149	0.3444	0.0247
4.151	0.3438	0.0247
4.352	0.407	0.0291
4.356	0.408	0.0292
4.356	0.407	0.0291
4.57	0.4843	0.0346
4.571	0.4842	0.0346
4.573	0.4837	0.0346
4.798	0.5738	0.041
4.798	0.5706	0.0408
4.801	0.5741	0.041
5.036	0.6777	0.0484
5.038	0.6825	0.0487
5.039	0.6822	0.0487
5.287	0.8111	0.0575
5.288	0.8124	0.0576
5.29	0.8122	0.0576
5.547	0.9656	0.0684
5.548	0.9652	0.0684
5.552	0.9656	0.0684
5.824	1.149	0.081
5.824	1.153	0.082
5.827	1.15	0.081
6.113	1.372	0.097
6.117	1.368	0.097
6.12	1.379	0.098
6.419	1.635	0.115
6.42	1.632	0.115
6.425	1.637	0.116
6.735	1.942	0.137
6.74	1.947	0.137
6.745	1.951	0.137
7.085	2.323	0.163
7.086	2.33	0.164
7.086	2.326	0.164
7.379	2.679	0.188
7.381	2.68	0.188
7.386	2.685	0.189
7.744	3.166	0.222
7.745	3.167	0.222
7.748	3.172	0.223
8.129	3.735	0.262
8.133	3.736	0.262
8.137	3.745	0.263
8.534	4.39	0.308
8.536	4.393	0.308
8.539	4.395	0.308
8.959	5.133	0.359
8.966	5.142	0.36
8.971	5.147	0.36
9.397	5.958	0.417
9.401	5.965	0.417
9.403	5.963	0.417
9.866	6.897	0.482
9.873	6.904	0.483
9.877	6.912	0.483
10.352	7.932	0.554
10.365	7.928	0.554
10.37	7.92	0.553
10.875	9.101	0.636
10.885	9.122	0.637
10.888	9.13	0.638
11.412	10.4	0.73
11.422	10.42	0.73
11.425	10.41	0.73
11.978	11.85	0.83
11.992	11.87	0.83
11.993	11.87	0.83
12.58	13.43	0.94
12.588	13.48	0.94
12.588	13.46	0.94
13.211	15.19	1.06
13.215	15.2	1.06
13.221	15.21	1.06
13.865	17.03	1.19
13.876	17.07	1.19
13.882	17.08	1.19
14.543	19.02	1.33
14.563	19.08	1.33
14.565	19.09	1.33
15.259	21.19	1.3
15.284	21.26	1.3
15.29	21.26	1.3
16.014	23.5	1.44
16.04	23.57	1.44
16.052	23.61	1.45
16.807	25.97	1.59
16.832	26.03	1.6
16.844	26.06	1.6
17.642	28.62	1.75
17.659	28.65	1.76
17.663	28.68	1.76
18.516	31.41	1.92
18.526	31.46	1.93
18.529	31.46	1.93
19.442	34.31	2.1
19.452	34.46	2.11
19.465	34.51	2.11
20.366	37.44	2.3
20.399	37.6	2.31
20.406	37.58	2.31
20.407	37.62	2.31
20.411	37.62	2.31
20.424	37.67	2.31
21.443	41.03	2.52
21.462	41.07	2.52
21.471	41.17	2.52
22.485	44.58	2.73
22.504	44.62	2.74
22.516	44.68	2.74
23.529	48.1	2.95
23.551	48.05	2.95
23.561	48.2	2.95
24.56	51.56	3.16
24.597	51.57	3.16
24.6	51.7	3.17
25.603	54.98	3.37
25.647	55.13	3.38
25.647	55.06	3.37
26.643	58.52	3.59
26.661	58.58	3.59
26.689	58.64	3.59
27.699	62.2	3.81
27.701	62.18	3.81
27.73	62.3	3.82
28.731	65.88	4.04
28.744	65.91	4.04
28.771	65.91	4.04
29.781	69.53	4.26
29.783	69.5	4.26
29.804	69.39	4.25
30.821	73	3.9
30.824	73.06	3.9
30.828	72.96	3.9
31.853	76.45	4.08
31.856	76.41	4.08
31.866	76	4.06
32.877	79.14	4.23
32.888	79.19	4.23
32.91	78.95	4.22
33.922	82.05	4.38
33.928	82.08	4.38
33.948	82.14	4.39
34.968	85.07	4.54
34.976	85.15	4.55
34.984	85.28	4.55
36.014	87.95	4.7
36.019	88.08	4.7
36.03	88.09	4.7
37.059	90.33	4.82
37.062	90.38	4.83
37.068	90.29	4.82
38.1	92.95	4.96
38.105	92.99	4.97
38.108	92.94	4.96
39.143	95.65	5.11
39.146	95.57	5.1
39.148	95.6	5.1
40.181	98.12	5.24
40.188	98.16	5.24
40.189	98.1	5.24
41.222	100.7	5.38
41.227	100.72	5.38
41.229	100.74	5.38
42.262	103.32	5.52
42.266	103.32	5.52
42.272	103.36	5.52
43.307	105.9	5.65
43.308	105.92	5.66
43.311	105.93	5.66
44.345	108.39	5.79
44.347	108.42	5.79
44.351	108.41	5.79
45.382	110.86	5.92
45.386	110.86	5.92
45.39	110.88	5.92
46.421	113.27	6.05
46.424	113.23	6.05
46.43	113.28	6.05
47.458	115.63	6.17
47.461	115.61	6.17
47.469	115.62	6.17
48.499	117.99	6.3
48.5	117.94	6.3
48.507	118	6.3
49.539	120.33	6.42
49.54	120.31	6.42
49.549	120.38	6.43
50.576	122.54	5.68
50.577	122.51	5.68
50.589	122.59	5.68
51.605	124.69	5.78
51.623	124.71	5.78
51.624	124.71	5.78
52.647	126.76	5.88
52.658	126.74	5.88
52.666	126.79	5.88
53.692	128.76	5.97
53.696	128.78	5.97
53.705	128.8	5.97
54.724	130.82	6.07
54.739	130.85	6.07
54.743	130.84	6.07
55.769	132.8	6.16
55.779	132.76	6.16
55.788	132.82	6.16
56.808	134.78	6.25
56.822	134.73	6.25
56.827	134.76	6.25
57.85	136.58	6.33
57.863	136.65	6.34
57.868	136.63	6.34
58.891	138.44	6.42
58.901	138.43	6.42
58.912	138.52	6.42
59.935	140.19	6.5
59.94	140.24	6.5
59.951	140.26	6.5
60.935	141.89	6.58
60.986	141.99	6.58
60.986	141.97	6.58
60.99	142.04	6.59
60.993	142.05	6.59
60.995	142.04	6.59
65.061	148.9	6.9
65.108	148.98	6.91
65.111	149.05	6.91
69.176	155.82	7.23
69.224	155.96	7.23
69.226	155.95	7.23
73.291	160.79	7.46
73.337	160.91	7.46
73.338	160.88	7.46
77.42	165.56	7.68
77.463	165.66	7.68
77.463	165.64	7.68
81.552	170.23	7.89
81.593	170.26	7.89
81.595	170.39	7.9
85.699	174.36	8.08
85.729	174.52	8.09
85.736	174.53	8.09
89.822	180.1	8.35
89.844	180.1	8.35
89.846	180.05	8.35
93.936	185.01	8.58
93.971	185	8.58
93.972	184.98	8.58
98.051	190.16	8.82
98.088	190.27	8.82
98.099	190.25	8.82
102.177	195.59	7.95
102.219	195.73	7.95
102.224	195.69	7.95
106.303	200.05	8.13
106.378	202.12	8.21
106.382	202.15	8.21
110.436	206.07	8.37
110.465	205.99	8.37
110.473	205.95	8.37
114.549	209.9	8.53
114.578	209.93	8.53
114.587	209.97	8.53
118.672	213.86	8.69
118.702	213.71	8.68
118.713	213.71	8.68
122.8	217.46	8.83
122.836	217.53	8.84
122.847	217.6	8.84
126.921	221.1	8.98
126.956	221.1	8.98
126.961	221.03	8.98
131.042	224.48	9.12
131.081	224.46	9.12
131.088	224.56	9.12
135.171	227.73	9.25
135.207	227.63	9.25
135.217	227.55	9.24
139.289	230.8	9.38
139.328	230.83	9.38
139.342	230.89	9.38
143.414	234.04	9.51
143.461	234.1	9.51
143.476	234.15	9.51
147.54	236.96	9.63
147.579	237.05	9.63
147.6	236.91	9.62
151.652	239.61	9.73
151.712	239.54	9.73
151.721	239.69	9.74
155.775	242.16	9.84
155.835	242.26	9.84
155.843	242.25	9.84
159.899	244.84	9.95
159.956	244.75	9.94
159.976	244.85	9.95
164.019	247.16	10.04
164.088	247.38	10.05
164.093	247.21	10.04
168.136	249.73	10.14
168.213	249.77	10.15
168.218	249.73	10.14
172.253	252.01	10.24
172.333	252.16	10.24
172.34	252.17	10.24
176.369	254.39	10.33
176.447	254.26	10.33
176.466	254.52	10.34
180.485	256.48	10.42
180.569	256.58	10.42
180.585	256.55	10.42
184.602	258.27	10.49
184.693	258.48	10.5
184.695	258.5	10.5
188.714	260.73	10.59
188.806	260.58	10.58
188.822	260.81	10.59
192.84	263	10.68
192.937	263.15	10.69
192.949	263.38	10.7
196.961	265.25	10.77
197.067	265.39	10.78
197.072	265.65	10.79
201.075	267.04	10.85
201.183	267.09	10.85
201.196	267.34	10.86
205.199	269.11	10.93
205.306	269.14	10.93
205.309	269.17	10.93
209.309	270.8	11
209.415	270.89	11
209.43	270.97	11.01
213.417	272.46	11.07
213.529	272.45	11.07
213.537	272.78	11.08
217.524	274	11.13
217.637	274.09	11.13
217.652	274.24	11.14
221.622	275.46	11.19
221.72	276.29	11.22
221.738	276.5	11.23
225.701	277.51	11.27
225.836	277.63	11.28
225.839	277.61	11.28
229.805	278.55	11.31
229.938	278.83	11.33
229.958	278.83	11.33
233.906	280.05	11.38
234.052	279.98	11.37
234.059	280.26	11.38
238.025	281.15	11.42
238.173	281.48	11.43
238.191	281.61	11.44
242.153	282.62	11.48
242.309	282.56	11.48
242.322	282.71	11.48
246.274	283.58	11.52
246.434	283.78	11.53
246.444	283.93	11.53
250.391	284.89	11.57
250.556	284.99	11.58
250.57	285.18	11.58
254.502	286.19	11.63
254.67	286.22	11.63
254.689	286.72	11.65
258.607	287.08	11.66
258.79	287.33	11.67
258.804	287.62	11.68
262.711	288.42	11.72
262.909	288.91	11.74
262.912	288.99	11.74
266.81	289.8	11.77
267.014	290.12	11.78
267.018	290	11.78
270.916	290.57	11.8
271.113	291.14	11.83
271.117	291.18	11.83
275.006	291.34	11.83
275.213	291.92	11.86
275.224	291.73	11.85
279.103	292.54	11.88
279.313	292.87	11.9
279.317	292.46	11.88
283.199	292.87	11.9
283.421	293.2	11.91
283.424	293.16	11.91
287.29	293.28	11.91
287.529	293.51	11.92
287.534	293.37	11.92
291.393	294.55	11.96
291.631	294.96	11.98
291.643	294.73	11.97
295.493	296.38	12.04
295.74	296.52	12.04
295.741	296.35	12.04
299.59	297.96	12.1

Reaction: -1 molybdenum + -2 cesium + 1 cesium molybdate + -2 oxygen
Property: Molar enthalpy of reaction, kJ/mol
-1514.69

Reaction: -1 molybdenum + -2 sodium + 1 sodium molybdate + -2 oxygen
Property: Molar enthalpy of reaction, kJ/mol
-1466.53

Reaction: -2 molybdenum + -1 sodium + -3 cesium + 1 tricesium sodium molybdate + -4 oxygen
Property: Molar enthalpy of reaction, kJ/mol
-2998.5
