Measured thermophysical data. Calibration and testing of an isoperibolic micro-combustion calorimeter  developed to measure the enthalpy of combustion of organic compounds  containing C, H, O and N
Source: J. Chem. Thermodyn., 2013, 10.1016/j.jct.2012.12.020
Compound 1: carbon dioxide, CO2, InChI=1S/CO2/c2-1-3
Compound 2: water, H2O, InChI=1S/H2O/h1H2
Compound 3: nitrogen, N2, InChI=1S/N2/c1-2
Compound 4: oxygen, O2, InChI=1S/O2/c1-2, purity 99.999%
Compound 5: 2-hydroxybenzoic acid, C7H6O3, InChI=1S/C7H6O3/c8-6-4-2-1-3-5(6)7(9)10/h1-4,8H,(H,9,10), purity 99.95%
Compound 6: 1H-1,2,4-triazole, C2H3N3, InChI=1S/C2H3N3/c1-3-2-5-4-1/h1-2H,(H,3,4,5), purity 99.95%

Reaction: -1 2-hydroxybenzoic acid + 7 carbon dioxide + 3 water + -7 oxygen
Property: Specific internal energy of reaction at constant volume, J/g
-21877.2

Reaction: -1 1H-1,2,4-triazole + 2 carbon dioxide + 1.5 nitrogen + 1.5 water + -2.75 oxygen
Property: Specific internal energy of reaction at constant volume, J/g
-19217.7
