Measured thermophysical data. Equilibrium solubility of dinitolmide in several neat solvents and binary aqueous co-solvent mixtures: Experimental determination and thermodynamic analysis
Source: J. Chem. Thermodyn., 2019, 10.1016/j.jct.2019.01.013
Compound 1: 2-methyl-3,5-dinitrobenzamide, C8H7N3O5, InChI=1S/C8H7N3O5/c1-4-6(8(9)12)2-5(10(13)14)3-7(4)11(15)16/h2-3H,1H3,(H2,9,12), purity 98.4%
Compound 2: methanol, CH4O, InChI=1S/CH4O/c1-2/h2H,1H3, purity 99.7%
Compound 3: ethanol, C2H6O, InChI=1S/C2H6O/c1-2-3/h3H,2H2,1H3, purity 99.4%
Compound 4: propan-2-ol, C3H8O, InChI=1S/C3H8O/c1-3(2)4/h3-4H,1-2H3, purity 99.5%
Compound 5: propan-1-ol, C3H8O, InChI=1S/C3H8O/c1-2-3-4/h4H,2-3H2,1H3, purity 99.4%
Compound 6: butan-1-ol, C4H10O, InChI=1S/C4H10O/c1-2-3-4-5/h5H,2-4H2,1H3, purity 99.5%
Compound 7: ethyl acetate, C4H8O2, InChI=1S/C4H8O2/c1-3-6-4(2)5/h3H2,1-2H3, purity 99.4%
Compound 8: acetonitrile, C2H3N, InChI=1S/C2H3N/c1-2-3/h1H3, purity 99.5%
Compound 9: 1,2-ethanediol, C2H6O2, InChI=1S/C2H6O2/c3-1-2-4/h3-4H,1-2H2, purity 99.4%
Compound 10: 1,4-dioxane, C4H8O2, InChI=1S/C4H8O2/c1-2-6-4-3-5-1/h1-4H2, purity 99.5%
Compound 11: cyclohexane, C6H12, InChI=1S/C6H12/c1-2-4-6-5-3-1/h1-6H2, purity 99.4%
Compound 12: dimethyl sulfoxide, C2H6OS, InChI=1S/C2H6OS/c1-4(2)3/h1-2H3, purity 99.5%
Compound 13: water, H2O, InChI=1S/H2O/h1H2

System: methanol + 2-methyl-3,5-dinitrobenzamide; phases: Liquid, Crystal
Fixed: Pressure, kPa = 101.2
Property: Mole fraction of 2-methyl-3,5-dinitrobenzamide (Liquid); method: Chromatography
Temperature, K	Mole fraction of 2-methyl-3,5-dinitrobenzamide	uncertainty
283.15	0.003148	0.000214
288.15	0.003692	0.000251
293.15	0.004329	0.000295
298.15	0.005024	0.000342
303.15	0.005772	0.000393
308.15	0.006681	0.000455
313.15	0.007654	0.000521
318.15	0.008876	0.000604
323.15	0.01013	0.00069
328.15	0.01161	0.00079

System: ethanol + 2-methyl-3,5-dinitrobenzamide; phases: Liquid, Crystal
Fixed: Pressure, kPa = 101.2
Property: Mole fraction of 2-methyl-3,5-dinitrobenzamide (Liquid); method: Chromatography
Temperature, K	Mole fraction of 2-methyl-3,5-dinitrobenzamide	uncertainty
283.15	0.002113	0.000144
288.15	0.002506	0.000171
293.15	0.002976	0.000203
298.15	0.003428	0.000233
303.15	0.003976	0.000271
308.15	0.00463	0.000315
313.15	0.005295	0.00036
318.15	0.006067	0.000413
323.15	0.006972	0.000474
328.15	0.008109	0.000552

System: propan-1-ol + 2-methyl-3,5-dinitrobenzamide; phases: Liquid, Crystal
Fixed: Pressure, kPa = 101.2
Property: Mole fraction of 2-methyl-3,5-dinitrobenzamide (Liquid); method: Chromatography
Temperature, K	Mole fraction of 2-methyl-3,5-dinitrobenzamide	uncertainty
283.15	0.001835	0.000125
288.15	0.002205	0.00015
293.15	0.002566	0.000175
298.15	0.003021	0.000206
303.15	0.003507	0.000239
308.15	0.004172	0.000284
313.15	0.004872	0.000332
318.15	0.005565	0.000379
323.15	0.006471	0.00044
328.15	0.007448	0.000507

System: propan-2-ol + 2-methyl-3,5-dinitrobenzamide; phases: Liquid, Crystal
Fixed: Pressure, kPa = 101.2
Property: Mole fraction of 2-methyl-3,5-dinitrobenzamide (Liquid); method: Chromatography
Temperature, K	Mole fraction of 2-methyl-3,5-dinitrobenzamide	uncertainty
283.15	0.001187	8.1e-05
288.15	0.001438	9.8e-05
293.15	0.001744	0.000119
298.15	0.002087	0.000142
303.15	0.002481	0.000169
308.15	0.002989	0.000203
313.15	0.003519	0.000239
318.15	0.004099	0.000279
323.15	0.004811	0.000327
328.15	0.005485	0.000373

System: butan-1-ol + 2-methyl-3,5-dinitrobenzamide; phases: Liquid, Crystal
Fixed: Pressure, kPa = 101.2
Property: Mole fraction of 2-methyl-3,5-dinitrobenzamide (Liquid); method: Chromatography
Temperature, K	Mole fraction of 2-methyl-3,5-dinitrobenzamide	uncertainty
283.15	0.0009165	6.24e-05
288.15	0.001121	7.6e-05
293.15	0.001394	9.5e-05
298.15	0.001668	0.000114
303.15	0.002013	0.000137
308.15	0.002419	0.000165
313.15	0.002865	0.000195
318.15	0.003411	0.000232
323.15	0.004007	0.000273
328.15	0.004742	0.000323

System: ethyl acetate + 2-methyl-3,5-dinitrobenzamide; phases: Liquid, Crystal
Fixed: Pressure, kPa = 101.2
Property: Mole fraction of 2-methyl-3,5-dinitrobenzamide (Liquid); method: Chromatography
Temperature, K	Mole fraction of 2-methyl-3,5-dinitrobenzamide	uncertainty
283.15	0.005557	0.000378
288.15	0.006522	0.000444
293.15	0.007238	0.000492
298.15	0.00828	0.000563
303.15	0.009059	0.000616
308.15	0.01054	0.00072
313.15	0.01183	0.0008
318.15	0.0132	0.0009
323.15	0.01501	0.00102
328.15	0.01738	0.00118

System: dimethyl sulfoxide + 2-methyl-3,5-dinitrobenzamide; phases: Liquid, Crystal
Fixed: Pressure, kPa = 101.2
Property: Mole fraction of 2-methyl-3,5-dinitrobenzamide (Liquid); method: Chromatography
Temperature, K	Mole fraction of 2-methyl-3,5-dinitrobenzamide	uncertainty
293.15	0.204	0.0139
298.15	0.2159	0.0147
303.15	0.2278	0.0155
308.15	0.2391	0.0163
313.15	0.2521	0.0172
318.15	0.2647	0.018
323.15	0.2773	0.0189
328.15	0.2897	0.0197

System: acetonitrile + 2-methyl-3,5-dinitrobenzamide; phases: Liquid, Crystal
Fixed: Pressure, kPa = 101.2
Property: Mole fraction of 2-methyl-3,5-dinitrobenzamide (Liquid); method: Chromatography
Temperature, K	Mole fraction of 2-methyl-3,5-dinitrobenzamide	uncertainty
283.15	0.008657	0.000589
288.15	0.009223	0.000627
293.15	0.01015	0.00069
298.15	0.0112	0.00076
303.15	0.01234	0.00084
308.15	0.01378	0.00094
313.15	0.01553	0.00106
318.15	0.01773	0.00121
323.15	0.02018	0.00137
328.15	0.02283	0.00155

System: cyclohexane + 2-methyl-3,5-dinitrobenzamide; phases: Liquid, Crystal
Fixed: Pressure, kPa = 101.2
Property: Mole fraction of 2-methyl-3,5-dinitrobenzamide (Liquid); method: Chromatography
Temperature, K	Mole fraction of 2-methyl-3,5-dinitrobenzamide	uncertainty
283.15	1.148e-05	7.8e-07
288.15	1.496e-05	1.02e-06
293.15	1.93e-05	1.31e-06
298.15	2.416e-05	1.64e-06
303.15	3.11e-05	2.12e-06
308.15	3.839e-05	2.61e-06
313.15	4.847e-05	3.3e-06
318.15	5.809e-05	3.95e-06
323.15	7.273e-05	4.95e-06
328.15	8.591e-05	5.85e-06

System: 1,2-ethanediol + 2-methyl-3,5-dinitrobenzamide; phases: Liquid, Crystal
Fixed: Pressure, kPa = 101.2
Property: Mole fraction of 2-methyl-3,5-dinitrobenzamide (Liquid); method: Chromatography
Temperature, K	Mole fraction of 2-methyl-3,5-dinitrobenzamide	uncertainty
283.15	0.002566	0.000175
288.15	0.002986	0.000203
293.15	0.00353	0.00024
298.15	0.00408	0.000278
303.15	0.004756	0.000324
308.15	0.005364	0.000365
313.15	0.006116	0.000416
318.15	0.007054	0.00048
323.15	0.008096	0.000551
328.15	0.009507	0.000647

System: 1,4-dioxane + 2-methyl-3,5-dinitrobenzamide; phases: Liquid, Crystal
Fixed: Pressure, kPa = 101.2
Property: Mole fraction of 2-methyl-3,5-dinitrobenzamide (Liquid); method: Chromatography
Temperature, K	Mole fraction of 2-methyl-3,5-dinitrobenzamide	uncertainty
288.15	0.04775	0.00325
293.15	0.05102	0.00347
298.15	0.05483	0.00373
303.15	0.05904	0.00402
308.15	0.06382	0.00434
313.15	0.06957	0.00473
318.15	0.07633	0.00519
323.15	0.08334	0.00567
328.15	0.09188	0.00625

System: 2-methyl-3,5-dinitrobenzamide + water; phases: Liquid, Crystal
Fixed: Pressure, kPa = 101.2
Property: Mole fraction of 2-methyl-3,5-dinitrobenzamide (Liquid); method: Chromatography
Temperature, K	Mole fraction of 2-methyl-3,5-dinitrobenzamide	uncertainty
283.15	2.839e-05	1.93e-06
288.15	3.539e-05	2.41e-06
293.15	4.45e-05	3.03e-06
298.15	5.536e-05	3.77e-06
303.15	6.756e-05	4.6e-06
308.15	8.388e-05	5.71e-06
313.15	0.0001027	7e-06
318.15	0.0001233	8.4e-06
323.15	0.0001481	1.01e-05
328.15	0.0001797	1.22e-05

System: ethanol + 2-methyl-3,5-dinitrobenzamide + water; phases: Liquid, Crystal
Fixed: Pressure, kPa = 101.2
Property: Mole fraction of 2-methyl-3,5-dinitrobenzamide (Liquid); method: Chromatography
Temperature, K	Solvent: Mass fraction of ethanol	Mole fraction of 2-methyl-3,5-dinitrobenzamide	uncertainty
283.15	0	2.839e-05	1.93e-06
288.15	0	3.539e-05	2.41e-06
293.15	0	4.45e-05	3.03e-06
298.15	0	5.536e-05	3.77e-06
303.15	0	6.756e-05	4.6e-06
308.15	0	8.388e-05	5.71e-06
313.15	0	0.0001027	7e-06
318.15	0	0.0001233	8.4e-06
323.15	0	0.0001481	1.01e-05
328.15	0	0.0001797	1.22e-05
283.15	0.1	3.931e-05	2.68e-06
288.15	0.1	5.156e-05	3.51e-06
293.15	0.1	6.369e-05	4.33e-06
298.15	0.1	7.902e-05	5.38e-06
303.15	0.1	9.573e-05	6.51e-06
308.15	0.1	0.0001187	8.1e-06
313.15	0.1	0.0001472	1e-05
318.15	0.1	0.0001757	1.2e-05
323.15	0.1	0.0002023	1.38e-05
328.15	0.1	0.0002469	1.68e-05
283.15	0.2	6.533e-05	4.45e-06
288.15	0.2	7.877e-05	5.36e-06
293.15	0.2	9.81e-05	6.68e-06
298.15	0.2	0.0001203	8.2e-06
303.15	0.2	0.0001427	9.7e-06
308.15	0.2	0.0001781	1.21e-05
313.15	0.2	0.0002151	1.46e-05
318.15	0.2	0.0002553	1.74e-05
323.15	0.2	0.0003029	2.06e-05
328.15	0.2	0.0003646	2.48e-05
283.15	0.3	0.000106	7.2e-06
288.15	0.3	0.0001293	8.8e-06
293.15	0.3	0.0001582	1.08e-05
298.15	0.3	0.0001926	1.31e-05
303.15	0.3	0.0002345	1.6e-05
308.15	0.3	0.0002829	1.93e-05
313.15	0.3	0.0003409	2.32e-05
318.15	0.3	0.000403	2.74e-05
323.15	0.3	0.0004749	3.23e-05
328.15	0.3	0.0005571	3.79e-05
283.15	0.4	0.0001637	1.11e-05
288.15	0.4	0.0002045	1.39e-05
293.15	0.4	0.000257	1.75e-05
298.15	0.4	0.0003067	2.09e-05
303.15	0.4	0.0003702	2.52e-05
308.15	0.4	0.0004581	3.12e-05
313.15	0.4	0.000541	3.68e-05
318.15	0.4	0.0006363	4.33e-05
323.15	0.4	0.0007425	5.05e-05
328.15	0.4	0.0008837	6.02e-05
283.15	0.5	0.0003094	2.11e-05
288.15	0.5	0.0003687	2.51e-05
293.15	0.5	0.0004404	3e-05
298.15	0.5	0.0005318	3.62e-05
303.15	0.5	0.000643	4.38e-05
308.15	0.5	0.0007546	5.14e-05
313.15	0.5	0.0008953	6.09e-05
318.15	0.5	0.00104	7.1e-05
323.15	0.5	0.001239	8.4e-05
328.15	0.5	0.001476	0.0001
283.15	0.6	0.0004883	3.32e-05
288.15	0.6	0.000589	4.01e-05
293.15	0.6	0.0006976	4.75e-05
298.15	0.6	0.0008313	5.66e-05
303.15	0.6	0.000983	6.69e-05
308.15	0.6	0.001157	7.9e-05
313.15	0.6	0.001358	9.2e-05
318.15	0.6	0.001577	0.000107
323.15	0.6	0.001862	0.000127
328.15	0.6	0.002201	0.00015
283.15	0.7	0.0008199	5.58e-05
288.15	0.7	0.0009989	6.8e-05
293.15	0.7	0.001192	8.1e-05
298.15	0.7	0.001366	9.3e-05
303.15	0.7	0.0016	0.000109
308.15	0.7	0.001892	0.000129
313.15	0.7	0.002214	0.000151
318.15	0.7	0.002527	0.000172
323.15	0.7	0.002949	0.000201
328.15	0.7	0.003503	0.000238
283.15	0.8	0.001269	8.6e-05
288.15	0.8	0.001476	0.0001
293.15	0.8	0.001787	0.000122
298.15	0.8	0.002049	0.000139
303.15	0.8	0.002431	0.000165
308.15	0.8	0.002842	0.000193
313.15	0.8	0.00325	0.000221
318.15	0.8	0.003775	0.000257
323.15	0.8	0.004345	0.000296
328.15	0.8	0.005061	0.000344
283.15	0.9	0.001736	0.000118
288.15	0.9	0.00204	0.000139
293.15	0.9	0.002429	0.000165
298.15	0.9	0.002775	0.000189
303.15	0.9	0.003235	0.00022
308.15	0.9	0.00377	0.000257
313.15	0.9	0.004355	0.000296
318.15	0.9	0.005028	0.000342
323.15	0.9	0.005825	0.000396
328.15	0.9	0.006766	0.00046
283.15	1	0.002113	0.000144
288.15	1	0.002506	0.000171
293.15	1	0.002976	0.000203
298.15	1	0.003428	0.000233
303.15	1	0.003976	0.000271
308.15	1	0.00463	0.000315
313.15	1	0.005295	0.00036
318.15	1	0.006067	0.000413
323.15	1	0.006972	0.000474
328.15	1	0.008109	0.000552

System: 1,2-ethanediol + 2-methyl-3,5-dinitrobenzamide + water; phases: Liquid, Crystal
Fixed: Pressure, kPa = 101.2
Property: Mole fraction of 2-methyl-3,5-dinitrobenzamide (Liquid); method: Chromatography
Temperature, K	Solvent: Mass fraction of 1,2-ethanediol	Mole fraction of 2-methyl-3,5-dinitrobenzamide	uncertainty
283.15	0	2.839e-05	1.93e-06
288.15	0	3.539e-05	2.41e-06
293.15	0	4.45e-05	3.03e-06
298.15	0	5.536e-05	3.77e-06
303.15	0	6.756e-05	4.6e-06
308.15	0	8.388e-05	5.71e-06
313.15	0	0.0001027	7e-06
318.15	0	0.0001233	8.4e-06
323.15	0	0.0001481	1.01e-05
328.15	0	0.0001797	1.22e-05
283.15	0.1	3.844e-05	2.62e-06
288.15	0.1	4.774e-05	3.25e-06
293.15	0.1	5.896e-05	4.01e-06
298.15	0.1	7.352e-05	5e-06
303.15	0.1	9.023e-05	6.14e-06
308.15	0.1	0.0001116	7.6e-06
313.15	0.1	0.0001347	9.2e-06
318.15	0.1	0.0001615	1.1e-05
323.15	0.1	0.0001966	1.34e-05
328.15	0.1	0.0002336	1.59e-05
283.15	0.2	5.048e-05	3.44e-06
288.15	0.2	6.254e-05	4.26e-06
293.15	0.2	7.674e-05	5.22e-06
298.15	0.2	9.464e-05	6.44e-06
303.15	0.2	0.0001155	7.9e-06
308.15	0.2	0.000138	9.4e-06
313.15	0.2	0.0001705	1.16e-05
318.15	0.2	0.0002064	1.4e-05
323.15	0.2	0.0002473	1.68e-05
328.15	0.2	0.0002977	2.03e-05
283.15	0.3	6.469e-05	4.4e-06
288.15	0.3	7.949e-05	5.41e-06
293.15	0.3	9.882e-05	6.73e-06
298.15	0.3	0.0001239	8.4e-06
303.15	0.3	0.0001489	1.01e-05
308.15	0.3	0.0001791	1.22e-05
313.15	0.3	0.0002153	1.47e-05
318.15	0.3	0.0002599	1.77e-05
323.15	0.3	0.0003096	2.11e-05
328.15	0.3	0.0003756	2.56e-05
283.15	0.4	8.863e-05	6.03e-06
288.15	0.4	0.0001099	7.5e-06
293.15	0.4	0.0001348	9.2e-06
298.15	0.4	0.0001631	1.11e-05
303.15	0.4	0.0001955	1.33e-05
308.15	0.4	0.0002342	1.59e-05
313.15	0.4	0.0002834	1.93e-05
318.15	0.4	0.0003373	2.3e-05
323.15	0.4	0.0003993	2.72e-05
328.15	0.4	0.0004775	3.25e-05
283.15	0.5	0.0001281	8.7e-06
288.15	0.5	0.000155	1.05e-05
293.15	0.5	0.0001884	1.28e-05
298.15	0.5	0.0002281	1.55e-05
303.15	0.5	0.000275	1.87e-05
308.15	0.5	0.0003353	2.28e-05
313.15	0.5	0.0003943	2.68e-05
318.15	0.5	0.0004721	3.21e-05
323.15	0.5	0.0005614	3.82e-05
328.15	0.5	0.0006716	4.57e-05
283.15	0.6	0.0001874	1.28e-05
288.15	0.6	0.0002318	1.58e-05
293.15	0.6	0.000278	1.89e-05
298.15	0.6	0.0003404	2.32e-05
303.15	0.6	0.0004111	2.8e-05
308.15	0.6	0.0004893	3.33e-05
313.15	0.6	0.0005779	3.93e-05
318.15	0.6	0.0006901	4.7e-05
323.15	0.6	0.0008125	5.53e-05
328.15	0.6	0.0009911	6.75e-05
283.15	0.7	0.0003174	2.16e-05
288.15	0.7	0.0003853	2.62e-05
293.15	0.7	0.0004745	3.23e-05
298.15	0.7	0.0005653	3.85e-05
303.15	0.7	0.0006731	4.58e-05
308.15	0.7	0.0007864	5.35e-05
313.15	0.7	0.0009268	6.31e-05
318.15	0.7	0.001084	7.4e-05
323.15	0.7	0.001287	8.8e-05
328.15	0.7	0.001546	0.000105
283.15	0.8	0.0005814	3.96e-05
288.15	0.8	0.0006785	4.62e-05
293.15	0.8	0.0008268	5.63e-05
298.15	0.8	0.000997	6.79e-05
303.15	0.8	0.001186	8.1e-05
308.15	0.8	0.001382	9.4e-05
313.15	0.8	0.001611	0.00011
318.15	0.8	0.001878	0.000128
323.15	0.8	0.002155	0.000147
328.15	0.8	0.002543	0.000173
283.15	0.9	0.001233	8.4e-05
288.15	0.9	0.00143	9.7e-05
293.15	0.9	0.001671	0.000114
298.15	0.9	0.001977	0.000135
303.15	0.9	0.002338	0.000159
308.15	0.9	0.002648	0.00018
313.15	0.9	0.003055	0.000208
318.15	0.9	0.003461	0.000236
323.15	0.9	0.004107	0.00028
328.15	0.9	0.004839	0.00033
283.15	1	0.002566	0.000175
288.15	1	0.002986	0.000203
293.15	1	0.00353	0.00024
298.15	1	0.00408	0.000278
303.15	1	0.004756	0.000324
308.15	1	0.005364	0.000365
313.15	1	0.006116	0.000416
318.15	1	0.007054	0.00048
323.15	1	0.008096	0.000551
328.15	1	0.009507	0.000647

System: propan-2-ol + 2-methyl-3,5-dinitrobenzamide + water; phases: Liquid, Crystal
Fixed: Pressure, kPa = 101.2
Property: Mole fraction of 2-methyl-3,5-dinitrobenzamide (Liquid); method: Chromatography
Temperature, K	Solvent: Mass fraction of propan-2-ol	Mole fraction of 2-methyl-3,5-dinitrobenzamide	uncertainty
283.15	0	2.839e-05	1.93e-06
288.15	0	3.539e-05	2.41e-06
293.15	0	4.45e-05	3.03e-06
298.15	0	5.536e-05	3.77e-06
303.15	0	6.756e-05	4.6e-06
308.15	0	8.388e-05	5.71e-06
313.15	0	0.0001027	7e-06
318.15	0	0.0001233	8.4e-06
323.15	0	0.0001481	1.01e-05
328.15	0	0.0001797	1.22e-05
283.15	0.1	3.527e-05	2.4e-06
288.15	0.1	4.516e-05	3.07e-06
293.15	0.1	5.684e-05	3.87e-06
298.15	0.1	7.038e-05	4.79e-06
303.15	0.1	8.447e-05	5.75e-06
308.15	0.1	0.0001049	7.1e-06
313.15	0.1	0.0001287	8.8e-06
318.15	0.1	0.0001582	1.08e-05
323.15	0.1	0.0001865	1.27e-05
328.15	0.1	0.0002204	1.5e-05
283.15	0.2	5.504e-05	3.75e-06
288.15	0.2	6.771e-05	4.61e-06
293.15	0.2	8.627e-05	5.87e-06
298.15	0.2	0.000106	7.2e-06
303.15	0.2	0.0001276	8.7e-06
308.15	0.2	0.0001596	1.09e-05
313.15	0.2	0.0001943	1.32e-05
318.15	0.2	0.0002274	1.55e-05
323.15	0.2	0.0002761	1.88e-05
328.15	0.2	0.0003273	2.23e-05
283.15	0.3	9.202e-05	6.26e-06
288.15	0.3	0.0001117	7.6e-06
293.15	0.3	0.0001373	9.3e-06
298.15	0.3	0.0001691	1.15e-05
303.15	0.3	0.0002116	1.44e-05
308.15	0.3	0.0002615	1.78e-05
313.15	0.3	0.0003099	2.11e-05
318.15	0.3	0.0003662	2.49e-05
323.15	0.3	0.0004268	2.9e-05
328.15	0.3	0.0005091	3.47e-05
283.15	0.4	0.0001475	1e-05
288.15	0.4	0.0001827	1.24e-05
293.15	0.4	0.0002218	1.51e-05
298.15	0.4	0.0002706	1.84e-05
303.15	0.4	0.0003279	2.23e-05
308.15	0.4	0.0003987	2.71e-05
313.15	0.4	0.0004767	3.24e-05
318.15	0.4	0.0005757	3.92e-05
323.15	0.4	0.0006906	4.7e-05
328.15	0.4	0.0008223	5.6e-05
283.15	0.5	0.0002354	1.6e-05
288.15	0.5	0.0002904	1.98e-05
293.15	0.5	0.0003614	2.46e-05
298.15	0.5	0.0004392	2.99e-05
303.15	0.5	0.0005387	3.67e-05
308.15	0.5	0.0006513	4.43e-05
313.15	0.5	0.0007809	5.31e-05
318.15	0.5	0.0009026	6.14e-05
323.15	0.5	0.001084	7.4e-05
328.15	0.5	0.0013	8.8e-05
283.15	0.6	0.0003443	2.34e-05
288.15	0.6	0.0004258	2.9e-05
293.15	0.6	0.0005186	3.53e-05
298.15	0.6	0.0006284	4.28e-05
303.15	0.6	0.0007666	5.22e-05
308.15	0.6	0.0009321	6.34e-05
313.15	0.6	0.001109	7.5e-05
318.15	0.6	0.001323	9e-05
323.15	0.6	0.001548	0.000105
328.15	0.6	0.001873	0.000127
283.15	0.7	0.0004875	3.32e-05
288.15	0.7	0.0005987	4.07e-05
293.15	0.7	0.0007605	5.18e-05
298.15	0.7	0.0009143	6.22e-05
303.15	0.7	0.001093	7.4e-05
308.15	0.7	0.001325	9e-05
313.15	0.7	0.001571	0.000107
318.15	0.7	0.001865	0.000127
323.15	0.7	0.002171	0.000148
328.15	0.7	0.002586	0.000176
283.15	0.8	0.0006158	4.19e-05
288.15	0.8	0.0007666	5.22e-05
293.15	0.8	0.0009274	6.31e-05
298.15	0.8	0.001122	7.6e-05
303.15	0.8	0.001373	9.3e-05
308.15	0.8	0.001661	0.000113
313.15	0.8	0.001976	0.000134
318.15	0.8	0.002323	0.000158
323.15	0.8	0.002717	0.000185
328.15	0.8	0.003207	0.000218
283.15	0.9	0.0008618	5.87e-05
288.15	0.9	0.00106	7.2e-05
293.15	0.9	0.001256	8.5e-05
298.15	0.9	0.001548	0.000105
303.15	0.9	0.00187	0.000127
308.15	0.9	0.002219	0.000151
313.15	0.9	0.002657	0.000181
318.15	0.9	0.003095	0.000211
323.15	0.9	0.003631	0.000247
328.15	0.9	0.00415	0.000282
283.15	1	0.001187	8.1e-05
288.15	1	0.001438	9.8e-05
293.15	1	0.001744	0.000119
298.15	1	0.002087	0.000142
303.15	1	0.002481	0.000169
308.15	1	0.002989	0.000203
313.15	1	0.003519	0.000239
318.15	1	0.004099	0.000279
323.15	1	0.004811	0.000327
328.15	1	0.005485	0.000373
