Measured thermophysical data. The study of physico-chemical properties of binary systems consisting of N-Methylcyclohexylamine with 2-alkanols at T = (298.15-328.15) K
Source: J. Chem. Thermodyn., 2017, 10.1016/j.jct.2017.02.023
Compound 1: propan-2-ol, C3H8O, InChI=1S/C3H8O/c1-3(2)4/h3-4H,1-2H3, purity 99.8%
Compound 2: butan-2-ol, C4H10O, InChI=1S/C4H10O/c1-3-4(2)5/h4-5H,3H2,1-2H3, purity 99%
Compound 3: pentan-2-ol, C5H12O, InChI=1S/C5H12O/c1-3-4-5(2)6/h5-6H,3-4H2,1-2H3, purity 99%
Compound 4: 2-hexanol, C6H14O, InChI=1S/C6H14O/c1-3-4-5-6(2)7/h6-7H,3-5H2,1-2H3, purity 99%
Compound 5: 2-heptanol, C7H16O, InChI=1S/C7H16O/c1-3-4-5-6-7(2)8/h7-8H,3-6H2,1-2H3, purity 99%
Compound 6: 2-octanol, C8H18O, InChI=1S/C8H18O/c1-3-4-5-6-7-8(2)9/h8-9H,3-7H2,1-2H3, purity 99%
Compound 7: N-methylcyclohexylamine, C7H15N, InChI=1S/C7H15N/c1-8-7-5-3-2-4-6-7/h7-8H,2-6H2,1H3, purity 99%

System: propan-2-ol; phases: Liquid
Fixed: Pressure, kPa = 81.5
Property: Mass density, kg/m3 (Liquid); method: Vibrating tube method
Temperature, K	Mass density, kg/m3	uncertainty
298.15	781.05	1.6
308.15	772.41	1.6
318.15	763.41	1.61
328.15	753.12	1.61

System: propan-2-ol; phases: Liquid
Fixed: Pressure, kPa = 81.5
Property: Refractive index (Na D-line) (Liquid); method: Standard Abbe refractometry
Temperature, K	Refractive index (Na D-line)	uncertainty
298.15	1.37511	0.00163
308.15	1.37097	0.00163
318.15	1.36665	0.00163
328.15	1.36181	0.00163

System: butan-2-ol; phases: Liquid
Fixed: Pressure, kPa = 81.5
Property: Mass density, kg/m3 (Liquid); method: Vibrating tube method
Temperature, K	Mass density, kg/m3	uncertainty
298.15	802.71	1.62
308.15	794.2	1.62
318.15	785.32	1.62
328.15	775.52	1.62

System: butan-2-ol; phases: Liquid
Fixed: Pressure, kPa = 81.5
Property: Refractive index (Na D-line) (Liquid); method: Standard Abbe refractometry
Temperature, K	Refractive index (Na D-line)	uncertainty
298.15	1.39544	0.00164
308.15	1.39105	0.00164
318.15	1.38646	0.00164
328.15	1.38175	0.00164

System: pentan-2-ol; phases: Liquid
Fixed: Pressure, kPa = 81.5
Property: Mass density, kg/m3 (Liquid); method: Vibrating tube method
Temperature, K	Mass density, kg/m3	uncertainty
298.15	805.37	1.62
308.15	796.95	1.62
318.15	788.38	1.62
328.15	779.17	1.62

System: pentan-2-ol; phases: Liquid
Fixed: Pressure, kPa = 81.5
Property: Refractive index (Na D-line) (Liquid); method: Standard Abbe refractometry
Temperature, K	Refractive index (Na D-line)	uncertainty
298.15	1.4045	0.00164
308.15	1.40029	0.00164
318.15	1.39586	0.00164
328.15	1.39126	0.00164

System: 2-hexanol; phases: Liquid
Fixed: Pressure, kPa = 81.5
Property: Mass density, kg/m3 (Liquid); method: Vibrating tube method
Temperature, K	Mass density, kg/m3	uncertainty
298.15	810.17	1.62
308.15	801.94	1.62
318.15	793.57	1.62
328.15	784.6	1.62

System: 2-hexanol; phases: Liquid
Fixed: Pressure, kPa = 81.5
Property: Refractive index (Na D-line) (Liquid); method: Standard Abbe refractometry
Temperature, K	Refractive index (Na D-line)	uncertainty
298.15	1.41296	0.00164
308.15	1.40853	0.00164
318.15	1.40413	0.00164
328.15	1.3996	0.00164

System: 2-heptanol; phases: Liquid
Fixed: Pressure, kPa = 81.5
Property: Mass density, kg/m3 (Liquid); method: Vibrating tube method
Temperature, K	Mass density, kg/m3	uncertainty
298.15	813.36	1.61
308.15	805.72	1.62
318.15	797.65	1.62
328.15	789.38	1.62

System: 2-heptanol; phases: Liquid
Fixed: Pressure, kPa = 81.5
Property: Refractive index (Na D-line) (Liquid); method: Standard Abbe refractometry
Temperature, K	Refractive index (Na D-line)	uncertainty
298.15	1.41924	0.00164
308.15	1.41505	0.00164
318.15	1.41076	0.00164
328.15	1.40647	0.00164

System: 2-octanol; phases: Liquid
Fixed: Pressure, kPa = 81.5
Property: Mass density, kg/m3 (Liquid); method: Vibrating tube method
Temperature, K	Mass density, kg/m3	uncertainty
298.15	817.05	1.61
308.15	809.43	1.61
318.15	801.32	1.62
328.15	793.06	1.62

System: 2-octanol; phases: Liquid
Fixed: Pressure, kPa = 81.5
Property: Refractive index (Na D-line) (Liquid); method: Standard Abbe refractometry
Temperature, K	Refractive index (Na D-line)	uncertainty
298.15	1.42483	0.00164
308.15	1.42073	0.00164
318.15	1.41648	0.00164
328.15	1.41224	0.00164

System: N-methylcyclohexylamine; phases: Liquid
Fixed: Pressure, kPa = 81.5
Property: Mass density, kg/m3 (Liquid); method: Vibrating tube method
Temperature, K	Mass density, kg/m3	uncertainty
298.15	865.2	1.61
308.15	856.57	1.61
318.15	847.67	1.61
328.15	838.68	1.61

System: N-methylcyclohexylamine; phases: Liquid
Fixed: Pressure, kPa = 81.5
Property: Refractive index (Na D-line) (Liquid); method: Standard Abbe refractometry
Temperature, K	Refractive index (Na D-line)	uncertainty
298.15	1.45306	0.00164
308.15	1.44812	0.00164
318.15	1.4431	0.00164
328.15	1.43809	0.00164

System: propan-2-ol + N-methylcyclohexylamine; phases: Liquid
Fixed: Pressure, kPa = 81.5
Property: Mass density, kg/m3 (Liquid); method: Vibrating tube method
Temperature, K	Mole fraction of propan-2-ol	Mass density, kg/m3	uncertainty
298.15	0	865.2	1.61
298.15	0.159	860.12	1.61
298.15	0.2745	855.75	1.61
298.15	0.3856	850.26	1.61
298.15	0.4867	843.79	1.61
298.15	0.5738	836.95	1.61
298.15	0.6539	829.55	1.61
298.15	0.7253	822.01	1.61
298.15	0.7904	814.28	1.61
298.15	0.85	806.34	1.61
298.15	0.904	798.29	1.61
298.15	0.9541	789.83	1.61
298.15	1	781.05	1.6
308.15	0	856.57	1.61
308.15	0.159	851.49	1.61
308.15	0.2745	847.1	1.61
308.15	0.3856	841.55	1.61
308.15	0.4867	835.1	1.61
308.15	0.5738	828.24	1.61
308.15	0.6539	820.8	1.61
308.15	0.7253	813.27	1.61
308.15	0.7904	805.54	1.61
308.15	0.85	797.64	1.61
308.15	0.904	789.69	1.61
308.15	0.9541	781.27	1.61
308.15	1	772.41	1.6
318.15	0	847.67	1.61
318.15	0.159	842.65	1.61
318.15	0.2745	838.18	1.61
318.15	0.3856	832.63	1.61
318.15	0.4867	826.14	1.61
318.15	0.5738	819.27	1.61
318.15	0.6539	811.84	1.61
318.15	0.7253	804.23	1.61
318.15	0.7904	796.65	1.61
318.15	0.85	788.79	1.61
318.15	0.904	780.82	1.61
318.15	0.9541	772.4	1.61
318.15	1	763.41	1.61
328.15	0	838.68	1.61
328.15	0.159	833.57	1.61
328.15	0.2745	828.82	1.61
328.15	0.3856	823.19	1.61
328.15	0.4867	816.62	1.61
328.15	0.5738	809.59	1.61
328.15	0.6539	802	1.61
328.15	0.7253	794.36	1.61
328.15	0.7904	786.58	1.61
328.15	0.85	778.81	1.61
328.15	0.904	770.72	1.61
328.15	0.9541	762.26	1.61
328.15	1	753.12	1.61

System: propan-2-ol + N-methylcyclohexylamine; phases: Liquid
Fixed: Pressure, kPa = 81.5
Property: Refractive index (Na D-line) (Liquid); method: Standard Abbe refractometry
Temperature, K	Mole fraction of propan-2-ol	Refractive index (Na D-line)	uncertainty
298.15	0	1.45306	0.00164
298.15	0.159	1.4471	0.00163
298.15	0.2745	1.44224	0.00163
298.15	0.3856	1.43655	0.00163
298.15	0.4867	1.43021	0.00163
298.15	0.5738	1.42372	0.00163
298.15	0.6539	1.41688	0.00163
298.15	0.7253	1.41003	0.00163
298.15	0.7904	1.40314	0.00163
298.15	0.85	1.39619	0.00163
298.15	0.904	1.38928	0.00163
298.15	0.9541	1.38224	0.00163
298.15	1	1.37511	0.00163
308.15	0	1.44812	0.00164
308.15	0.159	1.44293	0.00163
308.15	0.2745	1.43814	0.00163
308.15	0.3856	1.43263	0.00163
308.15	0.4867	1.42642	0.00163
308.15	0.5738	1.41996	0.00163
308.15	0.6539	1.41311	0.00163
308.15	0.7253	1.40629	0.00163
308.15	0.7904	1.39948	0.00163
308.15	0.85	1.39265	0.00163
308.15	0.904	1.38579	0.00163
308.15	0.9541	1.37859	0.00163
308.15	1	1.37097	0.00163
318.15	0	1.4431	0.00164
318.15	0.159	1.43862	0.00163
318.15	0.2745	1.43386	0.00163
318.15	0.3856	1.42854	0.00163
318.15	0.4867	1.42248	0.00163
318.15	0.5738	1.41606	0.00163
318.15	0.6539	1.4092	0.00163
318.15	0.7253	1.40239	0.00163
318.15	0.7904	1.39565	0.00163
318.15	0.85	1.38892	0.00163
318.15	0.904	1.38209	0.00163
318.15	0.9541	1.37474	0.00163
318.15	1	1.36665	0.00163
328.15	0	1.43809	0.00164
328.15	0.159	1.43418	0.00163
328.15	0.2745	1.42939	0.00163
328.15	0.3856	1.4242	0.00163
328.15	0.4867	1.41824	0.00163
328.15	0.5738	1.41185	0.00163
328.15	0.6539	1.40495	0.00163
328.15	0.7253	1.39812	0.00163
328.15	0.7904	1.39141	0.00163
328.15	0.85	1.38471	0.00163
328.15	0.904	1.37787	0.00163
328.15	0.9541	1.37035	0.00163
328.15	1	1.36181	0.00163

System: butan-2-ol + N-methylcyclohexylamine; phases: Liquid
Fixed: Pressure, kPa = 81.5
Property: Mass density, kg/m3 (Liquid); method: Vibrating tube method
Temperature, K	Mole fraction of butan-2-ol	Mass density, kg/m3	uncertainty
298.15	0	865.2	1.61
298.15	0.1217	861.95	1.61
298.15	0.2333	858.47	1.61
298.15	0.3367	854.47	1.61
298.15	0.4323	850	1.61
298.15	0.5211	845.14	1.61
298.15	0.603	840.01	1.62
298.15	0.6803	834.52	1.62
298.15	0.7528	828.72	1.62
298.15	0.8202	822.7	1.62
298.15	0.8827	816.47	1.62
298.15	0.9426	809.83	1.62
298.15	1	802.71	1.62
308.15	0	856.57	1.61
308.15	0.1217	853.4	1.61
308.15	0.2333	849.82	1.61
308.15	0.3367	845.86	1.61
308.15	0.4323	841.4	1.62
308.15	0.5211	836.51	1.62
308.15	0.603	831.35	1.62
308.15	0.6803	825.88	1.62
308.15	0.7528	820.14	1.62
308.15	0.8202	814.18	1.62
308.15	0.8827	807.88	1.62
308.15	0.9426	801.25	1.62
308.15	1	794.2	1.62
318.15	0	847.67	1.61
318.15	0.1217	844.58	1.61
318.15	0.2333	840.98	1.62
318.15	0.3367	836.97	1.62
318.15	0.4323	832.5	1.62
318.15	0.5211	827.6	1.62
318.15	0.603	822.48	1.62
318.15	0.6803	817.02	1.62
318.15	0.7528	811.27	1.62
318.15	0.8202	805.33	1.62
318.15	0.8827	799.18	1.62
318.15	0.9426	792.58	1.62
318.15	1	785.32	1.62
328.15	0	838.68	1.61
328.15	0.1217	835.58	1.62
328.15	0.2333	831.86	1.62
328.15	0.3367	827.75	1.62
328.15	0.4323	823.2	1.62
328.15	0.5211	818.27	1.62
328.15	0.603	813.01	1.62
328.15	0.6803	807.46	1.62
328.15	0.7528	801.72	1.62
328.15	0.8202	795.72	1.62
328.15	0.8827	789.6	1.62
328.15	0.9426	782.94	1.62
328.15	1	775.52	1.62

System: butan-2-ol + N-methylcyclohexylamine; phases: Liquid
Fixed: Pressure, kPa = 81.5
Property: Refractive index (Na D-line) (Liquid); method: Standard Abbe refractometry
Temperature, K	Mole fraction of butan-2-ol	Refractive index (Na D-line)	uncertainty
298.15	0	1.45306	0.00164
298.15	0.1217	1.44931	0.00164
298.15	0.2333	1.44578	0.00164
298.15	0.3367	1.44206	0.00164
298.15	0.4323	1.43795	0.00164
298.15	0.5211	1.43338	0.00164
298.15	0.603	1.42849	0.00164
298.15	0.6803	1.42326	0.00164
298.15	0.7528	1.41783	0.00164
298.15	0.8202	1.41236	0.00164
298.15	0.8827	1.40689	0.00164
298.15	0.9426	1.40126	0.00164
298.15	1	1.39544	0.00164
308.15	0	1.44812	0.00164
308.15	0.1217	1.44493	0.00164
308.15	0.2333	1.44144	0.00164
308.15	0.3367	1.43776	0.00164
308.15	0.4323	1.43374	0.00164
308.15	0.5211	1.42927	0.00164
308.15	0.603	1.42444	0.00164
308.15	0.6803	1.41926	0.00164
308.15	0.7528	1.41387	0.00164
308.15	0.8202	1.40841	0.00164
308.15	0.8827	1.40292	0.00164
308.15	0.9426	1.39719	0.00164
308.15	1	1.39105	0.00164
318.15	0	1.4431	0.00164
318.15	0.1217	1.44047	0.00164
318.15	0.2333	1.43701	0.00164
318.15	0.3367	1.4334	0.00164
318.15	0.4323	1.42946	0.00164
318.15	0.5211	1.42503	0.00164
318.15	0.603	1.42021	0.00164
318.15	0.6803	1.41502	0.00164
318.15	0.7528	1.40967	0.00164
318.15	0.8202	1.40429	0.00164
318.15	0.8827	1.39886	0.00164
318.15	0.9426	1.39303	0.00164
318.15	1	1.38646	0.00164
328.15	0	1.43809	0.00164
328.15	0.1217	1.43597	0.00164
328.15	0.2333	1.43258	0.00164
328.15	0.3367	1.42907	0.00164
328.15	0.4323	1.4252	0.00164
328.15	0.5211	1.42076	0.00164
328.15	0.603	1.41587	0.00164
328.15	0.6803	1.41065	0.00164
328.15	0.7528	1.40535	0.00164
328.15	0.8202	1.4001	0.00164
328.15	0.8827	1.39478	0.00164
328.15	0.9426	1.38886	0.00164
328.15	1	1.38175	0.00164

System: N-methylcyclohexylamine + pentan-2-ol; phases: Liquid
Fixed: Pressure, kPa = 81.5
Property: Mass density, kg/m3 (Liquid); method: Vibrating tube method
Temperature, K	Mole fraction of pentan-2-ol	Mass density, kg/m3	uncertainty
298.15	0	865.2	1.61
298.15	0.1044	861.35	1.61
298.15	0.2039	857.57	1.61
298.15	0.3	853.62	1.61
298.15	0.391	849.43	1.61
298.15	0.4776	844.86	1.61
298.15	0.5621	839.71	1.62
298.15	0.6395	834.44	1.62
298.15	0.7115	829.18	1.62
298.15	0.7926	822.85	1.62
298.15	0.8644	817.04	1.62
298.15	0.9338	811.24	1.62
298.15	1	805.37	1.62
308.15	0	856.57	1.61
308.15	0.1044	852.83	1.61
308.15	0.2039	849.03	1.61
308.15	0.3	845.09	1.61
308.15	0.391	840.92	1.62
308.15	0.4776	836.35	1.62
308.15	0.5621	831.21	1.62
308.15	0.6395	825.96	1.62
308.15	0.7115	820.72	1.62
308.15	0.7926	814.43	1.62
308.15	0.8644	808.68	1.62
308.15	0.9338	802.9	1.62
308.15	1	796.95	1.62
318.15	0	847.67	1.61
318.15	0.1044	844.04	1.61
318.15	0.2039	840.23	1.62
318.15	0.3	836.29	1.62
318.15	0.391	832.15	1.62
318.15	0.4776	827.59	1.62
318.15	0.5621	822.49	1.62
318.15	0.6395	817.29	1.62
318.15	0.7115	812.03	1.62
318.15	0.7926	805.84	1.62
318.15	0.8644	800.16	1.62
318.15	0.9338	794.42	1.62
318.15	1	788.38	1.62
328.15	0	838.68	1.61
328.15	0.1044	835.12	1.62
328.15	0.2039	831.28	1.62
328.15	0.3	827.28	1.62
328.15	0.391	823.1	1.62
328.15	0.4776	818.52	1.62
328.15	0.5621	813.38	1.62
328.15	0.6395	808.15	1.62
328.15	0.7115	802.91	1.62
328.15	0.7926	796.73	1.62
328.15	0.8644	791.09	1.62
328.15	0.9338	785.33	1.62
328.15	1	779.17	1.62

System: N-methylcyclohexylamine + pentan-2-ol; phases: Liquid
Fixed: Pressure, kPa = 81.5
Property: Refractive index (Na D-line) (Liquid); method: Standard Abbe refractometry
Temperature, K	Mole fraction of pentan-2-ol	Refractive index (Na D-line)	uncertainty
298.15	0	1.45306	0.00164
298.15	0.1044	1.45003	0.00164
298.15	0.2039	1.44678	0.00164
298.15	0.3	1.44339	0.00164
298.15	0.391	1.43985	0.00164
298.15	0.4776	1.43608	0.00164
298.15	0.5621	1.43195	0.00164
298.15	0.6395	1.42779	0.00164
298.15	0.7115	1.42361	0.00164
298.15	0.7926	1.41862	0.00164
298.15	0.8644	1.41398	0.00164
298.15	0.9338	1.40928	0.00164
298.15	1	1.4045	0.00164
308.15	0	1.44812	0.00164
308.15	0.1044	1.44535	0.00164
308.15	0.2039	1.44217	0.00164
308.15	0.3	1.43884	0.00164
308.15	0.391	1.43539	0.00164
308.15	0.4776	1.43168	0.00164
308.15	0.5621	1.42759	0.00164
308.15	0.6395	1.42345	0.00164
308.15	0.7115	1.41932	0.00164
308.15	0.7926	1.41442	0.00164
308.15	0.8644	1.40989	0.00164
308.15	0.9338	1.40524	0.00164
308.15	1	1.40029	0.00164
318.15	0	1.4431	0.00164
318.15	0.1044	1.44061	0.00164
318.15	0.2039	1.43745	0.00164
318.15	0.3	1.43417	0.00164
318.15	0.391	1.43078	0.00164
318.15	0.4776	1.42715	0.00164
318.15	0.5621	1.42311	0.00164
318.15	0.6395	1.419	0.00164
318.15	0.7115	1.4149	0.00164
318.15	0.7926	1.41007	0.00164
318.15	0.8644	1.40561	0.00164
318.15	0.9338	1.40097	0.00164
318.15	1	1.39586	0.00164
328.15	0	1.43809	0.00164
328.15	0.1044	1.4359	0.00164
328.15	0.2039	1.43273	0.00164
328.15	0.3	1.42945	0.00164
328.15	0.391	1.42612	0.00164
328.15	0.4776	1.42254	0.00164
328.15	0.5621	1.41857	0.00164
328.15	0.6395	1.41449	0.00164
328.15	0.7115	1.41042	0.00164
328.15	0.7926	1.40562	0.00164
328.15	0.8644	1.40119	0.00164
328.15	0.9338	1.39653	0.00164
328.15	1	1.39126	0.00164

System: N-methylcyclohexylamine + 2-hexanol; phases: Liquid
Fixed: Pressure, kPa = 81.5
Property: Mass density, kg/m3 (Liquid); method: Vibrating tube method
Temperature, K	Mole fraction of 2-hexanol	Mass density, kg/m3	uncertainty
298.15	0	865.2	1.61
298.15	0.0915	861.23	1.61
298.15	0.1814	857.43	1.61
298.15	0.2693	853.71	1.61
298.15	0.3559	849.84	1.61
298.15	0.44	845.7	1.61
298.15	0.5256	841.05	1.61
298.15	0.608	836.06	1.62
298.15	0.6858	831.06	1.62
298.15	0.7668	825.76	1.62
298.15	0.8463	820.48	1.62
298.15	0.9235	815.36	1.62
298.15	1	810.17	1.62
308.15	0	856.57	1.61
308.15	0.0915	852.73	1.61
308.15	0.1814	848.96	1.61
308.15	0.2693	845.27	1.61
308.15	0.3559	841.4	1.61
308.15	0.44	837.27	1.62
308.15	0.5256	832.6	1.62
308.15	0.608	827.68	1.62
308.15	0.6858	822.74	1.62
308.15	0.7668	817.47	1.62
308.15	0.8463	812.27	1.62
308.15	0.9235	807.2	1.62
308.15	1	801.94	1.62
318.15	0	847.67	1.61
318.15	0.0915	843.97	1.61
318.15	0.1814	840.23	1.62
318.15	0.2693	836.53	1.62
318.15	0.3559	832.77	1.62
318.15	0.44	828.7	1.62
318.15	0.5256	824.08	1.62
318.15	0.608	819.22	1.62
318.15	0.6858	814.31	1.62
318.15	0.7668	809.16	1.62
318.15	0.8463	804.01	1.62
318.15	0.9235	798.91	1.62
318.15	1	793.57	1.62
328.15	0	838.68	1.61
328.15	0.0915	835.05	1.62
328.15	0.1814	831.33	1.62
328.15	0.2693	827.62	1.62
328.15	0.3559	823.77	1.62
328.15	0.44	819.71	1.62
328.15	0.5256	815.12	1.62
328.15	0.608	810.28	1.62
328.15	0.6858	805.47	1.62
328.15	0.7668	800.26	1.62
328.15	0.8463	795.06	1.62
328.15	0.9235	789.93	1.62
328.15	1	784.6	1.62

System: N-methylcyclohexylamine + 2-hexanol; phases: Liquid
Fixed: Pressure, kPa = 81.5
Property: Refractive index (Na D-line) (Liquid); method: Standard Abbe refractometry
Temperature, K	Mole fraction of 2-hexanol	Refractive index (Na D-line)	uncertainty
298.15	0	1.45306	0.00164
298.15	0.0915	1.45049	0.00164
298.15	0.1814	1.4477	0.00164
298.15	0.2693	1.445	0.00164
298.15	0.3559	1.44229	0.00164
298.15	0.44	1.43938	0.00164
298.15	0.5256	1.43598	0.00164
298.15	0.608	1.43233	0.00164
298.15	0.6858	1.42866	0.00164
298.15	0.7668	1.42478	0.00164
298.15	0.8463	1.42103	0.00164
298.15	0.9235	1.41731	0.00164
298.15	1	1.41296	0.00164
308.15	0	1.44812	0.00164
308.15	0.0915	1.44581	0.00164
308.15	0.1814	1.44305	0.00164
308.15	0.2693	1.44038	0.00164
308.15	0.3559	1.4377	0.00164
308.15	0.44	1.43484	0.00164
308.15	0.5256	1.43151	0.00164
308.15	0.608	1.42789	0.00164
308.15	0.6858	1.42425	0.00164
308.15	0.7668	1.42041	0.00164
308.15	0.8463	1.4167	0.00164
308.15	0.9235	1.41299	0.00164
308.15	1	1.40853	0.00164
318.15	0	1.4431	0.00164
318.15	0.0915	1.44104	0.00164
318.15	0.1814	1.43835	0.00164
318.15	0.2693	1.43572	0.00164
318.15	0.3559	1.43309	0.00164
318.15	0.44	1.43029	0.00164
318.15	0.5256	1.42702	0.00164
318.15	0.608	1.42346	0.00164
318.15	0.6858	1.41985	0.00164
318.15	0.7668	1.41606	0.00164
318.15	0.8463	1.4124	0.00164
318.15	0.9235	1.4087	0.00164
318.15	1	1.40413	0.00164
328.15	0	1.43809	0.00164
328.15	0.0915	1.43628	0.00164
328.15	0.1814	1.43364	0.00164
328.15	0.2693	1.43103	0.00164
328.15	0.3559	1.42844	0.00164
328.15	0.44	1.42569	0.00164
328.15	0.5256	1.42247	0.00164
328.15	0.608	1.41895	0.00164
328.15	0.6858	1.41537	0.00164
328.15	0.7668	1.41162	0.00164
328.15	0.8463	1.40799	0.00164
328.15	0.9235	1.40428	0.00164
328.15	1	1.3996	0.00164

System: N-methylcyclohexylamine + 2-heptanol; phases: Liquid
Fixed: Pressure, kPa = 81.5
Property: Mass density, kg/m3 (Liquid); method: Vibrating tube method
Temperature, K	Mole fraction of 2-heptanol	Mass density, kg/m3	uncertainty
298.15	0	865.2	1.61
298.15	0.0812	861.21	1.61
298.15	0.1624	857.38	1.61
298.15	0.2448	853.62	1.61
298.15	0.3273	849.83	1.61
298.15	0.4098	845.9	1.61
298.15	0.486	842.05	1.61
298.15	0.5764	837.18	1.61
298.15	0.6517	832.93	1.61
298.15	0.7435	827.66	1.62
298.15	0.8282	822.84	1.62
298.15	0.9132	818.13	1.62
298.15	1	813.36	1.61
308.15	0	856.57	1.61
308.15	0.0812	852.71	1.61
308.15	0.1624	848.98	1.61
308.15	0.2448	845.28	1.61
308.15	0.3273	841.57	1.61
308.15	0.4098	837.7	1.61
308.15	0.486	833.91	1.62
308.15	0.5764	829.14	1.62
308.15	0.6517	824.98	1.62
308.15	0.7435	819.81	1.62
308.15	0.8282	815.09	1.62
308.15	0.9132	810.46	1.62
308.15	1	805.72	1.62
318.15	0	847.67	1.61
318.15	0.0812	843.93	1.62
318.15	0.1624	840.27	1.62
318.15	0.2448	836.62	1.62
318.15	0.3273	832.96	1.62
318.15	0.4098	829.15	1.62
318.15	0.486	825.44	1.62
318.15	0.5764	820.75	1.62
318.15	0.6517	816.67	1.62
318.15	0.7435	811.59	1.62
318.15	0.8282	806.94	1.62
318.15	0.9132	802.36	1.62
318.15	1	797.65	1.62
328.15	0	838.68	1.61
328.15	0.0812	835.06	1.62
328.15	0.1624	831.44	1.62
328.15	0.2448	827.83	1.62
328.15	0.3273	824.22	1.62
328.15	0.4098	820.48	1.62
328.15	0.486	816.83	1.62
328.15	0.5764	812.23	1.62
328.15	0.6517	808.22	1.62
328.15	0.7435	803.21	1.62
328.15	0.8282	798.61	1.62
328.15	0.9132	794.07	1.62
328.15	1	789.38	1.62

System: N-methylcyclohexylamine + 2-heptanol; phases: Liquid
Fixed: Pressure, kPa = 81.5
Property: Refractive index (Na D-line) (Liquid); method: Standard Abbe refractometry
Temperature, K	Mole fraction of 2-heptanol	Refractive index (Na D-line)	uncertainty
298.15	0	1.45306	0.00164
298.15	0.0812	1.45091	0.00164
298.15	0.1624	1.44856	0.00164
298.15	0.2448	1.44622	0.00164
298.15	0.3273	1.44391	0.00164
298.15	0.4098	1.44151	0.00164
298.15	0.486	1.43911	0.00164
298.15	0.5764	1.43598	0.00164
298.15	0.6517	1.43316	0.00164
298.15	0.7435	1.42959	0.00164
298.15	0.8282	1.42631	0.00164
298.15	0.9132	1.423	0.00164
298.15	1	1.41924	0.00164
308.15	0	1.44812	0.00164
308.15	0.0812	1.44613	0.00164
308.15	0.1624	1.44387	0.00164
308.15	0.2448	1.44158	0.00164
308.15	0.3273	1.43933	0.00164
308.15	0.4098	1.43699	0.00164
308.15	0.486	1.43464	0.00164
308.15	0.5764	1.43158	0.00164
308.15	0.6517	1.42882	0.00164
308.15	0.7435	1.42534	0.00164
308.15	0.8282	1.42213	0.00164
308.15	0.9132	1.41886	0.00164
308.15	1	1.41505	0.00164
318.15	0	1.4431	0.00164
318.15	0.0812	1.44128	0.00164
318.15	0.1624	1.4391	0.00164
318.15	0.2448	1.43686	0.00164
318.15	0.3273	1.43466	0.00164
318.15	0.4098	1.43236	0.00164
318.15	0.486	1.43007	0.00164
318.15	0.5764	1.42708	0.00164
318.15	0.6517	1.42438	0.00164
318.15	0.7435	1.421	0.00164
318.15	0.8282	1.41786	0.00164
318.15	0.9132	1.41462	0.00164
318.15	1	1.41076	0.00164
328.15	0	1.43809	0.00164
328.15	0.0812	1.43645	0.00164
328.15	0.1624	1.43432	0.00164
328.15	0.2448	1.43214	0.00164
328.15	0.3273	1.42997	0.00164
328.15	0.4098	1.42773	0.00164
328.15	0.486	1.4255	0.00164
328.15	0.5764	1.42258	0.00164
328.15	0.6517	1.41996	0.00164
328.15	0.7435	1.41664	0.00164
328.15	0.8282	1.41356	0.00164
328.15	0.9132	1.41037	0.00164
328.15	1	1.40647	0.00164

System: N-methylcyclohexylamine + 2-octanol; phases: Liquid
Fixed: Pressure, kPa = 81.5
Property: Mass density, kg/m3 (Liquid); method: Vibrating tube method
Temperature, K	Mole fraction of 2-octanol	Mass density, kg/m3	uncertainty
298.15	0	865.2	1.61
298.15	0.0727	861.37	1.61
298.15	0.148	857.59	1.61
298.15	0.2246	853.95	1.61
298.15	0.3025	850.34	1.61
298.15	0.3826	846.62	1.61
298.15	0.4636	842.77	1.61
298.15	0.5484	838.61	1.61
298.15	0.6332	834.36	1.61
298.15	0.7205	829.99	1.61
298.15	0.8128	825.54	1.61
298.15	0.9052	821.3	1.61
298.15	1	817.05	1.61
308.15	0	856.57	1.61
308.15	0.0727	852.86	1.61
308.15	0.148	849.18	1.61
308.15	0.2246	845.6	1.61
308.15	0.3025	842.06	1.61
308.15	0.3826	838.42	1.61
308.15	0.4636	834.65	1.61
308.15	0.5484	830.58	1.62
308.15	0.6332	826.43	1.62
308.15	0.7205	822.17	1.62
308.15	0.8128	817.82	1.62
308.15	0.9052	813.66	1.62
308.15	1	809.43	1.61
318.15	0	847.67	1.61
318.15	0.0727	844.07	1.62
318.15	0.148	840.45	1.62
318.15	0.2246	836.92	1.62
318.15	0.3025	833.44	1.62
318.15	0.3826	829.86	1.62
318.15	0.4636	826.15	1.62
318.15	0.5484	822.16	1.62
318.15	0.6332	818.08	1.62
318.15	0.7205	813.9	1.62
318.15	0.8128	809.62	1.62
318.15	0.9052	805.52	1.62
318.15	1	801.32	1.62
328.15	0	838.68	1.61
328.15	0.0727	835.18	1.62
328.15	0.148	831.62	1.62
328.15	0.2246	828.14	1.62
328.15	0.3025	824.7	1.62
328.15	0.3826	821.17	1.62
328.15	0.4636	817.53	1.62
328.15	0.5484	813.61	1.62
328.15	0.6332	809.6	1.62
328.15	0.7205	805.49	1.62
328.15	0.8128	801.27	1.62
328.15	0.9052	797.23	1.62
328.15	1	793.06	1.62

System: N-methylcyclohexylamine + 2-octanol; phases: Liquid
Fixed: Pressure, kPa = 81.5
Property: Refractive index (Na D-line) (Liquid); method: Standard Abbe refractometry
Temperature, K	Mole fraction of 2-octanol	Refractive index (Na D-line)	uncertainty
298.15	0	1.45306	0.00164
298.15	0.0727	1.45123	0.00164
298.15	0.148	1.44931	0.00164
298.15	0.2246	1.44739	0.00164
298.15	0.3025	1.44545	0.00164
298.15	0.3826	1.44348	0.00164
298.15	0.4636	1.44143	0.00164
298.15	0.5484	1.43898	0.00164
298.15	0.6332	1.43641	0.00164
298.15	0.7205	1.4337	0.00164
298.15	0.8128	1.43079	0.00164
298.15	0.9052	1.42779	0.00164
298.15	1	1.42483	0.00164
308.15	0	1.44812	0.00164
308.15	0.0727	1.44643	0.00164
308.15	0.148	1.44459	0.00164
308.15	0.2246	1.44272	0.00164
308.15	0.3025	1.44084	0.00164
308.15	0.3826	1.43892	0.00164
308.15	0.4636	1.43692	0.00164
308.15	0.5484	1.43456	0.00164
308.15	0.6332	1.43207	0.00164
308.15	0.7205	1.42942	0.00164
308.15	0.8128	1.42658	0.00164
308.15	0.9052	1.42366	0.00164
308.15	1	1.42073	0.00164
318.15	0	1.4431	0.00164
318.15	0.0727	1.44156	0.00164
318.15	0.148	1.43978	0.00164
318.15	0.2246	1.43794	0.00164
318.15	0.3025	1.43612	0.00164
318.15	0.3826	1.43425	0.00164
318.15	0.4636	1.43233	0.00164
318.15	0.5484	1.43003	0.00164
318.15	0.6332	1.42763	0.00164
318.15	0.7205	1.42503	0.00164
318.15	0.8128	1.42227	0.00164
318.15	0.9052	1.41941	0.00164
318.15	1	1.41648	0.00164
328.15	0	1.43809	0.00164
328.15	0.0727	1.43676	0.00164
328.15	0.148	1.43507	0.00164
328.15	0.2246	1.43327	0.00164
328.15	0.3025	1.43148	0.00164
328.15	0.3826	1.42963	0.00164
328.15	0.4636	1.42778	0.00164
328.15	0.5484	1.42554	0.00164
328.15	0.6332	1.42323	0.00164
328.15	0.7205	1.42073	0.00164
328.15	0.8128	1.41802	0.00164
328.15	0.9052	1.41523	0.00164
328.15	1	1.41224	0.00164
