Measured thermophysical data. The critical phenomena of (water + AOT + decane) microemulsion with the molar ratio (x = 30.0) of water to AOT
Source: J. Chem. Thermodyn., 2007, 10.1016/j.jct.2007.03.003
Compound 1: water, H2O, InChI=1S/H2O/h1H2
Compound 2: sodium bis(2-ethylhexyl) sulfosuccinate, C20H37NaO7S, InChI=1S/C20H38O7S.Na/c1-5-9-11-16(7-3)14-26-19(21)13-18(28(23,24)25)20(22)27-15-17(8-4)12-10-6-2;/h16-18H,5-15H2,1-4H3,(H,23,24,25);/q;+1/p-1, purity 98%
Compound 3: decane, C10H22, InChI=1S/C10H22/c1-3-5-7-9-10-8-6-4-2/h3-10H2,1-2H3, purity 99%

System: decane + sodium bis(2-ethylhexyl) sulfosuccinate + water; phases: Liquid mixture 1, Liquid mixture 2
Property: Upper consolute temperature, K (Liquid mixture 1); method: VISOBS
Solvent: Amount ratio of component to other component of binary solvent of water	Pressure, kPa	Upper consolute temperature, K	uncertainty
30	100	318.26	0.2

System: decane + sodium bis(2-ethylhexyl) sulfosuccinate + water; phases: Liquid
Fixed: Solvent: Amount ratio of component to other component of binary solvent of water = 30
Fixed: Pressure, kPa = 101.3
Fixed: Wavelength, nm = 632.8
Property: Refractive index (other wavelength) (Liquid); method: method of minimum deviation
Volume fraction of decane	Temperature, K	Refractive index (other wavelength)	uncertainty
0.6469	308.583	1.3974	0.0003
0.6469	309.748	1.397	0.0003
0.6469	310.81	1.3966	0.0003
0.6469	312.028	1.3962	0.0003
0.6469	313.138	1.3958	0.0003
0.6469	314.383	1.3953	0.0003
0.6469	315.59	1.3948	0.0003
0.6469	316.95	1.3943	0.0003
0.7214	308.444	1.3988	0.0003
0.7214	309.424	1.3984	0.0003
0.7214	310.574	1.3979	0.0003
0.7214	311.815	1.3974	0.0003
0.7214	312.991	1.397	0.0003
0.7214	314.24	1.3965	0.0003
0.7214	315.396	1.3961	0.0003
0.7214	316.536	1.3956	0.0003
0.8035	308.952	1.3999	0.0003
0.8035	309.916	1.3995	0.0003
0.8035	310.882	1.3991	0.0003
0.8035	311.924	1.3987	0.0003
0.8035	312.964	1.3983	0.0003
0.8035	314.125	1.3978	0.0003
0.8035	315.312	1.3973	0.0003
0.8035	316.533	1.3968	0.0003
0.8487	308.141	1.4009	0.0003
0.8487	309.217	1.4005	0.0003
0.8487	310.356	1.4	0.0003
0.8487	311.37	1.3996	0.0003
0.8487	312.424	1.3992	0.0003
0.8487	313.535	1.3987	0.0003
0.8487	314.601	1.3982	0.0003
0.8487	315.797	1.3978	0.0003
0.8802	308.691	1.4013	0.0003
0.8802	309.63	1.4009	0.0003
0.8802	310.679	1.4004	0.0003
0.8802	311.748	1.4	0.0003
0.8802	312.91	1.3995	0.0003
0.8802	314.049	1.399	0.0003
0.8802	315.225	1.3985	0.0003
0.8802	316.445	1.398	0.0003
0.9203	306.889	1.4027	0.0003
0.9203	308.133	1.4022	0.0003
0.9203	309.177	1.4017	0.0003
0.9203	310.236	1.4012	0.0003
0.9203	311.419	1.4007	0.0003
0.9203	312.628	1.4002	0.0003
0.9203	313.833	1.3997	0.0003
0.9203	315.06	1.3991	0.0003
0.9383	307.735	1.4026	0.0003
0.9383	308.913	1.4021	0.0003
0.9383	310.113	1.4016	0.0003
0.9383	311.308	1.4011	0.0003
0.9383	312.481	1.4005	0.0003
0.9383	313.608	1.4	0.0003
0.9383	314.591	1.3996	0.0003
0.9383	315.775	1.3991	0.0003
1	315.72	1.4	0.0003
1	317.083	1.3994	0.0003
1	318.563	1.3987	0.0003
1	320.149	1.398	0.0003
1	321.696	1.3973	0.0003
1	323.297	1.3966	0.0003
1	324.979	1.3958	0.0003
1	326.754	1.395	0.0003
