Measured thermophysical data. Volumetric and viscometric properties of aqueous solutions of N-(2-hydroxyethyl)morpholine at T = (293.15, 303.15, 313.15, 323.15, 333.15) K
Source: J. Chem. Thermodyn., 2008, 10.1016/j.jct.2008.01.007
Compound 1: 4-morpholineethanol, C6H13NO2, InChI=1S/C6H13NO2/c8-4-1-7-2-5-9-6-3-7/h8H,1-6H2, purity 99%
Compound 2: water, H2O, InChI=1S/H2O/h1H2

System: 4-morpholineethanol; phases: Liquid
Fixed: Pressure, kPa = 101
Property: Viscosity, Pa*s (Liquid); method: CAPTUB::UFactor:16
Temperature, K	Viscosity, Pa*s	uncertainty
293.15	0.026582	0.001776
303.15	0.021986	0.00149
313.15	0.017315	0.0012
323.15	0.012858	0.000923
333.15	0.008284	0.000639

System: 4-morpholineethanol; phases: Liquid
Fixed: Pressure, kPa = 101
Property: Mass density, kg/m3 (Liquid); method: VIBTUB::UFactor:48
Temperature, K	Mass density, kg/m3	uncertainty
293.15	1076.58	3.15
303.15	1066.51	2.96
313.15	1059.19	2.82
323.15	1052.64	2.7
333.15	1046.43	2.58

System: water; phases: Liquid
Fixed: Pressure, kPa = 101
Property: Viscosity, Pa*s (Liquid); method: CAPTUB::UFactor:16
Temperature, K	Viscosity, Pa*s	uncertainty
293.15	0.000998	9.8e-05
303.15	0.000805	8.2e-05
313.15	0.000659	6.9e-05
323.15	0.000551	6e-05
333.15	0.00047	5.3e-05

System: water; phases: Liquid
Fixed: Pressure, kPa = 101
Property: Mass density, kg/m3 (Liquid); method: VIBTUB::UFactor:48
Temperature, K	Mass density, kg/m3	uncertainty
293.15	998.23	1.52
303.15	995.85	1.57
313.15	992.02	1.64
323.15	988.21	1.71
333.15	983.35	1.8

System: 4-morpholineethanol + water; phases: Liquid
Fixed: Pressure, kPa = 101
Property: Viscosity, Pa*s (Liquid); method: CAPTUB:UFactor:16
Temperature, K	Mole fraction of 4-morpholineethanol	Viscosity, Pa*s	uncertainty
293.15	0	0.000998	9.8e-05
293.15	0.0628	0.014455	0.00102
293.15	0.1126	0.022979	0.001548
293.15	0.1985	0.033294	0.002188
293.15	0.2887	0.039283	0.002559
293.15	0.3459	0.04175	0.002712
293.15	0.4127	0.043233	0.002805
293.15	0.4852	0.044016	0.002854
293.15	0.5842	0.043333	0.002812
293.15	0.6438	0.042301	0.002749
293.15	0.7439	0.039779	0.002593
293.15	0.8238	0.036284	0.002377
293.15	0.8846	0.033611	0.002212
293.15	1	0.026582	0.001776
303.15	0	0.000805	8.2e-05
303.15	0.0628	0.009721	0.000726
303.15	0.1126	0.018018	0.001241
303.15	0.1985	0.027468	0.001827
303.15	0.2887	0.033519	0.002202
303.15	0.3459	0.035726	0.002339
303.15	0.4127	0.037332	0.002439
303.15	0.4852	0.037356	0.002441
303.15	0.5842	0.036222	0.002371
303.15	0.6438	0.034918	0.002291
303.15	0.7439	0.032904	0.002167
303.15	0.8238	0.030254	0.002003
303.15	0.8846	0.027105	0.001808
303.15	1	0.021986	0.00149
313.15	0	0.000659	6.9e-05
313.15	0.0628	0.008148	0.000629
313.15	0.1126	0.013552	0.000964
313.15	0.1985	0.022614	0.001526
313.15	0.2887	0.028257	0.001876
313.15	0.3459	0.030863	0.002037
313.15	0.4127	0.031645	0.002086
313.15	0.4852	0.031414	0.002072
313.15	0.5842	0.029622	0.001962
313.15	0.6438	0.028049	0.001865
313.15	0.7439	0.025581	0.001712
313.15	0.8238	0.02338	0.001576
313.15	0.8846	0.022157	0.0015
313.15	1	0.017315	0.0012
323.15	0	0.000551	6e-05
323.15	0.0628	0.006767	0.000543
323.15	0.1126	0.011374	0.000829
323.15	0.1985	0.017843	0.00123
323.15	0.2887	0.023093	0.001556
323.15	0.3459	0.025451	0.001702
323.15	0.4127	0.025942	0.001733
323.15	0.4852	0.025396	0.001699
323.15	0.5842	0.023174	0.001562
323.15	0.6438	0.021341	0.001448
323.15	0.7439	0.01958	0.001339
323.15	0.8238	0.018011	0.001242
323.15	0.8846	0.016981	0.001179
323.15	1	0.012858	0.000923
333.15	0	0.00047	5.3e-05
333.15	0.0628	0.004413	0.000386
333.15	0.1126	0.009233	0.000696
333.15	0.1985	0.013908	0.000986
333.15	0.2887	0.017825	0.001229
333.15	0.3459	0.019926	0.001359
333.15	0.4127	0.020117	0.001371
333.15	0.4852	0.019719	0.001347
333.15	0.5842	0.018577	0.001276
333.15	0.6438	0.016153	0.001126
333.15	0.7439	0.014057	0.000996
333.15	0.8238	0.01267	0.000911
333.15	0.8846	0.011257	0.000823
333.15	1	0.008284	0.000639

System: 4-morpholineethanol + water; phases: Liquid
Fixed: Pressure, kPa = 101
Property: Mass density, kg/m3 (Liquid); method: VIBTUB:UFactor:48
Temperature, K	Mole fraction of 4-morpholineethanol	Mass density, kg/m3	uncertainty
293.15	0	998.23	1.52
293.15	0.0628	1041.44	2.27
293.15	0.1126	1061.42	2.65
293.15	0.1985	1078.87	2.99
293.15	0.2466	1083.81	3.08
293.15	0.2887	1086.11	3.13
293.15	0.3459	1087.54	3.17
293.15	0.4127	1087.67	3.18
293.15	0.4852	1086.69	3.18
293.15	0.5438	1085.22	3.17
293.15	0.5842	1084.37	3.16
293.15	0.6438	1082.81	3.15
293.15	0.6878	1081.6	3.14
293.15	0.7439	1080.31	3.13
293.15	0.8238	1078.68	3.13
293.15	0.8846	1077.69	3.13
293.15	0.9486	1077.17	3.14
293.15	1	1076.58	3.15
303.15	0	995.85	1.57
303.15	0.0628	1033.11	2.11
303.15	0.1126	1052.36	2.48
303.15	0.1985	1069.04	2.8
303.15	0.2466	1073.73	2.9
303.15	0.2887	1075.86	2.94
303.15	0.3459	1077.13	2.97
303.15	0.4127	1077.14	2.99
303.15	0.4852	1076.07	2.98
303.15	0.5438	1074.56	2.97
303.15	0.5842	1073.69	2.96
303.15	0.6438	1072.11	2.95
303.15	0.6878	1070.89	2.93
303.15	0.7439	1069.59	2.93
303.15	0.8238	1068.19	2.93
303.15	0.8846	1067.27	2.93
303.15	0.9486	1066.94	2.95
303.15	1	1066.51	2.96
313.15	0	992.02	1.64
313.15	0.0628	1024.47	1.95
313.15	0.1126	1043.65	2.32
313.15	0.1985	1060.34	2.64
313.15	0.2466	1065.05	2.73
313.15	0.2887	1067.22	2.78
313.15	0.3459	1068.55	2.81
313.15	0.4127	1068.64	2.83
313.15	0.4852	1067.65	2.82
313.15	0.5438	1066.2	2.81
313.15	0.5842	1065.37	2.8
313.15	0.6438	1063.85	2.79
313.15	0.6878	1062.67	2.78
313.15	0.7439	1061.41	2.77
313.15	0.8238	1060.06	2.77
313.15	0.8846	1059.5	2.78
313.15	0.9486	1059.41	2.8
313.15	1	1059.19	2.82
323.15	0	988.21	1.71
323.15	0.0628	1017.66	1.82
323.15	0.1126	1035.57	2.16
323.15	0.1985	1052.34	2.49
323.15	0.2466	1057.12	2.58
323.15	0.2887	1059.03	2.62
323.15	0.3459	1060.61	2.66
323.15	0.4127	1061.07	2.68
323.15	0.4852	1060.28	2.68
323.15	0.5438	1058.66	2.67
323.15	0.5842	1057.87	2.66
323.15	0.6438	1056.41	2.65
323.15	0.6878	1055.27	2.64
323.15	0.7439	1054.22	2.64
323.15	0.8238	1053.44	2.65
323.15	0.8846	1052.95	2.66
323.15	0.9486	1052.79	2.68
323.15	1	1052.64	2.7
333.15	0	983.35	1.8
333.15	0.0628	1012.27	1.72
333.15	0.1126	1029.49	2.05
333.15	0.1985	1044.12	2.33
333.15	0.2466	1048.47	2.42
333.15	0.2887	1050.37	2.46
333.15	0.3459	1051.89	2.5
333.15	0.4127	1052.63	2.53
333.15	0.4852	1052.39	2.53
333.15	0.5438	1051.46	2.53
333.15	0.5842	1050.71	2.53
333.15	0.6438	1049.64	2.52
333.15	0.6878	1048.84	2.52
333.15	0.7439	1047.82	2.51
333.15	0.8238	1047.09	2.53
333.15	0.8846	1046.7	2.54
333.15	0.9486	1046.54	2.56
333.15	1	1046.43	2.58
