Measured thermophysical data. Recommended sublimation pressure and enthalpy of benzene
Source: J. Chem. Thermodyn., 2014, 10.1016/j.jct.2013.08.022
Compound 1: benzene, C6H6, InChI=1S/C6H6/c1-2-4-6-5-3-1/h1-6H, purity 99%

System: benzene; phases: Crystal, Gas
Property: Vapor or sublimation pressure, kPa (Crystal); method: Closed cell (Static) method
Temperature, K	Vapor or sublimation pressure, kPa	uncertainty
233.2	0.09891	0.002
233.2	0.09902	0.002
233.2	0.09885	0.002
235.7	0.12771	0.0025
235.7	0.12771	0.0025
235.7	0.1277	0.0025
238.21	0.16409	0.00273
238.21	0.1641	0.00273
238.21	0.16409	0.00273
240.7	0.20951	0.00329
240.7	0.20932	0.00329
240.7	0.2094	0.00329
243.2	0.26553	0.00399
243.2	0.26557	0.00399
243.2	0.26557	0.00399
245.68	0.33509	0.00486
245.68	0.3352	0.00486
245.68	0.33501	0.00486
248.18	0.42057	0.00593
248.18	0.42054	0.00593
248.18	0.42055	0.00593
250.68	0.52526	0.00725
250.68	0.5257	0.00725
250.68	0.52534	0.00725
253.17	0.65326	0.00886
253.17	0.65322	0.00886
253.17	0.65435	0.00888
255.67	0.8095	0.01083
255.67	0.80956	0.01084
255.67	0.80924	0.01083
258.16	0.99968	0.01323
258.16	0.99952	0.01323
258.16	0.99938	0.01323
260.68	1.23075	0.01605
260.68	1.22931	0.01603
260.68	1.22941	0.01603

System: benzene; phases: Ideal gas
Fixed: Pressure, kPa = 100
Property: Molar heat capacity at constant pressure, J/K/mol (Ideal gas); method: statistical thermodynamics
Temperature, K	Molar heat capacity at constant pressure, J/K/mol	uncertainty
200	53.3	2.1
250	67.3	2.6
273.15	74.4	2.9
298.15	82.2	3.2
300	82.7	3.2
400	112.9	4.4
500	138.6	5.4
600	159.3	6.2
700	176	6.8
800	189.8	7.4
900	201.2	7.8
1000	210.9	8.2

System: benzene; phases: Ideal gas
Fixed: Pressure, kPa = 100
Property: Molar entropy, J/K/mol (Ideal gas); method: statistical thermodynamics
Temperature, K	Molar entropy, J/K/mol	uncertainty
200	243.1	14.1
250	256.4	14.9
273.15	262.7	15.3
298.15	269.5	15.7
300	270	15.7
400	298.1	17.3
500	326.1	18.9
600	353.3	20.5
700	379.1	22
800	403.6	23.4
900	426.6	24.8
1000	448.3	26

System: benzene; phases: Ideal gas
Fixed: Pressure, kPa = 100
Property: Molar enthalpy function {Hm(T)-Hm(0)}/T, J/K/mol (Ideal gas); method: statistical thermodynamics
Temperature, K	Molar enthalpy function {Hm(T)-Hm(0)}/T, J/K/mol	uncertainty
200	38.3	1.5
250	42.6	1.7
273.15	45	1.7
298.15	47.8	1.9
300	48	1.9
400	60.5	2.3
500	73.7	2.9
600	86.3	3.3
700	98	3.8
800	108.6	4.2
900	118.3	4.6
1000	127.1	4.9
