Measured thermophysical data. Solubilities of ammonia in choline chloride plus urea at (298.2-353.2) K and (0-300) kPa
Source: J. Chem. Thermodyn., 2019, 10.1016/j.jct.2018.09.020
Compound 1: ammonia, H3N, InChI=1S/H3N/h1H3, purity 99.99%
Compound 2: choline chloride, C5H14ClNO, InChI=1S/C5H14NO.ClH/c1-6(2,3)4-5-7;/h7H,4-5H2,1-3H3;1H/q+1;/p-1, purity 99%
Compound 3: urea, CH4N2O, InChI=1S/CH4N2O/c2-1(3)4/h(H4,2,3,4), purity 99%

System: ammonia + choline chloride + urea; phases: Liquid, Gas
Property: Molality, mol/kg of ammonia (Liquid); method: volumetric method
Temperature, K	Pressure, kPa of ammonia	Solvent: Mole fraction of choline chloride	Molality, mol/kg of ammonia	uncertainty
313.2	10.8	0.4003	0.154	0.048
313.2	50.7	0.4003	0.712	0.047
313.2	104.8	0.4003	1.436	0.047
313.2	150.1	0.4003	2.03	0.047
313.2	206.8	0.4003	2.739	0.05
313.2	258.9	0.4003	3.386	0.052
313.2	297.9	0.4003	3.875	0.055
323.2	18.3	0.4003	0.185	0.042
323.2	50.1	0.4003	0.523	0.042
323.2	118.4	0.4003	1.221	0.042
323.2	149.6	0.4003	1.517	0.042
323.2	200.8	0.4003	1.984	0.043
323.2	249.8	0.4003	2.412	0.044
323.2	307.3	0.4003	2.948	0.05
333.2	20.9	0.4003	0.167	0.044
333.2	49.3	0.4003	0.387	0.044
333.2	101.4	0.4003	0.791	0.044
333.2	153.5	0.4003	1.199	0.045
333.2	203.8	0.4003	1.604	0.045
333.2	255.1	0.4003	1.969	0.045
333.2	293.2	0.4003	2.257	0.046
343.2	19.3	0.4003	0.097	0.042
343.2	55.3	0.4003	0.299	0.042
343.2	99.7	0.4003	0.571	0.043
343.2	153	0.4003	0.915	0.043
343.2	202.5	0.4003	1.226	0.043
343.2	250.1	0.4003	1.489	0.043
343.2	296.4	0.4003	1.744	0.044
353.2	26.3	0.4003	0.124	0.034
353.2	48.1	0.4003	0.231	0.034
353.2	108.1	0.4003	0.509	0.034
353.2	155.8	0.4003	0.727	0.034
353.2	205.5	0.4003	0.944	0.034
353.2	247.4	0.4003	1.138	0.036
353.2	290.7	0.4003	1.322	0.037
298.2	17.2	0.3332	0.444	0.066
298.2	46.1	0.3332	1.08	0.068
298.2	95	0.3332	2.213	0.071
298.2	149.8	0.3332	3.529	0.073
298.2	201.1	0.3332	4.729	0.075
298.2	257.8	0.3332	5.98	0.081
298.2	296.6	0.3332	6.879	0.087
313.2	11.3	0.3332	0.198	0.052
313.2	53.4	0.3332	0.835	0.05
313.2	108.2	0.3332	1.599	0.051
313.2	199	0.3332	2.884	0.049
313.2	221.5	0.3332	3.196	0.057
313.2	255.8	0.3332	3.66	0.059
313.2	302.1	0.3332	4.341	0.062
323.2	18.3	0.3332	0.193	0.038
323.2	53	0.3332	0.545	0.039
323.2	99.4	0.3332	1.008	0.039
323.2	144.3	0.3332	1.458	0.041
323.2	200.3	0.3332	1.974	0.041
323.2	249.5	0.3332	2.474	0.043
323.2	296.3	0.3332	2.884	0.048
333.2	15.2	0.3332	0.119	0.041
333.2	54	0.3332	0.379	0.042
333.2	99	0.3332	0.715	0.042
333.2	150.3	0.3332	1.09	0.043
333.2	198.9	0.3332	1.466	0.043
333.2	249.5	0.3332	1.836	0.045
333.2	296.6	0.3332	2.177	0.048
343.2	24.2	0.3332	0.173	0.039
343.2	53.7	0.3332	0.334	0.041
343.2	100.4	0.3332	0.609	0.041
343.2	153.6	0.3332	0.937	0.041
343.2	209.6	0.3332	1.27	0.041
343.2	257.1	0.3332	1.55	0.041
343.2	300.4	0.3332	1.795	0.041
353.2	32	0.3332	0.153	0.036
353.2	64.6	0.3332	0.289	0.036
353.2	96.9	0.3332	0.432	0.036
353.2	151.7	0.3332	0.668	0.036
353.2	209.2	0.3332	0.945	0.036
353.2	249.1	0.3332	1.136	0.037
353.2	299.3	0.3332	1.376	0.037
313.2	19.8	0.2858	0.281	0.052
313.2	58.4	0.2858	0.81	0.052
313.2	98.1	0.2858	1.355	0.053
313.2	150.3	0.2858	2.076	0.053
313.2	205.2	0.2858	2.784	0.054
313.2	249.3	0.2858	3.381	0.058
313.2	299.1	0.2858	4.028	0.059
323.2	23.2	0.2858	0.24	0.035
323.2	49.8	0.2858	0.507	0.036
323.2	104.6	0.2858	1.071	0.036
323.2	168.6	0.2858	1.717	0.037
323.2	198	0.2858	2.005	0.038
323.2	250.5	0.2858	2.53	0.04
323.2	296.8	0.2858	2.989	0.044
333.2	23	0.2858	0.165	0.044
333.2	67.9	0.2858	0.502	0.044
333.2	101.9	0.2858	0.759	0.044
333.2	163.4	0.2858	1.228	0.045
333.2	196.3	0.2858	1.475	0.045
333.2	244.4	0.2858	1.832	0.045
333.2	293.7	0.2858	2.205	0.048
343.2	33	0.2858	0.217	0.036
343.2	58.2	0.2858	0.353	0.037
343.2	91.3	0.2858	0.556	0.037
343.2	141.9	0.2858	0.841	0.037
343.2	197.6	0.2858	1.157	0.037
343.2	254.9	0.2858	1.492	0.037
343.2	299.6	0.2858	1.744	0.039
353.2	29	0.2858	0.136	0.034
353.2	48.1	0.2858	0.22	0.034
353.2	101.5	0.2858	0.47	0.034
353.2	144.5	0.2858	0.671	0.034
353.2	200.4	0.2858	0.938	0.036
353.2	245.4	0.2858	1.154	0.037
353.2	294.3	0.2858	1.391	0.037
