Measured thermophysical data. Solubility of commercial octacosanol in organic solvents and their correlation by thermodynamic models at different temperatures
Source: J. Chem. Thermodyn., 2017, 10.1016/j.jct.2017.02.025
Compound 1: 1-octacosanol, C28H58O, InChI=1S/C28H58O/c1-2-3-4-5-6-7-8-9-10-11-12-13-14-15-16-17-18-19-20-21-22-23-24-25-26-27-28-29/h29H,2-28H2,1H3, purity 94.83%
Compound 2: pentan-1-ol, C5H12O, InChI=1S/C5H12O/c1-2-3-4-5-6/h6H,2-5H2,1H3, purity 98%
Compound 3: hexan-1-ol, C6H14O, InChI=1S/C6H14O/c1-2-3-4-5-6-7/h7H,2-6H2,1H3, purity 98%
Compound 4: toluene, C7H8, InChI=1S/C7H8/c1-7-5-3-2-4-6-7/h2-6H,1H3, purity 99%

System: 1-octacosanol; phases: Crystal, Liquid, Air at 1 atmosphere
Property: Molar enthalpy of transition or fusion, kJ/mol (Crystal); method: DSC
Molar enthalpy of transition or fusion, kJ/mol	uncertainty
108.44051328	2.46455712

System: 1-octacosanol; phases: Crystal, Liquid, Air at 1 atmosphere
Property: Normal melting temperature, K (Crystal); method: DTA
Normal melting temperature, K	uncertainty
355.9	1.1

System: pentan-1-ol + 1-octacosanol; phases: Liquid, Crystal
Fixed: Pressure, kPa = 100
Property: Mass fraction of 1-octacosanol (Liquid); method: gravimetric method
Temperature, K	Mass fraction of 1-octacosanol	uncertainty
298.2	0.002991	0.00043
303.2	0.005329	0.000768
308.2	0.01027	0.0013
313.2	0.01722	0.00043
318.2	0.02992	0.00446
323.2	0.05792	0.0081
328.2	0.11048	0.01487

System: hexan-1-ol + 1-octacosanol; phases: Liquid, Crystal
Fixed: Pressure, kPa = 100
Property: Mass fraction of 1-octacosanol (Liquid); method: gravimetric method
Temperature, K	Mass fraction of 1-octacosanol	uncertainty
298.2	0.00363	0.000183
303.2	0.005037	0.000617
308.2	0.00948	0.00113
313.2	0.01729	0.00224
318.2	0.02979	0.00375
323.2	0.05688	0.00807
328.2	0.10748	0.02319
333.2	0.20467	0.03645

System: toluene + 1-octacosanol; phases: Liquid, Crystal
Fixed: Pressure, kPa = 100
Property: Mass fraction of 1-octacosanol (Liquid); method: gravimetric method
Temperature, K	Mass fraction of 1-octacosanol	uncertainty
298.2	0.006221	0.000713
303.2	0.010856	0.001267
308.2	0.01768	0.00209
313.2	0.03235	0.00385
318.2	0.05824	0.00744
323.2	0.11804	0.03188
328.2	0.21792	0.01864
