Measured thermophysical data. The volumetric properties of (1,2-propanediol carbonate + benzene,  or toluene, or styrene) binary mixtures at temperatures  from T = 293.15 K to T = 353.15 K
Source: J. Chem. Thermodyn., 2006, 10.1016/j.jct.2005.03.019
Compound 1: 4-methyl-1,3-dioxolan-2-one, C4H6O3, InChI=1S/C4H6O3/c1-3-2-6-4(5)7-3/h3H,2H2,1H3
Compound 2: benzene, C6H6, InChI=1S/C6H6/c1-2-4-6-5-3-1/h1-6H
Compound 3: toluene, C7H8, InChI=1S/C7H8/c1-7-5-3-2-4-6-7/h2-6H,1H3
Compound 4: ethylbenzene, C8H10, InChI=1S/C8H10/c1-2-8-6-4-3-5-7-8/h3-7H,2H2,1H3
Compound 5: styrene, C8H8, InChI=1S/C8H8/c1-2-8-6-4-3-5-7-8/h2-7H,1H2

System: 4-methyl-1,3-dioxolan-2-one; phases: Liquid
Property: Refractive index (Na D-line) (Liquid); method: Standard Abbe refractometry
Temperature, K	Pressure, kPa	Refractive index (Na D-line)	uncertainty
293.15	101.325	1.42095	0.0004

System: 4-methyl-1,3-dioxolan-2-one; phases: Liquid
Fixed: Pressure, kPa = 101
Property: Mass density, kg/m3 (Liquid); method: Vibrating tube method
Temperature, K	Mass density, kg/m3	uncertainty
293.15	1200.3	0.1
303.15	1180.6	0.1
313.15	1161.3	0.1
323.15	1142.4	0.1
333.15	1124	0.1
343.15	1106	0.1
353.15	1088.4	0.1
313.15	1161.2	0.1

System: benzene; phases: Liquid
Property: Refractive index (Na D-line) (Liquid); method: Standard Abbe refractometry
Temperature, K	Pressure, kPa	Refractive index (Na D-line)	uncertainty
298.15	101.325	1.5009	0.0004

System: benzene; phases: Liquid
Fixed: Pressure, kPa = 101
Property: Mass density, kg/m3 (Liquid); method: Vibrating tube method
Temperature, K	Mass density, kg/m3	uncertainty
293.15	877.8	0.1
303.15	868	0.1
313.15	857.9	0.1
323.15	847.4	0.1
333.15	836.6	0.1
343.15	825.4	0.1
353.15	813.9	0.1

System: toluene; phases: Liquid
Property: Refractive index (Na D-line) (Liquid); method: Standard Abbe refractometry
Temperature, K	Pressure, kPa	Refractive index (Na D-line)	uncertainty
298.15	101.325	1.4965	0.0004

System: toluene; phases: Liquid
Fixed: Pressure, kPa = 101
Property: Mass density, kg/m3 (Liquid); method: Vibrating tube method
Temperature, K	Mass density, kg/m3	uncertainty
293.15	866.8	0.1
303.15	857.5	0.1
313.15	848.2	0.1
323.15	838.9	0.1
333.15	829.5	0.1
343.15	820	0.1
353.15	810.5	0.1

System: ethylbenzene; phases: Liquid
Property: Refractive index (Na D-line) (Liquid); method: Standard Abbe refractometry
Temperature, K	Pressure, kPa	Refractive index (Na D-line)	uncertainty
298.15	101.325	1.4962	0.0005

System: ethylbenzene; phases: Liquid
Fixed: Pressure, kPa = 101
Property: Mass density, kg/m3 (Liquid); method: Vibrating tube method
Temperature, K	Mass density, kg/m3	uncertainty
323.15	847.6	0.2
293.15	867.8	0.2
303.15	858.6	0.2
333.15	845.8	0.2
343.15	846.5	0.2
313.15	851.8	0.2
353.15	849.6	0.2

System: styrene; phases: Liquid
Property: Refractive index (Na D-line) (Liquid); method: Standard Abbe refractometry
Temperature, K	Pressure, kPa	Refractive index (Na D-line)	uncertainty
298.15	101.325	1.546	0.0011

System: styrene; phases: Liquid
Fixed: Pressure, kPa = 101
Property: Mass density, kg/m3 (Liquid); method: Vibrating tube method
Temperature, K	Mass density, kg/m3	uncertainty
293.15	906	4.5
303.15	896.4	4.4
313.15	886.9	4.3
323.15	877.3	4.2
333.15	867.8	4.1
343.15	858.2	4
353.15	848.6	4

System: benzene + 4-methyl-1,3-dioxolan-2-one; phases: Liquid
Fixed: Pressure, kPa = 101
Property: Mass density, kg/m3 (Liquid); method: Vibrating tube method
Temperature, K	Mole fraction of benzene	Mass density, kg/m3	uncertainty
293.15	0	1200.3	0.1
293.15	0.049	1184.5	0.1
293.15	0.1189	1162	0.1
293.15	0.1749	1144.1	0.1
293.15	0.2349	1125	0.1
293.15	0.2949	1105.9	0.1
293.15	0.3649	1083.6	0.2
293.15	0.4248	1064.6	0.2
293.15	0.4959	1041.9	0.2
293.15	0.5529	1023.8	0.2
293.15	0.6249	1000.7	0.1
293.15	0.6934	978.6	0.1
293.15	0.7539	959	0.1
293.15	0.8135	939.6	0.1
293.15	0.8622	923.6	0.1
293.15	0.9248	902.9	0.1
293.15	1	877.8	0.1
303.15	0	1180.6	0.1
303.15	0.0487	1165.3	0.1
303.15	0.1273	1140.9	0.1
303.15	0.1841	1123.3	0.1
303.15	0.2487	1103.3	0.1
303.15	0.3127	1083.6	0.1
303.15	0.3749	1064.4	0.2
303.15	0.4364	1045.4	0.2
303.15	0.4821	1031.4	0.2
303.15	0.5428	1012.6	0.2
303.15	0.6038	993.7	0.1
303.15	0.6782	970.5	0.1
303.15	0.7465	949.1	0.1
303.15	0.8246	924.4	0.1
303.15	0.8846	905.3	0.1
303.15	0.9381	888.1	0.1
303.15	1	868	0.1
313.15	0	1161.3	0.1
313.15	0.0537	1145	0.1
313.15	0.1295	1122	0.1
313.15	0.1649	1111.4	0.1
313.15	0.2359	1090	0.1
313.15	0.3139	1066.7	0.1
313.15	0.3619	1052.3	0.1
313.15	0.4143	1036.6	0.2
313.15	0.4829	1016.1	0.2
313.15	0.5498	996.1	0.2
313.15	0.625	973.4	0.1
313.15	0.6821	956.2	0.1
313.15	0.7492	935.8	0.1
313.15	0.8247	912.6	0.1
313.15	0.8732	897.6	0.1
313.15	0.9348	878.4	0.1
313.15	1	857.9	0.1
323.15	0	1142.4	0.1
323.15	0.0598	1124.7	0.1
323.15	0.131	1103.7	0.1
323.15	0.1856	1087.7	0.1
323.15	0.2438	1070.7	0.1
323.15	0.3257	1046.8	0.1
323.15	0.3987	1025.6	0.1
323.15	0.4589	1008.1	0.2
323.15	0.5156	991.6	0.2
323.15	0.5687	976.1	0.2
323.15	0.6145	962.7	0.1
323.15	0.6647	948	0.1
323.15	0.7365	926.8	0.1
323.15	0.7965	909	0.1
323.15	0.8567	891	0.1
323.15	0.9267	869.8	0.1
323.15	1	847.4	0.1
333.15	0	1124	0.1
333.15	0.0592	1106.9	0.1
333.15	0.1281	1087	0.1
333.15	0.1834	1071.2	0.1
333.15	0.2487	1052.6	0.1
333.15	0.3279	1030.1	0.1
333.15	0.3987	1010	0.1
333.15	0.4598	992.7	0.2
333.15	0.5139	977.4	0.2
333.15	0.5533	966.2	0.2
333.15	0.6138	949	0.1
333.15	0.6623	935.1	0.1
333.15	0.7246	917.3	0.1
333.15	0.7749	902.7	0.1
333.15	0.8568	878.9	0.1
333.15	0.9248	858.9	0.1
333.15	1	836.6	0.1
343.15	0	1106	0.1
343.15	0.0638	1087.9	0.1
343.15	0.1139	1073.8	0.1
343.15	0.1756	1056.4	0.1
343.15	0.2439	1037.4	0.1
343.15	0.3178	1016.9	0.1
343.15	0.3875	997.6	0.1
343.15	0.5586	950.2	0.2
343.15	0.6246	931.9	0.1
343.15	0.6981	911.4	0.1
343.15	0.7528	896.1	0.1
343.15	0.8137	878.9	0.1
343.15	0.8748	861.5	0.1
343.15	0.9361	843.9	0.1
343.15	0.4583	978	0.2
343.15	0.5076	964.3	0.2
343.15	1	825.4	0.1
353.15	0	1088.4	0.1
353.15	0.053	1073.6	0.1
353.15	0.1329	1051.5	0.1
353.15	0.1822	1037.9	0.1
353.15	0.2378	1022.7	0.1
353.15	0.3327	996.9	0.1
353.15	0.381	983.8	0.1
353.15	0.4485	965.5	0.1
353.15	0.5236	945.2	0.2
353.15	0.5728	931.9	0.1
353.15	0.6387	914	0.1
353.15	0.6831	901.9	0.1
353.15	0.7428	885.6	0.1
353.15	0.7933	871.7	0.1
353.15	0.8642	852.1	0.1
353.15	0.9461	829.2	0.1
353.15	1	813.9	0.1

System: 4-methyl-1,3-dioxolan-2-one + toluene; phases: Liquid
Fixed: Pressure, kPa = 101
Property: Mass density, kg/m3 (Liquid); method: Vibrating tube method
Temperature, K	Mole fraction of toluene	Mass density, kg/m3	uncertainty
293.15	0	1200.3	0.1
293.15	0.0578	1177.7	0.1
293.15	0.1279	1151	0.1
293.15	0.1735	1133.9	0.1
293.15	0.2387	1110	0.1
293.15	0.3248	1079.4	0.2
293.15	0.3891	1057.1	0.2
293.15	0.4398	1039.9	0.2
293.15	0.5179	1014	0.2
293.15	0.5621	999.7	0.2
293.15	0.6381	975.4	0.1
293.15	0.7139	951.8	0.1
293.15	0.7639	936.5	0.1
293.15	0.8247	918.2	0.1
293.15	0.8739	903.6	0.1
293.15	0.9376	884.9	0.1
293.15	1	866.8	0.1
303.15	0	1180.6	0.1
303.15	0.0516	1161	0.1
303.15	0.1211	1135.3	0.1
303.15	0.1782	1114.7	0.1
303.15	0.2298	1096.4	0.1
303.15	0.2971	1073	0.1
303.15	0.3565	1052.9	0.1
303.15	0.4134	1034	0.2
303.15	0.4681	1016.2	0.2
303.15	0.5371	994.2	0.2
303.15	0.6021	973.9	0.1
303.15	0.6629	955.4	0.1
303.15	0.7232	937.2	0.1
303.15	0.7832	919.5	0.1
303.15	0.8537	899.1	0.1
303.15	0.9245	878.8	0.1
303.15	1	857.5	0.1
313.15	0	1161.3	0.1
313.15	0.0467	1144.2	0.1
313.15	0.1274	1115.2	0.1
313.15	0.1832	1095.7	0.1
313.15	0.2572	1070.4	0.1
313.15	0.3291	1046.5	0.1
313.15	0.3938	1025.5	0.2
313.15	0.4531	1006.7	0.2
313.15	0.5291	983.2	0.2
313.15	0.5919	964.2	0.1
313.15	0.6472	947.7	0.1
313.15	0.6938	934.1	0.1
313.15	0.7524	917.2	0.1
313.15	0.8138	899.7	0.1
313.15	0.8623	886.1	0.1
313.15	0.9427	863.9	0.1
313.15	1	848.2	0.1
323.15	0	1142.4	0.1
323.15	0.0592	1121.4	0.1
323.15	0.114	1102.4	0.1
323.15	0.1734	1082.1	0.1
323.15	0.2378	1060.7	0.1
323.15	0.3139	1036	0.1
323.15	0.3681	1018.8	0.1
323.15	0.4244	1001.4	0.2
323.15	0.4711	987.1	0.2
323.15	0.5137	974.3	0.2
323.15	0.5828	954	0.1
323.15	0.6528	933.8	0.1
323.15	0.725	913.4	0.1
323.15	0.7941	894.2	0.1
323.15	0.8529	878.2	0.1
323.15	0.9172	860.9	0.1
323.15	1	838.9	0.1
333.15	0	1124	0.1
333.15	0.0545	1105.2	0.1
333.15	0.1287	1080.2	0.1
333.15	0.1831	1062.3	0.1
333.15	0.2417	1043.4	0.1
333.15	0.3274	1016.5	0.1
333.15	0.3818	999.9	0.1
333.15	0.4383	983	0.2
333.15	0.4819	970.1	0.2
333.15	0.5381	953.9	0.2
333.15	0.5821	941.3	0.1
333.15	0.6421	924.5	0.1
333.15	0.7138	904.8	0.1
333.15	0.7832	886.1	0.1
333.15	0.8527	867.7	0.1
333.15	0.9323	846.9	0.1
333.15	1	829.5	0.1
343.15	0	1106	0.1
343.15	0.0613	1085.5	0.1
343.15	0.1248	1064.7	0.1
343.15	0.1822	1046.3	0.1
343.15	0.2489	1025.5	0.1
343.15	0.3011	1009.5	0.1
343.15	0.3719	988.4	0.1
343.15	0.458	963.3	0.2
343.15	0.5043	950.2	0.2
343.15	0.5729	931.1	0.1
343.15	0.6429	912	0.1
343.15	0.7041	895.7	0.1
343.15	0.7634	880.1	0.1
343.15	0.8241	864.4	0.1
343.15	0.8721	852.2	0.1
343.15	0.9347	836.3	0.1
343.15	1	820	0.1
353.15	0	1088.4	0.1
353.15	0.0524	1071.3	0.1
353.15	0.1139	1051.6	0.1
353.15	0.1942	1026.6	0.1
353.15	0.2589	1007	0.1
353.15	0.3238	987.8	0.1
353.15	0.4035	964.9	0.1
353.15	0.4598	949.1	0.2
353.15	0.5243	931.4	0.2
353.15	0.5825	915.7	0.1
353.15	0.6359	901.6	0.1
353.15	0.693	886.8	0.1
353.15	0.7749	865.9	0.1
353.15	0.8371	850.3	0.1
353.15	0.8689	842.4	0.1
353.15	0.9432	824.2	0.1
353.15	1	810.5	0.1

System: ethylbenzene + 4-methyl-1,3-dioxolan-2-one; phases: Liquid
Fixed: Pressure, kPa = 101
Property: Mass density, kg/m3 (Liquid); method: Vibrating tube method
Temperature, K	Mole fraction of ethylbenzene	Mass density, kg/m3	uncertainty
293.15	0	1200.3	0.1
303.15	0	1180.6	0.1
313.15	0	1161.3	0.1
323.15	0	1142.4	0.1
333.15	0	1124	0.1
343.15	0	1106	0.1
353.15	0	1088.4	0.1
303.15	0.0489	1159.1	0.1
343.15	0.0524	1088.2	0.1
333.15	0.0587	1102.4	0.1
293.15	0.0592	1173.5	0.1
353.15	0.0629	1069.2	0.1
323.15	0.0635	1117.4	0.1
313.15	0.0662	1133.7	0.1
343.15	0.1125	1068.5	0.1
293.15	0.1139	1149.9	0.1
323.15	0.1139	1098.3	0.1
313.15	0.1258	1110	0.1
353.15	0.1272	1050.2	0.1
303.15	0.1278	1126.2	0.1
333.15	0.1328	1076.2	0.1
323.15	0.1729	1076.8	0.1
293.15	0.1749	1124.6	0.1
343.15	0.1828	1046.3	0.1
313.15	0.1835	1088	0.1
333.15	0.1849	1058.6	0.1
353.15	0.1947	1031	0.1
303.15	0.1974	1098.6	0.1
323.15	0.2384	1054	0.1
343.15	0.2398	1029.1	0.1
313.15	0.2458	1065.3	0.1
293.15	0.2471	1096.1	0.2
303.15	0.2484	1079.4	0.2
333.15	0.2489	1037.9	0.1
353.15	0.2598	1013.3	0.1
343.15	0.3049	1010.2	0.1
353.15	0.3138	999	0.1
303.15	0.3149	1055.2	0.2
333.15	0.3186	1016.2	0.1
323.15	0.3248	1025.4	0.1
293.15	0.3274	1066.1	0.2
313.15	0.3342	1034.7	0.2
343.15	0.3673	992.8	0.1
303.15	0.3759	1034.1	0.2
333.15	0.3767	998.9	0.1
293.15	0.3856	1045.5	0.2
323.15	0.3859	1006.2	0.2
353.15	0.3945	978.6	0.1
313.15	0.3958	1014.5	0.2
343.15	0.4348	974.7	0.2
303.15	0.4349	1014.5	0.2
333.15	0.435	982.2	0.2
323.15	0.4523	986.2	0.2
293.15	0.4527	1022.7	0.2
313.15	0.4592	994.6	0.2
353.15	0.4629	962	0.2
343.15	0.4817	962.6	0.2
303.15	0.4876	997.7	0.2
333.15	0.4957	965.5	0.2
323.15	0.5048	971	0.2
293.15	0.5049	1005.6	0.2
313.15	0.5135	978.2	0.2
353.15	0.5148	949.8	0.2
343.15	0.5428	947.3	0.2
303.15	0.5498	978.5	0.2
333.15	0.5549	949.7	0.2
313.15	0.5629	963.7	0.2
293.15	0.5672	986.1	0.2
323.15	0.5733	951.9	0.2
353.15	0.5749	936.1	0.2
303.15	0.5922	965.9	0.2
343.15	0.6048	932.3	0.2
333.15	0.6247	931.8	0.2
313.15	0.6248	946.2	0.2
353.15	0.6345	923	0.2
293.15	0.6368	965.1	0.2
323.15	0.6387	934.4	0.2
303.15	0.659	946.7	0.2
343.15	0.6721	916.5	0.2
313.15	0.6724	933.2	0.2
333.15	0.6978	913.8	0.2
293.15	0.6978	947.4	0.2
323.15	0.7038	917.6	0.2
353.15	0.7039	908.2	0.2
303.15	0.7249	928.4	0.2
313.15	0.7383	915.7	0.2
343.15	0.7498	899	0.2
293.15	0.7529	932	0.2
323.15	0.7587	903.8	0.2
333.15	0.7629	898.4	0.2
353.15	0.7635	895.8	0.2
313.15	0.7873	903.2	0.2
303.15	0.7941	910	0.2
323.15	0.8137	890.5	0.2
353.15	0.8137	885.7	0.2
293.15	0.8149	915.2	0.2
343.15	0.8247	882.7	0.2
333.15	0.8247	884.2	0.2
313.15	0.8534	886.7	0.2
303.15	0.8578	893.5	0.2
333.15	0.8624	875.7	0.2
353.15	0.8642	875.7	0.2
323.15	0.8698	877.2	0.2
293.15	0.8742	899.6	0.2
343.15	0.8827	870.5	0.2
303.15	0.9247	876.8	0.2
323.15	0.9247	864.5	0.2
353.15	0.9248	863.9	0.2
333.15	0.9358	859.5	0.2
293.15	0.9368	883.5	0.2
313.15	0.9378	866.4	0.2
343.15	0.9478	857	0.2
323.15	1	847.6	0.2
293.15	1	867.8	0.2
303.15	1	858.6	0.2
333.15	1	845.8	0.2
343.15	1	846.5	0.2
313.15	1	851.8	0.2
353.15	1	849.6	0.2

System: styrene + 4-methyl-1,3-dioxolan-2-one; phases: Liquid
Fixed: Pressure, kPa = 101
Property: Mass density, kg/m3 (Liquid); method: Vibrating tube method
Temperature, K	Mole fraction of styrene	Mass density, kg/m3	uncertainty
293.15	0	1200.3	0.1
293.15	0.0537	1180.1	0.2
293.15	0.1389	1149.3	0.3
293.15	0.1832	1134	0.4
293.15	0.2341	1116.8	0.5
293.15	0.294	1097.3	0.7
293.15	0.3867	1068.4	1
293.15	0.4379	1053.1	1.3
293.15	0.5089	1032.5	1.6
293.15	0.5799	1012.6	1.9
293.15	0.6328	998.3	2.2
293.15	0.6978	981.1	2.6
293.15	0.7534	966.7	2.9
293.15	0.8136	951.5	3.3
293.15	0.8738	936.6	3.6
293.15	0.9348	921.7	4
293.15	1	906	4.5
303.15	0	1180.6	0.1
303.15	0.0613	1158.4	0.2
303.15	0.1289	1134.8	0.3
303.15	0.1743	1119.6	0.4
303.15	0.2389	1098.5	0.5
303.15	0.2976	1080.1	0.7
303.15	0.3681	1058.8	0.9
303.15	0.4178	1044.3	1.1
303.15	0.4622	1031.7	1.3
303.15	0.5239	1014.6	1.6
303.15	0.5919	996.3	1.9
303.15	0.6521	980.7	2.3
303.15	0.7244	962.4	2.7
303.15	0.7932	945.4	3.1
303.15	0.8472	932.4	3.4
303.15	0.9247	914	3.9
303.15	1	896.4	4.4
313.15	0	1161.2	0.1
313.15	0.0473	1144.7	0.2
313.15	0.1255	1118.3	0.2
313.15	0.1922	1096.7	0.4
313.15	0.2467	1079.7	0.5
313.15	0.2844	1068.3	0.6
313.15	0.3388	1052.2	0.8
313.15	0.4032	1033.8	1
313.15	0.4789	1013	1.3
313.15	0.5376	997.4	1.6
313.15	0.6198	976.4	2
313.15	0.6638	965.4	2.3
313.15	0.7398	946.9	2.7
313.15	0.8133	929.5	3.1
313.15	0.8756	915.1	3.5
313.15	0.9456	899.1	3.9
313.15	1	886.9	4.3
323.15	0	1142.4	0.1
323.15	0.0598	1122.3	0.2
323.15	0.1431	1095.3	0.3
323.15	0.1846	1082.4	0.3
323.15	0.2572	1060.6	0.5
323.15	0.3312	1039.2	0.7
323.15	0.3841	1024.5	0.9
323.15	0.4423	1008.8	1.2
323.15	0.4928	995.6	1.4
323.15	0.5634	977.7	1.7
323.15	0.6143	965.1	2
323.15	0.6635	953.3	2.2
323.15	0.7187	940.3	2.5
323.15	0.7749	927.3	2.8
323.15	0.8353	913.6	3.2
323.15	0.9244	893.8	3.7
323.15	1	877.3	4.2
333.15	0	1124	0.1
333.15	0.0534	1106.6	0.1
333.15	0.113	1087.7	0.2
333.15	0.1682	1070.9	0.3
333.15	0.2134	1057.5	0.4
333.15	0.2843	1037.2	0.6
333.15	0.3587	1016.8	0.8
333.15	0.4238	999.7	1
333.15	0.479	985.6	1.3
333.15	0.5359	971.5	1.5
333.15	0.5831	960.1	1.8
333.15	0.6811	937.2	2.3
333.15	0.7529	920.9	2.6
333.15	0.8243	905.2	3.1
333.15	0.8871	891.7	3.4
333.15	0.9424	879.9	3.8
333.15	1	867.8	4.1
343.15	0	1106	0.1
343.15	0.0648	1085.6	0.1
343.15	0.1198	1068.9	0.2
343.15	0.1823	1050.6	0.3
343.15	0.2398	1034.3	0.4
343.15	0.318	1013	0.7
343.15	0.3832	996	0.9
343.15	0.4429	981	1.1
343.15	0.5138	963.8	1.4
343.15	0.5824	947.6	1.7
343.15	0.6529	931.6	2.1
343.15	0.7039	920.3	2.3
343.15	0.7735	905.2	2.7
343.15	0.8423	890.7	3.1
343.15	0.8814	882.5	3.3
343.15	0.9476	868.9	3.7
343.15	1	858.2	4
353.15	0	1088.4	0.1
353.15	0.0621	1069.6	0.1
353.15	0.1257	1051	0.2
353.15	0.1644	1040	0.3
353.15	0.2312	1021.6	0.4
353.15	0.3042	1002.2	0.6
353.15	0.3718	985	0.8
353.15	0.4423	967.7	1.1
353.15	0.5021	953.5	1.3
353.15	0.5539	941.6	1.5
353.15	0.6243	925.9	1.9
353.15	0.6912	911.4	2.2
353.15	0.752	898.5	2.5
353.15	0.8132	885.9	2.9
353.15	0.8642	875.5	3.1
353.15	0.9248	863.4	3.5
353.15	1	848.6	4
