Measured thermophysical data. Determination of the thermodynamic parameters of ionic liquid 1-propyl-3-methylimidazolium bromide by gas-liquid chromatography
Source: J. Chem. Thermodyn., 2019, 10.1016/j.jct.2018.09.023
Compound 1: octane, C8H18, InChI=1S/C8H18/c1-3-5-7-8-6-4-2/h3-8H2,1-2H3, purity 99%
Compound 2: pentan-1-ol, C5H12O, InChI=1S/C5H12O/c1-2-3-4-5-6/h6H,2-5H2,1H3, purity 99%
Compound 3: 1-methyl-3-propylimidazolium bromide, C7H13BrN2, InChI=1S/C7H13N2.BrH/c1-3-4-9-6-5-8(2)7-9;/h5-7H,3-4H2,1-2H3;1H/q+1;/p-1, purity 99%
Compound 4: hexane, C6H14, InChI=1S/C6H14/c1-3-5-6-4-2/h3-6H2,1-2H3, purity 99%
Compound 5: heptane, C7H16, InChI=1S/C7H16/c1-3-5-7-6-4-2/h3-7H2,1-2H3, purity 99%
Compound 6: 2,2,4-trimethylpentane, C8H18, InChI=1S/C8H18/c1-7(2)6-8(3,4)5/h7H,6H2,1-5H3, purity 99%
Compound 7: nonane, C9H20, InChI=1S/C9H20/c1-3-5-7-9-8-6-4-2/h3-9H2,1-2H3, purity 99%
Compound 8: decane, C10H22, InChI=1S/C10H22/c1-3-5-7-9-10-8-6-4-2/h3-10H2,1-2H3, purity 99%
Compound 9: cyclohexane, C6H12, InChI=1S/C6H12/c1-2-4-6-5-3-1/h1-6H2, purity 99%
Compound 10: methylcyclohexane, C7H14, InChI=1S/C7H14/c1-7-5-3-2-4-6-7/h7H,2-6H2,1H3, purity 99%
Compound 11: methanol, CH4O, InChI=1S/CH4O/c1-2/h2H,1H3, purity 99%
Compound 12: ethanol, C2H6O, InChI=1S/C2H6O/c1-2-3/h3H,2H2,1H3, purity 99%
Compound 13: propan-1-ol, C3H8O, InChI=1S/C3H8O/c1-2-3-4/h4H,2-3H2,1H3, purity 99%
Compound 14: propan-2-ol, C3H8O, InChI=1S/C3H8O/c1-3(2)4/h3-4H,1-2H3, purity 99%
Compound 15: butan-1-ol, C4H10O, InChI=1S/C4H10O/c1-2-3-4-5/h5H,2-4H2,1H3, purity 99%
Compound 16: 2-methyl-1-propanol, C4H10O, InChI=1S/C4H10O/c1-4(2)3-5/h4-5H,3H2,1-2H3, purity 99%
Compound 17: butan-2-ol, C4H10O, InChI=1S/C4H10O/c1-3-4(2)5/h4-5H,3H2,1-2H3, purity 99%
Compound 18: 3-methylbutan-1-ol, C5H12O, InChI=1S/C5H12O/c1-5(2)3-4-6/h5-6H,3-4H2,1-2H3, purity 99%
Compound 19: benzene, C6H6, InChI=1S/C6H6/c1-2-4-6-5-3-1/h1-6H, purity 99%
Compound 20: toluene, C7H8, InChI=1S/C7H8/c1-7-5-3-2-4-6-7/h2-6H,1H3, purity 99%
Compound 21: ethylbenzene, C8H10, InChI=1S/C8H10/c1-2-8-6-4-3-5-7-8/h3-7H,2H2,1H3, purity 99%
Compound 22: 1,2-dimethylbenzene, C8H10, InChI=1S/C8H10/c1-7-5-3-4-6-8(7)2/h3-6H,1-2H3, purity 99%
Compound 23: 1,3-dimethylbenzene, C8H10, InChI=1S/C8H10/c1-7-4-3-5-8(2)6-7/h3-6H,1-2H3, purity 99%
Compound 24: 1,4-dimethylbenzene, C8H10, InChI=1S/C8H10/c1-7-3-5-8(2)6-4-7/h3-6H,1-2H3, purity 99%
Compound 25: styrene, C8H8, InChI=1S/C8H8/c1-2-8-6-4-3-5-7-8/h2-7H,1H2, purity 99%
Compound 26: acetone, C3H6O, InChI=1S/C3H6O/c1-3(2)4/h1-2H3, purity 99%
Compound 27: acetonitrile, C2H3N, InChI=1S/C2H3N/c1-2-3/h1H3, purity 99%
Compound 28: tetrahydrofuran, C4H8O, InChI=1S/C4H8O/c1-2-4-5-3-1/h1-4H2, purity 99%
Compound 29: 1,4-dioxane, C4H8O2, InChI=1S/C4H8O2/c1-2-6-4-3-5-1/h1-4H2, purity 99%
Compound 30: ethyl acetate, C4H8O2, InChI=1S/C4H8O2/c1-3-6-4(2)5/h3H2,1-2H3, purity 99%
Compound 31: cyclohexene, C6H10, InChI=1S/C6H10/c1-2-4-6-5-3-1/h1-2H,3-6H2, purity 99%
Compound 32: dichloromethane, CH2Cl2, InChI=1S/CH2Cl2/c2-1-3/h1H2, purity 99%
Compound 33: trichloromethane, CHCl3, InChI=1S/CHCl3/c2-1(3)4/h1H, purity 99%
Compound 34: tetrachloromethane, CCl4, InChI=1S/CCl4/c2-1(3,4)5, purity 99%

System: 1-methyl-3-propylimidazolium bromide; phases: Liquid
Fixed: Pressure, kPa = 101.3
Property: Mass density, kg/m3 (Liquid); method: Vibrating tube method
Temperature, K	Mass density, kg/m3	uncertainty
323.15	1317.74	2.45
333.15	1310.86	2.45
343.15	1304.04	2.44
353.15	1297.27	2.44
363.15	1290.33	2.44

System: 1-methyl-3-propylimidazolium bromide + hexane; phases: Liquid
Fixed: Mole fraction of hexane = 0
Fixed: Pressure, kPa = 101.325
Property: Activity coefficient of hexane (Liquid); method: Chromatography
Temperature, K	Activity coefficient of hexane	uncertainty
323.15	102.5	10.8
333.15	98.9	10.4
343.15	95.6	10.1
353.15	92.5	9.7
363.15	89.9	9.5

System: 1-methyl-3-propylimidazolium bromide + heptane; phases: Liquid
Fixed: Mole fraction of heptane = 0
Fixed: Pressure, kPa = 101.325
Property: Activity coefficient of heptane (Liquid); method: Chromatography
Temperature, K	Activity coefficient of heptane	uncertainty
323.15	105.7	11.1
333.15	102.1	10.8
343.15	98.5	10.4
353.15	95.4	10.1
363.15	92.5	9.7

System: 1-methyl-3-propylimidazolium bromide + octane; phases: Liquid
Fixed: Mole fraction of octane = 0
Fixed: Pressure, kPa = 101.325
Property: Activity coefficient of octane (Liquid); method: Chromatography
Temperature, K	Activity coefficient of octane	uncertainty
323.15	110.8	11.7
333.15	107.3	11.3
343.15	103.6	10.9
353.15	100.5	10.6
363.15	97.7	10.3

System: 1-methyl-3-propylimidazolium bromide + 2,2,4-trimethylpentane; phases: Liquid
Fixed: Mole fraction of 2,2,4-trimethylpentane = 0
Fixed: Pressure, kPa = 101.325
Property: Activity coefficient of 2,2,4-trimethylpentane (Liquid); method: Chromatography
Temperature, K	Activity coefficient of 2,2,4-trimethylpentane	uncertainty
323.15	115.2	12.1
333.15	111.1	11.7
343.15	107.5	11.3
353.15	103.8	10.9
363.15	100.7	10.6

System: 1-methyl-3-propylimidazolium bromide + nonane; phases: Liquid
Fixed: Mole fraction of nonane = 0
Fixed: Pressure, kPa = 101.325
Property: Activity coefficient of nonane (Liquid); method: Chromatography
Temperature, K	Activity coefficient of nonane	uncertainty
323.15	119.3	12.6
333.15	114.6	12.1
343.15	110.2	11.6
353.15	106.2	11.2
363.15	102.6	10.8

System: 1-methyl-3-propylimidazolium bromide + decane; phases: Liquid
Fixed: Mole fraction of decane = 0
Fixed: Pressure, kPa = 101.325
Property: Activity coefficient of decane (Liquid); method: Chromatography
Temperature, K	Activity coefficient of decane	uncertainty
323.15	130	13.7
333.15	123.7	13
343.15	117.7	12.4
353.15	112.4	11.8
363.15	107.8	11.4

System: 1-methyl-3-propylimidazolium bromide + cyclohexane; phases: Liquid
Fixed: Mole fraction of cyclohexane = 0
Fixed: Pressure, kPa = 101.325
Property: Activity coefficient of cyclohexane (Liquid); method: Chromatography
Temperature, K	Activity coefficient of cyclohexane	uncertainty
323.15	66.19	6.97
333.15	64.48	6.79
343.15	62.92	6.63
353.15	61.58	6.49
363.15	60.37	6.36

System: 1-methyl-3-propylimidazolium bromide + methylcyclohexane; phases: Liquid
Fixed: Mole fraction of methylcyclohexane = 0
Fixed: Pressure, kPa = 101.325
Property: Activity coefficient of methylcyclohexane (Liquid); method: Chromatography
Temperature, K	Activity coefficient of methylcyclohexane	uncertainty
323.15	82.27	8.67
333.15	79.87	8.41
343.15	77.47	8.16
353.15	75.21	7.92
363.15	73.18	7.71

System: 1-methyl-3-propylimidazolium bromide + methanol; phases: Liquid
Fixed: Mole fraction of methanol = 0
Fixed: Pressure, kPa = 101.325
Property: Activity coefficient of methanol (Liquid); method: Chromatography
Temperature, K	Activity coefficient of methanol	uncertainty
323.15	0.1116	0.0297
333.15	0.1084	0.0297
343.15	0.1056	0.0298
353.15	0.1034	0.0298
363.15	0.1015	0.0298

System: 1-methyl-3-propylimidazolium bromide + ethanol; phases: Liquid
Fixed: Mole fraction of ethanol = 0
Fixed: Pressure, kPa = 101.325
Property: Activity coefficient of ethanol (Liquid); method: Chromatography
Temperature, K	Activity coefficient of ethanol	uncertainty
323.15	0.208	0.0334
333.15	0.1969	0.0328
343.15	0.1895	0.0324
353.15	0.1843	0.0321
363.15	0.1804	0.032

System: 1-methyl-3-propylimidazolium bromide + propan-1-ol; phases: Liquid
Fixed: Mole fraction of propan-1-ol = 0
Fixed: Pressure, kPa = 101.325
Property: Activity coefficient of propan-1-ol (Liquid); method: Chromatography
Temperature, K	Activity coefficient of propan-1-ol	uncertainty
323.15	0.2787	0.0377
333.15	0.2678	0.0369
343.15	0.2578	0.0363
353.15	0.2504	0.0358
363.15	0.2436	0.0354

System: 1-methyl-3-propylimidazolium bromide + propan-2-ol; phases: Liquid
Fixed: Mole fraction of propan-2-ol = 0
Fixed: Pressure, kPa = 101.325
Property: Activity coefficient of propan-2-ol (Liquid); method: Chromatography
Temperature, K	Activity coefficient of propan-2-ol	uncertainty
323.15	0.3732	0.0445
333.15	0.3586	0.0434
343.15	0.3445	0.0423
353.15	0.3343	0.0416
363.15	0.3258	0.041

System: 1-methyl-3-propylimidazolium bromide + butan-1-ol; phases: Liquid
Fixed: Mole fraction of butan-1-ol = 0
Fixed: Pressure, kPa = 101.325
Property: Activity coefficient of butan-1-ol (Liquid); method: Chromatography
Temperature, K	Activity coefficient of butan-1-ol	uncertainty
323.15	0.4378	0.0498
333.15	0.4166	0.048
343.15	0.402	0.0468
353.15	0.3882	0.0457
363.15	0.3786	0.045

System: 1-methyl-3-propylimidazolium bromide + 2-methyl-1-propanol; phases: Liquid
Fixed: Mole fraction of 2-methyl-1-propanol = 0
Fixed: Pressure, kPa = 101.325
Property: Activity coefficient of 2-methyl-1-propanol (Liquid); method: Chromatography
Temperature, K	Activity coefficient of 2-methyl-1-propanol	uncertainty
323.15	0.4259	0.0488
333.15	0.4057	0.0471
343.15	0.3897	0.0458
353.15	0.3781	0.0449
363.15	0.3684	0.0442

System: 1-methyl-3-propylimidazolium bromide + butan-2-ol; phases: Liquid
Fixed: Mole fraction of butan-2-ol = 0
Fixed: Pressure, kPa = 101.325
Property: Activity coefficient of butan-2-ol (Liquid); method: Chromatography
Temperature, K	Activity coefficient of butan-2-ol	uncertainty
323.15	0.5205	0.0568
333.15	0.5004	0.0551
343.15	0.4846	0.0537
353.15	0.4712	0.0526
363.15	0.4616	0.0517

System: 1-methyl-3-propylimidazolium bromide + pentan-1-ol; phases: Liquid
Fixed: Mole fraction of pentan-1-ol = 0
Fixed: Pressure, kPa = 101.325
Property: Activity coefficient of pentan-1-ol (Liquid); method: Chromatography
Temperature, K	Activity coefficient of pentan-1-ol	uncertainty
323.15	0.6922	0.0723
333.15	0.6515	0.0686
343.15	0.6186	0.0656
353.15	0.5922	0.0632
363.15	0.5752	0.0616

System: 1-methyl-3-propylimidazolium bromide + 3-methylbutan-1-ol; phases: Liquid
Fixed: Mole fraction of 3-methylbutan-1-ol = 0
Fixed: Pressure, kPa = 101.325
Property: Activity coefficient of 3-methylbutan-1-ol (Liquid); method: Chromatography
Temperature, K	Activity coefficient of 3-methylbutan-1-ol	uncertainty
323.15	0.6197	0.0657
333.15	0.5867	0.0627
343.15	0.5642	0.0607
353.15	0.5476	0.0592
363.15	0.5312	0.0577

System: 1-methyl-3-propylimidazolium bromide + benzene; phases: Liquid
Fixed: Mole fraction of benzene = 0
Fixed: Pressure, kPa = 101.325
Property: Activity coefficient of benzene (Liquid); method: Chromatography
Temperature, K	Activity coefficient of benzene	uncertainty
323.15	1.7	0.18
333.15	1.79	0.19
343.15	1.89	0.2
353.15	2	0.21
363.15	2.11	0.22

System: 1-methyl-3-propylimidazolium bromide + toluene; phases: Liquid
Fixed: Mole fraction of toluene = 0
Fixed: Pressure, kPa = 101.325
Property: Activity coefficient of toluene (Liquid); method: Chromatography
Temperature, K	Activity coefficient of toluene	uncertainty
323.15	2.95	0.31
333.15	3.11	0.33
343.15	3.33	0.35
353.15	3.5	0.37
363.15	3.72	0.39

System: 1-methyl-3-propylimidazolium bromide + ethylbenzene; phases: Liquid
Fixed: Mole fraction of ethylbenzene = 0
Fixed: Pressure, kPa = 101.325
Property: Activity coefficient of ethylbenzene (Liquid); method: Chromatography
Temperature, K	Activity coefficient of ethylbenzene	uncertainty
323.15	5.48	0.58
333.15	5.67	0.6
343.15	5.84	0.61
353.15	6.01	0.63
363.15	6.19	0.65

System: 1-methyl-3-propylimidazolium bromide + 1,2-dimethylbenzene; phases: Liquid
Fixed: Mole fraction of 1,2-dimethylbenzene = 0
Fixed: Pressure, kPa = 101.325
Property: Activity coefficient of 1,2-dimethylbenzene (Liquid); method: Chromatography
Temperature, K	Activity coefficient of 1,2-dimethylbenzene	uncertainty
323.15	4.19	0.44
333.15	4.3	0.45
343.15	4.49	0.47
353.15	4.71	0.49
363.15	4.97	0.52

System: 1-methyl-3-propylimidazolium bromide + 1,3-dimethylbenzene; phases: Liquid
Fixed: Mole fraction of 1,3-dimethylbenzene = 0
Fixed: Pressure, kPa = 101.325
Property: Activity coefficient of 1,3-dimethylbenzene (Liquid); method: Chromatography
Temperature, K	Activity coefficient of 1,3-dimethylbenzene	uncertainty
323.15	5.91	0.62
333.15	6.04	0.63
343.15	6.18	0.65
353.15	6.33	0.67
363.15	6.47	0.68

System: 1-methyl-3-propylimidazolium bromide + 1,4-dimethylbenzene; phases: Liquid
Fixed: Mole fraction of 1,4-dimethylbenzene = 0
Fixed: Pressure, kPa = 101.325
Property: Activity coefficient of 1,4-dimethylbenzene (Liquid); method: Chromatography
Temperature, K	Activity coefficient of 1,4-dimethylbenzene	uncertainty
323.15	5.65	0.59
333.15	5.8	0.61
343.15	5.95	0.63
353.15	6.11	0.64
363.15	6.3	0.66

System: 1-methyl-3-propylimidazolium bromide + styrene; phases: Liquid
Fixed: Mole fraction of styrene = 0
Fixed: Pressure, kPa = 101.325
Property: Activity coefficient of styrene (Liquid); method: Chromatography
Temperature, K	Activity coefficient of styrene	uncertainty
323.15	1.83	0.19
333.15	1.92	0.2
343.15	2	0.21
353.15	2.08	0.22
363.15	2.17	0.23

System: 1-methyl-3-propylimidazolium bromide + acetone; phases: Liquid
Fixed: Mole fraction of acetone = 0
Fixed: Pressure, kPa = 101.325
Property: Activity coefficient of acetone (Liquid); method: Chromatography
Temperature, K	Activity coefficient of acetone	uncertainty
323.15	1.06	0.11
333.15	1.14	0.12
343.15	1.21	0.12
353.15	1.29	0.13
363.15	1.37	0.14

System: 1-methyl-3-propylimidazolium bromide + acetonitrile; phases: Liquid
Fixed: Mole fraction of acetonitrile = 0
Fixed: Pressure, kPa = 101.325
Property: Activity coefficient of acetonitrile (Liquid); method: Chromatography
Temperature, K	Activity coefficient of acetonitrile	uncertainty
323.15	0.37	0.04
333.15	0.39	0.05
343.15	0.41	0.05
353.15	0.44	0.05
363.15	0.48	0.05

System: 1-methyl-3-propylimidazolium bromide + tetrahydrofuran; phases: Liquid
Fixed: Mole fraction of tetrahydrofuran = 0
Fixed: Pressure, kPa = 101.325
Property: Activity coefficient of tetrahydrofuran (Liquid); method: Chromatography
Temperature, K	Activity coefficient of tetrahydrofuran	uncertainty
323.15	2.11	0.22
333.15	2.19	0.23
343.15	2.28	0.24
353.15	2.37	0.25
363.15	2.47	0.26

System: 1-methyl-3-propylimidazolium bromide + 1,4-dioxane; phases: Liquid
Fixed: Mole fraction of 1,4-dioxane = 0
Fixed: Pressure, kPa = 101.325
Property: Activity coefficient of 1,4-dioxane (Liquid); method: Chromatography
Temperature, K	Activity coefficient of 1,4-dioxane	uncertainty
323.15	1.01	0.1
333.15	1.05	0.11
343.15	1.11	0.11
353.15	1.17	0.12
363.15	1.23	0.13

System: 1-methyl-3-propylimidazolium bromide + ethyl acetate; phases: Liquid
Fixed: Mole fraction of ethyl acetate = 0
Fixed: Pressure, kPa = 101.325
Property: Activity coefficient of ethyl acetate (Liquid); method: Chromatography
Temperature, K	Activity coefficient of ethyl acetate	uncertainty
323.15	3.68	0.39
333.15	3.86	0.41
343.15	4.07	0.43
353.15	4.27	0.45
363.15	4.46	0.47

System: 1-methyl-3-propylimidazolium bromide + cyclohexene; phases: Liquid
Fixed: Mole fraction of cyclohexene = 0
Fixed: Pressure, kPa = 101.325
Property: Activity coefficient of cyclohexene (Liquid); method: Chromatography
Temperature, K	Activity coefficient of cyclohexene	uncertainty
323.15	21.7	2.3
333.15	20.6	2.2
343.15	19.7	2.1
353.15	18.8	2
363.15	18.1	1.9

System: 1-methyl-3-propylimidazolium bromide + dichloromethane; phases: Liquid
Fixed: Mole fraction of dichloromethane = 0
Fixed: Pressure, kPa = 101.325
Property: Activity coefficient of dichloromethane (Liquid); method: Chromatography
Temperature, K	Activity coefficient of dichloromethane	uncertainty
323.15	0.27	0.04
333.15	0.29	0.04
343.15	0.31	0.04
353.15	0.34	0.04
363.15	0.38	0.05

System: 1-methyl-3-propylimidazolium bromide + trichloromethane; phases: Liquid
Fixed: Mole fraction of trichloromethane = 0
Fixed: Pressure, kPa = 101.325
Property: Activity coefficient of trichloromethane (Liquid); method: Chromatography
Temperature, K	Activity coefficient of trichloromethane	uncertainty
323.15	0.13	0.03
333.15	0.15	0.03
343.15	0.16	0.03
353.15	0.18	0.03
363.15	0.2	0.03

System: 1-methyl-3-propylimidazolium bromide + tetrachloromethane; phases: Liquid
Fixed: Mole fraction of tetrachloromethane = 0
Fixed: Pressure, kPa = 101.325
Property: Activity coefficient of tetrachloromethane (Liquid); method: Chromatography
Temperature, K	Activity coefficient of tetrachloromethane	uncertainty
323.15	0.78	0.08
333.15	0.86	0.09
343.15	0.96	0.1
353.15	1.07	0.11
363.15	1.17	0.12
