Measured thermophysical data. Volumetric and acoustic properties of some sodium sulfonamides in dilute aqueous solutions at several temperatures
Source: J. Chem. Thermodyn., 2018, 10.1016/j.jct.2017.11.007
Compound 1: sodium ((4-aminophenyl)sulfonyl)(pyrimidin-2-yl)amide, C10H9N4NaO2S, InChI=1S/C10H9N4O2S.Na/c11-8-2-4-9(5-3-8)17(15,16)14-10-12-6-1-7-13-10;/h1-7H,11H2;/q-1;+1, purity 99%
Compound 2: sodium ((4-aminophenyl)sulfonyl)(4-methylpyrimidin-2-yl)amide, C11H11N4NaO2S, InChI=1S/C11H11N4O2S.Na/c1-8-6-7-13-11(14-8)15-18(16,17)10-4-2-9(12)3-5-10;/h2-7H,12H2,1H3;/q-1;+1, purity 99%
Compound 3: sodium ((4-aminophenyl)sulfonyl)(4,6-dimethylpyrimidin-2-yl)amide, C12H13N4NaO2S, InChI=1S/C12H13N4O2S.Na/c1-8-7-9(2)15-12(14-8)16-19(17,18)11-5-3-10(13)4-6-11;/h3-7H,13H2,1-2H3;/q-1;+1, purity 99%
Compound 4: water, H2O, InChI=1S/H2O/h1H2

System: sodium ((4-aminophenyl)sulfonyl)(pyrimidin-2-yl)amide + water; phases: Liquid
Fixed: Pressure, kPa = 74.66
Property: Mass density, kg/m3 (Liquid); method: Vibrating tube method
Temperature, K	Molality, mol/kg of sodium ((4-aminophenyl)sulfonyl)(pyrimidin-2-yl)amide	Mass density, kg/m3	uncertainty
278.15	0	999.964	0.109
278.15	0.00502	1000.58	0.109
278.15	0.00803	1000.946	0.109
278.15	0.01001	1001.19	0.109
278.15	0.015	1001.805	0.109
278.15	0.01974	1002.384	0.109
278.15	0.025	1003.029	0.11
278.15	0.03001	1003.643	0.11
278.15	0.03441	1004.183	0.11
278.15	0.04001	1004.868	0.111
278.15	0.04502	1005.482	0.111
278.15	0.05	1006.092	0.112
278.15	0.05499	1006.707	0.112
278.15	0.06001	1007.327	0.113
283.15	0	999.697	0.109
283.15	0.00502	1000.307	0.109
283.15	0.00803	1000.668	0.109
283.15	0.01	1000.91	0.109
283.15	0.015	1001.511	0.109
283.15	0.02	1002.111	0.109
283.15	0.025	1002.717	0.11
283.15	0.03001	1003.322	0.11
283.15	0.03441	1003.854	0.11
283.15	0.04001	1004.53	0.111
283.15	0.04502	1005.141	0.111
283.15	0.04999	1005.739	0.112
283.15	0.055	1006.355	0.112
283.15	0.06001	1006.972	0.113
288.15	0	999.096	0.109
288.15	0.00502	999.701	0.109
288.15	0.00803	1000.059	0.109
288.15	0.01001	1000.292	0.109
288.15	0.015	1000.889	0.109
288.15	0.01974	1001.453	0.109
288.15	0.025	1002.083	0.11
288.15	0.02996	1002.676	0.11
288.15	0.03441	1003.211	0.11
288.15	0.04001	1003.878	0.111
288.15	0.04502	1004.479	0.111
288.15	0.04999	1005.072	0.112
288.15	0.055	1005.673	0.112
288.15	0.06001	1006.274	0.113
293.15	0	998.2	0.109
293.15	0.00502	998.804	0.109
293.15	0.00803	999.154	0.109
293.15	0.01	999.391	0.109
293.15	0.015	999.98	0.109
293.15	0.01974	1000.538	0.109
293.15	0.025	1001.161	0.109
293.15	0.03001	1001.752	0.11
293.15	0.03441	1002.269	0.11
293.15	0.04001	1002.928	0.111
293.15	0.04502	1003.52	0.111
293.15	0.04999	1004.105	0.111
293.15	0.055	1004.7	0.112
293.15	0.06001	1005.292	0.112
298.15	0	997.042	0.11
298.15	0.00502	997.639	0.109
298.15	0.00803	997.986	0.109
298.15	0.01	998.218	0.109
298.15	0.015	998.803	0.109
298.15	0.02	999.385	0.109
298.15	0.025	999.97	0.109
298.15	0.03001	1000.553	0.11
298.15	0.03441	1001.068	0.11
298.15	0.04001	1001.721	0.11
298.15	0.04502	1002.305	0.111
298.15	0.04999	1002.886	0.111
298.15	0.055	1003.471	0.112
298.15	0.06001	1004.056	0.112
303.15	0	995.642	0.11
303.15	0.00502	996.237	0.109
303.15	0.00803	996.586	0.109
303.15	0.01001	996.812	0.109
303.15	0.015	997.393	0.109
303.15	0.01999	997.967	0.109
303.15	0.025	998.549	0.109
303.15	0.03	999.123	0.11
303.15	0.03441	999.633	0.11
303.15	0.04001	1000.283	0.11
303.15	0.04502	1000.863	0.111
303.15	0.04999	1001.438	0.111
303.15	0.05501	1002.018	0.112
303.15	0.06001	1002.594	0.112
308.15	0	994.029	0.11
308.15	0.00502	994.619	0.109
308.15	0.00803	994.964	0.109
308.15	0.01	995.191	0.109
308.15	0.015	995.762	0.109
308.15	0.01974	996.307	0.11
308.15	0.025	996.907	0.11
308.15	0.02999	997.478	0.11
308.15	0.03441	997.983	0.11
308.15	0.04001	998.627	0.11
308.15	0.04502	999.198	0.111
308.15	0.05002	999.769	0.111
308.15	0.05501	1000.346	0.111
308.15	0.06001	1000.922	0.112

System: sodium ((4-aminophenyl)sulfonyl)(pyrimidin-2-yl)amide + water; phases: Liquid
Fixed: Pressure, kPa = 74.66
Fixed: Frequency, MHz = 3
Property: Speed of sound, m/s (Liquid); method: Single path-length method
Temperature, K	Molality, mol/kg of sodium ((4-aminophenyl)sulfonyl)(pyrimidin-2-yl)amide	Speed of sound, m/s	uncertainty
278.15	0	1426.81	1.22
278.15	0.00502	1427.98	1.22
278.15	0.00803	1428.49	1.22
278.15	0.01001	1428.96	1.22
278.15	0.015	1429.85	1.22
278.15	0.01974	1430.77	1.22
278.15	0.025	1431.81	1.22
278.15	0.03001	1433.01	1.22
278.15	0.03441	1433.82	1.22
278.15	0.04001	1434.67	1.22
278.15	0.04502	1435.69	1.22
278.15	0.05	1436.75	1.22
278.15	0.05499	1437.75	1.22
278.15	0.06001	1438.69	1.22
283.15	0	1447.66	1.22
283.15	0.00502	1448.76	1.22
283.15	0.00803	1449.58	1.22
283.15	0.01	1449.71	1.22
283.15	0.015	1450.83	1.22
283.15	0.02	1451.63	1.22
283.15	0.025	1452.64	1.22
283.15	0.03001	1453.54	1.22
283.15	0.03441	1454.11	1.22
283.15	0.04001	1455.27	1.22
283.15	0.04502	1456.06	1.22
283.15	0.04999	1457.05	1.22
283.15	0.055	1458.05	1.22
283.15	0.06001	1459.14	1.22
288.15	0	1466.2	1.22
288.15	0.00502	1467.23	1.22
288.15	0.00803	1467.93	1.22
288.15	0.01001	1468.18	1.22
288.15	0.015	1469.06	1.22
288.15	0.01974	1469.62	1.22
288.15	0.025	1470.66	1.22
288.15	0.02996	1471.61	1.22
288.15	0.03441	1472.32	1.22
288.15	0.04001	1473.49	1.22
288.15	0.04502	1474.26	1.22
288.15	0.04999	1475.21	1.22
288.15	0.055	1476.15	1.22
288.15	0.06001	1476.95	1.22
293.15	0	1482.5	1.22
293.15	0.00502	1483.47	1.22
293.15	0.00803	1483.97	1.22
293.15	0.01	1484.42	1.22
293.15	0.015	1485.21	1.22
293.15	0.01974	1485.52	1.22
293.15	0.025	1486.75	1.22
293.15	0.03001	1487.48	1.22
293.15	0.03441	1488.22	1.22
293.15	0.04001	1489.23	1.22
293.15	0.04502	1490.06	1.22
293.15	0.04999	1490.83	1.22
293.15	0.055	1491.74	1.22
293.15	0.06001	1492.51	1.22
298.15	0	1496.73	1.22
298.15	0.00502	1497.63	1.22
298.15	0.00803	1498.09	1.22
298.15	0.01	1498.44	1.22
298.15	0.015	1499.31	1.22
298.15	0.01974	1500.01	1.22
298.15	0.025	1500.66	1.22
298.15	0.03001	1501.44	1.22
298.15	0.03441	1501.99	1.22
298.15	0.04001	1502.94	1.22
298.15	0.04502	1503.79	1.22
298.15	0.04999	1504.66	1.22
298.15	0.055	1505.28	1.22
298.15	0.06001	1506.12	1.22
303.15	0	1509.13	1.22
303.15	0.00502	1510.05	1.22
303.15	0.00803	1510.55	1.22
303.15	0.01001	1510.73	1.22
303.15	0.015	1511.41	1.22
303.15	0.01999	1512.28	1.22
303.15	0.025	1513.02	1.22
303.15	0.03	1513.71	1.22
303.15	0.03441	1514.14	1.22
303.15	0.04001	1515.18	1.22
303.15	0.04502	1516	1.22
303.15	0.04999	1516.44	1.22
303.15	0.05501	1517.46	1.22
303.15	0.06001	1518.15	1.22
308.15	0	1519.81	1.22
308.15	0.00502	1520.63	1.22
308.15	0.00803	1521.08	1.22
308.15	0.01	1521.18	1.22
308.15	0.015	1521.93	1.22
308.15	0.01974	1522.83	1.22
308.15	0.025	1523.2	1.22
308.15	0.02999	1524.03	1.22
308.15	0.03441	1524.48	1.22
308.15	0.04001	1525.3	1.22
308.15	0.04502	1526.19	1.22
308.15	0.05002	1526.66	1.22
308.15	0.05501	1527.53	1.22
308.15	0.06001	1528.17	1.22

System: sodium ((4-aminophenyl)sulfonyl)(4-methylpyrimidin-2-yl)amide + water; phases: Liquid
Fixed: Pressure, kPa = 74.66
Property: Mass density, kg/m3 (Liquid); method: Vibrating tube method
Temperature, K	Molality, mol/kg of sodium ((4-aminophenyl)sulfonyl)(4-methylpyrimidin-2-yl)amide	Mass density, kg/m3	uncertainty
278.15	0	999.964	0.109
278.15	0.005	1000.556	0.109
278.15	0.008	1000.911	0.109
278.15	0.01	1001.146	0.109
278.15	0.01486	1001.719	0.109
278.15	0.02002	1002.325	0.109
278.15	0.025	1002.909	0.11
278.15	0.03001	1003.495	0.11
278.15	0.035	1004.079	0.11
278.15	0.03931	1004.585	0.111
278.15	0.045	1005.248	0.111
278.15	0.05	1005.832	0.112
278.15	0.05502	1006.417	0.112
278.15	0.05998	1006.997	0.113
283.15	0	999.697	0.109
283.15	0.005	1000.284	0.109
283.15	0.008	1000.635	0.109
283.15	0.01	1000.865	0.109
283.15	0.01486	1001.422	0.109
283.15	0.02002	1002.021	0.109
283.15	0.025	1002.598	0.11
283.15	0.03001	1003.176	0.11
283.15	0.035	1003.749	0.11
283.15	0.04002	1004.327	0.111
283.15	0.045	1004.898	0.111
283.15	0.04968	1005.433	0.112
283.15	0.05502	1006.051	0.112
283.15	0.05998	1006.62	0.113
288.15	0	999.096	0.109
288.15	0.005	999.679	0.109
288.15	0.008	1000.024	0.109
288.15	0.01	1000.25	0.109
288.15	0.01486	1000.805	0.109
288.15	0.02002	1001.387	0.109
288.15	0.025	1001.959	0.11
288.15	0.03001	1002.528	0.11
288.15	0.035	1003.093	0.11
288.15	0.04002	1003.664	0.111
288.15	0.04499	1004.227	0.111
288.15	0.05	1004.802	0.111
288.15	0.05501	1005.37	0.112
288.15	0.05998	1005.944	0.112
293.15	0	998.2	0.109
293.15	0.005	998.778	0.109
293.15	0.008	999.118	0.109
293.15	0.01	999.342	0.109
293.15	0.01486	999.886	0.109
293.15	0.02002	1000.47	0.109
293.15	0.025	1001.029	0.109
293.15	0.03001	1001.592	0.11
293.15	0.035	1002.149	0.11
293.15	0.04002	1002.714	0.11
293.15	0.04499	1003.267	0.111
293.15	0.05	1003.835	0.111
293.15	0.05501	1004.396	0.112
293.15	0.05998	1004.962	0.112
298.15	0	997.042	0.11
298.15	0.005	997.615	0.109
298.15	0.008	997.95	0.109
298.15	0.01	998.172	0.109
298.15	0.01486	998.708	0.109
298.15	0.02002	999.286	0.109
298.15	0.025	999.841	0.109
298.15	0.03001	1000.395	0.11
298.15	0.035	1000.946	0.11
298.15	0.04002	1001.505	0.11
298.15	0.04499	1002.054	0.111
298.15	0.05	1002.613	0.111
298.15	0.05501	1003.167	0.112
298.15	0.05998	1003.727	0.112
303.15	0	995.642	0.11
303.15	0.005	996.212	0.109
303.15	0.008	996.544	0.109
303.15	0.01	996.764	0.109
303.15	0.01486	997.296	0.109
303.15	0.02002	997.863	0.109
303.15	0.025	998.416	0.11
303.15	0.03001	998.961	0.11
303.15	0.035	999.509	0.11
303.15	0.04002	1000.062	0.11
303.15	0.04499	1000.606	0.111
303.15	0.05	1001.16	0.111
303.15	0.05501	1001.705	0.111
303.15	0.05998	1002.262	0.112
308.15	0	994.029	0.11
308.15	0.005	994.593	0.109
308.15	0.008	994.922	0.109
308.15	0.01	995.14	0.109
308.15	0.01486	995.663	0.109
308.15	0.02002	996.227	0.11
308.15	0.025	996.774	0.11
308.15	0.03001	997.316	0.11
308.15	0.035	997.858	0.11
308.15	0.04002	998.402	0.11
308.15	0.04499	998.941	0.111
308.15	0.05	999.494	0.111
308.15	0.05501	1000.033	0.111
308.15	0.05998	1000.582	0.112

System: sodium ((4-aminophenyl)sulfonyl)(4-methylpyrimidin-2-yl)amide + water; phases: Liquid
Fixed: Pressure, kPa = 74.66
Fixed: Frequency, MHz = 3
Property: Speed of sound, m/s (Liquid); method: Single path-length method
Temperature, K	Molality, mol/kg of sodium ((4-aminophenyl)sulfonyl)(4-methylpyrimidin-2-yl)amide	Speed of sound, m/s	uncertainty
278.15	0	1426.81	1.22
278.15	0.005	1428.09	1.22
278.15	0.008	1428.74	1.22
278.15	0.01	1429.22	1.22
278.15	0.01486	1430.25	1.22
278.15	0.02002	1431	1.22
278.15	0.025	1432.21	1.22
278.15	0.03001	1433.37	1.22
278.15	0.035	1434.24	1.22
278.15	0.03931	1435.46	1.22
278.15	0.045	1436.39	1.22
278.15	0.05	1437.46	1.22
278.15	0.05502	1438.52	1.22
278.15	0.05998	1439.4	1.22
283.15	0	1447.66	1.22
283.15	0.005	1448.94	1.22
283.15	0.008	1449.42	1.22
283.15	0.01	1449.85	1.22
283.15	0.01486	1450.81	1.22
283.15	0.02002	1451.6	1.22
283.15	0.025	1452.73	1.22
283.15	0.03001	1453.69	1.22
283.15	0.035	1454.62	1.22
283.15	0.04002	1455.61	1.22
283.15	0.045	1456.65	1.22
283.15	0.04968	1457.4	1.22
283.15	0.05502	1458.5	1.22
283.15	0.05998	1459.39	1.22
288.15	0	1466.2	1.22
288.15	0.005	1467.55	1.22
288.15	0.008	1467.84	1.22
288.15	0.01	1468.23	1.22
288.15	0.01486	1469.26	1.22
288.15	0.02002	1469.91	1.22
288.15	0.025	1470.94	1.22
288.15	0.03001	1471.83	1.22
288.15	0.035	1472.72	1.22
288.15	0.04002	1473.66	1.22
288.15	0.04499	1474.59	1.22
288.15	0.05	1475.42	1.22
288.15	0.05501	1476.52	1.22
288.15	0.05998	1477.22	1.22
293.15	0	1482.5	1.22
293.15	0.005	1483.65	1.22
293.15	0.008	1484.03	1.22
293.15	0.01	1484.4	1.22
293.15	0.01486	1485.27	1.22
293.15	0.02002	1486.09	1.22
293.15	0.025	1486.95	1.22
293.15	0.03001	1487.79	1.22
293.15	0.035	1488.64	1.22
293.15	0.04002	1489.49	1.22
293.15	0.04499	1490.33	1.22
293.15	0.05	1491.19	1.22
293.15	0.05501	1492.05	1.22
293.15	0.05998	1492.84	1.22
298.15	0	1496.73	1.22
298.15	0.005	1497.79	1.22
298.15	0.008	1498.19	1.22
298.15	0.01	1498.53	1.22
298.15	0.01486	1499.34	1.22
298.15	0.02002	1500.05	1.22
298.15	0.025	1500.93	1.22
298.15	0.03001	1501.72	1.22
298.15	0.035	1502.51	1.22
298.15	0.04002	1503.31	1.22
298.15	0.04499	1504.14	1.22
298.15	0.05	1504.82	1.22
298.15	0.05501	1505.71	1.22
298.15	0.05998	1506.47	1.22
303.15	0	1509.13	1.22
303.15	0.005	1510.01	1.22
303.15	0.008	1510.5	1.22
303.15	0.01	1510.8	1.22
303.15	0.01486	1511.56	1.22
303.15	0.02002	1512.28	1.22
303.15	0.025	1513.09	1.22
303.15	0.03001	1513.83	1.22
303.15	0.035	1514.59	1.22
303.15	0.04002	1515.33	1.22
303.15	0.04499	1516.09	1.22
303.15	0.05	1516.83	1.22
303.15	0.05501	1517.59	1.22
303.15	0.05998	1518.3	1.22
308.15	0	1519.81	1.22
308.15	0.005	1520.62	1.22
308.15	0.008	1521.1	1.22
308.15	0.01	1521.36	1.22
308.15	0.01486	1522.07	1.22
308.15	0.02002	1522.82	1.22
308.15	0.025	1523.51	1.22
308.15	0.03001	1524.2	1.22
308.15	0.035	1524.94	1.22
308.15	0.04002	1525.67	1.22
308.15	0.04499	1526.34	1.22
308.15	0.05	1527.11	1.22
308.15	0.05501	1527.75	1.22
308.15	0.05998	1528.4	1.22

System: sodium ((4-aminophenyl)sulfonyl)(4,6-dimethylpyrimidin-2-yl)amide + water; phases: Liquid
Fixed: Pressure, kPa = 74.66
Property: Mass density, kg/m3 (Liquid); method: Vibrating tube method
Temperature, K	Molality, mol/kg of sodium ((4-aminophenyl)sulfonyl)(4,6-dimethylpyrimidin-2-yl)amide	Mass density, kg/m3	uncertainty
278.15	0	999.964	0.109
278.15	0.00501	1000.545	0.109
278.15	0.00799	1000.882	0.109
278.15	0.01	1001.114	0.109
278.15	0.01488	1001.668	0.109
278.15	0.01983	1002.228	0.109
278.15	0.02501	1002.813	0.11
278.15	0.02961	1003.335	0.11
278.15	0.03503	1003.947	0.11
278.15	0.0401	1004.521	0.111
278.15	0.04493	1005.059	0.111
278.15	0.04993	1005.627	0.112
278.15	0.05504	1006.204	0.112
278.15	0.05966	1006.731	0.113
283.15	0	999.697	0.109
283.15	0.00501	1000.269	0.109
283.15	0.00799	1000.602	0.109
283.15	0.01	1000.828	0.109
283.15	0.01488	1001.374	0.109
283.15	0.01983	1001.925	0.109
283.15	0.02501	1002.499	0.11
283.15	0.02961	1003.011	0.11
283.15	0.03503	1003.611	0.11
283.15	0.0401	1004.176	0.111
283.15	0.04493	1004.708	0.111
283.15	0.04993	1005.266	0.112
283.15	0.05504	1005.833	0.112
283.15	0.05966	1006.349	0.113
288.15	0	999.096	0.109
288.15	0.00501	999.659	0.109
288.15	0.00799	999.989	0.109
288.15	0.01	1000.212	0.109
288.15	0.01488	1000.749	0.109
288.15	0.01983	1001.292	0.109
288.15	0.02501	1001.856	0.11
288.15	0.02961	1002.361	0.11
288.15	0.03503	1002.951	0.11
288.15	0.0401	1003.507	0.111
288.15	0.04493	1004.03	0.111
288.15	0.04993	1004.581	0.111
288.15	0.05504	1005.141	0.112
288.15	0.05966	1005.646	0.112
293.15	0	998.2	0.109
293.15	0.00501	998.758	0.109
293.15	0.00799	999.081	0.109
293.15	0.01	999.302	0.109
293.15	0.01488	999.834	0.109
293.15	0.01983	1000.368	0.109
293.15	0.02501	1000.925	0.109
293.15	0.02961	1001.421	0.11
293.15	0.03503	1002.003	0.11
293.15	0.0401	1002.552	0.11
293.15	0.04493	1003.069	0.111
293.15	0.04993	1003.611	0.111
293.15	0.05504	1004.164	0.112
293.15	0.05966	1004.662	0.112
298.15	0	997.042	0.11
298.15	0.00501	997.59	0.109
298.15	0.00799	997.912	0.109
298.15	0.01	998.128	0.109
298.15	0.01488	998.655	0.109
298.15	0.01983	999.182	0.109
298.15	0.02501	999.733	0.109
298.15	0.02961	1000.222	0.11
298.15	0.03503	1000.795	0.11
298.15	0.0401	1001.34	0.11
298.15	0.04493	1001.851	0.111
298.15	0.04993	1002.387	0.111
298.15	0.05504	1002.932	0.112
298.15	0.05966	1003.421	0.112
303.15	0	995.642	0.11
303.15	0.00501	996.185	0.109
303.15	0.00799	996.504	0.109
303.15	0.01	996.718	0.109
303.15	0.01488	997.238	0.109
303.15	0.01983	997.76	0.109
303.15	0.02501	998.303	0.11
303.15	0.02961	998.79	0.11
303.15	0.03503	999.357	0.11
303.15	0.0401	999.892	0.11
303.15	0.04493	1000.399	0.111
303.15	0.04993	1000.93	0.111
303.15	0.05504	1001.466	0.111
303.15	0.05966	1001.953	0.112
308.15	0	994.029	0.11
308.15	0.00501	994.563	0.109
308.15	0.00799	994.878	0.109
308.15	0.01	995.089	0.109
308.15	0.01488	995.605	0.109
308.15	0.01983	996.12	0.11
308.15	0.02501	996.661	0.11
308.15	0.02961	997.14	0.11
308.15	0.03503	997.703	0.11
308.15	0.0401	998.234	0.11
308.15	0.04493	998.733	0.111
308.15	0.04993	999.258	0.111
308.15	0.05504	999.792	0.111
308.15	0.05966	1000.27	0.112

System: sodium ((4-aminophenyl)sulfonyl)(4,6-dimethylpyrimidin-2-yl)amide + water; phases: Liquid
Fixed: Pressure, kPa = 74.66
Fixed: Frequency, MHz = 3
Property: Speed of sound, m/s (Liquid); method: Single path-length method
Temperature, K	Molality, mol/kg of sodium ((4-aminophenyl)sulfonyl)(4,6-dimethylpyrimidin-2-yl)amide	Speed of sound, m/s	uncertainty
278.15	0	1426.81	1.22
278.15	0.00501	1427.86	1.22
278.15	0.00799	1428.69	1.22
278.15	0.01	1429.18	1.22
278.15	0.01488	1430.26	1.22
278.15	0.01983	1431.28	1.22
278.15	0.02501	1432.28	1.22
278.15	0.02961	1433.49	1.22
278.15	0.03503	1434.64	1.22
278.15	0.0401	1435.66	1.22
278.15	0.04493	1436.59	1.22
278.15	0.04993	1437.65	1.22
278.15	0.05504	1438.75	1.22
278.15	0.05966	1439.91	1.22
283.15	0	1447.66	1.22
283.15	0.00501	1448.77	1.22
283.15	0.00799	1449.43	1.22
283.15	0.01	1449.87	1.22
283.15	0.01488	1450.86	1.22
283.15	0.01983	1451.86	1.22
283.15	0.02501	1452.89	1.22
283.15	0.02961	1453.88	1.22
283.15	0.03503	1454.97	1.22
283.15	0.0401	1455.95	1.22
283.15	0.04493	1456.81	1.22
283.15	0.04993	1457.83	1.22
283.15	0.05504	1458.83	1.22
283.15	0.05966	1459.8	1.22
288.15	0	1466.2	1.22
288.15	0.00501	1467.23	1.22
288.15	0.00799	1467.84	1.22
288.15	0.01	1468.27	1.22
288.15	0.01488	1469.18	1.22
288.15	0.01983	1470.12	1.22
288.15	0.02501	1471.1	1.22
288.15	0.02961	1472	1.22
288.15	0.03503	1473.03	1.22
288.15	0.0401	1473.95	1.22
288.15	0.04493	1474.77	1.22
288.15	0.04993	1475.73	1.22
288.15	0.05504	1476.65	1.22
288.15	0.05966	1477.56	1.22
293.15	0	1482.5	1.22
293.15	0.00501	1483.48	1.22
293.15	0.00799	1484.04	1.22
293.15	0.01	1484.45	1.22
293.15	0.01488	1485.28	1.22
293.15	0.01983	1486.18	1.22
293.15	0.02501	1487.11	1.22
293.15	0.02961	1487.94	1.22
293.15	0.03503	1488.9	1.22
293.15	0.0401	1489.77	1.22
293.15	0.04493	1490.55	1.22
293.15	0.04993	1491.44	1.22
293.15	0.05504	1492.3	1.22
293.15	0.05966	1493.16	1.22
298.15	0	1496.73	1.22
298.15	0.00501	1497.68	1.22
298.15	0.00799	1498.22	1.22
298.15	0.01	1498.59	1.22
298.15	0.01488	1499.37	1.22
298.15	0.01983	1500.22	1.22
298.15	0.02501	1501.08	1.22
298.15	0.02961	1501.86	1.22
298.15	0.03503	1502.76	1.22
298.15	0.0401	1503.58	1.22
298.15	0.04493	1504.31	1.22
298.15	0.04993	1505.16	1.22
298.15	0.05504	1505.96	1.22
298.15	0.05966	1506.76	1.22
303.15	0	1509.13	1.22
303.15	0.00501	1510.07	1.22
303.15	0.00799	1510.57	1.22
303.15	0.01	1510.92	1.22
303.15	0.01488	1511.65	1.22
303.15	0.01983	1512.44	1.22
303.15	0.02501	1513.25	1.22
303.15	0.02961	1513.97	1.22
303.15	0.03503	1514.81	1.22
303.15	0.0401	1515.57	1.22
303.15	0.04493	1516.29	1.22
303.15	0.04993	1517.09	1.22
303.15	0.05504	1517.83	1.22
303.15	0.05966	1518.59	1.22
308.15	0	1519.81	1.22
308.15	0.00501	1520.73	1.22
308.15	0.00799	1521.2	1.22
308.15	0.01	1521.52	1.22
308.15	0.01488	1522.21	1.22
308.15	0.01983	1522.97	1.22
308.15	0.02501	1523.74	1.22
308.15	0.02961	1524.41	1.22
308.15	0.03503	1525.18	1.22
308.15	0.0401	1525.92	1.22
308.15	0.04493	1526.57	1.22
308.15	0.04993	1527.32	1.22
308.15	0.05504	1528.02	1.22
308.15	0.05966	1528.73	1.22
