Measured thermophysical data. Enhanced CO2 capture by binary systems of pyridinium-based ionic liquids and porous ZIF-8 particles
Source: J. Chem. Thermodyn., 2019, 10.1016/j.jct.2018.08.038
Compound 1: carbon dioxide, CO2, InChI=1S/CO2/c2-1-3, purity 99.99%
Compound 2: 1-butylpyridinium bis[(trifluoromethyl)sulfonyl]imide, C11H14F6N2O4S2, InChI=1S/C9H14N.C2F6NO4S2/c1-2-3-7-10-8-5-4-6-9-10;3-1(4,5)14(10,11)9-15(12,13)2(6,7)8/h4-6,8-9H,2-3,7H2,1H3;/q+1;-1
Compound 3: 1-butylpyridinium dicyanamide, C11H14N4, InChI=1S/C9H14N.C2N3/c1-2-3-7-10-8-5-4-6-9-10;3-1-5-2-4/h4-6,8-9H,2-3,7H2,1H3;/q+1;-1
Compound 4: 1-butyl-3-methylimidazolium tetrafluoroborate, C8H15BF4N2, InChI=1S/C8H15N2.BF4/c1-3-4-5-10-7-6-9(2)8-10;2-1(3,4)5/h6-8H,3-5H2,1-2H3;/q+1;-1, purity 99%

System: 1-butylpyridinium bis[(trifluoromethyl)sulfonyl]imide; phases: Liquid
Fixed: Pressure, kPa = 101.325
Property: Mass density, kg/m3 (Liquid); method: Vibrating tube method
Temperature, K	Mass density, kg/m3	uncertainty
303.15	1449.8	2.1
313.15	1440.3	2.1
323.15	1431.1	2.1
333.15	1421.9	2.1

System: 1-butylpyridinium dicyanamide; phases: Liquid
Fixed: Pressure, kPa = 101.325
Property: Mass density, kg/m3 (Liquid); method: Vibrating tube method
Temperature, K	Mass density, kg/m3	uncertainty
303.15	1074.8	2
313.15	1069.7	2
323.15	1064.4	2
333.15	1059.5	2

System: carbon dioxide + 1-butylpyridinium bis[(trifluoromethyl)sulfonyl]imide; phases: Liquid, Gas
Property: Mole fraction of carbon dioxide (Liquid); method: volumetric method
Temperature, K	Pressure, kPa	Mole fraction of carbon dioxide	uncertainty
303.15	346	0.092	0.026
303.15	682	0.173	0.048
303.15	965	0.235	0.056
303.15	1269	0.291	0.068
303.15	1697	0.361	0.07
303.15	1894	0.394	0.082
313.15	476	0.111	0.032
313.15	738	0.165	0.044
313.15	1004	0.213	0.054
313.15	1326	0.265	0.066
313.15	1772	0.328	0.07
313.15	1883	0.343	0.086
323.15	433	0.086	0.022
323.15	710	0.138	0.036
323.15	988	0.189	0.042
323.15	1270	0.237	0.05
323.15	1557	0.28	0.078
323.15	1911	0.326	0.09
333.15	413	0.065	0.046
333.15	728	0.119	0.044
333.15	992	0.164	0.056
333.15	1308	0.214	0.076
333.15	1602	0.256	0.066
333.15	1930	0.3	0.084

System: carbon dioxide + 1-butylpyridinium dicyanamide; phases: Liquid, Gas
Property: Mole fraction of carbon dioxide (Liquid); method: volumetric method
Temperature, K	Pressure, kPa	Mole fraction of carbon dioxide	uncertainty
303.15	366	0.048	0.022
303.15	741	0.092	0.044
303.15	1067	0.129	0.046
303.15	1330	0.157	0.066
303.15	1678	0.191	0.07
303.15	1985	0.219	0.082
313.15	414	0.047	0.024
313.15	728	0.083	0.044
313.15	1017	0.113	0.068
313.15	1347	0.145	0.07
313.15	1634	0.17	0.074
313.15	1967	0.198	0.086
323.15	433	0.045	0.024
323.15	725	0.074	0.048
323.15	1033	0.104	0.068
323.15	1363	0.134	0.07
323.15	1705	0.164	0.074
323.15	2023	0.19	0.09
333.15	410	0.04	0.026
333.15	735	0.071	0.05
333.15	1012	0.096	0.07
333.15	1333	0.122	0.072
333.15	1753	0.155	0.066
333.15	2055	0.178	0.084

System: carbon dioxide + 1-butyl-3-methylimidazolium tetrafluoroborate; phases: Liquid, Gas
Fixed: Temperature, K = 298.15
Property: Mole fraction of carbon dioxide (Liquid); method: volumetric method
Pressure, kPa	Mole fraction of carbon dioxide	uncertainty
225	0.026	0.016
482	0.084	0.026
802	0.135	0.048
1206	0.191	0.056
1558	0.234	0.07
2208	0.305	0.074
