Measured thermophysical data. Equilibrium solubility, dissolution thermodynamics and preferential solvation of 6-methyl-2-thiouracil in aqueous co-solvent mixtures of methanol, N-methyl-2-pyrrolidone, N,N-dimethyl formamide and dimethylsulfoxide
Source: J. Chem. Thermodyn., 2018, 10.1016/j.jct.2018.02.002
Compound 1: 6-methyl-2-thiouracil, C5H6N2OS, InChI=1S/C5H6N2OS/c1-3-2-4(8)7-5(9)6-3/h2H,1H3,(H2,6,7,8,9), purity 98%
Compound 2: methanol, CH4O, InChI=1S/CH4O/c1-2/h2H,1H3, purity 99.4%
Compound 3: N-methylpyrrolidone, C5H9NO, InChI=1S/C5H9NO/c1-6-4-2-3-5(6)7/h2-4H2,1H3, purity 99.5%
Compound 4: dimethylformamide, C3H7NO, InChI=1S/C3H7NO/c1-4(2)3-5/h3H,1-2H3, purity 99.6%
Compound 5: dimethyl sulfoxide, C2H6OS, InChI=1S/C2H6OS/c1-4(2)3/h1-2H3, purity 99.6%
Compound 6: water, H2O, InChI=1S/H2O/h1H2

System: 6-methyl-2-thiouracil + methanol + water; phases: Liquid, Crystal
Fixed: Pressure, kPa = 101.2
Property: Mole fraction of 6-methyl-2-thiouracil (Liquid); method: Chromatography
Solvent: Mass fraction of methanol	Temperature, K	Mole fraction of 6-methyl-2-thiouracil	uncertainty
0	278.15	2.534e-05	1.88e-06
0	283.15	3.231e-05	2.4e-06
0	288.15	4.148e-05	3.08e-06
0	293.15	5.259e-05	3.9e-06
0	298.15	6.676e-05	4.95e-06
0	303.15	8.475e-05	6.29e-06
0	308.15	0.0001059	7.9e-06
0	313.15	0.000129	9.6e-06
0	318.15	0.0001557	1.15e-05
0	323.15	0.0001871	1.39e-05
0.1005	278.15	3.563e-05	2.64e-06
0.1005	283.15	4.536e-05	3.37e-06
0.1005	288.15	5.754e-05	4.27e-06
0.1005	293.15	7.147e-05	5.3e-06
0.1005	298.15	9.061e-05	6.72e-06
0.1005	303.15	0.0001119	8.3e-06
0.1005	308.15	0.000138	1.02e-05
0.1005	313.15	0.0001725	1.28e-05
0.1005	318.15	0.0002101	1.56e-05
0.1005	323.15	0.0002589	1.92e-05
0.2005	278.15	4.856e-05	3.6e-06
0.2005	283.15	6.265e-05	4.65e-06
0.2005	288.15	7.766e-05	5.76e-06
0.2005	293.15	9.545e-05	7.08e-06
0.2005	298.15	0.0001193	8.8e-06
0.2005	303.15	0.0001474	1.09e-05
0.2005	308.15	0.0001836	1.36e-05
0.2005	313.15	0.0002233	1.66e-05
0.2005	318.15	0.0002756	2.04e-05
0.2005	323.15	0.0003468	2.57e-05
0.2982	278.15	6.77e-05	5.02e-06
0.2982	283.15	8.075e-05	5.99e-06
0.2982	288.15	9.854e-05	7.31e-06
0.2982	293.15	0.0001241	9.2e-06
0.2982	298.15	0.0001533	1.14e-05
0.2982	303.15	0.0001916	1.42e-05
0.2982	308.15	0.00023	1.71e-05
0.2982	313.15	0.0002919	2.16e-05
0.2982	318.15	0.0003559	2.64e-05
0.2982	323.15	0.0004391	3.26e-05
0.4009	278.15	8.978e-05	6.65e-06
0.4009	283.15	0.0001029	7.6e-06
0.4009	288.15	0.0001258	9.3e-06
0.4009	293.15	0.0001597	1.19e-05
0.4009	298.15	0.0002058	1.53e-05
0.4009	303.15	0.0002554	1.89e-05
0.4009	308.15	0.0002956	2.19e-05
0.4009	313.15	0.0003679	2.73e-05
0.4009	318.15	0.0004489	3.33e-05
0.4009	323.15	0.0005532	4.1e-05
0.4996	278.15	0.0001175	8.7e-06
0.4996	283.15	0.0001369	1.01e-05
0.4996	288.15	0.0001626	1.21e-05
0.4996	293.15	0.0002025	1.5e-05
0.4996	298.15	0.0002496	1.85e-05
0.4996	303.15	0.0003117	2.31e-05
0.4996	308.15	0.0003595	2.67e-05
0.4996	313.15	0.0004525	3.35e-05
0.4996	318.15	0.0005287	3.92e-05
0.4996	323.15	0.0006497	4.82e-05
0.5998	278.15	0.0001461	1.08e-05
0.5998	283.15	0.0001726	1.28e-05
0.5998	288.15	0.0002073	1.54e-05
0.5998	293.15	0.0002511	1.86e-05
0.5998	298.15	0.0003008	2.23e-05
0.5998	303.15	0.0003667	2.72e-05
0.5998	308.15	0.0004342	3.22e-05
0.5998	313.15	0.0005461	4.05e-05
0.5998	318.15	0.0006296	4.67e-05
0.5998	323.15	0.0007637	5.66e-05
0.7013	278.15	0.0001839	1.36e-05
0.7013	283.15	0.0002094	1.55e-05
0.7013	288.15	0.0002496	1.85e-05
0.7013	293.15	0.0003011	2.23e-05
0.7013	298.15	0.0003569	2.65e-05
0.7013	303.15	0.0004241	3.14e-05
0.7013	308.15	0.0004981	3.69e-05
0.7013	313.15	0.0006104	4.52e-05
0.7013	318.15	0.0007058	5.23e-05
0.7013	323.15	0.000856	6.34e-05
0.7999	278.15	0.0002261	1.67e-05
0.7999	283.15	0.0002471	1.83e-05
0.7999	288.15	0.0002964	2.2e-05
0.7999	293.15	0.0003564	2.64e-05
0.7999	298.15	0.0004175	3.09e-05
0.7999	303.15	0.0004878	3.61e-05
0.7999	308.15	0.000574	4.25e-05
0.7999	313.15	0.0006954	5.15e-05
0.7999	318.15	0.0007948	5.89e-05
0.7999	323.15	0.0009409	6.97e-05
0.9003	278.15	0.0002708	2.01e-05
0.9003	283.15	0.0002936	2.17e-05
0.9003	288.15	0.0003482	2.58e-05
0.9003	293.15	0.0004069	3.01e-05
0.9003	298.15	0.0004708	3.49e-05
0.9003	303.15	0.0005493	4.07e-05
0.9003	308.15	0.0006352	4.71e-05
0.9003	313.15	0.0007393	5.48e-05
0.9003	318.15	0.0008538	6.33e-05
0.9003	323.15	0.001013	7.5e-05
1	278.15	0.0003122	2.31e-05
1	283.15	0.0003411	2.53e-05
1	288.15	0.0004004	2.97e-05
1	293.15	0.0004564	3.38e-05
1	298.15	0.0005229	3.87e-05
1	303.15	0.0006124	4.54e-05
1	308.15	0.0006865	5.09e-05
1	313.15	0.0007946	5.89e-05
1	318.15	0.0009142	6.77e-05
1	323.15	0.001064	7.9e-05

System: 6-methyl-2-thiouracil + N-methylpyrrolidone + water; phases: Liquid, Crystal
Fixed: Pressure, kPa = 101.2
Property: Mole fraction of 6-methyl-2-thiouracil (Liquid); method: Chromatography
Solvent: Mass fraction of N-methylpyrrolidone	Temperature, K	Mole fraction of 6-methyl-2-thiouracil	uncertainty
0	278.15	2.534e-05	1.88e-06
0	283.15	3.231e-05	2.4e-06
0	288.15	4.148e-05	3.08e-06
0	293.15	5.259e-05	3.9e-06
0	298.15	6.676e-05	4.95e-06
0	303.15	8.475e-05	6.29e-06
0	308.15	0.0001059	7.9e-06
0	313.15	0.000129	9.6e-06
0	318.15	0.0001557	1.15e-05
0	323.15	0.0001871	1.39e-05
0.1005	278.15	0.0003616	2.7e-05
0.1005	283.15	0.0004499	3.34e-05
0.1005	288.15	0.0005602	4.16e-05
0.1005	293.15	0.0007086	5.26e-05
0.1005	298.15	0.0009035	6.7e-05
0.1005	303.15	0.001096	8.1e-05
0.1005	308.15	0.0013	9.6e-05
0.1005	313.15	0.00152	0.000113
0.1005	318.15	0.001758	0.00013
0.1005	323.15	0.002016	0.000153
0.1995	278.15	0.001444	0.000107
0.1995	283.15	0.001923	0.000143
0.1995	288.15	0.00241	0.000179
0.1995	293.15	0.002966	0.00022
0.1995	298.15	0.003652	0.000271
0.1995	303.15	0.004361	0.000323
0.1995	308.15	0.005066	0.000375
0.1995	313.15	0.005915	0.000438
0.1995	318.15	0.006738	0.000499
0.1995	323.15	0.007969	0.000591
0.3011	278.15	0.003122	0.000232
0.3011	283.15	0.003822	0.000283
0.3011	288.15	0.004584	0.00034
0.3011	293.15	0.005648	0.000419
0.3011	298.15	0.006758	0.000501
0.3011	303.15	0.008086	0.000599
0.3011	308.15	0.009768	0.000724
0.3011	313.15	0.01124	0.00083
0.3011	318.15	0.01334	0.00099
0.3011	323.15	0.01578	0.00117
0.3988	278.15	0.003627	0.000269
0.3988	283.15	0.004581	0.00034
0.3988	288.15	0.005704	0.000423
0.3988	293.15	0.006748	0.0005
0.3988	298.15	0.008098	0.0006
0.3988	303.15	0.00959	0.000711
0.3988	308.15	0.01121	0.00083
0.3988	313.15	0.01351	0.001
0.3988	318.15	0.01611	0.00119
0.3988	323.15	0.01877	0.00139
0.4988	278.15	0.004029	0.000299
0.4988	283.15	0.005018	0.000372
0.4988	288.15	0.006126	0.000454
0.4988	293.15	0.00755	0.00056
0.4988	298.15	0.009332	0.000692
0.4988	303.15	0.01079	0.0008
0.4988	308.15	0.01269	0.00094
0.4988	313.15	0.0147	0.0011
0.4988	318.15	0.01719	0.00127
0.4988	323.15	0.0204	0.00151
0.5997	278.15	0.004907	0.000364
0.5997	283.15	0.005907	0.000438
0.5997	288.15	0.007612	0.000564
0.5997	293.15	0.008974	0.000665
0.5997	298.15	0.01081	0.0008
0.5997	303.15	0.01246	0.00092
0.5997	308.15	0.01453	0.00108
0.5997	313.15	0.01675	0.00124
0.5997	318.15	0.01941	0.00144
0.5997	323.15	0.02256	0.00167
0.7006	278.15	0.006564	0.000486
0.7006	283.15	0.007836	0.000581
0.7006	288.15	0.009231	0.000684
0.7006	293.15	0.01084	0.0008
0.7006	298.15	0.01269	0.00094
0.7006	303.15	0.01495	0.00111
0.7006	308.15	0.01742	0.00129
0.7006	313.15	0.02028	0.0015
0.7006	318.15	0.02344	0.00174
0.7006	323.15	0.02644	0.00196
0.8001	278.15	0.008969	0.000665
0.8001	283.15	0.0107	0.00079
0.8001	288.15	0.01255	0.00093
0.8001	293.15	0.0147	0.00109
0.8001	298.15	0.01713	0.00127
0.8001	303.15	0.02012	0.00149
0.8001	308.15	0.02338	0.00173
0.8001	313.15	0.02723	0.00202
0.8001	318.15	0.03149	0.00233
0.8001	323.15	0.03644	0.0027
0.9013	278.15	0.01209	0.0009
0.9013	283.15	0.01441	0.00107
0.9013	288.15	0.01685	0.00125
0.9013	293.15	0.01967	0.00146
0.9013	298.15	0.02284	0.00169
0.9013	303.15	0.02675	0.00198
0.9013	308.15	0.03085	0.00229
0.9013	313.15	0.03565	0.00264
0.9013	318.15	0.04134	0.00306
0.9013	323.15	0.04918	0.00364
1	278.15	0.01297	0.00096
1	283.15	0.01551	0.00115
1	288.15	0.01813	0.00134
1	293.15	0.02119	0.00157
1	298.15	0.0246	0.00182
1	303.15	0.02882	0.00214
1	308.15	0.03344	0.00248
1	313.15	0.03912	0.0029
1	318.15	0.04545	0.00337
1	323.15	0.05104	0.00378

System: 6-methyl-2-thiouracil + dimethylformamide + water; phases: Liquid, Crystal
Fixed: Pressure, kPa = 101.2
Property: Mole fraction of 6-methyl-2-thiouracil (Liquid); method: Chromatography
Solvent: Mass fraction of dimethylformamide	Temperature, K	Mole fraction of 6-methyl-2-thiouracil	uncertainty
0	278.15	2.534e-05	1.88e-06
0	283.15	3.231e-05	2.4e-06
0	288.15	4.148e-05	3.08e-06
0	293.15	5.259e-05	3.9e-06
0	298.15	6.676e-05	4.95e-06
0	303.15	8.475e-05	6.29e-06
0	308.15	0.0001059	7.9e-06
0	313.15	0.000129	9.6e-06
0	318.15	0.0001557	1.15e-05
0	323.15	0.0001871	1.39e-05
0.1003	278.15	0.0003182	2.37e-05
0.1003	283.15	0.0003875	2.87e-05
0.1003	288.15	0.0004636	3.44e-05
0.1003	293.15	0.0006038	4.48e-05
0.1003	298.15	0.0007403	5.49e-05
0.1003	303.15	0.0009078	6.73e-05
0.1003	308.15	0.001082	8e-05
0.1003	313.15	0.001265	9.4e-05
0.1003	318.15	0.001483	0.00011
0.1003	323.15	0.001722	0.00013
0.2009	278.15	0.001186	8.8e-05
0.2009	283.15	0.001408	0.000104
0.2009	288.15	0.001815	0.000135
0.2009	293.15	0.00217	0.000161
0.2009	298.15	0.002613	0.000194
0.2009	303.15	0.003216	0.000238
0.2009	308.15	0.003839	0.000285
0.2009	313.15	0.0046	0.000341
0.2009	318.15	0.005398	0.0004
0.2009	323.15	0.006378	0.000473
0.2996	278.15	0.002166	0.000161
0.2996	283.15	0.002658	0.000197
0.2996	288.15	0.003298	0.000244
0.2996	293.15	0.003941	0.000292
0.2996	298.15	0.004765	0.000353
0.2996	303.15	0.005827	0.000432
0.2996	308.15	0.007005	0.000519
0.2996	313.15	0.008189	0.000607
0.2996	318.15	0.009473	0.000702
0.2996	323.15	0.0113	0.00084
0.3988	278.15	0.002778	0.000206
0.3988	283.15	0.003303	0.000245
0.3988	288.15	0.004038	0.000299
0.3988	293.15	0.005038	0.000374
0.3988	298.15	0.006183	0.000458
0.3988	303.15	0.007372	0.000546
0.3988	308.15	0.008679	0.000643
0.3988	313.15	0.01031	0.00076
0.3988	318.15	0.01198	0.00089
0.3988	323.15	0.01407	0.00104
0.5003	278.15	0.003437	0.000255
0.5003	283.15	0.004071	0.000302
0.5003	288.15	0.004926	0.000365
0.5003	293.15	0.005904	0.000438
0.5003	298.15	0.007107	0.000527
0.5003	303.15	0.008629	0.00064
0.5003	308.15	0.0102	0.00076
0.5003	313.15	0.01192	0.00088
0.5003	318.15	0.01433	0.00106
0.5003	323.15	0.01693	0.00125
0.6013	278.15	0.004036	0.000299
0.6013	283.15	0.004932	0.000366
0.6013	288.15	0.005928	0.000439
0.6013	293.15	0.007194	0.000533
0.6013	298.15	0.008656	0.000642
0.6013	303.15	0.0103	0.00076
0.6013	308.15	0.01215	0.0009
0.6013	313.15	0.01425	0.00106
0.6013	318.15	0.01675	0.00124
0.6013	323.15	0.02	0.00148
0.6988	278.15	0.00558	0.000414
0.6988	283.15	0.006841	0.000507
0.6988	288.15	0.00841	0.000624
0.6988	293.15	0.01027	0.00076
0.6988	298.15	0.01209	0.0009
0.6988	303.15	0.01417	0.00105
0.6988	308.15	0.0168	0.00125
0.6988	313.15	0.01976	0.00146
0.6988	318.15	0.02341	0.00173
0.6988	323.15	0.0269	0.00199
0.7992	278.15	0.007432	0.000551
0.7992	283.15	0.00906	0.000672
0.7992	288.15	0.01124	0.00083
0.7992	293.15	0.01372	0.00102
0.7992	298.15	0.01642	0.00122
0.7992	303.15	0.01926	0.00143
0.7992	308.15	0.02275	0.00169
0.7992	313.15	0.02676	0.00198
0.7992	318.15	0.03042	0.00225
0.7992	323.15	0.03491	0.00259
0.8996	278.15	0.01048	0.00078
0.8996	283.15	0.01247	0.00092
0.8996	288.15	0.01463	0.00108
0.8996	293.15	0.01764	0.00131
0.8996	298.15	0.02097	0.00155
0.8996	303.15	0.02479	0.00184
0.8996	308.15	0.02926	0.00217
0.8996	313.15	0.03436	0.00255
0.8996	318.15	0.04071	0.00302
0.8996	323.15	0.04779	0.00354
1	278.15	0.01174	0.00087
1	283.15	0.01438	0.00107
1	288.15	0.01742	0.00129
1	293.15	0.02066	0.00153
1	298.15	0.02517	0.00187
1	303.15	0.02944	0.00218
1	308.15	0.03462	0.00256
1	313.15	0.03965	0.00294
1	318.15	0.04627	0.00343
1	323.15	0.05379	0.00398

System: 6-methyl-2-thiouracil + dimethyl sulfoxide + water; phases: Liquid, Crystal
Fixed: Pressure, kPa = 101.2
Property: Mole fraction of 6-methyl-2-thiouracil (Liquid); method: Chromatography
Solvent: Mass fraction of dimethyl sulfoxide	Temperature, K	Mole fraction of 6-methyl-2-thiouracil	uncertainty
0	293.15	5.259e-05	3.9e-06
0	298.15	6.676e-05	4.95e-06
0	303.15	8.475e-05	6.29e-06
0	308.15	0.0001059	7.9e-06
0	313.15	0.000129	9.6e-06
0	318.15	0.0001557	1.15e-05
0	323.15	0.0001871	1.39e-05
0.1008	293.15	0.0008689	6.51e-05
0.1008	298.15	0.001053	7.8e-05
0.1008	303.15	0.001276	9.5e-05
0.1008	308.15	0.001525	0.000113
0.1008	313.15	0.001784	0.000132
0.1008	318.15	0.002071	0.000153
0.1008	323.15	0.002396	0.000182
0.2008	293.15	0.003688	0.000273
0.2008	298.15	0.004279	0.000317
0.2008	303.15	0.005117	0.000379
0.2008	308.15	0.006213	0.00046
0.2008	313.15	0.007172	0.000531
0.2008	318.15	0.008245	0.000611
0.2008	323.15	0.009483	0.000703
0.2998	293.15	0.007134	0.000529
0.2998	298.15	0.008377	0.000621
0.2998	303.15	0.00994	0.00074
0.2998	308.15	0.01166	0.00086
0.2998	313.15	0.01362	0.00101
0.2998	318.15	0.01577	0.00117
0.2998	323.15	0.01795	0.00133
0.4017	293.15	0.009644	0.000715
0.4017	298.15	0.01123	0.00083
0.4017	303.15	0.01308	0.00097
0.4017	308.15	0.01502	0.00111
0.4017	313.15	0.01705	0.00126
0.4017	318.15	0.01922	0.00142
0.4017	323.15	0.02163	0.0016
0.4988	293.15	0.01078	0.0008
0.4988	298.15	0.01253	0.00093
0.4988	303.15	0.01457	0.00108
0.4988	308.15	0.01669	0.00124
0.4988	313.15	0.01895	0.0014
0.4988	318.15	0.02137	0.00158
0.4988	323.15	0.02406	0.00178
0.6001	293.15	0.01278	0.00095
0.6001	298.15	0.01482	0.0011
0.6001	303.15	0.01717	0.00127
0.6001	308.15	0.01961	0.00145
0.6001	313.15	0.02225	0.00165
0.6001	318.15	0.02508	0.00186
0.6001	323.15	0.02823	0.00209
0.7012	293.15	0.01657	0.00123
0.7012	298.15	0.01913	0.00142
0.7012	303.15	0.02207	0.00163
0.7012	308.15	0.02508	0.00186
0.7012	313.15	0.02841	0.0021
0.7012	318.15	0.03197	0.00237
0.7012	323.15	0.03593	0.00266
0.8006	293.15	0.02357	0.00175
0.8006	298.15	0.02706	0.002
0.8006	303.15	0.03102	0.0023
0.8006	308.15	0.03505	0.0026
0.8006	313.15	0.03957	0.00293
0.8006	318.15	0.04439	0.00329
0.8006	323.15	0.04973	0.00368
0.8987	293.15	0.03307	0.00245
0.8987	298.15	0.03775	0.0028
0.8987	303.15	0.04303	0.00319
0.8987	308.15	0.04832	0.00358
0.8987	313.15	0.05439	0.00403
0.8987	318.15	0.06084	0.00451
0.8987	323.15	0.06797	0.00503
1	293.15	0.03788	0.00281
1	298.15	0.04316	0.0032
1	303.15	0.04907	0.00363
1	308.15	0.05495	0.00407
1	313.15	0.06185	0.00458
1	318.15	0.06919	0.00512
1	323.15	0.07732	0.00573

System: 6-methyl-2-thiouracil + water; phases: Liquid, Crystal
Fixed: Pressure, kPa = 101.2
Property: Mole fraction of 6-methyl-2-thiouracil (Liquid); method: Chromatography
Temperature, K	Mole fraction of 6-methyl-2-thiouracil	uncertainty
278.15	2.534e-05	1.88e-06
283.15	3.231e-05	2.4e-06
288.15	4.148e-05	3.08e-06
293.15	5.259e-05	3.9e-06
298.15	6.676e-05	4.95e-06
303.15	8.475e-05	6.29e-06
308.15	0.0001059	7.9e-06
313.15	0.000129	9.6e-06
318.15	0.0001557	1.15e-05
323.15	0.0001871	1.39e-05

System: 6-methyl-2-thiouracil + methanol; phases: Liquid, Crystal
Fixed: Pressure, kPa = 101.2
Property: Mole fraction of 6-methyl-2-thiouracil (Liquid); method: Chromatography
Temperature, K	Mole fraction of 6-methyl-2-thiouracil	uncertainty
278.15	0.0003122	2.31e-05
283.15	0.0003411	2.53e-05
288.15	0.0004004	2.97e-05
293.15	0.0004564	3.38e-05
298.15	0.0005229	3.87e-05
303.15	0.0006124	4.54e-05
308.15	0.0006865	5.09e-05
313.15	0.0007946	5.89e-05
318.15	0.0009142	6.77e-05
323.15	0.001064	7.9e-05

System: 6-methyl-2-thiouracil + N-methylpyrrolidone; phases: Liquid, Crystal
Fixed: Pressure, kPa = 101.2
Property: Mole fraction of 6-methyl-2-thiouracil (Liquid); method: Chromatography
Temperature, K	Mole fraction of 6-methyl-2-thiouracil	uncertainty
278.15	0.01297	0.00096
283.15	0.01551	0.00115
288.15	0.01813	0.00134
293.15	0.02119	0.00157
298.15	0.0246	0.00182
303.15	0.02882	0.00214
308.15	0.03344	0.00248
313.15	0.03912	0.0029
318.15	0.04545	0.00337
323.15	0.05104	0.00378

System: 6-methyl-2-thiouracil + dimethylformamide; phases: Liquid, Crystal
Fixed: Pressure, kPa = 101.2
Property: Mole fraction of 6-methyl-2-thiouracil (Liquid); method: Chromatography
Temperature, K	Mole fraction of 6-methyl-2-thiouracil	uncertainty
278.15	0.01174	0.00087
283.15	0.01438	0.00107
288.15	0.01742	0.00129
293.15	0.02066	0.00153
298.15	0.02517	0.00187
303.15	0.02944	0.00218
308.15	0.03462	0.00256
313.15	0.03965	0.00294
318.15	0.04627	0.00343
323.15	0.05379	0.00398

System: 6-methyl-2-thiouracil + dimethyl sulfoxide; phases: Liquid, Crystal
Fixed: Pressure, kPa = 101.2
Property: Mole fraction of 6-methyl-2-thiouracil (Liquid); method: Chromatography
Temperature, K	Mole fraction of 6-methyl-2-thiouracil	uncertainty
293.15	0.03788	0.00281
298.15	0.04316	0.0032
303.15	0.04907	0.00363
308.15	0.05495	0.00407
313.15	0.06185	0.00458
318.15	0.06919	0.00512
323.15	0.07732	0.00573
