Measured thermophysical data. Ionic parachor and its application to pyridinium-based ionic liquids of {[Cnpy][DCA] (n = 2, 3, 4, 5, 6)}
Source: J. Chem. Thermodyn., 2015, 10.1016/j.jct.2015.02.025
Compound 1: 1-ethylpyridinium dicyanamide, C9H10N4, InChI=1S/C7H10N.C2N3/c1-2-8-6-4-3-5-7-8;3-1-5-2-4/h3-7H,2H2,1H3;/q+1;-1
Compound 2: 1-propylpyridinium dicyanamide, C10H12N4, InChI=1S/C8H12N.C2N3/c1-2-6-9-7-4-3-5-8-9;3-1-5-2-4/h3-5,7-8H,2,6H2,1H3;/q+1;-1
Compound 3: 1-butylpyridinium dicyanamide, C11H14N4, InChI=1S/C9H14N.C2N3/c1-2-3-7-10-8-5-4-6-9-10;3-1-5-2-4/h4-6,8-9H,2-3,7H2,1H3;/q+1;-1
Compound 4: 1-pentylpyridinium dicyanamide, C12H16N4, InChI=1S/C10H16N.C2N3/c1-2-3-5-8-11-9-6-4-7-10-11;3-1-5-2-4/h4,6-7,9-10H,2-3,5,8H2,1H3;/q+1;-1
Compound 5: 1-hexylpyridinium dicyanamide, C13H18N4, InChI=1S/C11H18N.C2N3/c1-2-3-4-6-9-12-10-7-5-8-11-12;3-1-5-2-4/h5,7-8,10-11H,2-4,6,9H2,1H3;/q+1;-1
Compound 6: water, H2O, InChI=1S/H2O/h1H2

System: 1-ethylpyridinium dicyanamide; phases: Liquid
Property: Mass density, kg/m3 (Liquid); method: Vibrating tube method
Temperature, K	Pressure, kPa	Mass density, kg/m3	uncertainty
298.15	101.325	1118.49	1.05

System: 1-ethylpyridinium dicyanamide; phases: Liquid
Property: Refractive index (Na D-line) (Liquid); method: Standard Abbe refractometry
Temperature, K	Pressure, kPa	Refractive index (Na D-line)	uncertainty
298.15	101.325	1.5463	0.0007

System: 1-ethylpyridinium dicyanamide; phases: Liquid, Air at 1 atmosphere
Property: Surface tension liquid-gas, N/m (Liquid); method: Maximal bubble pressure
Temperature, K	Surface tension liquid-gas, N/m	uncertainty
298.15	0.0592	0.0007

System: 1-ethylpyridinium dicyanamide; phases: Crystal, Liquid, Air at 1 atmosphere
Property: Normal melting temperature, K (Crystal); method: DTA:UFactor:10
Normal melting temperature, K	uncertainty
239.96	5

System: 1-ethylpyridinium dicyanamide; phases: Glass, Liquid, Air at 1 atmosphere
Property: Triple point temperature, K (Glass); method: DTA:UFactor:10
Triple point temperature, K	uncertainty
171.43	5

System: 1-propylpyridinium dicyanamide; phases: Liquid
Property: Mass density, kg/m3 (Liquid); method: Vibrating tube method
Temperature, K	Pressure, kPa	Mass density, kg/m3	uncertainty
298.15	101.325	1090.06	1.37

System: 1-propylpyridinium dicyanamide; phases: Liquid
Property: Refractive index (Na D-line) (Liquid); method: Standard Abbe refractometry
Temperature, K	Pressure, kPa	Refractive index (Na D-line)	uncertainty
298.15	101.325	1.5407	0.0008

System: 1-propylpyridinium dicyanamide; phases: Liquid, Air at 1 atmosphere
Property: Surface tension liquid-gas, N/m (Liquid); method: Maximal bubble pressure
Temperature, K	Surface tension liquid-gas, N/m	uncertainty
298.15	0.0579	0.0009

System: 1-propylpyridinium dicyanamide; phases: Crystal, Liquid, Air at 1 atmosphere
Property: Normal melting temperature, K (Crystal); method: DTA:UFactor:10
Normal melting temperature, K	uncertainty
276.14	5

System: 1-butylpyridinium dicyanamide; phases: Liquid
Property: Mass density, kg/m3 (Liquid); method: Vibrating tube method
Temperature, K	Pressure, kPa	Mass density, kg/m3	uncertainty
298.15	101.325	1068.83	1.04

System: 1-butylpyridinium dicyanamide; phases: Liquid
Property: Refractive index (Na D-line) (Liquid); method: Standard Abbe refractometry
Temperature, K	Pressure, kPa	Refractive index (Na D-line)	uncertainty
298.15	101.325	1.5345	0.0007

System: 1-butylpyridinium dicyanamide; phases: Liquid, Air at 1 atmosphere
Property: Surface tension liquid-gas, N/m (Liquid); method: Maximal bubble pressure
Temperature, K	Surface tension liquid-gas, N/m	uncertainty
298.15	0.0557	0.0007

System: 1-butylpyridinium dicyanamide; phases: Glass, Liquid, Air at 1 atmosphere
Property: Triple point temperature, K (Glass); method: DTA:UFactor:10
Triple point temperature, K	uncertainty
186.25	5

System: 1-pentylpyridinium dicyanamide; phases: Liquid
Property: Mass density, kg/m3 (Liquid); method: Vibrating tube method
Temperature, K	Pressure, kPa	Mass density, kg/m3	uncertainty
298.15	101.325	1053.07	1.03

System: 1-pentylpyridinium dicyanamide; phases: Liquid
Property: Refractive index (Na D-line) (Liquid); method: Standard Abbe refractometry
Temperature, K	Pressure, kPa	Refractive index (Na D-line)	uncertainty
298.15	101.325	1.53	0.0007

System: 1-pentylpyridinium dicyanamide; phases: Liquid, Air at 1 atmosphere
Property: Surface tension liquid-gas, N/m (Liquid); method: Maximal bubble pressure
Temperature, K	Surface tension liquid-gas, N/m	uncertainty
298.15	0.0534	0.0007

System: 1-pentylpyridinium dicyanamide; phases: Glass, Liquid, Air at 1 atmosphere
Property: Triple point temperature, K (Glass); method: DTA:UFactor:10
Triple point temperature, K	uncertainty
188.86	5

System: 1-hexylpyridinium dicyanamide; phases: Liquid
Property: Mass density, kg/m3 (Liquid); method: Vibrating tube method
Temperature, K	Pressure, kPa	Mass density, kg/m3	uncertainty
298.15	101.325	1036.41	1.03

System: 1-hexylpyridinium dicyanamide; phases: Liquid
Property: Refractive index (Na D-line) (Liquid); method: Standard Abbe refractometry
Temperature, K	Pressure, kPa	Refractive index (Na D-line)	uncertainty
298.15	101.325	1.5267	0.0007

System: 1-hexylpyridinium dicyanamide; phases: Liquid, Air at 1 atmosphere
Property: Surface tension liquid-gas, N/m (Liquid); method: Maximal bubble pressure
Temperature, K	Surface tension liquid-gas, N/m	uncertainty
298.15	0.0492	0.0007

System: 1-hexylpyridinium dicyanamide; phases: Glass, Liquid, Air at 1 atmosphere
Property: Triple point temperature, K (Glass); method: DTA:UFactor:10
Triple point temperature, K	uncertainty
188.35	5

System: water + 1-ethylpyridinium dicyanamide; phases: Liquid
Fixed: Pressure, kPa = 100
Fixed: Temperature, K = 298.15
Property: Mass density, kg/m3 (Liquid); method: Vibrating tube method
Mass fraction of water	Mass density, kg/m3	uncertainty
0.00223	1118.12	1.05
0.00394	1117.9	1.05
0.00565	1117.64	1.05
0.00735	1117.37	1.05
0.00901	1117.07	1.04

System: water + 1-ethylpyridinium dicyanamide; phases: Liquid
Fixed: Temperature, K = 298.15
Fixed: Pressure, kPa = 100
Property: Refractive index (Na D-line) (Liquid); method: Standard Abbe refractometry
Mass fraction of water	Refractive index (Na D-line)	uncertainty
0.00298	1.5459	0.0005
0.00454	1.5457	0.0005
0.00613	1.5455	0.0005
0.00757	1.5453	0.0005
0.00906	1.5451	0.0005

System: water + 1-ethylpyridinium dicyanamide; phases: Liquid, Air at 1 atmosphere
Fixed: Temperature, K = 298.15
Property: Surface tension liquid-gas, N/m (Liquid); method: Maximal bubble pressure
Mass fraction of water	Surface tension liquid-gas, N/m	uncertainty
0.00293	0.0599	0.0006
0.00444	0.0602	0.0006
0.00593	0.0606	0.0006
0.00739	0.0609	0.0006
0.00885	0.0613	0.0006

System: water + 1-propylpyridinium dicyanamide; phases: Liquid
Fixed: Pressure, kPa = 100
Fixed: Temperature, K = 298.15
Property: Mass density, kg/m3 (Liquid); method: Vibrating tube method
Mass fraction of water	Mass density, kg/m3	uncertainty
0.00121	1089.8	1.37
0.00271	1089.6	1.37
0.00412	1089.36	1.37
0.00573	1089.04	1.36
0.00724	1088.73	1.36

System: water + 1-propylpyridinium dicyanamide; phases: Liquid
Fixed: Temperature, K = 298.15
Fixed: Pressure, kPa = 100
Property: Refractive index (Na D-line) (Liquid); method: Standard Abbe refractometry
Mass fraction of water	Refractive index (Na D-line)	uncertainty
0.00205	1.5403	0.0006
0.00353	1.5401	0.0006
0.00496	1.5399	0.0006
0.00639	1.5396	0.0006
0.0079	1.5393	0.0006

System: water + 1-propylpyridinium dicyanamide; phases: Liquid, Air at 1 atmosphere
Fixed: Temperature, K = 298.15
Property: Surface tension liquid-gas, N/m (Liquid); method: Maximal bubble pressure
Mass fraction of water	Surface tension liquid-gas, N/m	uncertainty
0.00205	0.0584	0.0007
0.0035	0.0587	0.0007
0.005	0.059	0.0007
0.00649	0.0593	0.0007
0.00802	0.0597	0.0008

System: water + 1-butylpyridinium dicyanamide; phases: Liquid
Fixed: Pressure, kPa = 100
Fixed: Temperature, K = 298.15
Property: Mass density, kg/m3 (Liquid); method: Vibrating tube method
Mass fraction of water	Mass density, kg/m3	uncertainty
0.00123	1068.7	1.04
0.00269	1068.58	1.04
0.00417	1068.44	1.04
0.00567	1068.29	1.04
0.00714	1068.14	1.04

System: water + 1-butylpyridinium dicyanamide; phases: Liquid
Fixed: Temperature, K = 298.15
Fixed: Pressure, kPa = 100
Property: Refractive index (Na D-line) (Liquid); method: Standard Abbe refractometry
Mass fraction of water	Refractive index (Na D-line)	uncertainty
0.00176	1.5341	0.0005
0.00319	1.5339	0.0005
0.00477	1.5336	0.0005
0.00627	1.5332	0.0005
0.0078	1.5329	0.0005

System: water + 1-butylpyridinium dicyanamide; phases: Liquid, Air at 1 atmosphere
Fixed: Temperature, K = 298.15
Property: Surface tension liquid-gas, N/m (Liquid); method: Maximal bubble pressure
Mass fraction of water	Surface tension liquid-gas, N/m	uncertainty
0.00176	0.0561	0.0005
0.0033	0.0564	0.0005
0.00478	0.0568	0.0005
0.00628	0.0572	0.0005
0.0078	0.0575	0.0005

System: water + 1-pentylpyridinium dicyanamide; phases: Liquid
Fixed: Pressure, kPa = 100
Fixed: Temperature, K = 298.15
Property: Mass density, kg/m3 (Liquid); method: Vibrating tube method
Mass fraction of water	Mass density, kg/m3	uncertainty
0.00124	1052.96	1.03
0.00269	1052.87	1.03
0.00423	1052.75	1.03
0.00567	1052.62	1.03
0.00714	1052.51	1.03

System: water + 1-pentylpyridinium dicyanamide; phases: Liquid
Fixed: Temperature, K = 298.15
Fixed: Pressure, kPa = 100
Property: Refractive index (Na D-line) (Liquid); method: Standard Abbe refractometry
Mass fraction of water	Refractive index (Na D-line)	uncertainty
0.00159	1.53	0.0005
0.00322	1.5297	0.0005
0.00513	1.5295	0.0005
0.00661	1.5293	0.0005
0.00821	1.5291	0.0005

System: water + 1-pentylpyridinium dicyanamide; phases: Liquid, Air at 1 atmosphere
Fixed: Temperature, K = 298.15
Property: Surface tension liquid-gas, N/m (Liquid); method: Maximal bubble pressure
Mass fraction of water	Surface tension liquid-gas, N/m	uncertainty
0.00159	0.0537	0.0005
0.00309	0.0541	0.0005
0.00463	0.0544	0.0005
0.00611	0.0547	0.0005
0.00762	0.055	0.0005

System: water + 1-hexylpyridinium dicyanamide; phases: Liquid
Fixed: Pressure, kPa = 100
Fixed: Temperature, K = 298.15
Property: Mass density, kg/m3 (Liquid); method: Vibrating tube method
Mass fraction of water	Mass density, kg/m3	uncertainty
0.00178	1036.29	1.03
0.00328	1036.21	1.03
0.00479	1036.11	1.03
0.00628	1035.99	1.03
0.00777	1035.91	1.03

System: water + 1-hexylpyridinium dicyanamide; phases: Liquid
Fixed: Temperature, K = 298.15
Fixed: Pressure, kPa = 100
Property: Refractive index (Na D-line) (Liquid); method: Standard Abbe refractometry
Mass fraction of water	Refractive index (Na D-line)	uncertainty
0.0019	1.5264	0.0005
0.00343	1.5262	0.0005
0.00491	1.526	0.0005
0.00657	1.5258	0.0005
0.00807	1.5255	0.0005

System: water + 1-hexylpyridinium dicyanamide; phases: Liquid, Air at 1 atmosphere
Fixed: Temperature, K = 298.15
Property: Surface tension liquid-gas, N/m (Liquid); method: Maximal bubble pressure
Mass fraction of water	Surface tension liquid-gas, N/m	uncertainty
0.0019	0.0496	0.0005
0.0034	0.0498	0.0005
0.00489	0.05	0.0005
0.00639	0.0503	0.0005
0.00791	0.0506	0.0005
