Measured thermophysical data. Electrical and electrochemical behavior of [bmim][DCA] + .gamma.-butyrolactone electrolyte
Source: J. Chem. Thermodyn., 2016, 10.1016/j.jct.2016.06.017
Compound 1: .gamma.-butyrolactone, C4H6O2, InChI=1S/C4H6O2/c5-4-2-1-3-6-4/h1-3H2, purity 99%
Compound 2: 1-butyl-3-methylimidazolium dicyanamide, C10H15N5, InChI=1S/C8H15N2.C2N3/c1-3-4-5-10-7-6-9(2)8-10;3-1-5-2-4/h6-8H,3-5H2,1-2H3;/q+1;-1, purity 98%

System: 1-butyl-3-methylimidazolium dicyanamide; phases: Liquid
Fixed: Pressure, kPa = 100
Fixed: Frequency, MHz = 0.01
Property: Electrical conductivity, S/m (Liquid); method: Alternating current cell with electrodes
Temperature, K	Electrical conductivity, S/m	uncertainty
273.15	0.383	0.004
283.15	0.636	0.006
293.15	0.972	0.01
298.15	1.171	0.012
303.15	1.39	0.014
313.15	1.886	0.019
323.15	2.459	0.025

System: .gamma.-butyrolactone + 1-butyl-3-methylimidazolium dicyanamide; phases: Liquid
Fixed: Pressure, kPa = 100
Fixed: Frequency, MHz = 0.01
Property: Electrical conductivity, S/m (Liquid); method: Alternating current cell with electrodes
Temperature, K	Mole fraction of 1-butyl-3-methylimidazolium dicyanamide	Electrical conductivity, S/m	uncertainty
273.15	0.0504	1.046	0.015
273.15	0.1002	1.399	0.015
273.15	0.2002	1.518	0.015
273.15	0.2984	1.35	0.014
273.15	0.4005	1.131	0.012
273.15	0.4954	0.924	0.01
273.15	0.6957	0.639	0.007
273.15	0.8871	0.454	0.005
273.15	1	0.383	0.004
283.15	0.0504	1.269	0.018
283.15	0.1002	1.707	0.018
283.15	0.2002	1.918	0.019
283.15	0.2984	1.77	0.018
283.15	0.4005	1.542	0.016
283.15	0.4954	1.321	0.014
283.15	0.6957	0.968	0.01
283.15	0.8871	0.736	0.008
283.15	1	0.636	0.006
293.15	0.0504	1.498	0.022
293.15	0.1002	2.034	0.022
293.15	0.2002	2.353	0.024
293.15	0.2984	2.239	0.023
293.15	0.4005	2.012	0.02
293.15	0.4954	1.78	0.018
293.15	0.6957	1.374	0.014
293.15	0.8871	1.089	0.011
293.15	1	0.972	0.01
298.15	0.0504	1.616	0.024
298.15	0.1002	2.204	0.024
298.15	0.2002	2.581	0.026
298.15	0.2984	2.489	0.025
298.15	0.4005	2.267	0.023
298.15	0.4954	2.028	0.021
298.15	0.6957	1.606	0.016
298.15	0.8871	1.297	0.013
298.15	1	1.171	0.012
303.15	0.0504	1.742	0.026
303.15	0.1002	2.375	0.026
303.15	0.2002	2.814	0.028
303.15	0.2984	2.748	0.028
303.15	0.4005	2.533	0.026
303.15	0.4954	2.293	0.023
303.15	0.6957	1.854	0.019
303.15	0.8871	1.528	0.016
303.15	1	1.39	0.014
313.15	0.0504	1.979	0.03
313.15	0.1002	2.728	0.03
313.15	0.2002	3.301	0.033
313.15	0.2984	3.293	0.033
313.15	0.4005	3.101	0.031
313.15	0.4954	2.867	0.029
313.15	0.6957	2.401	0.024
313.15	0.8871	2.04	0.021
313.15	1	1.886	0.019
323.15	0.0504	2.23	0.034
323.15	0.1002	3.091	0.034
323.15	0.2002	3.805	0.039
323.15	0.2984	3.867	0.039
323.15	0.4005	3.707	0.037
323.15	0.4954	3.484	0.035
323.15	0.6957	3.009	0.03
323.15	0.8871	2.625	0.026
323.15	1	2.459	0.025
