Measured thermophysical data. High-pressure phase equilibrium for the binary systems of {carbon dioxide (1) + dimethyl carbonate (2)} and {carbon dioxide (1) + diethyl carbonate (2)} at temperatures of 273 K, 283 K, and 293 K
Source: J. Chem. Thermodyn., 2008, 10.1016/j.jct.2007.05.017
Compound 1: carbon dioxide, CO2, InChI=1S/CO2/c2-1-3, purity 99.99%
Compound 2: dimethyl carbonate, C3H6O3, InChI=1S/C3H6O3/c1-5-3(4)6-2/h1-2H3
Compound 3: diethyl carbonate, C5H10O3, InChI=1S/C5H10O3/c1-3-7-5(6)8-4-2/h3-4H2,1-2H3

System: diethyl carbonate + carbon dioxide; phases: Liquid, Gas
Property: Vapor or sublimation pressure, kPa (Liquid); method: CCELL:UFactor:32
Mole fraction of carbon dioxide	Temperature, K	Vapor or sublimation pressure, kPa	uncertainty
0.2341	283	580	60
0.2665	293	830	80
0.2756	273	620	60
0.3618	283	1200	120
0.3759	293	1260	130
0.4946	273	1380	140
0.5006	283	1800	180
0.5636	293	2240	220
0.6234	273	1790	180
0.6252	283	2370	240
0.6965	273	2130	210
0.7047	293	3130	310
0.723	283	3050	300
0.787	273	2380	240
0.8237	293	3870	380

System: diethyl carbonate + carbon dioxide; phases: Gas, Liquid
Property: Mass density, kg/m3 (Gas); method: Vibrating tube method
Temperature, K	Mole fraction of carbon dioxide	Mass density, kg/m3	uncertainty
273	0.9633	411.4	40.3
273	0.9769	201.8	40.2
273	0.9977	23.6	49.2
273	0.9979	51.8	49.2
273	0.9979	15.2	40.9
283	0.9613	637.4	40.9
283	0.9745	96.8	40.2
283	0.9767	68.2	40.3
283	0.9778	32	41.4
283	0.9786	14	47.2
293	0.98	282.5	40.9
293	0.988	57.6	42.1
293	0.9888	97.9	42.1
293	0.9942	12.9	40.1
293	0.9888	20	42.2

System: diethyl carbonate + carbon dioxide; phases: Liquid, Gas
Property: Mass density, kg/m3 (Liquid); method: Vibrating tube method
Temperature, K	Mole fraction of carbon dioxide	Mass density, kg/m3	uncertainty
273	0.2756	1123.4	40.1
273	0.4946	1247.7	40.2
273	0.6234	1321.3	40.4
273	0.6965	1344.3	40.6
273	0.787	1353.4	40.6
283	0.2341	1049.3	40.2
283	0.3618	1146.3	40.5
283	0.5006	1183.2	40.1
283	0.6252	1155.4	40.3
283	0.723	1090.9	40.2
293	0.2665	786.9	40.5
293	0.3759	850.5	40.6
293	0.5636	938.9	40.2
293	0.7047	1040.3	40
293	0.8237	1127.7	40.1

System: diethyl carbonate + carbon dioxide; phases: Gas, Liquid
Property: Mole fraction of carbon dioxide (Gas); method: Chromatography
Mole fraction of carbon dioxide	Temperature, K	Mole fraction of carbon dioxide	uncertainty
0.2341	283	0.9786	0.006
0.2665	293	0.9942	0.0058
0.2756	273	0.9979	0.0021
0.3618	283	0.9778	0.006
0.3759	293	0.9888	0.006
0.4946	273	0.9977	0.0023
0.5006	283	0.9767	0.006
0.5636	293	0.988	0.006
0.6234	273	0.9979	0.0021
0.6252	283	0.9745	0.006
0.6965	273	0.9769	0.006
0.7047	293	0.9888	0.006
0.723	283	0.9613	0.006
0.787	273	0.9633	0.006
0.8237	293	0.98	0.006

System: carbon dioxide + dimethyl carbonate; phases: Liquid, Gas
Property: Vapor or sublimation pressure, kPa (Liquid); method: CCELL:UFactor:32
Mole fraction of carbon dioxide	Temperature, K	Vapor or sublimation pressure, kPa	uncertainty
0.2401	293	730	70
0.2765	283	660	70
0.3921	293	1520	150
0.4101	273	810	80
0.4429	283	1380	140
0.4865	293	2210	220
0.5128	273	1230	120
0.5573	283	2030	200
0.6179	273	1720	170
0.6275	293	3160	310
0.6791	283	2640	260
0.6922	273	2220	220
0.7885	273	2490	250
0.7974	283	3170	320
0.8035	293	4190	420

System: carbon dioxide + dimethyl carbonate; phases: Liquid, Gas
Property: Mass density, kg/m3 (Liquid); method: Vibrating tube method
Temperature, K	Mole fraction of carbon dioxide	Mass density, kg/m3	uncertainty
273	0.4101	475.4	40.1
273	0.5128	448.2	40
273	0.6179	373.6	40
273	0.6922	331.4	40
273	0.7885	260.1	40
283	0.2765	659.5	40
283	0.4429	569.3	40.1
283	0.5573	465.6	40
283	0.6791	358.1	40
283	0.7974	311.1	40.1
293	0.2401	755.4	40
293	0.3921	702.5	40.1
293	0.4865	661.3	40.1
293	0.6275	594.8	40.2
293	0.8035	467.5	40.1

System: carbon dioxide + dimethyl carbonate; phases: Gas, Liquid
Property: Mass density, kg/m3 (Gas); method: Vibrating tube method
Temperature, K	Mole fraction of carbon dioxide	Mass density, kg/m3	uncertainty
273	0.9658	124.9	40
273	0.9811	13.7	40
273	0.9912	37.4	41.2
273	0.9924	97.5	41.2
273	0.9978	62.1	40
283	0.9854	101.5	40.3
283	0.9898	16.4	40.1
283	0.9899	72.2	40
283	0.9902	55.6	40.1
283	0.991	33.8	40
293	0.9658	197.4	40
293	0.9767	114.8	40
293	0.9922	60.6	40.1
293	0.9942	36.1	40
293	0.9965	22.8	40

System: carbon dioxide + dimethyl carbonate; phases: Gas, Liquid
Property: Mole fraction of carbon dioxide (Gas); method: Chromatography
Mole fraction of carbon dioxide	Temperature, K	Mole fraction of carbon dioxide	uncertainty
0.2401	293	0.9965	0.0035
0.2765	283	0.9898	0.006
0.3921	293	0.9942	0.0058
0.4101	273	0.9811	0.006
0.4429	283	0.991	0.006
0.4865	293	0.9922	0.006
0.5128	273	0.9912	0.006
0.5573	283	0.9902	0.006
0.6179	273	0.9978	0.0022
0.6275	293	0.9767	0.006
0.6791	283	0.9899	0.006
0.6922	273	0.9924	0.006
0.7885	273	0.9658	0.006
0.7974	283	0.9854	0.006
0.8035	293	0.9658	0.006
