Measured thermophysical data. Measurement and correlation of solubility of boscalid with thermodynamic analysis in pure and binary solvents from 288.15 K to 313.15 K
Source: J. Chem. Thermodyn., 2017, 10.1016/j.jct.2017.04.017
Compound 1: Boscalid, C18H12Cl2N2O, InChI=1S/C18H12Cl2N2O/c19-13-9-7-12(8-10-13)14-4-1-2-6-16(14)22-18(23)15-5-3-11-21-17(15)20/h1-11H,(H,22,23), purity 99%
Compound 2: methanol, CH4O, InChI=1S/CH4O/c1-2/h2H,1H3, purity 99.5%
Compound 3: ethanol, C2H6O, InChI=1S/C2H6O/c1-2-3/h3H,2H2,1H3, purity 99.5%
Compound 4: propan-2-ol, C3H8O, InChI=1S/C3H8O/c1-3(2)4/h3-4H,1-2H3, purity 99.5%
Compound 5: ethyl acetate, C4H8O2, InChI=1S/C4H8O2/c1-3-6-4(2)5/h3H2,1-2H3, purity 99.5%
Compound 6: propyl ethanoate, C5H10O2, InChI=1S/C5H10O2/c1-3-4-7-5(2)6/h3-4H2,1-2H3, purity 99.5%

System: Boscalid; phases: Crystal, Liquid, Air at 1 atmosphere
Property: Normal melting temperature, K (Crystal); method: DTA
Normal melting temperature, K	uncertainty
419.88	0.61

System: Boscalid; phases: Crystal, Liquid, Air at 1 atmosphere
Property: Molar enthalpy of transition or fusion, kJ/mol (Crystal); method: DSC
Molar enthalpy of transition or fusion, kJ/mol	uncertainty
37.221	1.379

System: methanol + Boscalid; phases: Liquid, Crystal
Fixed: Pressure, kPa = 100
Property: Mole fraction of Boscalid (Liquid); method: gravimetric
Temperature, K	Mole fraction of Boscalid	uncertainty
288.15	0.001861	0.000187
293.15	0.002203	0.000221
298.15	0.002601	0.000261
303.15	0.003151	0.000316
308.15	0.00394	0.000395
313.15	0.004701	0.000471

System: ethanol + Boscalid; phases: Liquid, Crystal
Fixed: Pressure, kPa = 100
Property: Mole fraction of Boscalid (Liquid); method: gravimetric
Temperature, K	Mole fraction of Boscalid	uncertainty
288.15	0.001635	0.000164
293.15	0.001936	0.000194
298.15	0.002304	0.000231
303.15	0.002821	0.000283
308.15	0.003464	0.000348
313.15	0.004282	0.00043

System: propan-2-ol + Boscalid; phases: Liquid, Crystal
Fixed: Pressure, kPa = 100
Property: Mole fraction of Boscalid (Liquid); method: gravimetric
Temperature, K	Mole fraction of Boscalid	uncertainty
288.15	0.000816	8.19e-05
293.15	0.000983	9.87e-05
298.15	0.001241	0.000125
303.15	0.00162	0.000163
308.15	0.001997	0.000201
313.15	0.002512	0.000252

System: ethyl acetate + Boscalid; phases: Liquid, Crystal
Fixed: Pressure, kPa = 100
Property: Mole fraction of Boscalid (Liquid); method: gravimetric
Temperature, K	Mole fraction of Boscalid	uncertainty
288.15	0.007598	0.000761
293.15	0.008794	0.000881
298.15	0.01017	0.00102
303.15	0.01166	0.00117
308.15	0.01414	0.00142
313.15	0.01675	0.00168

System: propyl ethanoate + Boscalid; phases: Liquid, Crystal
Fixed: Pressure, kPa = 100
Property: Mole fraction of Boscalid (Liquid); method: gravimetric
Temperature, K	Mole fraction of Boscalid	uncertainty
288.15	0.00718	0.000719
293.15	0.008216	0.000823
298.15	0.009428	0.000945
303.15	0.01125	0.00113
308.15	0.01353	0.00136
313.15	0.01604	0.00161

System: ethanol + ethyl acetate + Boscalid; phases: Liquid, Crystal
Fixed: Pressure, kPa = 100
Property: Mole fraction of Boscalid (Liquid); method: gravimetric
Temperature, K	Solvent: Mole fraction of ethanol	Mole fraction of Boscalid	uncertainty
288.15	0	0.007598	0.000761
288.15	0.1	0.008251	0.000827
288.15	0.2	0.008669	0.000869
288.15	0.3	0.008449	0.000847
288.15	0.4	0.008216	0.000824
288.15	0.5	0.007486	0.000752
288.15	0.6	0.006483	0.000652
288.15	0.7	0.005165	0.000519
288.15	0.8	0.004093	0.000412
288.15	0.9	0.002818	0.000283
288.15	1	0.001635	0.000164
293.15	0	0.008794	0.000881
293.15	0.1	0.009534	0.000955
293.15	0.2	0.009898	0.000992
293.15	0.3	0.009814	0.000983
293.15	0.4	0.009453	0.000947
293.15	0.5	0.008707	0.000874
293.15	0.6	0.007606	0.000764
293.15	0.7	0.00624	0.000627
293.15	0.8	0.004893	0.000491
293.15	0.9	0.003341	0.000335
293.15	1	0.001936	0.000194
298.15	0	0.01017	0.00102
298.15	0.1	0.01106	0.00111
298.15	0.2	0.0114	0.00114
298.15	0.3	0.01135	0.00114
298.15	0.4	0.01089	0.00109
298.15	0.5	0.0101	0.00101
298.15	0.6	0.008872	0.000891
298.15	0.7	0.007296	0.000733
298.15	0.8	0.005714	0.000574
298.15	0.9	0.003934	0.000395
298.15	1	0.002304	0.000231
303.15	0	0.01166	0.00117
303.15	0.1	0.0128	0.00128
303.15	0.2	0.01327	0.00133
303.15	0.3	0.01305	0.00131
303.15	0.4	0.01275	0.00128
303.15	0.5	0.01185	0.00119
303.15	0.6	0.01011	0.00102
303.15	0.7	0.008572	0.000861
303.15	0.8	0.006716	0.000675
303.15	0.9	0.004505	0.000452
303.15	1	0.002821	0.000283
308.15	0	0.01414	0.00142
308.15	0.1	0.01522	0.00153
308.15	0.2	0.0159	0.00159
308.15	0.3	0.01579	0.00158
308.15	0.4	0.01519	0.00152
308.15	0.5	0.01407	0.00141
308.15	0.6	0.01251	0.00126
308.15	0.7	0.01039	0.00104
308.15	0.8	0.008214	0.000825
308.15	0.9	0.005746	0.000577
308.15	1	0.003464	0.000348
313.15	0	0.01675	0.00168
313.15	0.1	0.0178	0.00178
313.15	0.2	0.01859	0.00186
313.15	0.3	0.01845	0.00185
313.15	0.4	0.01776	0.00178
313.15	0.5	0.01666	0.00167
313.15	0.6	0.01479	0.00148
313.15	0.7	0.01232	0.00124
313.15	0.8	0.009811	0.000985
313.15	0.9	0.006898	0.000692
313.15	1	0.004282	0.00043

System: propan-2-ol + ethyl acetate + Boscalid; phases: Liquid, Crystal
Fixed: Pressure, kPa = 100
Property: Mole fraction of Boscalid (Liquid); method: gravimetric
Temperature, K	Solvent: Mole fraction of propan-2-ol	Mole fraction of Boscalid	uncertainty
288.15	0	0.007598	0.000761
288.15	0.1	0.007612	0.000763
288.15	0.2	0.007396	0.000742
288.15	0.3	0.006768	0.000679
288.15	0.4	0.00609	0.000612
288.15	0.5	0.005046	0.000509
288.15	0.6	0.004128	0.000416
288.15	0.7	0.003352	0.000337
288.15	0.8	0.00243	0.000244
288.15	0.9	0.001413	0.000142
288.15	1	0.000816	8.19e-05
293.15	0	0.008794	0.000881
293.15	0.1	0.008824	0.000884
293.15	0.2	0.00856	0.000858
293.15	0.3	0.008057	0.000808
293.15	0.4	0.007191	0.000721
293.15	0.5	0.006311	0.000635
293.15	0.6	0.005029	0.000507
293.15	0.7	0.003917	0.000394
293.15	0.8	0.002773	0.000279
293.15	0.9	0.001837	0.000185
293.15	1	0.000983	9.87e-05
298.15	0	0.01017	0.00102
298.15	0.1	0.01025	0.00103
298.15	0.2	0.009852	0.000987
298.15	0.3	0.009233	0.000925
298.15	0.4	0.008324	0.000835
298.15	0.5	0.007174	0.000721
298.15	0.6	0.005975	0.000601
298.15	0.7	0.004708	0.000473
298.15	0.8	0.003386	0.00034
298.15	0.9	0.002257	0.000227
298.15	1	0.001241	0.000125
303.15	0	0.01166	0.00117
303.15	0.1	0.01187	0.00119
303.15	0.2	0.01148	0.00115
303.15	0.3	0.01075	0.00108
303.15	0.4	0.009541	0.000958
303.15	0.5	0.007894	0.000795
303.15	0.6	0.006643	0.000668
303.15	0.7	0.005432	0.000546
303.15	0.8	0.00403	0.000405
303.15	0.9	0.002705	0.000272
303.15	1	0.00162	0.000163
308.15	0	0.01414	0.00142
308.15	0.1	0.01424	0.00143
308.15	0.2	0.01373	0.00138
308.15	0.3	0.01269	0.00127
308.15	0.4	0.01163	0.00117
308.15	0.5	0.009923	0.001
308.15	0.6	0.008225	0.000828
308.15	0.7	0.006738	0.000678
308.15	0.8	0.004914	0.000494
308.15	0.9	0.003307	0.000332
308.15	1	0.001997	0.000201
313.15	0	0.01675	0.00168
313.15	0.1	0.01676	0.00168
313.15	0.2	0.01618	0.00162
313.15	0.3	0.01514	0.00152
313.15	0.4	0.01375	0.00138
313.15	0.5	0.01205	0.00121
313.15	0.6	0.01004	0.00101
313.15	0.7	0.008043	0.000808
313.15	0.8	0.006068	0.00061
313.15	0.9	0.004146	0.000417
313.15	1	0.002512	0.000252
