Measured thermophysical data. Isopiestic determination of the osmotic and activity coefficients of the {yKBr + (1-y)K2HPO4}(aq) system at T = 298.15 K
Source: J. Chem. Thermodyn., 2013, 10.1016/j.jct.2013.03.003
Compound 1: potassium bromide, BrK, InChI=1S/BrH.K/h1H;/q;+1/p-1, purity 99.999%
Compound 2: dipotassium hydrogen phosphate, HK2O4P, InChI=1S/2K.H3O4P/c;;1-5(2,3)4/h;;(H3,1,2,3,4)/q2*+1;/p-2, purity 99.99%
Compound 3: water, H2O, InChI=1S/H2O/h1H2, purity 99.8%

System: water + potassium bromide + dipotassium hydrogen phosphate; phases: Liquid, Gas
Fixed: Temperature, K = 298.15
Property: Osmotic coefficient (Liquid); method: ISOPIE
Molality, mol/kg of potassium bromide	Molality, mol/kg of dipotassium hydrogen phosphate	Osmotic coefficient	uncertainty
1.5331	2.2772	0.8013	0.01
1.4445	2.1456	0.7906	0.0105
1.3295	1.9748	0.778	0.0111
1.2236	1.8176	0.7689	0.0116
1.143	1.6978	0.7621	0.0119
1.0513	1.5616	0.7543	0.0123
0.9913	1.4725	0.7504	0.0125
2.5163	1.3546	0.8719	0.0065
2.364	1.2726	0.8627	0.007
2.1709	1.1686	0.851	0.0075
1.9953	1.0742	0.8421	0.0079
1.864	1.0035	0.8346	0.0083
1.707	0.9189	0.8297	0.0085
1.6096	0.8665	0.8253	0.0088
3.8401	2.0672	0.948	0.003
3.3667	1.8124	0.9175	0.0044
2.9312	1.578	0.8907	0.0056
2.6443	1.4235	0.8739	0.0064
3.1372	0.7563	0.9283	0.0037
2.9481	0.7107	0.9183	0.0042
2.7078	0.6528	0.9057	0.0048
2.4892	0.6001	0.8961	0.0053
2.3184	0.5589	0.8908	0.0055
2.1289	0.5132	0.8831	0.0059
2.0068	0.4838	0.8788	0.0061
4.8717	1.1744	0.992	0.0011
4.2175	1.0167	0.9723	0.0018
3.6556	0.8813	0.9481	0.0028
3.2863	0.7922	0.9334	0.0034
3.6338	0.3184	0.9645	0.0018
3.4138	0.2991	0.9544	0.0025
3.1256	0.2738	0.9442	0.0029
2.8728	0.2517	0.9344	0.0034
2.6827	0.235	0.9265	0.0037
2.4639	0.2159	0.9183	0.0042
2.3264	0.2038	0.9123	0.0044
4.9136	0.4305	1.0043	0.0011
4.25	0.3724	0.9814	0.0013
3.813	0.3341	0.9682	0.0017
4.0263	0	0.9849	0.0011
3.7782	0	0.9757	0.0015
3.4601	0	0.965	0.0019
3.1705	0	0.9579	0.0021
2.9466	0	0.9544	0.0023
2.7025	0	0.9473	0.0027
2.5452	0	0.9434	0.0029
5.4104	0	1.032	0.002
4.6937	0	1.0054	0.001
4.2143	0	0.9911	0.0009

System: water + potassium bromide; phases: Liquid, Gas
Fixed: Temperature, K = 298.15
Property: Osmotic coefficient (Liquid); method: ISOPIE
Molality, mol/kg of potassium bromide	Osmotic coefficient	uncertainty
4.0263	0.9849	0.0011
3.7782	0.9757	0.0015
3.4601	0.965	0.0019
3.1705	0.9579	0.0021
2.9466	0.9544	0.0023
2.7025	0.9473	0.0027
2.5452	0.9434	0.0029
5.4104	1.032	0.002
4.6937	1.0054	0.001
4.2143	0.9911	0.0009
