Measured thermophysical data. Volumetric, ultrasonic and viscometric studies of binary mixtures of dimethyl sulphoxide with chloro and nitro substituted aromatic hydrocarbons at T = 303.15 K
Source: J. Chem. Thermodyn., 2006, 10.1016/j.jct.2006.04.005
Compound 1: 1,2-dichlorobenzene, C6H4Cl2, InChI=1S/C6H4Cl2/c7-5-3-1-2-4-6(5)8/h1-4H
Compound 2: 1,3-dichlorobenzene, C6H4Cl2, InChI=1S/C6H4Cl2/c7-5-2-1-3-6(8)4-5/h1-4H
Compound 3: 1,2,4-trichlorobenzene, C6H3Cl3, InChI=1S/C6H3Cl3/c7-4-1-2-5(8)6(9)3-4/h1-3H
Compound 4: dimethyl sulfoxide, C2H6OS, InChI=1S/C2H6OS/c1-4(2)3/h1-2H3
Compound 5: 2-chlorotoluene, C7H7Cl, InChI=1S/C7H7Cl/c1-6-4-2-3-5-7(6)8/h2-5H,1H3
Compound 6: 3-chlorotoluene, C7H7Cl, InChI=1S/C7H7Cl/c1-6-3-2-4-7(8)5-6/h2-5H,1H3
Compound 7: 4-chlorotoluene, C7H7Cl, InChI=1S/C7H7Cl/c1-6-2-4-7(8)5-3-6/h2-5H,1H3
Compound 8: 2-nitrotoluene, C7H7NO2, InChI=1S/C7H7NO2/c1-6-4-2-3-5-7(6)8(9)10/h2-5H,1H3
Compound 9: 3-nitrotoluene, C7H7NO2, InChI=1S/C7H7NO2/c1-6-3-2-4-7(5-6)8(9)10/h2-5H,1H3

System: 1,2-dichlorobenzene; phases: Liquid
Property: Viscosity, Pa*s (Liquid); method: Capillary tube (Ostwald; Ubbelohde) method
Pressure, kPa	Temperature, K	Viscosity, Pa*s	uncertainty
101	303.15	0.001302	3.3e-05

System: 1,2-dichlorobenzene; phases: Liquid
Property: Speed of sound, m/s (Liquid); method: FPINT::UFactor:8
Temperature, K	Pressure, kPa	Speed of sound, m/s	uncertainty
303.15	101	1261	8

System: 1,2-dichlorobenzene; phases: Liquid
Property: Mass density, kg/m3 (Liquid); method: Pycnometric method
Temperature, K	Pressure, kPa	Mass density, kg/m3	uncertainty
303.15	101	1299.24	9.4

System: 1,3-dichlorobenzene; phases: Liquid
Property: Viscosity, Pa*s (Liquid); method: Capillary tube (Ostwald; Ubbelohde) method
Pressure, kPa	Temperature, K	Viscosity, Pa*s	uncertainty
101	303.15	0.001025	2.6e-05

System: 1,3-dichlorobenzene; phases: Liquid
Property: Speed of sound, m/s (Liquid); method: FPINT::UFactor:16
Temperature, K	Pressure, kPa	Speed of sound, m/s	uncertainty
303.15	101	1242	11

System: 1,3-dichlorobenzene; phases: Liquid
Property: Mass density, kg/m3 (Liquid); method: Pycnometric method
Temperature, K	Pressure, kPa	Mass density, kg/m3	uncertainty
303.15	101	1277.12	9.09

System: 1,2,4-trichlorobenzene; phases: Liquid
Property: Viscosity, Pa*s (Liquid); method: Capillary tube (Ostwald; Ubbelohde) method
Pressure, kPa	Temperature, K	Viscosity, Pa*s	uncertainty
101	303.15	0.001613	4.1e-05

System: 1,2,4-trichlorobenzene; phases: Liquid
Property: Speed of sound, m/s (Liquid); method: FPINT::UFactor:8
Temperature, K	Pressure, kPa	Speed of sound, m/s	uncertainty
303.15	101	1260	8

System: 1,2,4-trichlorobenzene; phases: Liquid
Property: Mass density, kg/m3 (Liquid); method: Pycnometric method
Temperature, K	Pressure, kPa	Mass density, kg/m3	uncertainty
303.15	101	1442.14	11.55

System: dimethyl sulfoxide; phases: Liquid
Property: Viscosity, Pa*s (Liquid); method: Capillary tube (Ostwald; Ubbelohde) method
Pressure, kPa	Temperature, K	Viscosity, Pa*s	uncertainty
101	303.15	0.001803	4.6e-05

System: dimethyl sulfoxide; phases: Liquid
Property: Speed of sound, m/s (Liquid); method: FPINT:UFactor:8
Temperature, K	Pressure, kPa	Speed of sound, m/s	uncertainty
303.15	101	1470	9

System: dimethyl sulfoxide; phases: Liquid
Property: Mass density, kg/m3 (Liquid); method: Pycnometric method
Temperature, K	Pressure, kPa	Mass density, kg/m3	uncertainty
303.15	101	1091.35	6.67

System: 2-chlorotoluene; phases: Liquid
Property: Viscosity, Pa*s (Liquid); method: Capillary tube (Ostwald; Ubbelohde) method
Pressure, kPa	Temperature, K	Viscosity, Pa*s	uncertainty
101	303.15	0.000887	2.3e-05

System: 2-chlorotoluene; phases: Liquid
Property: Speed of sound, m/s (Liquid); method: FPINT::UFactor:8
Temperature, K	Pressure, kPa	Speed of sound, m/s	uncertainty
303.15	101	1284	8

System: 2-chlorotoluene; phases: Liquid
Property: Mass density, kg/m3 (Liquid); method: Pycnometric method
Temperature, K	Pressure, kPa	Mass density, kg/m3	uncertainty
303.15	101	1072.81	6.45

System: 3-chlorotoluene; phases: Liquid
Property: Viscosity, Pa*s (Liquid); method: Capillary tube (Ostwald; Ubbelohde) method
Pressure, kPa	Temperature, K	Viscosity, Pa*s	uncertainty
101	303.15	0.00078	2e-05

System: 3-chlorotoluene; phases: Liquid
Property: Speed of sound, m/s (Liquid); method: FPINT::UFactor:8
Temperature, K	Pressure, kPa	Speed of sound, m/s	uncertainty
303.15	101	1280	8

System: 3-chlorotoluene; phases: Liquid
Property: Mass density, kg/m3 (Liquid); method: Pycnometric method
Temperature, K	Pressure, kPa	Mass density, kg/m3	uncertainty
303.15	101	1065.21	6.36

System: 4-chlorotoluene; phases: Liquid
Property: Viscosity, Pa*s (Liquid); method: Capillary tube (Ostwald; Ubbelohde) method
Pressure, kPa	Temperature, K	Viscosity, Pa*s	uncertainty
101	303.15	0.0009	2.3e-05

System: 4-chlorotoluene; phases: Liquid
Property: Speed of sound, m/s (Liquid); method: FPINT::UFactor:8
Temperature, K	Pressure, kPa	Speed of sound, m/s	uncertainty
303.15	101	1271	8

System: 4-chlorotoluene; phases: Liquid
Property: Mass density, kg/m3 (Liquid); method: Pycnometric method
Temperature, K	Pressure, kPa	Mass density, kg/m3	uncertainty
303.15	101	1060.54	6.31

System: 2-nitrotoluene; phases: Liquid
Property: Viscosity, Pa*s (Liquid); method: Capillary tube (Ostwald; Ubbelohde) method
Pressure, kPa	Temperature, K	Viscosity, Pa*s	uncertainty
101	303.15	0.001911	4.9e-05

System: 2-nitrotoluene; phases: Liquid
Property: Mass density, kg/m3 (Liquid); method: Pycnometric method
Temperature, K	Pressure, kPa	Mass density, kg/m3	uncertainty
303.15	101	1153.24	7.44

System: 3-nitrotoluene; phases: Liquid
Property: Viscosity, Pa*s (Liquid); method: Capillary tube (Ostwald; Ubbelohde) method
Pressure, kPa	Temperature, K	Viscosity, Pa*s	uncertainty
101	303.15	0.001777	4.6e-05

System: 3-nitrotoluene; phases: Liquid
Property: Mass density, kg/m3 (Liquid); method: Pycnometric method
Temperature, K	Pressure, kPa	Mass density, kg/m3	uncertainty
303.15	101	1147.67	7.37

System: dimethyl sulfoxide + 1,2-dichlorobenzene; phases: Liquid
Fixed: Pressure, kPa = 101
Fixed: Temperature, K = 303.15
Property: Viscosity, Pa*s (Liquid); method: Capillary tube (Ostwald; Ubbelohde) method
Mole fraction of dimethyl sulfoxide	Viscosity, Pa*s	uncertainty
0	0.001302	3.3e-05
0.104	0.001379	3.5e-05
0.1511	0.001409	3.6e-05
0.2041	0.001443	3.7e-05
0.2506	0.001472	3.8e-05
0.301	0.001502	3.9e-05
0.4025	0.00156	4e-05
0.4511	0.001587	4.1e-05
0.521	0.001623	4.2e-05
0.6511	0.001686	4.3e-05
0.7221	0.001719	4.4e-05
0.7519	0.00173	4.4e-05
0.8002	0.001751	4.5e-05
0.8514	0.001766	4.5e-05
0.9019	0.001782	4.6e-05
0.9405	0.001782	4.6e-05
1	0.001803	4.6e-05

System: dimethyl sulfoxide + 1,2-dichlorobenzene; phases: Liquid
Fixed: Temperature, K = 303.15
Fixed: Pressure, kPa = 101
Property: Speed of sound, m/s (Liquid); method: FPINT:UFactor:8
Mole fraction of dimethyl sulfoxide	Speed of sound, m/s	uncertainty
0	1261	8
0.104	1264	8
0.1511	1268	8
0.2041	1274	8
0.2506	1279	8
0.301	1284	8
0.4025	1303	8
0.4511	1312	8
0.521	1329	8
0.6511	1367	8
0.7221	1394	8
0.7519	1403	8
0.8002	1417	8
0.8514	1435	8
0.9019	1446	8
0.9405	1457	8
1	1470	9

System: dimethyl sulfoxide + 1,2-dichlorobenzene; phases: Liquid
Fixed: Temperature, K = 303.15
Fixed: Pressure, kPa = 101
Property: Mass density, kg/m3 (Liquid); method: Pycnometric method
Mole fraction of dimethyl sulfoxide	Mass density, kg/m3	uncertainty
0	1299.24	9.4
1	1091.35	6.67

System: dimethyl sulfoxide + 1,2-dichlorobenzene; phases: Liquid
Fixed: Pressure, kPa = 101
Fixed: Temperature, K = 303.15
Property: Excess molar volume, m3/mol (Liquid); method: Direct dilatometry
Mole fraction of dimethyl sulfoxide	Excess molar volume, m3/mol	uncertainty
0.104	2.3e-08	6e-09
0.1511	3.3e-08	6e-09
0.2041	4e-08	6e-09
0.2506	4.7e-08	6e-09
0.301	5.3e-08	6e-09
0.4025	6e-08	6e-09
0.4511	6.3e-08	6e-09
0.521	6.5e-08	6e-09
0.6511	5.8e-08	6e-09
0.7221	5.3e-08	6e-09
0.7519	4.9e-08	6e-09
0.8002	4e-08	6e-09
0.8514	3.5e-08	6e-09
0.9019	2.3e-08	6e-09
0.9405	1.3e-08	6e-09

System: dimethyl sulfoxide + 1,3-dichlorobenzene; phases: Liquid
Fixed: Pressure, kPa = 101
Fixed: Temperature, K = 303.15
Property: Viscosity, Pa*s (Liquid); method: Capillary tube (Ostwald; Ubbelohde) method
Mole fraction of dimethyl sulfoxide	Viscosity, Pa*s	uncertainty
0	0.001025	2.6e-05
0.0801	0.001107	2.8e-05
0.1124	0.00114	2.9e-05
0.1506	0.001181	3e-05
0.2075	0.001232	3.2e-05
0.2511	0.001273	3.3e-05
0.3162	0.001329	3.4e-05
0.4219	0.001419	3.6e-05
0.4507	0.001445	3.7e-05
0.5005	0.001487	3.8e-05
0.6224	0.001586	4.1e-05
0.6819	0.001632	4.2e-05
0.7517	0.00168	4.3e-05
0.8015	0.001715	4.4e-05
0.852	0.001742	4.5e-05
0.9221	0.001778	4.6e-05

System: dimethyl sulfoxide + 1,3-dichlorobenzene; phases: Liquid
Fixed: Temperature, K = 303.15
Fixed: Pressure, kPa = 101
Property: Speed of sound, m/s (Liquid); method: FPINT:UFactor:16
Mole fraction of dimethyl sulfoxide	Speed of sound, m/s	uncertainty
0	1242	11
0.0801	1244	11
0.1124	1248	11
0.1506	1253	11
0.2075	1256	11
0.2511	1268	11
0.3162	1387	120
0.4219	1395	120
0.4507	1305	12
0.5005	1345	12
0.6224	1370	12
0.6819	1399	12
0.7517	1416	12
0.8015	1431	12
0.852	1455	13
0.9221	1467	13
1	1470	13

System: dimethyl sulfoxide + 1,3-dichlorobenzene; phases: Liquid
Fixed: Temperature, K = 303.15
Fixed: Pressure, kPa = 101
Property: Mass density, kg/m3 (Liquid); method: Pycnometric method
Mole fraction of dimethyl sulfoxide	Mass density, kg/m3	uncertainty
0	1277.12	9.09
1	1091.35	6.67

System: dimethyl sulfoxide + 1,3-dichlorobenzene; phases: Liquid
Fixed: Pressure, kPa = 101
Fixed: Temperature, K = 303.15
Property: Excess molar volume, m3/mol (Liquid); method: Direct dilatometry
Mole fraction of dimethyl sulfoxide	Excess molar volume, m3/mol	uncertainty
0.0801	1.6e-08	6e-09
0.1124	2.2e-08	6e-09
0.1506	2.7e-08	6e-09
0.2075	3.5e-08	6e-09
0.2511	4e-08	6e-09
0.3162	4.5e-08	6e-09
0.4219	5.3e-08	6e-09
0.4507	5.5e-08	6e-09
0.5005	5.6e-08	6e-09
0.6224	5.4e-08	6e-09
0.6819	5e-08	6e-09
0.7517	4.3e-08	6e-09
0.8015	3.5e-08	6e-09
0.852	2.7e-08	6e-09
0.9221	1.7e-08	6e-09

System: dimethyl sulfoxide + 1,2,4-trichlorobenzene; phases: Liquid
Fixed: Pressure, kPa = 101
Fixed: Temperature, K = 303.15
Property: Viscosity, Pa*s (Liquid); method: Capillary tube (Ostwald; Ubbelohde) method
Mole fraction of dimethyl sulfoxide	Viscosity, Pa*s	uncertainty
0	0.001613	4.1e-05
0.0911	0.001647	4.2e-05
0.1214	0.001658	4.3e-05
0.1805	0.001677	4.3e-05
0.2144	0.001688	4.3e-05
0.251	0.001699	4.4e-05
0.3225	0.001719	4.4e-05
0.4115	0.001742	4.5e-05
0.467	0.001755	4.5e-05
0.5001	0.001763	4.5e-05
0.5524	0.001773	4.6e-05
0.6207	0.001786	4.6e-05
0.7005	0.001796	4.6e-05
0.7829	0.001801	4.6e-05
0.8014	0.001802	4.6e-05
0.9228	0.001803	4.6e-05

System: dimethyl sulfoxide + 1,2,4-trichlorobenzene; phases: Liquid
Fixed: Temperature, K = 303.15
Fixed: Pressure, kPa = 101
Property: Speed of sound, m/s (Liquid); method: FPINT:UFactor:8
Mole fraction of dimethyl sulfoxide	Speed of sound, m/s	uncertainty
0	1260	8
0.0911	1253	8
0.1214	1252	8
0.1805	1257	8
0.2144	1259	8
0.251	1264	8
0.3225	1274	8
0.4115	1285	8
0.467	1296	8
0.5001	1302	8
0.5524	1316	8
0.6207	1339	8
0.7005	1379	8
0.7829	1415	8
0.8014	1423	8
0.9228	1459	8
1	1470	9

System: dimethyl sulfoxide + 1,2,4-trichlorobenzene; phases: Liquid
Fixed: Temperature, K = 303.15
Fixed: Pressure, kPa = 101
Property: Mass density, kg/m3 (Liquid); method: Pycnometric method
Mole fraction of dimethyl sulfoxide	Mass density, kg/m3	uncertainty
0	1442.14	11.55
1	1091.35	6.67

System: dimethyl sulfoxide + 1,2,4-trichlorobenzene; phases: Liquid
Fixed: Pressure, kPa = 101
Fixed: Temperature, K = 303.15
Property: Excess molar volume, m3/mol (Liquid); method: Direct dilatometry
Mole fraction of dimethyl sulfoxide	Excess molar volume, m3/mol	uncertainty
0.0911	1.2e-08	6e-09
0.1214	1.6e-08	6e-09
0.1805	2.3e-08	6e-09
0.2144	2.7e-08	6e-09
0.251	3.2e-08	6e-09
0.3225	3.9e-08	6e-09
0.4115	4.6e-08	6e-09
0.467	4.8e-08	6e-09
0.5001	5e-08	6e-09
0.5524	4.8e-08	6e-09
0.6207	4.7e-08	6e-09
0.7005	4e-08	6e-09
0.7829	3e-08	6e-09
0.8014	2.8e-08	6e-09
0.9228	1.2e-08	6e-09

System: dimethyl sulfoxide + 2-chlorotoluene; phases: Liquid
Fixed: Pressure, kPa = 101
Fixed: Temperature, K = 303.15
Property: Viscosity, Pa*s (Liquid); method: Capillary tube (Ostwald; Ubbelohde) method
Mole fraction of dimethyl sulfoxide	Viscosity, Pa*s	uncertainty
0	0.000887	2.3e-05
0.104	0.001013	2.6e-05
0.1845	0.001123	2.9e-05
0.2141	0.00116	3e-05
0.2552	0.001209	3.1e-05
0.3075	0.001266	3.3e-05
0.376	0.001342	3.4e-05
0.4079	0.001375	3.5e-05
0.5224	0.00149	3.8e-05
0.551	0.001518	3.9e-05
0.6005	0.001564	4e-05
0.7241	0.001667	4.3e-05
0.761	0.00169	4.3e-05
0.8011	0.001724	4.4e-05
0.8711	0.001773	4.6e-05

System: dimethyl sulfoxide + 2-chlorotoluene; phases: Liquid
Fixed: Temperature, K = 303.15
Fixed: Pressure, kPa = 101
Property: Speed of sound, m/s (Liquid); method: FPINT:UFactor:8
Mole fraction of dimethyl sulfoxide	Speed of sound, m/s	uncertainty
0	1284	8
0.104	1303	8
0.1845	1324	8
0.2141	1330	8
0.2552	1343	8
0.3075	1352	8
0.376	1369	8
0.4079	1377	8
0.5224	1403	8
0.551	1410	8
0.6005	1422	8
0.7241	1446	8
0.761	1450	8
0.8011	1460	8
0.8711	1464	9
1	1470	9

System: dimethyl sulfoxide + 2-chlorotoluene; phases: Liquid
Fixed: Temperature, K = 303.15
Fixed: Pressure, kPa = 101
Property: Mass density, kg/m3 (Liquid); method: Pycnometric method
Mole fraction of dimethyl sulfoxide	Mass density, kg/m3	uncertainty
0	1072.81	6.45
1	1091.35	6.67

System: dimethyl sulfoxide + 2-chlorotoluene; phases: Liquid
Fixed: Pressure, kPa = 101
Fixed: Temperature, K = 303.15
Property: Excess molar volume, m3/mol (Liquid); method: Direct dilatometry
Mole fraction of dimethyl sulfoxide	Excess molar volume, m3/mol	uncertainty
0.104	1.1e-08	6e-09
0.1845	2.1e-08	6e-09
0.2141	2.5e-08	6e-09
0.2552	2.9e-08	6e-09
0.3075	3.3e-08	6e-09
0.376	3.9e-08	6e-09
0.4079	4.2e-08	6e-09
0.5224	4.6e-08	6e-09
0.551	4.5e-08	6e-09
0.6005	4.2e-08	6e-09
0.7241	3.1e-08	6e-09
0.761	2.7e-08	6e-09
0.8011	2.3e-08	6e-09
0.8711	1.6e-08	6e-09

System: dimethyl sulfoxide + 3-chlorotoluene; phases: Liquid
Fixed: Pressure, kPa = 101
Fixed: Temperature, K = 303.15
Property: Viscosity, Pa*s (Liquid); method: Capillary tube (Ostwald; Ubbelohde) method
Mole fraction of dimethyl sulfoxide	Viscosity, Pa*s	uncertainty
0	0.00078	2e-05
0.0868	0.00102	2.6e-05
0.1205	0.001073	2.8e-05
0.1911	0.001164	3e-05
0.2207	0.001203	3.1e-05
0.261	0.001249	3.2e-05
0.3125	0.001305	3.4e-05
0.3829	0.00138	3.5e-05
0.4156	0.001415	3.6e-05
0.502	0.001503	3.9e-05
0.5419	0.001541	4e-05
0.6205	0.001602	4.1e-05
0.7125	0.001674	4.3e-05
0.7517	0.001704	4.4e-05
0.824	0.001735	4.5e-05
0.9246	0.001783	4.6e-05
1	0.001803	4.6e-05

System: dimethyl sulfoxide + 3-chlorotoluene; phases: Liquid
Fixed: Temperature, K = 303.15
Fixed: Pressure, kPa = 101
Property: Speed of sound, m/s (Liquid); method: FPINT:UFactor:8
Mole fraction of dimethyl sulfoxide	Speed of sound, m/s	uncertainty
0	1280	8
0.0868	1300	8
0.1205	1308	8
0.1911	1324	8
0.2207	1383	60
0.261	1342	8
0.3125	1356	8
0.3829	1372	8
0.4156	1382	8
0.502	1404	8
0.5419	1412	8
0.6205	1429	8
0.7125	1450	8
0.7517	1457	8
0.824	1468	9
0.9246	1469	9
1	1470	9

System: dimethyl sulfoxide + 3-chlorotoluene; phases: Liquid
Fixed: Temperature, K = 303.15
Fixed: Pressure, kPa = 101
Property: Mass density, kg/m3 (Liquid); method: Pycnometric method
Mole fraction of dimethyl sulfoxide	Mass density, kg/m3	uncertainty
0	1065.21	6.36
1	1091.35	6.67

System: dimethyl sulfoxide + 3-chlorotoluene; phases: Liquid
Fixed: Pressure, kPa = 101
Fixed: Temperature, K = 303.15
Property: Excess molar volume, m3/mol (Liquid); method: Direct dilatometry
Mole fraction of dimethyl sulfoxide	Excess molar volume, m3/mol	uncertainty
0.0868	1.2e-08	6e-09
0.1205	1.7e-08	6e-09
0.1911	2.8e-08	6e-09
0.2207	3.1e-08	6e-09
0.261	3.7e-08	6e-09
0.3125	4.1e-08	6e-09
0.3829	4.7e-08	6e-09
0.4156	4.9e-08	6e-09
0.502	5.2e-08	6e-09
0.5419	5e-08	6e-09
0.6205	4.7e-08	6e-09
0.7125	3.7e-08	6e-09
0.7517	3.3e-08	6e-09
0.824	2.5e-08	6e-09
0.9246	1.3e-08	6e-09

System: dimethyl sulfoxide + 4-chlorotoluene; phases: Liquid
Fixed: Pressure, kPa = 101
Fixed: Temperature, K = 303.15
Property: Viscosity, Pa*s (Liquid); method: Capillary tube (Ostwald; Ubbelohde) method
Mole fraction of dimethyl sulfoxide	Viscosity, Pa*s	uncertainty
0	0.0009	2.3e-05
0.0768	0.001039	2.7e-05
0.1105	0.001094	2.8e-05
0.1546	0.00116	3e-05
0.2045	0.001232	3.2e-05
0.2543	0.001287	3.3e-05
0.3111	0.001351	3.5e-05
0.3704	0.00141	3.6e-05
0.4904	0.001521	3.9e-05
0.5174	0.001544	4e-05
0.554	0.001573	4e-05
0.6014	0.001611	4.1e-05
0.7074	0.001687	4.3e-05
0.761	0.001725	4.4e-05
0.8214	0.00176	4.5e-05
0.8906	0.00178	4.6e-05
1	0.001803	4.6e-05

System: dimethyl sulfoxide + 4-chlorotoluene; phases: Liquid
Fixed: Temperature, K = 303.15
Fixed: Pressure, kPa = 101
Property: Speed of sound, m/s (Liquid); method: FPINT:UFactor:8
Mole fraction of dimethyl sulfoxide	Speed of sound, m/s	uncertainty
0	1271	8
0.0768	1292	8
0.1105	1302	8
0.1546	1312	8
0.2045	1327	8
0.2543	1340	8
0.3111	1357	8
0.3704	1372	8
0.4904	1401	8
0.5174	1410	8
0.554	1418	8
0.6014	1430	8
0.7074	1453	8
0.761	1465	9
0.8214	1467	9
0.8906	1468	9
1	1470	9

System: dimethyl sulfoxide + 4-chlorotoluene; phases: Liquid
Fixed: Temperature, K = 303.15
Fixed: Pressure, kPa = 101
Property: Mass density, kg/m3 (Liquid); method: Pycnometric method
Mole fraction of dimethyl sulfoxide	Mass density, kg/m3	uncertainty
0	1060.54	6.31
1	1091.35	6.67

System: dimethyl sulfoxide + 4-chlorotoluene; phases: Liquid
Fixed: Pressure, kPa = 101
Fixed: Temperature, K = 303.15
Property: Excess molar volume, m3/mol (Liquid); method: Direct dilatometry
Mole fraction of dimethyl sulfoxide	Excess molar volume, m3/mol	uncertainty
0.0768	1.3e-08	6e-09
0.1105	2.3e-08	6e-09
0.1546	2.9e-08	6e-09
0.2045	3.5e-08	6e-09
0.2543	4.1e-08	6e-09
0.3111	4.8e-08	6e-09
0.3704	5.2e-08	6e-09
0.4904	5.7e-08	6e-09
0.5174	5.7e-08	6e-09
0.554	5.6e-08	6e-09
0.6014	5.3e-08	6e-09
0.7074	4.5e-08	6e-09
0.761	3.8e-08	6e-09
0.8214	3.2e-08	6e-09
0.8906	2e-08	6e-09

System: dimethyl sulfoxide + 2-nitrotoluene; phases: Liquid
Fixed: Pressure, kPa = 101
Fixed: Temperature, K = 303.15
Property: Viscosity, Pa*s (Liquid); method: Capillary tube (Ostwald; Ubbelohde) method
Mole fraction of dimethyl sulfoxide	Viscosity, Pa*s	uncertainty
0	0.001911	4.9e-05
0.0815	0.001903	4.9e-05
0.1525	0.001896	4.9e-05
0.2422	0.001888	4.8e-05
0.2913	0.001883	4.8e-05
0.3415	0.001878	4.8e-05
0.4026	0.001872	4.8e-05
0.4505	0.001867	4.8e-05
0.5119	0.001861	4.8e-05
0.5523	0.001857	4.8e-05
0.602	0.001852	4.8e-05
0.6521	0.001847	4.7e-05
0.7122	0.001841	4.7e-05
0.7516	0.001836	4.7e-05
0.8115	0.001829	4.7e-05
0.9227	0.001814	4.7e-05
1	0.001803	4.6e-05

System: dimethyl sulfoxide + 2-nitrotoluene; phases: Liquid
Fixed: Temperature, K = 303.15
Fixed: Pressure, kPa = 101
Property: Speed of sound, m/s (Liquid); method: FPINT:UFactor:8
Mole fraction of dimethyl sulfoxide	Speed of sound, m/s	uncertainty
0.0815	2039	11
0.1525	1986	11
0.2422	1922	11
0.2913	1888	10
0.3415	1849	10
0.4026	1807	10
0.4505	1773	10
0.5119	1731	10
0.5523	1704	10
0.602	1674	10
0.6521	1645	10
0.7122	1612	10
0.7516	1591	9
0.8115	1564	9
0.9227	1508	9
1	1470	9

System: dimethyl sulfoxide + 2-nitrotoluene; phases: Liquid
Fixed: Temperature, K = 303.15
Fixed: Pressure, kPa = 101
Property: Mass density, kg/m3 (Liquid); method: Pycnometric method
Mole fraction of dimethyl sulfoxide	Mass density, kg/m3	uncertainty
0	1153.24	7.44
1	1091.35	6.67

System: dimethyl sulfoxide + 2-nitrotoluene; phases: Liquid
Fixed: Pressure, kPa = 101
Fixed: Temperature, K = 303.15
Property: Excess molar volume, m3/mol (Liquid); method: Direct dilatometry
Mole fraction of dimethyl sulfoxide	Excess molar volume, m3/mol	uncertainty
0.0815	2.3e-08	6e-09
0.1525	5.4e-08	6e-09
0.2422	9.3e-08	6e-09
0.2913	1.13e-07	6e-09
0.3415	1.28e-07	6e-09
0.4026	1.45e-07	6e-09
0.4505	1.55e-07	6e-09
0.5119	1.58e-07	6e-09
0.5523	1.59e-07	6e-09
0.602	1.54e-07	6e-09
0.6521	1.43e-07	6e-09
0.7122	1.25e-07	6e-09
0.7516	1.13e-07	6e-09
0.8115	8.5e-08	6e-09
0.9227	3.5e-08	6e-09

System: dimethyl sulfoxide + 3-nitrotoluene; phases: Liquid
Fixed: Pressure, kPa = 101
Fixed: Temperature, K = 303.15
Property: Viscosity, Pa*s (Liquid); method: Capillary tube (Ostwald; Ubbelohde) method
Mole fraction of dimethyl sulfoxide	Viscosity, Pa*s	uncertainty
0	0.001777	4.6e-05
0.1052	0.00178	4.6e-05
0.1512	0.001781	4.6e-05
0.1921	0.001782	4.6e-05
0.2216	0.001783	4.6e-05
0.272	0.001784	4.6e-05
0.305	0.001785	4.6e-05
0.3641	0.001786	4.6e-05
0.4121	0.001787	4.6e-05
0.4772	0.001789	4.6e-05
0.5226	0.00179	4.6e-05
0.6035	0.001792	4.6e-05
0.724	0.001794	4.6e-05
0.8126	0.001796	4.6e-05
0.8905	0.001799	4.6e-05
0.9607	0.001801	4.6e-05

System: dimethyl sulfoxide + 3-nitrotoluene; phases: Liquid
Fixed: Temperature, K = 303.15
Fixed: Pressure, kPa = 101
Property: Speed of sound, m/s (Liquid); method: FPINT:UFactor:8
Mole fraction of dimethyl sulfoxide	Speed of sound, m/s	uncertainty
0.1052	2002	11
0.1512	1964	11
0.1921	1936	11
0.2216	1909	11
0.272	1876	10
0.305	1851	10
0.3641	1812	10
0.4121	1778	10
0.4772	1758	10
0.5226	1711	10
0.6035	1661	10
0.724	1598	9
0.8126	1555	9
0.8905	1518	9
0.9607	1489	9
1	1470	9

System: dimethyl sulfoxide + 3-nitrotoluene; phases: Liquid
Fixed: Temperature, K = 303.15
Fixed: Pressure, kPa = 101
Property: Mass density, kg/m3 (Liquid); method: Pycnometric method
Mole fraction of dimethyl sulfoxide	Mass density, kg/m3	uncertainty
0	1147.67	7.37
1	1091.35	6.67

System: dimethyl sulfoxide + 3-nitrotoluene; phases: Liquid
Fixed: Pressure, kPa = 101
Fixed: Temperature, K = 303.15
Property: Excess molar volume, m3/mol (Liquid); method: Direct dilatometry
Mole fraction of dimethyl sulfoxide	Excess molar volume, m3/mol	uncertainty
0.1052	3.9e-08	6e-09
0.1512	6e-08	6e-09
0.1921	7.9e-08	6e-09
0.2216	9.2e-08	6e-09
0.272	1.14e-07	6e-09
0.305	1.28e-07	6e-09
0.3641	1.52e-07	6e-09
0.4121	1.62e-07	6e-09
0.4772	1.77e-07	6e-09
0.5226	1.83e-07	6e-09
0.6035	1.75e-07	6e-09
0.724	1.46e-07	6e-09
0.8126	1.07e-07	6e-09
0.8905	6.2e-08	6e-09
0.9607	2.5e-08	6e-09
