Measured thermophysical data. Thermodynamic investigation on the Mg-Pd intermetallic phases
Source: J. Chem. Thermodyn., 2019, 10.1016/j.jct.2019.105890
Compound 1: magnesium, Mg, InChI=1S/Mg, purity 99.99%
Compound 2: palladium, Pd, InChI=1S/Pd, purity 99.999%
Compound 3: palladium-magnesium compound (Mg5Pd2), Mg5Pd2, InChI=1S/5Mg.2Pd
Compound 4: palladium-magnesium compound (Mg6Pd), Mg6Pd, InChI=1S/6Mg.Pd

System: palladium-magnesium compound (Mg5Pd2); phases: Crystal, Liquid, Air at 1 atmosphere
Property: Normal melting temperature, K (Crystal); method: DTA
Normal melting temperature, K	uncertainty
964.15	2

System: palladium-magnesium compound (Mg5Pd2); phases: Crystal, Liquid, Air at 1 atmosphere
Property: Molar enthalpy of transition or fusion, kJ/mol (Crystal); method: DSC
Molar enthalpy of transition or fusion, kJ/mol	uncertainty
58.1	2.1

System: palladium-magnesium compound (Mg6Pd); phases: Crystal, Liquid, Air at 1 atmosphere
Property: Normal melting temperature, K (Crystal); method: DTA
Normal melting temperature, K	uncertainty
841.15	2

System: palladium-magnesium compound (Mg6Pd); phases: Crystal, Liquid, Air at 1 atmosphere
Property: Molar enthalpy of transition or fusion, kJ/mol (Crystal); method: DSC
Molar enthalpy of transition or fusion, kJ/mol	uncertainty
51.8	2.1

System: magnesium + palladium; phases: Crystal, Crystal of intercomponent compound 1, Liquid, Air at 1 atmosphere
Property: Eutectic temperature, K (Crystal); method: DTA
Eutectic temperature, K	uncertainty
803.15	0.3

Reaction: -6 magnesium + -1 palladium + 1 palladium-magnesium compound (Mg6Pd)
Property: Molar enthalpy of reaction, kJ/mol
-197.4

Reaction: -5 magnesium + -2 palladium + 1 palladium-magnesium compound (Mg5Pd2)
Property: Molar enthalpy of reaction, kJ/mol
-276.5
