Measured thermophysical data. On the density and viscosity of (water + dimethylsulphoxide) binary mixtures
Source: J. Chem. Thermodyn., 2007, 10.1016/j.jct.2006.12.012
Compound 1: water, H2O, InChI=1S/H2O/h1H2
Compound 2: dimethyl sulfoxide, C2H6OS, InChI=1S/C2H6OS/c1-4(2)3/h1-2H3, purity 99.9%

System: dimethyl sulfoxide; phases: Liquid
Fixed: Pressure, kPa = 101
Property: Viscosity, Pa*s (Liquid); method: CAPTUB::UFactor:2
Temperature, K	Viscosity, Pa*s	uncertainty
298.15	0.001996	2.39e-05
303.15	0.0018357	2.23e-05
308.15	0.0016689	2.04e-05
313.15	0.0015351	1.89e-05
318.15	0.0013935	1.75e-05

System: dimethyl sulfoxide; phases: Liquid
Fixed: Pressure, kPa = 101
Property: Mass density, kg/m3 (Liquid); method: VIBTUB::UFactor:4
Temperature, K	Mass density, kg/m3	uncertainty
298.15	1096.29	0.28
303.15	1091.44	0.28
308.15	1086.41	0.27
313.15	1081.59	0.26
318.15	1076.46	0.25

System: dimethyl sulfoxide + water; phases: Liquid
Fixed: Pressure, kPa = 101
Property: Viscosity, Pa*s (Liquid); method: CAPTUB:UFactor:2
Temperature, K	Mole fraction of dimethyl sulfoxide	Viscosity, Pa*s	uncertainty
298.15	0	0.0008901	1.18e-05
298.15	0.0238	0.0010331	1.36e-05
298.15	0.0489	0.0012576	1.6e-05
298.15	0.0796	0.0015966	1.98e-05
298.15	0.1183	0.0020675	2.5e-05
298.15	0.1587	0.0025493	3.03e-05
298.15	0.2036	0.0030165	3.57e-05
298.15	0.2379	0.0033011	3.89e-05
298.15	0.2768	0.0035372	4.16e-05
298.15	0.3074	0.0036564	4.31e-05
298.15	0.3335	0.0037144	4.37e-05
298.15	0.3638	0.0037353	4.39e-05
298.15	0.3906	0.0037169	4.36e-05
298.15	0.4412	0.0036062	4.21e-05
298.15	0.5193	0.0033124	3.89e-05
298.15	0.5677	0.0031016	3.66e-05
298.15	0.6195	0.0028832	3.42e-05
298.15	0.6813	0.0026556	3.17e-05
298.15	0.7595	0.0024317	2.9e-05
298.15	0.8095	0.0023203	2.76e-05
298.15	0.8856	0.0021754	2.58e-05
298.15	0.9407	0.0020799	2.48e-05
298.15	0.9781	0.0020241	2.42e-05
298.15	1	0.001996	2.39e-05
303.15	0	0.0007973	1.07e-05
303.15	0.0238	0.0009386	1.22e-05
303.15	0.0489	0.001148	1.46e-05
303.15	0.0796	0.0014536	1.82e-05
303.15	0.1183	0.0018717	2.31e-05
303.15	0.1587	0.002295	2.81e-05
303.15	0.2036	0.002704	3.3e-05
303.15	0.2379	0.0029536	3.59e-05
303.15	0.2768	0.003162	3.84e-05
303.15	0.3074	0.0032687	3.96e-05
303.15	0.3335	0.0033221	4.01e-05
303.15	0.3638	0.003344	4.03e-05
303.15	0.3906	0.0033314	4.01e-05
303.15	0.4412	0.0032411	3.9e-05
303.15	0.5193	0.0029921	3.59e-05
303.15	0.5677	0.0028104	3.37e-05
303.15	0.6195	0.0026203	3.14e-05
303.15	0.6813	0.0024208	2.91e-05
303.15	0.7595	0.0022246	2.68e-05
303.15	0.8095	0.0021285	2.56e-05
303.15	0.8856	0.0020055	2.42e-05
303.15	0.9407	0.0019198	2.32e-05
303.15	0.9781	0.0018635	2.26e-05
303.15	1	0.0018357	2.23e-05
308.15	0	0.0007193	9.8e-06
308.15	0.0238	0.0008541	1.13e-05
308.15	0.0489	0.0010412	1.35e-05
308.15	0.0796	0.0013091	1.67e-05
308.15	0.1183	0.0016715	2.11e-05
308.15	0.1587	0.0020364	2.56e-05
308.15	0.2036	0.002389	2.99e-05
308.15	0.2379	0.0026042	3.26e-05
308.15	0.2768	0.002786	3.47e-05
308.15	0.3074	0.0028808	3.58e-05
308.15	0.3335	0.0029301	3.64e-05
308.15	0.3638	0.0029531	3.66e-05
308.15	0.3906	0.0029463	3.64e-05
308.15	0.4412	0.002876	3.55e-05
308.15	0.5193	0.0026712	3.28e-05
308.15	0.5677	0.0025186	3.08e-05
308.15	0.6195	0.0023552	2.88e-05
308.15	0.6813	0.0021832	2.66e-05
308.15	0.7595	0.0020086	2.45e-05
308.15	0.8095	0.0019258	2.35e-05
308.15	0.8856	0.0018179	2.22e-05
308.15	0.9407	0.0017458	2.13e-05
308.15	0.9781	0.0016966	2.07e-05
308.15	1	0.0016689	2.04e-05
313.15	0	0.000653	9e-06
313.15	0.0238	0.0007751	1.04e-05
313.15	0.0489	0.0009371	1.24e-05
313.15	0.0796	0.0011652	1.53e-05
313.15	0.1183	0.0014712	1.92e-05
313.15	0.1587	0.0017784	2.31e-05
313.15	0.2036	0.0020754	2.7e-05
313.15	0.2379	0.0022582	2.93e-05
313.15	0.2768	0.0024133	3.12e-05
313.15	0.3074	0.0024956	3.22e-05
313.15	0.3335	0.0025395	3.27e-05
313.15	0.3638	0.0025624	3.29e-05
313.15	0.3906	0.0025601	3.28e-05
313.15	0.4412	0.0025085	3.2e-05
313.15	0.5193	0.0023483	2.97e-05
313.15	0.5677	0.0022269	2.8e-05
313.15	0.6195	0.0020971	2.62e-05
313.15	0.6813	0.0019581	2.44e-05
313.15	0.7595	0.0018182	2.25e-05
313.15	0.8095	0.0017486	2.16e-05
313.15	0.8856	0.0016593	2.05e-05
313.15	0.9407	0.0015985	1.97e-05
313.15	0.9781	0.0015581	1.92e-05
313.15	1	0.0015351	1.89e-05
318.15	0	0.0005961	8.3e-06
318.15	0.0238	0.0006982	9.5e-06
318.15	0.0489	0.0008322	1.12e-05
318.15	0.0796	0.0010196	1.38e-05
318.15	0.1183	0.0012691	1.73e-05
318.15	0.1587	0.001519	2.09e-05
318.15	0.2036	0.0017611	2.43e-05
318.15	0.2379	0.0019111	2.64e-05
318.15	0.2768	0.0020401	2.81e-05
318.15	0.3074	0.0021101	2.89e-05
318.15	0.3335	0.0021491	2.93e-05
318.15	0.3638	0.0021721	2.95e-05
318.15	0.3906	0.0021746	2.94e-05
318.15	0.4412	0.0021416	2.89e-05
318.15	0.5193	0.0020253	2.68e-05
318.15	0.5677	0.0019342	2.52e-05
318.15	0.6195	0.0018353	2.37e-05
318.15	0.6813	0.0017273	2.2e-05
318.15	0.7595	0.0016159	2.05e-05
318.15	0.8095	0.0015591	1.98e-05
318.15	0.8856	0.001486	1.88e-05
318.15	0.9407	0.0014384	1.82e-05
318.15	0.9781	0.001409	1.78e-05
318.15	1	0.0013935	1.75e-05

System: dimethyl sulfoxide + water; phases: Liquid
Fixed: Pressure, kPa = 101
Property: Mass density, kg/m3 (Liquid); method: VIBTUB:UFactor:4
Temperature, K	Mole fraction of dimethyl sulfoxide	Mass density, kg/m3	uncertainty
298.15	0	997.05	0.16
298.15	0.0238	1009.5	0.16
298.15	0.0489	1021.56	0.18
298.15	0.0796	1034.64	0.2
298.15	0.1183	1048.91	0.21
298.15	0.1587	1061.32	0.23
298.15	0.2036	1072.5	0.25
298.15	0.2379	1079.21	0.26
298.15	0.2768	1085.26	0.27
298.15	0.3074	1088.96	0.27
298.15	0.3335	1091.44	0.27
298.15	0.3638	1093.61	0.28
298.15	0.3906	1095.11	0.28
298.15	0.4412	1097.04	0.28
298.15	0.5193	1098.34	0.28
298.15	0.5677	1098.66	0.28
298.15	0.6195	1098.86	0.29
298.15	0.6813	1098.85	0.29
298.15	0.7595	1098.49	0.29
298.15	0.8095	1098.02	0.29
298.15	0.8856	1097.3	0.28
298.15	0.9407	1096.83	0.28
298.15	0.9781	1096.41	0.28
298.15	1	1096.29	0.28
303.15	0	995.65	0.16
303.15	0.0238	1007.8	0.16
303.15	0.0489	1019.59	0.18
303.15	0.0796	1032.3	0.19
303.15	0.1183	1046.26	0.21
303.15	0.1587	1058.32	0.23
303.15	0.2036	1069.04	0.24
303.15	0.2379	1075.61	0.25
303.15	0.2768	1081.43	0.26
303.15	0.3074	1085.02	0.26
303.15	0.3335	1087.45	0.27
303.15	0.3638	1089.68	0.27
303.15	0.3906	1091.09	0.27
303.15	0.4412	1092.88	0.28
303.15	0.5193	1094.01	0.28
303.15	0.5677	1094.24	0.28
303.15	0.6195	1094.29	0.28
303.15	0.6813	1094.13	0.28
303.15	0.7595	1093.75	0.28
303.15	0.8095	1093.29	0.28
303.15	0.8856	1092.53	0.28
303.15	0.9407	1091.95	0.28
303.15	0.9781	1091.56	0.28
303.15	1	1091.44	0.28
308.15	0	994.03	0.16
308.15	0.0238	1005.89	0.16
308.15	0.0489	1017.38	0.17
308.15	0.0796	1029.76	0.19
308.15	0.1183	1043.35	0.21
308.15	0.1587	1055.11	0.22
308.15	0.2036	1065.5	0.24
308.15	0.2379	1071.77	0.25
308.15	0.2768	1077.51	0.25
308.15	0.3074	1080.99	0.26
308.15	0.3335	1083.41	0.26
308.15	0.3638	1085.47	0.26
308.15	0.3906	1086.84	0.27
308.15	0.4412	1088.48	0.27
308.15	0.5193	1089.48	0.27
308.15	0.5677	1089.61	0.27
308.15	0.6195	1089.61	0.27
308.15	0.6813	1089.3	0.27
308.15	0.7595	1088.81	0.27
308.15	0.8095	1088.4	0.27
308.15	0.8856	1087.58	0.27
308.15	0.9407	1086.95	0.27
308.15	0.9781	1086.54	0.27
308.15	1	1086.41	0.27
313.15	0	992.22	0.16
313.15	0.0238	1003.79	0.16
313.15	0.0489	1015.03	0.17
313.15	0.0796	1027.04	0.19
313.15	0.1183	1040.22	0.21
313.15	0.1587	1051.58	0.22
313.15	0.2036	1061.82	0.23
313.15	0.2379	1067.99	0.24
313.15	0.2768	1073.27	0.25
313.15	0.3074	1076.81	0.25
313.15	0.3335	1079.21	0.26
313.15	0.3638	1081.11	0.26
313.15	0.3906	1082.43	0.26
313.15	0.4412	1084.05	0.26
313.15	0.5193	1085.1	0.26
313.15	0.5677	1085.12	0.26
313.15	0.6195	1085.01	0.26
313.15	0.6813	1084.66	0.26
313.15	0.7595	1083.92	0.26
313.15	0.8095	1083.63	0.26
313.15	0.8856	1082.75	0.26
313.15	0.9407	1082.04	0.26
313.15	0.9781	1081.71	0.26
313.15	1	1081.59	0.26
318.15	0	990.21	0.16
318.15	0.0238	1001.51	0.16
318.15	0.0489	1012.48	0.17
318.15	0.0796	1024.2	0.19
318.15	0.1183	1036.98	0.2
318.15	0.1587	1047.91	0.22
318.15	0.2036	1057.83	0.23
318.15	0.2379	1063.81	0.24
318.15	0.2768	1069.16	0.24
318.15	0.3074	1072.4	0.25
318.15	0.3335	1074.68	0.25
318.15	0.3638	1076.63	0.25
318.15	0.3906	1077.78	0.25
318.15	0.4412	1079.52	0.26
318.15	0.5193	1080.42	0.26
318.15	0.5677	1080.33	0.26
318.15	0.6195	1080.01	0.26
318.15	0.6813	1079.61	0.26
318.15	0.7595	1078.92	0.26
318.15	0.8095	1078.58	0.26
318.15	0.8856	1077.68	0.25
318.15	0.9407	1076.93	0.25
318.15	0.9781	1076.53	0.25
318.15	1	1076.46	0.25
