Measured thermophysical data. Compressed liquid densities for the (n-heptane + n-decane) and  (n-octane + n-decane) systems from T = (313 to 363) K
Source: J. Chem. Thermodyn., 2012, 10.1016/j.jct.2011.08.016
Compound 1: heptane, C7H16, InChI=1S/C7H16/c1-3-5-7-6-4-2/h3-7H2,1-2H3, purity 99.3%
Compound 2: decane, C10H22, InChI=1S/C10H22/c1-3-5-7-9-10-8-6-4-2/h3-10H2,1-2H3, purity 99.7%
Compound 3: octane, C8H18, InChI=1S/C8H18/c1-3-5-7-8-6-4-2/h3-8H2,1-2H3, purity 99.5%

System: heptane; phases: Liquid
Property: Mass density, kg/m3 (Liquid); method: Vibrating tube method
Temperature, K	Pressure, kPa	Mass density, kg/m3	uncertainty
313.18	1000	668.09	0.43
313.18	2000	669.03	0.44
313.18	3000	669.97	0.44
313.18	4000	670.93	0.45
313.18	5010	671.9	0.45
313.18	6000	672.87	0.46
313.18	7000	673.86	0.47
313.18	8000	674.87	0.47
313.18	9000	675.87	0.48
313.18	10000	676.86	0.49
313.18	11000	677.85	0.49
313.18	12000	678.83	0.5
313.18	13000	679.81	0.51
313.18	14000	680.76	0.51
313.18	15000	681.7	0.52
313.18	16000	682.62	0.53
313.18	17000	683.53	0.53
313.18	18000	684.41	0.54
313.18	19000	685.26	0.55
313.18	20000	686.11	0.56
313.18	21000	686.92	0.57
313.18	22000	687.67	0.57
313.18	23000	688.42	0.58
313.18	23910	689.07	0.59
313.18	25000	689.85	0.59
333.04	1000	650.66	0.43
333.04	2000	651.8	0.44
333.04	3000	652.94	0.45
333.04	4000	654.08	0.45
333.04	5000	655.23	0.46
333.04	6000	656.38	0.46
333.04	7000	657.54	0.47
333.04	8000	658.65	0.48
333.04	9000	659.81	0.48
333.04	10000	660.92	0.49
333.04	11000	662.03	0.5
333.04	12000	663.1	0.51
333.04	13000	664.2	0.51
333.04	14000	665.25	0.52
333.04	15000	666.31	0.53
333.04	16000	667.33	0.54
333.04	17000	668.33	0.54
333.04	18030	669.34	0.55
333.04	19000	670.26	0.56
333.04	20000	671.2	0.57
333.04	22000	673.01	0.58
333.04	23000	673.86	0.59
333.04	24000	674.7	0.6
333.04	25000	675.52	0.61
333.04	23000	673.86	0.59
353.06	1010	632.6	0.44
353.06	2000	634.02	0.44
353.06	3000	635.41	0.45
353.06	4000	636.78	0.46
353.06	5000	638.15	0.46
353.06	6000	639.47	0.47
353.06	7000	640.8	0.48
353.06	8000	642.1	0.48
353.06	9010	643.4	0.49
353.06	10000	644.66	0.5
353.06	11000	645.92	0.5
353.06	12000	647.13	0.51
353.06	13000	648.37	0.52
353.06	14000	649.56	0.53
353.06	15000	650.72	0.54
353.06	16000	651.88	0.54
353.06	17000	653	0.55
353.06	18030	654.12	0.56
353.06	19000	655.16	0.57
353.06	20000	656.22	0.58
353.06	21000	657.27	0.59
353.06	22000	658.25	0.59
353.06	23000	659.24	0.6
353.06	24000	660.2	0.61
353.06	25000	661.14	0.62

System: decane; phases: Liquid
Property: Mass density, kg/m3 (Liquid); method: Vibrating tube method
Temperature, K	Pressure, kPa	Mass density, kg/m3	uncertainty
313.07	1000	715.64	0.41
313.07	2000	716.68	0.41
313.07	3000	717.38	0.42
313.07	4000	718.16	0.42
313.07	5000	719.02	0.43
313.07	6000	719.65	0.43
313.07	7000	720.52	0.43
313.07	8000	721.28	0.44
313.07	9000	722.11	0.44
313.07	10000	723.13	0.45
313.07	11000	723.65	0.45
313.07	12000	724.48	0.46
313.07	13000	725.48	0.46
313.07	14000	726.15	0.47
313.07	15000	726.86	0.47
313.07	16000	727.49	0.48
313.07	17000	728.18	0.48
313.07	18000	729.07	0.49
313.07	19000	729.72	0.49
313.07	20000	730.26	0.5
313.07	21000	731.22	0.51
313.07	22000	731.8	0.51
313.07	23000	732.7	0.52
313.07	24000	733.26	0.52
313.07	25000	733.93	0.53
323	1000	707.96	0.41
323	2000	708.93	0.42
323	3000	709.81	0.42
323	4000	710.88	0.42
323	5000	711.52	0.43
323	6000	712.48	0.43
323	7000	713.3	0.44
323	8000	714.23	0.44
323	9000	715.05	0.45
323	10000	715.91	0.45
323	11000	716.74	0.46
323	12000	717.54	0.46
323	13000	718.35	0.47
323	14000	719.15	0.47
323	15000	719.92	0.48
323	16000	720.7	0.48
323	17000	721.46	0.49
323	18000	722.22	0.49
323	19000	722.97	0.5
323	20000	723.71	0.5
323	21000	724.45	0.51
323	22000	725.18	0.52
323	23000	725.92	0.52
323	24000	726.62	0.53
323	25000	727.42	0.53
332.87	1000	700.33	0.41
332.87	2000	701.26	0.42
332.87	3000	702.21	0.42
332.87	4000	703.17	0.42
332.87	5000	704.12	0.43
332.87	6000	705.07	0.43
332.87	7000	705.98	0.44
332.87	8000	706.88	0.44
332.87	9000	707.79	0.45
332.87	10000	708.65	0.45
332.87	11000	709.52	0.46
332.87	12000	710.39	0.46
332.87	13000	711.26	0.47
332.87	14000	712.07	0.47
332.87	15000	712.9	0.48
332.87	16000	713.71	0.49
332.87	17000	714.52	0.49
332.87	18000	715.32	0.5
332.87	19000	716.1	0.5
332.87	20000	716.88	0.51
332.87	21000	717.65	0.52
332.87	22000	718.43	0.52
332.87	23000	719.19	0.53
332.87	24000	719.99	0.53
332.87	25000	720.76	0.54
342.78	1000	692.65	0.41
342.78	2000	693.68	0.42
342.78	3000	694.72	0.42
342.78	4000	695.7	0.43
342.78	5000	696.68	0.43
342.78	6000	697.68	0.44
342.78	7000	698.61	0.44
342.78	8000	699.57	0.45
342.78	9000	700.54	0.45
342.78	10000	701.49	0.46
342.78	11000	702.4	0.46
342.78	12000	703.29	0.47
342.78	13000	704.14	0.47
342.78	14000	705.05	0.48
342.78	15000	705.93	0.48
342.78	16000	706.79	0.49
342.78	17000	707.6	0.5
342.78	18010	708.57	0.5
342.78	19000	709.45	0.51
342.78	20000	710.3	0.51
342.78	21000	710.91	0.52
342.78	22000	711.92	0.53
342.78	23000	712.48	0.53
342.78	24000	713.42	0.54
342.78	25000	714.1	0.55
352.8	2000	686.08	0.42
352.8	3000	687.17	0.42
352.8	4000	688.23	0.43
352.8	5000	689.3	0.43
352.8	6000	690.33	0.44
352.8	7000	691.38	0.44
352.8	8000	692.38	0.45
352.8	9000	693.41	0.45
352.8	10000	694.37	0.46
352.8	11000	695.36	0.46
352.8	12000	696.32	0.47
352.8	13000	697.29	0.48
352.8	14000	698.22	0.48
352.8	15000	699.15	0.49
352.8	16000	700.03	0.49
352.8	17000	700.94	0.5
352.8	18000	701.82	0.51
352.8	19000	702.71	0.51
352.8	20000	703.59	0.52
352.8	21000	704.44	0.53
352.8	22000	705.25	0.53
352.8	23000	706.14	0.54
352.8	24000	706.95	0.55
352.8	25000	707.83	0.55
362.73	2000	678.44	0.42
362.73	3000	679.58	0.43
362.73	4000	680.71	0.43
362.73	5000	681.85	0.43
362.73	6000	682.98	0.44
362.73	7000	684.09	0.44
362.73	8000	685.16	0.45
362.73	9000	686.25	0.46
362.73	10000	687.29	0.46
362.73	11000	688.32	0.47
362.73	12000	689.33	0.47
362.73	13000	690.34	0.48
362.73	14000	691.28	0.49
362.73	15000	692.36	0.49

System: decane + heptane; phases: Liquid
Property: Mass density, kg/m3 (Liquid); method: Vibrating tube method
Mole fraction of heptane	Temperature, K	Pressure, kPa	Mass density, kg/m3	uncertainty
0.0531	313.16	1000	713.67	0.41
0.0531	313.16	2000	714.44	0.41
0.0531	313.16	3000	715.27	0.42
0.0531	313.16	4000	716.08	0.42
0.0531	313.16	5000	716.94	0.43
0.0531	313.16	6000	717.67	0.43
0.0531	313.16	7000	718.51	0.44
0.0531	313.16	8000	719.34	0.44
0.0531	313.16	9000	720.13	0.44
0.0531	313.16	10000	721	0.45
0.0531	313.16	10990	721.8	0.45
0.0531	313.16	12000	722.62	0.46
0.0531	313.16	13000	723.44	0.46
0.0531	313.16	14000	724.26	0.47
0.0531	313.16	15000	725.05	0.47
0.0531	313.16	16000	725.84	0.48
0.0531	313.16	17000	726.57	0.49
0.0531	313.16	18000	727.29	0.49
0.0531	313.16	19000	728.02	0.5
0.0531	313.16	20000	728.71	0.5
0.0531	313.16	21000	729.39	0.51
0.0531	313.16	22000	730.07	0.51
0.0531	313.16	23000	730.67	0.52
0.0531	313.16	24000	731.27	0.53
0.0531	313.16	25000	731.84	0.53
0.0531	323.15	1000	705.96	0.41
0.0531	323.15	2000	706.92	0.42
0.0531	323.15	3000	707.86	0.42
0.0531	323.15	4000	708.79	0.42
0.0531	323.15	5000	709.69	0.43
0.0531	323.15	6000	710.58	0.43
0.0531	323.15	7000	711.49	0.44
0.0531	323.15	8000	712.35	0.44
0.0531	323.15	9000	713.2	0.45
0.0531	323.15	10000	714.07	0.45
0.0531	323.15	10990	714.9	0.46
0.0531	323.15	12000	715.73	0.46
0.0531	323.15	13000	716.54	0.47
0.0531	323.15	14000	717.35	0.47
0.0531	323.15	15000	718.14	0.48
0.0531	323.15	16000	718.92	0.48
0.0531	323.15	17000	719.7	0.49
0.0531	323.15	18000	720.46	0.5
0.0531	323.15	19000	721.21	0.5
0.0531	323.15	20000	721.96	0.51
0.0531	323.15	21000	722.7	0.51
0.0531	323.15	22000	723.41	0.52
0.0531	323.15	23000	724.12	0.53
0.0531	323.15	24000	724.82	0.53
0.0531	323.15	25000	725.51	0.54
0.0531	333.12	1000	698.2	0.41
0.0531	333.12	2000	699.22	0.42
0.0531	333.12	3000	700.22	0.42
0.0531	333.12	4000	701.18	0.43
0.0531	333.12	5000	702.16	0.43
0.0531	333.12	6000	703.1	0.43
0.0531	333.12	7000	704.05	0.44
0.0531	333.12	8000	704.99	0.44
0.0531	333.12	9000	705.9	0.45
0.0531	333.12	10000	706.8	0.45
0.0531	333.12	10990	707.69	0.46
0.0531	333.12	12000	708.56	0.47
0.0531	333.12	13000	709.43	0.47
0.0531	333.12	14000	710.28	0.48
0.0531	333.12	15000	711.14	0.48
0.0531	333.12	16000	711.96	0.49
0.0531	333.12	17000	712.79	0.49
0.0531	333.12	18000	713.6	0.5
0.0531	333.12	19000	714.39	0.51
0.0531	333.12	20000	715.18	0.51
0.0531	333.12	21000	715.96	0.52
0.0531	333.12	22000	716.72	0.52
0.0531	333.12	23000	717.46	0.53
0.0531	333.12	24000	718.21	0.54
0.0531	333.12	25000	718.95	0.54
0.0531	343.09	1000	690.42	0.41
0.0531	343.09	2000	691.49	0.42
0.0531	343.09	3000	692.55	0.42
0.0531	343.09	4000	693.59	0.43
0.0531	343.09	5000	694.62	0.43
0.0531	343.09	6000	695.63	0.44
0.0531	343.09	7000	696.62	0.44
0.0531	343.09	8000	697.6	0.45
0.0531	343.09	9000	698.57	0.45
0.0531	343.09	10000	699.52	0.46
0.0531	343.09	11000	700.46	0.46
0.0531	343.09	12000	701.38	0.47
0.0531	343.09	13000	702.3	0.47
0.0531	343.09	14000	703.21	0.48
0.0531	343.09	15000	704.09	0.49
0.0531	343.09	16000	704.98	0.49
0.0531	343.09	17000	705.84	0.5
0.0531	343.09	18000	706.7	0.5
0.0531	343.09	19000	707.54	0.51
0.0531	343.09	20000	708.37	0.52
0.0531	343.09	21000	709.2	0.52
0.0531	343.09	22000	710	0.53
0.0531	343.09	23000	710.8	0.54
0.0531	343.09	24000	711.58	0.54
0.0531	343.09	25000	712.36	0.55
0.0531	353.06	1000	682.62	0.42
0.0531	353.06	2000	683.77	0.42
0.0531	353.06	3000	684.88	0.42
0.0531	353.06	4000	685.98	0.43
0.0531	353.06	5000	687.07	0.43
0.0531	353.06	6000	688.13	0.44
0.0531	353.06	7000	689.17	0.44
0.0531	353.06	8000	690.21	0.45
0.0531	353.06	9000	691.24	0.45
0.0531	353.06	10000	692.24	0.46
0.0531	353.06	11000	693.24	0.47
0.0531	353.06	12000	694.22	0.47
0.0531	353.06	13000	695.18	0.48
0.0531	353.06	14000	696.13	0.48
0.0531	353.06	15000	697.07	0.49
0.0531	353.06	16000	698	0.5
0.0531	353.06	17000	698.9	0.5
0.0531	353.06	18000	699.8	0.51
0.0531	353.06	19000	700.69	0.51
0.0531	353.06	20000	701.57	0.52
0.0531	353.06	21000	702.43	0.53
0.0531	353.06	22000	703.3	0.53
0.0531	353.06	23000	704.13	0.54
0.0531	353.06	24000	704.96	0.55
0.0531	353.06	25000	705.78	0.55
0.0531	363.03	1000	674.85	0.42
0.0531	363.03	2000	676.04	0.42
0.0531	363.03	3000	677.23	0.43
0.0531	363.03	4000	678.38	0.43
0.0531	363.03	5000	679.52	0.44
0.0531	363.03	6000	680.65	0.44
0.0531	363.03	7000	681.75	0.45
0.0531	363.03	8000	682.84	0.45
0.0531	363.03	9000	683.92	0.46
0.0531	363.03	10000	684.98	0.46
0.0531	363.03	11000	686.02	0.47
0.0531	363.03	12000	687.05	0.47
0.0531	363.03	13000	688.07	0.48
0.0531	363.03	14000	689.07	0.49
0.0531	363.03	15000	690.05	0.49
0.0531	363.03	16000	691.03	0.5
0.0531	363.03	17000	691.98	0.51
0.0531	363.03	18000	692.93	0.51
0.0531	363.03	19000	693.87	0.52
0.0531	363.03	20000	694.79	0.53
0.0531	363.03	21000	695.7	0.53
0.0531	363.03	22000	696.6	0.54
0.0531	363.03	23000	697.47	0.55
0.0531	363.03	24000	698.37	0.55
0.0531	363.03	25000	699.21	0.56
0.2594	313.16	1000	706.37	0.41
0.2594	313.16	2000	707.17	0.42
0.2594	313.16	3000	707.97	0.42
0.2594	313.16	4000	708.78	0.43
0.2594	313.16	5000	709.65	0.43
0.2594	313.16	6000	710.5	0.44
0.2594	313.16	7000	711.35	0.44
0.2594	313.16	8000	712.2	0.44
0.2594	313.16	9000	713.05	0.45
0.2594	313.16	10000	713.88	0.45
0.2594	313.16	10990	714.7	0.46
0.2594	313.16	12000	715.51	0.47
0.2594	313.16	13000	716.3	0.47
0.2594	313.16	14000	717.1	0.48
0.2594	313.16	15000	717.87	0.48
0.2594	313.16	16000	718.64	0.49
0.2594	313.16	17000	719.39	0.49
0.2594	313.16	18000	720.16	0.5
0.2594	313.16	19000	720.88	0.5
0.2594	313.16	20000	721.61	0.51
0.2594	313.16	21000	722.32	0.52
0.2594	313.16	22000	723.02	0.52
0.2594	313.16	23000	723.68	0.53
0.2594	313.16	24000	724.32	0.54
0.2594	313.16	25000	724.92	0.54
0.2594	323.15	1000	698.56	0.42
0.2594	323.15	2000	699.45	0.42
0.2594	323.15	3000	700.3	0.42
0.2594	323.15	4000	701.18	0.43
0.2594	323.15	5000	702.06	0.43
0.2594	323.15	6000	702.96	0.44
0.2594	323.15	7000	703.89	0.44
0.2594	323.15	8000	704.79	0.45
0.2594	323.15	9000	705.68	0.45
0.2594	323.15	10000	706.56	0.46
0.2594	323.15	10990	707.43	0.46
0.2594	323.15	12000	708.29	0.47
0.2594	323.15	13000	709.14	0.47
0.2594	323.15	14000	709.98	0.48
0.2594	323.15	15000	710.81	0.49
0.2594	323.15	16000	711.62	0.49
0.2594	323.15	17000	712.43	0.5
0.2594	323.15	18000	713.25	0.5
0.2594	323.15	19000	714.01	0.51
0.2594	323.15	20000	714.78	0.52
0.2594	323.15	21000	715.55	0.52
0.2594	323.15	22000	716.3	0.53
0.2594	323.15	23000	716.98	0.53
0.2594	323.15	24000	717.65	0.54
0.2594	323.15	25000	718.3	0.55
0.2594	333.14	1000	690.74	0.42
0.2594	333.14	2000	691.66	0.42
0.2594	333.14	3000	692.62	0.43
0.2594	333.14	4000	693.57	0.43
0.2594	333.14	5000	694.49	0.43
0.2594	333.14	6000	695.43	0.44
0.2594	333.14	7000	696.4	0.44
0.2594	333.14	8000	697.34	0.45
0.2594	333.14	9000	698.3	0.45
0.2594	333.14	10000	699.23	0.46
0.2594	333.14	10990	700.16	0.47
0.2594	333.14	12000	701.08	0.47
0.2594	333.14	13000	701.98	0.48
0.2594	333.14	14000	702.87	0.48
0.2594	333.14	15000	703.75	0.49
0.2594	333.14	16000	704.61	0.5
0.2594	333.14	17000	705.47	0.5
0.2594	333.14	18000	706.33	0.51
0.2594	333.14	19000	707.13	0.51
0.2594	333.14	20000	707.94	0.52
0.2594	333.14	21000	708.75	0.53
0.2594	333.14	22000	709.53	0.53
0.2594	333.14	23000	710.3	0.54
0.2594	333.14	24000	711.03	0.55
0.2594	333.14	25000	711.74	0.55
0.2594	343.11	1000	682.79	0.42
0.2594	343.11	2000	683.83	0.42
0.2594	343.11	3000	684.89	0.43
0.2594	343.11	4000	685.87	0.43
0.2594	343.11	5000	686.9	0.44
0.2594	343.11	6000	687.93	0.44
0.2594	343.11	7000	688.92	0.45
0.2594	343.11	8000	689.92	0.45
0.2594	343.11	9000	690.94	0.46
0.2594	343.11	10000	691.9	0.46
0.2594	343.11	11000	692.89	0.47
0.2594	343.11	12000	693.86	0.47
0.2594	343.11	13000	694.82	0.48
0.2594	343.11	14000	695.76	0.49
0.2594	343.11	15000	696.69	0.49
0.2594	343.11	16000	697.6	0.5
0.2594	343.11	17000	698.5	0.51
0.2594	343.11	18000	699.38	0.51
0.2594	343.11	19000	700.22	0.52
0.2594	343.11	20000	701.09	0.53
0.2594	343.11	21000	701.92	0.53
0.2594	343.11	22000	702.73	0.54
0.2594	343.11	23000	703.51	0.55
0.2594	343.11	24000	704.28	0.55
0.2594	343.11	25000	705.05	0.56
0.2594	353.09	1000	674.78	0.42
0.2594	353.09	2000	675.91	0.42
0.2594	353.09	3000	677.03	0.43
0.2594	353.09	4000	678.12	0.43
0.2594	353.09	5000	679.23	0.44
0.2594	353.09	6000	680.3	0.44
0.2594	353.09	7000	681.37	0.45
0.2594	353.09	8000	682.43	0.45
0.2594	353.09	9000	683.51	0.46
0.2594	353.09	10000	684.56	0.47
0.2594	353.09	11000	685.6	0.47
0.2594	353.09	12000	686.61	0.48
0.2594	353.09	13000	687.61	0.48
0.2594	353.09	14000	688.6	0.49
0.2594	353.09	15000	689.58	0.5
0.2594	353.09	16000	690.55	0.5
0.2594	353.09	17000	691.5	0.51
0.2594	353.09	18000	692.42	0.52
0.2594	353.09	19000	693.33	0.52
0.2594	353.09	20000	694.24	0.53
0.2594	353.09	21000	695.13	0.54
0.2594	353.09	22000	695.95	0.54
0.2594	353.09	23000	696.8	0.55
0.2594	353.09	24000	697.62	0.56
0.2594	353.09	25000	698.42	0.56
0.2594	363.06	1000	666.7	0.42
0.2594	363.06	2000	667.89	0.43
0.2594	363.06	3000	669.1	0.43
0.2594	363.06	4000	670.27	0.44
0.2594	363.06	5000	671.44	0.44
0.2594	363.06	6000	672.61	0.45
0.2594	363.06	7000	673.77	0.45
0.2594	363.06	8000	674.91	0.46
0.2594	363.06	9000	676.05	0.46
0.2594	363.06	10000	677.17	0.47
0.2594	363.06	11000	678.26	0.48
0.2594	363.06	12000	679.34	0.48
0.2594	363.06	13000	680.41	0.49
0.2594	363.06	14000	681.46	0.49
0.2594	363.06	15000	682.5	0.5
0.2594	363.06	16000	683.52	0.51
0.2594	363.06	17000	684.53	0.51
0.2594	363.06	18000	685.52	0.52
0.2594	363.06	19000	686.5	0.53
0.2594	363.06	20000	687.43	0.54
0.2594	363.06	21000	688.35	0.54
0.2594	363.06	22000	689.23	0.55
0.2594	363.06	23000	690.14	0.56
0.2594	363.06	24000	691.03	0.56
0.2594	363.06	25000	691.89	0.57
0.5219	313.18	1000	695.19	0.42
0.5219	313.18	2000	696.01	0.42
0.5219	313.18	3000	696.84	0.43
0.5219	313.18	4000	697.74	0.43
0.5219	313.18	5000	698.6	0.44
0.5219	313.18	6000	699.5	0.44
0.5219	313.18	7000	700.44	0.45
0.5219	313.18	8000	701.28	0.45
0.5219	313.18	9000	702.17	0.46
0.5219	313.18	10000	703.05	0.46
0.5219	313.18	10990	703.9	0.47
0.5219	313.18	12000	704.76	0.47
0.5219	313.18	13000	705.6	0.48
0.5219	313.18	14000	706.44	0.49
0.5219	313.18	15000	707.25	0.49
0.5219	313.18	16000	708.05	0.5
0.5219	313.18	17000	708.84	0.5
0.5219	313.18	18000	709.64	0.51
0.5219	313.18	19000	710.37	0.52
0.5219	313.18	20000	711.12	0.52
0.5219	313.18	21000	711.85	0.53
0.5219	313.18	22000	712.53	0.54
0.5219	313.18	23000	713.24	0.54
0.5219	313.18	24000	713.92	0.55
0.5219	313.18	25000	714.55	0.56
0.5219	323.14	1000	687.21	0.42
0.5219	323.14	2000	688.12	0.42
0.5219	323.14	3000	689.02	0.43
0.5219	323.14	4000	689.95	0.43
0.5219	323.14	5000	690.88	0.44
0.5219	323.14	6000	691.82	0.44
0.5219	323.14	7000	692.78	0.45
0.5219	323.14	8000	693.71	0.46
0.5219	323.14	9000	694.65	0.46
0.5219	323.14	10000	695.58	0.47
0.5219	323.14	10990	696.5	0.47
0.5219	323.14	12000	697.4	0.48
0.5219	323.14	13000	698.29	0.48
0.5219	323.14	14000	699.17	0.49
0.5219	323.14	15000	700.04	0.5
0.5219	323.14	16000	700.9	0.5
0.5219	323.14	17000	701.74	0.51
0.5219	323.14	18000	702.6	0.52
0.5219	323.14	19000	703.38	0.52
0.5219	323.14	20000	704.18	0.53
0.5219	323.14	21000	704.97	0.54
0.5219	323.14	22000	705.7	0.54
0.5219	323.14	23000	706.43	0.55
0.5219	323.14	24000	707.14	0.56
0.5219	323.14	25000	707.83	0.56
0.5219	333.11	1000	679.05	0.42
0.5219	333.11	2000	680.06	0.43
0.5219	333.11	3000	681.02	0.43
0.5219	333.11	4000	682.02	0.44
0.5219	333.11	5000	683.02	0.44
0.5219	333.11	6000	684.02	0.45
0.5219	333.11	7000	685.02	0.45
0.5219	333.11	8000	686.03	0.46
0.5219	333.11	9000	687.04	0.46
0.5219	333.11	10000	688.03	0.47
0.5219	333.11	10990	689.01	0.48
0.5219	333.11	12000	689.97	0.48
0.5219	333.11	13000	690.92	0.49
0.5219	333.11	14000	691.85	0.49
0.5219	333.11	15000	692.77	0.5
0.5219	333.11	16000	693.68	0.51
0.5219	333.11	17000	694.58	0.51
0.5219	333.11	18000	695.49	0.52
0.5219	333.11	19000	696.33	0.53
0.5219	333.11	20000	697.15	0.53
0.5219	333.11	21000	697.97	0.54
0.5219	333.11	22000	698.76	0.55
0.5219	333.11	23000	699.54	0.55
0.5219	333.11	24000	700.3	0.56
0.5219	333.11	25000	701.04	0.57
0.5219	343.09	1000	670.9	0.42
0.5219	343.09	2000	672.01	0.43
0.5219	343.09	3000	673.08	0.43
0.5219	343.09	4000	674.15	0.44
0.5219	343.09	5000	675.24	0.44
0.5219	343.09	6000	676.3	0.45
0.5219	343.09	7000	677.39	0.45
0.5219	343.09	8000	678.46	0.46
0.5219	343.09	9000	679.53	0.47
0.5219	343.09	10000	680.57	0.47
0.5219	343.09	11000	681.55	0.48
0.5219	343.09	12000	682.56	0.48
0.5219	343.09	13000	683.57	0.49
0.5219	343.09	14000	684.56	0.5
0.5219	343.09	15000	685.54	0.5
0.5219	343.09	16000	686.5	0.51
0.5219	343.09	17000	687.45	0.52
0.5219	343.09	18000	688.39	0.52
0.5219	343.09	19000	689.28	0.53
0.5219	343.09	20000	690.16	0.54
0.5219	343.09	21000	691.02	0.55
0.5219	343.09	22000	691.87	0.55
0.5219	343.09	23000	692.69	0.56
0.5219	343.09	24000	693.49	0.57
0.5219	343.09	25000	694.29	0.57
0.5219	353.08	1000	662.57	0.43
0.5219	353.08	2000	663.78	0.43
0.5219	353.08	3000	664.95	0.43
0.5219	353.08	4000	666.13	0.44
0.5219	353.08	5000	667.28	0.45
0.5219	353.08	6000	668.44	0.45
0.5219	353.08	7000	669.57	0.46
0.5219	353.08	8000	670.7	0.46
0.5219	353.08	9000	671.82	0.47
0.5219	353.08	10000	672.93	0.48
0.5219	353.08	11000	674.03	0.48
0.5219	353.08	12000	675.1	0.49
0.5219	353.08	13000	676.17	0.49
0.5219	353.08	14000	677.22	0.5
0.5219	353.08	15000	678.26	0.51
0.5219	353.08	16000	679.28	0.52
0.5219	353.08	17000	680.26	0.52
0.5219	353.08	18000	681.28	0.53
0.5219	353.08	19000	682.2	0.54
0.5219	353.08	20000	683.14	0.54
0.5219	353.08	21000	684.06	0.55
0.5219	353.08	22000	684.96	0.56
0.5219	353.08	23000	685.84	0.57
0.5219	353.08	24000	686.7	0.57
0.5219	353.08	25000	687.54	0.58
0.5219	363.02	1000	654.13	0.43
0.5219	363.02	2000	655.44	0.43
0.5219	363.02	3000	656.74	0.44
0.5219	363.02	4000	657.94	0.44
0.5219	363.02	5000	659.19	0.45
0.5219	363.02	6000	660.44	0.45
0.5219	363.02	7000	661.67	0.46
0.5219	363.02	8000	662.86	0.47
0.5219	363.02	9000	664.05	0.47
0.5219	363.02	10000	665.24	0.48
0.5219	363.02	11000	666.41	0.49
0.5219	363.02	12000	667.56	0.49
0.5219	363.02	13000	668.7	0.5
0.5219	363.02	14000	669.81	0.51
0.5219	363.02	15000	670.91	0.51
0.5219	363.02	16000	671.98	0.52
0.5219	363.02	17000	673.01	0.53
0.5219	363.02	18000	674.09	0.53
0.5219	363.02	19000	675.09	0.54
0.5219	363.02	20000	676.07	0.55
0.5219	363.02	21000	677.05	0.56
0.5219	363.02	22000	677.98	0.56
0.5219	363.02	23000	678.94	0.57
0.5219	363.02	24000	679.87	0.58
0.5219	363.02	25000	680.76	0.59
0.777	313.18	1000	681.87	0.43
0.777	313.18	2000	682.77	0.43
0.777	313.18	3000	683.7	0.43
0.777	313.18	4000	684.64	0.44
0.777	313.18	5000	685.58	0.45
0.777	313.18	6000	686.52	0.45
0.777	313.18	7000	687.47	0.46
0.777	313.18	8000	688.4	0.46
0.777	313.18	9000	689.32	0.47
0.777	313.18	10000	690.24	0.47
0.777	313.18	10990	691.12	0.48
0.777	313.18	12000	692.05	0.49
0.777	313.18	13000	692.92	0.49
0.777	313.18	14000	693.78	0.5
0.777	313.18	15000	694.64	0.51
0.777	313.18	16000	695.5	0.51
0.777	313.18	17000	696.33	0.52
0.777	313.18	18000	697.16	0.53
0.777	313.18	19000	697.97	0.53
0.777	313.18	20000	698.77	0.54
0.777	313.18	21000	699.55	0.55
0.777	313.18	22000	700.31	0.55
0.777	313.18	23000	701	0.56
0.777	313.18	24000	701.71	0.57
0.777	313.18	25000	702.37	0.57
0.777	323.16	1000	673.59	0.43
0.777	323.16	2000	674.58	0.43
0.777	323.16	3000	675.56	0.44
0.777	323.16	4000	676.57	0.44
0.777	323.16	5000	677.56	0.45
0.777	323.16	6000	678.57	0.45
0.777	323.16	7000	679.58	0.46
0.777	323.16	8000	680.57	0.46
0.777	323.16	9000	681.56	0.47
0.777	323.16	10000	682.54	0.48
0.777	323.16	10990	683.5	0.48
0.777	323.16	12000	684.45	0.49
0.777	323.16	13000	685.39	0.5
0.777	323.16	14000	686.31	0.5
0.777	323.16	15000	687.21	0.51
0.777	323.16	16000	688.1	0.52
0.777	323.16	17000	688.99	0.52
0.777	323.16	18000	689.87	0.53
0.777	323.16	19000	690.73	0.54
0.777	323.16	20000	691.58	0.54
0.777	323.16	21000	692.41	0.55
0.777	323.16	22000	693.22	0.56
0.777	323.16	23000	693.96	0.57
0.777	323.16	24000	694.7	0.57
0.777	323.16	25000	695.42	0.58
0.777	333.12	1000	665.15	0.43
0.777	333.12	2000	666.23	0.43
0.777	333.12	3000	667.33	0.44
0.777	333.12	4000	668.42	0.44
0.777	333.12	5000	669.49	0.45
0.777	333.12	6000	670.55	0.46
0.777	333.12	7000	671.62	0.46
0.777	333.12	8000	672.68	0.47
0.777	333.12	9000	673.73	0.47
0.777	333.12	10000	674.77	0.48
0.777	333.12	10990	675.8	0.49
0.777	333.12	12000	676.81	0.49
0.777	333.12	13000	677.81	0.5
0.777	333.12	14000	678.79	0.51
0.777	333.12	15000	679.76	0.51
0.777	333.12	16000	680.71	0.52
0.777	333.12	17000	681.65	0.53
0.777	333.12	18000	682.58	0.54
0.777	333.12	19000	683.49	0.54
0.777	333.12	20000	684.39	0.55
0.777	333.12	21000	685.27	0.56
0.777	333.12	22000	686.1	0.56
0.777	333.12	23000	686.9	0.57
0.777	333.12	24000	687.68	0.58
0.777	333.12	25000	688.47	0.59
0.777	343.09	1000	656.56	0.43
0.777	343.09	2000	657.76	0.43
0.777	343.09	3000	658.95	0.44
0.777	343.09	4000	660.13	0.45
0.777	343.09	5000	661.28	0.45
0.777	343.09	6000	662.42	0.46
0.777	343.09	7000	663.56	0.46
0.777	343.09	8000	664.71	0.47
0.777	343.09	9000	665.84	0.48
0.777	343.09	10000	666.95	0.48
0.777	343.09	11000	668.04	0.49
0.777	343.09	12000	669.13	0.5
0.777	343.09	13000	670.2	0.5
0.777	343.09	14000	671.24	0.51
0.777	343.09	15000	672.27	0.52
0.777	343.09	16000	673.29	0.53
0.777	343.09	17000	674.28	0.53
0.777	343.09	18000	675.26	0.54
0.777	343.09	19000	676.22	0.55
0.777	343.09	20000	677.14	0.55
0.777	343.09	21000	678.06	0.56
0.777	343.09	22000	678.95	0.57
0.777	343.09	23000	679.82	0.58
0.777	343.09	24000	680.67	0.59
0.777	343.09	25000	681.49	0.59
0.777	353.08	1000	647.84	0.43
0.777	353.08	2000	649.19	0.44
0.777	353.08	3000	650.47	0.44
0.777	353.08	4000	651.73	0.45
0.777	353.08	5000	653.01	0.45
0.777	353.08	6000	654.25	0.46
0.777	353.08	7000	655.46	0.47
0.777	353.08	8000	656.67	0.47
0.777	353.08	9000	657.88	0.48
0.777	353.08	10000	659.06	0.49
0.777	353.08	11000	660.22	0.49
0.777	353.08	12000	661.36	0.5
0.777	353.08	13000	662.49	0.51
0.777	353.08	14000	663.61	0.51
0.777	353.08	15000	664.7	0.52
0.777	353.08	16000	665.77	0.53
0.777	353.08	17000	666.82	0.54
0.777	353.08	18000	667.86	0.54
0.777	353.08	19000	668.89	0.55
0.777	353.08	20000	669.88	0.56
0.777	353.08	21000	670.85	0.57
0.777	353.08	22000	671.79	0.58
0.777	353.08	23000	672.72	0.58
0.777	353.08	24000	673.63	0.59
0.777	353.08	25000	674.52	0.6
0.777	363.02	1000	639	0.43
0.777	363.02	2000	640.47	0.44
0.777	363.02	3000	641.89	0.44
0.777	363.02	4000	643.28	0.45
0.777	363.02	5000	644.65	0.46
0.777	363.02	6000	646	0.46
0.777	363.02	7000	647.32	0.47
0.777	363.02	8000	648.61	0.48
0.777	363.02	9000	649.89	0.48
0.777	363.02	10000	651.15	0.49
0.777	363.02	11000	652.39	0.5
0.777	363.02	12000	653.61	0.5
0.777	363.02	13000	654.81	0.51
0.777	363.02	14000	655.99	0.52
0.777	363.02	15000	657.15	0.53
0.777	363.02	16000	658.24	0.53
0.777	363.02	17000	659.41	0.54
0.777	363.02	18000	660.5	0.55
0.777	363.02	19000	661.57	0.56
0.777	363.02	20000	662.62	0.57
0.777	363.02	21000	663.64	0.57
0.777	363.02	22000	664.64	0.58
0.777	363.02	23000	665.63	0.59
0.777	363.02	24000	666.6	0.6
0.777	363.02	25000	667.53	0.61
0.952	313.17	1000	671.13	0.43
0.952	313.17	2000	672.16	0.44
0.952	313.17	3000	673.18	0.44
0.952	313.17	4000	674.17	0.45
0.952	313.17	5000	675.18	0.45
0.952	313.17	6000	676.18	0.46
0.952	313.17	7000	677.15	0.46
0.952	313.17	8000	678.12	0.47
0.952	313.17	9000	679.08	0.48
0.952	313.17	10000	680.03	0.48
0.952	313.17	10990	680.95	0.49
0.952	313.17	12000	681.86	0.5
0.952	313.17	13000	682.77	0.5
0.952	313.17	14000	683.65	0.51
0.952	313.17	15000	684.52	0.52
0.952	313.17	16000	685.39	0.52
0.952	313.17	17000	686.24	0.53
0.952	313.17	18000	687.08	0.54
0.952	313.17	19000	687.9	0.54
0.952	313.17	20000	688.71	0.55
0.952	313.17	21000	689.52	0.56
0.952	313.17	22000	690.29	0.57
0.952	313.17	23000	691.05	0.57
0.952	313.17	24000	691.82	0.58
0.952	313.17	25000	692.57	0.59
0.952	323.14	1000	662.62	0.43
0.952	323.14	2000	663.72	0.44
0.952	323.14	3000	664.82	0.44
0.952	323.14	4000	665.9	0.45
0.952	323.14	5000	666.98	0.45
0.952	323.14	6000	668.05	0.46
0.952	323.14	7000	669.1	0.47
0.952	323.14	8000	670.14	0.47
0.952	323.14	9000	671.16	0.48
0.952	323.14	10000	672.17	0.49
0.952	323.14	10990	673.16	0.49
0.952	323.14	12000	674.14	0.5
0.952	323.14	13000	675.1	0.51
0.952	323.14	14000	676.05	0.51
0.952	323.14	15000	676.99	0.52
0.952	323.14	16000	677.91	0.53
0.952	323.14	17000	678.82	0.53
0.952	323.14	18000	679.71	0.54
0.952	323.14	19000	680.59	0.55
0.952	323.14	20000	681.45	0.56
0.952	323.14	21000	682.3	0.56
0.952	323.14	22000	683.13	0.57
0.952	323.14	23000	683.92	0.58
0.952	323.14	24000	684.73	0.59
0.952	323.14	25000	685.51	0.6
0.952	333.13	1000	653.95	0.43
0.952	333.13	2000	655.14	0.44
0.952	333.13	3000	656.33	0.44
0.952	333.13	4000	657.51	0.45
0.952	333.13	5000	658.67	0.46
0.952	333.13	6000	659.82	0.46
0.952	333.13	7000	660.95	0.47
0.952	333.13	8000	662.06	0.48
0.952	333.13	9000	663.16	0.48
0.952	333.13	10000	664.24	0.49
0.952	333.13	10990	665.3	0.5
0.952	333.13	12000	666.34	0.5
0.952	333.13	13000	667.37	0.51
0.952	333.13	14000	668.38	0.52
0.952	333.13	15000	669.39	0.52
0.952	333.13	16000	670.37	0.53
0.952	333.13	17000	671.33	0.54
0.952	333.13	18000	672.29	0.55
0.952	333.13	19000	673.23	0.55
0.952	333.13	20000	674.14	0.56
0.952	333.13	21000	675.04	0.57
0.952	333.13	22000	675.93	0.58
0.952	333.13	23000	676.79	0.59
0.952	333.13	24000	677.64	0.59
0.952	333.13	25000	678.45	0.6
0.952	343.11	1000	645.16	0.43
0.952	343.11	2000	646.47	0.44
0.952	343.11	3000	647.73	0.45
0.952	343.11	4000	649	0.45
0.952	343.11	5000	650.27	0.46
0.952	343.11	6000	651.49	0.46
0.952	343.11	7000	652.71	0.47
0.952	343.11	8000	653.91	0.48
0.952	343.11	9000	655.08	0.48
0.952	343.11	10000	656.24	0.49
0.952	343.11	11000	657.38	0.5
0.952	343.11	12000	658.49	0.51
0.952	343.11	13000	659.59	0.51
0.952	343.11	14000	660.67	0.52
0.952	343.11	15000	661.74	0.53
0.952	343.11	16000	662.78	0.54
0.952	343.11	17000	663.81	0.54
0.952	343.11	18000	664.84	0.55
0.952	343.11	19000	665.84	0.56
0.952	343.11	20000	666.82	0.57
0.952	343.11	21000	667.78	0.58
0.952	343.11	22000	668.7	0.58
0.952	343.11	23000	669.62	0.59
0.952	343.11	24000	670.52	0.6
0.952	343.11	25000	671.4	0.61
0.952	353.12	1000	636.17	0.44
0.952	353.12	2000	637.58	0.44
0.952	353.12	3000	638.96	0.45
0.952	353.12	4000	640.34	0.45
0.952	353.12	5000	641.71	0.46
0.952	353.12	6000	643.05	0.47
0.952	353.12	7000	644.36	0.47
0.952	353.12	8000	645.65	0.48
0.952	353.12	9000	646.91	0.49
0.952	353.12	10000	648.14	0.49
0.952	353.12	11000	649.36	0.5
0.952	353.12	12000	650.55	0.51
0.952	353.12	13000	651.72	0.52
0.952	353.12	14000	652.87	0.53
0.952	353.12	15000	654	0.53
0.952	353.12	16000	655.12	0.54
0.952	353.12	17000	656.22	0.55
0.952	353.12	18000	657.29	0.56
0.952	353.12	19000	658.35	0.56
0.952	353.12	20000	659.4	0.57
0.952	353.12	21000	660.42	0.58
0.952	353.12	22000	661.43	0.59
0.952	353.12	23000	662.41	0.6
0.952	353.12	24000	663.35	0.61
0.952	353.12	25000	664.3	0.61
0.952	363.03	1000	627.08	0.44
0.952	363.03	2000	628.62	0.44
0.952	363.03	3000	630.14	0.45
0.952	363.03	4000	631.64	0.46
0.952	363.03	5000	633.12	0.46
0.952	363.03	6000	634.56	0.47
0.952	363.03	7000	635.98	0.48
0.952	363.03	8000	637.36	0.48
0.952	363.03	9000	638.71	0.49
0.952	363.03	10000	640.03	0.5
0.952	363.03	11000	641.33	0.51
0.952	363.03	12000	642.61	0.51
0.952	363.03	13000	643.86	0.52
0.952	363.03	14000	645.09	0.53
0.952	363.03	15000	646.3	0.54
0.952	363.03	16000	647.49	0.55
0.952	363.03	17000	648.66	0.55
0.952	363.03	18000	649.8	0.56
0.952	363.03	19000	650.92	0.57
0.952	363.03	20000	652.02	0.58
0.952	363.03	21000	653.1	0.59
0.952	363.03	22000	654.16	0.6
0.952	363.03	23000	655.2	0.6
0.952	363.03	24000	656.21	0.61
0.952	363.03	25000	657.21	0.62

System: octane + decane; phases: Liquid
Property: Mass density, kg/m3 (Liquid); method: Vibrating tube method
Mole fraction of octane	Temperature, K	Pressure, kPa	Mass density, kg/m3	uncertainty
0.0616	313.14	1000	714.37	0.41
0.0616	313.14	2000	715.15	0.41
0.0616	313.14	3000	716	0.42
0.0616	313.14	4000	716.89	0.42
0.0616	313.14	5000	717.71	0.43
0.0616	313.14	6000	718.51	0.43
0.0616	313.14	7000	719.36	0.43
0.0616	313.14	8000	720.16	0.44
0.0616	313.14	9000	720.97	0.44
0.0616	313.14	10000	721.75	0.45
0.0616	313.14	10990	722.52	0.45
0.0616	313.14	12000	723.27	0.46
0.0616	313.14	13000	724.05	0.46
0.0616	313.14	14000	724.81	0.47
0.0616	313.14	15000	725.5	0.47
0.0616	313.14	16000	726.26	0.48
0.0616	313.14	17000	726.99	0.48
0.0616	313.14	18000	727.69	0.49
0.0616	313.14	19000	728.37	0.5
0.0616	313.14	20000	729.06	0.5
0.0616	313.14	21000	729.73	0.51
0.0616	313.14	22000	730.38	0.51
0.0616	313.14	23000	731.03	0.52
0.0616	313.14	24000	731.6	0.53
0.0616	313.14	25000	732.22	0.53
0.0616	323.19	1000	706.61	0.41
0.0616	323.19	2000	707.46	0.42
0.0616	323.19	3000	708.43	0.42
0.0616	323.19	4000	709.27	0.42
0.0616	323.19	5000	710.19	0.43
0.0616	323.19	6000	711.06	0.43
0.0616	323.19	7000	711.94	0.44
0.0616	323.19	8000	712.81	0.44
0.0616	323.19	9000	713.68	0.45
0.0616	323.19	10000	714.53	0.45
0.0616	323.19	10990	715.36	0.46
0.0616	323.19	12000	716.18	0.46
0.0616	323.19	13000	716.99	0.47
0.0616	323.19	14000	717.79	0.47
0.0616	323.19	15000	718.57	0.48
0.0616	323.19	16000	719.34	0.48
0.0616	323.19	17000	720.12	0.49
0.0616	323.19	18000	720.9	0.49
0.0616	323.19	19000	721.64	0.5
0.0616	323.19	20000	722.37	0.51
0.0616	323.19	21000	723.09	0.51
0.0616	323.19	22000	723.78	0.52
0.0616	323.19	23000	724.44	0.52
0.0616	323.19	24000	725.08	0.53
0.0616	323.19	25000	725.73	0.54
0.0616	333.12	1000	698.91	0.41
0.0616	333.12	2000	699.91	0.42
0.0616	333.12	3000	700.87	0.42
0.0616	333.12	4000	701.83	0.43
0.0616	333.12	5000	702.77	0.43
0.0616	333.12	6000	703.69	0.43
0.0616	333.12	7000	704.67	0.44
0.0616	333.12	8000	705.56	0.44
0.0616	333.12	9000	706.45	0.45
0.0616	333.12	10000	707.38	0.45
0.0616	333.12	10990	708.26	0.46
0.0616	333.12	12000	709.09	0.46
0.0616	333.12	13000	709.96	0.47
0.0616	333.12	14000	710.8	0.48
0.0616	333.12	15000	711.63	0.48
0.0616	333.12	16000	712.43	0.49
0.0616	333.12	17000	713.28	0.49
0.0616	333.12	18000	714.06	0.5
0.0616	333.12	19000	714.88	0.5
0.0616	333.12	20000	715.65	0.51
0.0616	333.12	21000	716.44	0.52
0.0616	333.12	22000	717.15	0.52
0.0616	333.12	23000	717.89	0.53
0.0616	333.12	24000	718.59	0.54
0.0616	333.12	25000	719.3	0.54
0.0616	343.11	1000	691.23	0.41
0.0616	343.11	2000	692.25	0.42
0.0616	343.11	3000	693.27	0.42
0.0616	343.11	4000	694.28	0.43
0.0616	343.11	5000	695.27	0.43
0.0616	343.11	6000	696.28	0.44
0.0616	343.11	7000	697.25	0.44
0.0616	343.11	8000	698.24	0.45
0.0616	343.11	9000	699.21	0.45
0.0616	343.11	10000	700.15	0.46
0.0616	343.11	10990	701.09	0.46
0.0616	343.11	12000	702.04	0.47
0.0616	343.11	13000	702.94	0.47
0.0616	343.11	14000	703.83	0.48
0.0616	343.11	15000	704.71	0.49
0.0616	343.11	16000	705.59	0.49
0.0616	343.11	17000	706.44	0.5
0.0616	343.11	18000	707.29	0.5
0.0616	343.11	19000	708.13	0.51
0.0616	343.11	20000	708.97	0.52
0.0616	343.11	21000	709.77	0.52
0.0616	343.11	22000	710.54	0.53
0.0616	343.11	23000	711.34	0.53
0.0616	343.11	24000	712.11	0.54
0.0616	343.11	25000	712.86	0.55
0.0616	353.12	1000	683.44	0.42
0.0616	353.12	2000	684.54	0.42
0.0616	353.12	3000	685.62	0.42
0.0616	353.12	4000	686.69	0.43
0.0616	353.12	5000	687.76	0.43
0.0616	353.12	6000	688.82	0.44
0.0616	353.12	7000	689.85	0.44
0.0616	353.12	8000	690.88	0.45
0.0616	353.12	9000	691.9	0.45
0.0616	353.12	10000	692.88	0.46
0.0616	353.12	10990	693.88	0.47
0.0616	353.12	12000	694.85	0.47
0.0616	353.12	13000	695.8	0.48
0.0616	353.12	14000	696.76	0.48
0.0616	353.12	15000	697.7	0.49
0.0616	353.12	16000	698.61	0.5
0.0616	353.12	17000	699.52	0.5
0.0616	353.12	18000	700.43	0.51
0.0616	353.12	19000	701.32	0.51
0.0616	353.12	20000	702.19	0.52
0.0616	353.12	21000	703.05	0.53
0.0616	353.12	22000	703.89	0.53
0.0616	353.12	23000	704.72	0.54
0.0616	353.12	24000	705.52	0.55
0.0616	353.12	25000	706.29	0.55
0.0616	363.03	1000	675.72	0.42
0.0616	363.03	2000	676.86	0.42
0.0616	363.03	3000	678.03	0.43
0.0616	363.03	4000	679.17	0.43
0.0616	363.03	5000	680.28	0.44
0.0616	363.03	6000	681.38	0.44
0.0616	363.03	7000	682.5	0.45
0.0616	363.03	8000	683.6	0.45
0.0616	363.03	9000	684.68	0.46
0.0616	363.03	10000	685.7	0.46
0.0616	363.03	10990	686.75	0.47
0.0616	363.03	12000	687.8	0.47
0.0616	363.03	13000	688.75	0.48
0.0616	363.03	14000	689.77	0.49
0.0616	363.03	15000	690.77	0.49
0.0616	363.03	16000	691.73	0.5
0.0616	363.03	17000	692.68	0.51
0.0616	363.03	18000	693.63	0.51
0.0616	363.03	19000	694.55	0.52
0.0616	363.03	20000	695.46	0.53
0.0616	363.03	21000	696.37	0.53
0.0616	363.03	22000	697.23	0.54
0.0616	363.03	23000	698.12	0.55
0.0616	363.03	24000	699	0.55
0.0616	363.03	25000	699.81	0.56
0.2801	313.17	1000	709.26	0.41
0.2801	313.17	2000	710.07	0.42
0.2801	313.17	3000	710.9	0.42
0.2801	313.17	4000	711.79	0.42
0.2801	313.17	5000	712.65	0.43
0.2801	313.17	6000	713.47	0.43
0.2801	313.17	7000	714.32	0.44
0.2801	313.17	8000	715.17	0.44
0.2801	313.17	9000	715.99	0.45
0.2801	313.17	10000	716.81	0.45
0.2801	313.17	10990	717.63	0.46
0.2801	313.17	12000	718.42	0.46
0.2801	313.17	13000	719.2	0.47
0.2801	313.17	14000	719.98	0.47
0.2801	313.17	15000	720.74	0.48
0.2801	313.17	16000	721.5	0.48
0.2801	313.17	17000	722.23	0.49
0.2801	313.17	18000	723	0.5
0.2801	313.17	19000	723.67	0.5
0.2801	313.17	20000	724.35	0.51
0.2801	313.17	21000	725.02	0.51
0.2801	313.17	22000	725.7	0.52
0.2801	313.17	23000	726.3	0.52
0.2801	313.17	24000	726.9	0.53
0.2801	313.17	25000	727.55	0.54
0.2801	323.13	1000	701.5	0.41
0.2801	323.13	2000	702.42	0.42
0.2801	323.13	3000	703.33	0.42
0.2801	323.13	4000	704.26	0.43
0.2801	323.13	5000	705.16	0.43
0.2801	323.13	6000	706.06	0.43
0.2801	323.13	7000	706.95	0.44
0.2801	323.13	8000	707.83	0.44
0.2801	323.13	9000	708.7	0.45
0.2801	323.13	10000	709.57	0.45
0.2801	323.13	10990	710.5	0.46
0.2801	323.13	12000	711.29	0.47
0.2801	323.13	13000	712.12	0.47
0.2801	323.13	14000	712.97	0.48
0.2801	323.13	15000	713.78	0.48
0.2801	323.13	16000	714.58	0.49
0.2801	323.13	17000	715.38	0.49
0.2801	323.13	18000	716.14	0.5
0.2801	323.13	19000	716.9	0.51
0.2801	323.13	20000	717.66	0.51
0.2801	323.13	21000	718.38	0.52
0.2801	323.13	22000	719.06	0.52
0.2801	323.13	23000	719.71	0.53
0.2801	323.13	24000	720.38	0.54
0.2801	323.13	25000	721	0.54
0.2801	333.12	1000	693.73	0.41
0.2801	333.12	2000	694.68	0.42
0.2801	333.12	3000	695.65	0.42
0.2801	333.12	4000	696.63	0.43
0.2801	333.12	5000	697.61	0.43
0.2801	333.12	6000	698.55	0.44
0.2801	333.12	7000	699.5	0.44
0.2801	333.12	8000	700.43	0.45
0.2801	333.12	9000	701.36	0.45
0.2801	333.12	10000	702.27	0.46
0.2801	333.12	10990	703.19	0.46
0.2801	333.12	12000	704.1	0.47
0.2801	333.12	13000	704.98	0.47
0.2801	333.12	14000	705.81	0.48
0.2801	333.12	15000	706.72	0.49
0.2801	333.12	16000	707.59	0.49
0.2801	333.12	17000	708.43	0.5
0.2801	333.12	18000	709.25	0.5
0.2801	333.12	19000	710.06	0.51
0.2801	333.12	20000	710.83	0.52
0.2801	333.12	21000	711.62	0.52
0.2801	333.12	22000	712.4	0.53
0.2801	333.12	23000	713.12	0.54
0.2801	333.12	24000	713.84	0.54
0.2801	333.12	25000	714.53	0.55
0.2801	343.12	1000	686	0.42
0.2801	343.12	2000	686.96	0.42
0.2801	343.12	3000	688	0.42
0.2801	343.12	4000	689.01	0.43
0.2801	343.12	5000	690.04	0.43
0.2801	343.12	6000	691.09	0.44
0.2801	343.12	7000	692.03	0.44
0.2801	343.12	8000	693.02	0.45
0.2801	343.12	9000	694	0.45
0.2801	343.12	10000	694.95	0.46
0.2801	343.12	10990	695.95	0.47
0.2801	343.12	12000	696.9	0.47
0.2801	343.12	13000	697.84	0.48
0.2801	343.12	14000	698.78	0.48
0.2801	343.12	15000	699.72	0.49
0.2801	343.12	16000	700.6	0.5
0.2801	343.12	17000	701.51	0.5
0.2801	343.12	18000	702.35	0.51
0.2801	343.12	19000	703.17	0.51
0.2801	343.12	20000	704.02	0.52
0.2801	343.12	21000	704.83	0.53
0.2801	343.12	22000	705.63	0.53
0.2801	343.12	23000	706.41	0.54
0.2801	343.12	24000	707.17	0.55
0.2801	343.12	25000	707.92	0.55
0.2801	353.12	1000	678.06	0.42
0.2801	353.12	2000	679.14	0.42
0.2801	353.12	3000	680.24	0.43
0.2801	353.12	4000	681.31	0.43
0.2801	353.12	5000	682.4	0.44
0.2801	353.12	6000	683.48	0.44
0.2801	353.12	7000	684.52	0.45
0.2801	353.12	8000	685.57	0.45
0.2801	353.12	9000	686.58	0.46
0.2801	353.12	10000	687.61	0.46
0.2801	353.12	10990	688.64	0.47
0.2801	353.12	12000	689.64	0.47
0.2801	353.12	13000	690.64	0.48
0.2801	353.12	14000	691.6	0.49
0.2801	353.12	15000	692.59	0.49
0.2801	353.12	16000	693.55	0.5
0.2801	353.12	17000	694.46	0.51
0.2801	353.12	18000	695.35	0.51
0.2801	353.12	19000	696.27	0.52
0.2801	353.12	20000	697.16	0.53
0.2801	353.12	21000	698.02	0.53
0.2801	353.12	22000	698.88	0.54
0.2801	353.12	23000	699.72	0.55
0.2801	353.12	24000	700.52	0.55
0.2801	353.12	25000	701.34	0.56
0.2801	363.05	1000	670.18	0.42
0.2801	363.05	2000	671.39	0.42
0.2801	363.05	3000	672.48	0.43
0.2801	363.05	4000	673.67	0.43
0.2801	363.05	5000	674.81	0.44
0.2801	363.05	6000	675.97	0.44
0.2801	363.05	7000	677.07	0.45
0.2801	363.05	8000	678.19	0.45
0.2801	363.05	9000	679.28	0.46
0.2801	363.05	10000	680.35	0.47
0.2801	363.05	10990	681.42	0.47
0.2801	363.05	12000	682.49	0.48
0.2801	363.05	13000	683.53	0.48
0.2801	363.05	14000	684.56	0.49
0.2801	363.05	15000	685.57	0.5
0.2801	363.05	16000	686.57	0.5
0.2801	363.05	17000	687.56	0.51
0.2801	363.05	18000	688.51	0.52
0.2801	363.05	19000	689.47	0.52
0.2801	363.05	20000	690.38	0.53
0.2801	363.05	21000	691.33	0.54
0.2801	363.05	22000	692.19	0.54
0.2801	363.05	23000	693.06	0.55
0.2801	363.05	24000	693.94	0.56
0.2801	363.05	25000	694.78	0.57
0.5314	313.19	1000	702.8	0.42
0.5314	313.19	2000	703.69	0.42
0.5314	313.19	3000	704.53	0.42
0.5314	313.19	4000	705.35	0.43
0.5314	313.19	5000	706.16	0.43
0.5314	313.19	6000	707.05	0.44
0.5314	313.19	7000	707.93	0.44
0.5314	313.19	8000	708.77	0.45
0.5314	313.19	9000	709.59	0.45
0.5314	313.19	10000	710.43	0.46
0.5314	313.19	10990	711.26	0.46
0.5314	313.19	12000	712.06	0.47
0.5314	313.19	13000	712.86	0.47
0.5314	313.19	14000	713.65	0.48
0.5314	313.19	15000	714.44	0.48
0.5314	313.19	16000	715.21	0.49
0.5314	313.19	17000	715.97	0.5
0.5314	313.19	18000	716.73	0.5
0.5314	313.19	19000	717.47	0.51
0.5314	313.19	20000	718.2	0.51
0.5314	313.19	21000	718.89	0.52
0.5314	313.19	22000	719.56	0.53
0.5314	313.19	23000	720.23	0.53
0.5314	313.19	24000	720.88	0.54
0.5314	313.19	25000	721.52	0.54
0.5314	323.15	1000	694.85	0.42
0.5314	323.15	2000	695.78	0.42
0.5314	323.15	3000	696.73	0.42
0.5314	323.15	4000	697.62	0.43
0.5314	323.15	5000	698.58	0.43
0.5314	323.15	6000	699.53	0.44
0.5314	323.15	7000	700.45	0.44
0.5314	323.15	8000	701.36	0.45
0.5314	323.15	9000	702.24	0.45
0.5314	323.15	10000	703.12	0.46
0.5314	323.15	10990	703.99	0.46
0.5314	323.15	12000	704.86	0.47
0.5314	323.15	13000	705.72	0.48
0.5314	323.15	14000	706.56	0.48
0.5314	323.15	15000	707.39	0.49
0.5314	323.15	16000	708.22	0.49
0.5314	323.15	17000	709.02	0.5
0.5314	323.15	18000	709.85	0.51
0.5314	323.15	19000	710.62	0.51
0.5314	323.15	20000	711.38	0.52
0.5314	323.15	21000	712.12	0.52
0.5314	323.15	22000	712.85	0.53
0.5314	323.15	23000	713.54	0.54
0.5314	323.15	24000	714.24	0.54
0.5314	323.15	25000	714.88	0.55
0.5314	333.13	1000	686.94	0.42
0.5314	333.13	2000	687.94	0.42
0.5314	333.13	3000	688.95	0.43
0.5314	333.13	4000	689.94	0.43
0.5314	333.13	5000	690.92	0.44
0.5314	333.13	6000	691.92	0.44
0.5314	333.13	7000	692.89	0.45
0.5314	333.13	8000	693.87	0.45
0.5314	333.13	9000	694.82	0.46
0.5314	333.13	10000	695.75	0.46
0.5314	333.13	10990	696.68	0.47
0.5314	333.13	12000	697.6	0.47
0.5314	333.13	13000	698.5	0.48
0.5314	333.13	14000	699.4	0.49
0.5314	333.13	15000	700.28	0.49
0.5314	333.13	16000	701.15	0.5
0.5314	333.13	17000	702	0.5
0.5314	333.13	18000	702.88	0.51
0.5314	333.13	19000	703.68	0.52
0.5314	333.13	20000	704.48	0.52
0.5314	333.13	21000	705.27	0.53
0.5314	333.13	22000	706.05	0.54
0.5314	333.13	23000	706.81	0.54
0.5314	333.13	24000	707.53	0.55
0.5314	333.13	25000	708.26	0.56
0.5314	343.12	1000	678.98	0.42
0.5314	343.12	2000	680.05	0.42
0.5314	343.12	3000	681.13	0.43
0.5314	343.12	4000	682.2	0.43
0.5314	343.12	5000	683.26	0.44
0.5314	343.12	6000	684.32	0.44
0.5314	343.12	7000	685.36	0.45
0.5314	343.12	8000	686.38	0.45
0.5314	343.12	9000	687.39	0.46
0.5314	343.12	10000	688.38	0.46
0.5314	343.12	10990	689.37	0.47
0.5314	343.12	12000	690.34	0.48
0.5314	343.12	13000	691.29	0.48
0.5314	343.12	14000	692.24	0.49
0.5314	343.12	15000	693.17	0.49
0.5314	343.12	16000	694.09	0.5
0.5314	343.12	17000	695	0.51
0.5314	343.12	18000	695.89	0.51
0.5314	343.12	19000	696.76	0.52
0.5314	343.12	20000	697.62	0.53
0.5314	343.12	21000	698.47	0.53
0.5314	343.12	22000	699.29	0.54
0.5314	343.12	23000	700.11	0.55
0.5314	343.12	24000	700.89	0.56
0.5314	343.12	25000	701.69	0.56
0.5314	353.12	1000	670.91	0.42
0.5314	353.12	2000	672.1	0.42
0.5314	353.12	3000	673.23	0.43
0.5314	353.12	4000	674.37	0.43
0.5314	353.12	5000	675.52	0.44
0.5314	353.12	6000	676.65	0.44
0.5314	353.12	7000	677.77	0.45
0.5314	353.12	8000	678.86	0.46
0.5314	353.12	9000	679.93	0.46
0.5314	353.12	10000	680.99	0.47
0.5314	353.12	10990	682.03	0.47
0.5314	353.12	12000	683.07	0.48
0.5314	353.12	13000	684.09	0.49
0.5314	353.12	14000	685.09	0.49
0.5314	353.12	15000	686.08	0.5
0.5314	353.12	16000	687.05	0.51
0.5314	353.12	17000	688	0.51
0.5314	353.12	18000	688.93	0.52
0.5314	353.12	19000	689.85	0.53
0.5314	353.12	20000	690.77	0.53
0.5314	353.12	21000	691.66	0.54
0.5314	353.12	22000	692.54	0.55
0.5314	353.12	23000	693.39	0.55
0.5314	353.12	24000	694.23	0.56
0.5314	353.12	25000	695.07	0.57
0.5314	363.02	1000	662.89	0.42
0.5314	363.02	2000	664.16	0.43
0.5314	363.02	3000	665.39	0.43
0.5314	363.02	4000	666.61	0.44
0.5314	363.02	5000	667.85	0.44
0.5314	363.02	6000	669.05	0.45
0.5314	363.02	7000	670.24	0.45
0.5314	363.02	8000	671.39	0.46
0.5314	363.02	9000	672.53	0.46
0.5314	363.02	10000	673.66	0.47
0.5314	363.02	10990	674.79	0.48
0.5314	363.02	12000	675.87	0.48
0.5314	363.02	13000	676.95	0.49
0.5314	363.02	14000	678.01	0.5
0.5314	363.02	15000	679.06	0.5
0.5314	363.02	16000	680.09	0.51
0.5314	363.02	17000	681.1	0.52
0.5314	363.02	18000	682.1	0.52
0.5314	363.02	19000	683.1	0.53
0.5314	363.02	20000	684.05	0.54
0.5314	363.02	21000	685	0.54
0.5314	363.02	22000	685.91	0.55
0.5314	363.02	23000	686.82	0.56
0.5314	363.02	24000	687.69	0.57
0.5314	363.02	25000	688.57	0.57
0.7736	313.19	1000	695.32	0.42
0.7736	313.19	2000	696.27	0.42
0.7736	313.19	3000	697.14	0.43
0.7736	313.19	4000	698.01	0.43
0.7736	313.19	5000	698.89	0.44
0.7736	313.19	6000	699.8	0.44
0.7736	313.19	7000	700.67	0.44
0.7736	313.19	8000	701.55	0.45
0.7736	313.19	9000	702.44	0.46
0.7736	313.19	10000	703.28	0.46
0.7736	313.19	10990	704.16	0.47
0.7736	313.19	12000	705	0.47
0.7736	313.19	13000	705.81	0.48
0.7736	313.19	14000	706.63	0.48
0.7736	313.19	15000	707.47	0.49
0.7736	313.19	16000	708.28	0.5
0.7736	313.19	17000	709.1	0.5
0.7736	313.19	18000	709.83	0.51
0.7736	313.19	19000	710.61	0.51
0.7736	313.19	20000	711.34	0.52
0.7736	313.19	21000	712.07	0.53
0.7736	313.19	22000	712.79	0.53
0.7736	313.19	23000	713.47	0.54
0.7736	313.19	24000	714.14	0.55
0.7736	313.19	25000	714.77	0.55
0.7736	323.15	1000	687.38	0.42
0.7736	323.15	2000	688.41	0.42
0.7736	323.15	3000	689.33	0.43
0.7736	323.15	4000	690.27	0.43
0.7736	323.15	5000	691.21	0.44
0.7736	323.15	6000	692.18	0.44
0.7736	323.15	7000	693.12	0.45
0.7736	323.15	8000	694.08	0.45
0.7736	323.15	9000	694.99	0.46
0.7736	323.15	10000	695.89	0.46
0.7736	323.15	10990	696.8	0.47
0.7736	323.15	12000	697.73	0.48
0.7736	323.15	13000	698.56	0.48
0.7736	323.15	14000	699.43	0.49
0.7736	323.15	15000	700.3	0.49
0.7736	323.15	16000	701.16	0.5
0.7736	323.15	17000	702	0.51
0.7736	323.15	18000	702.81	0.51
0.7736	323.15	19000	703.6	0.52
0.7736	323.15	20000	704.4	0.53
0.7736	323.15	21000	705.18	0.53
0.7736	323.15	22000	705.95	0.54
0.7736	323.15	23000	706.68	0.55
0.7736	323.15	24000	707.39	0.55
0.7736	323.15	25000	708.08	0.56
0.7736	333.14	1000	679.32	0.42
0.7736	333.14	2000	680.38	0.42
0.7736	333.14	3000	681.42	0.43
0.7736	333.14	4000	682.44	0.43
0.7736	333.14	5000	683.46	0.44
0.7736	333.14	6000	684.5	0.44
0.7736	333.14	7000	685.49	0.45
0.7736	333.14	8000	686.5	0.46
0.7736	333.14	9000	687.47	0.46
0.7736	333.14	10000	688.42	0.47
0.7736	333.14	10990	689.42	0.47
0.7736	333.14	12000	690.37	0.48
0.7736	333.14	13000	691.27	0.48
0.7736	333.14	14000	692.21	0.49
0.7736	333.14	15000	693.1	0.5
0.7736	333.14	16000	694.02	0.5
0.7736	333.14	17000	694.9	0.51
0.7736	333.14	18000	695.77	0.52
0.7736	333.14	19000	696.62	0.52
0.7736	333.14	20000	697.46	0.53
0.7736	333.14	21000	698.28	0.54
0.7736	333.14	22000	699.09	0.54
0.7736	333.14	23000	699.86	0.55
0.7736	333.14	24000	700.61	0.56
0.7736	333.14	25000	701.34	0.57
0.7736	343.12	1000	671.23	0.42
0.7736	343.12	2000	672.36	0.43
0.7736	343.12	3000	673.44	0.43
0.7736	343.12	4000	674.54	0.44
0.7736	343.12	5000	675.64	0.44
0.7736	343.12	6000	676.76	0.45
0.7736	343.12	7000	677.83	0.45
0.7736	343.12	8000	678.88	0.46
0.7736	343.12	9000	679.92	0.46
0.7736	343.12	10000	680.93	0.47
0.7736	343.12	10990	681.98	0.48
0.7736	343.12	12000	682.98	0.48
0.7736	343.12	13000	683.94	0.49
0.7736	343.12	14000	684.91	0.49
0.7736	343.12	15000	685.89	0.5
0.7736	343.12	16000	686.84	0.51
0.7736	343.12	17000	687.8	0.51
0.7736	343.12	18000	688.72	0.52
0.7736	343.12	19000	689.61	0.53
0.7736	343.12	20000	690.48	0.54
0.7736	343.12	21000	691.35	0.54
0.7736	343.12	22000	692.2	0.55
0.7736	343.12	23000	693.03	0.56
0.7736	343.12	24000	693.84	0.56
0.7736	343.12	25000	694.61	0.57
0.7736	353.12	1000	663	0.42
0.7736	353.12	2000	664.25	0.43
0.7736	353.12	3000	665.41	0.43
0.7736	353.12	4000	666.6	0.44
0.7736	353.12	5000	667.77	0.44
0.7736	353.12	6000	668.95	0.45
0.7736	353.12	7000	670.08	0.45
0.7736	353.12	8000	671.21	0.46
0.7736	353.12	9000	672.31	0.47
0.7736	353.12	10000	673.43	0.47
0.7736	353.12	10990	674.52	0.48
0.7736	353.12	12000	675.55	0.49
0.7736	353.12	13000	676.59	0.49
0.7736	353.12	14000	677.61	0.5
0.7736	353.12	15000	678.66	0.51
0.7736	353.12	16000	679.66	0.51
0.7736	353.12	17000	680.68	0.52
0.7736	353.12	18000	681.63	0.53
0.7736	353.12	19000	682.58	0.53
0.7736	353.12	20000	683.51	0.54
0.7736	353.12	21000	684.41	0.55
0.7736	353.12	22000	685.32	0.55
0.7736	353.12	23000	686.21	0.56
0.7736	353.12	24000	687.06	0.57
0.7736	353.12	25000	687.92	0.58
0.7736	363.07	1000	654.79	0.42
0.7736	363.07	2000	656.13	0.43
0.7736	363.07	3000	657.39	0.43
0.7736	363.07	4000	658.68	0.44
0.7736	363.07	5000	659.92	0.45
0.7736	363.07	6000	661.18	0.45
0.7736	363.07	7000	662.38	0.46
0.7736	363.07	8000	663.57	0.46
0.7736	363.07	9000	664.75	0.47
0.7736	363.07	10000	665.92	0.48
0.7736	363.07	10990	667.06	0.48
0.7736	363.07	12000	668.19	0.49
0.7736	363.07	13000	669.32	0.5
0.7736	363.07	14000	670.41	0.5
0.7736	363.07	15000	671.49	0.51
0.7736	363.07	16000	672.56	0.52
0.7736	363.07	17000	673.6	0.52
0.7736	363.07	18000	674.63	0.53
0.7736	363.07	19000	675.61	0.54
0.7736	363.07	20000	676.63	0.55
0.7736	363.07	21000	677.57	0.55
0.7736	363.07	22000	678.47	0.56
0.7736	363.07	23000	679.43	0.57
0.7736	363.07	24000	680.34	0.58
0.7736	363.07	25000	681.28	0.58
0.9623	313.17	1000	688.85	0.42
0.9623	313.17	2000	689.77	0.42
0.9623	313.17	3000	690.64	0.43
0.9623	313.17	4000	691.53	0.43
0.9623	313.17	5000	692.37	0.44
0.9623	313.17	6000	693.31	0.44
0.9623	313.17	7000	694.24	0.45
0.9623	313.17	8000	695.11	0.45
0.9623	313.17	9000	696.04	0.46
0.9623	313.17	10000	696.93	0.47
0.9623	313.17	10990	697.85	0.47
0.9623	313.17	12000	698.72	0.48
0.9623	313.17	13000	699.57	0.48
0.9623	313.17	14000	700.45	0.49
0.9623	313.17	15000	701.33	0.49
0.9623	313.17	16000	702.18	0.5
0.9623	313.17	17000	703	0.51
0.9623	313.17	18000	703.81	0.51
0.9623	313.17	19000	704.6	0.52
0.9623	313.17	20000	705.32	0.53
0.9623	313.17	21000	706.06	0.53
0.9623	313.17	22000	706.8	0.54
0.9623	313.17	23000	707.48	0.55
0.9623	313.17	24000	708.16	0.55
0.9623	313.17	25000	708.78	0.56
0.9623	323.15	1000	680.8	0.42
0.9623	323.15	2000	681.8	0.43
0.9623	323.15	3000	682.74	0.43
0.9623	323.15	4000	683.68	0.43
0.9623	323.15	5000	684.65	0.44
0.9623	323.15	6000	685.6	0.45
0.9623	323.15	7000	686.57	0.45
0.9623	323.15	8000	687.54	0.46
0.9623	323.15	9000	688.5	0.46
0.9623	323.15	10000	689.46	0.47
0.9623	323.15	10990	690.4	0.47
0.9623	323.15	12000	691.34	0.48
0.9623	323.15	13000	692.26	0.49
0.9623	323.15	14000	693.16	0.49
0.9623	323.15	15000	694.06	0.5
0.9623	323.15	16000	694.94	0.51
0.9623	323.15	17000	695.8	0.51
0.9623	323.15	18000	696.65	0.52
0.9623	323.15	19000	697.48	0.53
0.9623	323.15	20000	698.3	0.53
0.9623	323.15	21000	699.1	0.54
0.9623	323.15	22000	699.83	0.55
0.9623	323.15	23000	700.57	0.55
0.9623	323.15	24000	701.31	0.56
0.9623	323.15	25000	702	0.57
0.9623	333.13	1000	672.68	0.42
0.9623	333.13	2000	673.73	0.43
0.9623	333.13	3000	674.77	0.43
0.9623	333.13	4000	675.8	0.44
0.9623	333.13	5000	676.82	0.44
0.9623	333.13	6000	677.85	0.45
0.9623	333.13	7000	678.88	0.45
0.9623	333.13	8000	679.95	0.46
0.9623	333.13	9000	680.98	0.46
0.9623	333.13	10000	681.98	0.47
0.9623	333.13	10990	682.99	0.48
0.9623	333.13	12000	683.98	0.48
0.9623	333.13	13000	684.93	0.49
0.9623	333.13	14000	685.89	0.5
0.9623	333.13	15000	686.87	0.5
0.9623	333.13	16000	687.76	0.51
0.9623	333.13	17000	688.67	0.52
0.9623	333.13	18000	689.57	0.52
0.9623	333.13	19000	690.49	0.53
0.9623	333.13	20000	691.35	0.54
0.9623	333.13	21000	692.18	0.54
0.9623	333.13	22000	693	0.55
0.9623	333.13	23000	693.78	0.56
0.9623	333.13	24000	694.55	0.57
0.9623	333.13	25000	695.28	0.57
0.9623	343.13	1000	664.48	0.42
0.9623	343.13	2000	665.59	0.43
0.9623	343.13	3000	666.77	0.43
0.9623	343.13	4000	667.86	0.44
0.9623	343.13	5000	668.95	0.44
0.9623	343.13	6000	670.06	0.45
0.9623	343.13	7000	671.17	0.46
0.9623	343.13	8000	672.27	0.46
0.9623	343.13	9000	673.35	0.47
0.9623	343.13	10000	674.41	0.47
0.9623	343.13	10990	675.48	0.48
0.9623	343.13	12000	676.54	0.49
0.9623	343.13	13000	677.56	0.49
0.9623	343.13	14000	678.58	0.5
0.9623	343.13	15000	679.6	0.51
0.9623	343.13	16000	680.56	0.51
0.9623	343.13	17000	681.54	0.52
0.9623	343.13	18000	682.46	0.53
0.9623	343.13	19000	683.41	0.53
0.9623	343.13	20000	684.31	0.54
0.9623	343.13	21000	685.19	0.55
0.9623	343.13	22000	686.05	0.56
0.9623	343.13	23000	686.9	0.56
0.9623	343.13	24000	687.72	0.57
0.9623	343.13	25000	688.5	0.58
0.9623	353.08	1000	656.17	0.42
0.9623	353.08	2000	657.39	0.43
0.9623	353.08	3000	658.62	0.43
0.9623	353.08	4000	659.85	0.44
0.9623	353.08	5000	660.99	0.45
0.9623	353.08	6000	662.16	0.45
0.9623	353.08	7000	663.38	0.46
0.9623	353.08	8000	664.55	0.46
0.9623	353.08	9000	665.71	0.47
0.9623	353.08	10000	666.85	0.48
0.9623	353.08	10990	667.94	0.48
0.9623	353.08	12000	669.1	0.49
0.9623	353.08	13000	670.16	0.5
0.9623	353.08	14000	671.22	0.5
0.9623	353.08	15000	672.32	0.51
0.9623	353.08	16000	673.37	0.52
0.9623	353.08	17000	674.4	0.52
0.9623	353.08	18000	675.38	0.53
0.9623	353.08	19000	676.37	0.54
0.9623	353.08	20000	677.3	0.55
0.9623	353.08	21000	678.26	0.55
0.9623	353.08	22000	679.19	0.56
0.9623	353.08	23000	680.04	0.57
0.9623	353.08	24000	680.91	0.58
0.9623	353.08	25000	681.75	0.58
0.9623	363.07	1000	647.67	0.43
0.9623	363.07	2000	649.03	0.43
0.9623	363.07	3000	650.38	0.44
0.9623	363.07	4000	651.7	0.44
0.9623	363.07	5000	652.98	0.45
0.9623	363.07	6000	654.25	0.45
0.9623	363.07	7000	655.52	0.46
0.9623	363.07	8000	656.76	0.47
0.9623	363.07	9000	658	0.47
0.9623	363.07	10000	659.23	0.48
0.9623	363.07	10990	660.42	0.49
0.9623	363.07	12000	661.58	0.49
0.9623	363.07	13000	662.75	0.5
0.9623	363.07	14000	663.87	0.51
0.9623	363.07	15000	664.99	0.51
0.9623	363.07	16000	666.07	0.52
0.9623	363.07	17000	667.17	0.53
0.9623	363.07	18000	668.2	0.54
0.9623	363.07	19000	669.26	0.54
0.9623	363.07	20000	670.29	0.55
0.9623	363.07	21000	671.3	0.56
0.9623	363.07	22000	672.27	0.57
0.9623	363.07	23000	673.14	0.58
0.9623	363.07	24000	674.08	0.58
0.9623	363.07	25000	674.98	0.59
