Measured thermophysical data. High-pressure phase equilibrium data for systems with carbon dioxide, alpha-humulene and trans-caryophyllene
Source: J. Chem. Thermodyn., 2009, 10.1016/j.jct.2008.07.006
Compound 1: (E,E,E)-2,6,6,9-tetramethyl-1,4,8-cycloundecatriene, C15H24, InChI=1S/C15H24/c1-13-7-5-8-14(2)10-12-15(3,4)11-6-9-13/h6-7,10-11H,5,8-9,12H2,1-4H3/b11-6+,13-7+,14-10+, purity 98%
Compound 2: [1R-(1R*,4E,9S*)]-4,11,11-trimethyl-8-methylene-bicyclo[7.2.0]-4-undecene, C15H24, InChI=1S/C15H24/c1-11-6-5-7-12(2)13-10-15(3,4)14(13)9-8-11/h6,13-14H,2,5,7-10H2,1,3-4H3/b11-6+/t13-,14-/m1/s1, purity 98.5%
Compound 3: carbon dioxide, CO2, InChI=1S/CO2/c2-1-3, purity 99.9%

System: carbon dioxide + (E,E,E)-2,6,6,9-tetramethyl-1,4,8-cycloundecatriene; phases: Liquid mixture 1, Liquid mixture 2, Gas
Fixed: Temperature, K = 303
Property: Vapor or sublimation pressure, kPa (Liquid mixture 1); method: Closed cell (Static) method
Vapor or sublimation pressure, kPa	uncertainty
7100	200
7100	100
7000	200
7000	100
7100	100
7100	100
7100	100

System: carbon dioxide + (E,E,E)-2,6,6,9-tetramethyl-1,4,8-cycloundecatriene; phases: Liquid mixture 1, Liquid mixture 2
Fixed: Temperature, K = 303
Property: Vapor or sublimation pressure, kPa (Liquid mixture 1); method: Closed cell (Static) method
Mole fraction of carbon dioxide	Vapor or sublimation pressure, kPa	uncertainty
0.834	8200	200
0.874	9500	100
0.915	9800	200
0.933	9500	400
0.952	9000	100
0.963	8600	100
0.976	7100	100

System: carbon dioxide + (E,E,E)-2,6,6,9-tetramethyl-1,4,8-cycloundecatriene; phases: Liquid, Gas
Property: Vapor or sublimation pressure, kPa (Liquid); method: Closed cell (Static) method
Temperature, K	Mole fraction of carbon dioxide	Vapor or sublimation pressure, kPa	uncertainty
303	0.341	4700	100
303	0.537	6000	100
303	0.665	6400	200
303	0.756	6900	100
303	0.791	7000	100
303	0.989	7100	100
303	0.995	7200	200
313	0.341	5400	100
313	0.537	6600	100
313	0.665	7900	100
313	0.756	8800	200
313	0.791	9300	100
313	0.834	10800	300
313	0.874	12300	100
313	0.915	12400	100
313	0.933	11900	100
313	0.952	11200	100
313	0.963	10500	100
313	0.976	9800	100
313	0.989	8500	100
313	0.995	8600	100
323	0.341	6100	200
323	0.537	7700	100
323	0.665	9400	100
323	0.756	10800	100
323	0.791	11900	300
323	0.834	13300	100
323	0.874	14600	200
323	0.915	15000	100
323	0.933	14400	100
323	0.952	14000	100
323	0.963	13500	100
323	0.976	12500	200
323	0.989	10900	200
323	0.995	10300	100
333	0.341	6500	100
333	0.537	8700	100
333	0.665	11200	200
333	0.756	12900	100
333	0.791	14000	200
333	0.834	15500	200
333	0.874	16500	300
333	0.915	16900	400
333	0.933	16600	100
333	0.952	16500	100
333	0.963	16100	200
333	0.976	14700	100
333	0.989	13000	100
333	0.995	11800	100
343	0.341	7200	200
343	0.537	9600	100
343	0.665	12600	200
343	0.756	15000	200
343	0.791	16200	400
343	0.834	18100	200
343	0.874	18900	200
343	0.915	19200	200
343	0.933	18900	100
343	0.952	18600	100
343	0.963	17900	100
343	0.976	16900	300
343	0.989	15000	100
343	0.995	13200	100

System: [1R-(1R*,4E,9S*)]-4,11,11-trimethyl-8-methylene-bicyclo[7.2.0]-4-undecene + carbon dioxide; phases: Liquid mixture 1, Liquid mixture 2, Gas
Fixed: Temperature, K = 303
Property: Vapor or sublimation pressure, kPa (Liquid mixture 1); method: Closed cell (Static) method
Vapor or sublimation pressure, kPa	uncertainty
6800	100
7000	100
7000	200
6900	100
6800	200
6800	200
6900	300
6800	100
6900	100
6800	100

System: [1R-(1R*,4E,9S*)]-4,11,11-trimethyl-8-methylene-bicyclo[7.2.0]-4-undecene + carbon dioxide; phases: Liquid mixture 1, Liquid mixture 2
Fixed: Temperature, K = 303
Property: Vapor or sublimation pressure, kPa (Liquid mixture 1); method: Closed cell (Static) method
Mole fraction of carbon dioxide	Vapor or sublimation pressure, kPa	uncertainty
0.755	7000	100
0.802	8800	100
0.822	9700	300
0.845	10300	100
0.874	10800	100
0.899	10800	200
0.915	10700	200
0.933	10200	100
0.976	9700	100
0.996	6900	100

System: [1R-(1R*,4E,9S*)]-4,11,11-trimethyl-8-methylene-bicyclo[7.2.0]-4-undecene + carbon dioxide; phases: Liquid, Gas
Property: Vapor or sublimation pressure, kPa (Liquid); method: Closed cell (Static) method
Temperature, K	Mole fraction of carbon dioxide	Vapor or sublimation pressure, kPa	uncertainty
303	0.34	4500	100
303	0.537	6100	100
303	0.665	6700	100
303	0.731	6900	100
303	0.996	7000	100
313	0.34	5100	100
313	0.537	7000	100
313	0.665	8300	100
313	0.731	8800	300
313	0.755	9300	100
313	0.802	10600	100
313	0.822	11200	200
313	0.845	12100	100
313	0.874	12700	100
313	0.899	12800	200
313	0.915	12700	100
313	0.933	12700	200
313	0.949	11700	100
313	0.976	9500	100
313	0.996	8600	200
323	0.34	5900	100
323	0.537	7900	100
323	0.665	9700	100
323	0.731	10700	200
323	0.755	11400	100
323	0.802	12700	100
323	0.822	13400	100
323	0.845	14100	100
323	0.874	14700	100
323	0.899	15100	100
323	0.915	15100	300
323	0.933	15200	100
323	0.949	14300	200
323	0.976	12400	100
323	0.996	10700	100
333	0.34	6400	100
333	0.537	9100	100
333	0.665	11300	100
333	0.731	12700	100
333	0.755	13500	100
333	0.802	15100	200
333	0.822	15700	100
333	0.845	16300	100
333	0.874	16800	200
333	0.899	17100	100
333	0.915	17000	200
333	0.933	17100	100
333	0.949	16500	100
333	0.976	14700	100
333	0.996	11900	100
343	0.34	6800	100
343	0.537	10000	100
343	0.665	12800	100
343	0.731	14500	100
343	0.755	15400	100
343	0.802	17000	100
343	0.822	18000	100
343	0.845	18400	100
343	0.874	18900	100
343	0.899	19200	200
343	0.915	19200	100
343	0.933	19100	100
343	0.949	18500	400
343	0.976	16800	100
343	0.996	13200	300

System: [1R-(1R*,4E,9S*)]-4,11,11-trimethyl-8-methylene-bicyclo[7.2.0]-4-undecene + carbon dioxide + (E,E,E)-2,6,6,9-tetramethyl-1,4,8-cycloundecatriene; phases: Liquid mixture 1, Gas, Liquid mixture 2
Fixed: Temperature, K = 303
Fixed: Solvent: Mass ratio of component to other component of binary solvent of [1R-(1R*,4E,9S*)]-4,11,11-trimethyl-8-methylene-bicyclo[7.2.0]-4-undecene = 2.4
Property: Vapor or sublimation pressure, kPa (Liquid mixture 1); method: Closed cell (Static) method
Vapor or sublimation pressure, kPa	uncertainty
6600	100
6600	100
6700	100
6900	200

System: [1R-(1R*,4E,9S*)]-4,11,11-trimethyl-8-methylene-bicyclo[7.2.0]-4-undecene + carbon dioxide + (E,E,E)-2,6,6,9-tetramethyl-1,4,8-cycloundecatriene; phases: Liquid mixture 1, Liquid mixture 2
Fixed: Temperature, K = 303
Fixed: Solvent: Mass ratio of component to other component of binary solvent of [1R-(1R*,4E,9S*)]-4,11,11-trimethyl-8-methylene-bicyclo[7.2.0]-4-undecene = 2.4
Property: Vapor or sublimation pressure, kPa (Liquid mixture 1); method: Closed cell (Static) method
Mole fraction of carbon dioxide	Vapor or sublimation pressure, kPa	uncertainty
0.874	10000	100
0.912	10100	100
0.949	9900	100
0.976	7000	100

System: [1R-(1R*,4E,9S*)]-4,11,11-trimethyl-8-methylene-bicyclo[7.2.0]-4-undecene + carbon dioxide + (E,E,E)-2,6,6,9-tetramethyl-1,4,8-cycloundecatriene; phases: Liquid, Gas
Fixed: Solvent: Mass ratio of component to other component of binary solvent of [1R-(1R*,4E,9S*)]-4,11,11-trimethyl-8-methylene-bicyclo[7.2.0]-4-undecene = 2.4
Property: Vapor or sublimation pressure, kPa (Liquid); method: Closed cell (Static) method
Temperature, K	Mole fraction of carbon dioxide	Vapor or sublimation pressure, kPa	uncertainty
313	0.874	12100	100
313	0.912	12200	100
313	0.949	11500	100
313	0.976	9600	100
323	0.874	14200	300
323	0.912	14300	100
323	0.949	13600	100
323	0.976	12500	100
333	0.874	16400	100
333	0.912	16600	100
333	0.949	16000	200
333	0.976	14700	100
343	0.874	18500	200
343	0.912	19000	100
343	0.949	18400	200
343	0.976	16600	200
