Measured thermophysical data. Solubility and phase behavior of binary systems containing salts based on transitional metals
Source: J. Chem. Thermodyn., 2013, 10.1016/j.jct.2013.03.014
Compound 1: tri(1-ethyl-3-methylimidazolium) gadolinium hexachloride, C18H33Cl6GdN6, InChI=1S/3C6H11N2.6ClH.Gd/c3*1-3-8-5-4-7(2)6-8;;;;;;;/h3*4-6H,3H2,1-2H3;6*1H;/q3*+1;;;;;;;+3/p-6
Compound 2: tri(1-butyl-3-methylimidazolium) gadolinium hexachloride, C24H45Cl6GdN6, InChI=1S/3C8H15N2.6ClH.Gd/c3*1-3-4-5-10-7-6-9(2)8-10;;;;;;;/h3*6-8H,3-5H2,1-2H3;6*1H;/q3*+1;;;;;;;+3/p-6
Compound 3: bis(tetramethylammonium) tetachloromanganate, C8H24Cl4MnN2, InChI=1S/2C4H12N.4ClH.Mn/c2*1-5(2,3)4;;;;;/h2*1-4H3;4*1H;/q2*+1;;;;;+2/p-4
Compound 4: cholinium tetrachloroferrate, C5H14Cl4FeNO, InChI=1S/C5H14NO.4ClH.Fe/c1-6(2,3)4-5-7;;;;;/h7H,4-5H2,1-3H3;4*1H;/q+1;;;;;+3/p-4
Compound 5: ethanol, C2H6O, InChI=1S/C2H6O/c1-2-3/h3H,2H2,1H3, purity 99%
Compound 6: propan-1-ol, C3H8O, InChI=1S/C3H8O/c1-2-3-4/h4H,2-3H2,1H3, purity 99%
Compound 7: butan-1-ol, C4H10O, InChI=1S/C4H10O/c1-2-3-4-5/h5H,2-4H2,1H3, purity 99%
Compound 8: water, H2O, InChI=1S/H2O/h1H2

System: tri(1-ethyl-3-methylimidazolium) gadolinium hexachloride; phases: Crystal, Liquid, Air at 1 atmosphere
Property: Molar enthalpy of transition or fusion, kJ/mol (Crystal); method: DSC
Molar enthalpy of transition or fusion, kJ/mol	uncertainty
77.5	1.9

System: tri(1-ethyl-3-methylimidazolium) gadolinium hexachloride; phases: Crystal, Liquid, Air at 1 atmosphere
Property: Normal melting temperature, K (Crystal); method: DTA
Normal melting temperature, K	uncertainty
434.3	0.7

System: tri(1-butyl-3-methylimidazolium) gadolinium hexachloride; phases: Crystal, Liquid, Air at 1 atmosphere
Property: Molar enthalpy of transition or fusion, kJ/mol (Crystal); method: DSC
Molar enthalpy of transition or fusion, kJ/mol	uncertainty
65.5	1.7

System: tri(1-butyl-3-methylimidazolium) gadolinium hexachloride; phases: Crystal, Liquid, Air at 1 atmosphere
Property: Normal melting temperature, K (Crystal); method: DTA
Normal melting temperature, K	uncertainty
401.8	0.7

System: cholinium tetrachloroferrate; phases: Crystal, Liquid, Air at 1 atmosphere
Property: Molar enthalpy of transition or fusion, kJ/mol (Crystal); method: DSC
Molar enthalpy of transition or fusion, kJ/mol	uncertainty
85.9	2

System: cholinium tetrachloroferrate; phases: Crystal, Liquid, Air at 1 atmosphere
Property: Normal melting temperature, K (Crystal); method: DTA
Normal melting temperature, K	uncertainty
557.7	0.7

System: water + tri(1-ethyl-3-methylimidazolium) gadolinium hexachloride; phases: Liquid, Crystal
Fixed: Pressure, kPa = 100
Property: Mole fraction of tri(1-ethyl-3-methylimidazolium) gadolinium hexachloride (Liquid); method: Visual Dynamic Method
Temperature, K	Mole fraction of tri(1-ethyl-3-methylimidazolium) gadolinium hexachloride	uncertainty
279.2	0.0027	0.0014
289.2	0.0034	0.0014
297.2	0.0046	0.0014
308.2	0.0059	0.0014
316.2	0.0077	0.0014
323.2	0.0112	0.0015
328.2	0.0153	0.0019
329.2	0.0175	0.0019

System: ethanol + tri(1-ethyl-3-methylimidazolium) gadolinium hexachloride; phases: Liquid, Crystal
Fixed: Pressure, kPa = 100
Property: Mole fraction of tri(1-ethyl-3-methylimidazolium) gadolinium hexachloride (Liquid); method: Visual Dynamic Method
Temperature, K	Mole fraction of tri(1-ethyl-3-methylimidazolium) gadolinium hexachloride	uncertainty
281.7	0.0036	0.0014
291.7	0.0045	0.0014
299.2	0.0054	0.0014
305.6	0.0073	0.0014
316.7	0.0119	0.0017
319.2	0.016	0.0016
324.1	0.0207	0.0019
326.7	0.0328	0.0031

System: propan-1-ol + tri(1-ethyl-3-methylimidazolium) gadolinium hexachloride; phases: Liquid, Crystal
Fixed: Pressure, kPa = 100
Property: Mole fraction of tri(1-ethyl-3-methylimidazolium) gadolinium hexachloride (Liquid); method: Visual Dynamic Method
Temperature, K	Mole fraction of tri(1-ethyl-3-methylimidazolium) gadolinium hexachloride	uncertainty
287.2	0.0006	0.0006
294.7	0.0016	0.0014
302.2	0.0025	0.0014
312.7	0.0035	0.0014
320.2	0.0043	0.0014
325.5	0.0052	0.0014
330.6	0.0062	0.0014
335.7	0.0072	0.0014
339.9	0.0085	0.0014
341.2	0.0092	0.0014

System: butan-1-ol + tri(1-ethyl-3-methylimidazolium) gadolinium hexachloride; phases: Liquid, Crystal
Fixed: Pressure, kPa = 100
Property: Mole fraction of tri(1-ethyl-3-methylimidazolium) gadolinium hexachloride (Liquid); method: Visual Dynamic Method
Temperature, K	Mole fraction of tri(1-ethyl-3-methylimidazolium) gadolinium hexachloride	uncertainty
333.2	0.0032	0.0015
328.2	0.0022	0.0014
321.2	0.0016	0.0014
306.2	0.0011	0.0011
292.2	0.0008	0.0008
278.2	0.0007	0.0007
332.1	0.0025	0.0014
332.9	0.0028	0.0014

System: ethanol + bis(tetramethylammonium) tetachloromanganate; phases: Liquid, Crystal
Fixed: Pressure, kPa = 100
Property: Mole fraction of bis(tetramethylammonium) tetachloromanganate (Liquid); method: Visual Dynamic Method
Temperature, K	Mole fraction of bis(tetramethylammonium) tetachloromanganate	uncertainty
270	0.0002	0.0002
283.2	0.0003	0.0003
330.2	0.0004	0.0004
345.2	0.0005	0.0005

System: propan-1-ol + bis(tetramethylammonium) tetachloromanganate; phases: Liquid, Crystal
Fixed: Pressure, kPa = 100
Property: Mole fraction of bis(tetramethylammonium) tetachloromanganate (Liquid); method: Visual Dynamic Method
Temperature, K	Mole fraction of bis(tetramethylammonium) tetachloromanganate	uncertainty
323.15	0.0001	0.0001
348.65	0.0002	0.0002

System: ethanol + cholinium tetrachloroferrate; phases: Liquid, Crystal
Fixed: Pressure, kPa = 100
Property: Mole fraction of cholinium tetrachloroferrate (Liquid); method: Visual Dynamic Method
Temperature, K	Mole fraction of cholinium tetrachloroferrate	uncertainty
276.8	0.0985	0.0024
280.4	0.1102	0.0022
286.7	0.1257	0.0021
289.7	0.1355	0.0028
291.7	0.1466	0.0029
294	0.1534	0.002
298	0.1621	0.0018
302.2	0.1692	0.0018
311.7	0.1854	0.0019
321.2	0.2103	0.0022

System: propan-1-ol + cholinium tetrachloroferrate; phases: Liquid, Crystal
Fixed: Pressure, kPa = 100
Property: Mole fraction of cholinium tetrachloroferrate (Liquid); method: Visual Dynamic Method
Temperature, K	Mole fraction of cholinium tetrachloroferrate	uncertainty
277.6	0.01	0.0015
283.7	0.0139	0.0015
287.8	0.0203	0.0016
292.7	0.0265	0.0018
294.4	0.0342	0.0025
298.2	0.0457	0.0027
300.3	0.0581	0.0044
301.4	0.0682	0.0047
303.3	0.0806	0.0038
306	0.095	0.0043
307.9	0.1122	0.0044
311	0.1305	0.0031
315.5	0.1478	0.0027
319.7	0.1644	0.003
323.7	0.1844	0.0029
330.2	0.2095	0.0027

System: butan-1-ol + cholinium tetrachloroferrate; phases: Liquid, Crystal
Fixed: Pressure, kPa = 100
Property: Mole fraction of cholinium tetrachloroferrate (Liquid); method: Visual Dynamic Method
Temperature, K	Mole fraction of cholinium tetrachloroferrate	uncertainty
290.7	0.0053	0.0014
299.2	0.0079	0.0014
305.7	0.0104	0.0014
313.2	0.0145	0.0015
317.7	0.0202	0.0017
321.6	0.0274	0.0021
324.4	0.0374	0.0022
329.2	0.0494	0.0023
333.2	0.065	0.0036
334.6	0.0813	0.0056
336.7	0.097	0.0039
339.7	0.1121	0.0037
342.1	0.128	0.0036
345.2	0.1426	0.0024
352.2	0.1611	0.0021
