Measured thermophysical data. (pressure,density, temperature) Properties for n-butane in the temperature range from 280 K to 380 K at pressures up to 200 MPa
Source: J. Chem. Thermodyn., 2007, 10.1016/j.jct.2006.09.003
Compound 1: butane, C4H10, InChI=1S/C4H10/c1-3-4-2/h3-4H2,1-2H3, purity 99.97%

System: butane; phases: Fluid (supercritical or subcritical phases)
Property: Mass density, kg/m3 (Fluid (supercritical or subcritical phases)); method: Bellows volumetry
Temperature, K	Pressure, kPa	Mass density, kg/m3	uncertainty
280	1000	595.47	1.07
280	2000	596.86	1.07
280	3000	598.22	1.08
280	5000	600.88	1.08
280	10000	607.05	1.09
280	20000	617.68	1.11
280	30000	626.91	1.13
280	40000	635.29	1.14
280	50000	642.77	1.16
280	60000	649.44	1.17
280	70000	655.79	1.18
280	80000	661.73	1.19
280	90000	667.23	1.2
280	100000	672.51	1.21
280	120000	682.08	1.78
280	140000	690.89	1.8
280	160000	698.82	1.83
280	180000	706.38	1.86
280	200000	713.34	1.88
300	1000	572.94	1.03
300	2000	574.58	1.03
300	3000	576.27	1.04
300	5000	579.56	1.04
300	10000	586.77	1.06
300	20000	599.44	1.08
300	30000	610.13	1.1
300	40000	619.89	1.12
300	50000	628.14	1.13
300	60000	635.82	1.15
300	70000	642.36	1.16
300	80000	648.71	1.17
300	90000	654.83	1.18
300	100000	660.41	1.19
300	120000	670.68	1.21
300	140000	680.05	1.23
300	160000	688.48	1.27
300	180000	696.25	1.28
300	200000	703.51	1.3
320	1000	548.24	0.99
320	2000	550.53	0.99
320	3000	552.73	0.99
320	5000	556.84	1
320	10000	566.09	1.02
320	20000	580.87	1.05
320	30000	593.19	1.07
320	40000	603.68	1.09
320	50000	612.97	1.1
320	60000	621.23	1.12
320	70000	628.85	1.14
320	80000	635.85	1.15
320	90000	642.47	1.16
320	100000	648.38	1.17
320	120000	659.38	1.19
320	140000	669.21	1.21
320	160000	678.31	1.25
320	180000	686.49	1.27
320	200000	694.12	1.29
340	1000	521.26	0.94
340	2000	524.21	0.94
340	3000	527.06	0.95
340	5000	532.46	0.96
340	10000	544.06	0.98
340	20000	561.99	1.01
340	30000	576.2	1.04
340	40000	588.27	1.06
340	50000	598.47	1.08
340	60000	607.64	1.1
340	70000	615.81	1.11
340	80000	623.32	1.13
340	90000	630.37	1.14
340	100000	636.58	1.15
340	120000	648.45	2.86
340	140000	658.64	2.9
340	160000	668.16	2.95
340	180000	676.9	2.99
340	200000	684.85	3.03
360	2000	494.28	0.89
360	3000	498.49	0.9
360	5000	505.91	0.91
360	10000	520.98	0.94
360	20000	542.91	0.98
360	30000	559.24	1.01
360	40000	572.58	1.03
360	50000	584.17	1.05
360	60000	593.9	1.07
360	70000	602.93	1.09
360	80000	610.9	1.11
360	90000	618.47	1.12
360	100000	625.39	1.13
360	120000	637.62	1.16
360	140000	648.76	1.18
360	160000	658.47	1.22
360	180000	667.68	1.24
360	200000	676.03	1.26
380	2000	456.63	0.82
380	3000	463.53	0.83
380	5000	474.94	0.86
380	10000	495.21	0.89
380	20000	522.42	0.94
380	30000	541.49	0.98
380	40000	556.53	1
380	50000	569.05	1.03
380	60000	580.01	1.05
380	70000	589.59	1.07
380	80000	598.34	1.09
380	90000	606.19	1.1
380	100000	613.44	1.11
380	120000	626.58	1.14
380	140000	638.25	1.16
380	160000	648.59	1.21
380	180000	658.14	1.23
380	200000	666.86	1.25
