Measured thermophysical data. Excess molar volumes and excess isentropic compressibilities of ternary mixtures containing ionic liquids and cyclic alkanone
Source: J. Chem. Thermodyn., 2017, 10.1016/j.jct.2017.04.013
Compound 1: 1-butyl-2,3-dimethylimidazolium tetrafluoroborate, C9H17BF4N2, InChI=1S/C9H17N2.BF4/c1-4-5-6-11-8-7-10(3)9(11)2;2-1(3,4)5/h7-8H,4-6H2,1-3H3;/q+1;-1, purity 99%
Compound 2: 1-butyl-3-methylimidazolium tetrafluoroborate, C8H15BF4N2, InChI=1S/C8H15N2.BF4/c1-3-4-5-10-7-6-9(2)8-10;2-1(3,4)5/h6-8H,3-5H2,1-2H3;/q+1;-1, purity 98.5%
Compound 3: 1-ethyl-3-methylimidazolium tetrafluoroborate, C6H11BF4N2, InChI=1S/C6H11N2.BF4/c1-3-8-5-4-7(2)6-8;2-1(3,4)5/h4-6H,3H2,1-2H3;/q+1;-1, purity 99%
Compound 4: cyclopentanone, C5H8O, InChI=1S/C5H8O/c6-5-3-1-2-4-5/h1-4H2, purity 99%
Compound 5: cyclohexanone, C6H10O, InChI=1S/C6H10O/c7-6-4-2-1-3-5-6/h1-5H2, purity 99%

System: cyclopentanone + 1-butyl-3-methylimidazolium tetrafluoroborate + 1-butyl-2,3-dimethylimidazolium tetrafluoroborate; phases: Liquid
Fixed: Pressure, kPa = 100
Property: Mass density, kg/m3 (Liquid); method: Vibrating tube method
Temperature, K	Mole fraction of 1-butyl-2,3-dimethylimidazolium tetrafluoroborate	Mole fraction of 1-butyl-3-methylimidazolium tetrafluoroborate	Mass density, kg/m3	uncertainty
293.15	0.1335	0.7462	1166.3	2.5
293.15	0.1543	0.7283	1164	2.5
293.15	0.1684	0.7119	1161.5	2.5
293.15	0.1826	0.6954	1159	2.5
293.15	0.2062	0.6681	1155	2.5
293.15	0.2182	0.6542	1153	2.5
293.15	0.2304	0.6401	1151.1	2.5
293.15	0.258	0.609	1147.2	2.5
293.15	0.2808	0.5809	1143.8	2.5
293.15	0.2987	0.561	1141.9	2.5
293.15	0.3215	0.5372	1140.2	2.5
293.15	0.3437	0.5133	1138.8	2.5
293.15	0.3605	0.4928	1137.4	2.5
293.15	0.382	0.4696	1136.7	2.5
293.15	0.4011	0.4484	1136.4	2.5
293.15	0.4223	0.4265	1136.6	2.5
293.15	0.4446	0.4032	1137.3	2.5
293.15	0.4679	0.3833	1139	2.5
293.15	0.4797	0.3718	1139.9	2.5
293.15	0.4917	0.3602	1140.8	2.4
293.15	0.5163	0.3383	1143.2	2.4
293.15	0.5307	0.3259	1144.8	2.4
293.15	0.5448	0.3137	1146.4	2.4
293.15	0.5686	0.2915	1149.2	2.4
293.15	0.5961	0.2669	1152.7	2.4
293.15	0.6179	0.2474	1155.7	2.4
293.15	0.6455	0.2228	1159.5	2.4
293.15	0.6791	0.1967	1164.4	2.4
293.15	0.7041	0.1745	1167.9	2.4
293.15	0.7241	0.1569	1170.6	2.4
293.15	0.7442	0.1398	1173.3	2.4
293.15	0.7657	0.122	1176.1	2.4
298.15	0.1335	0.7462	1161.8	2.5
298.15	0.1543	0.7283	1159.5	2.5
298.15	0.1684	0.7119	1156.9	2.5
298.15	0.1826	0.6954	1154.3	2.5
298.15	0.2062	0.6681	1150.2	2.5
298.15	0.2182	0.6542	1148.1	2.5
298.15	0.2304	0.6401	1146.2	2.5
298.15	0.258	0.609	1142.1	2.5
298.15	0.2808	0.5809	1138.5	2.5
298.15	0.2987	0.561	1136.6	2.5
298.15	0.3215	0.5372	1134.8	2.5
298.15	0.3437	0.5133	1133.4	2.5
298.15	0.3605	0.4928	1132	2.5
298.15	0.382	0.4696	1131.3	2.5
298.15	0.4011	0.4484	1131	2.5
298.15	0.4223	0.4265	1131.3	2.5
298.15	0.4446	0.4032	1132	2.4
298.15	0.4679	0.3833	1133.9	2.4
298.15	0.4797	0.3718	1134.8	2.4
298.15	0.4917	0.3602	1135.8	2.4
298.15	0.5163	0.3383	1138.4	2.4
298.15	0.5307	0.3259	1140.1	2.4
298.15	0.5448	0.3137	1141.9	2.4
298.15	0.5686	0.2915	1144.9	2.4
298.15	0.5961	0.2669	1148.6	2.4
298.15	0.6179	0.2474	1151.8	2.4
298.15	0.6455	0.2228	1155.9	2.4
298.15	0.6791	0.1967	1161.1	2.4
298.15	0.7041	0.1745	1164.9	2.4
298.15	0.7241	0.1569	1167.8	2.4
298.15	0.7442	0.1398	1170.7	2.4
298.15	0.7657	0.122	1173.7	2.4
303.15	0.1335	0.7462	1157.6	2.5
303.15	0.1543	0.7283	1155.1	2.5
303.15	0.1684	0.7119	1152.4	2.5
303.15	0.1826	0.6954	1149.7	2.5
303.15	0.2062	0.6681	1145.3	2.5
303.15	0.2182	0.6542	1143.1	2.5
303.15	0.2304	0.6401	1141	2.5
303.15	0.258	0.609	1136.8	2.5
303.15	0.2808	0.5809	1133	2.5
303.15	0.2987	0.561	1130.9	2.5
303.15	0.3215	0.5372	1129.1	2.5
303.15	0.3437	0.5133	1127.5	2.5
303.15	0.3605	0.4928	1126	2.5
303.15	0.382	0.4696	1125.4	2.5
303.15	0.4011	0.4484	1125	2.5
303.15	0.4223	0.4265	1125.3	2.4
303.15	0.4446	0.4032	1126.1	2.4
303.15	0.4679	0.3833	1128.2	2.4
303.15	0.4797	0.3718	1129.1	2.4
303.15	0.4917	0.3602	1130.2	2.4
303.15	0.5163	0.3383	1133	2.4
303.15	0.5307	0.3259	1134.8	2.4
303.15	0.5448	0.3137	1136.7	2.4
303.15	0.5686	0.2915	1139.9	2.4
303.15	0.5961	0.2669	1143.9	2.4
303.15	0.6179	0.2474	1147.3	2.4
303.15	0.6455	0.2228	1151.7	2.4
303.15	0.6791	0.1967	1157.4	2.4
303.15	0.7041	0.1745	1161.4	2.4
303.15	0.7241	0.1569	1164.6	2.4
303.15	0.7442	0.1398	1167.7	2.4
303.15	0.7657	0.122	1170.9	2.4
308.15	0.1335	0.7462	1153	2.5
308.15	0.1543	0.7283	1150.3	2.5
308.15	0.1684	0.7119	1147.4	2.5
308.15	0.1826	0.6954	1144.4	2.5
308.15	0.2062	0.6681	1139.8	2.5
308.15	0.2182	0.6542	1137.4	2.5
308.15	0.2304	0.6401	1135.2	2.5
308.15	0.258	0.609	1130.6	2.5
308.15	0.2808	0.5809	1126.5	2.5
308.15	0.2987	0.561	1124.3	2.5
308.15	0.3215	0.5372	1122.3	2.5
308.15	0.3437	0.5133	1120.6	2.5
308.15	0.3605	0.4928	1119.1	2.5
308.15	0.382	0.4696	1118.4	2.5
308.15	0.4011	0.4484	1118.1	2.4
308.15	0.4223	0.4265	1118.5	2.4
308.15	0.4446	0.4032	1119.4	2.4
308.15	0.4679	0.3833	1121.6	2.4
308.15	0.4797	0.3718	1122.7	2.4
308.15	0.4917	0.3602	1123.9	2.4
308.15	0.5163	0.3383	1127	2.4
308.15	0.5307	0.3259	1128.9	2.4
308.15	0.5448	0.3137	1131	2.4
308.15	0.5686	0.2915	1134.5	2.4
308.15	0.5961	0.2669	1139	2.4
308.15	0.6179	0.2474	1142.7	2.4
308.15	0.6455	0.2228	1147.5	2.4
308.15	0.6791	0.1967	1153.6	2.4
308.15	0.7041	0.1745	1158	2.4
308.15	0.7241	0.1569	1161.4	2.4
308.15	0.7442	0.1398	1164.8	2.4
308.15	0.7657	0.122	1168.3	2.4

System: cyclopentanone + 1-butyl-3-methylimidazolium tetrafluoroborate + 1-butyl-2,3-dimethylimidazolium tetrafluoroborate; phases: Liquid
Fixed: Pressure, kPa = 100
Fixed: Frequency, MHz = 3
Property: Speed of sound, m/s (Liquid); method: Single path-length method
Temperature, K	Mole fraction of 1-butyl-2,3-dimethylimidazolium tetrafluoroborate	Mole fraction of 1-butyl-3-methylimidazolium tetrafluoroborate	Speed of sound, m/s	uncertainty
293.15	0.1335	0.7462	1531.6	1.7
293.15	0.1543	0.7283	1527.2	1.6
293.15	0.1684	0.7119	1522.5	1.6
293.15	0.1826	0.6954	1518.2	1.6
293.15	0.2062	0.6681	1510.4	1.6
293.15	0.2182	0.6542	1506.7	1.6
293.15	0.2304	0.6401	1502.7	1.6
293.15	0.258	0.609	1495	1.6
293.15	0.2808	0.5809	1489.3	1.6
293.15	0.2987	0.561	1486	1.6
293.15	0.3215	0.5372	1483.3	1.6
293.15	0.3437	0.5133	1481.7	1.6
293.15	0.3605	0.4928	1481.5	1.5
293.15	0.382	0.4696	1482.5	1.5
293.15	0.4011	0.4484	1484.9	1.5
293.15	0.4223	0.4265	1488.3	1.5
293.15	0.4446	0.4032	1492.9	1.5
293.15	0.4679	0.3833	1497.8	1.5
293.15	0.4797	0.3718	1501.1	1.5
293.15	0.4917	0.3602	1504.9	1.5
293.15	0.5163	0.3383	1512.2	1.5
293.15	0.5307	0.3259	1516.5	1.5
293.15	0.5448	0.3137	1521.2	1.5
293.15	0.5686	0.2915	1530	1.5
293.15	0.5961	0.2669	1540.1	1.5
293.15	0.6179	0.2474	1548.2	1.5
293.15	0.6455	0.2228	1558	1.5
293.15	0.6791	0.1967	1568.4	1.4
293.15	0.7041	0.1745	1575.9	1.4
293.15	0.7241	0.1569	1581.1	1.4
293.15	0.7442	0.1398	1585.8	1.4
293.15	0.7657	0.122	1590.1	1.4
298.15	0.1335	0.7462	1519.9	1.7
298.15	0.1543	0.7283	1516.1	1.6
298.15	0.1684	0.7119	1512	1.6
298.15	0.1826	0.6954	1508.1	1.6
298.15	0.2062	0.6681	1500.9	1.6
298.15	0.2182	0.6542	1497.4	1.6
298.15	0.2304	0.6401	1493.9	1.6
298.15	0.258	0.609	1487.1	1.6
298.15	0.2808	0.5809	1481.9	1.6
298.15	0.2987	0.561	1478.8	1.6
298.15	0.3215	0.5372	1476.2	1.6
298.15	0.3437	0.5133	1475	1.6
298.15	0.3605	0.4928	1475	1.5
298.15	0.382	0.4696	1476	1.5
298.15	0.4011	0.4484	1477.8	1.5
298.15	0.4223	0.4265	1481.2	1.5
298.15	0.4446	0.4032	1485.7	1.5
298.15	0.4679	0.3833	1490.1	1.5
298.15	0.4797	0.3718	1493.4	1.5
298.15	0.4917	0.3602	1496.7	1.5
298.15	0.5163	0.3383	1503.4	1.5
298.15	0.5307	0.3259	1507.8	1.5
298.15	0.5448	0.3137	1511.9	1.5
298.15	0.5686	0.2915	1520.1	1.5
298.15	0.5961	0.2669	1529.4	1.5
298.15	0.6179	0.2474	1536.9	1.5
298.15	0.6455	0.2228	1545.9	1.5
298.15	0.6791	0.1967	1555.6	1.4
298.15	0.7041	0.1745	1562.5	1.4
298.15	0.7241	0.1569	1567.4	1.4
298.15	0.7442	0.1398	1571.7	1.4
298.15	0.7657	0.122	1575.7	1.4
303.15	0.1335	0.7462	1509.5	1.7
303.15	0.1543	0.7283	1506.2	1.6
303.15	0.1684	0.7119	1503.1	1.6
303.15	0.1826	0.6954	1499.4	1.6
303.15	0.2062	0.6681	1493.1	1.6
303.15	0.2182	0.6542	1490.1	1.6
303.15	0.2304	0.6401	1486.9	1.6
303.15	0.258	0.609	1480.9	1.6
303.15	0.2808	0.5809	1476.3	1.6
303.15	0.2987	0.561	1473.6	1.6
303.15	0.3215	0.5372	1471.3	1.6
303.15	0.3437	0.5133	1470.2	1.6
303.15	0.3605	0.4928	1470.4	1.5
303.15	0.382	0.4696	1471.4	1.5
303.15	0.4011	0.4484	1473.3	1.5
303.15	0.4223	0.4265	1476.2	1.5
303.15	0.4446	0.4032	1480.3	1.5
303.15	0.4679	0.3833	1484.4	1.5
303.15	0.4797	0.3718	1487.2	1.5
303.15	0.4917	0.3602	1490.4	1.5
303.15	0.5163	0.3383	1496.7	1.5
303.15	0.5307	0.3259	1500.6	1.5
303.15	0.5448	0.3137	1504.4	1.5
303.15	0.5686	0.2915	1511.9	1.5
303.15	0.5961	0.2669	1520.3	1.5
303.15	0.6179	0.2474	1527	1.5
303.15	0.6455	0.2228	1535.1	1.5
303.15	0.6791	0.1967	1543.9	1.4
303.15	0.7041	0.1745	1550.2	1.4
303.15	0.7241	0.1569	1554.6	1.4
303.15	0.7442	0.1398	1558.4	1.4
303.15	0.7657	0.122	1562.1	1.4
308.15	0.1335	0.7462	1499.8	1.7
308.15	0.1543	0.7283	1496.7	1.6
308.15	0.1684	0.7119	1493.6	1.6
308.15	0.1826	0.6954	1490.6	1.6
308.15	0.2062	0.6681	1485.1	1.6
308.15	0.2182	0.6542	1482.6	1.6
308.15	0.2304	0.6401	1479.9	1.6
308.15	0.258	0.609	1474.7	1.6
308.15	0.2808	0.5809	1470.7	1.6
308.15	0.2987	0.561	1468.3	1.6
308.15	0.3215	0.5372	1466.7	1.6
308.15	0.3437	0.5133	1465.9	1.6
308.15	0.3605	0.4928	1465.6	1.5
308.15	0.382	0.4696	1466.8	1.5
308.15	0.4011	0.4484	1468.3	1.5
308.15	0.4223	0.4265	1471	1.5
308.15	0.4446	0.4032	1474.7	1.5
308.15	0.4679	0.3833	1478.7	1.5
308.15	0.4797	0.3718	1481.4	1.5
308.15	0.4917	0.3602	1484	1.5
308.15	0.5163	0.3383	1489.9	1.5
308.15	0.5307	0.3259	1493.3	1.5
308.15	0.5448	0.3137	1496.8	1.5
308.15	0.5686	0.2915	1503.5	1.5
308.15	0.5961	0.2669	1511	1.5
308.15	0.6179	0.2474	1517	1.5
308.15	0.6455	0.2228	1524.4	1.5
308.15	0.6791	0.1967	1532.4	1.4
308.15	0.7041	0.1745	1537.9	1.4
308.15	0.7241	0.1569	1541.9	1.4
308.15	0.7442	0.1398	1545.4	1.4
308.15	0.7657	0.122	1548.7	1.4

System: cyclohexanone + 1-butyl-3-methylimidazolium tetrafluoroborate + 1-butyl-2,3-dimethylimidazolium tetrafluoroborate; phases: Liquid
Fixed: Pressure, kPa = 100
Property: Mass density, kg/m3 (Liquid); method: Vibrating tube method
Temperature, K	Mole fraction of 1-butyl-2,3-dimethylimidazolium tetrafluoroborate	Mole fraction of 1-butyl-3-methylimidazolium tetrafluoroborate	Mass density, kg/m3	uncertainty
293.15	0.1859	0.7077	1172.4	2.5
293.15	0.21	0.6803	1169.4	2.5
293.15	0.2223	0.6663	1167.9	2.5
293.15	0.2348	0.6521	1166.4	2.5
293.15	0.2576	0.6254	1163.7	2.5
293.15	0.2784	0.5993	1161.1	2.5
293.15	0.2996	0.5767	1159.5	2.5
293.15	0.3282	0.5483	1158	2.5
293.15	0.3461	0.5279	1157.1	2.5
293.15	0.3682	0.5034	1156.4	2.5
293.15	0.3799	0.4918	1156.3	2.5
293.15	0.3903	0.4798	1156.3	2.5
293.15	0.4099	0.4582	1156.4	2.5
293.15	0.4226	0.4451	1156.7	2.5
293.15	0.4317	0.4359	1157.1	2.5
293.15	0.4545	0.4121	1158.2	2.5
293.15	0.478	0.3917	1159.8	2.5
293.15	0.4901	0.3799	1160.7	2.5
293.15	0.5024	0.368	1161.7	2.5
293.15	0.5273	0.3454	1163.9	2.5
293.15	0.5418	0.3327	1165.3	2.5
293.15	0.5561	0.3202	1166.7	2.5
293.15	0.5802	0.2975	1169.2	2.5
293.15	0.608	0.2722	1172.1	2.5
293.15	0.63	0.2522	1174.4	2.5
293.15	0.6579	0.2271	1177.2	2.5
293.15	0.6813	0.2068	1179.4	2.5
293.15	0.6949	0.1946	1180.6	2.5
293.15	0.7165	0.1776	1182.5	2.5
293.15	0.7366	0.1596	1184.1	2.5
293.15	0.7567	0.1422	1185.5	2.5
293.15	0.775	0.1235	1186.7	2.5
298.15	0.1859	0.7077	1168.9	2.5
298.15	0.21	0.6803	1165.9	2.5
298.15	0.2223	0.6663	1164.3	2.5
298.15	0.2348	0.6521	1162.8	2.5
298.15	0.2576	0.6254	1160	2.5
298.15	0.2784	0.5993	1157.4	2.5
298.15	0.2996	0.5767	1155.7	2.5
298.15	0.3282	0.5483	1154.2	2.5
298.15	0.3461	0.5279	1153.3	2.5
298.15	0.3682	0.5034	1152.7	2.5
298.15	0.3799	0.4918	1152.6	2.5
298.15	0.3903	0.4798	1152.5	2.5
298.15	0.4099	0.4582	1152.8	2.5
298.15	0.4226	0.4451	1153.1	2.5
298.15	0.4317	0.4359	1153.5	2.5
298.15	0.4545	0.4121	1154.7	2.5
298.15	0.478	0.3917	1156.4	2.5
298.15	0.4901	0.3799	1157.4	2.5
298.15	0.5024	0.368	1158.5	2.5
298.15	0.5273	0.3454	1160.8	2.5
298.15	0.5418	0.3327	1162.3	2.5
298.15	0.5561	0.3202	1163.8	2.5
298.15	0.5802	0.2975	1166.5	2.5
298.15	0.608	0.2722	1169.6	2.5
298.15	0.63	0.2522	1172.1	2.5
298.15	0.6579	0.2271	1175.1	2.5
298.15	0.6813	0.2068	1177.5	2.5
298.15	0.6949	0.1946	1178.8	2.5
298.15	0.7165	0.1776	1180.8	2.5
298.15	0.7366	0.1596	1182.5	2.5
298.15	0.7567	0.1422	1184	2.5
298.15	0.775	0.1235	1185.3	2.5
303.15	0.1859	0.7077	1165.6	2.5
303.15	0.21	0.6803	1162.3	2.5
303.15	0.2223	0.6663	1160.7	2.5
303.15	0.2348	0.6521	1159.1	2.5
303.15	0.2576	0.6254	1156.2	2.5
303.15	0.2784	0.5993	1153.6	2.5
303.15	0.2996	0.5767	1151.8	2.5
303.15	0.3282	0.5483	1150.1	2.5
303.15	0.3461	0.5279	1149.2	2.5
303.15	0.3682	0.5034	1148.5	2.5
303.15	0.3799	0.4918	1148.5	2.5
303.15	0.3903	0.4798	1148.4	2.5
303.15	0.4099	0.4582	1148.7	2.5
303.15	0.4226	0.4451	1149.1	2.5
303.15	0.4317	0.4359	1149.5	2.5
303.15	0.4545	0.4121	1150.9	2.5
303.15	0.478	0.3917	1152.6	2.5
303.15	0.4901	0.3799	1153.7	2.5
303.15	0.5024	0.368	1154.9	2.5
303.15	0.5273	0.3454	1157.4	2.5
303.15	0.5418	0.3327	1158.9	2.5
303.15	0.5561	0.3202	1160.6	2.5
303.15	0.5802	0.2975	1163.4	2.5
303.15	0.608	0.2722	1166.7	2.5
303.15	0.63	0.2522	1169.4	2.5
303.15	0.6579	0.2271	1172.6	2.5
303.15	0.6813	0.2068	1175.1	2.5
303.15	0.6949	0.1946	1176.5	2.5
303.15	0.7165	0.1776	1178.6	2.5
303.15	0.7366	0.1596	1180.4	2.5
303.15	0.7567	0.1422	1182	2.5
303.15	0.775	0.1235	1183.3	2.5
308.15	0.1859	0.7077	1162	2.5
308.15	0.21	0.6803	1158.5	2.5
308.15	0.2223	0.6663	1156.8	2.5
308.15	0.2348	0.6521	1155.2	2.5
308.15	0.2576	0.6254	1152.1	2.5
308.15	0.2784	0.5993	1149.3	2.5
308.15	0.2996	0.5767	1147.4	2.5
308.15	0.3282	0.5483	1145.7	2.5
308.15	0.3461	0.5279	1144.8	2.5
308.15	0.3682	0.5034	1144	2.5
308.15	0.3799	0.4918	1144	2.5
308.15	0.3903	0.4798	1144	2.5
308.15	0.4099	0.4582	1144.3	2.5
308.15	0.4226	0.4451	1144.8	2.5
308.15	0.4317	0.4359	1145.2	2.5
308.15	0.4545	0.4121	1146.7	2.5
308.15	0.478	0.3917	1148.6	2.5
308.15	0.4901	0.3799	1149.8	2.5
308.15	0.5024	0.368	1151	2.5
308.15	0.5273	0.3454	1153.8	2.5
308.15	0.5418	0.3327	1155.5	2.5
308.15	0.5561	0.3202	1157.2	2.5
308.15	0.5802	0.2975	1160.3	2.5
308.15	0.608	0.2722	1163.9	2.5
308.15	0.63	0.2522	1166.8	2.5
308.15	0.6579	0.2271	1170.2	2.5
308.15	0.6813	0.2068	1173	2.5
308.15	0.6949	0.1946	1174.5	2.5
308.15	0.7165	0.1776	1176.7	2.5
308.15	0.7366	0.1596	1178.7	2.5
308.15	0.7567	0.1422	1180.4	2.5
308.15	0.775	0.1235	1181.9	2.5

System: cyclohexanone + 1-butyl-3-methylimidazolium tetrafluoroborate + 1-butyl-2,3-dimethylimidazolium tetrafluoroborate; phases: Liquid
Fixed: Pressure, kPa = 100
Fixed: Frequency, MHz = 3
Property: Speed of sound, m/s (Liquid); method: Single path-length method
Temperature, K	Mole fraction of 1-butyl-2,3-dimethylimidazolium tetrafluoroborate	Mole fraction of 1-butyl-3-methylimidazolium tetrafluoroborate	Speed of sound, m/s	uncertainty
293.15	0.1859	0.7077	1507.7	1.7
293.15	0.21	0.6803	1496.8	1.6
293.15	0.2223	0.6663	1491.5	1.6
293.15	0.2348	0.6521	1485.9	1.6
293.15	0.2576	0.6254	1476.4	1.6
293.15	0.2784	0.5993	1468.2	1.6
293.15	0.2996	0.5767	1462.3	1.6
293.15	0.3282	0.5483	1456.8	1.6
293.15	0.3461	0.5279	1454	1.6
293.15	0.3682	0.5034	1452	1.6
293.15	0.3799	0.4918	1451.8	1.6
293.15	0.3903	0.4798	1452	1.6
293.15	0.4099	0.4582	1453.6	1.6
293.15	0.4226	0.4451	1455.3	1.6
293.15	0.4317	0.4359	1457.2	1.5
293.15	0.4545	0.4121	1462.3	1.5
293.15	0.478	0.3917	1467.9	1.5
293.15	0.4901	0.3799	1471.8	1.5
293.15	0.5024	0.368	1476.1	1.5
293.15	0.5273	0.3454	1485.4	1.5
293.15	0.5418	0.3327	1491.2	1.5
293.15	0.5561	0.3202	1497.5	1.5
293.15	0.5802	0.2975	1508.9	1.5
293.15	0.608	0.2722	1522.3	1.5
293.15	0.63	0.2522	1533.3	1.5
293.15	0.6579	0.2271	1547.1	1.5
293.15	0.6813	0.2068	1558.1	1.5
293.15	0.6949	0.1946	1564.5	1.5
293.15	0.7165	0.1776	1573.2	1.5
293.15	0.7366	0.1596	1581.3	1.5
293.15	0.7567	0.1422	1588.6	1.4
293.15	0.775	0.1235	1594.6	1.4
298.15	0.1859	0.7077	1498.3	1.7
298.15	0.21	0.6803	1488.1	1.6
298.15	0.2223	0.6663	1483.2	1.6
298.15	0.2348	0.6521	1478.1	1.6
298.15	0.2576	0.6254	1469.4	1.6
298.15	0.2784	0.5993	1461.8	1.6
298.15	0.2996	0.5767	1456.1	1.6
298.15	0.3282	0.5483	1450.9	1.6
298.15	0.3461	0.5279	1448.3	1.6
298.15	0.3682	0.5034	1446.6	1.6
298.15	0.3799	0.4918	1446.8	1.6
298.15	0.3903	0.4798	1447	1.6
298.15	0.4099	0.4582	1448.1	1.6
298.15	0.4226	0.4451	1450.1	1.6
298.15	0.4317	0.4359	1451.2	1.5
298.15	0.4545	0.4121	1456	1.5
298.15	0.478	0.3917	1461.8	1.5
298.15	0.4901	0.3799	1465.3	1.5
298.15	0.5024	0.368	1469.3	1.5
298.15	0.5273	0.3454	1478	1.5
298.15	0.5418	0.3327	1483.7	1.5
298.15	0.5561	0.3202	1489.2	1.5
298.15	0.5802	0.2975	1499.9	1.5
298.15	0.608	0.2722	1512.6	1.5
298.15	0.63	0.2522	1523	1.5
298.15	0.6579	0.2271	1535.9	1.5
298.15	0.6813	0.2068	1546.3	1.5
298.15	0.6949	0.1946	1552.1	1.5
298.15	0.7165	0.1776	1560.5	1.5
298.15	0.7366	0.1596	1568.2	1.5
298.15	0.7567	0.1422	1575.1	1.4
298.15	0.775	0.1235	1580.7	1.4
303.15	0.1859	0.7077	1488.8	1.7
303.15	0.21	0.6803	1479.4	1.6
303.15	0.2223	0.6663	1474.7	1.6
303.15	0.2348	0.6521	1470.1	1.6
303.15	0.2576	0.6254	1461.8	1.6
303.15	0.2784	0.5993	1454.9	1.6
303.15	0.2996	0.5767	1449.8	1.6
303.15	0.3282	0.5483	1444.8	1.6
303.15	0.3461	0.5279	1442.4	1.6
303.15	0.3682	0.5034	1440.9	1.6
303.15	0.3799	0.4918	1441.1	1.6
303.15	0.3903	0.4798	1441.2	1.6
303.15	0.4099	0.4582	1442.3	1.6
303.15	0.4226	0.4451	1443.8	1.6
303.15	0.4317	0.4359	1445.1	1.5
303.15	0.4545	0.4121	1449.5	1.5
303.15	0.478	0.3917	1455.2	1.5
303.15	0.4901	0.3799	1458.3	1.5
303.15	0.5024	0.368	1462.1	1.5
303.15	0.5273	0.3454	1470.3	1.5
303.15	0.5418	0.3327	1475.7	1.5
303.15	0.5561	0.3202	1480.9	1.5
303.15	0.5802	0.2975	1490.9	1.5
303.15	0.608	0.2722	1502.8	1.5
303.15	0.63	0.2522	1512.7	1.5
303.15	0.6579	0.2271	1524.7	1.5
303.15	0.6813	0.2068	1534.4	1.5
303.15	0.6949	0.1946	1540.1	1.5
303.15	0.7165	0.1776	1548.1	1.5
303.15	0.7366	0.1596	1555.3	1.5
303.15	0.7567	0.1422	1561.9	1.4
303.15	0.775	0.1235	1567.1	1.4
308.15	0.1859	0.7077	1479.2	1.7
308.15	0.21	0.6803	1470.7	1.6
308.15	0.2223	0.6663	1466.7	1.6
308.15	0.2348	0.6521	1462.4	1.6
308.15	0.2576	0.6254	1454.7	1.6
308.15	0.2784	0.5993	1448	1.6
308.15	0.2996	0.5767	1443.4	1.6
308.15	0.3282	0.5483	1439.5	1.6
308.15	0.3461	0.5279	1436.9	1.6
308.15	0.3682	0.5034	1435.5	1.6
308.15	0.3799	0.4918	1435.8	1.6
308.15	0.3903	0.4798	1435.9	1.6
308.15	0.4099	0.4582	1437.1	1.6
308.15	0.4226	0.4451	1438.3	1.6
308.15	0.4317	0.4359	1439.5	1.5
308.15	0.4545	0.4121	1443.6	1.5
308.15	0.478	0.3917	1448.7	1.5
308.15	0.4901	0.3799	1452.1	1.5
308.15	0.5024	0.368	1455.4	1.5
308.15	0.5273	0.3454	1463	1.5
308.15	0.5418	0.3327	1468.1	1.5
308.15	0.5561	0.3202	1473.1	1.5
308.15	0.5802	0.2975	1482.3	1.5
308.15	0.608	0.2722	1493.3	1.5
308.15	0.63	0.2522	1502.3	1.5
308.15	0.6579	0.2271	1513.7	1.5
308.15	0.6813	0.2068	1522.7	1.5
308.15	0.6949	0.1946	1527.9	1.5
308.15	0.7165	0.1776	1535.5	1.5
308.15	0.7366	0.1596	1542.4	1.5
308.15	0.7567	0.1422	1548.6	1.4
308.15	0.775	0.1235	1553.5	1.4

System: cyclopentanone + 1-ethyl-3-methylimidazolium tetrafluoroborate + 1-butyl-2,3-dimethylimidazolium tetrafluoroborate; phases: Liquid
Fixed: Pressure, kPa = 100
Property: Mass density, kg/m3 (Liquid); method: Vibrating tube method
Temperature, K	Mole fraction of 1-butyl-2,3-dimethylimidazolium tetrafluoroborate	Mole fraction of 1-ethyl-3-methylimidazolium tetrafluoroborate	Mass density, kg/m3	uncertainty
293.15	0.1206	0.7707	1255.5	2.5
293.15	0.1397	0.754	1251.1	2.5
293.15	0.1528	0.7386	1248.2	2.5
293.15	0.1661	0.723	1245.4	2.5
293.15	0.1882	0.6971	1241	2.5
293.15	0.1995	0.6838	1238.9	2.5
293.15	0.2111	0.6703	1236.8	2.5
293.15	0.2373	0.6404	1232.4	2.5
293.15	0.2592	0.6131	1228.9	2.5
293.15	0.2765	0.5936	1226.4	2.5
293.15	0.2986	0.5703	1223.7	2.4
293.15	0.3201	0.5466	1221.1	2.4
293.15	0.3367	0.5263	1219.3	2.4
293.15	0.3579	0.503	1217.2	2.4
293.15	0.3768	0.4817	1215.4	2.4
293.15	0.398	0.4595	1213.7	2.4
293.15	0.4203	0.4358	1212	2.4
293.15	0.4435	0.4154	1211	2.4
293.15	0.4555	0.4036	1210.3	2.4
293.15	0.4676	0.3916	1209.7	2.4
293.15	0.4924	0.3689	1208.8	2.4
293.15	0.5071	0.3559	1208.3	2.4
293.15	0.5214	0.3432	1207.9	2.4
293.15	0.5458	0.3199	1207.1	2.4
293.15	0.5741	0.2939	1206.3	2.4
293.15	0.5967	0.2731	1205.7	2.4
293.15	0.6255	0.2468	1204.9	2.4
293.15	0.6605	0.2187	1204.2	2.4
293.15	0.6869	0.1946	1203.3	2.4
293.15	0.7082	0.1754	1202.5	2.4
293.15	0.7296	0.1567	1201.7	2.4
293.15	0.7525	0.1371	1200.7	2.4
298.15	0.1206	0.7707	1253.1	2.5
298.15	0.1397	0.754	1248.5	2.5
298.15	0.1528	0.7386	1245.5	2.5
298.15	0.1661	0.723	1242.6	2.5
298.15	0.1882	0.6971	1238.2	2.5
298.15	0.1995	0.6838	1236	2.5
298.15	0.2111	0.6703	1233.9	2.5
298.15	0.2373	0.6404	1229.5	2.5
298.15	0.2592	0.6131	1226	2.5
298.15	0.2765	0.5936	1223.7	2.4
298.15	0.2986	0.5703	1220.9	2.4
298.15	0.3201	0.5466	1218.4	2.4
298.15	0.3367	0.5263	1216.5	2.4
298.15	0.3579	0.503	1214.6	2.4
298.15	0.3768	0.4817	1212.9	2.4
298.15	0.398	0.4595	1211.3	2.4
298.15	0.4203	0.4358	1209.7	2.4
298.15	0.4435	0.4154	1208.7	2.4
298.15	0.4555	0.4036	1208.2	2.4
298.15	0.4676	0.3916	1207.6	2.4
298.15	0.4924	0.3689	1206.8	2.4
298.15	0.5071	0.3559	1206.4	2.4
298.15	0.5214	0.3432	1206	2.4
298.15	0.5458	0.3199	1205.4	2.4
298.15	0.5741	0.2939	1204.7	2.4
298.15	0.5967	0.2731	1204.2	2.4
298.15	0.6255	0.2468	1203.6	2.4
298.15	0.6605	0.2187	1202.8	2.4
298.15	0.6869	0.1946	1201.9	2.4
298.15	0.7082	0.1754	1201.4	2.4
298.15	0.7296	0.1567	1200.4	2.4
298.15	0.7525	0.1371	1199.4	2.4
303.15	0.1206	0.7707	1250.8	2.5
303.15	0.1397	0.754	1245.9	2.5
303.15	0.1528	0.7386	1242.9	2.5
303.15	0.1661	0.723	1240	2.5
303.15	0.1882	0.6971	1235.5	2.5
303.15	0.1995	0.6838	1233.3	2.5
303.15	0.2111	0.6703	1231.2	2.5
303.15	0.2373	0.6404	1226.8	2.5
303.15	0.2592	0.6131	1223.5	2.4
303.15	0.2765	0.5936	1221.1	2.4
303.15	0.2986	0.5703	1218.3	2.4
303.15	0.3201	0.5466	1215.9	2.4
303.15	0.3367	0.5263	1214.1	2.4
303.15	0.3579	0.503	1212.2	2.4
303.15	0.3768	0.4817	1210.6	2.4
303.15	0.398	0.4595	1209.1	2.4
303.15	0.4203	0.4358	1207.6	2.4
303.15	0.4435	0.4154	1206.7	2.4
303.15	0.4555	0.4036	1206.2	2.4
303.15	0.4676	0.3916	1205.7	2.4
303.15	0.4924	0.3689	1204.9	2.4
303.15	0.5071	0.3559	1204.6	2.4
303.15	0.5214	0.3432	1204.3	2.4
303.15	0.5458	0.3199	1203.7	2.4
303.15	0.5741	0.2939	1202.9	2.4
303.15	0.5967	0.2731	1202.4	2.4
303.15	0.6255	0.2468	1202	2.4
303.15	0.6605	0.2187	1201.3	2.4
303.15	0.6869	0.1946	1200.5	2.4
303.15	0.7082	0.1754	1200.2	2.4
303.15	0.7296	0.1567	1199.4	2.4
303.15	0.7525	0.1371	1198.5	2.4
308.15	0.1206	0.7707	1248.3	2.5
308.15	0.1397	0.754	1243.2	2.5
308.15	0.1528	0.7386	1240.2	2.5
308.15	0.1661	0.723	1237.2	2.5
308.15	0.1882	0.6971	1232.7	2.5
308.15	0.1995	0.6838	1230.5	2.5
308.15	0.2111	0.6703	1228.4	2.5
308.15	0.2373	0.6404	1224	2.5
308.15	0.2592	0.6131	1220.7	2.4
308.15	0.2765	0.5936	1218.4	2.4
308.15	0.2986	0.5703	1215.6	2.4
308.15	0.3201	0.5466	1213.3	2.4
308.15	0.3367	0.5263	1211.7	2.4
308.15	0.3579	0.503	1209.9	2.4
308.15	0.3768	0.4817	1208.2	2.4
308.15	0.398	0.4595	1206.8	2.4
308.15	0.4203	0.4358	1205.4	2.4
308.15	0.4435	0.4154	1204.5	2.4
308.15	0.4555	0.4036	1204.1	2.4
308.15	0.4676	0.3916	1203.6	2.4
308.15	0.4924	0.3689	1203	2.4
308.15	0.5071	0.3559	1202.7	2.4
308.15	0.5214	0.3432	1202.5	2.4
308.15	0.5458	0.3199	1201.7	2.4
308.15	0.5741	0.2939	1201.2	2.4
308.15	0.5967	0.2731	1201	2.4
308.15	0.6255	0.2468	1200.7	2.4
308.15	0.6605	0.2187	1200.4	2.4
308.15	0.6869	0.1946	1199.9	2.4
308.15	0.7082	0.1754	1198.9	2.4
308.15	0.7296	0.1567	1198.2	2.4
308.15	0.7525	0.1371	1197.2	2.4

System: cyclopentanone + 1-ethyl-3-methylimidazolium tetrafluoroborate + 1-butyl-2,3-dimethylimidazolium tetrafluoroborate; phases: Liquid
Fixed: Pressure, kPa = 100
Fixed: Frequency, MHz = 3
Property: Speed of sound, m/s (Liquid); method: Single path-length method
Temperature, K	Mole fraction of 1-butyl-2,3-dimethylimidazolium tetrafluoroborate	Mole fraction of 1-ethyl-3-methylimidazolium tetrafluoroborate	Speed of sound, m/s	uncertainty
293.15	0.1206	0.7707	1644	1.4
293.15	0.1397	0.754	1648.1	1.4
293.15	0.1528	0.7386	1650.5	1.4
293.15	0.1661	0.723	1652.6	1.4
293.15	0.1882	0.6971	1656.4	1.4
293.15	0.1995	0.6838	1658.4	1.4
293.15	0.2111	0.6703	1660.1	1.4
293.15	0.2373	0.6404	1663.9	1.4
293.15	0.2592	0.6131	1666.1	1.4
293.15	0.2765	0.5936	1667.6	1.4
293.15	0.2986	0.5703	1669.1	1.4
293.15	0.3201	0.5466	1669.5	1.4
293.15	0.3367	0.5263	1668.2	1.4
293.15	0.3579	0.503	1666.8	1.4
293.15	0.3768	0.4817	1664.3	1.4
293.15	0.398	0.4595	1661.5	1.4
293.15	0.4203	0.4358	1657.6	1.4
293.15	0.4435	0.4154	1655.3	1.4
293.15	0.4555	0.4036	1652.9	1.4
293.15	0.4676	0.3916	1650.2	1.4
293.15	0.4924	0.3689	1645.5	1.4
293.15	0.5071	0.3559	1642.8	1.4
293.15	0.5214	0.3432	1640.1	1.4
293.15	0.5458	0.3199	1634.1	1.4
293.15	0.5741	0.2939	1627.6	1.4
293.15	0.5967	0.2731	1622.2	1.4
293.15	0.6255	0.2468	1616.1	1.4
293.15	0.6605	0.2187	1610	1.4
293.15	0.6869	0.1946	1606.4	1.4
293.15	0.7082	0.1754	1603.4	1.4
293.15	0.7296	0.1567	1600.3	1.4
293.15	0.7525	0.1371	1597.8	1.4
298.15	0.1206	0.7707	1628.4	1.4
298.15	0.1397	0.754	1632.5	1.4
298.15	0.1528	0.7386	1634.6	1.4
298.15	0.1661	0.723	1636.6	1.4
298.15	0.1882	0.6971	1640.1	1.4
298.15	0.1995	0.6838	1641.8	1.4
298.15	0.2111	0.6703	1643.4	1.4
298.15	0.2373	0.6404	1646.5	1.4
298.15	0.2592	0.6131	1648	1.4
298.15	0.2765	0.5936	1649.1	1.4
298.15	0.2986	0.5703	1650.6	1.4
298.15	0.3201	0.5466	1651.1	1.4
298.15	0.3367	0.5263	1649.6	1.4
298.15	0.3579	0.503	1647.8	1.4
298.15	0.3768	0.4817	1645.5	1.4
298.15	0.398	0.4595	1642.6	1.4
298.15	0.4203	0.4358	1638.9	1.4
298.15	0.4435	0.4154	1636.6	1.4
298.15	0.4555	0.4036	1634.4	1.4
298.15	0.4676	0.3916	1631.7	1.4
298.15	0.4924	0.3689	1627.6	1.4
298.15	0.5071	0.3559	1625	1.4
298.15	0.5214	0.3432	1622.5	1.4
298.15	0.5458	0.3199	1616.9	1.4
298.15	0.5741	0.2939	1610.8	1.4
298.15	0.5967	0.2731	1605.9	1.4
298.15	0.6255	0.2468	1600.1	1.4
298.15	0.6605	0.2187	1594.5	1.4
298.15	0.6869	0.1946	1591.3	1.4
298.15	0.7082	0.1754	1588.3	1.4
298.15	0.7296	0.1567	1585.5	1.4
298.15	0.7525	0.1371	1582.1	1.4
303.15	0.1206	0.7707	1613.5	1.4
303.15	0.1397	0.754	1617.6	1.4
303.15	0.1528	0.7386	1619.6	1.4
303.15	0.1661	0.723	1621.3	1.4
303.15	0.1882	0.6971	1624.6	1.4
303.15	0.1995	0.6838	1626	1.4
303.15	0.2111	0.6703	1627.4	1.4
303.15	0.2373	0.6404	1630	1.4
303.15	0.2592	0.6131	1631.1	1.4
303.15	0.2765	0.5936	1632.3	1.4
303.15	0.2986	0.5703	1633.1	1.4
303.15	0.3201	0.5466	1633.3	1.4
303.15	0.3367	0.5263	1631.4	1.4
303.15	0.3579	0.503	1629.8	1.4
303.15	0.3768	0.4817	1627.5	1.4
303.15	0.398	0.4595	1624.6	1.4
303.15	0.4203	0.4358	1621	1.4
303.15	0.4435	0.4154	1618.6	1.4
303.15	0.4555	0.4036	1616.7	1.4
303.15	0.4676	0.3916	1614.2	1.4
303.15	0.4924	0.3689	1610.2	1.4
303.15	0.5071	0.3559	1608.1	1.4
303.15	0.5214	0.3432	1605.7	1.4
303.15	0.5458	0.3199	1600.2	1.4
303.15	0.5741	0.2939	1594.7	1.4
303.15	0.5967	0.2731	1590.4	1.4
303.15	0.6255	0.2468	1584.8	1.4
303.15	0.6605	0.2187	1579.6	1.4
303.15	0.6869	0.1946	1576.5	1.4
303.15	0.7082	0.1754	1573.6	1.4
303.15	0.7296	0.1567	1570.7	1.4
303.15	0.7525	0.1371	1567.5	1.4
308.15	0.1206	0.7707	1597.9	1.4
308.15	0.1397	0.754	1601.6	1.4
308.15	0.1528	0.7386	1603.5	1.4
308.15	0.1661	0.723	1605.1	1.4
308.15	0.1882	0.6971	1607.9	1.4
308.15	0.1995	0.6838	1608.9	1.4
308.15	0.2111	0.6703	1610.1	1.4
308.15	0.2373	0.6404	1612.4	1.4
308.15	0.2592	0.6131	1613.3	1.4
308.15	0.2765	0.5936	1613.7	1.4
308.15	0.2986	0.5703	1614.4	1.4
308.15	0.3201	0.5466	1614.4	1.4
308.15	0.3367	0.5263	1612.6	1.4
308.15	0.3579	0.503	1610.8	1.4
308.15	0.3768	0.4817	1608.2	1.4
308.15	0.398	0.4595	1605.6	1.4
308.15	0.4203	0.4358	1602.2	1.4
308.15	0.4435	0.4154	1600	1.4
308.15	0.4555	0.4036	1598.1	1.4
308.15	0.4676	0.3916	1596.1	1.4
308.15	0.4924	0.3689	1592.2	1.4
308.15	0.5071	0.3559	1590.4	1.4
308.15	0.5214	0.3432	1588.1	1.4
308.15	0.5458	0.3199	1583.5	1.4
308.15	0.5741	0.2939	1578.4	1.4
308.15	0.5967	0.2731	1574.1	1.4
308.15	0.6255	0.2468	1569.1	1.4
308.15	0.6605	0.2187	1564.3	1.4
308.15	0.6869	0.1946	1561.5	1.4
308.15	0.7082	0.1754	1558.3	1.4
308.15	0.7296	0.1567	1555.5	1.4
308.15	0.7525	0.1371	1552.6	1.4

System: cyclohexanone + 1-ethyl-3-methylimidazolium tetrafluoroborate + 1-butyl-2,3-dimethylimidazolium tetrafluoroborate; phases: Liquid
Fixed: Pressure, kPa = 100
Property: Mass density, kg/m3 (Liquid); method: Vibrating tube method
Temperature, K	Mole fraction of 1-butyl-2,3-dimethylimidazolium tetrafluoroborate	Mole fraction of 1-ethyl-3-methylimidazolium tetrafluoroborate	Mass density, kg/m3	uncertainty
293.15	0.1215	0.7767	1253.4	2.5
293.15	0.1397	0.754	1251	2.5
293.15	0.1531	0.7399	1249.6	2.5
293.15	0.1654	0.7201	1248.2	2.5
293.15	0.1892	0.701	1245.6	2.5
293.15	0.2029	0.6954	1244.4	2.5
293.15	0.2147	0.6819	1243	2.5
293.15	0.2416	0.6518	1240.6	2.5
293.15	0.264	0.6245	1238.3	2.5
293.15	0.2817	0.6049	1236.4	2.5
293.15	0.3043	0.5812	1234.3	2.5
293.15	0.3263	0.5572	1232.3	2.5
293.15	0.3435	0.5368	1230.6	2.5
293.15	0.3652	0.5132	1228.8	2.5
293.15	0.3846	0.4916	1227.2	2.5
293.15	0.4063	0.4691	1225.6	2.5
293.15	0.4291	0.4449	1224.1	2.5
293.15	0.4526	0.424	1222.9	2.5
293.15	0.4648	0.4119	1222.2	2.5
293.15	0.4772	0.3996	1221.5	2.5
293.15	0.5024	0.3763	1220.3	2.5
293.15	0.5172	0.363	1219.7	2.5
293.15	0.5317	0.35	1219	2.5
293.15	0.5565	0.3262	1217.8	2.5
293.15	0.5852	0.2996	1216.4	2.5
293.15	0.608	0.2783	1215.3	2.5
293.15	0.6371	0.2514	1213.9	2.5
293.15	0.6721	0.2226	1212.2	2.5
293.15	0.6988	0.198	1210.7	2.5
293.15	0.7202	0.1784	1209.3	2.5
293.15	0.7375	0.1584	1207.8	2.5
293.15	0.7605	0.1385	1206.3	2.4
298.15	0.1215	0.7767	1249.4	2.5
298.15	0.1397	0.754	1247	2.5
298.15	0.1531	0.7399	1245.6	2.5
298.15	0.1654	0.7201	1244.3	2.5
298.15	0.1892	0.701	1241.8	2.5
298.15	0.2029	0.6954	1240.7	2.5
298.15	0.2147	0.6819	1239.3	2.5
298.15	0.2416	0.6518	1237.2	2.5
298.15	0.264	0.6245	1234.7	2.5
298.15	0.2817	0.6049	1233	2.5
298.15	0.3043	0.5812	1230.9	2.5
298.15	0.3263	0.5572	1229	2.5
298.15	0.3435	0.5368	1227.3	2.5
298.15	0.3652	0.5132	1225.5	2.5
298.15	0.3846	0.4916	1224	2.5
298.15	0.4063	0.4691	1222.5	2.5
298.15	0.4291	0.4449	1221	2.5
298.15	0.4526	0.424	1219.9	2.5
298.15	0.4648	0.4119	1219.3	2.5
298.15	0.4772	0.3996	1218.6	2.5
298.15	0.5024	0.3763	1217.5	2.5
298.15	0.5172	0.363	1216.9	2.5
298.15	0.5317	0.35	1216.3	2.5
298.15	0.5565	0.3262	1215.1	2.5
298.15	0.5852	0.2996	1213.9	2.5
298.15	0.608	0.2783	1212.8	2.5
298.15	0.6371	0.2514	1211.4	2.5
298.15	0.6721	0.2226	1209.9	2.5
298.15	0.6988	0.198	1208.5	2.5
298.15	0.7202	0.1784	1207.2	2.4
298.15	0.7375	0.1584	1205.8	2.4
298.15	0.7605	0.1385	1204.4	2.4
303.15	0.1215	0.7767	1246	2.5
303.15	0.1397	0.754	1243.6	2.5
303.15	0.1531	0.7399	1242.3	2.5
303.15	0.1654	0.7201	1241	2.5
303.15	0.1892	0.701	1238.6	2.5
303.15	0.2029	0.6954	1237.5	2.5
303.15	0.2147	0.6819	1236.2	2.5
303.15	0.2416	0.6518	1234.2	2.5
303.15	0.264	0.6245	1231.8	2.5
303.15	0.2817	0.6049	1230.1	2.5
303.15	0.3043	0.5812	1228.1	2.5
303.15	0.3263	0.5572	1226.2	2.5
303.15	0.3435	0.5368	1224.6	2.5
303.15	0.3652	0.5132	1222.8	2.5
303.15	0.3846	0.4916	1221.3	2.5
303.15	0.4063	0.4691	1219.9	2.5
303.15	0.4291	0.4449	1218.4	2.5
303.15	0.4526	0.424	1217.3	2.5
303.15	0.4648	0.4119	1216.7	2.5
303.15	0.4772	0.3996	1216	2.5
303.15	0.5024	0.3763	1214.9	2.5
303.15	0.5172	0.363	1214.3	2.5
303.15	0.5317	0.35	1213.7	2.5
303.15	0.5565	0.3262	1212.5	2.5
303.15	0.5852	0.2996	1211.3	2.5
303.15	0.608	0.2783	1210.2	2.5
303.15	0.6371	0.2514	1208.9	2.5
303.15	0.6721	0.2226	1207.4	2.4
303.15	0.6988	0.198	1206	2.4
303.15	0.7202	0.1784	1204.8	2.4
303.15	0.7375	0.1584	1203.3	2.4
303.15	0.7605	0.1385	1202	2.4
308.15	0.1215	0.7767	1242	2.5
308.15	0.1397	0.754	1240	2.5
308.15	0.1531	0.7399	1238.7	2.5
308.15	0.1654	0.7201	1237.4	2.5
308.15	0.1892	0.701	1235.1	2.5
308.15	0.2029	0.6954	1233.8	2.5
308.15	0.2147	0.6819	1233.1	2.5
308.15	0.2416	0.6518	1230.9	2.5
308.15	0.264	0.6245	1228.6	2.5
308.15	0.2817	0.6049	1226.9	2.5
308.15	0.3043	0.5812	1225	2.5
308.15	0.3263	0.5572	1223.2	2.5
308.15	0.3435	0.5368	1221.6	2.5
308.15	0.3652	0.5132	1219.9	2.5
308.15	0.3846	0.4916	1218.4	2.5
308.15	0.4063	0.4691	1217	2.5
308.15	0.4291	0.4449	1215.5	2.5
308.15	0.4526	0.424	1214.6	2.5
308.15	0.4648	0.4119	1213.9	2.5
308.15	0.4772	0.3996	1213.3	2.5
308.15	0.5024	0.3763	1212.2	2.5
308.15	0.5172	0.363	1211.6	2.5
308.15	0.5317	0.35	1211.1	2.5
308.15	0.5565	0.3262	1210	2.5
308.15	0.5852	0.2996	1208.8	2.4
308.15	0.608	0.2783	1207.8	2.4
308.15	0.6371	0.2514	1206.5	2.4
308.15	0.6721	0.2226	1205.2	2.4
308.15	0.6988	0.198	1203.8	2.4
308.15	0.7202	0.1784	1202.7	2.4
308.15	0.7375	0.1584	1201.3	2.4
308.15	0.7605	0.1385	1200.1	2.4

System: cyclohexanone + 1-ethyl-3-methylimidazolium tetrafluoroborate + 1-butyl-2,3-dimethylimidazolium tetrafluoroborate; phases: Liquid
Fixed: Pressure, kPa = 100
Fixed: Frequency, MHz = 3
Property: Speed of sound, m/s (Liquid); method: Single path-length method
Temperature, K	Mole fraction of 1-butyl-2,3-dimethylimidazolium tetrafluoroborate	Mole fraction of 1-ethyl-3-methylimidazolium tetrafluoroborate	Speed of sound, m/s	uncertainty
293.15	0.1215	0.7767	1630.2	1.4
293.15	0.1397	0.754	1632.7	1.4
293.15	0.1531	0.7399	1636.2	1.4
293.15	0.1654	0.7201	1639.7	1.4
293.15	0.1892	0.701	1643.7	1.4
293.15	0.2029	0.6954	1647.3	1.4
293.15	0.2147	0.6819	1649.7	1.4
293.15	0.2416	0.6518	1655.2	1.4
293.15	0.264	0.6245	1658.9	1.4
293.15	0.2817	0.6049	1662	1.4
293.15	0.3043	0.5812	1666	1.4
293.15	0.3263	0.5572	1668.5	1.4
293.15	0.3435	0.5368	1668.8	1.4
293.15	0.3652	0.5132	1669.2	1.4
293.15	0.3846	0.4916	1668.5	1.4
293.15	0.4063	0.4691	1667.2	1.4
293.15	0.4291	0.4449	1665	1.4
293.15	0.4526	0.424	1662.9	1.4
293.15	0.4648	0.4119	1660.7	1.4
293.15	0.4772	0.3996	1658.6	1.4
293.15	0.5024	0.3763	1654.4	1.4
293.15	0.5172	0.363	1652.1	1.4
293.15	0.5317	0.35	1649.5	1.4
293.15	0.5565	0.3262	1643.6	1.4
293.15	0.5852	0.2996	1637.4	1.4
293.15	0.608	0.2783	1633.2	1.4
293.15	0.6371	0.2514	1627.7	1.4
293.15	0.6721	0.2226	1622.1	1.4
293.15	0.6988	0.198	1617.9	1.4
293.15	0.7202	0.1784	1614.1	1.4
293.15	0.7375	0.1584	1610.6	1.4
293.15	0.7605	0.1385	1606.8	1.4
298.15	0.1215	0.7767	1621.6	1.4
298.15	0.1397	0.754	1624.4	1.4
298.15	0.1531	0.7399	1626.9	1.4
298.15	0.1654	0.7201	1629.4	1.4
298.15	0.1892	0.701	1634.3	1.4
298.15	0.2029	0.6954	1637.5	1.4
298.15	0.2147	0.6819	1639.8	1.4
298.15	0.2416	0.6518	1644.9	1.4
298.15	0.264	0.6245	1648.8	1.4
298.15	0.2817	0.6049	1651.5	1.4
298.15	0.3043	0.5812	1655	1.4
298.15	0.3263	0.5572	1657.6	1.4
298.15	0.3435	0.5368	1657.8	1.4
298.15	0.3652	0.5132	1658.4	1.4
298.15	0.3846	0.4916	1657.3	1.4
298.15	0.4063	0.4691	1655.7	1.4
298.15	0.4291	0.4449	1653.2	1.4
298.15	0.4526	0.424	1651.2	1.4
298.15	0.4648	0.4119	1649.5	1.4
298.15	0.4772	0.3996	1647	1.4
298.15	0.5024	0.3763	1643.1	1.4
298.15	0.5172	0.363	1640.7	1.4
298.15	0.5317	0.35	1638	1.4
298.15	0.5565	0.3262	1632.2	1.4
298.15	0.5852	0.2996	1625.9	1.4
298.15	0.608	0.2783	1621	1.4
298.15	0.6371	0.2514	1615.1	1.4
298.15	0.6721	0.2226	1609.7	1.4
298.15	0.6988	0.198	1605.2	1.4
298.15	0.7202	0.1784	1602.1	1.4
298.15	0.7375	0.1584	1598.2	1.4
298.15	0.7605	0.1385	1593.7	1.4
303.15	0.1215	0.7767	1609.5	1.4
303.15	0.1397	0.754	1612.9	1.4
303.15	0.1531	0.7399	1614.6	1.4
303.15	0.1654	0.7201	1617.1	1.4
303.15	0.1892	0.701	1622.1	1.4
303.15	0.2029	0.6954	1625.3	1.4
303.15	0.2147	0.6819	1627.8	1.4
303.15	0.2416	0.6518	1633	1.4
303.15	0.264	0.6245	1636.7	1.4
303.15	0.2817	0.6049	1639.4	1.4
303.15	0.3043	0.5812	1643.3	1.4
303.15	0.3263	0.5572	1645.3	1.4
303.15	0.3435	0.5368	1645.7	1.4
303.15	0.3652	0.5132	1646.2	1.4
303.15	0.3846	0.4916	1644.9	1.4
303.15	0.4063	0.4691	1643.8	1.4
303.15	0.4291	0.4449	1641.1	1.4
303.15	0.4526	0.424	1638.8	1.4
303.15	0.4648	0.4119	1636.7	1.4
303.15	0.4772	0.3996	1634.6	1.4
303.15	0.5024	0.3763	1630.4	1.4
303.15	0.5172	0.363	1627.7	1.4
303.15	0.5317	0.35	1625.1	1.4
303.15	0.5565	0.3262	1619.2	1.4
303.15	0.5852	0.2996	1613.5	1.4
303.15	0.608	0.2783	1607.9	1.4
303.15	0.6371	0.2514	1603.2	1.4
303.15	0.6721	0.2226	1596.3	1.4
303.15	0.6988	0.198	1592.7	1.4
303.15	0.7202	0.1784	1589.2	1.4
303.15	0.7375	0.1584	1586	1.4
303.15	0.7605	0.1385	1580.3	1.4
308.15	0.1215	0.7767	1598	1.4
308.15	0.1397	0.754	1601.3	1.4
308.15	0.1531	0.7399	1603.9	1.4
308.15	0.1654	0.7201	1605.7	1.4
308.15	0.1892	0.701	1610.5	1.4
308.15	0.2029	0.6954	1613.2	1.4
308.15	0.2147	0.6819	1615.3	1.4
308.15	0.2416	0.6518	1620.7	1.4
308.15	0.264	0.6245	1624.5	1.4
308.15	0.2817	0.6049	1627.2	1.4
308.15	0.3043	0.5812	1630.8	1.4
308.15	0.3263	0.5572	1633.4	1.4
308.15	0.3435	0.5368	1633.9	1.4
308.15	0.3652	0.5132	1634.1	1.4
308.15	0.3846	0.4916	1633	1.4
308.15	0.4063	0.4691	1631.6	1.4
308.15	0.4291	0.4449	1629	1.4
308.15	0.4526	0.424	1626.9	1.4
308.15	0.4648	0.4119	1624.6	1.4
308.15	0.4772	0.3996	1622.2	1.4
308.15	0.5024	0.3763	1618	1.4
308.15	0.5172	0.363	1615.6	1.4
308.15	0.5317	0.35	1613	1.4
308.15	0.5565	0.3262	1607.3	1.4
308.15	0.5852	0.2996	1602	1.4
308.15	0.608	0.2783	1595.6	1.4
308.15	0.6371	0.2514	1590.9	1.4
308.15	0.6721	0.2226	1583.4	1.4
308.15	0.6988	0.198	1579.5	1.4
308.15	0.7202	0.1784	1576.2	1.4
308.15	0.7375	0.1584	1573	1.4
308.15	0.7605	0.1385	1567.5	1.4
