Measured thermophysical data. Liquid-liquid equilibria for the ternary system of water + furfural + solvents at 303.15 and 323.15 K under atmospheric pressure
Source: J. Chem. Thermodyn., 2018, 10.1016/j.jct.2018.01.027
Compound 1: water, H2O, InChI=1S/H2O/h1H2
Compound 2: 2-furaldehyde, C5H4O2, InChI=1S/C5H4O2/c6-4-5-2-1-3-7-5/h1-4H, purity 99.5%
Compound 3: 1,2-dimethylbenzene, C8H10, InChI=1S/C8H10/c1-7-5-3-4-6-8(7)2/h3-6H,1-2H3, purity 99.5%
Compound 4: 1,3-dimethylbenzene, C8H10, InChI=1S/C8H10/c1-7-4-3-5-8(2)6-7/h3-6H,1-2H3, purity 98.7%
Compound 5: ethylbenzene, C8H10, InChI=1S/C8H10/c1-2-8-6-4-3-5-7-8/h3-7H,2H2,1H3, purity 99.5%

System: water + 2-furaldehyde + 1,3-dimethylbenzene; phases: Liquid mixture 2, Liquid mixture 1
Fixed: Pressure, kPa = 100.5
Property: Mole fraction of water (Liquid mixture 2); method: Chromatography
Property: Mole fraction of water (Liquid mixture 1); method: Chromatography
Property: Mole fraction of 2-furaldehyde (Liquid mixture 1); method: Chromatography
Temperature, K	Mole fraction of 2-furaldehyde	Mole fraction of water	uncertainty	Mole fraction of water	uncertainty	Mole fraction of 2-furaldehyde	uncertainty
303.15	0	0.99992	8e-05	0.0034	0.0034	0	
303.2	0.0166	0.9834	0.0045	0.2304	0.0041	0.7696	
323.15	0	0.99989	0.00011	0.0055	0.0036	0	
323.15	0.0004	0.9994	0.0006	0.0134	0.0038	0.0092	
323.15	0.0007	0.9991	0.0009	0.015	0.0036	0.0184	
323.15	0.0015	0.9983	0.0017	0.0158	0.0036	0.0381	
323.15	0.0021	0.9977	0.0023	0.0185	0.0036	0.0572	
323.15	0.0028	0.997	0.003	0.0189	0.0036	0.0777	
323.15	0.0037	0.996	0.004	0.0202	0.0036	0.1096	
323.15	0.0046	0.9952	0.0045	0.0212	0.0036	0.1428	
323.15	0.0052	0.9946	0.0045	0.0241	0.0036	0.1717	
303.15	0.0003	0.9996	0.0004	0.0062	0.0036	0.0074	
323.2	0.0193	0.9807	0.0045	0.2897	0.0044	0.7103	
303.15	0.0007	0.9991	0.0009	0.0075	0.0036	0.0174	
303.15	0.0014	0.9984	0.0016	0.0078	0.0036	0.0337	
303.15	0.002	0.9978	0.0022	0.0085	0.0036	0.0543	
303.15	0.0025	0.9973	0.0027	0.0095	0.0036	0.074	
303.15	0.0036	0.9962	0.0038	0.0099	0.0036	0.1055	
303.15	0.0043	0.9955	0.0045	0.0109	0.0036	0.1363	
303.15	0.005	0.9947	0.0045	0.0115	0.0036	0.1675	

System: water + 2-furaldehyde + 1,2-dimethylbenzene; phases: Liquid mixture 2, Liquid mixture 1
Fixed: Pressure, kPa = 100.5
Property: Mole fraction of water (Liquid mixture 2); method: Chromatography
Property: Mole fraction of water (Liquid mixture 1); method: Chromatography
Property: Mole fraction of 2-furaldehyde (Liquid mixture 1); method: Chromatography
Temperature, K	Mole fraction of 2-furaldehyde	Mole fraction of water	uncertainty	Mole fraction of water	uncertainty	Mole fraction of 2-furaldehyde	uncertainty
303.15	0	0.9999	0.0001	0.0037	0.0036	0	
303.15	0.0003	0.9995	0.0005	0.0042	0.0036	0.009	
303.15	0.0007	0.999	0.001	0.0043	0.0036	0.0179	
303.15	0.0013	0.9984	0.0016	0.0049	0.0036	0.0358	
303.15	0.0019	0.9978	0.0022	0.0056	0.0036	0.0556	
303.15	0.0024	0.9974	0.0026	0.006	0.0036	0.0726	
303.15	0.0026	0.9971	0.0029	0.0065	0.0036	0.0797	
303.15	0.0029	0.9969	0.0031	0.0071	0.0036	0.0888	
303.15	0.0034	0.9964	0.0036	0.0075	0.0036	0.1059	
303.2	0.0166	0.9834	0.0045	0.2304	0.0041	0.7696	
323.15	0	0.9999	0.0001	0.0046	0.0036	0	
323.15	0.0003	0.9995	0.0005	0.0048	0.0036	0.0079	
323.15	0.0005	0.9993	0.0007	0.0059	0.0036	0.0125	
323.15	0.0008	0.999	0.001	0.0065	0.0036	0.0225	
323.15	0.0012	0.9986	0.0014	0.0071	0.0036	0.0352	
323.15	0.0017	0.9981	0.0019	0.0074	0.0036	0.0499	
323.15	0.0022	0.9974	0.0026	0.0077	0.0036	0.0649	
323.15	0.0028	0.9969	0.0031	0.0082	0.0036	0.0846	
323.15	0.0034	0.9964	0.0036	0.0088	0.0036	0.1046	
323.2	0.0193	0.9807	0.0045	0.2897	0.0044	0.7103	

System: water + 2-furaldehyde + ethylbenzene; phases: Liquid mixture 2, Liquid mixture 1
Fixed: Pressure, kPa = 100.5
Property: Mole fraction of water (Liquid mixture 2); method: Chromatography
Property: Mole fraction of water (Liquid mixture 1); method: Chromatography
Property: Mole fraction of 2-furaldehyde (Liquid mixture 1); method: Chromatography
Temperature, K	Mole fraction of 2-furaldehyde	Mole fraction of water	uncertainty	Mole fraction of water	uncertainty	Mole fraction of 2-furaldehyde	uncertainty
303.15	0	0.99996	4e-05	0.0033	0.0033	0	
303.15	0.0003	0.9996	0.0004	0.0057	0.0036	0.0069	
303.15	0.0006	0.9993	0.0007	0.0063	0.0036	0.0148	
303.15	0.0012	0.9986	0.0014	0.0069	0.0036	0.0332	
303.15	0.0018	0.9979	0.0021	0.0073	0.0036	0.049	
303.15	0.0024	0.9974	0.0026	0.0079	0.0036	0.0694	
303.15	0.0031	0.9964	0.0036	0.0091	0.0036	0.0943	
303.15	0.0038	0.9958	0.0042	0.0098	0.0036	0.1228	
303.15	0.0044	0.9953	0.0045	0.0117	0.0036	0.1493	
303.2	0.0166	0.9834	0.0045	0.2304	0.0041	0.7696	
323.15	0	0.99993	7e-05	0.0053	0.0036	0	
323.15	0.0003	0.999	0.001	0.01	0.0037	0.0087	
323.15	0.0007	0.9987	0.0013	0.0103	0.0036	0.018	
323.15	0.0014	0.9982	0.0018	0.0105	0.0036	0.0367	
323.15	0.002	0.9971	0.0029	0.0118	0.0036	0.059	
323.15	0.0027	0.9966	0.0034	0.0131	0.0036	0.0859	
323.15	0.0035	0.9958	0.0042	0.0132	0.0036	0.1098	
323.15	0.0041	0.995	0.0045	0.0134	0.0036	0.1322	
323.15	0.0052	0.9941	0.0045	0.0138	0.0036	0.1791	
323.2	0.0193	0.9807	0.0044	0.2897	0.0044	0.7103	

System: water + 1,3-dimethylbenzene; phases: Liquid mixture 2, Liquid mixture 1
Fixed: Pressure, kPa = 100.5
Property: Mole fraction of water (Liquid mixture 2); method: Chromatography
Temperature, K	Mole fraction of water	uncertainty
303.15	0.99992	8e-05
323.15	0.99989	0.00011

System: water + 1,3-dimethylbenzene; phases: Liquid mixture 1, Liquid mixture 2
Fixed: Pressure, kPa = 100.5
Property: Mole fraction of water (Liquid mixture 1); method: Chromatography
Temperature, K	Mole fraction of water	uncertainty
303.15	0.0034	0.0034
323.15	0.0055	0.0036

System: water + 1,2-dimethylbenzene; phases: Liquid mixture 2, Liquid mixture 1
Fixed: Pressure, kPa = 100.5
Property: Mole fraction of water (Liquid mixture 2); method: Chromatography
Temperature, K	Mole fraction of water	uncertainty
303.15	0.9999	0.0001
323.15	0.9999	0.0001

System: water + 1,2-dimethylbenzene; phases: Liquid mixture 1, Liquid mixture 2
Fixed: Pressure, kPa = 100.5
Property: Mole fraction of water (Liquid mixture 1); method: Chromatography
Temperature, K	Mole fraction of water	uncertainty
303.15	0.0037	0.0036
323.15	0.0046	0.0036

System: water + ethylbenzene; phases: Liquid mixture 2, Liquid mixture 1
Fixed: Pressure, kPa = 100.5
Property: Mole fraction of water (Liquid mixture 2); method: Chromatography
Temperature, K	Mole fraction of water	uncertainty
303.15	0.99996	4e-05
323.15	0.99993	7e-05

System: water + ethylbenzene; phases: Liquid mixture 1, Liquid mixture 2
Fixed: Pressure, kPa = 100.5
Property: Mole fraction of water (Liquid mixture 1); method: Chromatography
Temperature, K	Mole fraction of water	uncertainty
303.15	0.0033	0.0033
323.15	0.0053	0.0036

System: water + 2-furaldehyde; phases: Liquid mixture 2, Liquid mixture 1
Fixed: Pressure, kPa = 100.5
Property: Mole fraction of water (Liquid mixture 2); method: Chromatography
Temperature, K	Mole fraction of water	uncertainty
323.2	0.9807	0.0026
303.2	0.9834	0.0026

System: water + 2-furaldehyde; phases: Liquid mixture 1, Liquid mixture 2
Fixed: Pressure, kPa = 100.5
Property: Mole fraction of water (Liquid mixture 1); method: Chromatography
Temperature, K	Mole fraction of water	uncertainty
323.2	0.2897	0.0031
303.2	0.2304	0.0028
