Measured thermophysical data. Thermodynamic properties of N,N-dimethylformamide and N,N-dimethylacetamide
Source: J. Chem. Thermodyn., 2007, 10.1016/j.jct.2007.02.009
Compound 1: dimethylformamide, C3H7NO, InChI=1S/C3H7NO/c1-4(2)3-5/h3H,1-2H3, purity 99%
Compound 2: N,N-dimethylethanamide, C4H9NO, InChI=1S/C4H9NO/c1-4(6)5(2)3/h1-3H3, purity 99.9%

System: dimethylformamide; phases: Crystal, Liquid, Gas
Property: Molar enthalpy of transition or fusion, kJ/mol (Crystal); method: Adiabatic calorimetry
Molar enthalpy of transition or fusion, kJ/mol	uncertainty
8.95	0.132

System: dimethylformamide; phases: Crystal, Liquid, Gas
Property: Triple point temperature, K (Crystal); method: Adiabatic calorimetry
Triple point temperature, K	uncertainty
212.86	0.11

System: dimethylformamide; phases: Liquid
Fixed: Pressure, kPa = 101.325
Property: Molar heat capacity at constant pressure, J/K/mol (Liquid); method: Vacuum adiabatic calorimetry
Temperature, K	Molar heat capacity at constant pressure, J/K/mol	uncertainty
213	142.4	0.6
215.3	141.5	0.6
216.03	141.8	0.6
217.78	141.7	0.6
217.98	142	0.6
220.95	141.8	0.6
222.56	142	0.6
223.91	142.2	0.6
225.22	142.2	0.6
226.86	142.2	0.6
228.18	142.4	0.6
229.81	142.5	0.6
230.54	142.5	0.6
231.13	142.7	0.6
232.77	142.5	0.6
233.19	142.9	0.6
235.55	142.5	0.6
235.72	142.8	0.6
236.14	142.7	0.6
238.66	143	0.6
238.73	143.2	0.6
239.07	143	0.6
241.6	143.1	0.6
242.25	143.5	0.6
244.54	143.3	0.6
245.77	143.3	0.6
247.48	143.4	0.6
249.28	143.4	0.6
250.41	143.5	0.6
252.78	143.7	0.6
253.34	143.5	0.6
256.26	143.9	0.6
256.28	144.1	0.6
259.17	144	0.6
261.17	144.3	0.6
262.1	144.3	0.6
262.79	144.5	0.6
263.79	144.4	0.6
265.01	144.6	0.6
266.68	144.8	0.6
267.92	144.6	0.6
269.56	145	0.6
270.82	144.8	0.6
272.44	145.3	0.6
273.71	145	0.6
275.31	145.4	0.6
276.6	145.4	0.6
278.16	145.6	0.6
278.16	145.6	0.6
279.47	145.6	0.6
281.01	146.1	0.6
283.85	146.6	0.6
286.68	146.7	0.6
289.51	147	0.6
292.32	147.4	0.6
298.15	148.2	0.6
301.5	148.7	0.6

System: dimethylformamide; phases: Crystal
Fixed: Pressure, kPa = 101.325
Property: Molar heat capacity at constant pressure, J/K/mol (Crystal); method: VADIAC:UFactor:2
Temperature, K	Molar heat capacity at constant pressure, J/K/mol	uncertainty
5	0.221	0.025
10	1.79	0.05
15	5.187	0.091
20	9.678	0.13
25	14.64	0.15
30	19.63	0.16
40	28.52	0.19
50	36.34	0.23
60	43.49	0.25
70	49.95	0.28
80	55.45	0.3
90	60.47	0.52
100	65.36	0.53
110	69.68	0.54
120	73.76	0.55
130	77.82	0.56
140	81.78	0.56
150	85.56	0.57
160	89.05	0.58
170	92.62	0.59
180	96.36	0.59
190	100.5	0.6
200	104.6	0.6
210	107.7	0.6
212.86	108.1	0.6

System: dimethylformamide; phases: Crystal
Fixed: Pressure, kPa = 101.325
Property: Molar heat capacity at constant pressure, J/K/mol (Crystal); method: VADIAC:UFactor:2
Temperature, K	Molar heat capacity at constant pressure, J/K/mol	uncertainty
7.54	0.753	0.026
7.59	0.763	0.026
8.21	0.931	0.028
8.29	0.964	0.028
8.88	1.19	0.03
9.41	1.46	0.04
9.52	1.55	0.04
9.91	1.74	0.04
10.37	1.995	0.043
10.81	2.263	0.046
11.24	2.533	0.05
11.66	2.776	0.053
12.07	2.996	0.056
12.44	3.216	0.059
12.83	3.574	0.063
13.05	3.741	0.066
13.48	4.017	0.069
14.16	4.518	0.075
14.83	5.048	0.082
15.49	5.622	0.089
16.15	6.115	0.094
16.81	6.702	0.101
17.45	7.307	0.108
18.1	7.9	0.115
18.75	8.506	0.121
19.2	8.88	0.126
19.64	9.354	0.131
20.28	9.986	0.137
21.81	11.31	0.15
24.35	13.98	0.18
26.01	15.67	0.19
28.18	17.9	0.21
29.89	19.58	0.22
32.35	21.81	0.25
34.82	24.08	0.27
37.3	26.24	0.29
39.15	27.83	0.31
40.98	29.35	0.18
42.91	30.92	0.19
43.45	31.29	0.19
44.78	32.3	0.2
45.93	33.16	0.2
49.17	35.67	0.21
51.08	37.1	0.22
53.56	38.97	0.23
56.03	40.81	0.24
58.51	42.63	0.25
60.98	44.1	0.25
63.46	45.65	0.26
65.93	47.18	0.27
68.4	49.19	0.28
70.88	50.36	0.28
73.21	52.04	0.29
75.22	52.99	0.3
77.32	54.31	0.3
79.34	55.1	0.31
82.06	56.51	0.31
84.87	57.9	0.32
87.85	59.4	0.33
90.82	60.89	0.44
93.8	62.3	0.45
96.76	63.67	0.45
99.73	65.16	0.46
102.7	66.55	0.46
105.67	67.8	0.47
106.15	68.12	0.47
108.64	69.18	0.47
109.01	69.31	0.47
111.61	70.34	0.48
111.97	70.65	0.48
114.57	71.6	0.48
114.94	71.75	0.48
117.89	73.04	0.48
120.75	74.11	0.49
123.71	75.3	0.49
126.68	76.26	0.5
129.64	77.49	0.5
132.61	78.6	0.5
138.24	80.9	0.51
146.91	84.72	0.53
149.76	85.72	0.53
152.73	86.72	0.53
155.69	87.47	0.54
158.66	88.47	0.54
161.62	89.38	0.54
164.59	90.46	0.55
167.56	91.54	0.55
170.53	92.79	0.56
173.49	94.53	0.56
178.4	96.61	0.57
184.4	99.44	0.6
184.65	101.2	0.6
191.1	105.5	0.6
191.8	105	0.6
198.9	124.1	0.7
200.5	130.6	0.7
201.1	139.5	0.8
201.51	150.5	0.9

System: dimethylformamide; phases: Liquid
Fixed: Pressure, kPa = 101.325
Property: Molar heat capacity at constant pressure, J/K/mol (Liquid); method: Vacuum adiabatic calorimetry
Temperature, K	Molar heat capacity at constant pressure, J/K/mol	uncertainty
212.86	141.4	0.3
220	141.9	0.3
230	142.5	0.3
240	143	0.3
250	143.6	0.3
260	144.2	0.3
270	144.9	0.3
280	145.9	0.4
290	147.1	0.4
298.15	148.2	0.4
300	148.5	0.4
305	149	0.4

System: dimethylformamide; phases: Liquid
Fixed: Pressure, kPa = 101.325
Property: Molar enthalpy, kJ/mol (Liquid); method: VADIAC:UFactor:2
Temperature, K	Molar enthalpy, kJ/mol	uncertainty
212.86	22.216	0.13
220	23.23	0.134
230	24.652	0.141
240	26.082	0.148
250	27.512	0.155
260	28.951	0.162
270	30.397	0.169
280	31.852	0.176
290	33.324	0.183
298.15	34.521	0.188
300	34.787	0.19
305	35.544	0.193

System: dimethylformamide; phases: Crystal
Fixed: Pressure, kPa = 101.325
Property: Molar enthalpy, kJ/mol (Crystal); method: VADIAC:UFactor:2
Temperature, K	Molar enthalpy, kJ/mol	uncertainty
5	0.0003	0.000107
10	0.0044	0.00027
15	0.0213	0.0006
20	0.0581	0.00107
25	0.1188	0.0016
30	0.2045	0.0032
40	0.4465	0.005
50	0.7713	0.0071
60	1.172	0.01
70	1.639	0.012
80	2.167	0.015
90	2.747	0.042
100	3.376	0.047
110	4.051	0.052
120	4.769	0.058
130	5.527	0.063
140	6.325	0.069
150	7.162	0.074
160	8.035	0.08
170	8.946	0.086
180	9.886	0.092
190	10.87	0.098
200	11.9	0.104
210	12.96	0.11
212.86	13.27	0.112

System: dimethylformamide; phases: Crystal
Fixed: Pressure, kPa = 101.325
Property: Molar entropy, J/K/mol (Crystal); method: VADIAC:UFactor:2
Temperature, K	Molar entropy, J/K/mol	uncertainty
5	0.0738	0.032
10	0.584	0.044
15	1.906	0.069
20	4	0.098
25	6.682	0.121
30	9.794	0.179
40	16.7	0.22
50	23.91	0.26
60	31.2	0.31
70	38.4	0.35
80	45.44	0.39
90	52.26	0.76
100	58.89	0.78
110	65.32	0.8
120	71.56	0.81
130	77.63	0.83
140	83.56	0.85
150	89.3	0.87
160	94.95	0.88
170	100.5	0.9
180	105.8	0.9
190	111.2	0.9
200	116.4	1
210	121.6	1
212.86	123.1	1

System: dimethylformamide; phases: Liquid
Fixed: Pressure, kPa = 101.325
Property: Molar entropy, J/K/mol (Liquid); method: VADIAC:UFactor:2
Temperature, K	Molar entropy, J/K/mol	uncertainty
212.86	165.1	1.1
220	169.8	1.1
230	176.1	1.1
240	182.2	1.1
250	188	1.2
260	193.7	1.2
270	199.1	1.2
280	204.4	1.2
290	209.6	1.2
298.15	213.7	1.2
300	214.6	1.2
305	217	1.3

System: N,N-dimethylethanamide; phases: Crystal, Liquid, Gas
Property: Molar enthalpy of transition or fusion, kJ/mol (Crystal); method: Adiabatic calorimetry
Molar enthalpy of transition or fusion, kJ/mol	uncertainty
10.2	0.252

System: N,N-dimethylethanamide; phases: Crystal, Liquid, Gas
Property: Triple point temperature, K (Crystal); method: Adiabatic calorimetry
Triple point temperature, K	uncertainty
254.23	0.18

System: N,N-dimethylethanamide; phases: Liquid
Fixed: Pressure, kPa = 101.325
Property: Molar heat capacity at constant pressure, J/K/mol (Liquid); method: Vacuum adiabatic calorimetry
Temperature, K	Molar heat capacity at constant pressure, J/K/mol	uncertainty
249.41	166.9	0.7
252.43	167	0.7
253.91	167.9	0.7
255.94	167.5	0.7
256.94	168.2	0.7
259.44	167.8	0.7
260.45	168.7	0.7
260.47	168.7	0.7
263.48	169.1	0.7
263.99	169.4	0.7
265.33	169.2	0.7
267.51	169.5	0.7
267.87	169.4	0.7
271.02	169.8	0.7
274.3	169.7	0.7
274.53	170.2	0.7
274.54	169.9	0.7
276.6	169.9	0.7
278.04	170.5	0.7
280.12	170.4	0.7
280.93	170.9	0.7
281.54	170.8	0.7
284.16	170.9	0.7
284.94	170.9	0.7
285.04	171	1
288.18	171.2	0.7
288.53	171.7	0.7
288.92	171.3	0.7
292.01	172.8	0.8
292.02	172.1	0.7
292.2	171.7	0.7
292.89	171.8	0.7
294.08	172.1	0.7
295.5	172.7	0.7
296.21	172.1	0.7
296.85	172.4	0.7
298.09	172.6	0.7
298.96	173.2	0.7
300.21	172.9	0.7
300.79	173.2	0.7
302.08	173.4	0.7
302.42	173.6	0.7
304.19	173.5	0.7
304.71	173.6	0.7
305.86	174.2	0.7
306.05	174.2	0.7
308.16	174.3	0.7
308.61	174.4	0.7
309.21	174.8	0.7
310.02	174.9	0.8
312.13	175.1	0.8
312.48	174.9	0.8
312.6	175.5	0.8
315.97	175.9	0.8
316.07	175.8	0.8
316.34	175.8	0.8
319.33	176.5	0.8
320.01	176.8	0.8
320.16	176.8	0.8
322.66	177.3	0.8
323.96	177.9	0.8
325.97	178.2	0.8
327.75	178.6	0.8
329.23	178.7	0.8
331.51	179.5	0.8
332.48	179.5	0.8
335.71	180.6	0.8

System: N,N-dimethylethanamide; phases: Crystal
Fixed: Pressure, kPa = 101.325
Property: Molar heat capacity at constant pressure, J/K/mol (Crystal); method: VADIAC:UFactor:2
Temperature, K	Molar heat capacity at constant pressure, J/K/mol	uncertainty
6.92	0.654	0.025
7.22	0.721	0.026
7.62	0.856	0.027
7.95	0.956	0.029
8.51	1.18	0.03
8.93	1.36	0.03
9.84	1.79	0.04
10.33	2.07	0.04
10.83	2.43	0.05
11.29	2.742	0.053
11.7	3.069	0.057
12.1	3.374	0.061
12.61	3.72	0.066
13.29	4.32	0.074
13.96	4.896	0.081
14.26	5.14	0.084
14.96	5.759	0.092
15.61	6.387	0.099
16.27	7.06	0.107
16.97	7.732	0.115
17.42	8.207	0.12
18.07	8.888	0.128
18.72	9.611	0.136
19.38	10.29	0.14
20.02	10.92	0.15
21.56	12.62	0.17
23.94	15.34	0.19
26.36	18.13	0.22
28.82	20.87	0.24
31.29	23.55	0.27
33.76	26.25	0.29
36.25	28.88	0.32
38.9	31.36	0.35
41.64	34.1	0.21
43.46	36.93	0.22
45.94	38.28	0.23
48.42	40.59	0.24
50.91	42.85	0.25
51.46	43.5	0.25
53.35	45.21	0.26
55.83	47.45	0.27
60.25	51.13	0.29
62.19	52.56	0.29
64.67	54.1	0.3
67.15	55.76	0.31
69.64	57.42	0.32
72.11	58.89	0.32
74.59	60.29	0.33
77.07	61.68	0.34
79.55	63.16	0.35
82.02	64.43	0.35
83.12	65.08	0.35
85.89	66.5	0.36
87.54	67.33	0.37
88.87	67.93	0.37
90.32	68.74	0.47
91.85	69.31	0.47
93.29	70.17	0.47
94.81	71.08	0.48
97.78	72.39	0.48
100.75	73.58	0.49
101.54	74.26	0.49
103.72	75.3	0.49
106.68	76.66	0.5
109.65	78.11	0.5
109.85	78.17	0.5
112.61	79.7	0.51
115.42	80.92	0.51
118.23	82.25	0.52
121.2	83.39	0.52
126.62	86.14	0.53
129.43	87.3	0.54
130.8	88.05	0.54
132.43	88.71	0.54
135.24	89.8	0.55
138.2	91.13	0.55
141.16	92.37	0.55
144.13	93.62	0.56
147.1	94.78	0.56
147.67	95.28	0.57
150.06	96.03	0.57
150.47	96.03	0.57
153.03	97.28	0.57
153.45	97.28	0.57
155.99	98.44	0.58
158.96	100	0.6
161.92	101.4	0.6
164.85	102.1	0.6
164.89	102.5	0.6
166.41	103.2	0.6
167.72	103.5	0.6
169.39	104.4	0.6
170.51	104.8	0.6
173.48	106.3	0.6
176.44	107.3	0.6
179.4	108.5	0.6
182.37	109.7	0.6
185.33	111	0.6
188.29	112.3	0.6
191.26	113.7	0.6
194.22	115	0.6
197.19	116.2	0.6
198.32	116.8	0.6
199.97	117.7	0.7
202.32	118.7	0.7
202.75	118.7	0.7
205.72	120.2	0.7
206.44	120.8	0.7
208.68	121.8	0.7
209.51	122	0.7
212.79	123.8	0.7
216.21	126.5	0.7
217.95	127.4	0.7
219.32	127.6	0.7
220.71	128.8	0.7
220.98	128.4	0.7
222.21	129.5	0.7
222.65	128.8	0.7
222.94	129.4	0.7
223.63	130.1	0.7
223.68	130	0.7
226.52	131.4	0.7
226.59	131	0.7
226.87	132	0.7
227.31	131.5	0.7
229.5	132.3	0.7
229.7	132.6	0.7
230.65	134.2	0.7
230.87	134.2	0.7
230.97	134.3	0.7
232.41	134.1	0.7
232.93	135.1	0.7
233.15	135	0.7
234.73	137.4	0.7
234.88	135.6	0.7
235.31	136.9	0.7
236.3	137	0.7
237.01	139	0.7
237.7	139.8	0.7
238.2	139.8	0.7
238.37	140.1	0.7
238.79	141.8	0.7
239.42	143.3	0.8
240.09	142.6	0.8
240.59	144.8	0.8
241.4	144.6	0.8
242.01	145.3	0.8

System: N,N-dimethylethanamide; phases: Crystal
Fixed: Pressure, kPa = 101.325
Property: Molar heat capacity at constant pressure, J/K/mol (Crystal); method: VADIAC:UFactor:2
Temperature, K	Molar heat capacity at constant pressure, J/K/mol	uncertainty
5	0.228	0.025
10	1.83	0.05
15	5.81	0.1
20	10.93	0.144
25	16.56	0.17
30	22.16	0.17
35	27.55	0.19
40	32.51	0.21
45	37.34	0.23
50	42.13	0.25
60	50.8	0.28
70	57.65	0.31
80	63.33	0.33
90	68.54	0.54
100	73.44	0.55
110	78.3	0.56
120	83.09	0.57
130	87.55	0.58
140	91.87	0.58
150	96.03	0.59
160	100.3	0.6
170	104.6	0.6
180	108.8	0.6
190	113.1	0.6
200	117.6	0.6
210	122.5	0.6
220	128.2	0.7
230	133.7	0.7
240	138.8	0.7
250	144	0.7
254.23	146.1	0.7

System: N,N-dimethylethanamide; phases: Liquid
Fixed: Pressure, kPa = 101.325
Property: Molar heat capacity at constant pressure, J/K/mol (Liquid); method: Vacuum adiabatic calorimetry
Temperature, K	Molar heat capacity at constant pressure, J/K/mol	uncertainty
254.23	167.7	0.4
260	168.5	0.4
270	169.6	0.4
280	170.5	0.4
290	171.6	0.4
298.15	172.7	0.4
300	173	0.4
310	174.7	0.4
320	176.8	0.4
330	179.1	0.4
340	181.6	0.4

System: N,N-dimethylethanamide; phases: Liquid
Fixed: Pressure, kPa = 101.325
Property: Molar enthalpy, kJ/mol (Liquid); method: VADIAC:UFactor:2
Temperature, K	Molar enthalpy, kJ/mol	uncertainty
254.23	30.813	0.163
260	31.778	0.168
270	33.474	0.175
280	35.178	0.182
290	36.891	0.19
298.15	38.288	0.196
300	38.612	0.197
310	40.35	0.205
320	42.104	0.212
330	43.883	0.22
340	45.688	0.227

System: N,N-dimethylethanamide; phases: Crystal
Fixed: Pressure, kPa = 101.325
Property: Molar enthalpy, kJ/mol (Crystal); method: VADIAC:UFactor:2
Temperature, K	Molar enthalpy, kJ/mol	uncertainty
5	0.000302	0.000107
10	0.0048	0.00028
15	0.0234	0.00063
20	0.0651	0.00115
25	0.1335	0.0017
30	0.2305	0.0034
35	0.3549	0.0043
40	0.5052	0.0053
45	0.6798	0.0064
50	0.8788	0.0076
60	1.345	0.01
70	1.888	0.013
80	2.494	0.016
90	3.153	0.042
100	3.863	0.048
110	4.622	0.053
120	5.429	0.059
130	6.283	0.065
140	7.18	0.07
150	8.12	0.076
160	9.104	0.082
170	10.127	0.088
180	11.191	0.094
190	12.297	0.101
200	13.461	0.107
210	14.658	0.113
220	15.914	0.12
230	17.219	0.126
240	18.583	0.133
250	19.988	0.14
254.23	20.611	0.143

System: N,N-dimethylethanamide; phases: Crystal
Fixed: Pressure, kPa = 101.325
Property: Molar entropy, J/K/mol (Crystal); method: VADIAC:UFactor:2
Temperature, K	Molar entropy, J/K/mol	uncertainty
5	0.0795	0.0322
10	0.635	0.045
15	2.09	0.072
20	4.45	0.105
25	7.484	0.132
30	11	0.19
35	14.83	0.21
40	18.84	0.23
45	22.94	0.26
50	27.13	0.28
60	35.6	0.33
70	43.97	0.38
80	52.05	0.43
90	59.82	0.78
100	67.3	0.8
110	74.52	0.824
120	81.54	0.84
130	88.38	0.87
140	95.03	0.89
150	101.5	0.9
160	107.8	0.9
170	114	0.9
180	120.1	1
190	126.1	1
200	132.1	1
210	137.9	1
220	143.7	1
230	149.6	1.1
240	155.4	1.1
250	161.1	1.1
254.23	163.6	1.1

System: N,N-dimethylethanamide; phases: Liquid
Fixed: Pressure, kPa = 101.325
Property: Molar entropy, J/K/mol (Liquid); method: VADIAC:UFactor:2
Temperature, K	Molar entropy, J/K/mol	uncertainty
254.23	203.7	1.2
260	207.5	1.2
270	213.9	1.2
280	220	1.3
290	226	1.3
298.15	230.8	1.3
300	231.9	1.3
310	237.6	1.3
320	243.2	1.3
330	248.6	1.3
340	254	1.4
