Measured thermophysical data. Phase equilibrium study of the binary systems (N-hexyl-3-methylpyridinium tosylate ionic liquid + water, or organic solvent)
Source: J. Chem. Thermodyn., 2011, 10.1016/j.jct.2011.04.023
Compound 1: water, H2O, InChI=1S/H2O/h1H2
Compound 2: butan-1-ol, C4H10O, InChI=1S/C4H10O/c1-2-3-4-5/h5H,2-4H2,1H3
Compound 3: hexan-1-ol, C6H14O, InChI=1S/C6H14O/c1-2-3-4-5-6-7/h7H,2-6H2,1H3
Compound 4: octan-1-ol, C8H18O, InChI=1S/C8H18O/c1-2-3-4-5-6-7-8-9/h9H,2-8H2,1H3
Compound 5: decan-1-ol, C10H22O, InChI=1S/C10H22O/c1-2-3-4-5-6-7-8-9-10-11/h11H,2-10H2,1H3
Compound 6: benzene, C6H6, InChI=1S/C6H6/c1-2-4-6-5-3-1/h1-6H, purity 99.97%
Compound 7: toluene, C7H8, InChI=1S/C7H8/c1-7-5-3-2-4-6-7/h2-6H,1H3
Compound 8: ethylbenzene, C8H10, InChI=1S/C8H10/c1-2-8-6-4-3-5-7-8/h3-7H,2H2,1H3, purity 99%
Compound 9: propylbenzene, C9H12, InChI=1S/C9H12/c1-2-6-9-7-4-3-5-8-9/h3-5,7-8H,2,6H2,1H3, purity 98%
Compound 10: hexane, C6H14, InChI=1S/C6H14/c1-3-5-6-4-2/h3-6H2,1-2H3, purity 99%
Compound 11: heptane, C7H16, InChI=1S/C7H16/c1-3-5-7-6-4-2/h3-7H2,1-2H3, purity 99%
Compound 12: octane, C8H18, InChI=1S/C8H18/c1-3-5-7-8-6-4-2/h3-8H2,1-2H3, purity 99%
Compound 13: 1-hexyl-3-methylpyridinium 4-methylbenzenesulfonate, C19H27NO3S, InChI=1S/C12H20N.C7H8O3S/c1-3-4-5-6-9-13-10-7-8-12(2)11-13;1-6-2-4-7(5-3-6)11(8,9)10/h7-8,10-11H,3-6,9H2,1-2H3;2-5H,1H3,(H,8,9,10)/q+1;/p-1, purity 98%

System: 1-hexyl-3-methylpyridinium 4-methylbenzenesulfonate; phases: Crystal, Liquid, Air at 1 atmosphere
Property: Molar enthalpy of transition or fusion, kJ/mol (Crystal); method: DSC
Molar enthalpy of transition or fusion, kJ/mol	uncertainty
10.094	0.335

System: 1-hexyl-3-methylpyridinium 4-methylbenzenesulfonate; phases: Crystal, Liquid, Air at 1 atmosphere
Property: Normal melting temperature, K (Crystal); method: VISOBS
Normal melting temperature, K	uncertainty
329.3	0.4

System: water + 1-hexyl-3-methylpyridinium 4-methylbenzenesulfonate; phases: Crystal, Crystal, Liquid, Air at 1 atmosphere
Property: Eutectic temperature, K (Crystal); method: Derived from phase diagram analysis
Eutectic temperature, K	uncertainty
263.2	0.2

System: water + 1-hexyl-3-methylpyridinium 4-methylbenzenesulfonate; phases: Crystal, Crystal, Liquid, Air at 1 atmosphere
Property: Eutectic composition: mole fraction of 1-hexyl-3-methylpyridinium 4-methylbenzenesulfonate (Crystal); method: Derived from phase diagram analysis
Eutectic composition: mole fraction of 1-hexyl-3-methylpyridinium 4-methylbenzenesulfonate	uncertainty
0.121	0.002

System: water + 1-hexyl-3-methylpyridinium 4-methylbenzenesulfonate; phases: Liquid, Crystal
Fixed: Pressure, kPa = 101
Property: Solid-liquid equilibrium temperature, K (Liquid); method: VISOBS
Mole fraction of 1-hexyl-3-methylpyridinium 4-methylbenzenesulfonate	Solid-liquid equilibrium temperature, K	uncertainty
0.1268	264.4	0.3
0.1393	267.4	0.4
0.1538	271.1	0.3
0.1724	275.4	0.3
0.1901	279.7	0.3
0.2133	284	0.3
0.2511	290.3	0.3
0.2874	296	0.3
0.3198	299.6	0.3
0.346	301.7	0.3
0.3762	303.8	0.3
0.4087	305.8	0.3
0.4504	308.1	0.3
0.474	309.5	0.3
0.502	310.8	0.3
0.532	312.3	0.3
0.5616	313.7	0.3
0.5989	315.4	0.3
0.6415	317.1	0.3
0.6897	319.4	0.3
0.7357	321.3	0.3
0.7957	323.8	0.3
0.8465	326	0.3
0.9044	327.5	0.3
1	329.3	0.3

System: water + 1-hexyl-3-methylpyridinium 4-methylbenzenesulfonate; phases: Liquid, Crystal
Fixed: Pressure, kPa = 101
Property: Solid-liquid equilibrium temperature, K (Liquid); method: VISOBS
Mole fraction of 1-hexyl-3-methylpyridinium 4-methylbenzenesulfonate	Solid-liquid equilibrium temperature, K	uncertainty
0	273.1	0.3
0.0227	272.6	0.3
0.0461	271.6	0.3
0.0692	270.2	0.3
0.0811	269.3	0.3
0.0939	267.9	0.3
0.105	266.9	0.3
0.1159	264.1	0.4

System: butan-1-ol + 1-hexyl-3-methylpyridinium 4-methylbenzenesulfonate; phases: Liquid, Crystal
Fixed: Pressure, kPa = 101
Property: Solid-liquid equilibrium temperature, K (Liquid); method: VISOBS
Mole fraction of 1-hexyl-3-methylpyridinium 4-methylbenzenesulfonate	Solid-liquid equilibrium temperature, K	uncertainty
0.1861	263.7	0.3
0.2266	269.8	0.3
0.2685	275.9	0.3
0.3029	281.1	0.3
0.3532	287.5	0.3
0.4011	293.1	0.3
0.4389	297	0.3
0.4673	299.9	0.3
0.5098	304.3	0.3
0.5436	306.6	0.3
0.5826	309.6	0.3
0.6247	312.4	0.3
0.6788	315.8	0.3
0.7318	318.7	0.3
0.789	321.4	0.3
0.856	324	0.3
0.8975	325.6	0.3
0.942	327.6	0.3
1	329.3	0.3

System: hexan-1-ol + 1-hexyl-3-methylpyridinium 4-methylbenzenesulfonate; phases: Liquid, Crystal
Fixed: Pressure, kPa = 101
Property: Solid-liquid equilibrium temperature, K (Liquid); method: VISOBS
Mole fraction of 1-hexyl-3-methylpyridinium 4-methylbenzenesulfonate	Solid-liquid equilibrium temperature, K	uncertainty
0.219	274.4	0.3
0.2432	277.6	0.3
0.2686	282	0.3
0.295	284.7	0.3
0.3264	289.5	0.3
0.3686	293.5	0.3
0.4081	297.5	0.3
0.4447	301.1	0.3
0.4864	304.3	0.3
0.5229	307	0.3
0.5851	311.4	0.3
0.634	314.3	0.3
0.6771	316.4	0.3
0.7355	319.5	0.3
0.7742	321	0.3
0.8184	323	0.3
0.8698	325.3	0.3
0.9216	326.9	0.3
0.9719	328.7	0.3
1	329.3	0.3

System: octan-1-ol + 1-hexyl-3-methylpyridinium 4-methylbenzenesulfonate; phases: Crystal, Crystal, Liquid, Air at 1 atmosphere
Property: Eutectic temperature, K (Crystal); method: Derived from phase diagram analysis
Eutectic temperature, K	uncertainty
257.1	0.2

System: octan-1-ol + 1-hexyl-3-methylpyridinium 4-methylbenzenesulfonate; phases: Crystal, Crystal, Liquid, Air at 1 atmosphere
Property: Eutectic composition: mole fraction of 1-hexyl-3-methylpyridinium 4-methylbenzenesulfonate (Crystal); method: Derived from phase diagram analysis
Eutectic composition: mole fraction of 1-hexyl-3-methylpyridinium 4-methylbenzenesulfonate	uncertainty
0.077	0.002

System: octan-1-ol + 1-hexyl-3-methylpyridinium 4-methylbenzenesulfonate; phases: Liquid, Crystal
Fixed: Pressure, kPa = 101
Property: Solid-liquid equilibrium temperature, K (Liquid); method: VISOBS
Mole fraction of 1-hexyl-3-methylpyridinium 4-methylbenzenesulfonate	Solid-liquid equilibrium temperature, K	uncertainty
0.0761	257.7	0.3
0.0948	261	0.3
0.1211	265	0.3
0.1492	269.4	0.3
0.1773	272.9	0.3
0.2129	277.9	0.3
0.254	284.3	0.3
0.2861	288.3	0.3
0.3134	290.9	0.3
0.3439	294.5	0.3
0.3853	298.3	0.3
0.4269	302.1	0.3
0.4802	306.9	0.3
0.5302	310.2	0.3
0.5861	312.7	0.3
0.6312	315.2	0.3
0.6862	317.5	0.3
0.7333	319.5	0.3
0.7674	321	0.3
0.8028	322.3	0.3
0.8454	323.9	0.3
0.8909	325.9	0.3
0.9416	327.7	0.3
0.9721	328.4	0.3
1	329.3	0.3

System: octan-1-ol + 1-hexyl-3-methylpyridinium 4-methylbenzenesulfonate; phases: Liquid, Crystal
Fixed: Pressure, kPa = 101
Property: Solid-liquid equilibrium temperature, K (Liquid); method: VISOBS
Mole fraction of 1-hexyl-3-methylpyridinium 4-methylbenzenesulfonate	Solid-liquid equilibrium temperature, K	uncertainty
0	258.5	0.3
0.0209	258.5	0.3
0.0317	258.4	0.3
0.0493	258.2	0.3
0.0761	257.7	0.3

System: decan-1-ol + 1-hexyl-3-methylpyridinium 4-methylbenzenesulfonate; phases: Crystal, Crystal, Liquid, Air at 1 atmosphere
Property: Eutectic temperature, K (Crystal); method: Derived from phase diagram analysis
Eutectic temperature, K	uncertainty
277.1	0.2

System: decan-1-ol + 1-hexyl-3-methylpyridinium 4-methylbenzenesulfonate; phases: Crystal, Crystal, Liquid, Air at 1 atmosphere
Property: Eutectic composition: mole fraction of 1-hexyl-3-methylpyridinium 4-methylbenzenesulfonate (Crystal); method: Derived from phase diagram analysis
Eutectic composition: mole fraction of 1-hexyl-3-methylpyridinium 4-methylbenzenesulfonate	uncertainty
0.167	0.002

System: decan-1-ol + 1-hexyl-3-methylpyridinium 4-methylbenzenesulfonate; phases: Liquid, Crystal
Fixed: Pressure, kPa = 101
Property: Solid-liquid equilibrium temperature, K (Liquid); method: VISOBS
Mole fraction of 1-hexyl-3-methylpyridinium 4-methylbenzenesulfonate	Solid-liquid equilibrium temperature, K	uncertainty
0.1673	277.1	0.3
0.1881	280	0.3
0.216	283.9	0.3
0.2476	287.8	0.3
0.2756	291.1	0.3
0.3055	295.8	0.3
0.3397	298.1	0.3
0.3765	301.5	0.3
0.4176	304.7	0.3
0.4588	308.4	0.3
0.5083	311.7	0.3
0.5477	313.8	0.3
0.5948	316	0.3
0.6359	317.4	0.3
0.6966	319.9	0.3
0.7547	321.7	0.3
0.7865	322.8	0.3
0.8225	324	0.3
0.8585	325.2	0.3
0.9042	326.5	0.3
0.9456	327.8	0.3
0.9696	328.5	0.3
1	329.3	0.3

System: decan-1-ol + 1-hexyl-3-methylpyridinium 4-methylbenzenesulfonate; phases: Liquid, Crystal
Fixed: Pressure, kPa = 101
Property: Solid-liquid equilibrium temperature, K (Liquid); method: VISOBS
Mole fraction of 1-hexyl-3-methylpyridinium 4-methylbenzenesulfonate	Solid-liquid equilibrium temperature, K	uncertainty
0	280	0.3
0.0526	279.7	0.3
0.0796	279.2	0.3
0.0957	278.9	0.3
0.1205	278.5	0.3
0.1476	277.7	0.3
0.1673	277.1	0.3

System: benzene + 1-hexyl-3-methylpyridinium 4-methylbenzenesulfonate; phases: Liquid, Liquid
Fixed: Pressure, kPa = 101
Property: Liquid-liquid equilibrium temperature, K (Liquid); method: VISOBS
Mole fraction of benzene	Liquid-liquid equilibrium temperature, K	uncertainty
0.1632	354.5	0.3
0.1645	348.5	0.3
0.1658	339.9	0.3
0.1677	326.2	0.3
0.1693	318.4	0.3
0.171	310	0.3
0.1728	304.4	0.3

System: benzene + 1-hexyl-3-methylpyridinium 4-methylbenzenesulfonate; phases: Liquid, Crystal
Fixed: Pressure, kPa = 101
Property: Solid-liquid equilibrium temperature, K (Liquid); method: VISOBS
Mole fraction of 1-hexyl-3-methylpyridinium 4-methylbenzenesulfonate	Solid-liquid equilibrium temperature, K	uncertainty
0.1323	289.4	0.3
0.1632	289.4	0.3
0.1658	289.4	0.3
0.1677	289.4	0.3
0.1728	289.4	0.3
0.1904	289.4	0.3
0.2114	290.8	0.3
0.2253	292	0.3
0.2412	293.7	0.3
0.2602	295.4	0.3
0.2817	296.8	0.3
0.3082	298.6	0.3
0.3257	299.8	0.3
0.3464	301.3	0.3
0.3611	302.3	0.3
0.3868	304.3	0.3
0.4167	306.2	0.3
0.4506	308.5	0.3
0.476	309.9	0.3
0.5059	312.1	0.3
0.539	313.8	0.3
0.5625	314.9	0.3
0.6071	317.3	0.3
0.6328	318.5	0.3
0.656	319.5	0.3
0.6835	320.7	0.3
0.7148	322.2	0.3
0.7506	323.5	0.3
0.7877	324.9	0.3
0.8351	326.6	0.3
0.8823	327.8	0.3
0.9351	328.8	0.3
1	329.3	0.3

System: toluene + 1-hexyl-3-methylpyridinium 4-methylbenzenesulfonate; phases: Liquid, Crystal
Fixed: Pressure, kPa = 101
Property: Solid-liquid equilibrium temperature, K (Liquid); method: VISOBS
Mole fraction of toluene	Solid-liquid equilibrium temperature, K	uncertainty
0.3321	308.6	0.3
0.3391	308.6	0.3
0.3526	308.6	0.3
0.3759	308.6	0.3
0.4003	309.6	0.3
0.4362	311	0.3
0.4684	312.1	0.3
0.5057	313.7	0.3
0.5378	315.1	0.3
0.5708	316.3	0.3
0.5994	317.6	0.3
0.6578	320	0.3
0.6839	321	0.3
0.7142	322	0.3
0.7458	323.5	0.3
0.7769	324.6	0.3
0.806	325.8	0.3
0.8444	326.8	0.3
0.879	327.6	0.3
0.9085	328.2	0.3
0.9614	328.9	0.3
1	329.3	0.3

System: toluene + 1-hexyl-3-methylpyridinium 4-methylbenzenesulfonate; phases: Liquid, Liquid
Fixed: Pressure, kPa = 101
Property: Liquid-liquid equilibrium temperature, K (Liquid); method: VISOBS
Mole fraction of toluene	Liquid-liquid equilibrium temperature, K	uncertainty
0.339	343.9	0.3
0.3436	339.3	0.3
0.3478	333.6	0.3
0.3521	329.1	0.3
0.3585	322.8	0.3
0.3587	322.9	0.3
0.3661	316.7	0.3
0.3703	313.7	0.3
0.3754	310.7	0.3

System: ethylbenzene + 1-hexyl-3-methylpyridinium 4-methylbenzenesulfonate; phases: Liquid, Crystal
Fixed: Pressure, kPa = 101
Property: Solid-liquid equilibrium temperature, K (Liquid); method: VISOBS
Mole fraction of ethylbenzene	Solid-liquid equilibrium temperature, K	uncertainty
0.4558	314.5	0.3
0.4599	314.5	0.3
0.47	314.5	0.3
0.4865	315.1	0.3
0.5079	315.8	0.3
0.5263	316.2	0.3
0.5478	316.7	0.3
0.5705	317.5	0.3
0.594	318.2	0.3
0.6217	319.1	0.3
0.6508	320.3	0.3
0.683	321.4	0.3
0.7188	322.6	0.3
0.7568	324	0.3
0.7848	325	0.3
0.8328	326.6	0.3
0.8661	327.6	0.3
0.9073	328.2	0.3
0.9516	328.9	0.3
0.9759	329.1	0.3
1	329.3	0.3

System: ethylbenzene + 1-hexyl-3-methylpyridinium 4-methylbenzenesulfonate; phases: Liquid, Liquid
Fixed: Pressure, kPa = 101
Property: Liquid-liquid equilibrium temperature, K (Liquid); method: VISOBS
Mole fraction of ethylbenzene	Liquid-liquid equilibrium temperature, K	uncertainty
0.437	353.9	0.3
0.4391	351.6	0.3
0.4411	348.8	0.3
0.4431	346.7	0.3
0.4454	344	0.3
0.4476	341.1	0.3
0.449	338.3	0.3
0.4513	335	0.3
0.4535	330.4	0.3
0.4558	323.3	0.3

System: propylbenzene + 1-hexyl-3-methylpyridinium 4-methylbenzenesulfonate; phases: Liquid, Crystal
Fixed: Pressure, kPa = 101
Property: Solid-liquid equilibrium temperature, K (Liquid); method: VISOBS
Mole fraction of propylbenzene	Solid-liquid equilibrium temperature, K	uncertainty
0.5845	319.3	0.3
0.59	319.3	0.3
0.5938	319.3	0.3
0.6154	319.8	0.3
0.6454	320.5	0.3
0.68	321.2	0.3
0.7215	322.2	0.3
0.7682	323.7	0.3
0.8154	325.2	0.3
0.8569	326.8	0.3
0.8933	328	0.3
0.917	328.4	0.3
0.9527	328.8	0.3
0.9848	329.1	0.3
1	329.3	0.3

System: propylbenzene + 1-hexyl-3-methylpyridinium 4-methylbenzenesulfonate; phases: Liquid, Liquid
Fixed: Pressure, kPa = 101
Property: Liquid-liquid equilibrium temperature, K (Liquid); method: VISOBS
Mole fraction of propylbenzene	Liquid-liquid equilibrium temperature, K	uncertainty
0.5591	358.7	0.3
0.5628	353.5	0.3
0.5663	349.1	0.3
0.5728	343.3	0.3
0.5792	338.2	0.3
0.5845	334	0.3
0.59	325.3	0.3

System: hexane + 1-hexyl-3-methylpyridinium 4-methylbenzenesulfonate; phases: Liquid, Crystal
Fixed: Pressure, kPa = 101
Property: Solid-liquid equilibrium temperature, K (Liquid); method: VISOBS
Mole fraction of hexane	Solid-liquid equilibrium temperature, K	uncertainty
0.776	327.5	0.3
0.7865	327.5	0.3
0.7993	327.5	0.3
0.81	327.5	0.3
0.8251	327.5	0.3
0.8391	327.5	0.3
0.8493	327.5	0.3
0.882	327.8	0.3
0.9042	328.1	0.3
0.9198	328.3	0.3
0.934	328.5	0.3
0.9561	328.8	0.3
0.9801	329.1	0.3
1	329.3	0.3

System: hexane + 1-hexyl-3-methylpyridinium 4-methylbenzenesulfonate; phases: Liquid, Crystal
Fixed: Pressure, kPa = 101
Property: Solid-liquid equilibrium temperature, K (Liquid); method: VISOBS
Mole fraction of hexane	Solid-liquid equilibrium temperature, K	uncertainty
0.776	357.2	0.3
0.7865	353.9	0.3
0.7993	350.9	0.3
0.81	347	0.3
0.8251	342.4	0.3
0.8391	338	0.3

System: heptane + 1-hexyl-3-methylpyridinium 4-methylbenzenesulfonate; phases: Liquid, Crystal
Fixed: Pressure, kPa = 101
Property: Solid-liquid equilibrium temperature, K (Liquid); method: VISOBS
Mole fraction of heptane	Solid-liquid equilibrium temperature, K	uncertainty
0.8853	328.3	0.3
0.8947	328.3	0.3
0.9025	328.3	0.3
0.9123	328.3	0.3
0.9223	328.3	0.3
0.9328	328.5	0.3
0.9533	328.7	0.3
0.9649	328.8	0.3
0.9761	329	0.3
0.9879	329.1	0.3
1	329.3	0.3

System: heptane + 1-hexyl-3-methylpyridinium 4-methylbenzenesulfonate; phases: Liquid, Crystal
Fixed: Pressure, kPa = 101
Property: Solid-liquid equilibrium temperature, K (Liquid); method: VISOBS
Mole fraction of heptane	Solid-liquid equilibrium temperature, K	uncertainty
0.8853	362.7	0.3
0.8947	356.1	0.3
0.9025	349.2	0.3
0.9123	338.8	0.3

System: octane + 1-hexyl-3-methylpyridinium 4-methylbenzenesulfonate; phases: Liquid, Crystal
Fixed: Pressure, kPa = 101
Property: Solid-liquid equilibrium temperature, K (Liquid); method: VISOBS
Mole fraction of octane	Solid-liquid equilibrium temperature, K	uncertainty
0.9384	328.7	0.3
0.9413	328.7	0.3
0.9476	328.7	0.3
0.9552	328.7	0.3
0.9639	328.8	0.3
0.9728	328.9	0.3
0.9825	329	0.3
0.9909	329.1	0.3
1	329.3	0.3

System: octane + 1-hexyl-3-methylpyridinium 4-methylbenzenesulfonate; phases: Liquid, Crystal
Fixed: Pressure, kPa = 101
Property: Solid-liquid equilibrium temperature, K (Liquid); method: VISOBS
Mole fraction of octane	Solid-liquid equilibrium temperature, K	uncertainty
0.9384	359.3	0.3
0.9413	355.3	0.3
0.9476	345.8	0.3
0.9552	336.5	0.3
