Measured thermophysical data. Effect of the pressure on the viscosities of ionic liquids: Experimental values for 1-ethyl-3-methylimidazolium ethylsulfate and two bis(trifluoromethyl-sulfonyl)  imide salts
Source: J. Chem. Thermodyn., 2012, 10.1016/j.jct.2012.05.007
Compound 1: 1-ethyl-3-methylimidazolium ethyl sulfate, C8H16N2O4S, InChI=1S/C6H11N2.C2H6O4S/c1-3-8-5-4-7(2)6-8;1-2-6-7(3,4)5/h4-6H,3H2,1-2H3;2H2,1H3,(H,3,4,5)/q+1;/p-1, purity 98.4%
Compound 2: 1-butyl-1-methylpyrrolidinium bis[(trifluoromethyl)sulfonyl]imide, C11H20F6N2O4S2, InChI=1S/C9H20N.C2F6NO4S2/c1-3-4-7-10(2)8-5-6-9-10;3-1(4,5)14(10,11)9-15(12,13)2(6,7)8/h3-9H2,1-2H3;/q+1;-1, purity 99.9%
Compound 3: 1-(2-methoxyethyl)-1-methylpyrrolidinium bis((trifluoromethyl)sulfonyl)amide, C10H18F6N2O5S2, InChI=1S/C8H18NO.C2F6NO4S2/c1-9(7-8-10-2)5-3-4-6-9;3-1(4,5)14(10,11)9-15(12,13)2(6,7)8/h3-8H2,1-2H3;/q+1;-1, purity 99.3%

System: 1-ethyl-3-methylimidazolium ethyl sulfate; phases: Liquid
Property: Viscosity, Pa*s (Liquid); method: Falling or rolling sphere viscometry
Temperature, K	Pressure, kPa	Viscosity, Pa*s	uncertainty
313.15	10000	0.0543	0.0056
313.15	15000	0.0564	0.0058
313.15	25000	0.0609	0.0063
313.15	50000	0.0736	0.0076
313.15	75000	0.0886	0.0092
313.15	100000	0.1066	0.0112
313.15	125000	0.1281	0.0137
313.15	150000	0.1538	0.0167
343.15	10000	0.0202	0.0022
343.15	15000	0.0209	0.0023
343.15	25000	0.0223	0.0024
343.15	50000	0.0261	0.0029
343.15	75000	0.0303	0.0034
343.15	100000	0.035	0.0039
343.15	125000	0.0402	0.0046
343.15	150000	0.0461	0.0053
363.15	10000	0.0132	0.0014
363.15	15000	0.0136	0.0014
363.15	25000	0.0145	0.0015
363.15	50000	0.0168	0.0018
363.15	75000	0.0192	0.002
363.15	100000	0.022	0.0023
363.15	125000	0.025	0.0026
363.15	150000	0.0282	0.003

System: 1-butyl-1-methylpyrrolidinium bis[(trifluoromethyl)sulfonyl]imide; phases: Liquid
Property: Viscosity, Pa*s (Liquid); method: Falling or rolling sphere viscometry
Temperature, K	Pressure, kPa	Viscosity, Pa*s	uncertainty
313.15	10000	0.0465	0.0048
313.15	15000	0.0495	0.0051
313.15	25000	0.0559	0.0057
313.15	50000	0.0748	0.0077
313.15	75000	0.0988	0.0104
313.15	100000	0.1294	0.0138
313.15	125000	0.1684	0.0184
313.15	150000	0.218	0.0245
343.15	10000	0.0182	0.002
343.15	15000	0.0191	0.0021
343.15	25000	0.0211	0.0023
343.15	50000	0.0266	0.0029
343.15	75000	0.0336	0.0037
343.15	100000	0.0421	0.0047
343.15	125000	0.0528	0.006
343.15	150000	0.0663	0.0076
363.15	10000	0.0122	0.0013
363.15	15000	0.0128	0.0013
363.15	25000	0.0141	0.0015
363.15	50000	0.0177	0.0018
363.15	75000	0.0219	0.0023
363.15	100000	0.0267	0.0028
363.15	125000	0.0322	0.0034
363.15	150000	0.0387	0.0041

System: 1-(2-methoxyethyl)-1-methylpyrrolidinium bis((trifluoromethyl)sulfonyl)amide; phases: Liquid
Property: Viscosity, Pa*s (Liquid); method: Falling or rolling sphere viscometry
Temperature, K	Pressure, kPa	Viscosity, Pa*s	uncertainty
313.15	10000	0.0333	0.0034
313.15	15000	0.0353	0.0036
313.15	25000	0.0395	0.004
313.15	50000	0.052	0.0053
313.15	75000	0.0675	0.0069
313.15	100000	0.0869	0.009
313.15	125000	0.1112	0.0117
313.15	150000	0.1415	0.0152
343.15	10000	0.0148	0.0016
343.15	15000	0.0155	0.0016
343.15	25000	0.017	0.0018
343.15	50000	0.0212	0.0023
343.15	75000	0.0262	0.0028
343.15	100000	0.0323	0.0035
343.15	125000	0.0396	0.0044
343.15	150000	0.0485	0.0054
363.15	10000	0.0102	0.0011
363.15	15000	0.0107	0.0011
363.15	25000	0.0116	0.0012
363.15	50000	0.0143	0.0015
363.15	75000	0.0175	0.0018
363.15	100000	0.0212	0.0022
363.15	125000	0.0255	0.0027
363.15	150000	0.0305	0.0032
