Measured thermophysical data. Thermo-physical properties of 1,3,4-oxadiazole derivatives in pure solvents
Source: J. Chem. Thermodyn., 2013, 10.1016/j.jct.2012.09.013
Compound 1: 2-((4-acetyl-5-methyl-5-p-tolyl-4,5-dihydro-1,3,4-oxadiazol-2-yl)methylthio)-3-o-tolylquinazolin-4(3H)-one, C28H26N4O3S, InChI=1S/C28H26N4O3S/c1-18-13-15-21(16-14-18)28(4)32(20(3)33)30-25(35-28)17-36-27-29-23-11-7-6-10-22(23)26(34)31(27)24-12-8-5-9-19(24)2/h5-16H,17H2,1-4H3, purity 99%
Compound 2: 2-((4-acetyl-5-(4-methoxyphenyl)-5-methyl-4,5-dihydro-1,3,4-oxadiazol-2-yl)methylthio)-3-o-tolylquinazolin-4(3H)-one, C28H26N4O4S, InChI=1S/C28H26N4O4S/c1-18-9-5-8-12-24(18)31-26(34)22-10-6-7-11-23(22)29-27(31)37-17-25-30-32(19(2)33)28(3,36-25)20-13-15-21(35-4)16-14-20/h5-16H,17H2,1-4H3, purity 99.3%
Compound 3: trichloromethane, CHCl3, InChI=1S/CHCl3/c2-1(3)4/h1H, purity 99.4%
Compound 4: dimethylformamide, C3H7NO, InChI=1S/C3H7NO/c1-4(2)3-5/h3H,1-2H3, purity 99.5%

System: trichloromethane; phases: Liquid
Fixed: Pressure, kPa = 101.325
Property: Mass density, kg/m3 (Liquid); method: Pycnometric method
Temperature, K	Mass density, kg/m3	uncertainty
303	1475.3	20
308	1470.8	20
313	1465.8	20

System: trichloromethane; phases: Liquid
Fixed: Pressure, kPa = 101.325
Property: Viscosity, Pa*s (Liquid); method: Capillary tube (Ostwald; Ubbelohde) method
Temperature, K	Viscosity, Pa*s	uncertainty
303	0.0006628	0.0001326
308	0.0006279	0.0001257
313	0.0005781	0.0001157

System: trichloromethane; phases: Liquid
Fixed: Pressure, kPa = 101.325
Property: Speed of sound, m/s (Liquid); method: Linear variable-path acoustic interferometer
Temperature, K	Speed of sound, m/s	uncertainty
303	960	4
308	950.8	4
313	932.4	3.9

System: dimethylformamide; phases: Liquid
Fixed: Pressure, kPa = 101.325
Property: Mass density, kg/m3 (Liquid); method: Pycnometric method
Temperature, K	Mass density, kg/m3	uncertainty
303	941.7	0.7
308	937.2	0.7
313	933.6	0.6

System: dimethylformamide; phases: Liquid
Fixed: Pressure, kPa = 101.325
Property: Viscosity, Pa*s (Liquid); method: Capillary tube (Ostwald; Ubbelohde) method
Temperature, K	Viscosity, Pa*s	uncertainty
303	0.0007588	0.0001519
308	0.0007056	0.0001412
313	0.0006353	0.0001272

System: dimethylformamide; phases: Liquid
Fixed: Pressure, kPa = 101.325
Property: Speed of sound, m/s (Liquid); method: Linear variable-path acoustic interferometer
Temperature, K	Speed of sound, m/s	uncertainty
303	1442	6
308	1432	5.9
313	1402	5.8

System: trichloromethane + 2-((4-acetyl-5-methyl-5-p-tolyl-4,5-dihydro-1,3,4-oxadiazol-2-yl)methylthio)-3-o-tolylquinazolin-4(3H)-one; phases: Liquid
Fixed: Pressure, kPa = 101
Property: Mass density, kg/m3 (Liquid); method: Pycnometric method
Temperature, K	Molality, mol/kg of 2-((4-acetyl-5-methyl-5-p-tolyl-4,5-dihydro-1,3,4-oxadiazol-2-yl)methylthio)-3-o-tolylquinazolin-4(3H)-one	Mass density, kg/m3	uncertainty
303	0	1475.3	20
303	0.677781	1475.9	20
303	1.355837	1476.1	20
303	2.712955	1476.4	20
303	4.071355	1476.7	20
303	5.431039	1477	20
303	6.790165	1477.7	20
308	0	1470.8	20
308	0.679809	1471.5	20
308	1.359708	1471.9	20
308	2.720705	1472.2	20
308	4.083269	1472.4	20
308	5.447681	1472.5	20
308	6.810512	1473.3	20
313	0	1465.8	20
313	0.682127	1466.5	20
313	1.364346	1466.9	20
313	2.729989	1467.2	20
313	4.09749	1467.3	20
313	5.46592	1467.6	20
313	6.833783	1468.3	20

System: trichloromethane + 2-((4-acetyl-5-methyl-5-p-tolyl-4,5-dihydro-1,3,4-oxadiazol-2-yl)methylthio)-3-o-tolylquinazolin-4(3H)-one; phases: Liquid
Fixed: Pressure, kPa = 101
Property: Viscosity, Pa*s (Liquid); method: Capillary tube (Ostwald; Ubbelohde) method
Temperature, K	Molality, mol/kg of 2-((4-acetyl-5-methyl-5-p-tolyl-4,5-dihydro-1,3,4-oxadiazol-2-yl)methylthio)-3-o-tolylquinazolin-4(3H)-one	Viscosity, Pa*s	uncertainty
303	0	0.0006628	0.0001326
303	0.677781	0.0006646	0.000133
303	1.355837	0.0006654	0.0001332
303	2.712955	0.0006663	0.0001334
303	4.071355	0.0006668	0.0001335
303	5.431039	0.0006681	0.0001337
303	6.790165	0.0006703	0.0001342
308	0	0.0006279	0.0001257
308	0.679809	0.0006293	0.000126
308	1.359708	0.0006302	0.0001261
308	2.720705	0.0006314	0.0001264
308	4.083269	0.0006326	0.0001266
308	5.447681	0.0006341	0.0001269
308	6.810512	0.0006367	0.0001274
313	0	0.0005781	0.0001157
313	0.682127	0.0005797	0.000116
313	1.364346	0.0005809	0.0001163
313	2.729989	0.0005824	0.0001166
313	4.09749	0.0005834	0.0001168
313	5.46592	0.0005849	0.0001171
313	6.833783	0.0005869	0.0001175

System: trichloromethane + 2-((4-acetyl-5-methyl-5-p-tolyl-4,5-dihydro-1,3,4-oxadiazol-2-yl)methylthio)-3-o-tolylquinazolin-4(3H)-one; phases: Liquid
Fixed: Pressure, kPa = 101
Property: Speed of sound, m/s (Liquid); method: Linear variable-path acoustic interferometer
Temperature, K	Molality, mol/kg of 2-((4-acetyl-5-methyl-5-p-tolyl-4,5-dihydro-1,3,4-oxadiazol-2-yl)methylthio)-3-o-tolylquinazolin-4(3H)-one	Speed of sound, m/s	uncertainty
303	0	960	4
303	0.677781	968	4.1
303	1.355837	969.2	4.1
303	2.712955	970.8	4.1
303	4.071355	972	4.1
303	5.431039	973.6	4.1
303	6.790165	975.6	4.2
308	0	950.8	4
308	0.679809	953.6	4
308	1.359708	954.4	4.1
308	2.720705	956.4	4.1
308	4.083269	958.4	4.1
308	5.447681	960	4.1
308	6.810512	963.6	4.1
313	0	932.4	3.9
313	0.682127	935.6	4
313	1.364346	936.4	4
313	2.729989	938	4
313	4.09749	938.8	4
313	5.46592	940.4	4
313	6.833783	943.6	4

System: dimethylformamide + 2-((4-acetyl-5-methyl-5-p-tolyl-4,5-dihydro-1,3,4-oxadiazol-2-yl)methylthio)-3-o-tolylquinazolin-4(3H)-one; phases: Liquid
Fixed: Pressure, kPa = 101
Property: Mass density, kg/m3 (Liquid); method: Pycnometric method
Temperature, K	Molality, mol/kg of 2-((4-acetyl-5-methyl-5-p-tolyl-4,5-dihydro-1,3,4-oxadiazol-2-yl)methylthio)-3-o-tolylquinazolin-4(3H)-one	Mass density, kg/m3	uncertainty
303	0	941.7	0.7
303	1.061907	942.2	0.6
303	2.124262	942.5	0.7
303	4.251668	942.8	0.7
303	6.380868	943.3	0.7
303	8.512317	943.8	0.8
303	10.64375	944.5	0.7
308	0	937.2	0.7
308	1.066323	938.3	0.7
308	2.133325	938.5	0.7
308	4.270277	938.7	0.7
308	6.410181	939	0.7
308	8.552357	939.4	0.7
308	10.68926	940.5	0.7
313	0	933.6	0.6
313	1.070662	934.5	0.7
313	2.141778	934.8	0.7
313	4.286752	935.1	0.7
313	6.434931	935.4	0.7
313	8.587242	935.6	0.7
313	10.73747	936.3	0.7

System: dimethylformamide + 2-((4-acetyl-5-methyl-5-p-tolyl-4,5-dihydro-1,3,4-oxadiazol-2-yl)methylthio)-3-o-tolylquinazolin-4(3H)-one; phases: Liquid
Fixed: Pressure, kPa = 101
Property: Viscosity, Pa*s (Liquid); method: Capillary tube (Ostwald; Ubbelohde) method
Temperature, K	Molality, mol/kg of 2-((4-acetyl-5-methyl-5-p-tolyl-4,5-dihydro-1,3,4-oxadiazol-2-yl)methylthio)-3-o-tolylquinazolin-4(3H)-one	Viscosity, Pa*s	uncertainty
303	0	0.0007588	0.0001519
303	1.061907	0.00076	0.0001521
303	2.124262	0.0007614	0.0001524
303	4.251668	0.0007636	0.0001528
303	6.380868	0.0007659	0.0001533
303	8.512317	0.0007693	0.000154
303	10.64375	0.0007727	0.0001547
308	0	0.0007056	0.0001412
308	1.066323	0.0007081	0.0001417
308	2.133325	0.0007101	0.0001421
308	4.270277	0.0007119	0.0001425
308	6.410181	0.0007135	0.0001428
308	8.552357	0.0007159	0.0001433
308	10.68926	0.0007193	0.000144
313	0	0.0006353	0.0001272
313	1.070662	0.000637	0.0001275
313	2.141778	0.000638	0.0001277
313	4.286752	0.00064	0.0001281
313	6.434931	0.0006426	0.0001286
313	8.587242	0.0006449	0.0001291
313	10.73747	0.0006486	0.0001298

System: dimethylformamide + 2-((4-acetyl-5-methyl-5-p-tolyl-4,5-dihydro-1,3,4-oxadiazol-2-yl)methylthio)-3-o-tolylquinazolin-4(3H)-one; phases: Liquid
Fixed: Pressure, kPa = 101
Property: Speed of sound, m/s (Liquid); method: Linear variable-path acoustic interferometer
Temperature, K	Molality, mol/kg of 2-((4-acetyl-5-methyl-5-p-tolyl-4,5-dihydro-1,3,4-oxadiazol-2-yl)methylthio)-3-o-tolylquinazolin-4(3H)-one	Speed of sound, m/s	uncertainty
303	0	1442	6
303	1.061907	1444.4	6
303	2.124262	1445.2	6
303	4.251668	1446.8	6
303	6.380868	1448.4	6
303	8.512317	1450.4	6
303	10.64375	1453.2	6
308	0	1432	5.9
308	1.066323	1434.8	6
308	2.133325	1436	6
308	4.270277	1436.8	6
308	6.410181	1438.4	6
308	8.552357	1440.8	6
308	10.68926	1446	6
313	0	1402	5.8
313	1.070662	1404.4	5.8
313	2.141778	1405.2	5.9
313	4.286752	1406.4	5.9
313	6.434931	1408.4	5.9
313	8.587242	1410	5.9
313	10.73747	1414	5.9

System: trichloromethane + 2-((4-acetyl-5-(4-methoxyphenyl)-5-methyl-4,5-dihydro-1,3,4-oxadiazol-2-yl)methylthio)-3-o-tolylquinazolin-4(3H)-one; phases: Liquid
Fixed: Pressure, kPa = 101
Property: Mass density, kg/m3 (Liquid); method: Pycnometric method
Temperature, K	Molality, mol/kg of 2-((4-acetyl-5-(4-methoxyphenyl)-5-methyl-4,5-dihydro-1,3,4-oxadiazol-2-yl)methylthio)-3-o-tolylquinazolin-4(3H)-one	Mass density, kg/m3	uncertainty
303	0	1475.3	20
303	0.677927	1475.6	20
303	1.355959	1476	20
303	2.713076	1476.4	20
303	4.071629	1476.7	20
303	5.431158	1477.1	20
303	6.792311	1477.4	20
308	0	1470.8	20
308	0.679909	1471.3	20
308	1.360016	1471.6	20
308	2.721197	1472	20
308	4.0841	1472.2	20
308	5.448172	1472.5	20
308	6.812671	1473	20
313	0	1465.8	20
313	0.682321	1466.1	20
313	1.364936	1466.3	20
313	2.731231	1466.6	20
313	4.098608	1467	20
313	5.467161	1467.4	20
313	6.836424	1467.9	20

System: trichloromethane + 2-((4-acetyl-5-(4-methoxyphenyl)-5-methyl-4,5-dihydro-1,3,4-oxadiazol-2-yl)methylthio)-3-o-tolylquinazolin-4(3H)-one; phases: Liquid
Fixed: Pressure, kPa = 101
Property: Viscosity, Pa*s (Liquid); method: Capillary tube (Ostwald; Ubbelohde) method
Temperature, K	Molality, mol/kg of 2-((4-acetyl-5-(4-methoxyphenyl)-5-methyl-4,5-dihydro-1,3,4-oxadiazol-2-yl)methylthio)-3-o-tolylquinazolin-4(3H)-one	Viscosity, Pa*s	uncertainty
303	0	0.0006628	0.0001326
303	0.677927	0.000664	0.0001329
303	1.355959	0.000665	0.0001331
303	2.713076	0.0006663	0.0001333
303	4.071629	0.0006679	0.0001337
303	5.431158	0.0006693	0.0001339
303	6.792311	0.0006705	0.0001342
308	0	0.0006279	0.0001257
308	0.679909	0.0006292	0.0001259
308	1.360016	0.0006301	0.0001261
308	2.721197	0.0006317	0.0001264
308	4.0841	0.0006333	0.0001267
308	5.448172	0.0006345	0.000127
308	6.812671	0.0006362	0.0001273
313	0	0.0005781	0.0001157
313	0.682321	0.0005792	0.0001159
313	1.364936	0.0005803	0.0001161
313	2.731231	0.0005818	0.0001164
313	4.098608	0.0005833	0.0001168
313	5.467161	0.0005848	0.000117
313	6.836424	0.0005867	0.0001174

System: trichloromethane + 2-((4-acetyl-5-(4-methoxyphenyl)-5-methyl-4,5-dihydro-1,3,4-oxadiazol-2-yl)methylthio)-3-o-tolylquinazolin-4(3H)-one; phases: Liquid
Fixed: Pressure, kPa = 101
Property: Speed of sound, m/s (Liquid); method: Linear variable-path acoustic interferometer
Temperature, K	Molality, mol/kg of 2-((4-acetyl-5-(4-methoxyphenyl)-5-methyl-4,5-dihydro-1,3,4-oxadiazol-2-yl)methylthio)-3-o-tolylquinazolin-4(3H)-one	Speed of sound, m/s	uncertainty
303	0	960	4
303	0.677927	963.6	4.1
303	1.355959	965.2	4.1
303	2.713076	968	4.1
303	4.071629	970.4	4.1
303	5.431158	972.4	4.1
303	6.792311	974.8	4.1
308	0	950.8	4
308	0.679909	952.4	4
308	1.360016	954	4
308	2.721197	955.2	4
308	4.0841	956.4	4
308	5.448172	958	4
308	6.812671	959.2	4
313	0	932.4	3.9
313	0.682321	933.2	3.9
313	1.364936	934	4
313	2.731231	936	4
313	4.098608	936.8	4
313	5.467161	938.4	4
313	6.836424	940	4

System: dimethylformamide + 2-((4-acetyl-5-(4-methoxyphenyl)-5-methyl-4,5-dihydro-1,3,4-oxadiazol-2-yl)methylthio)-3-o-tolylquinazolin-4(3H)-one; phases: Liquid
Fixed: Pressure, kPa = 101
Property: Mass density, kg/m3 (Liquid); method: Pycnometric method
Temperature, K	Molality, mol/kg of 2-((4-acetyl-5-(4-methoxyphenyl)-5-methyl-4,5-dihydro-1,3,4-oxadiazol-2-yl)methylthio)-3-o-tolylquinazolin-4(3H)-one	Mass density, kg/m3	uncertainty
303	0	941.7	0.7
303	1.062151	942	0.7
303	2.125239	942.1	0.7
303	4.253323	942.5	0.6
303	6.384936	942.8	0.6
303	8.519862	943.1	0.6
303	10.65583	943.6	0.6
308	0	937.2	0.7
308	1.066911	937.8	0.6
308	2.134083	938.2	0.6
308	4.270579	938.7	0.6
308	6.408122	939.4	0.6
308	8.548996	939.9	0.6
308	10.69229	940.4	0.6
313	0	933.6	0.6
313	1.070451	934.7	0.6
313	2.140707	935.3	0.6
313	4.284301	935.7	0.6
313	6.431476	936	0.6
313	8.584774	936	0.6
313	10.73707	936.5	0.7

System: dimethylformamide + 2-((4-acetyl-5-(4-methoxyphenyl)-5-methyl-4,5-dihydro-1,3,4-oxadiazol-2-yl)methylthio)-3-o-tolylquinazolin-4(3H)-one; phases: Liquid
Fixed: Pressure, kPa = 101
Property: Viscosity, Pa*s (Liquid); method: Capillary tube (Ostwald; Ubbelohde) method
Temperature, K	Molality, mol/kg of 2-((4-acetyl-5-(4-methoxyphenyl)-5-methyl-4,5-dihydro-1,3,4-oxadiazol-2-yl)methylthio)-3-o-tolylquinazolin-4(3H)-one	Viscosity, Pa*s	uncertainty
303	0	0.0007588	0.0001519
303	1.062151	0.0007603	0.0001522
303	2.125239	0.0007616	0.0001524
303	4.253323	0.0007646	0.000153
303	6.384936	0.000767	0.0001535
303	8.519862	0.0007692	0.0001539
303	10.65583	0.0007718	0.0001545
308	0	0.0007056	0.0001412
308	1.066911	0.0007072	0.0001415
308	2.134083	0.0007091	0.0001419
308	4.270579	0.0007116	0.0001424
308	6.408122	0.0007145	0.000143
308	8.548996	0.0007167	0.0001434
308	10.69229	0.0007197	0.000144
313	0	0.0006353	0.0001272
313	1.070451	0.0006369	0.0001275
313	2.140707	0.0006384	0.0001278
313	4.284301	0.0006406	0.0001282
313	6.431476	0.0006428	0.0001287
313	8.584774	0.0006452	0.0001291
313	10.73707	0.0006481	0.0001297

System: dimethylformamide + 2-((4-acetyl-5-(4-methoxyphenyl)-5-methyl-4,5-dihydro-1,3,4-oxadiazol-2-yl)methylthio)-3-o-tolylquinazolin-4(3H)-one; phases: Liquid
Fixed: Pressure, kPa = 101
Property: Speed of sound, m/s (Liquid); method: Linear variable-path acoustic interferometer
Temperature, K	Molality, mol/kg of 2-((4-acetyl-5-(4-methoxyphenyl)-5-methyl-4,5-dihydro-1,3,4-oxadiazol-2-yl)methylthio)-3-o-tolylquinazolin-4(3H)-one	Speed of sound, m/s	uncertainty
303	0	1442	6
303	1.062151	1446	6
303	2.125239	1448.8	6
303	4.253323	1455.2	6
303	6.384936	1458	6
303	8.519862	1462.4	6.1
303	10.65583	1467.2	6.1
308	0	1432	5.9
308	1.066911	1432.8	5.9
308	2.134083	1434.4	5.9
308	4.270579	1435.2	6
308	6.408122	1436.8	6
308	8.548996	1438	6
308	10.69229	1439.6	6
313	0	1402	5.8
313	1.070451	1403.2	5.8
313	2.140707	1404.8	5.8
313	4.284301	1408.4	5.9
313	6.431476	1411.2	5.9
313	8.584774	1413.2	5.9
313	10.73707	1416	5.9
