Measured thermophysical data. Measuring the density and viscosity of H2S-loaded aqueous methyldiethanolamine solution
Source: J. Chem. Thermodyn., 2016, 10.1016/j.jct.2016.06.007
Compound 1: hydrogen sulfide, H2S, InChI=1S/H2S/h1H2, purity 99.95%
Compound 2: N-methyldiethanolamine, C5H13NO2, InChI=1S/C5H13NO2/c1-6(2-4-7)3-5-8/h7-8H,2-5H2,1H3, purity 99%
Compound 3: water, H2O, InChI=1S/H2O/h1H2

System: N-methyldiethanolamine + water + hydrogen sulfide; phases: Liquid, Gas
Fixed: Solvent: Molality, mol/kg of N-methyldiethanolamine = 7.377
Property: Mole fraction of hydrogen sulfide (Liquid); method: Volumetric Method
Temperature, K	Pressure, kPa	Mole fraction of hydrogen sulfide	uncertainty
313.15	6.3	0	
313.15	12	0.0093	0.0008
313.15	18	0.0178	0.0008
313.15	42	0.0393	0.0011
313.15	59	0.0517	0.0011
313.15	103	0.0706	0.0013
313.15	152	0.0754	0.0014
313.15	309	0.0923	0.0016
313.15	441	0.0989	0.0018
313.15	649	0.1067	0.0019
313.15	779	0.1103	0.002
313.15	925	0.1142	0.0021
328.15	13.7	0	
328.15	21	0.0092	0.0007
328.15	30	0.0178	0.0008
328.15	67	0.0391	0.001
328.15	98	0.0513	0.0012
328.15	171	0.0699	0.0013
328.15	247	0.0744	0.0015
328.15	461	0.0907	0.0016
328.15	603	0.0973	0.0017
328.15	855	0.1047	0.0019
328.15	971	0.1086	0.002
343.15	27.4	0	
343.15	38	0.0092	0.0006
343.15	54	0.0176	0.0007
343.15	116	0.0386	0.001
343.15	168	0.0507	0.0011
343.15	279	0.0689	0.0013
343.15	380	0.073	0.0015
343.15	617	0.0893	0.0016
343.15	810	0.0954	0.0017
343.15	1093	0.1026	0.0019

System: N-methyldiethanolamine + water + hydrogen sulfide; phases: Liquid
Fixed: Solvent: Molality, mol/kg of N-methyldiethanolamine = 7.377
Property: Mass density, kg/m3 (Liquid); method: Vibrating tube method
Temperature, K	Pressure, kPa	Mole fraction of hydrogen sulfide	Mass density, kg/m3	uncertainty
313.15	6.3	0	1031.4	2.5
313.15	12	0.0093	1039	3.1
313.15	18	0.0178	1043.5	2.6
313.15	42	0.0393	1054.5	2.6
313.15	59	0.0517	1060.5	2.6
313.15	103	0.0706	1068.4	2.5
313.15	152	0.0754	1072.1	2.5
313.15	309	0.0923	1077.9	2.6
313.15	441	0.0989	1079.4	2.7
313.15	649	0.1067	1079.9	2.7
313.15	779	0.1103	1080	2.7
313.15	925	0.1142	1080	2.7
328.15	13.7	0	1021.6	3.2
328.15	21	0.0092	1029.4	2.5
328.15	30	0.0178	1034.1	2.6
328.15	67	0.0391	1045.5	2.6
328.15	98	0.0513	1051.5	2.6
328.15	171	0.0699	1059.5	2.5
328.15	247	0.0744	1063.8	2.5
328.15	461	0.0907	1068.6	2.7
328.15	603	0.0973	1069.9	2.7
328.15	855	0.1047	1070.8	2.7
328.15	971	0.1086	1070.8	2.8
343.15	27.4	0	1009.7	3.2
343.15	38	0.0092	1018.6	2.5
343.15	54	0.0176	1023	2.6
343.15	116	0.0386	1035	2.5
343.15	168	0.0507	1040.5	2.5
343.15	279	0.0689	1048.8	2.5
343.15	380	0.073	1052.7	2.6
343.15	617	0.0893	1056.8	2.6
343.15	810	0.0954	1058.3	2.7
343.15	1093	0.1026	1059.4	2.7

System: N-methyldiethanolamine + water + hydrogen sulfide; phases: Liquid
Fixed: Solvent: Molality, mol/kg of N-methyldiethanolamine = 7.377
Property: Viscosity, Pa*s (Liquid); method: Falling or rolling sphere viscometry
Temperature, K	Pressure, kPa	Mole fraction of hydrogen sulfide	Viscosity, Pa*s	uncertainty
313.15	6.3	0	0.00423	0.00016
313.15	12	0.0093	0.0042	0.00016
313.15	18	0.0178	0.00406	0.00016
313.15	42	0.0393	0.00376	6e-05
313.15	59	0.0517	0.00371	0.00016
313.15	103	0.0706	0.00365	8e-05
313.15	152	0.0754	0.00359	0.00016
313.15	309	0.0923	0.00355	0.00016
313.15	441	0.0989	0.00354	0.00016
313.15	649	0.1067	0.00346	0.00012
313.15	779	0.1103	0.00341	0.00016
313.15	925	0.1142	0.00336	0.00012
328.15	13.7	0	0.00282	0.00014
328.15	21	0.0092	0.00281	9e-05
328.15	30	0.0178	0.00278	0.0001
328.15	67	0.0391	0.00271	0.0001
328.15	98	0.0513	0.00265	0.00011
328.15	171	0.0699	0.0026	0.00015
328.15	247	0.0744	0.00254	0.00014
328.15	461	0.0907	0.00251	7e-05
328.15	603	0.0973	0.00243	0.00014
328.15	855	0.1047	0.00241	0.00014
328.15	971	0.1086	0.0024	0.00014
343.15	27.4	0	0.00183	4e-05
343.15	38	0.0092	0.00188	4e-05
343.15	54	0.0176	0.00183	7e-05
343.15	116	0.0386	0.00185	0.00013
343.15	168	0.0507	0.00192	4e-05
343.15	279	0.0689	0.0019	8e-05
343.15	380	0.073	0.00182	0.0001
343.15	617	0.0893	0.00186	4e-05
343.15	810	0.0954	0.00183	0.00013
343.15	1093	0.1026	0.00184	9e-05

System: N-methyldiethanolamine + water; phases: Liquid
Fixed: Molality, mol/kg of N-methyldiethanolamine = 7.377
Property: Mass density, kg/m3 (Liquid); method: Vibrating tube method
Pressure, kPa	Temperature, K	Mass density, kg/m3	uncertainty
6.3	313.15	1031.4	2.5
13.7	328.15	1021.6	2.5
27.4	343.15	1009.7	2.5

System: N-methyldiethanolamine + water; phases: Liquid
Fixed: Molality, mol/kg of N-methyldiethanolamine = 7.377
Property: Viscosity, Pa*s (Liquid); method: Falling or rolling sphere viscometry
Pressure, kPa	Temperature, K	Viscosity, Pa*s	uncertainty
6.3	313.15	0.00423	0.00016
13.7	328.15	0.00282	0.00014
27.4	343.15	0.00183	4e-05

System: N-methyldiethanolamine + water; phases: Liquid, Gas
Fixed: Molality, mol/kg of N-methyldiethanolamine = 7.377
Property: Vapor or sublimation pressure, kPa (Liquid); method: Closed cell (Static) method
Temperature, K	Vapor or sublimation pressure, kPa	uncertainty
313.15	6.3	0.6
328.15	13.7	0.6
343.15	27.4	0.6
