Measured thermophysical data. Enthalpies of solution of 1,1,3,3-tetramethylurea in normal and branched alkanols (C2 C4) at 298.15 K
Source: J. Chem. Thermodyn., 2007, 10.1016/j.jct.2007.04.008
Compound 1: tetramethylurea, C5H12N2O, InChI=1S/C5H12N2O/c1-6(2)5(8)7(3)4/h1-4H3
Compound 2: ethanol, C2H6O, InChI=1S/C2H6O/c1-2-3/h3H,2H2,1H3, purity 99.8%
Compound 3: propan-1-ol, C3H8O, InChI=1S/C3H8O/c1-2-3-4/h4H,2-3H2,1H3, purity 99.8%
Compound 4: propan-2-ol, C3H8O, InChI=1S/C3H8O/c1-3(2)4/h3-4H,1-2H3, purity 99.8%
Compound 5: butan-1-ol, C4H10O, InChI=1S/C4H10O/c1-2-3-4-5/h5H,2-4H2,1H3, purity 99.8%
Compound 6: 2-methylpropan-2-ol, C4H10O, InChI=1S/C4H10O/c1-4(2,3)5/h5H,1-3H3, purity 99.8%

System: propan-1-ol + tetramethylurea; phases: Liquid
Fixed: Pressure, kPa = 101
Fixed: Temperature, K = 298.15
Property: Molar enthalpy of solution, kJ/mol (Liquid); method: ISOPERIBOL
Amount ratio of solute to solvent of tetramethylurea	Molar enthalpy of solution, kJ/mol	uncertainty
0.01374	-0.35	0.03
0.01758	-0.34	0.03
0.01918	-0.35	0.03
0.02123	-0.32	0.03
0.02705	-0.38	0.03

System: butan-1-ol + tetramethylurea; phases: Liquid
Fixed: Pressure, kPa = 101
Fixed: Temperature, K = 298.15
Property: Molar enthalpy of solution, kJ/mol (Liquid); method: ISOPERIBOL
Amount ratio of solute to solvent of tetramethylurea	Molar enthalpy of solution, kJ/mol	uncertainty
0.01515	0.34	0.02
0.01787	0.31	0.02
0.01945	0.33	0.02
0.0201	0.33	0.02
0.02429	0.34	0.02

System: ethanol + tetramethylurea; phases: Liquid
Fixed: Pressure, kPa = 101
Fixed: Temperature, K = 298.15
Property: Molar enthalpy of solution, kJ/mol (Liquid); method: ISOPERIBOL
Amount ratio of solute to solvent of tetramethylurea	Molar enthalpy of solution, kJ/mol	uncertainty
0.009669	-1.32	0.06
0.01659	-1.3	0.06
0.01947	-1.37	0.06
0.0274	-1.29	0.06
0.03644	-1.23	0.06

System: propan-2-ol + tetramethylurea; phases: Liquid
Fixed: Pressure, kPa = 101
Fixed: Temperature, K = 298.15
Property: Molar enthalpy of solution, kJ/mol (Liquid); method: ISOPERIBOL
Amount ratio of solute to solvent of tetramethylurea	Molar enthalpy of solution, kJ/mol	uncertainty
0.007398	1.41	0.04
0.01117	1.43	0.04
0.01477	1.36	0.04
0.01767	1.37	0.04
0.02177	1.4	0.04

System: 2-methylpropan-2-ol + tetramethylurea; phases: Liquid
Fixed: Pressure, kPa = 101
Fixed: Temperature, K = 299.15
Property: Molar enthalpy of solution, kJ/mol (Liquid); method: ISOPERIBOL
Amount ratio of solute to solvent of tetramethylurea	Molar enthalpy of solution, kJ/mol	uncertainty
0.01154	-2.36	0.1
0.01294	-2.43	0.1
0.01475	-2.44	0.1
0.01805	-2.35	0.1
0.02604	-2.54	0.1
