Measured thermophysical data. Pressure-volume-temperature measurements of phosphonium-based ionic liquids and analysis with simple equations of state
Source: J. Chem. Thermodyn., 2011, 10.1016/j.jct.2011.01.009
Compound 1: trihexyl(tetradecyl)phosphonium chloride, C32H68ClP, InChI=1S/C32H68P.ClH/c1-5-9-13-17-18-19-20-21-22-23-24-28-32-33(29-25-14-10-6-2,30-26-15-11-7-3)31-27-16-12-8-4;/h5-32H2,1-4H3;1H/q+1;/p-1, purity 97%
Compound 2: tetradecyl(trihexyl)phosphonium dicyanamide, C34H68N3P, InChI=1S/C32H68P.C2N3/c1-5-9-13-17-18-19-20-21-22-23-24-28-32-33(29-25-14-10-6-2,30-26-15-11-7-3)31-27-16-12-8-4;3-1-5-2-4/h5-32H2,1-4H3;/q+1;-1, purity 97%

System: trihexyl(tetradecyl)phosphonium chloride; phases: Liquid
Property: Mass density, kg/m3 (Liquid); method: Vibrating tube method
Temperature, K	Pressure, kPa	Mass density, kg/m3	uncertainty
273.15	100	907.27	1.77
273.15	1000	908.13	1.77
273.15	3000	908.79	1.78
273.15	5000	909.7	1.78
273.15	7500	910.67	1.79
273.15	10000	911.81	1.8
273.15	15000	913.97	1.82
273.15	20000	915.8	1.83
273.15	25000	917.77	1.85
278.15	100	903.75	1.76
278.15	1000	904.47	1.76
278.15	3000	905.43	1.77
278.15	5000	906.58	1.78
278.15	7500	907.46	1.78
278.15	10000	908.52	1.79
278.15	15000	911.19	1.81
278.15	20000	912.64	1.83
278.15	25000	914.68	1.84
283.15	100	900.9	1.75
283.15	1000	901.33	1.75
283.15	3000	902.12	1.76
283.15	5000	903.22	1.77
283.15	7500	904.46	1.78
283.15	10000	905.27	1.79
283.15	15000	907.3	1.8
283.15	20000	909.49	1.82
283.15	25000	911.49	1.84
288.15	100	897.45	1.74
288.15	1000	897.85	1.75
288.15	3000	898.83	1.75
288.15	5000	899.71	1.76
288.15	7500	900.85	1.77
288.15	10000	901.93	1.78
288.15	15000	904.14	1.8
288.15	20000	906.23	1.82
288.15	25000	908.25	1.83
293.15	100	894.37	1.74
293.15	1000	894.95	1.74
293.15	3000	895.71	1.75
293.15	5000	896.67	1.76
293.15	7500	897.94	1.77
293.15	10000	898.93	1.78
293.15	15000	901.09	1.79
293.15	20000	903.27	1.81
293.15	25000	905.31	1.83
298.15	100	891.15	1.73
298.15	1000	891.55	1.73
298.15	3000	892.51	1.74
298.15	5000	893.38	1.75
298.15	7500	894.65	1.76
298.15	10000	895.83	1.77
298.15	15000	898.07	1.79
298.15	20000	900.27	1.81
298.15	25000	902.4	1.82
308.15	100	884.8	1.72
308.15	1000	885.24	1.72
308.15	3000	886.29	1.73
308.15	5000	887.27	1.74
308.15	7500	888.49	1.75
308.15	10000	889.72	1.76
308.15	15000	892.07	1.78
308.15	20000	894.36	1.8
308.15	25000	896.58	1.82
318.15	100	878.92	1.7
318.15	1000	879.1	1.71
318.15	3000	880.44	1.72
318.15	5000	881.4	1.72
318.15	7500	882.85	1.74
318.15	10000	884.11	1.75
318.15	15000	886.56	1.77
318.15	20000	888.94	1.79
318.15	25000	891.28	1.81

System: tetradecyl(trihexyl)phosphonium dicyanamide; phases: Liquid
Property: Mass density, kg/m3 (Liquid); method: Vibrating tube method
Temperature, K	Pressure, kPa	Mass density, kg/m3	uncertainty
273.15	100	914.72	1.78
273.15	2500	915.73	1.79
273.15	5000	916.77	1.8
273.15	7500	917.93	1.81
273.15	10000	918.84	1.81
273.15	15000	920.82	1.83
273.15	20000	922.72	1.84
273.15	25000	924.57	1.86
273.15	30000	926.33	1.87
273.15	35000	928.17	1.89
273.15	100	914.79	1.78
273.15	2500	915.74	1.79
273.15	5000	916.76	1.8
273.15	7500	917.78	1.81
273.15	10000	918.75	1.81
273.15	15000	920.74	1.83
273.15	20000	922.64	1.84
273.15	25000	924.5	1.86
273.15	30000	926.31	1.87
278.15	100	910.78	1.77
278.15	2500	912.71	1.78
278.15	5000	913.76	1.79
278.15	7500	914.81	1.8
278.15	10000	915.82	1.81
278.15	15000	917.81	1.82
278.15	20000	919.76	1.84
278.15	25000	921.68	1.85
278.15	30000	923.53	1.87
278.15	35000	925.34	1.88
278.15	100	911.71	1.77
278.15	2500	912.8	1.78
278.15	5000	913.73	1.79
278.15	7500	914.79	1.8
278.15	10000	915.74	1.81
278.15	15000	917.79	1.82
278.15	20000	919.72	1.84
278.15	25000	921.62	1.85
278.15	30000	923.49	1.87
283.15	100	908.65	1.77
283.15	2500	909.47	1.78
283.15	5000	910.54	1.78
283.15	7500	911.57	1.79
283.15	10000	912.7	1.8
283.15	15000	914.83	1.82
283.15	20000	916.8	1.83
283.15	25000	918.71	1.85
283.15	30000	920.6	1.86
283.15	35000	922.41	1.88
283.15	100	908.52	1.77
283.15	2500	909.56	1.78
283.15	5000	910.63	1.78
283.15	7500	911.68	1.79
283.15	10000	912.69	1.8
283.15	15000	914.74	1.82
283.15	20000	916.71	1.83
283.15	25000	918.64	1.85
283.15	30000	920.53	1.86
288.15	100	905.56	1.76
288.15	2500	906.63	1.77
288.15	5000	907.52	1.78
288.15	7500	908.8	1.79
288.15	10000	909.71	1.8
288.15	15000	911.81	1.81
288.15	20000	913.83	1.83
288.15	25000	915.83	1.85
288.15	30000	917.78	1.86
288.15	35000	919.69	1.88
288.15	100	905.57	1.76
288.15	2500	906.64	1.77
288.15	5000	907.73	1.78
288.15	10000	909.81	1.8
288.15	20000	913.8	1.83
288.15	30000	917.77	1.86
293.15	100	902.61	1.75
293.15	2500	903.52	1.76
293.15	5000	904.55	1.77
293.15	7500	905.78	1.78
293.15	10000	906.91	1.79
293.15	15000	909.05	1.81
293.15	20000	911.39	1.83
293.15	25000	913.33	1.84
293.15	30000	915.24	1.86
293.15	35000	917.08	1.87
293.15	100	902.73	1.75
293.15	5000	904.87	1.77
293.15	15000	909.2	1.81
293.15	20000	911.22	1.83
293.15	25000	913.24	1.84
293.15	30000	915.16	1.86
298.15	100	899.5	1.75
298.15	2500	900.65	1.76
298.15	5000	901.73	1.77
298.15	7500	902.97	1.78
298.15	10000	903.97	1.78
298.15	15000	906.1	1.8
298.15	20000	908.21	1.82
298.15	25000	910.24	1.84
298.15	30000	912.21	1.85
298.15	35000	914.17	1.87
298.15	5000	901.69	1.77
298.15	10000	903.93	1.78
298.15	15000	906.03	1.8
298.15	20000	908.14	1.82
298.15	25000	910.2	1.84
298.15	30000	912.14	1.85
303.15	100	896.7	1.74
303.15	2500	897.69	1.75
303.15	5000	898.93	1.76
303.15	7500	900.11	1.77
303.15	10000	901.21	1.78
303.15	15000	903.37	1.8
303.15	20000	905.53	1.82
303.15	25000	907.6	1.83
303.15	30000	909.6	1.85
303.15	35000	911.58	1.87
303.15	100	896.65	1.74
303.15	2500	897.77	1.75
303.15	5000	898.93	1.76
303.15	7500	900.11	1.77
303.15	10000	901.23	1.78
303.15	15000	903.41	1.8
303.15	20000	905.57	1.82
303.15	25000	907.6	1.83
303.15	30000	909.59	1.85
308.15	100	893.53	1.73
308.15	2500	895.12	1.74
308.15	5000	895.98	1.75
308.15	7500	897.21	1.76
308.15	10000	898.36	1.77
308.15	15000	900.6	1.79
308.15	20000	902.77	1.81
308.15	25000	904.88	1.83
308.15	30000	906.95	1.85
308.15	35000	908.93	1.86
308.15	100	893.7	1.73
313.15	100	890.87	1.73
313.15	2500	891.96	1.74
313.15	5000	893.16	1.75
313.15	7500	894.35	1.76
313.15	10000	895.52	1.77
313.15	15000	897.78	1.79
313.15	20000	899.96	1.81
313.15	25000	902.13	1.82
313.15	30000	904.23	1.84
313.15	35000	906.24	1.86
313.15	100	890.81	1.73
313.15	2500	891.87	1.74
313.15	5000	893.15	1.75
313.15	7500	894.35	1.76
313.15	10000	895.49	1.77
313.15	15000	897.77	1.79
313.15	20000	899.97	1.81
313.15	25000	902.07	1.82
313.15	30000	904.18	1.84
318.15	100	887.94	1.72
318.15	2500	889.16	1.73
318.15	5000	890.41	1.74
318.15	7500	891.59	1.75
318.15	10000	892.8	1.76
318.15	15000	895.05	1.78
318.15	20000	897.35	1.8
318.15	25000	899.53	1.82
318.15	30000	901.66	1.84
318.15	35000	903.72	1.86
318.15	100	887.97	1.72
318.15	2500	889.16	1.73
318.15	5000	890.38	1.74
318.15	7500	891.61	1.75
318.15	10000	892.77	1.76
318.15	15000	895.09	1.78
318.15	20000	897.33	1.8
318.15	25000	899.51	1.82
318.15	30000	901.61	1.84
