Measured thermophysical data. Separation of binary mixtures hexane/hex-1-ene, cyclohexane/cyclohexene and ethylbenzene/styrene based on limiting activity coefficients
Source: J. Chem. Thermodyn., 2017, 10.1016/j.jct.2017.03.004
Compound 1: N-(3-hydroxypropyl)pyridinium dicyanamide, C10H12N4O, InChI=1S/C8H12NO.C2N3/c10-8-4-7-9-5-2-1-3-6-9;3-1-5-2-4/h1-3,5-6,10H,4,7-8H2;/q+1;-1
Compound 2: hexane, C6H14, InChI=1S/C6H14/c1-3-5-6-4-2/h3-6H2,1-2H3, purity 99%
Compound 3: 3-methylpentane, C6H14, InChI=1S/C6H14/c1-4-6(3)5-2/h6H,4-5H2,1-3H3, purity 99%
Compound 4: heptane, C7H16, InChI=1S/C7H16/c1-3-5-7-6-4-2/h3-7H2,1-2H3, purity 99.5%
Compound 5: octane, C8H18, InChI=1S/C8H18/c1-3-5-7-8-6-4-2/h3-8H2,1-2H3, purity 99%
Compound 6: 2,2,4-trimethylpentane, C8H18, InChI=1S/C8H18/c1-7(2)6-8(3,4)5/h7H,6H2,1-5H3, purity 99%
Compound 7: nonane, C9H20, InChI=1S/C9H20/c1-3-5-7-9-8-6-4-2/h3-9H2,1-2H3, purity 99%
Compound 8: decane, C10H22, InChI=1S/C10H22/c1-3-5-7-9-10-8-6-4-2/h3-10H2,1-2H3, purity 99%
Compound 9: cyclopentane, C5H10, InChI=1S/C5H10/c1-2-4-5-3-1/h1-5H2, purity 99%
Compound 10: cyclohexane, C6H12, InChI=1S/C6H12/c1-2-4-6-5-3-1/h1-6H2, purity 99%
Compound 11: methylcyclohexane, C7H14, InChI=1S/C7H14/c1-7-5-3-2-4-6-7/h7H,2-6H2,1H3, purity 99%
Compound 12: cycloheptane, C7H14, InChI=1S/C7H14/c1-2-4-6-7-5-3-1/h1-7H2, purity 98%
Compound 13: cyclooctane, C8H16, InChI=1S/C8H16/c1-2-4-6-8-7-5-3-1/h1-8H2, purity 99%
Compound 14: 1-pentene, C5H10, InChI=1S/C5H10/c1-3-5-4-2/h3H,1,4-5H2,2H3, purity 98.5%
Compound 15: hex-1-ene, C6H12, InChI=1S/C6H12/c1-3-5-6-4-2/h3H,1,4-6H2,2H3, purity 99%
Compound 16: cyclohexene, C6H10, InChI=1S/C6H10/c1-2-4-6-5-3-1/h1-2H,3-6H2, purity 99%
Compound 17: 1-heptene, C7H14, InChI=1S/C7H14/c1-3-5-7-6-4-2/h3H,1,4-7H2,2H3, purity 99%
Compound 18: oct-1-ene, C8H16, InChI=1S/C8H16/c1-3-5-7-8-6-4-2/h3H,1,4-8H2,2H3, purity 98%
Compound 19: 1-decene, C10H20, InChI=1S/C10H20/c1-3-5-7-9-10-8-6-4-2/h3H,1,4-10H2,2H3, purity 97%
Compound 20: 1-pentyne, C5H8, InChI=1S/C5H8/c1-3-5-4-2/h1H,4-5H2,2H3, purity 99%
Compound 21: 1-hexyne, C6H10, InChI=1S/C6H10/c1-3-5-6-4-2/h1H,4-6H2,2H3, purity 97%
Compound 22: 1-heptyne, C7H12, InChI=1S/C7H12/c1-3-5-7-6-4-2/h1H,4-7H2,2H3, purity 98%
Compound 23: 1-octyne, C8H14, InChI=1S/C8H14/c1-3-5-7-8-6-4-2/h1H,4-8H2,2H3, purity 97%
Compound 24: benzene, C6H6, InChI=1S/C6H6/c1-2-4-6-5-3-1/h1-6H, purity 99.8%
Compound 25: toluene, C7H8, InChI=1S/C7H8/c1-7-5-3-2-4-6-7/h2-6H,1H3, purity 99.8%
Compound 26: ethylbenzene, C8H10, InChI=1S/C8H10/c1-2-8-6-4-3-5-7-8/h3-7H,2H2,1H3, purity 99.8%
Compound 27: 1,2-dimethylbenzene, C8H10, InChI=1S/C8H10/c1-7-5-3-4-6-8(7)2/h3-6H,1-2H3, purity 99%
Compound 28: 1,3-dimethylbenzene, C8H10, InChI=1S/C8H10/c1-7-4-3-5-8(2)6-7/h3-6H,1-2H3, purity 99%
Compound 29: 1,4-dimethylbenzene, C8H10, InChI=1S/C8H10/c1-7-3-5-8(2)6-4-7/h3-6H,1-2H3, purity 99%
Compound 30: propylbenzene, C9H12, InChI=1S/C9H12/c1-2-6-9-7-4-3-5-8-9/h3-5,7-8H,2,6H2,1H3, purity 98%
Compound 31: isopropylbenzene, C9H12, InChI=1S/C9H12/c1-8(2)9-6-4-3-5-7-9/h3-8H,1-2H3, purity 99%
Compound 32: styrene, C8H8, InChI=1S/C8H8/c1-2-8-6-4-3-5-7-8/h2-7H,1H2, purity 99.9%
Compound 33: (1-methylethenyl)benzene, C9H10, InChI=1S/C9H10/c1-8(2)9-6-4-3-5-7-9/h3-7H,1H2,2H3, purity 99%
Compound 34: thiophene, C4H4S, InChI=1S/C4H4S/c1-2-4-5-3-1/h1-4H, purity 99%
Compound 35: pyridine, C5H5N, InChI=1S/C5H5N/c1-2-4-6-5-3-1/h1-5H, purity 99.8%
Compound 36: methanol, CH4O, InChI=1S/CH4O/c1-2/h2H,1H3, purity 99.9%
Compound 37: ethanol, C2H6O, InChI=1S/C2H6O/c1-2-3/h3H,2H2,1H3, purity 99.8%
Compound 38: propan-1-ol, C3H8O, InChI=1S/C3H8O/c1-2-3-4/h4H,2-3H2,1H3, purity 99.9%
Compound 39: propan-2-ol, C3H8O, InChI=1S/C3H8O/c1-3(2)4/h3-4H,1-2H3, purity 99.9%
Compound 40: butan-1-ol, C4H10O, InChI=1S/C4H10O/c1-2-3-4-5/h5H,2-4H2,1H3, purity 99.8%
Compound 41: butan-2-ol, C4H10O, InChI=1S/C4H10O/c1-3-4(2)5/h4-5H,3H2,1-2H3, purity 99.5%
Compound 42: 2-methyl-1-propanol, C4H10O, InChI=1S/C4H10O/c1-4(2)3-5/h4-5H,3H2,1-2H3, purity 99.8%
Compound 43: 2-methylpropan-2-ol, C4H10O, InChI=1S/C4H10O/c1-4(2,3)5/h5H,1-3H3, purity 99.7%
Compound 44: pentan-1-ol, C5H12O, InChI=1S/C5H12O/c1-2-3-4-5-6/h6H,2-5H2,1H3, purity 99.8%
Compound 45: water, H2O, InChI=1S/H2O/h1H2
Compound 46: methyl ethanoate, C3H6O2, InChI=1S/C3H6O2/c1-3(4)5-2/h1-2H3, purity 99.8%
Compound 47: methyl propanoate, C4H8O2, InChI=1S/C4H8O2/c1-3-4(5)6-2/h3H2,1-2H3, purity 99%
Compound 48: methyl butanoate, C5H10O2, InChI=1S/C5H10O2/c1-3-4-5(6)7-2/h3-4H2,1-2H3, purity 99%
Compound 49: ethyl acetate, C4H8O2, InChI=1S/C4H8O2/c1-3-6-4(2)5/h3H2,1-2H3, purity 99.8%
Compound 50: tetrahydrofuran, C4H8O, InChI=1S/C4H8O/c1-2-4-5-3-1/h1-4H2, purity 99.9%
Compound 51: 1,4-dioxane, C4H8O2, InChI=1S/C4H8O2/c1-2-6-4-3-5-1/h1-4H2, purity 99.8%
Compound 52: 2-methoxy-2-methylpropane, C5H12O, InChI=1S/C5H12O/c1-5(2,3)6-4/h1-4H3, purity 99.8%
Compound 53: 2-ethoxy-2-methylpropane, C6H14O, InChI=1S/C6H14O/c1-5-7-6(2,3)4/h5H2,1-4H3, purity 99%
Compound 54: 2-methoxy-2-methylbutane, C6H14O, InChI=1S/C6H14O/c1-5-6(2,3)7-4/h5H2,1-4H3, purity 97%
Compound 55: diethyl ether, C4H10O, InChI=1S/C4H10O/c1-3-5-4-2/h3-4H2,1-2H3, purity 99.9%
Compound 56: dipropyl ether, C6H14O, InChI=1S/C6H14O/c1-3-5-7-6-4-2/h3-6H2,1-2H3, purity 99%
Compound 57: diisopropyl ether, C6H14O, InChI=1S/C6H14O/c1-5(2)7-6(3)4/h5-6H,1-4H3, purity 99%
Compound 58: dibutyl ether, C8H18O, InChI=1S/C8H18O/c1-3-5-7-9-8-6-4-2/h3-8H2,1-2H3, purity 99.3%
Compound 59: acetone, C3H6O, InChI=1S/C3H6O/c1-3(2)4/h1-2H3, purity 99.9%
Compound 60: pentan-2-one, C5H10O, InChI=1S/C5H10O/c1-3-4-5(2)6/h3-4H2,1-2H3, purity 99%
Compound 61: pentan-3-one, C5H10O, InChI=1S/C5H10O/c1-3-5(6)4-2/h3-4H2,1-2H3, purity 99%
Compound 62: butanal, C4H8O, InChI=1S/C4H8O/c1-2-3-4-5/h4H,2-3H2,1H3, purity 99%
Compound 63: acetonitrile, C2H3N, InChI=1S/C2H3N/c1-2-3/h1H3, purity 99.9%
Compound 64: 1-nitropropane, C3H7NO2, InChI=1S/C3H7NO2/c1-2-3-4(5)6/h2-3H2,1H3, purity 98.5%

System: N-(3-hydroxypropyl)pyridinium dicyanamide; phases: Glass, Liquid, Air at 1 atmosphere
Property: Triple point temperature, K (Glass); method: DSC
Triple point temperature, K	uncertainty
192	0.8

System: N-(3-hydroxypropyl)pyridinium dicyanamide; phases: Liquid
Fixed: Pressure, kPa = 101
Property: Mass density, kg/m3 (Liquid); method: Vibrating tube method
Temperature, K	Mass density, kg/m3	uncertainty
298.15	1171.01	2.88
303.15	1167.78	2.88
308.15	1164.58	2.88
313.15	1161.4	2.87
318.15	1158.23	2.87
323.15	1155.09	2.87
328.15	1151.97	2.87
333.15	1148.86	2.87
338.15	1145.77	2.87
343.15	1142.69	2.87
348.15	1139.63	2.87
353.15	1136.59	2.87
358.15	1133.57	2.87
363.15	1130.58	2.87
368.15	1127.62	2.87

System: N-(3-hydroxypropyl)pyridinium dicyanamide; phases: Liquid
Fixed: Pressure, kPa = 101
Property: Viscosity, Pa*s (Liquid); method: Falling or rolling sphere viscometry
Temperature, K	Viscosity, Pa*s	uncertainty
298.15	0.115	0.004
308.15	0.0708	0.0018
318.15	0.0471	0.0011
328.15	0.0329	0.0008
338.15	0.0234	0.0006
348.15	0.0178	0.0004
358.15	0.014	0.0003

System: N-(3-hydroxypropyl)pyridinium dicyanamide + hexane; phases: Liquid
Fixed: Mole fraction of hexane = 0
Fixed: Pressure, kPa = 101.325
Property: Activity coefficient of hexane (Liquid); method: Chromatography
Temperature, K	Activity coefficient of hexane	uncertainty
298.15	364	25
308.15	328	23
318.15	296	20
328.15	269	18

System: N-(3-hydroxypropyl)pyridinium dicyanamide + 3-methylpentane; phases: Liquid
Fixed: Mole fraction of 3-methylpentane = 0
Fixed: Pressure, kPa = 101.325
Property: Activity coefficient of 3-methylpentane (Liquid); method: Chromatography
Temperature, K	Activity coefficient of 3-methylpentane	uncertainty
298.15	321	22
308.15	302	21
318.15	286	20
328.15	272	19

System: N-(3-hydroxypropyl)pyridinium dicyanamide + heptane; phases: Liquid
Fixed: Mole fraction of heptane = 0
Fixed: Pressure, kPa = 101.325
Property: Activity coefficient of heptane (Liquid); method: Chromatography
Temperature, K	Activity coefficient of heptane	uncertainty
298.15	582	40
308.15	527	36
318.15	481	33
328.15	441	30
338.15	407	28
348.15	377	26
358.15	351	24

System: N-(3-hydroxypropyl)pyridinium dicyanamide + octane; phases: Liquid
Fixed: Mole fraction of octane = 0
Fixed: Pressure, kPa = 101.325
Property: Activity coefficient of octane (Liquid); method: Chromatography
Temperature, K	Activity coefficient of octane	uncertainty
298.15	930	64
308.15	846	58
318.15	772	53
328.15	710	49
338.15	654	45
348.15	605	42
358.15	564	39

System: N-(3-hydroxypropyl)pyridinium dicyanamide + 2,2,4-trimethylpentane; phases: Liquid
Fixed: Mole fraction of 2,2,4-trimethylpentane = 0
Fixed: Pressure, kPa = 101.325
Property: Activity coefficient of 2,2,4-trimethylpentane (Liquid); method: Chromatography
Temperature, K	Activity coefficient of 2,2,4-trimethylpentane	uncertainty
298.15	800	55
308.15	714	49
318.15	640	44
328.15	579	40

System: N-(3-hydroxypropyl)pyridinium dicyanamide + nonane; phases: Liquid
Fixed: Mole fraction of nonane = 0
Fixed: Pressure, kPa = 101.325
Property: Activity coefficient of nonane (Liquid); method: Chromatography
Temperature, K	Activity coefficient of nonane	uncertainty
298.15	1449	100
308.15	1304	90
318.15	1180	81
328.15	1078	74
338.15	985	68
348.15	906	62
358.15	837	58

System: N-(3-hydroxypropyl)pyridinium dicyanamide + decane; phases: Liquid
Fixed: Mole fraction of decane = 0
Fixed: Pressure, kPa = 101.325
Property: Activity coefficient of decane (Liquid); method: Chromatography
Temperature, K	Activity coefficient of decane	uncertainty
298.15	2102	145
308.15	1902	131
318.15	1726	119
328.15	1575	109
338.15	1453	100
348.15	1340	92
358.15	1241	86

System: N-(3-hydroxypropyl)pyridinium dicyanamide + cyclopentane; phases: Liquid
Fixed: Mole fraction of cyclopentane = 0
Fixed: Pressure, kPa = 101.325
Property: Activity coefficient of cyclopentane (Liquid); method: Chromatography
Temperature, K	Activity coefficient of cyclopentane	uncertainty
298.15	67	4.6
308.15	63.5	4.3
318.15	60.4	4.1
328.15	57.4	3.9
338.15	54.9	3.8
348.15	52.7	3.6
358.15	50.5	3.5

System: N-(3-hydroxypropyl)pyridinium dicyanamide + cyclohexane; phases: Liquid
Fixed: Mole fraction of cyclohexane = 0
Fixed: Pressure, kPa = 101.325
Property: Activity coefficient of cyclohexane (Liquid); method: Chromatography
Temperature, K	Activity coefficient of cyclohexane	uncertainty
298.15	118	8
308.15	111	8
318.15	105	7
328.15	99.8	6.8
338.15	95	6.5
348.15	90.7	6.2
358.15	86.9	6

System: N-(3-hydroxypropyl)pyridinium dicyanamide + methylcyclohexane; phases: Liquid
Fixed: Mole fraction of methylcyclohexane = 0
Fixed: Pressure, kPa = 101.325
Property: Activity coefficient of methylcyclohexane (Liquid); method: Chromatography
Temperature, K	Activity coefficient of methylcyclohexane	uncertainty
298.15	210	14
308.15	195	13
318.15	182	13
328.15	170	12
338.15	160	11
348.15	150	10
358.15	143	10

System: N-(3-hydroxypropyl)pyridinium dicyanamide + cycloheptane; phases: Liquid
Fixed: Mole fraction of cycloheptane = 0
Fixed: Pressure, kPa = 101.325
Property: Activity coefficient of cycloheptane (Liquid); method: Chromatography
Temperature, K	Activity coefficient of cycloheptane	uncertainty
298.15	161	11
308.15	149	10
318.15	139	10
328.15	130	9
338.15	122	8
348.15	115	8
358.15	109	7

System: N-(3-hydroxypropyl)pyridinium dicyanamide + cyclooctane; phases: Liquid
Fixed: Mole fraction of cyclooctane = 0
Fixed: Pressure, kPa = 101.325
Property: Activity coefficient of cyclooctane (Liquid); method: Chromatography
Temperature, K	Activity coefficient of cyclooctane	uncertainty
298.15	231	16
308.15	215	15
318.15	201	14
328.15	188	13
338.15	178	12
348.15	168	12
358.15	159	11

System: N-(3-hydroxypropyl)pyridinium dicyanamide + 1-pentene; phases: Liquid
Fixed: Mole fraction of 1-pentene = 0
Fixed: Pressure, kPa = 101.325
Property: Activity coefficient of 1-pentene (Liquid); method: Chromatography
Temperature, K	Activity coefficient of 1-pentene	uncertainty
298.15	74.6	5.1
308.15	70.2	4.8
318.15	66.3	4.5
328.15	63.1	4.3

System: N-(3-hydroxypropyl)pyridinium dicyanamide + hex-1-ene; phases: Liquid
Fixed: Mole fraction of hex-1-ene = 0
Fixed: Pressure, kPa = 101.325
Property: Activity coefficient of hex-1-ene (Liquid); method: Chromatography
Temperature, K	Activity coefficient of hex-1-ene	uncertainty
298.15	130	9
308.15	125	9
318.15	120	8
328.15	115	8
338.15	111	8
348.15	107	7
358.15	103	7

System: N-(3-hydroxypropyl)pyridinium dicyanamide + cyclohexene; phases: Liquid
Fixed: Mole fraction of cyclohexene = 0
Fixed: Pressure, kPa = 101.325
Property: Activity coefficient of cyclohexene (Liquid); method: Chromatography
Temperature, K	Activity coefficient of cyclohexene	uncertainty
298.15	38.7	2.6
308.15	37.6	2.6
318.15	36.6	2.5
328.15	35.8	2.4
338.15	34.8	2.4
348.15	34	2.3
358.15	33.4	2.3

System: N-(3-hydroxypropyl)pyridinium dicyanamide + 1-heptene; phases: Liquid
Fixed: Mole fraction of 1-heptene = 0
Fixed: Pressure, kPa = 101.325
Property: Activity coefficient of 1-heptene (Liquid); method: Chromatography
Temperature, K	Activity coefficient of 1-heptene	uncertainty
298.15	223	15
308.15	211	15
318.15	200	14
328.15	190	13
338.15	182	13
348.15	174	12
358.15	167	11

System: N-(3-hydroxypropyl)pyridinium dicyanamide + oct-1-ene; phases: Liquid
Fixed: Mole fraction of oct-1-ene = 0
Fixed: Pressure, kPa = 101.325
Property: Activity coefficient of oct-1-ene (Liquid); method: Chromatography
Temperature, K	Activity coefficient of oct-1-ene	uncertainty
298.15	391	27
308.15	367	25
318.15	346	24
328.15	326	22
338.15	310	21
348.15	295	20
358.15	282	19

System: N-(3-hydroxypropyl)pyridinium dicyanamide + 1-decene; phases: Liquid
Fixed: Mole fraction of 1-decene = 0
Fixed: Pressure, kPa = 101.325
Property: Activity coefficient of 1-decene (Liquid); method: Chromatography
Temperature, K	Activity coefficient of 1-decene	uncertainty
298.15	1034	71
308.15	954	66
318.15	887	61
328.15	829	57
338.15	777	54
348.15	731	50
358.15	691	48

System: N-(3-hydroxypropyl)pyridinium dicyanamide + 1-pentyne; phases: Liquid
Fixed: Mole fraction of 1-pentyne = 0
Fixed: Pressure, kPa = 101.325
Property: Activity coefficient of 1-pentyne (Liquid); method: Chromatography
Temperature, K	Activity coefficient of 1-pentyne	uncertainty
298.15	11.1	0.8
308.15	11.6	0.8
318.15	12.1	0.8
328.15	12.6	0.9
338.15	13.1	0.9
348.15	13.5	0.9
358.15	14	1

System: N-(3-hydroxypropyl)pyridinium dicyanamide + 1-hexyne; phases: Liquid
Fixed: Mole fraction of 1-hexyne = 0
Fixed: Pressure, kPa = 101.325
Property: Activity coefficient of 1-hexyne (Liquid); method: Chromatography
Temperature, K	Activity coefficient of 1-hexyne	uncertainty
298.15	19.8	1.4
308.15	20.6	1.4
318.15	21.5	1.5
328.15	22.5	1.5
338.15	23.4	1.6
348.15	24.3	1.7
358.15	25.2	1.7

System: N-(3-hydroxypropyl)pyridinium dicyanamide + 1-heptyne; phases: Liquid
Fixed: Mole fraction of 1-heptyne = 0
Fixed: Pressure, kPa = 101.325
Property: Activity coefficient of 1-heptyne (Liquid); method: Chromatography
Temperature, K	Activity coefficient of 1-heptyne	uncertainty
298.15	35.7	2.4
308.15	36.5	2.5
318.15	37.4	2.6
328.15	38.2	2.6
338.15	39	2.7
348.15	39.7	2.7
358.15	40.4	2.8

System: N-(3-hydroxypropyl)pyridinium dicyanamide + 1-octyne; phases: Liquid
Fixed: Mole fraction of 1-octyne = 0
Fixed: Pressure, kPa = 101.325
Property: Activity coefficient of 1-octyne (Liquid); method: Chromatography
Temperature, K	Activity coefficient of 1-octyne	uncertainty
298.15	67.5	4.6
308.15	68.5	4.7
318.15	69.4	4.8
328.15	70.2	4.8
338.15	71.1	4.9
348.15	71.8	4.9
358.15	72.6	5

System: N-(3-hydroxypropyl)pyridinium dicyanamide + benzene; phases: Liquid
Fixed: Mole fraction of benzene = 0
Fixed: Pressure, kPa = 101.325
Property: Activity coefficient of benzene (Liquid); method: Chromatography
Temperature, K	Activity coefficient of benzene	uncertainty
318.15	5.02	0.34
328.15	5.18	0.35
338.15	5.36	0.37
348.15	5.53	0.38
358.15	5.69	0.39
368.15	5.85	0.4

System: N-(3-hydroxypropyl)pyridinium dicyanamide + toluene; phases: Liquid
Fixed: Mole fraction of toluene = 0
Fixed: Pressure, kPa = 101.325
Property: Activity coefficient of toluene (Liquid); method: Chromatography
Temperature, K	Activity coefficient of toluene	uncertainty
318.15	8.44	0.58
328.15	8.72	0.59
338.15	9.03	0.62
348.15	9.31	0.64
358.15	9.58	0.65
368.15	9.85	0.67

System: N-(3-hydroxypropyl)pyridinium dicyanamide + ethylbenzene; phases: Liquid
Fixed: Mole fraction of ethylbenzene = 0
Fixed: Pressure, kPa = 101.325
Property: Activity coefficient of ethylbenzene (Liquid); method: Chromatography
Temperature, K	Activity coefficient of ethylbenzene	uncertainty
318.15	16.1	1.1
328.15	16.4	1.1
338.15	16.8	1.1
348.15	17.1	1.2
358.15	17.4	1.2
368.15	17.7	1.2

System: N-(3-hydroxypropyl)pyridinium dicyanamide + 1,2-dimethylbenzene; phases: Liquid
Fixed: Mole fraction of 1,2-dimethylbenzene = 0
Fixed: Pressure, kPa = 101.325
Property: Activity coefficient of 1,2-dimethylbenzene (Liquid); method: Chromatography
Temperature, K	Activity coefficient of 1,2-dimethylbenzene	uncertainty
318.15	11.1	0.8
328.15	11.5	0.8
338.15	11.9	0.8
348.15	12.3	0.8
358.15	12.7	0.9
368.15	13	0.9

System: N-(3-hydroxypropyl)pyridinium dicyanamide + 1,3-dimethylbenzene; phases: Liquid
Fixed: Mole fraction of 1,3-dimethylbenzene = 0
Fixed: Pressure, kPa = 101.325
Property: Activity coefficient of 1,3-dimethylbenzene (Liquid); method: Chromatography
Temperature, K	Activity coefficient of 1,3-dimethylbenzene	uncertainty
318.15	14.4	1
328.15	14.8	1
338.15	15.3	1
348.15	15.7	1.1
358.15	16.1	1.1
368.15	16.5	1.1

System: N-(3-hydroxypropyl)pyridinium dicyanamide + 1,4-dimethylbenzene; phases: Liquid
Fixed: Mole fraction of 1,4-dimethylbenzene = 0
Fixed: Pressure, kPa = 101.325
Property: Activity coefficient of 1,4-dimethylbenzene (Liquid); method: Chromatography
Temperature, K	Activity coefficient of 1,4-dimethylbenzene	uncertainty
318.15	13.8	0.9
328.15	14.3	1
338.15	14.8	1
348.15	15.3	1
358.15	15.7	1.1
368.15	16.2	1.1

System: N-(3-hydroxypropyl)pyridinium dicyanamide + propylbenzene; phases: Liquid
Fixed: Mole fraction of propylbenzene = 0
Fixed: Pressure, kPa = 101.325
Property: Activity coefficient of propylbenzene (Liquid); method: Chromatography
Temperature, K	Activity coefficient of propylbenzene	uncertainty
318.15	30.5	2.1
328.15	30.8	2.1
338.15	31.1	2.1
348.15	31.3	2.1
358.15	31.6	2.2
368.15	31.8	2.2

System: N-(3-hydroxypropyl)pyridinium dicyanamide + isopropylbenzene; phases: Liquid
Fixed: Mole fraction of isopropylbenzene = 0
Fixed: Pressure, kPa = 101.325
Property: Activity coefficient of isopropylbenzene (Liquid); method: Chromatography
Temperature, K	Activity coefficient of isopropylbenzene	uncertainty
318.15	29.5	2
328.15	29.7	2
338.15	29.8	2
348.15	30	2.1
358.15	30.2	2.1
368.15	30.4	2.1

System: N-(3-hydroxypropyl)pyridinium dicyanamide + styrene; phases: Liquid
Fixed: Mole fraction of styrene = 0
Fixed: Pressure, kPa = 101.325
Property: Activity coefficient of styrene (Liquid); method: Chromatography
Temperature, K	Activity coefficient of styrene	uncertainty
318.15	6.93	0.47
328.15	7.23	0.49
338.15	7.51	0.51
348.15	7.79	0.53
358.15	8.06	0.55
368.15	8.32	0.57

System: N-(3-hydroxypropyl)pyridinium dicyanamide + (1-methylethenyl)benzene; phases: Liquid
Fixed: Mole fraction of (1-methylethenyl)benzene = 0
Fixed: Pressure, kPa = 101.325
Property: Activity coefficient of (1-methylethenyl)benzene (Liquid); method: Chromatography
Temperature, K	Activity coefficient of (1-methylethenyl)benzene	uncertainty
318.15	11.3	0.8
328.15	12	0.8
338.15	12.7	0.9
348.15	13.3	0.9
358.15	14	1
368.15	14.6	1

System: N-(3-hydroxypropyl)pyridinium dicyanamide + thiophene; phases: Liquid
Fixed: Mole fraction of thiophene = 0
Fixed: Pressure, kPa = 101.325
Property: Activity coefficient of thiophene (Liquid); method: Chromatography
Temperature, K	Activity coefficient of thiophene	uncertainty
318.15	2.6	0.18
328.15	2.71	0.18
338.15	2.81	0.19
348.15	2.93	0.2
358.15	3.03	0.21
368.15	3.14	0.21

System: N-(3-hydroxypropyl)pyridinium dicyanamide + pyridine; phases: Liquid
Fixed: Mole fraction of pyridine = 0
Fixed: Pressure, kPa = 101.325
Property: Activity coefficient of pyridine (Liquid); method: Chromatography
Temperature, K	Activity coefficient of pyridine	uncertainty
318.15	1.39	0.09
328.15	1.48	0.1
338.15	1.56	0.1
348.15	1.64	0.11
358.15	1.72	0.12
368.15	1.8	0.12

System: N-(3-hydroxypropyl)pyridinium dicyanamide + methanol; phases: Liquid
Fixed: Mole fraction of methanol = 0
Fixed: Pressure, kPa = 101.325
Property: Activity coefficient of methanol (Liquid); method: Chromatography
Temperature, K	Activity coefficient of methanol	uncertainty
318.15	0.682	0.046
328.15	0.692	0.047
338.15	0.703	0.047
348.15	0.713	0.048
358.15	0.725	0.048
368.15	0.733	0.049

System: N-(3-hydroxypropyl)pyridinium dicyanamide + ethanol; phases: Liquid
Fixed: Mole fraction of ethanol = 0
Fixed: Pressure, kPa = 101.325
Property: Activity coefficient of ethanol (Liquid); method: Chromatography
Temperature, K	Activity coefficient of ethanol	uncertainty
318.15	1.3	0.08
328.15	1.3	0.08
338.15	1.3	0.08
348.15	1.31	0.09
358.15	1.31	0.09
368.15	1.31	0.09

System: N-(3-hydroxypropyl)pyridinium dicyanamide + propan-1-ol; phases: Liquid
Fixed: Mole fraction of propan-1-ol = 0
Fixed: Pressure, kPa = 101.325
Property: Activity coefficient of propan-1-ol (Liquid); method: Chromatography
Temperature, K	Activity coefficient of propan-1-ol	uncertainty
318.15	2.03	0.14
328.15	2.03	0.14
338.15	2.02	0.14
348.15	2.02	0.14
358.15	2.01	0.14
368.15	2.01	0.14

System: N-(3-hydroxypropyl)pyridinium dicyanamide + propan-2-ol; phases: Liquid
Fixed: Mole fraction of propan-2-ol = 0
Fixed: Pressure, kPa = 101.325
Property: Activity coefficient of propan-2-ol (Liquid); method: Chromatography
Temperature, K	Activity coefficient of propan-2-ol	uncertainty
318.15	2.24	0.15
328.15	2.2	0.2
338.15	2.18	0.15
348.15	2.15	0.15
358.15	2.13	0.14
368.15	2.11	0.14

System: N-(3-hydroxypropyl)pyridinium dicyanamide + butan-1-ol; phases: Liquid
Fixed: Mole fraction of butan-1-ol = 0
Fixed: Pressure, kPa = 101.325
Property: Activity coefficient of butan-1-ol (Liquid); method: Chromatography
Temperature, K	Activity coefficient of butan-1-ol	uncertainty
318.15	3.29	0.22
328.15	3.23	0.22
338.15	3.18	0.22
348.15	3.13	0.21
358.15	3.09	0.21
368.15	3.05	0.21

System: N-(3-hydroxypropyl)pyridinium dicyanamide + butan-2-ol; phases: Liquid
Fixed: Mole fraction of butan-2-ol = 0
Fixed: Pressure, kPa = 101.325
Property: Activity coefficient of butan-2-ol (Liquid); method: Chromatography
Temperature, K	Activity coefficient of butan-2-ol	uncertainty
318.15	3.23	0.22
328.15	3.18	0.22
338.15	3.13	0.21
348.15	3.09	0.21
358.15	3.05	0.21
368.15	3.02	0.21

System: N-(3-hydroxypropyl)pyridinium dicyanamide + 2-methyl-1-propanol; phases: Liquid
Fixed: Mole fraction of 2-methyl-1-propanol = 0
Fixed: Pressure, kPa = 101.325
Property: Activity coefficient of 2-methyl-1-propanol (Liquid); method: Chromatography
Temperature, K	Activity coefficient of 2-methyl-1-propanol	uncertainty
318.15	3.31	0.23
328.15	3.26	0.22
338.15	3.2	0.22
348.15	3.15	0.21
358.15	3.11	0.21
368.15	3.06	0.21

System: N-(3-hydroxypropyl)pyridinium dicyanamide + 2-methylpropan-2-ol; phases: Liquid
Fixed: Mole fraction of 2-methylpropan-2-ol = 0
Fixed: Pressure, kPa = 101.325
Property: Activity coefficient of 2-methylpropan-2-ol (Liquid); method: Chromatography
Temperature, K	Activity coefficient of 2-methylpropan-2-ol	uncertainty
318.15	3.08	0.21
328.15	3.08	0.21
338.15	3.07	0.21
348.15	3.07	0.21
358.15	3.07	0.21
368.15	3.05	0.21

System: N-(3-hydroxypropyl)pyridinium dicyanamide + pentan-1-ol; phases: Liquid
Fixed: Mole fraction of pentan-1-ol = 0
Fixed: Pressure, kPa = 101.325
Property: Activity coefficient of pentan-1-ol (Liquid); method: Chromatography
Temperature, K	Activity coefficient of pentan-1-ol	uncertainty
318.15	4.98	0.34
328.15	4.89	0.33
338.15	4.81	0.33
348.15	4.74	0.32
358.15	4.68	0.32
368.15	4.61	0.31

System: N-(3-hydroxypropyl)pyridinium dicyanamide + water; phases: Liquid
Fixed: Mole fraction of water = 0
Fixed: Pressure, kPa = 101.325
Property: Activity coefficient of water (Liquid); method: Chromatography
Temperature, K	Activity coefficient of water	uncertainty
328.15	0.399	0.034
338.15	0.411	0.034
348.15	0.421	0.035
358.15	0.432	0.035

System: N-(3-hydroxypropyl)pyridinium dicyanamide + methyl ethanoate; phases: Liquid
Fixed: Mole fraction of methyl ethanoate = 0
Fixed: Pressure, kPa = 101.325
Property: Activity coefficient of methyl ethanoate (Liquid); method: Chromatography
Temperature, K	Activity coefficient of methyl ethanoate	uncertainty
318.15	3.28	0.22
328.15	3.43	0.23
338.15	3.56	0.24
348.15	3.71	0.25
358.15	3.84	0.26
368.15	3.98	0.27

System: N-(3-hydroxypropyl)pyridinium dicyanamide + methyl propanoate; phases: Liquid
Fixed: Mole fraction of methyl propanoate = 0
Fixed: Pressure, kPa = 101.325
Property: Activity coefficient of methyl propanoate (Liquid); method: Chromatography
Temperature, K	Activity coefficient of methyl propanoate	uncertainty
318.15	5.77	0.39
328.15	5.99	0.41
338.15	6.2	0.42
348.15	6.42	0.44
358.15	6.61	0.45
368.15	6.81	0.46

System: N-(3-hydroxypropyl)pyridinium dicyanamide + methyl butanoate; phases: Liquid
Fixed: Mole fraction of methyl butanoate = 0
Fixed: Pressure, kPa = 101.325
Property: Activity coefficient of methyl butanoate (Liquid); method: Chromatography
Temperature, K	Activity coefficient of methyl butanoate	uncertainty
318.15	10.3	0.7
328.15	10.6	0.7
338.15	10.9	0.7
348.15	11.2	0.8
358.15	11.5	0.8
368.15	11.7	0.8

System: N-(3-hydroxypropyl)pyridinium dicyanamide + ethyl acetate; phases: Liquid
Fixed: Mole fraction of ethyl acetate = 0
Fixed: Pressure, kPa = 101.325
Property: Activity coefficient of ethyl acetate (Liquid); method: Chromatography
Temperature, K	Activity coefficient of ethyl acetate	uncertainty
318.15	6.37	0.43
328.15	6.6	0.45
338.15	6.81	0.46
348.15	7.02	0.48
358.15	7.23	0.49
368.15	7.43	0.51

System: N-(3-hydroxypropyl)pyridinium dicyanamide + tetrahydrofuran; phases: Liquid
Fixed: Mole fraction of tetrahydrofuran = 0
Fixed: Pressure, kPa = 101.325
Property: Activity coefficient of tetrahydrofuran (Liquid); method: Chromatography
Temperature, K	Activity coefficient of tetrahydrofuran	uncertainty
318.15	3.1	0.21
328.15	3.25	0.22
338.15	3.38	0.23
348.15	3.53	0.24
358.15	3.66	0.25
368.15	3.79	0.26

System: N-(3-hydroxypropyl)pyridinium dicyanamide + 1,4-dioxane; phases: Liquid
Fixed: Mole fraction of 1,4-dioxane = 0
Fixed: Pressure, kPa = 101.325
Property: Activity coefficient of 1,4-dioxane (Liquid); method: Chromatography
Temperature, K	Activity coefficient of 1,4-dioxane	uncertainty
318.15	1.74	0.12
328.15	1.86	0.13
338.15	1.99	0.14
348.15	2.12	0.14
358.15	2.25	0.15
368.15	2.38	0.16

System: N-(3-hydroxypropyl)pyridinium dicyanamide + 2-methoxy-2-methylpropane; phases: Liquid
Fixed: Mole fraction of 2-methoxy-2-methylpropane = 0
Fixed: Pressure, kPa = 101.325
Property: Activity coefficient of 2-methoxy-2-methylpropane (Liquid); method: Chromatography
Temperature, K	Activity coefficient of 2-methoxy-2-methylpropane	uncertainty
318.15	25.1	1.7
328.15	25.5	1.7
338.15	25.9	1.8
348.15	26.2	1.8
358.15	26.6	1.8
368.15	26.9	1.8

System: N-(3-hydroxypropyl)pyridinium dicyanamide + 2-ethoxy-2-methylpropane; phases: Liquid
Fixed: Mole fraction of 2-ethoxy-2-methylpropane = 0
Fixed: Pressure, kPa = 101.325
Property: Activity coefficient of 2-ethoxy-2-methylpropane (Liquid); method: Chromatography
Temperature, K	Activity coefficient of 2-ethoxy-2-methylpropane	uncertainty
318.15	85.6	5.9
328.15	83.9	5.8
338.15	82.4	5.6
348.15	80.7	5.5
358.15	79.1	5.4
368.15	77.9	5.3

System: N-(3-hydroxypropyl)pyridinium dicyanamide + 2-methoxy-2-methylbutane; phases: Liquid
Fixed: Mole fraction of 2-methoxy-2-methylbutane = 0
Fixed: Pressure, kPa = 101.325
Property: Activity coefficient of 2-methoxy-2-methylbutane (Liquid); method: Chromatography
Temperature, K	Activity coefficient of 2-methoxy-2-methylbutane	uncertainty
318.15	41.8	2.9
328.15	42	2.9
338.15	42.1	2.9
348.15	42.3	2.9
358.15	42.5	2.9
368.15	42.6	2.9

System: N-(3-hydroxypropyl)pyridinium dicyanamide + diethyl ether; phases: Liquid
Fixed: Mole fraction of diethyl ether = 0
Fixed: Pressure, kPa = 101.325
Property: Activity coefficient of diethyl ether (Liquid); method: Chromatography
Temperature, K	Activity coefficient of diethyl ether	uncertainty
318.15	21.5	1.5
328.15	21.5	1.5
338.15	21.5	1.5
348.15	21.5	1.5
358.15	21.4	1.5
368.15	21.4	1.5

System: N-(3-hydroxypropyl)pyridinium dicyanamide + dipropyl ether; phases: Liquid
Fixed: Mole fraction of dipropyl ether = 0
Fixed: Pressure, kPa = 101.325
Property: Activity coefficient of dipropyl ether (Liquid); method: Chromatography
Temperature, K	Activity coefficient of dipropyl ether	uncertainty
318.15	92.3	6.3
328.15	89.2	6.1
338.15	86.8	5.9
348.15	84.2	5.8
358.15	81.9	5.6
368.15	79.7	5.5

System: N-(3-hydroxypropyl)pyridinium dicyanamide + diisopropyl ether; phases: Liquid
Fixed: Mole fraction of diisopropyl ether = 0
Fixed: Pressure, kPa = 101.325
Property: Activity coefficient of diisopropyl ether (Liquid); method: Chromatography
Temperature, K	Activity coefficient of diisopropyl ether	uncertainty
318.15	105	7
328.15	102	7
338.15	99.8	6.8
348.15	97.5	6.7
358.15	95.4	6.5
368.15	93.6	6.4

System: N-(3-hydroxypropyl)pyridinium dicyanamide + dibutyl ether; phases: Liquid
Fixed: Mole fraction of dibutyl ether = 0
Fixed: Pressure, kPa = 101.325
Property: Activity coefficient of dibutyl ether (Liquid); method: Chromatography
Temperature, K	Activity coefficient of dibutyl ether	uncertainty
318.15	268	18
328.15	254	17
338.15	244	17
348.15	234	16
358.15	225	15
368.15	216	15

System: N-(3-hydroxypropyl)pyridinium dicyanamide + acetone; phases: Liquid
Fixed: Mole fraction of acetone = 0
Fixed: Pressure, kPa = 101.325
Property: Activity coefficient of acetone (Liquid); method: Chromatography
Temperature, K	Activity coefficient of acetone	uncertainty
318.15	1.87	0.13
328.15	1.97	0.13
338.15	2.05	0.14
348.15	2.14	0.15
358.15	2.23	0.15
368.15	2.31	0.16

System: N-(3-hydroxypropyl)pyridinium dicyanamide + pentan-2-one; phases: Liquid
Fixed: Mole fraction of pentan-2-one = 0
Fixed: Pressure, kPa = 101.325
Property: Activity coefficient of pentan-2-one (Liquid); method: Chromatography
Temperature, K	Activity coefficient of pentan-2-one	uncertainty
318.15	5.58	0.38
328.15	5.77	0.39
338.15	5.96	0.41
348.15	6.14	0.42
358.15	6.33	0.43
368.15	6.5	0.44

System: N-(3-hydroxypropyl)pyridinium dicyanamide + pentan-3-one; phases: Liquid
Fixed: Mole fraction of pentan-3-one = 0
Fixed: Pressure, kPa = 101.325
Property: Activity coefficient of pentan-3-one (Liquid); method: Chromatography
Temperature, K	Activity coefficient of pentan-3-one	uncertainty
318.15	5.68	0.39
328.15	5.92	0.4
338.15	6.15	0.42
348.15	6.36	0.43
358.15	6.57	0.45
368.15	6.79	0.46

System: N-(3-hydroxypropyl)pyridinium dicyanamide + butanal; phases: Liquid
Fixed: Mole fraction of butanal = 0
Fixed: Pressure, kPa = 101.325
Property: Activity coefficient of butanal (Liquid); method: Chromatography
Temperature, K	Activity coefficient of butanal	uncertainty
318.15	4.09	0.28
328.15	4.21	0.29
338.15	4.3	0.29
348.15	4.39	0.3
358.15	4.49	0.31
368.15	4.57	0.31

System: N-(3-hydroxypropyl)pyridinium dicyanamide + acetonitrile; phases: Liquid
Fixed: Mole fraction of acetonitrile = 0
Fixed: Pressure, kPa = 101.325
Property: Activity coefficient of acetonitrile (Liquid); method: Chromatography
Temperature, K	Activity coefficient of acetonitrile	uncertainty
318.15	1.24	0.08
328.15	1.29	0.08
338.15	1.34	0.09
348.15	1.38	0.09
358.15	1.43	0.09
368.15	1.48	0.1

System: N-(3-hydroxypropyl)pyridinium dicyanamide + 1-nitropropane; phases: Liquid
Fixed: Mole fraction of 1-nitropropane = 0
Fixed: Pressure, kPa = 101.325
Property: Activity coefficient of 1-nitropropane (Liquid); method: Chromatography
Temperature, K	Activity coefficient of 1-nitropropane	uncertainty
318.15	2.96	0.2
328.15	3.08	0.21
338.15	3.18	0.22
348.15	3.28	0.22
358.15	3.37	0.23
368.15	3.47	0.24
