Measured thermophysical data. Theoretical and experimental study on volumetric and electromagnetic properties of binary systems consisting of 1,2-dichloroethane with benzene and its derivatives at T = (293.15 to 333.15) K
Source: J. Chem. Thermodyn., 2016, 10.1016/j.jct.2015.12.027
Compound 1: 1,2-dichloroethane, C2H4Cl2, InChI=1S/C2H4Cl2/c3-1-2-4/h1-2H2, purity 99.8%
Compound 2: benzene, C6H6, InChI=1S/C6H6/c1-2-4-6-5-3-1/h1-6H, purity 99.7%
Compound 3: bromobenzene, C6H5Br, InChI=1S/C6H5Br/c7-6-4-2-1-3-5-6/h1-5H, purity 99%
Compound 4: chlorobenzene, C6H5Cl, InChI=1S/C6H5Cl/c7-6-4-2-1-3-5-6/h1-5H, purity 99.5%
Compound 5: nitrobenzene, C6H5NO2, InChI=1S/C6H5NO2/c8-7(9)6-4-2-1-3-5-6/h1-5H, purity 99%

System: 1,2-dichloroethane; phases: Liquid
Fixed: Pressure, kPa = 81.5
Property: Mass density, kg/m3 (Liquid); method: Vibrating tube method
Temperature, K	Mass density, kg/m3	uncertainty
293.15	1252.82	10
303.15	1238.27	10
313.15	1223.53	10
323.15	1208.61	10
333.15	1193.61	10

System: 1,2-dichloroethane; phases: Liquid
Fixed: Pressure, kPa = 81.5
Property: Refractive index (Na D-line) (Liquid); method: Standard Abbe refractometry
Temperature, K	Refractive index (Na D-line)	uncertainty
293.15	1.44472	0.01
303.15	1.43948	0.01
313.15	1.43423	0.01
323.15	1.42897	0.01
333.15	1.42373	0.01

System: benzene; phases: Liquid
Fixed: Pressure, kPa = 81.5
Property: Mass density, kg/m3 (Liquid); method: Vibrating tube method
Temperature, K	Mass density, kg/m3	uncertainty
293.15	878.87	10
303.15	868.2	10
313.15	857.44	10
323.15	846.62	10
333.15	835.71	10

System: benzene; phases: Liquid
Fixed: Pressure, kPa = 81.5
Property: Refractive index (Na D-line) (Liquid); method: Standard Abbe refractometry
Temperature, K	Refractive index (Na D-line)	uncertainty
293.15	1.50118	0.01
303.15	1.49517	0.01
313.15	1.4885	0.01
323.15	1.48264	0.01
333.15	1.47638	0.01

System: bromobenzene; phases: Liquid
Fixed: Pressure, kPa = 81.5
Property: Mass density, kg/m3 (Liquid); method: Vibrating tube method
Temperature, K	Mass density, kg/m3	uncertainty
293.15	1495.52	10.02
303.15	1481.97	10.02
313.15	1468.41	10.02
323.15	1454.85	10.02
333.15	1441.22	10.02

System: bromobenzene; phases: Liquid
Fixed: Pressure, kPa = 81.5
Property: Refractive index (Na D-line) (Liquid); method: Standard Abbe refractometry
Temperature, K	Refractive index (Na D-line)	uncertainty
293.15	1.55981	0.01001
303.15	1.55442	0.01001
313.15	1.5489	0.01001
323.15	1.54319	0.01001
333.15	1.53742	0.01001

System: chlorobenzene; phases: Liquid
Fixed: Pressure, kPa = 81.5
Property: Mass density, kg/m3 (Liquid); method: Vibrating tube method
Temperature, K	Mass density, kg/m3	uncertainty
293.15	1106.49	10
303.15	1095.71	10
313.15	1084.86	10
323.15	1073.96	10
333.15	1063.01	10

System: chlorobenzene; phases: Liquid
Fixed: Pressure, kPa = 81.5
Property: Refractive index (Na D-line) (Liquid); method: Standard Abbe refractometry
Temperature, K	Refractive index (Na D-line)	uncertainty
293.15	1.52455	0.01
303.15	1.51902	0.01
313.15	1.51346	0.01
323.15	1.50781	0.01
333.15	1.50223	0.01

System: nitrobenzene; phases: Liquid
Fixed: Pressure, kPa = 81.5
Property: Mass density, kg/m3 (Liquid); method: Vibrating tube method
Temperature, K	Mass density, kg/m3	uncertainty
293.15	1203.05	10.01
303.15	1193.15	10.01
313.15	1183.21	10.01
323.15	1173.27	10.01
333.15	1163.32	10.01

System: nitrobenzene; phases: Liquid
Fixed: Pressure, kPa = 81.5
Property: Refractive index (Na D-line) (Liquid); method: Standard Abbe refractometry
Temperature, K	Refractive index (Na D-line)	uncertainty
293.15	1.55241	0.01001
303.15	1.54763	0.01001
313.15	1.54288	0.01001
323.15	1.53795	0.01001
333.15	1.53289	0.01001

System: benzene + 1,2-dichloroethane; phases: Liquid
Fixed: Pressure, kPa = 81.5
Property: Mass density, kg/m3 (Liquid); method: Vibrating tube method
Temperature, K	Mole fraction of 1,2-dichloroethane	Mass density, kg/m3	uncertainty
293.15	0	878.87	10
293.15	0.1002	911.76	10
293.15	0.207	947.74	10
293.15	0.3043	981.38	10
293.15	0.4032	1016.56	10
293.15	0.5005	1052.14	10
293.15	0.5975	1088.72	10
293.15	0.7235	1137.85	10
293.15	0.8005	1168.91	10
293.15	0.8918	1206.83	10
293.15	1	1252.82	10
303.15	0	868.2	10
303.15	0.1002	900.68	10
303.15	0.207	936.23	10
303.15	0.3043	969.5	10
303.15	0.4032	1004.31	10
303.15	0.5005	1039.52	10
303.15	0.5975	1075.72	10
303.15	0.7235	1124.32	10
303.15	0.8005	1155.04	10
303.15	0.8918	1192.59	10
303.15	1	1238.27	10
313.15	0	857.44	10
313.15	0.1002	889.51	10
313.15	0.207	924.62	10
313.15	0.3043	957.49	10
313.15	0.4032	991.92	10
313.15	0.5005	1026.72	10
313.15	0.5975	1062.52	10
313.15	0.7235	1110.59	10
313.15	0.8005	1140.95	10
313.15	0.8918	1178.02	10
313.15	1	1223.53	10
323.15	0	846.62	10
323.15	0.1002	878.27	10
323.15	0.207	912.92	10
323.15	0.3043	945.42	10
323.15	0.4032	979.41	10
323.15	0.5005	1013.82	10
323.15	0.5975	1049.18	10
323.15	0.7235	1096.67	10
323.15	0.8005	1126.76	10
323.15	0.8918	1163.49	10
323.15	1	1208.61	10
333.15	0	835.71	10
333.15	0.1002	866.86	10
333.15	0.207	901.08	10
333.15	0.3043	933.17	10
333.15	0.4032	966.77	10
333.15	0.5005	1000.75	10
333.15	0.5975	1035.66	10
333.15	0.7235	1082.64	10
333.15	0.8005	1112.37	10
333.15	0.8918	1148.78	10
333.15	1	1193.61	10

System: benzene + 1,2-dichloroethane; phases: Liquid
Fixed: Pressure, kPa = 81.5
Property: Refractive index (Na D-line) (Liquid); method: Standard Abbe refractometry
Temperature, K	Mole fraction of 1,2-dichloroethane	Refractive index (Na D-line)	uncertainty
293.15	0	1.50118	0.01
293.15	0.1002	1.49506	0.01
293.15	0.207	1.48849	0.01
293.15	0.3043	1.48263	0.01
293.15	0.4032	1.47684	0.01
293.15	0.5005	1.47135	0.01
293.15	0.5975	1.46605	0.01
293.15	0.7235	1.45935	0.01
293.15	0.8005	1.45531	0.01
293.15	0.8918	1.4505	0.01
293.15	1	1.44472	0.01
303.15	0	1.49517	0.01
303.15	0.1002	1.48919	0.01
303.15	0.207	1.48273	0.01
303.15	0.3043	1.47694	0.01
303.15	0.4032	1.47123	0.01
303.15	0.5005	1.46581	0.01
303.15	0.5975	1.46058	0.01
303.15	0.7235	1.45396	0.01
303.15	0.8005	1.44995	0.01
303.15	0.8918	1.44519	0.01
303.15	1	1.43948	0.01
313.15	0	1.4885	0.01
313.15	0.1002	1.48273	0.01
313.15	0.207	1.47644	0.01
313.15	0.3043	1.47079	0.01
313.15	0.4032	1.46522	0.01
313.15	0.5005	1.45994	0.01
313.15	0.5975	1.45484	0.01
313.15	0.7235	1.44838	0.01
313.15	0.8005	1.44445	0.01
313.15	0.8918	1.43979	0.01
313.15	1	1.43423	0.01
323.15	0	1.48264	0.01
323.15	0.1002	1.477	0.01
323.15	0.207	1.4708	0.01
323.15	0.3043	1.46522	0.01
323.15	0.4032	1.45971	0.01
323.15	0.5005	1.45449	0.01
323.15	0.5975	1.44943	0.01
323.15	0.7235	1.44302	0.01
323.15	0.8005	1.43912	0.01
323.15	0.8918	1.43449	0.01
323.15	1	1.42897	0.01
333.15	0	1.47638	0.01
333.15	0.1002	1.47091	0.01
333.15	0.207	1.46486	0.01
333.15	0.3043	1.45939	0.01
333.15	0.4032	1.45398	0.01
333.15	0.5005	1.44884	0.01
333.15	0.5975	1.44387	0.01
333.15	0.7235	1.43756	0.01
333.15	0.8005	1.43372	0.01
333.15	0.8918	1.42916	0.01
333.15	1	1.42373	0.01

System: 1,2-dichloroethane + bromobenzene; phases: Liquid
Fixed: Pressure, kPa = 81.5
Property: Mass density, kg/m3 (Liquid); method: Vibrating tube method
Temperature, K	Mole fraction of 1,2-dichloroethane	Mass density, kg/m3	uncertainty
293.15	0	1495.52	10.02
293.15	0.1031	1475.66	10.01
293.15	0.2005	1455.9	10.01
293.15	0.3001	1434.62	10.01
293.15	0.3997	1412.26	10.01
293.15	0.4996	1388.86	10.01
293.15	0.6001	1364.37	10
293.15	0.6993	1339.1	10
293.15	0.7993	1312.25	10
293.15	0.8986	1283.81	10
293.15	1	1252.82	10
303.15	0	1481.97	10.02
303.15	0.1031	1461.99	10.01
303.15	0.2005	1442.07	10.01
303.15	0.3001	1420.64	10.01
303.15	0.3997	1398.16	10.01
303.15	0.4996	1374.68	10
303.15	0.6001	1350.09	10
303.15	0.6993	1324.73	10
303.15	0.7993	1297.77	10
303.15	0.8986	1269.28	10
303.15	1	1238.27	10
313.15	0	1468.41	10.02
313.15	0.1031	1448.3	10.01
313.15	0.2005	1428.17	10.01
313.15	0.3001	1406.6	10.01
313.15	0.3997	1383.98	10.01
313.15	0.4996	1360.39	10
313.15	0.6001	1335.69	10
313.15	0.6993	1310.2	10
313.15	0.7993	1283.16	10
313.15	0.8986	1254.59	10
313.15	1	1223.53	10
323.15	0	1454.85	10.02
323.15	0.1031	1434.54	10.01
323.15	0.2005	1414.26	10.01
323.15	0.3001	1392.5	10.01
323.15	0.3997	1369.73	10.01
323.15	0.4996	1345.98	10
323.15	0.6001	1321.15	10
323.15	0.6993	1295.56	10
323.15	0.7993	1268.43	10
323.15	0.8986	1239.77	10
323.15	1	1208.61	10
333.15	0	1441.22	10.02
333.15	0.1031	1420.74	10.01
333.15	0.2005	1400.29	10.01
333.15	0.3001	1378.34	10.01
333.15	0.3997	1355.39	10.01
333.15	0.4996	1331.47	10
333.15	0.6001	1306.48	10
333.15	0.6993	1280.77	10
333.15	0.7993	1253.56	10
333.15	0.8986	1224.87	10
333.15	1	1193.61	10

System: 1,2-dichloroethane + bromobenzene; phases: Liquid
Fixed: Pressure, kPa = 81.5
Property: Refractive index (Na D-line) (Liquid); method: Standard Abbe refractometry
Temperature, K	Mole fraction of 1,2-dichloroethane	Refractive index (Na D-line)	uncertainty
293.15	0	1.55981	0.01001
293.15	0.1031	1.55145	0.01001
293.15	0.2005	1.54415	0.01001
293.15	0.3001	1.53597	0.01001
293.15	0.3997	1.5262	0.01001
293.15	0.4996	1.51453	0.01
293.15	0.6001	1.50149	0.01
293.15	0.6993	1.48764	0.01
293.15	0.7993	1.47349	0.01
293.15	0.8986	1.45961	0.01
293.15	1	1.44472	0.01
303.15	0	1.55442	0.01001
303.15	0.1031	1.5466	0.01001
303.15	0.2005	1.53939	0.01001
303.15	0.3001	1.53114	0.01001
303.15	0.3997	1.52135	0.01001
303.15	0.4996	1.50972	0.01
303.15	0.6001	1.49679	0.01
303.15	0.6993	1.48301	0.01
303.15	0.7993	1.46883	0.01
303.15	0.8986	1.45476	0.01
303.15	1	1.43948	0.01
313.15	0	1.5489	0.01001
313.15	0.1031	1.54165	0.01001
313.15	0.2005	1.53455	0.01001
313.15	0.3001	1.52627	0.01001
313.15	0.3997	1.51645	0.01001
313.15	0.4996	1.50487	0.01
313.15	0.6001	1.49202	0.01
313.15	0.6993	1.47833	0.01
313.15	0.7993	1.46414	0.01
313.15	0.8986	1.44989	0.01
313.15	1	1.43423	0.01
323.15	0	1.54319	0.01001
323.15	0.1031	1.53652	0.01001
323.15	0.2005	1.52957	0.01001
323.15	0.3001	1.5213	0.01001
323.15	0.3997	1.51147	0.01001
323.15	0.4996	1.49994	0.01
323.15	0.6001	1.48719	0.01
323.15	0.6993	1.47357	0.01
323.15	0.7993	1.45938	0.01
323.15	0.8986	1.44499	0.01
323.15	1	1.42897	0.01
333.15	0	1.53742	0.01001
333.15	0.1031	1.53135	0.01001
333.15	0.2005	1.52458	0.01001
333.15	0.3001	1.51632	0.01001
333.15	0.3997	1.5065	0.01001
333.15	0.4996	1.49501	0.01
333.15	0.6001	1.48235	0.01
333.15	0.6993	1.46881	0.01
333.15	0.7993	1.45461	0.01
333.15	0.8986	1.44008	0.01
333.15	1	1.42373	0.01

System: 1,2-dichloroethane + chlorobenzene; phases: Liquid
Fixed: Pressure, kPa = 81.5
Property: Mass density, kg/m3 (Liquid); method: Vibrating tube method
Temperature, K	Mole fraction of 1,2-dichloroethane	Mass density, kg/m3	uncertainty
293.15	0	1106.49	10
293.15	0.1022	1117.76	10
293.15	0.2027	1129.4	10
293.15	0.3126	1142.87	10
293.15	0.4014	1154.41	10
293.15	0.4994	1167.89	10
293.15	0.6002	1182.73	10
293.15	0.7	1198.46	10
293.15	0.7999	1215.33	10
293.15	0.9007	1233.56	10
293.15	1	1252.82	10
303.15	0	1095.71	10
303.15	0.1022	1106.63	10
303.15	0.2027	1117.99	10
303.15	0.3126	1131.14	10
303.15	0.4014	1142.36	10
303.15	0.4994	1155.52	10
303.15	0.6002	1169.98	10
303.15	0.7	1185.33	10
303.15	0.7999	1201.74	10
303.15	0.9007	1219.46	10
303.15	1	1238.27	10
313.15	0	1084.86	10
313.15	0.1022	1095.44	10
313.15	0.2027	1106.5	10
313.15	0.3126	1119.28	10
313.15	0.4014	1130.2	10
313.15	0.4994	1142.99	10
313.15	0.6002	1157.05	10
313.15	0.7	1171.98	10
313.15	0.7999	1187.98	10
313.15	0.9007	1205.18	10
313.15	1	1223.53	10
323.15	0	1073.96	10
323.15	0.1022	1084.22	10
323.15	0.2027	1094.94	10
323.15	0.3126	1107.34	10
323.15	0.4014	1117.94	10
323.15	0.4994	1130.34	10
323.15	0.6002	1143.96	10
323.15	0.7	1158.43	10
323.15	0.7999	1173.96	10
323.15	0.9007	1190.75	10
323.15	1	1208.61	10
333.15	0	1063.01	10
333.15	0.1022	1073.02	10
333.15	0.2027	1083.38	10
333.15	0.3126	1095.38	10
333.15	0.4014	1105.63	10
333.15	0.4994	1117.61	10
333.15	0.6002	1130.77	10
333.15	0.7	1144.78	10
333.15	0.7999	1159.89	10
333.15	0.9007	1176.31	10
333.15	1	1193.61	10

System: 1,2-dichloroethane + chlorobenzene; phases: Liquid
Fixed: Pressure, kPa = 81.5
Property: Refractive index (Na D-line) (Liquid); method: Standard Abbe refractometry
Temperature, K	Mole fraction of 1,2-dichloroethane	Refractive index (Na D-line)	uncertainty
293.15	0	1.52455	0.01
293.15	0.1022	1.51915	0.01
293.15	0.2027	1.51388	0.01
293.15	0.3126	1.50734	0.01
293.15	0.4014	1.50115	0.01
293.15	0.4994	1.49334	0.01
293.15	0.6002	1.48436	0.01
293.15	0.7	1.47478	0.01
293.15	0.7999	1.46481	0.01
293.15	0.9007	1.45465	0.01
293.15	1	1.44472	0.01
303.15	0	1.51902	0.01
303.15	0.1022	1.51376	0.01
303.15	0.2027	1.50871	0.01
303.15	0.3126	1.50235	0.01
303.15	0.4014	1.49625	0.01
303.15	0.4994	1.48847	0.01
303.15	0.6002	1.47949	0.01
303.15	0.7	1.46991	0.01
303.15	0.7999	1.45993	0.01
303.15	0.9007	1.44969	0.01
303.15	1	1.43948	0.01
313.15	0	1.51346	0.01
313.15	0.1022	1.50848	0.01
313.15	0.2027	1.50361	0.01
313.15	0.3126	1.49739	0.01
313.15	0.4014	1.49135	0.01
313.15	0.4994	1.48362	0.01
313.15	0.6002	1.47465	0.01
313.15	0.7	1.46504	0.01
313.15	0.7999	1.455	0.01
313.15	0.9007	1.44464	0.01
313.15	1	1.43423	0.01
323.15	0	1.50781	0.01
323.15	0.1022	1.50327	0.01
323.15	0.2027	1.49855	0.01
323.15	0.3126	1.4924	0.01
323.15	0.4014	1.48642	0.01
323.15	0.4994	1.47874	0.01
323.15	0.6002	1.4698	0.01
323.15	0.7	1.46017	0.01
323.15	0.7999	1.45001	0.01
323.15	0.9007	1.43948	0.01
323.15	1	1.42897	0.01
333.15	0	1.50223	0.01
333.15	0.1022	1.49826	0.01
333.15	0.2027	1.49366	0.01
333.15	0.3126	1.4875	0.01
333.15	0.4014	1.48154	0.01
333.15	0.4994	1.47393	0.01
333.15	0.6002	1.46504	0.01
333.15	0.7	1.45535	0.01
333.15	0.7999	1.44502	0.01
333.15	0.9007	1.43427	0.01
333.15	1	1.42373	0.01

System: nitrobenzene + 1,2-dichloroethane; phases: Liquid
Fixed: Pressure, kPa = 81.5
Property: Mass density, kg/m3 (Liquid); method: Vibrating tube method
Temperature, K	Mole fraction of 1,2-dichloroethane	Mass density, kg/m3	uncertainty
293.15	0	1203.05	10.01
293.15	0.1008	1206.99	10.01
293.15	0.1993	1211.04	10
293.15	0.3	1215.35	10
293.15	0.3997	1219.84	10
293.15	0.4991	1224.55	10
293.15	0.6004	1229.62	10
293.15	0.7006	1234.94	10
293.15	0.801	1240.51	10
293.15	0.8997	1246.65	10
293.15	1	1252.82	10
303.15	0	1193.15	10.01
303.15	0.1008	1196.83	10.01
303.15	0.1993	1200.58	10
303.15	0.3	1204.56	10
303.15	0.3997	1208.67	10
303.15	0.4991	1212.96	10
303.15	0.6004	1217.53	10
303.15	0.7006	1222.31	10
303.15	0.801	1227.39	10
303.15	0.8997	1232.66	10
303.15	1	1238.27	10
313.15	0	1183.21	10.01
313.15	0.1008	1186.61	10
313.15	0.1993	1190.03	10
313.15	0.3	1193.66	10
313.15	0.3997	1197.36	10
313.15	0.4991	1201.23	10
313.15	0.6004	1205.32	10
313.15	0.7006	1209.57	10
313.15	0.801	1214.06	10
313.15	0.8997	1218.68	10
313.15	1	1223.53	10
323.15	0	1173.27	10.01
323.15	0.1008	1176.36	10
323.15	0.1993	1179.45	10
323.15	0.3	1182.68	10
323.15	0.3997	1185.98	10
323.15	0.4991	1189.39	10
323.15	0.6004	1193	10
323.15	0.7006	1196.72	10
323.15	0.801	1200.58	10
323.15	0.8997	1204.5	10
323.15	1	1208.61	10
333.15	0	1163.32	10.01
333.15	0.1008	1166.07	10
333.15	0.1993	1168.82	10
333.15	0.3	1171.66	10
333.15	0.3997	1174.52	10
333.15	0.4991	1177.48	10
333.15	0.6004	1180.62	10
333.15	0.7006	1183.82	10
333.15	0.801	1187.03	10
333.15	0.8997	1190.22	10
333.15	1	1193.61	10

System: nitrobenzene + 1,2-dichloroethane; phases: Liquid
Fixed: Pressure, kPa = 81.5
Property: Refractive index (Na D-line) (Liquid); method: Standard Abbe refractometry
Temperature, K	Mole fraction of 1,2-dichloroethane	Refractive index (Na D-line)	uncertainty
293.15	0	1.55241	0.01001
293.15	0.1008	1.54317	0.01001
293.15	0.1993	1.5343	0.01001
293.15	0.3	1.5252	0.01001
293.15	0.3997	1.51592	0.01001
293.15	0.4991	1.5061	0.01
293.15	0.6004	1.49525	0.01
293.15	0.7006	1.48353	0.01
293.15	0.801	1.47088	0.01
293.15	0.8997	1.45787	0.01
293.15	1	1.44472	0.01
303.15	0	1.54763	0.01001
303.15	0.1008	1.53879	0.01001
303.15	0.1993	1.53004	0.01001
303.15	0.3	1.52093	0.01001
303.15	0.3997	1.51157	0.01001
303.15	0.4991	1.50165	0.01
303.15	0.6004	1.49071	0.01
303.15	0.7006	1.47893	0.01
303.15	0.801	1.46619	0.01
303.15	0.8997	1.453	0.01
303.15	1	1.43948	0.01
313.15	0	1.54288	0.01001
313.15	0.1008	1.53437	0.01001
313.15	0.1993	1.52579	0.01001
313.15	0.3	1.51672	0.01001
313.15	0.3997	1.5073	0.01001
313.15	0.4991	1.49727	0.01
313.15	0.6004	1.48623	0.01
313.15	0.7006	1.47436	0.01
313.15	0.801	1.46154	0.01
313.15	0.8997	1.44817	0.01
313.15	1	1.43423	0.01
323.15	0	1.53795	0.01001
323.15	0.1008	1.52975	0.01001
323.15	0.1993	1.5214	0.01001
323.15	0.3	1.51243	0.01001
323.15	0.3997	1.50299	0.01001
323.15	0.4991	1.49286	0.01
323.15	0.6004	1.48171	0.01
323.15	0.7006	1.46977	0.01
323.15	0.801	1.45687	0.01
323.15	0.8997	1.44337	0.01
323.15	1	1.42897	0.01
333.15	0	1.53289	0.01001
333.15	0.1008	1.52496	0.01001
333.15	0.1993	1.5169	0.01001
333.15	0.3	1.5081	0.01001
333.15	0.3997	1.49867	0.01001
333.15	0.4991	1.48847	0.01
333.15	0.6004	1.4772	0.01
333.15	0.7006	1.46518	0.01
333.15	0.801	1.45224	0.01
333.15	0.8997	1.43861	0.01
333.15	1	1.42373	0.01
