Measured thermophysical data. Saturation molalities and standard molar enthalpies of solution of a-D-xylose(cr)  in H2O(l); standard molar enthalpies of solution of 1,4-b-D-xylobiose(am),  and 1,4-b-D-xylotriose(am) in H2O(l)
Source: J. Chem. Thermodyn., 2012, 10.1016/j.jct.2011.07.004
Compound 1: water, H2O, InChI=1S/H2O/h1H2
Compound 2: D-xylose, C5H10O5, InChI=1S/C5H10O5/c6-1-3(8)5(10)4(9)2-7/h1,3-5,7-10H,2H2/t3-,4+,5+/m0/s1, purity 99.8%
Compound 3: 1,4-.beta.-xylobiose, C10H18O9, InChI=1S/C10H18O9/c11-1-4(13)7(15)6(2-12)19-10-9(17)8(16)5(14)3-18-10/h1,4-10,12-17H,2-3H2/t4-,5+,6+,7+,8-,9+,10-/m0/s1, purity 97%
Compound 4: 1,4-.beta.-D-xylotriose, C15H26O13, InChI=1S/C15H26O13/c16-1-5(18)9(20)7(2-17)27-15-13(24)11(22)8(4-26-15)28-14-12(23)10(21)6(19)3-25-14/h1,5-15,17-24H,2-4H2/t5-,6+,7+,8+,9+,10-,11-,12+,13+,14-,15-/m0/s1, purity 96.2%

System: D-xylose + water; phases: Liquid, Crystal
Property: Molality, mol/kg (Liquid); method: HPLC
Temperature, K	Pressure, kPa	Molality, mol/kg	uncertainty
298.15	101	8.43	0.41

System: D-xylose + water; phases: Liquid
Fixed: Pressure, kPa = 101
Property: Molar enthalpy of solution, kJ/mol (Liquid); method: Calvet calorimetry
Temperature, K	Molality, mol/kg of D-xylose	Molar enthalpy of solution, kJ/mol	uncertainty
298.03	0.03368	12.409	0.124
298.04	0.01777	12.403	0.124
298.07	0.0168	11.957	0.12
298.07	0.01722	11.907	0.119
298.09	0.01691	11.664	0.117
298.09	0.03356	12.226	0.122
298.09	0.03507	12.174	0.122
298.12	0.01714	12.097	0.121
298.13	0.03483	12.198	0.122
298.13	0.0359	12.23	0.12
298.14	0.01698	11.955	0.12
298.14	0.03442	12.181	0.122
298.18	0.03542	12.021	0.12

System: 1,4-.beta.-xylobiose + water; phases: Liquid
Fixed: Pressure, kPa = 101
Property: Molar enthalpy of solution, kJ/mol (Liquid); method: Calvet calorimetry
Temperature, K	Molality, mol/kg of 1,4-.beta.-xylobiose	Molar enthalpy of solution, kJ/mol	uncertainty
298.15	0.0018	-9.75	0.1
298.19	0.00117	-5.86	0.06
298.26	0.00112	-7.47	0.07
298.34	0.00233	-10.41	0.1
298.41	0.00248	-6.72	0.07

System: water + 1,4-.beta.-D-xylotriose; phases: Liquid
Fixed: Pressure, kPa = 101
Property: Molar enthalpy of solution, kJ/mol (Liquid); method: Calvet calorimetry
Temperature, K	Molality, mol/kg of 1,4-.beta.-D-xylotriose	Molar enthalpy of solution, kJ/mol	uncertainty
298.39	0.00053	-22.64	0.23
298.4	0.000695	-26.83	0.27
298.4	0.000705	-24.84	0.25
298.4	0.000836	-24	0.24
298.44	0.000659	-22.15	0.22
