Measured thermophysical data. Measurement and correlation of vapor-liquid equilibrium data for binary and ternary systems composed of (-)-beta-caryophyllene, p-cymene and 3-carene at 101.33 kPa
Source: J. Chem. Thermodyn., 2019, 10.1016/j.jct.2018.08.015
Compound 1: 3,7,7-trimethylbicyclo[4.1.0]hept-3-ene, C10H16, InChI=1S/C10H16/c1-7-4-5-8-9(6-7)10(8,2)3/h4,8-9H,5-6H2,1-3H3, purity 97%
Compound 2: 1-(1-methylethyl)-4-methylbenzene, C10H14, InChI=1S/C10H14/c1-8(2)10-6-4-9(3)5-7-10/h4-8H,1-3H3, purity 97%
Compound 3: [1R-(1R*,4E,9S*)]-4,11,11-trimethyl-8-methylene-bicyclo[7.2.0]-4-undecene, C15H24, InChI=1S/C15H24/c1-11-6-5-7-12(2)13-10-15(3,4)14(13)9-8-11/h6,13-14H,2,5,7-10H2,1,3-4H3/b11-6+/t13-,14-/m1/s1, purity 98%

System: 3,7,7-trimethylbicyclo[4.1.0]hept-3-ene; phases: Liquid
Property: Mass density, kg/m3 (Liquid); method: Vibrating tube method
Temperature, K	Pressure, kPa	Mass density, kg/m3	uncertainty
298.15	101.325	863.8	2

System: 3,7,7-trimethylbicyclo[4.1.0]hept-3-ene; phases: Liquid, Gas
Property: Vapor or sublimation pressure, kPa (Liquid); method: Ebulliometric method (Recirculating still)
Temperature, K	Vapor or sublimation pressure, kPa	uncertainty
356.07	5.32	0.64
378.03	14.5	0.68
388.7	20.46	0.8
391.9	22.59	1.02
396.66	26.61	1.13
405.49	34.54	1.29
412.42	42.81	1.53
416.18	47.76	1.78
424.04	59.53	1.87
426.24	63.19	2.12
430.64	70.97	2.24
433.68	76.91	2.38
436.32	82.05	2.74
439.47	89.96	2.77
442.61	96.43	2.75
444.44	101.33	3.24

System: 1-(1-methylethyl)-4-methylbenzene; phases: Liquid
Property: Mass density, kg/m3 (Liquid); method: Vibrating tube method
Temperature, K	Pressure, kPa	Mass density, kg/m3	uncertainty
298.15	101.325	853.2	2

System: 1-(1-methylethyl)-4-methylbenzene; phases: Liquid, Gas
Property: Vapor or sublimation pressure, kPa (Liquid); method: Ebulliometric method (Recirculating still)
Temperature, K	Vapor or sublimation pressure, kPa	uncertainty
450.28	101.33	6.09

System: [1R-(1R*,4E,9S*)]-4,11,11-trimethyl-8-methylene-bicyclo[7.2.0]-4-undecene; phases: Liquid
Property: Mass density, kg/m3 (Liquid); method: Vibrating tube method
Temperature, K	Pressure, kPa	Mass density, kg/m3	uncertainty
298.15	101.325	896.8	2

System: [1R-(1R*,4E,9S*)]-4,11,11-trimethyl-8-methylene-bicyclo[7.2.0]-4-undecene; phases: Liquid, Gas
Property: Vapor or sublimation pressure, kPa (Liquid); method: Ebulliometric method (Recirculating still)
Temperature, K	Vapor or sublimation pressure, kPa	uncertainty
370.33	0.51	0.4
380.5	0.84	0.4
395.45	1.63	0.41
420.02	4.31	0.44
435.58	7.51	0.52
454.18	13.85	0.62
464.9	19.18	0.78
474.02	24.96	0.91
480.05	29.55	1.14
491.45	40.33	1.35
502.53	53.62	1.67
512.49	68.83	2.08
522.97	88.4	2.41
528.78	101.33	2.7

System: [1R-(1R*,4E,9S*)]-4,11,11-trimethyl-8-methylene-bicyclo[7.2.0]-4-undecene + 1-(1-methylethyl)-4-methylbenzene; phases: Liquid, Gas
Fixed: Pressure, kPa = 101.33
Property: Boiling temperature at pressure P, K (Liquid); method: Ebulliometric method (Recirculating still)
Mole fraction of 1-(1-methylethyl)-4-methylbenzene	Boiling temperature at pressure P, K	uncertainty
1	450.28	1.21
0.9436	451.02	1.21
0.9006	452.36	1.21
0.8391	453.9	1.2
0.7954	455.65	1.21
0.7455	456.98	1.21
0.6423	460.8	1.2
0.531	465.85	1.21
0.5003	468.02	1.21
0.4466	471.51	1.21
0.4072	474.71	1.21
0.3618	477.93	1.21
0.2729	486.17	1.21
0.1886	496.53	1.21
0.1554	502.06	1.21
0.111	508.06	1.21
0.0672	515.34	1.21
0.0381	520.85	1.21
0	528.78	1.21

System: [1R-(1R*,4E,9S*)]-4,11,11-trimethyl-8-methylene-bicyclo[7.2.0]-4-undecene + 1-(1-methylethyl)-4-methylbenzene; phases: Gas, Liquid
Fixed: Pressure, kPa = 101.33
Property: Mole fraction of 1-(1-methylethyl)-4-methylbenzene (Gas); method: Chromatography
Mole fraction of 1-(1-methylethyl)-4-methylbenzene	Mole fraction of 1-(1-methylethyl)-4-methylbenzene	uncertainty
1	1	
0.9436	0.9883	0.0102
0.9006	0.9807	0.0102
0.8391	0.9695	0.0102
0.7954	0.9594	0.0103
0.7455	0.9481	0.0102
0.6423	0.9266	0.0103
0.531	0.8938	0.0107
0.5003	0.873	0.0112
0.4466	0.8514	0.0112
0.4072	0.8279	0.0119
0.3618	0.7995	0.0129
0.2729	0.7224	0.0155
0.1886	0.6003	0.0185
0.1554	0.5426	0.024
0.111	0.4355	0.0292
0.0672	0.3032	0.0359
0.0381	0.1825	0.0464
0	0	

System: [1R-(1R*,4E,9S*)]-4,11,11-trimethyl-8-methylene-bicyclo[7.2.0]-4-undecene + 3,7,7-trimethylbicyclo[4.1.0]hept-3-ene; phases: Liquid, Gas
Fixed: Pressure, kPa = 101.33
Property: Boiling temperature at pressure P, K (Liquid); method: Ebulliometric method (Recirculating still)
Mole fraction of 3,7,7-trimethylbicyclo[4.1.0]hept-3-ene	Boiling temperature at pressure P, K	uncertainty
1	444.44	1.21
0.9254	446.32	1.21
0.897	446.9	1.21
0.8585	448.44	1.21
0.8439	448.85	1.21
0.7942	451.01	1.21
0.7556	451.42	1.21
0.6238	454.72	1.21
0.5369	460.02	1.21
0.4721	463.62	1.21
0.4233	466.51	1.21
0.3689	470.92	1.21
0.334	474.33	1.21
0.2446	484.06	1.21
0.1639	496.05	1.21
0.1215	502.54	1.21
0.0837	509.23	1.21
0.056	515.31	1.21
0.0367	520.39	1.21
0	528.78	1.21

System: [1R-(1R*,4E,9S*)]-4,11,11-trimethyl-8-methylene-bicyclo[7.2.0]-4-undecene + 3,7,7-trimethylbicyclo[4.1.0]hept-3-ene; phases: Gas, Liquid
Fixed: Pressure, kPa = 101.33
Property: Mole fraction of 3,7,7-trimethylbicyclo[4.1.0]hept-3-ene (Gas); method: Chromatography
Mole fraction of 3,7,7-trimethylbicyclo[4.1.0]hept-3-ene	Mole fraction of 3,7,7-trimethylbicyclo[4.1.0]hept-3-ene	uncertainty
1	1	
0.9254	0.9777	0.0104
0.897	0.9724	0.0102
0.8585	0.9636	0.0102
0.8439	0.9611	0.0102
0.7942	0.952	0.0101
0.7556	0.9501	0.0101
0.6238	0.9267	0.0103
0.5369	0.9024	0.0105
0.4721	0.8782	0.0108
0.4233	0.8588	0.0111
0.3689	0.8298	0.012
0.334	0.8004	0.0132
0.2446	0.7266	0.0153
0.1639	0.6077	0.0205
0.1215	0.5054	0.0286
0.0837	0.3952	0.0354
0.056	0.2822	0.0432
0.0367	0.1978	0.0519
0	0	

System: 1-(1-methylethyl)-4-methylbenzene + 3,7,7-trimethylbicyclo[4.1.0]hept-3-ene; phases: Liquid, Gas
Fixed: Pressure, kPa = 101.33
Property: Boiling temperature at pressure P, K (Liquid); method: Ebulliometric method (Recirculating still)
Mole fraction of 3,7,7-trimethylbicyclo[4.1.0]hept-3-ene	Boiling temperature at pressure P, K	uncertainty
1	444.44	1.21
0.9092	444.96	1.21
0.8625	445.48	1.21
0.8191	445.68	1.21
0.784	445.89	1.21
0.728	446.1	1.21
0.6327	446.41	1.21
0.5608	446.73	1.21
0.5287	447.03	1.21
0.4826	447.23	1.21
0.4368	447.43	1.21
0.3795	447.74	1.21
0.2844	448.05	1.21
0.2177	448.57	1.21
0.1649	448.77	1.21
0.1211	449.08	1.21
0.0915	449.27	1.21
0.0407	449.79	1.21
0	450.28	1.21

System: 1-(1-methylethyl)-4-methylbenzene + 3,7,7-trimethylbicyclo[4.1.0]hept-3-ene; phases: Gas, Liquid
Fixed: Pressure, kPa = 101.33
Property: Mole fraction of 3,7,7-trimethylbicyclo[4.1.0]hept-3-ene (Gas); method: Chromatography
Mole fraction of 3,7,7-trimethylbicyclo[4.1.0]hept-3-ene	Mole fraction of 3,7,7-trimethylbicyclo[4.1.0]hept-3-ene	uncertainty
1	1	
0.9092	0.9187	0.0135
0.8625	0.8754	0.014
0.8191	0.8309	0.0139
0.784	0.8015	0.0133
0.728	0.7534	0.0139
0.6327	0.6608	0.0145
0.5608	0.5855	0.0151
0.5287	0.5499	0.0145
0.4826	0.5102	0.0148
0.4368	0.459	0.014
0.3795	0.4149	0.0143
0.2844	0.3165	0.015
0.2177	0.2387	0.0148
0.1649	0.1889	0.0138
0.1211	0.1487	0.0153
0.0915	0.1027	0.0156
0.0407	0.0514	0.015
0	0	

System: [1R-(1R*,4E,9S*)]-4,11,11-trimethyl-8-methylene-bicyclo[7.2.0]-4-undecene + 1-(1-methylethyl)-4-methylbenzene + 3,7,7-trimethylbicyclo[4.1.0]hept-3-ene; phases: Liquid, Gas
Fixed: Pressure, kPa = 101.33
Property: Mole fraction of 1-(1-methylethyl)-4-methylbenzene (Liquid); method: Chromatography
Property: Mole fraction of [1R-(1R*,4E,9S*)]-4,11,11-trimethyl-8-methylene-bicyclo[7.2.0]-4-undecene (Gas); method: Chromatography
Property: Mole fraction of 1-(1-methylethyl)-4-methylbenzene (Gas); method: Chromatography
Temperature, K	Mole fraction of [1R-(1R*,4E,9S*)]-4,11,11-trimethyl-8-methylene-bicyclo[7.2.0]-4-undecene	Mole fraction of 1-(1-methylethyl)-4-methylbenzene	uncertainty	Mole fraction of [1R-(1R*,4E,9S*)]-4,11,11-trimethyl-8-methylene-bicyclo[7.2.0]-4-undecene	uncertainty	Mole fraction of 1-(1-methylethyl)-4-methylbenzene	uncertainty
449.27	0.1394	0.1585	0.0101	0.0286	0.01	0.1385	
448.04	0.0643	0.2599	0.0102	0.0116	0.01	0.2343	
447.11	0.0319	0.3525	0.0103	0.0062	0.0062	0.3252	
453.18	0.2712	0.1548	0.0101	0.0498	0.01	0.1535	
452.05	0.2014	0.2555	0.0102	0.0351	0.01	0.2547	
449.97	0.1115	0.3973	0.0104	0.0162	0.01	0.3948	
448.45	0.0535	0.4998	0.0106	0.0066	0.0066	0.4955	
459.65	0.3934	0.1935	0.0101	0.0837	0.01	0.2318	
452.53	0.1741	0.4388	0.0105	0.0314	0.01	0.4673	
466.9	0.5487	0.1102	0.01	0.1417	0.0101	0.1602	
456.52	0.2852	0.3768	0.0104	0.0625	0.01	0.4427	
465.58	0.4954	0.193	0.0101	0.1209	0.0101	0.2823	
459.11	0.3451	0.3644	0.0103	0.0703	0.01	0.4678	
480.62	0.7148	0.0401	0.01	0.2423	0.0102	0.0835	
467.03	0.4989	0.2675	0.0102	0.1232	0.0101	0.4196	
469.82	0.5754	0.2353	0.0101	0.156	0.01	0.4184	
456.44	0.2554	0.5486	0.0105	0.0512	0.01	0.6675	
489.31	0.7808	0.0644	0.01	0.3314	0.0104	0.1735	
463.67	0.4115	0.4459	0.0105	0.0957	0.01	0.6598	
461.13	0.3577	0.5096	0.0106	0.0819	0.01	0.7185	
458.5	0.2921	0.6018	0.0104	0.0604	0.01	0.7888	
460.13	0.3301	0.5788	0.0105	0.0732	0.01	0.7949	
494.79	0.8194	0.1165	0.01	0.3937	0.0106	0.3654	
483.48	0.7086	0.2315	0.0101	0.2675	0.0103	0.5955	
477.51	0.6335	0.3243	0.0103	0.2058	0.0102	0.7145	
