Measured thermophysical data. Experimental measurement and correlation of solubility of ethosuximide in supercritical carbon dioxide
Source: J. Chem. Thermodyn., 2019, 10.1016/j.jct.2018.10.032
Compound 1: carbon dioxide, CO2, InChI=1S/CO2/c2-1-3, purity 99.9%
Compound 2: Ethosuximide, C7H11NO2, InChI=1S/C7H11NO2/c1-3-7(2)4-5(9)8-6(7)10/h3-4H2,1-2H3,(H,8,9,10), purity 98%

System: Ethosuximide; phases: Crystal, Liquid, Air at 1 atmosphere
Property: Normal melting temperature, K (Crystal); method: DTA
Normal melting temperature, K	uncertainty
316.71	0.41

System: carbon dioxide + Ethosuximide; phases: Fluid (supercritical or subcritical phases), Liquid
Property: Vapor or sublimation pressure, kPa (Fluid (supercritical or subcritical phases)); method: Closed cell (Static) method
Temperature, K	Mole fraction of Ethosuximide	Vapor or sublimation pressure, kPa	uncertainty
313.15	0.00351	9370	220
313.15	0.00485	9800	230
313.15	0.0055	9860	220
313.15	0.0063	10080	230
313.15	0.00692	10250	260
313.15	0.00752	10580	250
313.15	0.00808	10670	230
313.15	0.00863	10910	260
318.15	0.00347	10500	230
318.15	0.00482	11040	240
318.15	0.00548	11130	230
318.15	0.00626	11390	230
318.15	0.00689	11580	250
318.15	0.00753	11930	240
318.15	0.00816	12040	230
318.15	0.00865	12310	260
323.15	0.00347	11540	230
323.15	0.00482	12170	240
323.15	0.0055	12310	230
323.15	0.00627	12580	230
323.15	0.00691	12780	260
323.15	0.00755	13160	210
323.15	0.00829	13300	240
323.15	0.00868	13620	320
328.15	0.00345	12540	220
328.15	0.00481	13300	240
328.15	0.0055	13440	210
328.15	0.00624	13720	230
328.15	0.00693	13910	270
328.15	0.00758	14320	250
328.15	0.00843	14470	250
328.15	0.00871	14800	440
