Measured thermophysical data. Synthesis and solubility measurement in supercritical carbon dioxide of two solid derivatives of 2-methylnaphthalene-1,4-dione (menadione): 2-(Benzylamino)-3-methylnaphthalene-1,4-dione and 3-(phenethylamino)-2-methylnaphthalene-1,4-dione
Source: J. Chem. Thermodyn., 2016, 10.1016/j.jct.2016.08.016
Compound 1: 2-(benzylamino)-3-methylnaphthalene-1,4-dione, C18H15NO2, InChI=1S/C18H15NO2/c1-12-16(19-11-13-7-3-2-4-8-13)18(21)15-10-6-5-9-14(15)17(12)20/h2-10,19H,11H2,1H3, purity 90%
Compound 2: 3-(phenethylamino)-2-methylnaphthalene-1,4-dione, C19H17NO2, InChI=1S/C19H17NO2/c1-13-17(20-12-11-14-7-3-2-4-8-14)19(22)16-10-6-5-9-15(16)18(13)21/h2-10,20H,11-12H2,1H3, purity 91%
Compound 3: carbon dioxide, CO2, InChI=1S/CO2/c2-1-3, purity 99.99%

System: 2-(benzylamino)-3-methylnaphthalene-1,4-dione; phases: Crystal, Liquid, Air at 1 atmosphere
Property: Normal melting temperature, K (Crystal); method: VISOBS
Normal melting temperature, K	uncertainty
364.8	2.6

System: 3-(phenethylamino)-2-methylnaphthalene-1,4-dione; phases: Crystal, Liquid, Air at 1 atmosphere
Property: Normal melting temperature, K (Crystal); method: VISOBS
Normal melting temperature, K	uncertainty
365.7	1.6

System: carbon dioxide + 2-(benzylamino)-3-methylnaphthalene-1,4-dione; phases: Fluid (supercritical or subcritical phases), Crystal
Property: Mole fraction of 2-(benzylamino)-3-methylnaphthalene-1,4-dione (Fluid (supercritical or subcritical phases)); method: Chromatography
Temperature, K	Pressure, kPa	Mole fraction of 2-(benzylamino)-3-methylnaphthalene-1,4-dione	uncertainty
313	8950	5.9e-05	3e-05
313	11840	0.000158	3.3e-05
313	15260	0.000244	4.1e-05
313	17280	0.00028	4.4e-05
313	18970	0.000301	4.5e-05
323	9820	8.6e-05	3.9e-05
323	14900	0.00024	4.1e-05
323	16950	0.000266	4.5e-05
323	21460	0.000341	5.1e-05
323	28400	0.000368	5.3e-05
333	12160	9.1e-05	3.4e-05
333	15080	0.000192	4e-05
333	16920	0.000256	4.5e-05
333	20170	0.000338	5.4e-05
333	25080	0.000367	5.5e-05

System: 3-(phenethylamino)-2-methylnaphthalene-1,4-dione + carbon dioxide; phases: Fluid (supercritical or subcritical phases), Crystal
Property: Mole fraction of 3-(phenethylamino)-2-methylnaphthalene-1,4-dione (Fluid (supercritical or subcritical phases)); method: Chromatography
Temperature, K	Pressure, kPa	Mole fraction of 3-(phenethylamino)-2-methylnaphthalene-1,4-dione	uncertainty
313	8400	4e-05	3.6e-05
313	14820	9.2e-05	2.7e-05
313	16830	0.000107	2.9e-05
313	19900	0.000118	3e-05
313	22560	0.000128	3.1e-05
323	9240	4.4e-05	3.9e-05
323	11800	4.7e-05	2.5e-05
323	14420	8.7e-05	2.8e-05
323	17280	0.000123	3.2e-05
323	19580	0.000117	3.1e-05
333	10490	5.7e-05	3.9e-05
333	14150	7.2e-05	2.8e-05
333	16890	0.000124	3.4e-05
333	21540	0.000189	4.2e-05
333	24350	0.000205	4.4e-05
