Measured thermophysical data. Excess molar enthalpies for binary mixtures of cyclopentanone, cyclohexanone, or cycloheptanone with n-nonane at T = 298.15 K and atmospheric pressure
Source: J. Chem. Thermodyn., 2014, 10.1016/j.jct.2014.03.007
Compound 1: cyclopentanone, C5H8O, InChI=1S/C5H8O/c6-5-3-1-2-4-5/h1-4H2, purity 99.99%
Compound 2: cyclohexanone, C6H10O, InChI=1S/C6H10O/c7-6-4-2-1-3-5-6/h1-5H2, purity 99.99%
Compound 3: cycloheptanone, C7H12O, InChI=1S/C7H12O/c8-7-5-3-1-2-4-6-7/h1-6H2, purity 99.97%
Compound 4: nonane, C9H20, InChI=1S/C9H20/c1-3-5-7-9-8-6-4-2/h3-9H2,1-2H3, purity 99.6%

System: cyclopentanone; phases: Liquid
Property: Mass density, kg/m3 (Liquid); method: Vibrating tube method
Temperature, K	Pressure, kPa	Mass density, kg/m3	uncertainty
298.15	101.325	944.3	0.8

System: cyclopentanone; phases: Liquid
Property: Refractive index (Na D-line) (Liquid); method: Standard Abbe refractometry
Temperature, K	Pressure, kPa	Refractive index (Na D-line)	uncertainty
298.15	101.325	1.4347	0.0009

System: cyclohexanone; phases: Liquid
Property: Mass density, kg/m3 (Liquid); method: Vibrating tube method
Temperature, K	Pressure, kPa	Mass density, kg/m3	uncertainty
298.15	101.325	942.2	0.8

System: cyclohexanone; phases: Liquid
Property: Refractive index (Na D-line) (Liquid); method: Standard Abbe refractometry
Temperature, K	Pressure, kPa	Refractive index (Na D-line)	uncertainty
298.15	101.325	1.4481	0.0009

System: cycloheptanone; phases: Liquid
Property: Mass density, kg/m3 (Liquid); method: Vibrating tube method
Temperature, K	Pressure, kPa	Mass density, kg/m3	uncertainty
298.15	101.325	950.2	0.8

System: cycloheptanone; phases: Liquid
Property: Refractive index (Na D-line) (Liquid); method: Standard Abbe refractometry
Temperature, K	Pressure, kPa	Refractive index (Na D-line)	uncertainty
293.15	101.325	1.4605	0.0009

System: nonane; phases: Liquid
Property: Mass density, kg/m3 (Liquid); method: Vibrating tube method
Temperature, K	Pressure, kPa	Mass density, kg/m3	uncertainty
298.15	101.325	714	0.8

System: nonane; phases: Liquid
Property: Refractive index (Na D-line) (Liquid); method: Standard Abbe refractometry
Temperature, K	Pressure, kPa	Refractive index (Na D-line)	uncertainty
298.15	101.325	1.4022	0.0009

System: nonane + cyclopentanone; phases: Liquid
Fixed: Pressure, kPa = 100
Fixed: Temperature, K = 298.15
Property: Excess molar enthalpy (molar enthalpy of mixing), kJ/mol (Liquid); method: Calvet calorimetry
Mole fraction of nonane	Excess molar enthalpy (molar enthalpy of mixing), kJ/mol	uncertainty
0.0455	0.293	0.004
0.098	0.529	0.007
0.1522	0.75	0.01
0.1989	0.92	0.012
0.2932	1.142	0.014
0.3864	1.308	0.016
0.4335	1.36	0.017
0.4912	1.414	0.018
0.5382	1.428	0.018
0.5854	1.43	0.018
0.6878	1.333	0.017
0.7946	1.098	0.014
0.8452	0.902	0.012
0.8888	0.718	0.009
0.9223	0.52	0.007
0.9652	0.276	0.004

System: cyclohexanone + nonane; phases: Liquid
Fixed: Pressure, kPa = 100
Fixed: Temperature, K = 298.15
Property: Excess molar enthalpy (molar enthalpy of mixing), kJ/mol (Liquid); method: Calvet calorimetry
Mole fraction of nonane	Excess molar enthalpy (molar enthalpy of mixing), kJ/mol	uncertainty
0.0508	0.26	0.004
0.1022	0.489	0.007
0.1495	0.67	0.009
0.2001	0.845	0.011
0.3005	1.102	0.014
0.3599	1.198	0.015
0.4152	1.278	0.016
0.4494	1.31	0.016
0.5399	1.332	0.017
0.6204	1.296	0.016
0.7021	1.188	0.015
0.7681	1.043	0.013
0.8559	0.77	0.01
0.8825	0.645	0.009
0.9435	0.356	0.005

System: nonane + cycloheptanone; phases: Liquid
Fixed: Pressure, kPa = 100
Fixed: Temperature, K = 298.15
Property: Excess molar enthalpy (molar enthalpy of mixing), kJ/mol (Liquid); method: Calvet calorimetry
Mole fraction of nonane	Excess molar enthalpy (molar enthalpy of mixing), kJ/mol	uncertainty
0.0453	0.202	0.003
0.1042	0.443	0.006
0.1544	0.595	0.008
0.2077	0.793	0.01
0.3021	1.036	0.013
0.4045	1.195	0.015
0.4571	1.241	0.016
0.501	1.249	0.016
0.5518	1.241	0.016
0.6065	1.213	0.015
0.7012	1.11	0.014
0.8053	0.87	0.011
0.9005	0.519	0.007
0.9428	0.302	0.005
