Measured thermophysical data. Experimental study on vapor-liquid equilibria of ternary systems of hydrocarbons/ionic liquid  using headspace gas chromatography
Source: J. Chem. Thermodyn., 2012, 10.1016/j.jct.2012.02.032
Compound 1: hexane, C6H14, InChI=1S/C6H14/c1-3-5-6-4-2/h3-6H2,1-2H3, purity 99%
Compound 2: benzene, C6H6, InChI=1S/C6H6/c1-2-4-6-5-3-1/h1-6H, purity 99%
Compound 3: cyclohexane, C6H12, InChI=1S/C6H12/c1-2-4-6-5-3-1/h1-6H2, purity 99%
Compound 4: hex-1-ene, C6H12, InChI=1S/C6H12/c1-3-5-6-4-2/h3H,1,4-6H2,2H3, purity 99%
Compound 5: 1-methyl-3-octyl-1H-imidazolium thiocyanate, C13H23N3S, InChI=1S/C12H23N2.CHNS/c1-3-4-5-6-7-8-9-14-11-10-13(2)12-14;2-1-3/h10-12H,3-9H2,1-2H3;3H/q+1;/p-1, purity 98%

System: benzene + hexane + 1-methyl-3-octyl-1H-imidazolium thiocyanate; phases: Gas, Liquid
Fixed: Temperature, K = 323.2
Fixed: Mole fraction of 1-methyl-3-octyl-1H-imidazolium thiocyanate = 0.8
Property: Mole fraction of hexane (Gas); method: Chromatography
Solvent: Mole fraction of hexane	Mole fraction of hexane	uncertainty
0.048	0.21	0.003
0.109	0.325	0.005
0.145	0.436	0.009
0.255	0.558	0.01
0.328	0.634	0.009
0.437	0.676	0.009
0.601	0.762	0.007
0.673	0.836	0.005
0.8	0.9	0.003
0.872	0.968	0.001
0.904	0.996	0.001

System: hexane + cyclohexane + 1-methyl-3-octyl-1H-imidazolium thiocyanate; phases: Gas, Liquid
Fixed: Temperature, K = 323.2
Fixed: Mole fraction of 1-methyl-3-octyl-1H-imidazolium thiocyanate = 0.8
Property: Mole fraction of hexane (Gas); method: Chromatography
Solvent: Mole fraction of hexane	Mole fraction of hexane	uncertainty
0.009	0.091	0.001
0.028	0.17	0.002
0.1	0.3	0.005
0.214	0.441	0.009
0.294	0.517	0.011
0.378	0.611	0.01
0.491	0.702	0.008
0.603	0.789	0.007
0.672	0.856	0.005
0.818	0.948	0.002
0.915	0.985	0.001

System: benzene + cyclohexane + 1-methyl-3-octyl-1H-imidazolium thiocyanate; phases: Gas, Liquid
Fixed: Temperature, K = 323.2
Fixed: Mole fraction of 1-methyl-3-octyl-1H-imidazolium thiocyanate = 0.8
Property: Mole fraction of cyclohexane (Gas); method: Chromatography
Solvent: Mole fraction of cyclohexane	Mole fraction of cyclohexane	uncertainty
0.045	0.105	0.001
0.093	0.204	0.003
0.204	0.34	0.006
0.323	0.445	0.009
0.467	0.576	0.01
0.503	0.603	0.01
0.587	0.687	0.009
0.71	0.78	0.007
0.851	0.896	0.004
0.94	0.975	0.001
0.943	0.991	0.001

System: cyclohexane + hex-1-ene + 1-methyl-3-octyl-1H-imidazolium thiocyanate; phases: Gas, Liquid
Fixed: Temperature, K = 323.2
Fixed: Mole fraction of 1-methyl-3-octyl-1H-imidazolium thiocyanate = 0.8
Property: Mole fraction of hex-1-ene (Gas); method: Chromatography
Solvent: Mole fraction of hex-1-ene	Mole fraction of hex-1-ene	uncertainty
0.026	0.124	0.002
0.054	0.304	0.004
0.101	0.402	0.006
0.179	0.468	0.008
0.295	0.57	0.008
0.421	0.666	0.007
0.546	0.771	0.005
0.654	0.849	0.004
0.723	0.878	0.003
0.839	0.948	0.002
0.934	0.976	0.001

System: benzene + hex-1-ene + 1-methyl-3-octyl-1H-imidazolium thiocyanate; phases: Gas, Liquid
Fixed: Temperature, K = 323.2
Fixed: Mole fraction of 1-methyl-3-octyl-1H-imidazolium thiocyanate = 0.8
Property: Mole fraction of hex-1-ene (Gas); method: Chromatography
Solvent: Mole fraction of hex-1-ene	Mole fraction of hex-1-ene	uncertainty
0.071	0.201	0.003
0.084	0.24	0.004
0.142	0.368	0.007
0.341	0.646	0.009
0.369	0.701	0.008
0.441	0.779	0.007
0.486	0.821	0.006
0.591	0.889	0.004
0.743	0.943	0.002
