Measured thermophysical data. Excess molar enthalpies of ternary mixtures (dibutyl ether or dipropyl  ether + 2,2-dimethylbutane + 2,3-dimethylbutane) at the temperature 298.15 K
Source: J. Chem. Thermodyn., 2011, 10.1016/j.jct.2011.04.006
Compound 1: dibutyl ether, C8H18O, InChI=1S/C8H18O/c1-3-5-7-9-8-6-4-2/h3-8H2,1-2H3, purity 99.9%
Compound 2: dipropyl ether, C6H14O, InChI=1S/C6H14O/c1-3-5-7-6-4-2/h3-6H2,1-2H3, purity 99%
Compound 3: 2,2-dimethylbutane, C6H14, InChI=1S/C6H14/c1-5-6(2,3)4/h5H2,1-4H3, purity 99%
Compound 4: 2,3-dimethylbutane, C6H14, InChI=1S/C6H14/c1-5(2)6(3)4/h5-6H,1-4H3, purity 99%

System: dibutyl ether; phases: Liquid
Property: Mass density, kg/m3 (Liquid); method: Vibrating tube method
Temperature, K	Pressure, kPa	Mass density, kg/m3	uncertainty
298.15	101.325	763.806	0.132

System: dipropyl ether; phases: Liquid
Property: Mass density, kg/m3 (Liquid); method: Vibrating tube method
Temperature, K	Pressure, kPa	Mass density, kg/m3	uncertainty
298.15	101.325	741.977	0.245

System: 2,2-dimethylbutane; phases: Liquid
Property: Mass density, kg/m3 (Liquid); method: Vibrating tube method
Temperature, K	Pressure, kPa	Mass density, kg/m3	uncertainty
298.15	101.325	644.588	0.257

System: 2,3-dimethylbutane; phases: Liquid
Property: Mass density, kg/m3 (Liquid); method: Vibrating tube method
Temperature, K	Pressure, kPa	Mass density, kg/m3	uncertainty
298.15	101.325	657.023	0.255

System: 2,3-dimethylbutane + dibutyl ether; phases: Liquid
Fixed: Temperature, K = 298.15
Fixed: Pressure, kPa = 101
Property: Excess molar enthalpy (molar enthalpy of mixing), kJ/mol (Liquid); method: Flow calorimetry
Mole fraction of dibutyl ether	Excess molar enthalpy (molar enthalpy of mixing), kJ/mol	uncertainty
0.05	0.0254	0.001
0.1	0.0436	0.0012
0.1501	0.0589	0.0013
0.2	0.072	0.0014
0.2502	0.082	0.0015
0.3	0.09	0.0016
0.3499	0.0956	0.0017
0.3998	0.0995	0.0017
0.4501	0.1018	0.0018
0.5	0.1017	0.0018
0.5002	0.1012	0.0017
0.5493	0.1	0.0017
0.5999	0.0959	0.0017
0.6501	0.0906	0.0016
0.7	0.0835	0.0016
0.75	0.0758	0.0015
0.8001	0.0667	0.0014
0.85	0.0555	0.0013
0.9001	0.0424	0.0011
0.95	0.0281	0.001

System: 2,2-dimethylbutane + dibutyl ether; phases: Liquid
Fixed: Temperature, K = 298.15
Fixed: Pressure, kPa = 101
Property: Excess molar enthalpy (molar enthalpy of mixing), kJ/mol (Liquid); method: Flow calorimetry
Mole fraction of dibutyl ether	Excess molar enthalpy (molar enthalpy of mixing), kJ/mol	uncertainty
0.05	0.0272	0.0011
0.1	0.0467	0.0012
0.1499	0.0627	0.0013
0.2001	0.0752	0.0015
0.2502	0.0857	0.0016
0.2996	0.0937	0.0017
0.3501	0.0991	0.0017
0.3998	0.1029	0.0018
0.4497	0.1042	0.0018
0.5003	0.1029	0.0018
0.5004	0.1025	0.0018
0.5499	0.0998	0.0017
0.6002	0.0953	0.0017
0.6498	0.0893	0.0016
0.6999	0.0826	0.0015
0.7501	0.0723	0.0014
0.8	0.0622	0.0013
0.85	0.0497	0.0012
0.9	0.0368	0.0011
0.95	0.0221	0.001

System: 2,2-dimethylbutane + dipropyl ether; phases: Liquid
Fixed: Temperature, K = 298.15
Fixed: Pressure, kPa = 101
Property: Excess molar enthalpy (molar enthalpy of mixing), kJ/mol (Liquid); method: Flow calorimetry
Mole fraction of dipropyl ether	Excess molar enthalpy (molar enthalpy of mixing), kJ/mol	uncertainty
0.05	0.0379	0.0012
0.1	0.0681	0.0015
0.15	0.0897	0.0017
0.2	0.1094	0.0019
0.2499	0.1246	0.002
0.2998	0.1371	0.0022
0.3499	0.1459	0.0023
0.3998	0.1508	0.0023
0.4501	0.1547	0.0024
0.4995	0.1547	0.0024
0.5497	0.1511	0.0023
0.6001	0.1451	0.0023
0.65	0.1358	0.0022
0.7001	0.1248	0.002
0.7503	0.111	0.0019
0.8001	0.0945	0.0017
0.85	0.0748	0.0015
0.9	0.0532	0.0013
0.95	0.0283	0.0011

System: 2,3-dimethylbutane + dipropyl ether; phases: Liquid
Fixed: Temperature, K = 298.15
Fixed: Pressure, kPa = 101
Property: Excess molar enthalpy (molar enthalpy of mixing), kJ/mol (Liquid); method: Flow calorimetry
Mole fraction of dipropyl ether	Excess molar enthalpy (molar enthalpy of mixing), kJ/mol	uncertainty
0.05	0.0354	0.0012
0.1	0.0636	0.0014
0.15	0.086	0.0016
0.2001	0.1054	0.0018
0.25	0.1205	0.002
0.3001	0.1342	0.0021
0.3499	0.1446	0.0023
0.4	0.1525	0.0024
0.4498	0.1564	0.0024
0.4998	0.1573	0.0024
0.4998	0.1576	0.0024
0.55	0.1555	0.0024
0.5999	0.1503	0.0023
0.6501	0.1424	0.0022
0.7	0.1315	0.0021
0.7502	0.117	0.002
0.8	0.1014	0.0018
0.85	0.0809	0.0016
0.9	0.0579	0.0014
0.95	0.0314	0.0012
