Measured thermophysical data. Molecular interaction between binary mixtures 1-butyl-3-methylimidazolium bis(trifluoromethylsulfonyl)imide with N-Vinyl-2-pyrrolidinone at different temperatures
Source: J. Chem. Thermodyn., 2017, 10.1016/j.jct.2017.01.014
Compound 1: 1-butyl-3-methylimidazolium bis(trifluoromethylsulfonyl)imide, C10H15F6N3O4S2, InChI=1S/C8H15N2.C2F6NO4S2/c1-3-4-5-10-7-6-9(2)8-10;3-1(4,5)14(10,11)9-15(12,13)2(6,7)8/h6-8H,3-5H2,1-2H3;/q+1;-1, purity 99.5%
Compound 2: N-vinylpyrrolidone, C6H9NO, InChI=1S/C6H9NO/c1-2-7-5-3-4-6(7)8/h2H,1,3-5H2, purity 97%

System: N-vinylpyrrolidone + 1-butyl-3-methylimidazolium bis(trifluoromethylsulfonyl)imide; phases: Liquid
Fixed: Pressure, kPa = 100
Property: Mass density, kg/m3 (Liquid); method: Vibrating tube method
Temperature, K	Mole fraction of 1-butyl-3-methylimidazolium bis(trifluoromethylsulfonyl)imide	Mass density, kg/m3	uncertainty
298.15	0	1039.36	1.56
298.15	0.1011	1132.68	1.59
298.15	0.21	1206.22	1.55
298.15	0.2968	1251.61	1.48
298.15	0.3922	1292.08	1.39
298.15	0.4939	1327.18	1.3
298.15	0.5883	1354.19	1.22
298.15	0.6852	1377.67	1.16
298.15	0.7901	1399.25	1.1
298.15	0.8623	1412.27	1.07
298.15	1	1433.72	1.04
303.15	0	1034.95	1.55
303.15	0.1011	1128.15	1.59
303.15	0.21	1201.61	1.54
303.15	0.2968	1246.96	1.47
303.15	0.3922	1287.41	1.39
303.15	0.4939	1322.48	1.3
303.15	0.5883	1349.48	1.22
303.15	0.6852	1372.95	1.15
303.15	0.7901	1394.51	1.1
303.15	0.8623	1407.52	1.07
303.15	1	1428.95	1.04
308.15	0	1030.55	1.54
308.15	0.1011	1123.61	1.58
308.15	0.21	1197	1.53
308.15	0.2968	1242.31	1.47
308.15	0.3922	1282.72	1.38
308.15	0.4939	1317.78	1.29
308.15	0.5883	1344.75	1.22
308.15	0.6852	1368.2	1.15
308.15	0.7901	1389.76	1.1
308.15	0.8623	1402.76	1.07
308.15	1	1424.18	1.04
313.15	0	1026.14	1.53
313.15	0.1011	1119.09	1.57
313.15	0.21	1192.39	1.53
313.15	0.2968	1237.66	1.46
313.15	0.3922	1278.04	1.38
313.15	0.4939	1313.07	1.29
313.15	0.5883	1340.03	1.21
313.15	0.6852	1363.47	1.15
313.15	0.7901	1385.01	1.1
313.15	0.8623	1398	1.07
313.15	1	1419.41	1.04
318.15	0	1021.73	1.53
318.15	0.1011	1114.55	1.56
318.15	0.21	1187.78	1.52
318.15	0.2968	1233.01	1.45
318.15	0.3922	1273.36	1.37
318.15	0.4939	1308.36	1.28
318.15	0.5883	1335.3	1.21
318.15	0.6852	1358.73	1.15
318.15	0.7901	1380.26	1.09
318.15	0.8623	1393.24	1.07
318.15	1	1414.64	1.03
323.15	0	1017.33	1.52
323.15	0.1011	1110.01	1.55
323.15	0.21	1183.17	1.51
323.15	0.2968	1228.36	1.45
323.15	0.3922	1268.68	1.37
323.15	0.4939	1303.66	1.28
323.15	0.5883	1330.58	1.21
323.15	0.6852	1353.99	1.14
323.15	0.7901	1375.51	1.09
323.15	0.8623	1388.49	1.07
323.15	1	1409.87	1.03

System: N-vinylpyrrolidone + 1-butyl-3-methylimidazolium bis(trifluoromethylsulfonyl)imide; phases: Liquid
Fixed: Pressure, kPa = 100
Fixed: Frequency, MHz = 3
Property: Speed of sound, m/s (Liquid); method: Single path-length method
Temperature, K	Mole fraction of 1-butyl-3-methylimidazolium bis(trifluoromethylsulfonyl)imide	Speed of sound, m/s	uncertainty
298.15	0	1521.5	2.7
298.15	0.1011	1442.2	2.5
298.15	0.21	1384.6	2.3
298.15	0.2968	1350.7	2.2
298.15	0.3922	1321.4	2
298.15	0.4939	1296.5	1.9
298.15	0.5883	1278.3	1.8
298.15	0.6852	1263	1.6
298.15	0.7901	1249.4	1.5
298.15	0.8623	1241.2	1.4
298.15	1	1227.9	1.3
303.15	0	1502.5	2.7
303.15	0.1011	1425.6	2.5
303.15	0.21	1369.6	2.3
303.15	0.2968	1336.6	2.2
303.15	0.3922	1308.1	2
303.15	0.4939	1283.9	1.9
303.15	0.5883	1266.1	1.8
303.15	0.6852	1251.1	1.6
303.15	0.7901	1237.8	1.5
303.15	0.8623	1229.8	1.4
303.15	1	1216.8	1.3
308.15	0	1483.7	2.7
308.15	0.1011	1409.1	2.5
308.15	0.21	1354.8	2.3
308.15	0.2968	1322.7	2.2
308.15	0.3922	1294.7	2
308.15	0.4939	1271.2	1.9
308.15	0.5883	1253.8	1.8
308.15	0.6852	1239.3	1.6
308.15	0.7901	1226.2	1.5
308.15	0.8623	1218.5	1.4
308.15	1	1205.8	1.3
313.15	0	1465	2.7
313.15	0.1011	1392.8	2.5
313.15	0.21	1340	2.3
313.15	0.2968	1308.7	2.2
313.15	0.3922	1281.5	2
313.15	0.4939	1258.6	1.9
313.15	0.5883	1241.7	1.8
313.15	0.6852	1227.5	1.6
313.15	0.7901	1214.9	1.5
313.15	0.8623	1207.3	1.4
313.15	1	1195	1.3
318.15	0	1446.5	2.7
318.15	0.1011	1376.5	2.5
318.15	0.21	1325.3	2.3
318.15	0.2968	1294.9	2.2
318.15	0.3922	1268.4	2
318.15	0.4939	1246.1	1.9
318.15	0.5883	1229.7	1.8
318.15	0.6852	1215.9	1.6
318.15	0.7901	1203.6	1.5
318.15	0.8623	1196.3	1.4
318.15	1	1184.2	1.3
323.15	0	1428.1	2.7
323.15	0.1011	1360.3	2.5
323.15	0.21	1310.5	2.3
323.15	0.2968	1281.1	2.2
323.15	0.3922	1255.4	2
323.15	0.4939	1233.8	1.9
323.15	0.5883	1217.8	1.8
323.15	0.6852	1204.4	1.6
323.15	0.7901	1192.4	1.5
323.15	0.8623	1185.3	1.4
323.15	1	1173.6	1.3

System: N-vinylpyrrolidone + 1-butyl-3-methylimidazolium bis(trifluoromethylsulfonyl)imide; phases: Liquid
Fixed: Pressure, kPa = 100
Property: Refractive index (Na D-line) (Liquid); method: Standard Abbe refractometry
Temperature, K	Mole fraction of 1-butyl-3-methylimidazolium bis(trifluoromethylsulfonyl)imide	Refractive index (Na D-line)	uncertainty
298.15	0	1.51119	0.00169
298.15	0.1011	1.49062	0.00168
298.15	0.21	1.47455	0.00167
298.15	0.2968	1.46474	0.00167
298.15	0.3922	1.45603	0.00166
298.15	0.4939	1.4486	0.00165
298.15	0.5883	1.44302	0.00165
298.15	0.6852	1.43821	0.00164
298.15	0.7901	1.4338	0.00163
298.15	0.8623	1.43114	0.00163
298.15	1	1.42671	0.00163
303.15	0	1.50886	0.00169
303.15	0.1011	1.48844	0.00168
303.15	0.21	1.47255	0.00167
303.15	0.2968	1.46284	0.00167
303.15	0.3922	1.45424	0.00166
303.15	0.4939	1.44689	0.00165
303.15	0.5883	1.44135	0.00165
303.15	0.6852	1.43659	0.00164
303.15	0.7901	1.43222	0.00163
303.15	0.8623	1.42959	0.00163
303.15	1	1.42523	0.00163
308.15	0	1.5065	0.00169
308.15	0.1011	1.48625	0.00168
308.15	0.21	1.47053	0.00167
308.15	0.2968	1.46093	0.00167
308.15	0.3922	1.45244	0.00166
308.15	0.4939	1.44517	0.00165
308.15	0.5883	1.43967	0.00165
308.15	0.6852	1.43495	0.00164
308.15	0.7901	1.43063	0.00163
308.15	0.8623	1.42804	0.00163
308.15	1	1.42374	0.00163
313.15	0	1.50415	0.00169
313.15	0.1011	1.48406	0.00168
313.15	0.21	1.46851	0.00167
313.15	0.2968	1.45902	0.00167
313.15	0.3922	1.45064	0.00166
313.15	0.4939	1.44345	0.00165
313.15	0.5883	1.43799	0.00165
313.15	0.6852	1.43331	0.00164
313.15	0.7901	1.42904	0.00163
313.15	0.8623	1.42649	0.00163
313.15	1	1.42225	0.00163
318.15	0	1.50181	0.00169
318.15	0.1011	1.48187	0.00168
318.15	0.21	1.46649	0.00167
318.15	0.2968	1.45711	0.00167
318.15	0.3922	1.44884	0.00166
318.15	0.4939	1.44172	0.00165
318.15	0.5883	1.43631	0.00165
318.15	0.6852	1.43167	0.00164
318.15	0.7901	1.42745	0.00163
318.15	0.8623	1.42493	0.00163
318.15	1	1.42076	0.00163
323.15	0	1.49948	0.00169
323.15	0.1011	1.47968	0.00168
323.15	0.21	1.46447	0.00167
323.15	0.2968	1.4552	0.0017
323.15	0.3922	1.44702	0.00166
323.15	0.4939	1.43997	0.00165
323.15	0.5883	1.43461	0.00165
323.15	0.6852	1.43001	0.00164
323.15	0.7901	1.42584	0.00163
323.15	0.8623	1.42334	0.00163
323.15	1	1.41923	0.00163
