Measured thermophysical data. Co-solvence phenomenon and thermodynamic properties of edaravone in pure and mixed solvents
Source: J. Chem. Thermodyn., 2019, 10.1016/j.jct.2019.06.018
Compound 1: Edaravone, C10H10N2O, InChI=1S/C10H10N2O/c1-8-7-10(13)12(11-8)9-5-3-2-4-6-9/h2-6H,7H2,1H3, purity 99.5%
Compound 2: ethyl acetate, C4H8O2, InChI=1S/C4H8O2/c1-3-6-4(2)5/h3H2,1-2H3, purity 99.6%
Compound 3: methanol, CH4O, InChI=1S/CH4O/c1-2/h2H,1H3, purity 99.5%
Compound 4: ethanol, C2H6O, InChI=1S/C2H6O/c1-2-3/h3H,2H2,1H3, purity 99.6%
Compound 5: propan-2-ol, C3H8O, InChI=1S/C3H8O/c1-3(2)4/h3-4H,1-2H3, purity 99.5%
Compound 6: propan-1-ol, C3H8O, InChI=1S/C3H8O/c1-2-3-4/h4H,2-3H2,1H3, purity 99.5%
Compound 7: toluene, C7H8, InChI=1S/C7H8/c1-7-5-3-2-4-6-7/h2-6H,1H3, purity 99.6%
Compound 8: acetonitrile, C2H3N, InChI=1S/C2H3N/c1-2-3/h1H3, purity 99.5%
Compound 9: acetone, C3H6O, InChI=1S/C3H6O/c1-3(2)4/h1-2H3, purity 99.5%

System: Edaravone; phases: Crystal, Liquid, Air at 1 atmosphere
Property: Triple point temperature, K (Crystal); method: DSC
Triple point temperature, K	uncertainty
400.15	1.22

System: Edaravone; phases: Crystal, Liquid, Air at 1 atmosphere
Property: Molar enthalpy of transition or fusion, kJ/mol (Crystal); method: DSC
Molar enthalpy of transition or fusion, kJ/mol	uncertainty
29.61	4.04

System: Edaravone + ethyl acetate; phases: Liquid, Crystal
Fixed: Pressure, kPa = 101.3
Property: Mole fraction of Edaravone (Liquid); method: Chromatography
Temperature, K	Mole fraction of Edaravone	uncertainty
273.15	0.01525	0.00113
278.15	0.01729	0.00128
283.15	0.01959	0.00145
288.15	0.02235	0.00165
293.15	0.02525	0.00187
298.15	0.02836	0.0021
303.15	0.03226	0.00239
308.15	0.03683	0.00273
313.15	0.04194	0.00311

System: Edaravone + ethyl acetate + methanol; phases: Liquid, Crystal
Fixed: Pressure, kPa = 101.3
Property: Mole fraction of Edaravone (Liquid); method: Chromatography
Temperature, K	Solvent: Mass fraction of ethyl acetate	Mole fraction of Edaravone	uncertainty
273.15	0	0.01078	0.00095
278.15	0	0.01298	0.00114
283.15	0	0.01528	0.00135
288.15	0	0.01791	0.00158
293.15	0	0.02075	0.00183
298.15	0	0.02383	0.0021
303.15	0	0.02739	0.00241
308.15	0	0.03119	0.00275
313.15	0	0.03542	0.00312
273.15	0.2	0.01242	0.00109
278.15	0.2	0.01452	0.00128
283.15	0.2	0.01675	0.00147
288.15	0.2	0.01954	0.00172
293.15	0.2	0.02274	0.002
298.15	0.2	0.0261	0.0023
303.15	0.2	0.0297	0.00261
308.15	0.2	0.03397	0.00299
313.15	0.2	0.03819	0.00336
273.15	0.4	0.01781	0.00157
278.15	0.4	0.02024	0.00178
283.15	0.4	0.02309	0.00203
288.15	0.4	0.02644	0.00233
293.15	0.4	0.03011	0.00265
298.15	0.4	0.03407	0.003
303.15	0.4	0.03854	0.00339
308.15	0.4	0.04369	0.00385
313.15	0.4	0.04972	0.00438
273.15	0.6	0.02067	0.00182
278.15	0.6	0.02419	0.00213
283.15	0.6	0.02817	0.00248
288.15	0.6	0.03222	0.00284
293.15	0.6	0.03674	0.00323
298.15	0.6	0.04155	0.00366
303.15	0.6	0.04733	0.00417
308.15	0.6	0.05443	0.00479
313.15	0.6	0.06128	0.00539
273.15	0.8	0.01949	0.00172
278.15	0.8	0.02228	0.00196
283.15	0.8	0.02523	0.00222
288.15	0.8	0.02865	0.00252
293.15	0.8	0.03249	0.00286
298.15	0.8	0.03697	0.00325
303.15	0.8	0.04174	0.00367
308.15	0.8	0.04702	0.00414
313.15	0.8	0.05299	0.00466
273.15	1	0.01525	0.00134
278.15	1	0.01729	0.00152
283.15	1	0.01959	0.00172
288.15	1	0.02235	0.00197
293.15	1	0.02525	0.00222
298.15	1	0.02836	0.0025
303.15	1	0.03226	0.00284
308.15	1	0.03683	0.00324
313.15	1	0.04194	0.00369

System: Edaravone + methanol; phases: Liquid, Crystal
Fixed: Pressure, kPa = 101.3
Property: Mole fraction of Edaravone (Liquid); method: Chromatography
Temperature, K	Mole fraction of Edaravone	uncertainty
273.15	0.01078	0.0008
278.15	0.01298	0.00096
283.15	0.01528	0.00113
288.15	0.01791	0.00133
293.15	0.02075	0.00154
298.15	0.02383	0.00176
303.15	0.02739	0.00203
308.15	0.03119	0.00231
313.15	0.03542	0.00262

System: Edaravone + ethanol; phases: Liquid, Crystal
Fixed: Pressure, kPa = 101.3
Property: Mole fraction of Edaravone (Liquid); method: Chromatography
Temperature, K	Mole fraction of Edaravone	uncertainty
273.15	0.01719	0.00127
278.15	0.0197	0.00146
283.15	0.02259	0.00167
288.15	0.0253	0.00187
293.15	0.02854	0.00211
298.15	0.03213	0.00238
303.15	0.03584	0.00265
308.15	0.03969	0.00294
313.15	0.04453	0.0033

System: Edaravone + propan-2-ol; phases: Liquid, Crystal
Fixed: Pressure, kPa = 101.3
Property: Mole fraction of Edaravone (Liquid); method: Chromatography
Temperature, K	Mole fraction of Edaravone	uncertainty
273.15	0.01333	0.00099
278.15	0.01549	0.00115
283.15	0.01801	0.00133
288.15	0.02064	0.00153
293.15	0.02365	0.00175
298.15	0.02677	0.00198
303.15	0.03054	0.00226
308.15	0.03467	0.00257
313.15	0.03906	0.00289

System: Edaravone + propan-1-ol; phases: Liquid, Crystal
Fixed: Pressure, kPa = 101.3
Property: Mole fraction of Edaravone (Liquid); method: Chromatography
Temperature, K	Mole fraction of Edaravone	uncertainty
273.15	0.01992	0.00147
278.15	0.02221	0.00164
283.15	0.02486	0.00184
288.15	0.02802	0.00207
293.15	0.03167	0.00234
298.15	0.03532	0.00261
303.15	0.03931	0.00291
308.15	0.0433	0.00321
313.15	0.0472	0.00349

System: Edaravone + toluene; phases: Liquid, Crystal
Fixed: Pressure, kPa = 101.3
Property: Mole fraction of Edaravone (Liquid); method: Chromatography
Temperature, K	Mole fraction of Edaravone	uncertainty
273.15	0.00738	0.00055
278.15	0.00917	0.00068
283.15	0.01113	0.00082
288.15	0.01358	0.00101
293.15	0.01669	0.00124
298.15	0.01997	0.00148
303.15	0.02339	0.00173
308.15	0.02791	0.00207
313.15	0.03231	0.00239

System: Edaravone + acetonitrile; phases: Liquid, Crystal
Fixed: Pressure, kPa = 101.3
Property: Mole fraction of Edaravone (Liquid); method: Chromatography
Temperature, K	Mole fraction of Edaravone	uncertainty
273.15	0.00554	0.00041
278.15	0.00717	0.00053
283.15	0.0092	0.00068
288.15	0.01158	0.00086
293.15	0.01444	0.00107
298.15	0.01795	0.00133
303.15	0.02178	0.00161
308.15	0.02645	0.00196
313.15	0.0314	0.00232

System: Edaravone + acetone; phases: Liquid, Crystal
Fixed: Pressure, kPa = 101.3
Property: Mole fraction of Edaravone (Liquid); method: Chromatography
Temperature, K	Mole fraction of Edaravone	uncertainty
273.15	0.00889	0.00066
278.15	0.01099	0.00081
283.15	0.01321	0.00098
288.15	0.01597	0.00118
293.15	0.01896	0.0014
298.15	0.02209	0.00164
303.15	0.02558	0.00189
308.15	0.02951	0.00218
313.15	0.03334	0.00247

System: Edaravone + ethyl acetate + ethanol; phases: Liquid, Crystal
Fixed: Pressure, kPa = 101.3
Property: Mole fraction of Edaravone (Liquid); method: Chromatography
Temperature, K	Solvent: Mass fraction of ethyl acetate	Mole fraction of Edaravone	uncertainty
273.15	0	0.01719	0.00151
278.15	0	0.0197	0.00173
283.15	0	0.02259	0.00199
288.15	0	0.0253	0.00223
293.15	0	0.02854	0.00251
298.15	0	0.03213	0.00283
303.15	0	0.03584	0.00315
308.15	0	0.03969	0.00349
313.15	0	0.04453	0.00392
273.15	0.2	0.01992	0.00175
278.15	0.2	0.02306	0.00203
283.15	0.2	0.02637	0.00232
288.15	0.2	0.03008	0.00265
293.15	0.2	0.03411	0.003
298.15	0.2	0.03861	0.0034
303.15	0.2	0.04331	0.00381
308.15	0.2	0.04817	0.00424
313.15	0.2	0.05319	0.00468
273.15	0.4	0.02952	0.0026
278.15	0.4	0.03298	0.0029
283.15	0.4	0.03644	0.00321
288.15	0.4	0.04037	0.00355
293.15	0.4	0.04466	0.00393
298.15	0.4	0.04894	0.00431
303.15	0.4	0.0537	0.00473
308.15	0.4	0.0593	0.00522
313.15	0.4	0.06474	0.0057
273.15	0.6	0.03099	0.00273
278.15	0.6	0.03488	0.00307
283.15	0.6	0.03909	0.00344
288.15	0.6	0.04349	0.00383
293.15	0.6	0.04806	0.00423
298.15	0.6	0.05263	0.00463
303.15	0.6	0.05792	0.0051
308.15	0.6	0.06372	0.00561
313.15	0.6	0.06986	0.00615
273.15	0.8	0.02563	0.00226
278.15	0.8	0.02866	0.00252
283.15	0.8	0.0319	0.00281
288.15	0.8	0.03565	0.00314
293.15	0.8	0.04002	0.00352
298.15	0.8	0.04488	0.00395
303.15	0.8	0.04991	0.00439
308.15	0.8	0.05544	0.00488
313.15	0.8	0.06208	0.00546
273.15	1	0.01525	0.00134
278.15	1	0.01729	0.00152
283.15	1	0.01959	0.00172
288.15	1	0.02235	0.00197
293.15	1	0.02525	0.00222
298.15	1	0.02836	0.0025
303.15	1	0.03226	0.00284
308.15	1	0.03683	0.00324
313.15	1	0.04194	0.00369
