Measured thermophysical data. Diffusion and structural behaviour of the DL-2-aminobutyric acid
Source: J. Chem. Thermodyn., 2019, 10.1016/j.jct.2019.03.009
Compound 1: (.+-.)-.alpha.-aminobutyric acid, C4H9NO2, InChI=1S/C4H9NO2/c1-2-3(5)4(6)7/h3H,2,5H2,1H3,(H,6,7), purity 99%
Compound 2: water, H2O, InChI=1S/H2O/h1H2, purity 99.9%

System: (.+-.)-.alpha.-aminobutyric acid + water; phases: Liquid
Fixed: Pressure, kPa = 101.3
Fixed: Temperature, K = 298.15
Property: Binary diffusion coefficient, m2/s (Liquid); method: Taylor dispersion method
Molality, mol/kg of (.+-.)-.alpha.-aminobutyric acid	Binary diffusion coefficient, m2/s	uncertainty
0.001003	8.42e-10	0.031
0.005014	8.41e-10	0.024
0.01003	8.39e-10	0.023
0.02005	8.38e-10	0.023
0.05008	8.35e-10	0.034
0.1	8.32e-10	0.031
