Measured thermophysical data. Density and speed of sound of lithium bromide with organic solvents: Measurement and correlation
Source: J. Chem. Thermodyn., 2007, 10.1016/j.jct.2007.04.006
Compound 1: lithium bromide, BrLi, InChI=1S/BrH.Li/h1H;/q;+1/p-1, purity 99.9%
Compound 2: methanol, CH4O, InChI=1S/CH4O/c1-2/h2H,1H3, purity 99.9%
Compound 3: ethanol, C2H6O, InChI=1S/C2H6O/c1-2-3/h3H,2H2,1H3, purity 99.9%
Compound 4: propan-2-ol, C3H8O, InChI=1S/C3H8O/c1-3(2)4/h3-4H,1-2H3, purity 99.9%
Compound 5: acetone, C3H6O, InChI=1S/C3H6O/c1-3(2)4/h1-2H3, purity 99.8%
Compound 6: acetonitrile, C2H3N, InChI=1S/C2H3N/c1-2-3/h1H3, purity 99.9%
Compound 7: N,N-dimethylethanamide, C4H9NO, InChI=1S/C4H9NO/c1-4(6)5(2)3/h1-3H3, purity 99.9%

System: methanol; phases: Liquid
Property: Mass density, kg/m3 (Liquid); method: VIBTUB:UFactor:2
Temperature, K	Pressure, kPa	Mass density, kg/m3	uncertainty
298.15	101.325	786.71	0.304

System: methanol; phases: Liquid
Property: Speed of sound, m/s (Liquid); method: Sing-around technique in a fixed-path interferometer
Temperature, K	Pressure, kPa	Speed of sound, m/s	uncertainty
298.15	101.325	1108.55	1.24

System: ethanol; phases: Liquid
Property: Mass density, kg/m3 (Liquid); method: VIBTUB:UFactor:2
Temperature, K	Pressure, kPa	Mass density, kg/m3	uncertainty
298.15	101.325	785.125	0.306

System: ethanol; phases: Liquid
Property: Speed of sound, m/s (Liquid); method: Sing-around technique in a fixed-path interferometer
Temperature, K	Pressure, kPa	Speed of sound, m/s	uncertainty
298.15	101.325	1143.39	1.25

System: propan-2-ol; phases: Liquid
Property: Mass density, kg/m3 (Liquid); method: VIBTUB:UFactor:2
Temperature, K	Pressure, kPa	Mass density, kg/m3	uncertainty
298.15	101.325	780.804	0.31

System: propan-2-ol; phases: Liquid
Property: Speed of sound, m/s (Liquid); method: Sing-around technique in a fixed-path interferometer
Temperature, K	Pressure, kPa	Speed of sound, m/s	uncertainty
298.15	101.325	1139.1	1.25

System: acetone; phases: Liquid
Property: Mass density, kg/m3 (Liquid); method: VIBTUB:UFactor:2
Temperature, K	Pressure, kPa	Mass density, kg/m3	uncertainty
298.15	101.325	784.233	0.311

System: acetone; phases: Liquid
Property: Speed of sound, m/s (Liquid); method: Sing-around technique in a fixed-path interferometer
Temperature, K	Pressure, kPa	Speed of sound, m/s	uncertainty
298.15	101.325	1161.65	1.26

System: acetonitrile; phases: Liquid
Property: Mass density, kg/m3 (Liquid); method: VIBTUB:UFactor:2
Temperature, K	Pressure, kPa	Mass density, kg/m3	uncertainty
298.15	101.325	776.6	0.314

System: acetonitrile; phases: Liquid
Property: Speed of sound, m/s (Liquid); method: Sing-around technique in a fixed-path interferometer
Temperature, K	Pressure, kPa	Speed of sound, m/s	uncertainty
298.15	101.325	1279.18	1.27

System: N,N-dimethylethanamide; phases: Liquid
Property: Mass density, kg/m3 (Liquid); method: VIBTUB:UFactor:2
Temperature, K	Pressure, kPa	Mass density, kg/m3	uncertainty
323.15	101.325	913.129	0.18

System: N,N-dimethylethanamide; phases: Liquid
Property: Speed of sound, m/s (Liquid); method: Sing-around technique in a fixed-path interferometer
Temperature, K	Pressure, kPa	Speed of sound, m/s	uncertainty
323.15	101.325	1357.78	1.28

System: methanol + lithium bromide; phases: Liquid
Fixed: Temperature, K = 298.15
Fixed: Pressure, kPa = 101
Property: Speed of sound, m/s (Liquid); method: Sing-around technique in a fixed-path interferometer
Molality, mol/kg of lithium bromide	Speed of sound, m/s	uncertainty
0.0425	1110.65	1.24
0.0588	1111.34	1.24
0.0714	1111.99	1.24
0.0903	1112.85	1.24
0.1168	1113.91	1.24
0.1473	1115.12	1.24
0.2089	1117.7	1.24
0.2993	1121.14	1.24
0.5035	1128.81	1.25
0.7097	1136.2	1.25
0.9875	1146.09	1.25
1.1632	1152.05	1.25
1.4639	1162.45	1.25
1.9697	1179.59	1.25
2.4501	1195.93	1.26
3.4887	1231.16	1.26

System: methanol + lithium bromide; phases: Liquid
Fixed: Temperature, K = 298.15
Fixed: Pressure, kPa = 101
Property: Mass density, kg/m3 (Liquid); method: VIBTUB:UFactor:2
Molality, mol/kg of lithium bromide	Mass density, kg/m3	uncertainty
0.0425	789.48	0.304
0.0588	790.553	0.303
0.0714	791.384	0.302
0.0903	792.602	0.301
0.1168	794.333	0.3
0.1473	796.328	0.298
0.2089	800.289	0.294
0.2993	806.041	0.288
0.5035	818.761	0.275
0.7097	831.385	0.263
0.9875	848.253	0.247
1.1632	858.424	0.237
1.4639	876.582	0.22
1.9697	905.481	0.193
2.4501	933.222	0.167
3.4887	989.847	0.12

System: ethanol + lithium bromide; phases: Liquid
Fixed: Temperature, K = 298.15
Fixed: Pressure, kPa = 101
Property: Speed of sound, m/s (Liquid); method: Sing-around technique in a fixed-path interferometer
Molality, mol/kg of lithium bromide	Speed of sound, m/s	uncertainty
0.0789	1146.96	1.25
0.0913	1147.43	1.25
0.0985	1147.75	1.25
0.1384	1149.24	1.25
0.1556	1150.1	1.25
0.2019	1151.64	1.25
0.2348	1152.6	1.25
0.2495	1153.24	1.25
0.301	1154.69	1.25
0.4002	1157.78	1.25
0.4903	1160.47	1.25
0.6076	1163.78	1.25
0.7038	1166.53	1.25
0.8013	1168.91	1.25
0.8975	1171.51	1.25
1.0128	1174.44	1.25
1.093	1176.63	1.25
1.2146	1179.53	1.25

System: ethanol + lithium bromide; phases: Liquid
Fixed: Temperature, K = 298.15
Fixed: Pressure, kPa = 101
Property: Mass density, kg/m3 (Liquid); method: VIBTUB:UFactor:2
Molality, mol/kg of lithium bromide	Mass density, kg/m3	uncertainty
0.0789	790.432	0.304
0.0913	791.251	0.303
0.0985	791.782	0.304
0.1384	794.334	0.299
0.1556	795.465	0.298
0.2019	798.467	0.295
0.2348	800.584	0.293
0.2495	801.494	0.292
0.301	804.725	0.289
0.4002	810.966	0.283
0.4903	816.539	0.277
0.6076	823.796	0.271
0.7038	829.747	0.265
0.8013	835.512	0.259
0.8975	841.268	0.253
1.0128	848.08	0.247
1.093	852.846	0.242
1.2146	860.012	0.235

System: propan-2-ol + lithium bromide; phases: Liquid
Fixed: Temperature, K = 298.15
Fixed: Pressure, kPa = 101
Property: Speed of sound, m/s (Liquid); method: Sing-around technique in a fixed-path interferometer
Molality, mol/kg of lithium bromide	Speed of sound, m/s	uncertainty
0.0787	1142.6	1.25
0.0957	1143.07	1.25
0.1024	1143.26	1.25
0.1387	1144.53	1.25
0.1915	1146.25	1.25
0.2503	1148.1	1.25
0.3451	1150.92	1.25
0.3951	1152.27	1.25
0.4768	1154.5	1.3
0.594	1157.68	1.25
0.697	1160.33	1.25
0.7757	1162.33	1.25
0.9066	1165.42	1.25
1.0034	1167.68	1.25
1.1584	1170.54	1.25
1.2718	1173.47	1.25

System: propan-2-ol + lithium bromide; phases: Liquid
Fixed: Temperature, K = 298.15
Fixed: Pressure, kPa = 101
Property: Mass density, kg/m3 (Liquid); method: VIBTUB:UFactor:2
Molality, mol/kg of lithium bromide	Mass density, kg/m3	uncertainty
0.0787	786.228	0.3079
0.0957	787.379	0.306
0.1024	787.748	0.304
0.1387	790.137	0.304
0.1915	793.601	0.3
0.2503	797.348	0.296
0.3451	803.296	0.29
0.3951	806.427	0.287
0.4768	811.456	0.282
0.594	818.719	0.275
0.697	824.988	0.269
0.7757	829.74	0.264
0.9066	837.46	0.257
1.0034	843.093	0.251
1.1584	851.831	0.242
1.2718	858.084	0.236

System: acetone + lithium bromide; phases: Liquid
Fixed: Temperature, K = 298.15
Fixed: Pressure, kPa = 101
Property: Speed of sound, m/s (Liquid); method: Sing-around technique in a fixed-path interferometer
Molality, mol/kg of lithium bromide	Speed of sound, m/s	uncertainty
0.0301	1141.48	1.26
0.0367	1142.32	1.26
0.0486	1142.6	1.26
0.0679	1143.07	1.26
0.0776	1143.26	1.26
0.0873	1144.53	1.26
0.099	1146.25	1.26
0.1177	1148.1	1.26
0.1424	1150.92	1.26
0.3719	1152.27	1.26
0.4973	1154.5	1.3
0.5928	1157.68	1.26
0.7044	1160.33	1.26
0.8	1162.33	1.26

System: acetone + lithium bromide; phases: Liquid
Fixed: Temperature, K = 298.15
Fixed: Pressure, kPa = 101
Property: Mass density, kg/m3 (Liquid); method: VIBTUB:UFactor:2
Molality, mol/kg of lithium bromide	Mass density, kg/m3	uncertainty
0.0301	784.377	0.376
0.0367	785.81	0.319
0.0486	786.228	0.3092
0.0679	787.379	0.309
0.0776	787.748	0.335
0.0873	790.137	0.407
0.099	793.601	0.379
0.1177	797.348	0.37
0.1424	803.296	0.376
0.3719	806.427	0.286
0.4973	811.456	0.285
0.5928	818.719	0.281
0.7044	824.988	0.272
0.8	829.74	0.267

System: acetonitrile + lithium bromide; phases: Liquid
Fixed: Temperature, K = 298.15
Fixed: Pressure, kPa = 101
Property: Speed of sound, m/s (Liquid); method: Sing-around technique in a fixed-path interferometer
Molality, mol/kg of lithium bromide	Speed of sound, m/s	uncertainty
0.0209	1279.84	1.27
0.0302	1280.08	1.27
0.0403	1280.4	1.27
0.0478	1280.61	1.27
0.07	1281.3	1.27
0.0799	1281.6	1.27
0.0904	1281.92	1.27
0.0986	1282.1	1.27
0.1212	1282.76	1.27
0.1506	1283.65	1.27
0.1985	1284.98	1.27
0.2498	1286.41	1.27
0.2981	1287.74	1.27
0.3974	1290.41	1.27
0.5004	1293.08	1.27
0.596	1295.57	1.27
0.6972	1298.2	1.27

System: acetonitrile + lithium bromide; phases: Liquid
Fixed: Temperature, K = 298.15
Fixed: Pressure, kPa = 101
Property: Mass density, kg/m3 (Liquid); method: VIBTUB:UFactor:2
Molality, mol/kg of lithium bromide	Mass density, kg/m3	uncertainty
0.0209	778.135	0.317
0.0302	778.802	0.316
0.0403	779.512	0.315
0.0478	780.04	0.314
0.07	781.58	0.313
0.0799	782.247	0.312
0.0904	782.95	0.311
0.0986	783.518	0.31
0.1212	784.97	0.308
0.1506	786.812	0.307
0.1985	789.96	0.304
0.2498	793.354	0.301
0.2981	796.544	0.298
0.3974	803.094	0.291
0.5004	809.733	0.285
0.596	815.99	0.279
0.6972	822.595	0.272

System: N,N-dimethylethanamide + lithium bromide; phases: Liquid
Fixed: Temperature, K = 323.15
Fixed: Pressure, kPa = 101
Property: Speed of sound, m/s (Liquid); method: Sing-around technique in a fixed-path interferometer
Molality, mol/kg of lithium bromide	Speed of sound, m/s	uncertainty
0.0322	1360.76	1.28
0.0511	1362.5	1.28
0.0638	1363.58	1.28
0.0978	1366.42	1.28
0.1188	1368.09	1.28
0.1475	1370.29	1.29
0.2003	1374.36	1.29
0.2472	1378.16	1.29
0.3042	1382.09	1.29
0.3988	1389.17	1.29
0.4886	1395.87	1.29
0.601	1403.82	1.29
0.7053	1411.37	1.29
0.9019	1425.52	1.29
1.0005	1432.59	1.3
1.1894	1446.06	1.3
1.3273	1455.42	1.3

System: N,N-dimethylethanamide + lithium bromide; phases: Liquid
Fixed: Temperature, K = 323.15
Fixed: Pressure, kPa = 101
Property: Mass density, kg/m3 (Liquid); method: VIBTUB:UFactor:2
Molality, mol/kg of lithium bromide	Mass density, kg/m3	uncertainty
0.0322	915.827	0.194
0.0511	917.401	0.192
0.0638	918.452	0.191
0.0978	921.232	0.188
0.1188	922.89	0.186
0.1475	925.178	0.184
0.2003	929.349	0.181
0.2472	933.065	0.177
0.3042	937.515	0.173
0.3988	944.893	0.167
0.4886	951.867	0.161
0.601	960.362	0.154
0.7053	968.26	0.148
0.9019	982.963	0.136
1.0005	990.219	0.131
1.1894	1004.061	0.127
1.3273	1013.959	0.134
