Measured thermophysical data. Phase transition thermodynamics of phenyl and biphenyl naphthalenes
Source: J. Chem. Thermodyn., 2008, 10.1016/j.jct.2008.04.010
Compound 1: 2-phenylnaphthalene, C16H12, InChI=1S/C16H12/c1-2-6-13(7-3-1)16-11-10-14-8-4-5-9-15(14)12-16/h1-12H
Compound 2: 1-phenylnaphthalene, C16H12, InChI=1S/C16H12/c1-2-7-13(8-3-1)16-12-6-10-14-9-4-5-11-15(14)16/h1-12H, purity 96%
Compound 3: 2-(biphen-4-yl)naphthalene, C22H16, InChI=1S/C22H16/c1-2-6-17(7-3-1)19-10-12-20(13-11-19)22-15-14-18-8-4-5-9-21(18)16-22/h1-16H
Compound 4: 2-(biphen-3-yl)naphthalene, C22H16, InChI=1S/C22H16/c1-2-7-17(8-3-1)20-11-6-12-21(15-20)22-14-13-18-9-4-5-10-19(18)16-22/h1-16H

System: 2-phenylnaphthalene; phases: Crystal, Liquid, Air at 1 atmosphere
Property: Molar enthalpy of transition or fusion, kJ/mol (Crystal); method: DSC
Molar enthalpy of transition or fusion, kJ/mol	uncertainty
17.9	0.46

System: 2-phenylnaphthalene; phases: Crystal, Liquid, Air at 1 atmosphere
Property: Normal melting temperature, K (Crystal); method: DTA
Normal melting temperature, K	uncertainty
373.5	0.5

System: 2-phenylnaphthalene; phases: Crystal, Gas
Property: Vapor or sublimation pressure, kPa (Crystal); method: Calculated from knudsen effusion weight loss
Temperature, K	Vapor or sublimation pressure, kPa	uncertainty
333.11	0.000132	7e-06
333.11	0.000137	7e-06
333.11	0.000137	7e-06
335.63	0.000185	9e-06
335.63	0.000183	9e-06
335.63	0.00018	9e-06
338.2	0.000244	1.2e-05
338.2	0.000239	1.2e-05
340.61	0.000316	1.6e-05
340.61	0.000318	1.6e-05
340.61	0.00032	1.6e-05
343.13	0.00042	2.1e-05
343.13	0.000421	2.1e-05
343.13	0.000419	2.1e-05
345.69	0.000558	2.8e-05
345.69	0.000553	2.8e-05
345.69	0.000544	2.7e-05
348.12	0.000729	3.7e-05
348.12	0.000707	3.5e-05
348.12	0.000716	3.6e-05
350.62	0.000939	4.7e-05
350.62	0.000941	4.7e-05
350.62	0.000909	4.6e-05
353.19	0.001212	0.000126
353.19	0.001224	0.000128
353.19	0.001185	0.000123

System: 1-phenylnaphthalene; phases: Liquid, Gas
Property: Molar enthalpy of vaporization or sublimation, kJ/mol (Liquid); method: Calvet microcalorimetry
Temperature, K	Molar enthalpy of vaporization or sublimation, kJ/mol	uncertainty
298.15	81	3.6

System: 2-(biphen-4-yl)naphthalene; phases: Crystal, Liquid, Air at 1 atmosphere
Property: Molar enthalpy of transition or fusion, kJ/mol (Crystal); method: DSC
Molar enthalpy of transition or fusion, kJ/mol	uncertainty
25.1	0.56

System: 2-(biphen-4-yl)naphthalene; phases: Crystal, Liquid, Air at 1 atmosphere
Property: Normal melting temperature, K (Crystal); method: DTA
Normal melting temperature, K	uncertainty
489.5	1.1

System: 2-(biphen-4-yl)naphthalene; phases: Crystal, Gas
Property: Vapor or sublimation pressure, kPa (Crystal); method: Calculated from knudsen effusion weight loss
Temperature, K	Vapor or sublimation pressure, kPa	uncertainty
405.17	6.2e-05	3e-06
405.17	6.2e-05	3e-06
405.17	6.3e-05	3e-06
409.14	9.1e-05	5e-06
409.14	8.8e-05	4e-06
409.14	8.9e-05	4e-06
411.18	0.000111	6e-06
411.18	0.000112	6e-06
413.18	0.000135	7e-06
413.18	0.000134	7e-06
413.18	0.000131	7e-06
415.14	0.000164	8e-06
415.14	0.00016	8e-06
415.14	0.000161	8e-06
417.19	0.000197	1e-05
417.19	0.000197	1e-05
417.19	0.000197	1e-05
419.09	0.000237	1.2e-05
419.09	0.000235	1.2e-05
419.09	0.00023	1.2e-05
421.14	0.000283	1.4e-05
421.14	0.00028	1.4e-05
423.09	0.000339	1.7e-05
423.09	0.000342	1.7e-05
423.09	0.000336	1.7e-05
425.19	0.000418	2.1e-05
425.19	0.000424	2.1e-05
425.19	0.000416	2.1e-05
429.21	0.000609	3e-05
429.21	0.000609	3e-05
429.21	0.000597	3e-05
433.15	0.000855	4.3e-05
433.15	0.000839	4.2e-05
437.19	0.001171	0.000121
437.19	0.001222	0.000128
437.19	0.001194	0.000124

System: 2-(biphen-3-yl)naphthalene; phases: Crystal, Liquid, Air at 1 atmosphere
Property: Molar enthalpy of transition or fusion, kJ/mol (Crystal); method: DSC
Molar enthalpy of transition or fusion, kJ/mol	uncertainty
18.5	0.54

System: 2-(biphen-3-yl)naphthalene; phases: Crystal, Liquid, Air at 1 atmosphere
Property: Normal melting temperature, K (Crystal); method: DTA
Normal melting temperature, K	uncertainty
346.3	0.4

System: 2-(biphen-3-yl)naphthalene; phases: Liquid, Gas
Property: Vapor or sublimation pressure, kPa (Liquid); method: Calculated from knudsen effusion weight loss
Temperature, K	Vapor or sublimation pressure, kPa	uncertainty
381.08	8.1e-05	4e-06
381.08	8.3e-05	4e-06
385.17	0.000117	6e-06
389.15	0.000174	9e-06
389.17	0.000177	9e-06
393.18	0.000216	1.1e-05
393.18	0.000218	1.1e-05
393.18	0.000223	1.1e-05
397.15	0.000323	1.6e-05
397.15	0.000303	1.5e-05
397.17	0.000315	1.6e-05
401.14	0.00041	2.1e-05
401.14	0.000429	2.1e-05
401.14	0.000427	2.1e-05
405.18	0.000546	2.7e-05
405.18	0.000585	2.9e-05
405.18	0.000588	2.9e-05
409.08	0.000767	3.8e-05
409.08	0.000773	3.9e-05
409.08	0.00079	4e-05
413.17	0.001087	0.000111
413.17	0.001156	0.000119
