Measured thermophysical data. High-pressure phase equilibrium in the {carbon dioxide (1) + 1-chloropropane (2)} binary system
Source: J. Chem. Thermodyn., 2015, 10.1016/j.jct.2015.07.039
Compound 1: carbon dioxide, CO2, InChI=1S/CO2/c2-1-3, purity 99.99%
Compound 2: 1-chloropropane, C3H7Cl, InChI=1S/C3H7Cl/c1-2-3-4/h2-3H2,1H3, purity 98%

System: 1-chloropropane; phases: Liquid
Property: Mass density, kg/m3 (Liquid); method: Vibrating tube method
Temperature, K	Pressure, kPa	Mass density, kg/m3	uncertainty
298.15	101.325	883.81	0.16

System: 1-chloropropane; phases: Liquid
Property: Refractive index (Na D-line) (Liquid); method: Standard Abbe refractometry
Temperature, K	Pressure, kPa	Refractive index (Na D-line)	uncertainty
298.15	101.325	1.38526	0.00032

System: carbon dioxide + 1-chloropropane; phases: Liquid, Gas
Property: Vapor or sublimation pressure, kPa (Liquid); method: Closed cell (Static) method
Mole fraction of carbon dioxide	Temperature, K	Vapor or sublimation pressure, kPa	uncertainty
0.1231	303.15	521	101
0.1688	303.15	815	101
0.2181	303.15	1002	101
0.3079	303.15	1515	101
0.4243	303.15	2059	101
0.4972	303.15	2517	101
0.5195	303.15	2674	101
0.5659	303.15	2914	101
0.6024	303.15	3198	101
0.6444	303.15	3448	102
0.6901	303.15	3868	103
0.7132	303.15	4108	103
0.7653	303.15	4546	103
0.8184	303.15	5037	103
0.844	303.15	5267	103
0.8879	303.15	5664	104
0.9135	303.15	5937	104
0.9572	303.15	6387	105
0.9746	303.15	6648	108
0.9828	303.15	6804	111
0.9946	303.15	7065	112
0.2439	313.15	1365	101
0.3028	313.15	1753	101
0.3801	313.15	2163	101
0.5034	313.15	3089	101
0.6135	313.15	3804	102
0.6517	313.15	4260	103
0.6665	313.15	4424	104
0.6848	313.15	4612	102
0.7047	313.15	4811	103
0.748	313.15	5151	102
0.7524	313.15	5246	102
0.7742	313.15	5550	104
0.8124	313.15	5913	103
0.8393	313.15	6112	103
0.8627	313.15	6383	105
0.8834	313.15	6640	106
0.9149	313.15	7107	106
0.9295	313.15	7342	114
0.9373	313.15	7461	103
0.9451	313.15	7601	103
0.9555	313.15	7694	106
0.1203	328.15	822	101
0.1962	328.15	1238.3	100.8
0.3087	328.15	1927	101
0.3749	328.15	2424	101
0.4518	328.15	2989	102
0.5205	328.15	3612	102
0.6123	328.15	4482	103
0.6874	328.15	5226	103
0.7297	328.15	5734	104
0.7841	328.15	6423	105
0.8289	328.15	6977	106
0.8685	328.15	7542	106
0.9197	328.15	8242	107
0.9546	328.15	8819	109

System: carbon dioxide + 1-chloropropane; phases: Gas, Liquid
Property: Mole fraction of carbon dioxide (Gas); method: Chromatography
Mole fraction of carbon dioxide	Temperature, K	Mole fraction of carbon dioxide	uncertainty
0.1231	303.15	0.9184	0.0042
0.1688	303.15	0.9415	0.0041
0.2181	303.15	0.9631	0.004
0.3079	303.15	0.972	0.004
0.4243	303.15	0.9887	0.004
0.4972	303.15	0.9895	0.004
0.5195	303.15	0.9895	0.004
0.5659	303.15	0.9903	0.004
0.6024	303.15	0.9861	0.004
0.6444	303.15	0.9887	0.004
0.6901	303.15	0.9903	0.004
0.7132	303.15	0.9946	0.004
0.7653	303.15	0.992	0.004
0.8184	303.15	0.9962	0.0038
0.844	303.15	0.9962	0.0038
0.8879	303.15	0.9946	0.004
0.9135	303.15	0.9928	0.004
0.9572	303.15	0.9946	0.004
0.9746	303.15	0.9936	0.004
0.9828	303.15	0.9954	0.004
0.9946	303.15	0.9995	0.0005
0.2439	313.15	0.9483	0.004
0.3028	313.15	0.9588	0.004
0.3801	313.15	0.9701	0.004
0.5034	313.15	0.9787	0.004
0.6135	313.15	0.9848	0.004
0.6517	313.15	0.9868	0.004
0.6665	313.15	0.993	0.004
0.6848	313.15	0.9887	0.004
0.7047	313.15	0.9887	0.004
0.748	313.15	0.9922	0.0041
0.7524	313.15	0.9912	0.0041
0.7742	313.15	0.9879	0.004
0.8124	313.15	0.9911	0.004
0.8393	313.15	0.9879	0.004
0.8627	313.15	0.9922	0.004
0.8834	313.15	0.9895	0.004
0.9149	313.15	0.993	0.004
0.9295	313.15	0.9911	0.004
0.9373	313.15	0.9911	0.004
0.9451	313.15	0.9879	0.004
0.9555	313.15	0.9868	0.004
0.1203	328.15	0.8677	0.0044
0.1962	328.15	0.9174	0.0042
0.3087	328.15	0.9495	0.0041
0.3749	328.15	0.9613	0.004
0.4518	328.15	0.9762	0.004
0.5205	328.15	0.9788	0.004
0.6123	328.15	0.981	0.004
0.6874	328.15	0.9885	0.004
0.7297	328.15	0.9877	0.004
0.7841	328.15	0.9851	0.004
0.8289	328.15	0.9844	0.004
0.8685	328.15	0.9892	0.004
0.9197	328.15	0.9869	0.004
0.9546	328.15	0.9836	0.004
