Measured thermophysical data. Solubilities and liquid liquid equilibria of (water + ethanol + a,a,a-trifluorotoluene) at temperatures T = (288.15, 298.15, and 308.15) K and pressure p = 101.2 kPa
Source: J. Chem. Thermodyn., 2007, 10.1016/j.jct.2006.09.004
Compound 1: ethanol, C2H6O, InChI=1S/C2H6O/c1-2-3/h3H,2H2,1H3
Compound 2: (trifluoromethyl)benzene, C7H5F3, InChI=1S/C7H5F3/c8-7(9,10)6-4-2-1-3-5-6/h1-5H
Compound 3: water, H2O, InChI=1S/H2O/h1H2

System: ethanol + (trifluoromethyl)benzene + water; phases: Liquid mixture 1, Liquid mixture 2
Fixed: Pressure, kPa = 101.3
Property: Mole fraction of ethanol (Liquid mixture 1); method: Titration method
Temperature, K	Mole fraction of water	Mole fraction of ethanol	uncertainty
288.15	0.0797	0.2489	0.01
288.15	0.0903	0.2666	0.0107
288.15	0.1023	0.2854	0.0114
288.15	0.1165	0.3026	0.0121
288.15	0.1327	0.3206	0.0128
288.15	0.1515	0.3397	0.0136
288.15	0.174	0.3566	0.0143
288.15	0.2	0.3743	0.015
288.15	0.2581	0.4017	0.0161
288.15	0.2832	0.4121	0.0165
288.15	0.303	0.4184	0.0167
288.15	0.3245	0.4226	0.0169
288.15	0.3388	0.4283	0.0171
288.15	0.3599	0.4286	0.0171
288.15	0.3839	0.4292	0.0172
288.15	0.4154	0.4298	0.0172
288.15	0.443	0.4273	0.0171
288.15	0.4722	0.4196	0.0168
288.15	0.5029	0.4079	0.0163
288.15	0.5297	0.3964	0.0159
288.15	0.5577	0.3817	0.0153
288.15	0.5867	0.3634	0.0145
288.15	0.6148	0.3444	0.0138
288.15	0.6383	0.3286	0.0131
288.15	0.6619	0.3112	0.0124
288.15	0.6857	0.2931	0.0117
288.15	0.7001	0.2836	0.0113
298.15	0.0108	0.0116	0.0005
298.15	0.0908	0.2831	0.0113
298.15	0.1109	0.3074	0.0123
298.15	0.1314	0.332	0.0133
298.15	0.1597	0.3607	0.0144
298.15	0.1992	0.3889	0.0156
298.15	0.2298	0.4029	0.0161
298.15	0.244	0.4079	0.0163
298.15	0.2701	0.4182	0.0167
298.15	0.2873	0.4253	0.017
298.15	0.3146	0.4371	0.0175
298.15	0.346	0.4431	0.0177
298.15	0.3828	0.4438	0.0178
298.15	0.4227	0.4401	0.0176
298.15	0.4693	0.4276	0.0171
298.15	0.5226	0.405	0.0162
298.15	0.5721	0.3786	0.0151
298.15	0.6146	0.3508	0.014
298.15	0.6464	0.3295	0.0132
308.15	0.0604	0.1732	0.0069
308.15	0.0981	0.244	0.0098
308.15	0.1257	0.2731	0.0109
308.15	0.1762	0.3276	0.0131
308.15	0.189	0.3345	0.0134
308.15	0.19	0.3331	0.0133
308.15	0.2369	0.3661	0.0146
308.15	0.2597	0.3702	0.0148
308.15	0.3033	0.3824	0.0153
308.15	0.3179	0.3839	0.0154
308.15	0.3544	0.3864	0.0155
308.15	0.4067	0.3881	0.0155
308.15	0.4626	0.3757	0.015
308.15	0.5172	0.3568	0.0143
308.15	0.5789	0.3235	0.0129
308.15	0.6445	0.282	0.0113
308.15	0.7012	0.2444	0.0098
308.15	0.7593	0.2008	0.008
308.15	0.816	0.1547	0.0062
308.15	0.8863	0.0962	0.0038

System: ethanol + (trifluoromethyl)benzene + water; phases: Liquid mixture 1, Liquid mixture 2
Fixed: Pressure, kPa = 101.3
Property: Mole fraction of ethanol (Liquid mixture 1); method: Chromatography
Property: Mole fraction of ethanol (Liquid mixture 2); method: Chromatography
Property: Mole fraction of water (Liquid mixture 2); method: Chromatography
Temperature, K	Mole fraction of water	Mole fraction of ethanol	uncertainty	Mole fraction of ethanol	uncertainty	Mole fraction of water	uncertainty
288.15	0.446	0.4368	0.0068	0.3668	0.0074	0.1682	
288.15	0.497	0.4158	0.0073	0.336	0.0088	0.1282	
288.15	0.595	0.3655	0.0074	0.2723	0.0099	0.0719	
288.15	0.65	0.328	0.0078	0.2293	0.0129	0.0459	
288.15	0.703	0.2846	0.0081	0.1867	0.0142	0.027	
288.15	0.758	0.237	0.0082	0.1431	0.0127	0.0055	
288.15	0.8075	0.1925	0.0084	0.1003	0.0196	0.0048	
288.15	0.8512	0.1488	0.0086	0.0527	0.0161	0.0027	
288.15	0.2993	0.4372	0.0067	0.4372	0.0075	0.2993	
298.15	0.479	0.4266	0.0068	0.3681	0.0072	0.1805	
298.15	0.5195	0.405	0.0075	0.3296	0.0089	0.1414	
298.15	0.5683	0.3732	0.0078	0.2852	0.01	0.0993	
298.15	0.6328	0.3307	0.0077	0.2298	0.0131	0.0629	
298.15	0.7208	0.2678	0.0077	0.1574	0.0153	0.0335	
298.15	0.7506	0.2386	0.0088	0.1312	0.0148	0.0221	
298.15	0.7805	0.2093	0.0079	0.0947	0.0128	0.0051	
298.15	0.8596	0.1388	0.0084	0.0299	0.0135	0.003	
298.15	0.3274	0.4301	0.0067	0.4301	0.0071	0.3274	
308.15	0.489	0.3703	0.0066	0.3304	0.0085	0.1684	
308.15	0.5425	0.3484	0.0071	0.307	0.0095	0.1433	
308.15	0.5781	0.3269	0.0075	0.2793	0.0103	0.1256	
308.15	0.6452	0.2812	0.0076	0.2291	0.0107	0.0861	
308.15	0.6901	0.2483	0.0077	0.1932	0.0119	0.0677	
308.15	0.7536	0.201	0.0077	0.15	0.0141	0.0399	
308.15	0.831	0.1398	0.0076	0.0949	0.0199	0.0223	
308.15	0.8908	0.0974	0.0074	0.0488	0.02	0.0078	
308.15	0.3254	0.3902	0.0066	0.3902	0.007	0.3254	
