Measured thermophysical data. Measurement and correlation of the solubility of 2,3,4,5-tetrabromothiophene  in different solvents
Source: J. Chem. Thermodyn., 2012, 10.1016/j.jct.2012.06.005
Compound 1: perbromothiophene, C4Br4S, InChI=1S/C4Br4S/c5-1-2(6)4(8)9-3(1)7, purity 99%
Compound 2: sodium chloride, ClNa, InChI=1S/ClH.Na/h1H;/q;+1/p-1, purity 99%
Compound 3: water, H2O, InChI=1S/H2O/h1H2, purity 99.8%
Compound 4: methanol, CH4O, InChI=1S/CH4O/c1-2/h2H,1H3, purity 99.5%
Compound 5: propan-1-ol, C3H8O, InChI=1S/C3H8O/c1-2-3-4/h4H,2-3H2,1H3, purity 99.5%
Compound 6: toluene, C7H8, InChI=1S/C7H8/c1-7-5-3-2-4-6-7/h2-6H,1H3, purity 99.5%
Compound 7: ethyl acetate, C4H8O2, InChI=1S/C4H8O2/c1-3-6-4(2)5/h3H2,1-2H3, purity 99.5%
Compound 8: tetrahydrofuran, C4H8O, InChI=1S/C4H8O/c1-2-4-5-3-1/h1-4H2, purity 99%
Compound 9: ethanol, C2H6O, InChI=1S/C2H6O/c1-2-3/h3H,2H2,1H3, purity 99.7%
Compound 10: butan-1-ol, C4H10O, InChI=1S/C4H10O/c1-2-3-4-5/h5H,2-4H2,1H3, purity 99%
Compound 11: ethyl methanoate, C3H6O2, InChI=1S/C3H6O2/c1-2-5-3-4/h3H,2H2,1H3, purity 99%
Compound 12: trichloromethane, CHCl3, InChI=1S/CHCl3/c2-1(3)4/h1H, purity 99%

System: sodium chloride + water; phases: Liquid, Crystal
Fixed: Pressure, kPa = 101
Property: Mole fraction of sodium chloride (Liquid); method: gravimetric
Temperature, K	Mole fraction of sodium chloride	uncertainty
293.15	0.0999	0.0009
303.15	0.1004	0.0013
313.15	0.1013	0.001
323.15	0.1022	0.0009

System: methanol + perbromothiophene; phases: Liquid, Crystal
Fixed: Pressure, kPa = 101
Property: Mole fraction of perbromothiophene (Liquid); method: gravimetric
Temperature, K	Mole fraction of perbromothiophene	uncertainty
281.25	0.0003953	1.15e-05
286.15	0.0004651	1.35e-05
290.15	0.0005169	1.5e-05
293.15	0.0005666	1.65e-05
297.15	0.0006461	1.88e-05
302.15	0.0007603	2.21e-05
307.15	0.0008958	2.6e-05
311.65	0.0010317	3e-05
315.65	0.0012019	3.49e-05
320.15	0.0014376	4.18e-05
325.15	0.0016904	4.91e-05

System: ethanol + perbromothiophene; phases: Liquid, Crystal
Fixed: Pressure, kPa = 101
Property: Mole fraction of perbromothiophene (Liquid); method: gravimetric
Temperature, K	Mole fraction of perbromothiophene	uncertainty
281.25	0.001491	3.01e-05
286.15	0.0016531	3.34e-05
290.15	0.0017993	3.64e-05
293.15	0.0019975	4.04e-05
297.15	0.0022071	4.47e-05
302.15	0.0026742	5.42e-05
307.15	0.0030954	6.27e-05
311.65	0.0035622	7.22e-05
315.65	0.004039	8.2e-05
320.15	0.0047501	9.65e-05
325.15	0.0056572	0.0001149

System: propan-1-ol + perbromothiophene; phases: Liquid, Crystal
Fixed: Pressure, kPa = 101
Property: Mole fraction of perbromothiophene (Liquid); method: gravimetric
Temperature, K	Mole fraction of perbromothiophene	uncertainty
281.25	0.0021872	3.4e-05
286.15	0.0025563	3.97e-05
290.15	0.0028728	4.47e-05
293.15	0.0031881	4.96e-05
297.15	0.0036412	5.67e-05
302.15	0.0043284	6.75e-05
307.15	0.0051375	8.01e-05
311.65	0.0058389	9.11e-05
315.65	0.0066958	0.0001047
320.15	0.0081204	0.0001272
325.15	0.0096545	0.0001512

System: butan-1-ol + perbromothiophene; phases: Liquid, Crystal
Fixed: Pressure, kPa = 101
Property: Mole fraction of perbromothiophene (Liquid); method: gravimetric
Temperature, K	Mole fraction of perbromothiophene	uncertainty
278.05	0.0026705	3.37e-05
281.25	0.0029535	3.75e-05
286.15	0.0036865	4.68e-05
290.15	0.004327	5.48e-05
293.15	0.0048036	6.08e-05
297.15	0.005399	6.84e-05
302.15	0.0063573	8.07e-05
307.15	0.0077009	9.79e-05
311.65	0.0089499	0.0001138
315.65	0.0102252	0.0001301
320.15	0.0117799	0.00015

System: toluene + perbromothiophene; phases: Liquid, Crystal
Fixed: Pressure, kPa = 101
Property: Mole fraction of perbromothiophene (Liquid); method: gravimetric
Temperature, K	Mole fraction of perbromothiophene	uncertainty
278.05	0.0269946	0.000285
281.25	0.031385	0.0003295
286.15	0.0357971	0.0003763
290.15	0.0400097	0.0004227
293.15	0.0440017	0.0004666
297.15	0.0485815	0.0005173
302.15	0.0553654	0.0005935
307.15	0.0626112	0.0006767
311.65	0.0713004	0.0007764
315.65	0.0755619	0.000826
320.15	0.0833699	0.0009195

System: ethyl methanoate + perbromothiophene; phases: Liquid, Crystal
Fixed: Pressure, kPa = 101
Property: Mole fraction of perbromothiophene (Liquid); method: gravimetric
Temperature, K	Mole fraction of perbromothiophene	uncertainty
278.05	0.0038949	4.96e-05
281.25	0.0045081	5.73e-05
286.15	0.0054557	6.93e-05
290.15	0.0063153	8.02e-05
293.15	0.0070468	8.96e-05
297.15	0.0080936	0.000103
302.15	0.0096905	0.0001236
307.15	0.0117544	0.0001501
311.65	0.0137691	0.0001759
315.65	0.0154132	0.000197
320.15	0.0174068	0.0002228

System: ethyl acetate + perbromothiophene; phases: Liquid, Crystal
Fixed: Pressure, kPa = 101
Property: Mole fraction of perbromothiophene (Liquid); method: gravimetric
Temperature, K	Mole fraction of perbromothiophene	uncertainty
278.05	0.0080854	8.71e-05
281.25	0.0092436	9.94e-05
286.15	0.0109298	0.0001174
290.15	0.0124126	0.0001335
293.15	0.0137288	0.0001477
297.15	0.0153774	0.0001659
302.15	0.0183071	0.0001982
307.15	0.0215539	0.0002339
311.65	0.0248896	0.0002708
315.65	0.0279393	0.0003052
320.15	0.0325987	0.0003577

System: trichloromethane + perbromothiophene; phases: Liquid, Crystal
Fixed: Pressure, kPa = 101
Property: Mole fraction of perbromothiophene (Liquid); method: gravimetric
Temperature, K	Mole fraction of perbromothiophene	uncertainty
278.05	0.0200156	0.0001628
281.25	0.0228574	0.0001851
286.15	0.0268648	0.0002173
290.15	0.0301628	0.0002448
293.15	0.0333804	0.0002734
297.15	0.0389821	0.0003202
302.15	0.045525	0.0003757
307.15	0.053551	0.0004463
311.65	0.0628925	0.0005271
315.65	0.0687322	0.0005788
320.15	0.0781261	0.0006647

System: tetrahydrofuran + perbromothiophene; phases: Liquid, Crystal
Fixed: Pressure, kPa = 101
Property: Mole fraction of perbromothiophene (Liquid); method: gravimetric
Temperature, K	Mole fraction of perbromothiophene	uncertainty
278.05	0.0405448	0.0005457
281.25	0.0436399	0.0005886
286.15	0.0469149	0.000635
290.15	0.0511302	0.0006953
293.15	0.0538415	0.0007339
297.15	0.0572417	0.0007831
302.15	0.062518	0.0008602
307.15	0.0684663	0.000948
311.65	0.0737516	0.001027
315.65	0.0788285	0.001104
320.15	0.0842998	0.001187
