Measured thermophysical data. (p,rho,T,x) and viscosity measurements of {x1 n-heptane + (1 - x1) n-octane} mixtures at high temperatures and high pressures
Source: J. Chem. Thermodyn., 2006, 10.1016/j.jct.2006.01.012
Compound 1: octane, C8H18, InChI=1S/C8H18/c1-3-5-7-8-6-4-2/h3-8H2,1-2H3
Compound 2: heptane, C7H16, InChI=1S/C7H16/c1-3-5-7-6-4-2/h3-7H2,1-2H3

System: octane; phases: Liquid
Property: Viscosity, Pa*s (Liquid); method: Capillary tube (Ostwald; Ubbelohde) method
Temperature, K	Pressure, kPa	Viscosity, Pa*s	uncertainty
298.24	100	0.000508	1.7e-05
308.72	5000	0.0004786	1.56e-05
308.72	10000	0.0005043	1.65e-05
323.93	100	0.0003829	1.25e-05
348.64	100	0.0003034	1e-05
349.46	5000	0.0003187	1.05e-05
349.46	10000	0.0003364	1.1e-05
394.81	5000	0.0002197	7.3e-06
394.81	10000	0.0002334	7.7e-06
436.86	5000	0.0001672	5.6e-06
436.86	10000	0.0001799	6e-06
467.46	5000	0.0001338	4.5e-06
467.46	10000	0.0001458	4.9e-06

System: octane; phases: Liquid
Property: Mass density, kg/m3 (Liquid); method: ISOCHOR
Temperature, K	Pressure, kPa	Mass density, kg/m3	uncertainty
301.84	100	695.24	0.85
311.89	4680	691.6	0.8
311.89	10642	697.4	0.9
316.49	100	683.55	0.83
329.76	100	672.69	0.82
340.94	100	663.24	0.81
358.76	100	648.1	0.8
367.61	5873	648.8	0.8
367.61	11461	656.2	0.8
437.97	6430	589.6	0.7
437.97	11084	599.5	0.7
516.64	5712	505.4	0.6
516.64	9791	525.2	0.6

System: heptane; phases: Liquid
Property: Viscosity, Pa*s (Liquid); method: Capillary tube (Ostwald; Ubbelohde) method
Temperature, K	Pressure, kPa	Viscosity, Pa*s	uncertainty
298.24	100	0.000388	1.3e-05
306.79	5000	0.0003779	1.24e-05
306.79	10000	0.0004013	1.31e-05
323.93	100	0.0002979	9.8e-06
337.54	5000	0.00028	1e-05
337.54	10000	0.0002978	9.8e-06
348.64	100	0.0002354	7.8e-06
369.35	5000	0.0002116	7e-06
369.35	10000	0.0002259	7.5e-06
407.85	5000	0.0001595	5.3e-06
407.85	10000	0.0001718	5.7e-06
449.64	5000	0.000122	4e-06
449.64	10000	0.0001338	4.5e-06
473.54	5000	0.0001012	3.5e-06
473.54	10000	0.000113	4e-06

System: heptane; phases: Liquid
Property: Mass density, kg/m3 (Liquid); method: ISOCHOR
Temperature, K	Pressure, kPa	Mass density, kg/m3	uncertainty
302.46	100	675.91	0.82
307.61	4760	676.1	0.8
307.61	11941	683.2	0.8
314.57	100	665.62	0.81
329.71	100	652.43	0.8
342.94	100	640.61	0.78
353.76	100	630.86	0.77
387	5783	610	0.7
387	12460	620.7	0.8
450.12	4350	543.7	0.7
450.12	11492	564.4	0.7
500.47	6791	492.7	0.6
500.47	10720	512.8	0.6

System: octane + heptane; phases: Liquid
Property: Viscosity, Pa*s (Liquid); method: Capillary tube (Ostwald; Ubbelohde) method
Temperature, K	Pressure, kPa	Mole fraction of heptane	Viscosity, Pa*s	uncertainty
298.15	100	0.5427	0.000436	1.4e-05
298.15	5000	0.5427	0.000461	1.5e-05
298.15	10000	0.5427	0.000487	1.6e-05
298.22	100	0.7906	0.000408	1.3e-05
298.22	5000	0.7906	0.000435	1.4e-05
298.22	10000	0.7906	0.000459	1.5e-05
298.39	100	0.2808	0.000467	1.5e-05
298.39	5000	0.2808	0.000493	1.6e-05
298.39	10000	0.2808	0.000521	1.7e-05
303.39	100	0.5427	0.000414	1.4e-05
303.39	5000	0.5427	0.000435	1.4e-05
303.39	10000	0.5427	0.000459	1.5e-05
303.85	100	0.2808	0.000441	1.4e-05
303.85	5000	0.2808	0.000465	1.5e-05
303.85	10000	0.2808	0.000492	1.6e-05
305.74	100	0.7906	0.000379	1.2e-05
305.74	5000	0.7906	0.000402	1.3e-05
305.74	10000	0.7906	0.000425	1.4e-05
312.71	100	0.2808	0.0004	1.3e-05
312.71	5000	0.2808	0.000424	1.4e-05
312.71	10000	0.2808	0.000446	1.5e-05
312.74	100	0.5427	0.000374	1.2e-05
312.74	5000	0.5427	0.000396	1.3e-05
312.74	10000	0.5427	0.000419	1.4e-05
312.75	100	0.7906	0.000352	1.2e-05
312.75	5000	0.7906	0.000373	1.2e-05
312.75	10000	0.7906	0.000395	1.3e-05
321.21	100	0.5427	0.000338	1.1e-05
321.21	5000	0.5427	0.000359	1.2e-05
321.21	10000	0.5427	0.00038	1.2e-05
321.71	100	0.2808	0.000362	1.2e-05
321.71	5000	0.2808	0.000384	1.3e-05
321.71	10000	0.2808	0.000405	1.3e-05
323.82	100	0.7906	0.000314	1e-05
323.82	5000	0.7906	0.000334	1.1e-05
323.82	10000	0.7906	0.000353	1.2e-05
333.54	100	0.2808	0.000322	1.1e-05
333.54	5000	0.2808	0.000341	1.1e-05
333.54	10000	0.2808	0.00036	1.2e-05
333.73	100	0.5427	0.0003	1e-05
333.73	5000	0.5427	0.000319	1e-05
333.73	10000	0.5427	0.000338	1.1e-05
335.62	100	0.7906	0.000281	9e-06
335.62	5000	0.7906	0.000298	1e-05
335.62	10000	0.7906	0.000316	1e-05
344.21	100	0.7906	0.00026	9e-06
344.21	5000	0.7906	0.000276	9e-06
344.21	10000	0.7906	0.000292	1e-05
344.39	100	0.2808	0.000291	1e-05
344.39	5000	0.2808	0.000308	1e-05
344.39	10000	0.2808	0.000325	1.1e-05
344.4	100	0.5427	0.000273	9e-06
344.4	5000	0.5427	0.00029	1e-05
344.4	10000	0.5427	0.000307	1e-05
352.62	100	0.5427	0.000255	8e-06
352.62	5000	0.5427	0.00027	9e-06
352.62	10000	0.5427	0.000286	9e-06
353.2	100	0.7906	0.000239	8e-06
353.2	5000	0.7906	0.000255	8e-06
353.2	10000	0.7906	0.00027	9e-06
354.08	100	0.2808	0.000267	9e-06
354.08	5000	0.2808	0.000283	9e-06
354.08	10000	0.2808	0.000299	1e-05
363.71	100	0.2808	0.000245	8e-06
363.71	5000	0.2808	0.000261	9e-06
363.71	10000	0.2808	0.000276	9e-06
363.74	100	0.5427	0.000232	8e-06
363.74	5000	0.5427	0.000247	8e-06
363.74	10000	0.5427	0.00026	9e-06
364.62	100	0.7906	0.000216	7e-06
364.62	5000	0.7906	0.000232	8e-06
364.62	10000	0.7906	0.000246	8e-06
373.19	5000	0.7906	0.000217	7e-06
373.19	10000	0.7906	0.00023	8e-06
373.51	5000	0.2808	0.000241	8e-06
373.51	10000	0.2808	0.000255	8e-06
373.97	5000	0.5427	0.000227	8e-06
373.97	10000	0.5427	0.00024	8e-06
382.99	5000	0.2808	0.000223	7e-06
382.99	10000	0.2808	0.000237	8e-06
383.18	5000	0.5427	0.000212	7e-06
383.18	10000	0.5427	0.000224	7e-06
384.55	5000	0.7906	0.000198	7e-06
384.55	10000	0.7906	0.000211	7e-06
393.49	5000	0.2808	0.000206	7e-06
393.49	10000	0.2808	0.00022	7e-06
394.51	5000	0.5427	0.000195	6e-06
394.51	10000	0.5427	0.000206	7e-06
395.52	5000	0.7906	0.000183	6e-06
395.52	10000	0.7906	0.000195	6e-06
403.23	5000	0.5427	0.000183	6e-06
403.23	10000	0.5427	0.000193	6e-06
407.72	5000	0.7906	0.000167	6e-06
407.72	10000	0.7906	0.00018	6e-06
413.6	5000	0.2808	0.000178	6e-06
413.6	10000	0.2808	0.000191	6e-06
415.96	5000	0.5427	0.000167	6e-06
415.96	10000	0.5427	0.000177	6e-06
424.45	5000	0.7906	0.000149	5e-06
424.45	10000	0.7906	0.00016	5e-06
424.55	5000	0.5427	0.000158	5e-06
424.55	10000	0.5427	0.000167	6e-06
432.62	5000	0.2808	0.000156	5e-06
432.62	10000	0.2808	0.000168	6e-06
433.62	5000	0.5427	0.000148	5e-06
433.62	10000	0.5427	0.000158	5e-06
435.62	5000	0.7906	0.000138	5e-06
435.62	10000	0.7906	0.000149	5e-06
452.73	5000	0.5427	0.000129	4e-06
452.73	10000	0.5427	0.00014	5e-06
455.3	5000	0.7906	0.00012	4e-06
455.3	10000	0.7906	0.000132	4e-06
455.63	5000	0.2808	0.000133	5e-06
455.63	10000	0.2808	0.000145	5e-06
463.18	5000	0.5427	0.00012	4e-06
463.18	10000	0.5427	0.000131	4e-06
472.52	5000	0.7906	0.000107	4e-06
472.52	10000	0.7906	0.000118	4e-06
473.1	5000	0.5427	0.000112	4e-06
473.1	10000	0.5427	0.000123	4e-06
473.46	5000	0.2808	0.000118	4e-06
473.46	10000	0.2808	0.00013	4e-06

System: octane + heptane; phases: Liquid
Property: Mass density, kg/m3 (Liquid); method: ISOCHOR
Temperature, K	Pressure, kPa	Mole fraction of heptane	Mass density, kg/m3	uncertainty
293.15	100	0.2808	697.8	0.9
293.15	100	0.5427	693.2	0.8
293.15	100	0.7906	688.3	0.8
298.15	100	0.2808	694	0.8
298.15	100	0.5427	689.2	0.8
298.15	100	0.7906	684.2	0.8
299.24	3824	0.5427	691.8	0.8
299.24	6865	0.5427	694.6	0.8
299.24	9316	0.5427	696.4	0.9
303.15	100	0.2808	689.9	0.8
303.15	100	0.5427	685	0.8
303.15	100	0.7906	680.1	0.8
306.18	2942	0.2808	690.3	0.8
306.18	7021	0.2808	693.8	0.8
306.18	8826	0.2808	695.3	0.8
307.62	2608	0.7906	678.6	0.8
307.62	7178	0.7906	683	0.8
307.62	9140	0.7906	684.6	0.8
308.15	100	0.2808	686.1	0.8
308.15	100	0.5427	680.9	0.8
308.15	100	0.7906	675.9	0.8
313.15	100	0.2808	681.6	0.8
313.15	100	0.5427	676.6	0.8
313.15	100	0.7906	671.6	0.8
318.15	100	0.2808	677.4	0.8
318.15	100	0.5427	672.7	0.8
318.15	100	0.7906	667.3	0.8
323.15	100	0.2808	673.2	0.8
323.15	100	0.5427	668.5	0.8
323.15	100	0.7906	663	0.8
331.45	4121	0.7906	658.7	0.8
331.45	6311	0.7906	662.6	0.8
331.45	8523	0.7906	665.5	0.8
331.45	10350	0.7906	667.1	0.8
331.55	4119	0.5427	665	0.8
331.55	5944	0.5427	668.1	0.8
331.55	8203	0.5427	670.9	0.8
331.55	10100	0.5427	672.6	0.8
333.15	100	0.2808	664.9	0.8
333.15	100	0.5427	659.9	0.8
333.15	100	0.7906	654.4	0.8
338.15	100	0.2808	661	0.8
338.15	100	0.5427	655.6	0.8
338.15	100	0.7906	650.1	0.8
343.15	100	0.2808	656.8	0.8
343.15	100	0.5427	651.2	0.8
343.15	100	0.7906	645.6	0.8
352.61	2844	0.5427	648	0.8
352.61	8237	0.5427	654.9	0.8
352.61	10040	0.5427	657	0.8
357.15	100	0.2808	644.3	0.8
357.15	100	0.5427	638.8	0.8
357.15	100	0.7906	633	0.8
362.65	4800	0.2808	646.1	0.8
362.65	6720	0.2808	649	0.8
362.65	9300	0.2808	652.5	0.8
365.46	3432	0.7906	631.8	0.8
365.46	8983	0.7906	639.4	0.8
365.46	9963	0.7906	640.9	0.8
374.79	3256	0.2808	634.7	0.8
374.79	8081	0.2808	641.5	0.8
374.79	9316	0.2808	643.1	0.8
380.43	3110	0.5427	623.5	0.8
380.43	5712	0.5427	628.4	0.8
380.43	8743	0.5427	633.1	0.8
380.43	10230	0.5427	635.1	0.8
386.91	3743	0.7906	612.4	0.7
386.91	5902	0.7906	616.6	0.8
386.91	8793	0.7906	621.6	0.8
386.91	10710	0.7906	624.7	0.8
401.28	4100	0.7906	601.1	0.7
401.28	6833	0.7906	606.2	0.7
401.28	9204	0.7906	610.3	0.7
401.28	10510	0.7906	612.5	0.7
401.4	4751	0.2808	614.2	0.8
401.4	7120	0.2808	618	0.8
401.4	9310	0.2808	621.7	0.8
409.59	3334	0.5427	598	0.7
409.59	7257	0.5427	606.1	0.7
409.59	9316	0.5427	609.6	0.7
423.23	3334	0.7906	578.1	0.7
423.23	7433	0.7906	587.6	0.7
423.23	9708	0.7906	592.4	0.7
424.48	4903	0.5427	588.7	0.7
424.48	7108	0.5427	592.8	0.7
424.48	9298	0.5427	597.1	0.7
429.34	3511	0.2808	585.6	0.7
429.34	8237	0.2808	595.9	0.7
429.34	9630	0.2808	598.7	0.7
447.3	4808	0.5427	566	0.7
447.3	6304	0.5427	569.6	0.7
447.3	9463	0.5427	576.6	0.7
451.28	3900	0.2808	565.6	0.7
451.28	5302	0.2808	569	0.7
451.28	8131	0.2808	576	0.7
451.28	9621	0.2808	579.7	0.7
466.55	4570	0.7906	535.1	0.7
466.55	7593	0.7906	546.3	0.7
466.55	9885	0.7906	553.4	0.7
466.78	3177	0.5427	538.3	0.7
466.78	8649	0.5427	556.8	0.7
466.78	9963	0.5427	560.6	0.7
475.85	4354	0.2808	539.5	0.7
475.85	8492	0.2808	553.8	0.7
475.85	10120	0.2808	558.1	0.7
483.92	4703	0.5427	524.2	0.6
483.92	7131	0.5427	533.5	0.7
483.92	9423	0.5427	541.6	0.7
494.74	4250	0.2808	515.8	0.6
494.74	6032	0.2808	524.3	0.6
494.74	8734	0.2808	535.5	0.7
494.74	9220	0.2808	537.5	0.7
505.34	5217	0.2808	507.7	0.6
505.34	8904	0.2808	525.4	0.6
505.34	9807	0.2808	528.4	0.6
506	5099	0.7906	487.7	0.6
506	6982	0.7906	499.4	0.6
506	8492	0.7906	507.2	0.6
506	9669	0.7906	512.6	0.6
518.04	4982	0.5427	480.1	0.6
518.04	7512	0.5427	496.2	0.6
518.04	8983	0.5427	504.3	0.6
525.5	4771	0.2808	475.8	0.6
525.5	5323	0.2808	480.4	0.6
525.5	7331	0.2808	494.9	0.6
525.5	9533	0.2808	506.5	0.6
536.57	5021	0.5427	449.5	0.6
536.57	6931	0.5427	468.1	0.6
536.57	9621	0.5427	486.1	0.6
549.34	5394	0.5427	431.7	0.5
549.34	6766	0.5427	449.2	0.6
549.34	8689	0.5427	464.6	0.6
549.34	9708	0.5427	471.9	0.6
555.9	4982	0.7906	394.1	0.5
555.9	6198	0.7906	416.1	0.5
555.9	8649	0.7906	445.5	0.6
555.9	10240	0.7906	458.1	0.6
557.23	5296	0.2808	430.4	0.5
557.23	8238	0.2808	461.5	0.6
557.23	9885	0.2808	473.3	0.6
557.23	10790	0.2808	479	0.6
