Measured thermophysical data. Study of vapour pressure of lithium nitrate solutions in ethanol
Source: J. Chem. Thermodyn., 2006, 10.1016/j.jct.2005.07.015
Compound 1: ethanol, C2H6O, InChI=1S/C2H6O/c1-2-3/h3H,2H2,1H3, purity 99.8%
Compound 2: lithium nitrate, LiNO3, InChI=1S/Li.NO3/c;2-1(3)4/q+1;-1, purity 99.8%

System: ethanol; phases: Liquid, Gas
Property: Vapor or sublimation pressure, kPa (Liquid); method: Closed cell (Static) method
Temperature, K	Vapor or sublimation pressure, kPa	uncertainty
298.15	7.878	0.023
303.15	10.467	0.027
308.15	13.765	0.034
313.15	17.906	0.042
318.15	23.065	0.052
323.15	29.464	0.063

System: ethanol + lithium nitrate; phases: Liquid, Gas
Property: Vapor or sublimation pressure, kPa (Liquid); method: Closed cell (Static) method
Molality, mol/kg of lithium nitrate	Temperature, K	Vapor or sublimation pressure, kPa	uncertainty
0.19125	298.15	7.777	0.041
0.19125	303.15	10.333	0.049
0.19125	308.15	13.589	0.06
0.19125	313.15	17.677	0.073
0.19125	318.15	22.773	0.089
0.19125	323.15	29.091	0.109
0.27851	298.15	7.738	0.041
0.27851	303.15	10.281	0.049
0.27851	308.15	13.522	0.059
0.27851	313.15	17.59	0.073
0.27851	318.15	22.661	0.089
0.27851	323.15	28.949	0.109
0.34054	298.15	7.709	0.041
0.34054	303.15	10.243	0.049
0.34054	308.15	13.472	0.059
0.34054	313.15	17.525	0.072
0.34054	318.15	22.578	0.089
0.34054	323.15	28.844	0.108
0.54008	298.15	7.616	0.04
0.54008	303.15	10.121	0.048
0.54008	308.15	13.312	0.059
0.54008	313.15	17.319	0.072
0.54008	318.15	22.314	0.088
0.54008	323.15	28.509	0.107
0.68517	298.15	7.543	0.04
0.68517	303.15	10.025	0.048
0.68517	308.15	13.189	0.058
0.68517	313.15	17.161	0.071
0.68517	318.15	22.112	0.087
0.68517	323.15	28.254	0.107
0.89961	298.15	7.417	0.04
0.89961	303.15	9.86	0.048
0.89961	308.15	12.975	0.058
0.89961	313.15	16.888	0.07
0.89961	318.15	21.769	0.086
0.89961	323.15	27.823	0.105
1.22959	298.15	7.182	0.039
1.22959	303.15	9.553	0.047
1.22959	308.15	12.578	0.056
1.22959	313.15	16.381	0.069
1.22959	318.15	21.129	0.084
1.22959	323.15	27.016	0.102
1.57856	298.15	6.891	0.038
1.57856	303.15	9.177	0.045
1.57856	308.15	12.093	0.055
1.57856	313.15	15.762	0.067
1.57856	318.15	20.343	0.082
1.57856	323.15	26.034	0.099
2.01745	298.15	6.476	0.037
2.01745	303.15	8.632	0.044
2.01745	308.15	11.388	0.052
2.01745	313.15	14.862	0.064
2.01745	318.15	19.209	0.078
2.01745	323.15	24.612	0.095
2.21552	298.15	6.272	0.036
2.21552	303.15	8.366	0.043
2.21552	308.15	11.044	0.051
2.21552	313.15	14.426	0.062
2.21552	318.15	18.655	0.076
2.21552	323.15	23.913	0.093
