Measured thermophysical data. Measurement and correlation of solubility of dodecanedioic acid in different pure solvents from T = (288.15 to 323.15) K
Source: J. Chem. Thermodyn., 2014, 10.1016/j.jct.2013.09.012
Compound 1: 1,12-dodecanedioic acid, C12H22O4, InChI=1S/C12H22O4/c13-11(14)9-7-5-3-1-2-4-6-8-10-12(15)16/h1-10H2,(H,13,14)(H,15,16), purity 99%
Compound 2: ethanol, C2H6O, InChI=1S/C2H6O/c1-2-3/h3H,2H2,1H3, purity 98%
Compound 3: acetic acid, C2H4O2, InChI=1S/C2H4O2/c1-2(3)4/h1H3,(H,3,4), purity 98%
Compound 4: acetone, C3H6O, InChI=1S/C3H6O/c1-3(2)4/h1-2H3, purity 98%
Compound 5: butanone, C4H8O, InChI=1S/C4H8O/c1-3-4(2)5/h3H2,1-2H3, purity 98%
Compound 6: pentan-3-one, C5H10O, InChI=1S/C5H10O/c1-3-5(6)4-2/h3-4H2,1-2H3, purity 98%
Compound 7: ethyl acetate, C4H8O2, InChI=1S/C4H8O2/c1-3-6-4(2)5/h3H2,1-2H3, purity 98%

System: ethanol + 1,12-dodecanedioic acid; phases: Liquid, Crystal
Fixed: Pressure, kPa = 101
Property: Mole fraction of 1,12-dodecanedioic acid (Liquid); method: gravimetric
Temperature, K	Mole fraction of 1,12-dodecanedioic acid	uncertainty
288.15	0.0083	0.0003
293.15	0.0107	0.0004
298.15	0.0145	0.0006
303.15	0.0194	0.0008
308.15	0.025	0.001
313.15	0.0317	0.0013
318.15	0.0408	0.0016
323.15	0.0516	0.0021

System: acetone + 1,12-dodecanedioic acid; phases: Liquid, Crystal
Fixed: Pressure, kPa = 101
Property: Mole fraction of 1,12-dodecanedioic acid (Liquid); method: gravimetric
Temperature, K	Mole fraction of 1,12-dodecanedioic acid	uncertainty
288.15	0.003	0.0001
293.15	0.0041	0.0002
298.15	0.0058	0.0002
303.15	0.0077	0.0003
308.15	0.0107	0.0004
313.15	0.0145	0.0006
318.15	0.0193	0.0008
323.15	0.0257	0.001

System: pentan-3-one + 1,12-dodecanedioic acid; phases: Liquid, Crystal
Fixed: Pressure, kPa = 101
Property: Mole fraction of 1,12-dodecanedioic acid (Liquid); method: gravimetric
Temperature, K	Mole fraction of 1,12-dodecanedioic acid	uncertainty
288.15	0.0013	0.0001
293.15	0.0018	0.0001
298.15	0.0026	0.0001
303.15	0.0036	0.0002
308.15	0.005	0.0002
313.15	0.0068	0.0003
318.15	0.0094	0.0004
323.15	0.0128	0.0005

System: acetic acid + 1,12-dodecanedioic acid; phases: Liquid, Crystal
Fixed: Pressure, kPa = 101
Property: Mole fraction of 1,12-dodecanedioic acid (Liquid); method: gravimetric
Temperature, K	Mole fraction of 1,12-dodecanedioic acid	uncertainty
288.15	0.0032	0.0001
293.15	0.0045	0.0002
298.15	0.006	0.0002
303.15	0.0079	0.0003
308.15	0.0112	0.0005
313.15	0.0155	0.0006
318.15	0.02	0.0008
323.15	0.0268	0.0011

System: butanone + 1,12-dodecanedioic acid; phases: Liquid, Crystal
Fixed: Pressure, kPa = 101
Property: Mole fraction of 1,12-dodecanedioic acid (Liquid); method: gravimetric
Temperature, K	Mole fraction of 1,12-dodecanedioic acid	uncertainty
288.15	0.0025	0.0001
293.15	0.0036	0.0002
298.15	0.005	0.0002
303.15	0.007	0.0003
308.15	0.0097	0.0004
313.15	0.0133	0.0005
318.15	0.0189	0.0008
323.15	0.0255	0.001

System: ethyl acetate + 1,12-dodecanedioic acid; phases: Liquid, Crystal
Fixed: Pressure, kPa = 101
Property: Mole fraction of 1,12-dodecanedioic acid (Liquid); method: gravimetric
Temperature, K	Mole fraction of 1,12-dodecanedioic acid	uncertainty
288.15	0.0012	0.0001
293.15	0.0017	0.0001
298.15	0.0024	0.0001
303.15	0.0034	0.0001
308.15	0.0048	0.0002
313.15	0.0066	0.0003
318.15	0.009	0.0004
323.15	0.0122	0.0005
