Measured thermophysical data. Densities and volumetric properties of binary mixtures of amino acid ionic liquid [bmim][Glu] or [bmim][Gly] with benzylalcohol at T = (298.15 to 313.15) K
Source: J. Chem. Thermodyn., 2010, 10.1016/j.jct.2009.12.003
Compound 1: 1-butyl-3-methylimidazolium (S)-2-amino-4-carboxybutanoate, C13H23N3O4, InChI=1S/C8H15N2.C5H9NO4/c1-3-4-5-10-7-6-9(2)8-10;6-3(5(9)10)1-2-4(7)8/h6-8H,3-5H2,1-2H3;3H,1-2,6H2,(H,7,8)(H,9,10)/q+1;/p-1/t;3-/m.0/s1
Compound 2: 1-butyl-3-methylimidazolium glycinate, C10H19N3O2, InChI=1S/C8H15N2.C2H5NO2/c1-3-4-5-10-7-6-9(2)8-10;3-1-2(4)5/h6-8H,3-5H2,1-2H3;1,3H2,(H,4,5)/q+1;/p-1
Compound 3: benzenemethanol, C7H8O, InChI=1S/C7H8O/c8-6-7-4-2-1-3-5-7/h1-5,8H,6H2, purity 99%

System: 1-butyl-3-methylimidazolium (S)-2-amino-4-carboxybutanoate; phases: Liquid
Fixed: Pressure, kPa = 101.325
Property: Mass density, kg/m3 (Liquid); method: Vibrating tube method
Temperature, K	Mass density, kg/m3	uncertainty
298.15	1272.66	1.66
303.15	1269.06	1.65
308.15	1265.45	1.64
313.15	1261.79	1.64

System: 1-butyl-3-methylimidazolium glycinate; phases: Liquid
Fixed: Pressure, kPa = 101.325
Property: Mass density, kg/m3 (Liquid); method: Vibrating tube method
Temperature, K	Mass density, kg/m3	uncertainty
298.15	1260.26	1.63
303.15	1257.2	1.63
308.15	1254.1	1.62
313.15	1250.77	1.62

System: benzenemethanol; phases: Liquid
Fixed: Pressure, kPa = 101.325
Property: Mass density, kg/m3 (Liquid); method: Vibrating tube method
Temperature, K	Mass density, kg/m3	uncertainty
298.15	1041.64	1.03
303.15	1037.42	1.03
308.15	1033.84	1.03
313.15	1030.43	1.03

System: benzenemethanol + 1-butyl-3-methylimidazolium (S)-2-amino-4-carboxybutanoate; phases: Liquid
Fixed: Pressure, kPa = 101
Property: Mass density, kg/m3 (Liquid); method: Vibrating tube method
Temperature, K	Mole fraction of 1-butyl-3-methylimidazolium (S)-2-amino-4-carboxybutanoate	Mass density, kg/m3	uncertainty
298.15	0.1001	1091.34	1.05
298.15	0.2	1130.22	1.08
298.15	0.3	1161.27	1.12
298.15	0.4001	1186.45	1.17
298.15	0.494	1206.03	1.22
298.15	0.6	1224.54	1.29
298.15	0.7	1239.2	1.36
298.15	0.7999	1251.78	1.45
298.15	0.9001	1262.74	1.55
303.15	0.1001	1086.8	1.1
303.15	0.2	1125.5	1.1
303.15	0.3	1156.5	1.1
303.15	0.4001	1181.7	1.2
303.15	0.494	1201.4	1.2
303.15	0.6	1220	1.3
303.15	0.7	1234.9	1.4
303.15	0.7999	1247.6	1.4
303.15	0.9001	1258.9	1.5
313.15	0.1001	1080.2	1.1
313.15	0.2	1117.9	1.1
313.15	0.3	1148.1	1.1
313.15	0.4001	1173.1	1.2
313.15	0.494	1192.9	1.2
313.15	0.6	1211.7	1.3
313.15	0.7	1226.7	1.4
313.15	0.7999	1239.4	1.4
313.15	0.9001	1250.7	1.5

System: benzenemethanol + 1-butyl-3-methylimidazolium glycinate; phases: Liquid
Fixed: Pressure, kPa = 101
Property: Mass density, kg/m3 (Liquid); method: Vibrating tube method
Temperature, K	Mole fraction of 1-butyl-3-methylimidazolium glycinate	Mass density, kg/m3	uncertainty
298.15	0.1	1079.4	1.1
298.15	0.2	1112.3	1.1
298.15	0.2996	1140.4	1.1
298.15	0.4	1164.9	1.2
298.15	0.5001	1186	1.2
298.15	0.5997	1204.5	1.3
298.15	0.6999	1220.9	1.3
298.15	0.7984	1235.4	1.4
298.15	0.9	1248.8	1.5
303.15	0.1	1074.9	1
303.15	0.2	1107.5	1.1
303.15	0.2996	1135.6	1.1
303.15	0.4	1160.1	1.2
303.15	0.5001	1181.4	1.2
303.15	0.5997	1200	1.3
303.15	0.6999	1216.7	1.3
303.15	0.7984	1231.5	1.4
303.15	0.9	1245.3	1.5
308.15	0.1	1071	1
308.15	0.2	1103.5	1.1
308.15	0.2996	1131.4	1.1
308.15	0.4	1155.9	1.2
308.15	0.5001	1177.1	1.2
308.15	0.5997	1195.8	1.3
308.15	0.6999	1212.7	1.3
308.15	0.7984	1227.8	1.4
308.15	0.9	1241.9	1.5
313.15	0.1	1067.3	1
313.15	0.2	1099.4	1.1
313.15	0.2996	1127.2	1.1
313.15	0.4	1151.6	1.2
313.15	0.5001	1172.8	1.2
313.15	0.5997	1191.6	1.3
313.15	0.6999	1208.7	1.3
313.15	0.7984	1223.9	1.4
313.15	0.9	1238.2	1.5
