Measured thermophysical data. Enthalpic changes on mixing two couples of S- and R-enantiomers of benzyl-(1-phenyl-ethyl)-amine, 1-phenylethylamine, 1-phenyl-ethanol, butyric acid oxiranylmethyl ester, 4-methyl-[1,3]dioxolan-2-one, 2-chloro-methyloxirane and 3-hydroxyisobutyric acid methyl ester at T = 298.15 K
Source: J. Chem. Thermodyn., 2006, 10.1016/j.jct.2005.10.019
Compound 1: (R)-(+)-N-benzyl-1-phenylethylamine, C15H17N, InChI=1S/C15H17N/c1-13(15-10-6-3-7-11-15)16-12-14-8-4-2-5-9-14/h2-11,13,16H,12H2,1H3/t13-/m1/s1
Compound 2: (S)-N-benzyl-1-phenylethylamine, C15H17N, InChI=1S/C15H17N/c1-13(15-10-6-3-7-11-15)16-12-14-8-4-2-5-9-14/h2-11,13,16H,12H2,1H3/t13-/m0/s1
Compound 3: (R)-(+)-.alpha.-methylbenzylamine, C8H11N, InChI=1S/C8H11N/c1-7(9)8-5-3-2-4-6-8/h2-7H,9H2,1H3/t7-/m1/s1
Compound 4: (S)-(-)-.alpha.methylbenzylamine, C8H11N, InChI=1S/C8H11N/c1-7(9)8-5-3-2-4-6-8/h2-7H,9H2,1H3/t7-/m0/s1
Compound 5: (R)-(+)-1-phenylethanol, C8H10O, InChI=1S/C8H10O/c1-7(9)8-5-3-2-4-6-8/h2-7,9H,1H3/t7-/m1/s1
Compound 6: (S)-(-)-1-phenylethanol, C8H10O, InChI=1S/C8H10O/c1-7(9)8-5-3-2-4-6-8/h2-7,9H,1H3/t7-/m0/s1
Compound 7: R(-)-2,3-epoxypropyl butanoate, C7H12O3, InChI=1S/C7H12O3/c1-2-3-7(8)10-5-6-4-9-6/h6H,2-5H2,1H3/t6-/m1/s1
Compound 8: S-(-)-glycidyl butyrate, C7H12O3, InChI=1S/C7H12O3/c1-2-3-7(8)10-5-6-4-9-6/h6H,2-5H2,1H3/t6-/m0/s1
Compound 9: (R)-4-methyl-1,3-dioxolan-2-one, C4H6O3, InChI=1S/C4H6O3/c1-3-2-6-4(5)7-3/h3H,2H2,1H3/t3-/m1/s1
Compound 10: (S)-4-methyl-1,3-dioxolan-2-one, C4H6O3, InChI=1S/C4H6O3/c1-3-2-6-4(5)7-3/h3H,2H2,1H3/t3-/m0/s1
Compound 11: (2R)-(chloromethyl)-oxirane, C3H5ClO, InChI=1S/C3H5ClO/c4-1-3-2-5-3/h3H,1-2H2/t3-/m0/s1
Compound 12: (2S)-chloromethyl-oxirane, C3H5ClO, InChI=1S/C3H5ClO/c4-1-3-2-5-3/h3H,1-2H2/t3-/m1/s1
Compound 13: (2R)-3-hydroxy-2-methyl-propanoic acid methyl ester, C5H10O3, InChI=1S/C5H10O3/c1-4(3-6)5(7)8-2/h4,6H,3H2,1-2H3/t4-/m1/s1
Compound 14: (2S)-3-hydroxy-2-methyl-propanoic acid methyl ester, C5H10O3, InChI=1S/C5H10O3/c1-4(3-6)5(7)8-2/h4,6H,3H2,1-2H3/t4-/m0/s1

System: (R)-(+)-N-benzyl-1-phenylethylamine; phases: Liquid
Property: Mass density, kg/m3 (Liquid); method: VIBTUB:UFactor:2
Temperature, K	Pressure, kPa	Mass density, kg/m3	uncertainty
298.15	101.325	1007.7	0.2

System: (S)-N-benzyl-1-phenylethylamine; phases: Liquid
Property: Mass density, kg/m3 (Liquid); method: VIBTUB:UFactor:2
Temperature, K	Pressure, kPa	Mass density, kg/m3	uncertainty
298.15	101.325	1007.9	0.2

System: (R)-(+)-.alpha.-methylbenzylamine; phases: Liquid
Property: Mass density, kg/m3 (Liquid); method: VIBTUB:UFactor:2
Temperature, K	Pressure, kPa	Mass density, kg/m3	uncertainty
298.15	101.325	965.38	0.16

System: (S)-(-)-.alpha.methylbenzylamine; phases: Liquid
Property: Mass density, kg/m3 (Liquid); method: VIBTUB:UFactor:2
Temperature, K	Pressure, kPa	Mass density, kg/m3	uncertainty
298.15	101.325	965.49	0.16

System: (R)-(+)-1-phenylethanol; phases: Liquid
Property: Mass density, kg/m3 (Liquid); method: VIBTUB:UFactor:8
Temperature, K	Pressure, kPa	Mass density, kg/m3	uncertainty
298.15	101.325	1012.4	1.1

System: (S)-(-)-1-phenylethanol; phases: Liquid
Property: Mass density, kg/m3 (Liquid); method: VIBTUB:UFactor:8
Temperature, K	Pressure, kPa	Mass density, kg/m3	uncertainty
298.15	101.325	1012.3	1.1

System: R(-)-2,3-epoxypropyl butanoate; phases: Liquid
Property: Mass density, kg/m3 (Liquid); method: VIBTUB:UFactor:8
Temperature, K	Pressure, kPa	Mass density, kg/m3	uncertainty
298.15	101.325	1036.3	1

System: S-(-)-glycidyl butyrate; phases: Liquid
Property: Mass density, kg/m3 (Liquid); method: VIBTUB:UFactor:8
Temperature, K	Pressure, kPa	Mass density, kg/m3	uncertainty
298.15	101.325	1029.7	0.9

System: (R)-4-methyl-1,3-dioxolan-2-one; phases: Liquid
Property: Mass density, kg/m3 (Liquid); method: VIBTUB:UFactor:2
Temperature, K	Pressure, kPa	Mass density, kg/m3	uncertainty
298.15	101.325	1199.4	0.3

System: (S)-4-methyl-1,3-dioxolan-2-one; phases: Liquid
Property: Mass density, kg/m3 (Liquid); method: VIBTUB:UFactor:2
Temperature, K	Pressure, kPa	Mass density, kg/m3	uncertainty
298.15	101.325	1199.5	0.3

System: (2R)-(chloromethyl)-oxirane; phases: Liquid
Property: Mass density, kg/m3 (Liquid); method: VIBTUB:UFactor:8
Temperature, K	Pressure, kPa	Mass density, kg/m3	uncertainty
298.15	101.325	1093.3	1.3

System: (2S)-chloromethyl-oxirane; phases: Liquid
Property: Mass density, kg/m3 (Liquid); method: VIBTUB:UFactor:8
Temperature, K	Pressure, kPa	Mass density, kg/m3	uncertainty
298.15	101.325	1093.5	1.3

System: (2R)-3-hydroxy-2-methyl-propanoic acid methyl ester; phases: Liquid
Property: Mass density, kg/m3 (Liquid); method: VIBTUB:UFactor:2
Temperature, K	Pressure, kPa	Mass density, kg/m3	uncertainty
298.15	101.325	1067.5	0.2

System: (2S)-3-hydroxy-2-methyl-propanoic acid methyl ester; phases: Liquid
Property: Mass density, kg/m3 (Liquid); method: VIBTUB:UFactor:2
Temperature, K	Pressure, kPa	Mass density, kg/m3	uncertainty
298.15	101.325	1069.6	0.2

System: (2R)-(chloromethyl)-oxirane + (2S)-chloromethyl-oxirane; phases: Liquid
Fixed: Pressure, kPa = 101
Fixed: Temperature, K = 298.15
Property: Excess molar enthalpy (molar enthalpy of mixing), kJ/mol (Liquid); method: CALVET:UFactor:0.5
Mole fraction of (2S)-chloromethyl-oxirane	Excess molar enthalpy (molar enthalpy of mixing), kJ/mol	uncertainty
0.01821	0.000852	0.000542
0.03578	0.001655	0.000546
0.05272	0.002416	0.00055
0.05939	0.002774	0.000551
0.06908	0.003099	0.000553
0.08489	0.003726	0.000556
0.1002	0.004302	0.000559
0.1121	0.004775	0.000561
0.1149	0.004843	0.000561
0.1292	0.005355	0.000563
0.1373	0.005552	0.000564
0.1431	0.005832	0.000566
0.1565	0.006262	0.000568
0.1593	0.006304	0.000568
0.1695	0.006673	0.00057
0.1706	0.00679	0.00057
0.1821	0.007065	0.000571
0.1943	0.007441	0.000573
0.2016	0.007575	0.000574
0.2399	0.008484	0.000578
0.2414	0.008732	0.000579
0.2748	0.009493	0.000583
0.2915	0.01002	0.00059
0.3065	0.00986	0.000585
0.3231	0.01046	0.00059
0.3356	0.01043	0.00059
0.3624	0.011	0.00059
0.3693	0.01113	0.00059
0.3816	0.01149	0.00059
0.387	0.0113	0.00059
0.3889	0.01137	0.00059
0.4009	0.01149	0.00059
0.4099	0.01166	0.00059
0.417	0.01154	0.00059
0.4311	0.01167	0.00059
0.4384	0.01179	0.00059
0.4431	0.01181	0.00059
0.4498	0.01196	0.00059
0.4508	0.01163	0.00059
0.4514	0.01191	0.00059
0.4837	0.01197	0.00059
0.4882	0.01208	0.0006
0.4884	0.01195	0.00059
0.5071	0.01219	0.0006
0.5269	0.0119	0.00059
0.5337	0.01202	0.00059
0.5394	0.01191	0.00059
0.5525	0.01195	0.00059
0.5886	0.0117	0.00059
0.5902	0.01176	0.00059
0.6096	0.01141	0.00059
0.6221	0.0114	0.00059
0.6561	0.0109	0.00059
0.7008	0.01003	0.00059
0.741	0.009235	0.000582
0.7793	0.008196	0.000577
0.7927	0.007813	0.000575
0.8067	0.007153	0.000572
0.8211	0.006745	0.00057
0.8241	0.006899	0.000571
0.8361	0.006299	0.000568
0.8513	0.006014	0.000567
0.8516	0.005717	0.000565
0.8677	0.005406	0.000564
0.8844	0.004734	0.000561
0.9018	0.003999	0.000557
0.9198	0.003308	0.000554
0.9387	0.002598	0.000551
0.9583	0.001765	0.000547
0.9787	0.000913	0.000543

System: (S)-(-)-1-phenylethanol + (R)-(+)-1-phenylethanol; phases: Liquid
Fixed: Pressure, kPa = 101
Fixed: Temperature, K = 298.15
Property: Excess molar enthalpy (molar enthalpy of mixing), kJ/mol (Liquid); method: CALVET:UFactor:0.5
Mole fraction of (S)-(-)-1-phenylethanol	Excess molar enthalpy (molar enthalpy of mixing), kJ/mol	uncertainty
0.07558	0.003159	0.000553
0.09137	0.003785	0.000556
0.1405	0.005317	0.000563
0.1675	0.006256	0.000568
0.197	0.007009	0.000571
0.2318	0.0077	0.000574
0.2464	0.00818	0.000577
0.2869	0.008918	0.00058
0.2902	0.009037	0.000581
0.3291	0.009644	0.000584
0.3346	0.009639	0.000584
0.364	0.01007	0.00059
0.3763	0.01006	0.00059
0.3954	0.01032	0.00059
0.4131	0.0103	0.00059
0.4239	0.01049	0.00059
0.4458	0.01046	0.00059
0.4498	0.01057	0.00059
0.4751	0.01054	0.00059
0.4753	0.01043	0.00059
0.497	0.01056	0.00059
0.5014	0.01056	0.00059
0.5208	0.01061	0.00059
0.5252	0.01051	0.00059
0.5469	0.01048	0.00059
0.547	0.0106	0.00059
0.5668	0.01053	0.00059
0.576	0.01051	0.00059
0.5993	0.01052	0.00059
0.6083	0.01032	0.00059
0.6357	0.01008	0.00059
0.6443	0.009955	0.000585
0.6768	0.009595	0.000583
0.6849	0.009495	0.000583
0.7235	0.008968	0.00058
0.731	0.008743	0.000579
0.7773	0.007962	0.000576
0.7837	0.007665	0.000574
0.8396	0.006011	0.000567
0.8446	0.006218	0.000568
0.9128	0.003587	0.000555
0.9158	0.003501	0.000555

System: (S)-(-)-.alpha.methylbenzylamine + (R)-(+)-.alpha.-methylbenzylamine; phases: Liquid
Fixed: Pressure, kPa = 101
Fixed: Temperature, K = 298.15
Property: Excess molar enthalpy (molar enthalpy of mixing), kJ/mol (Liquid); method: CALVET:UFactor:0.5
Mole fraction of (S)-(-)-.alpha.methylbenzylamine	Excess molar enthalpy (molar enthalpy of mixing), kJ/mol	uncertainty
0.0173	0.000616	0.000503
0.03401	0.001206	0.000506
0.05015	0.001745	0.000509
0.06577	0.002246	0.000512
0.08089	0.002682	0.000514
0.09552	0.00313	0.000516
0.1097	0.003546	0.000518
0.1234	0.003927	0.00052
0.1368	0.004279	0.000522
0.1408	0.004484	0.000523
0.1408	0.004484	0.000523
0.1497	0.004621	0.000523
0.1497	0.004621	0.000523
0.1622	0.004967	0.000525
0.1622	0.004967	0.000525
0.1744	0.005281	0.000527
0.1862	0.005545	0.000528
0.2469	0.006823	0.000534
0.3297	0.008152	0.000541
0.384	0.008689	0.000544
0.4161	0.008902	0.000545
0.4539	0.009035	0.000546
0.555	0.009029	0.000546
0.6244	0.008683	0.000544
0.7138	0.007567	0.000538
0.8027	0.005509	0.000528
0.815	0.005248	0.000527
0.841	0.004621	0.000523
0.8546	0.004272	0.000522
0.8686	0.00391	0.00052
0.8831	0.003515	0.000518
0.8981	0.003096	0.000516
0.9136	0.002639	0.000514
0.9297	0.002204	0.000511
0.9463	0.001713	0.000509
0.9636	0.001142	0.000506
0.9814	0.000486	0.000503

System: (S)-N-benzyl-1-phenylethylamine + (R)-(+)-N-benzyl-1-phenylethylamine; phases: Liquid
Fixed: Pressure, kPa = 101
Fixed: Temperature, K = 298.15
Property: Excess molar enthalpy (molar enthalpy of mixing), kJ/mol (Liquid); method: CALVET:UFactor:0.5
Mole fraction of (S)-N-benzyl-1-phenylethylamine	Excess molar enthalpy (molar enthalpy of mixing), kJ/mol	uncertainty
0.05697	-0.000895	0.000505
0.09481	-0.001381	0.000507
0.1905	-0.002548	0.000513
0.2961	-0.003435	0.000518
0.4009	-0.004025	0.000521
0.5331	-0.004264	0.000522
0.5712	-0.004213	0.000521
0.6151	-0.004024	0.000521
0.7271	-0.003478	0.000518
0.7998	-0.002872	0.000515
0.8805	-0.001838	0.00051
0.9576	-0.000777	0.000504

System: (R)-4-methyl-1,3-dioxolan-2-one + (S)-4-methyl-1,3-dioxolan-2-one; phases: Liquid
Fixed: Pressure, kPa = 101
Fixed: Temperature, K = 298.15
Property: Excess molar enthalpy (molar enthalpy of mixing), kJ/mol (Liquid); method: CALVET:UFactor:0.5
Mole fraction of (S)-4-methyl-1,3-dioxolan-2-one	Excess molar enthalpy (molar enthalpy of mixing), kJ/mol	uncertainty
0.02206	-0.000706	0.000504
0.04317	-0.001368	0.000507
0.06338	-0.002009	0.00051
0.06919	-0.001923	0.00051
0.08276	-0.002575	0.000513
0.1014	-0.003073	0.000516
0.1192	-0.003548	0.000518
0.1294	-0.003596	0.000518
0.1364	-0.003989	0.00052
0.1529	-0.004393	0.000522
0.1688	-0.004758	0.000524
0.1823	-0.004797	0.000524
0.1841	-0.005092	0.000526
0.1988	-0.005406	0.000527
0.213	-0.005688	0.000529
0.2268	-0.005948	0.00053
0.2292	-0.005971	0.00053
0.2709	-0.006801	0.000534
0.3084	-0.007092	0.000536
0.3422	-0.00743	0.000538
0.3673	-0.007759	0.000539
0.3729	-0.007799	0.000539
0.3988	-0.008005	0.00054
0.4008	-0.007989	0.00054
0.4264	-0.008193	0.000541
0.4363	-0.008248	0.000542
0.4366	-0.008286	0.000542
0.4627	-0.008512	0.000543
0.4815	-0.008396	0.000542
0.4921	-0.008565	0.000543
0.5254	-0.008557	0.000543
0.5372	-0.008324	0.000542
0.5551	-0.008371	0.000542
0.5959	-0.008235	0.000542
0.6186	-0.008141	0.000541
0.6431	-0.008018	0.00054
0.6596	-0.0077	0.000539
0.6697	-0.007709	0.000539
0.6985	-0.007353	0.000537
0.699	-0.007096	0.000536
0.7209	-0.006936	0.000535
0.73	-0.006795	0.000534
0.7641	-0.006124	0.000531
0.7644	-0.006324	0.000532
0.7782	-0.005867	0.00053
0.7929	-0.005576	0.000528
0.7949	-0.005577	0.000528
0.7997	-0.005413	0.000527
0.8022	-0.005529	0.000528
0.8081	-0.005273	0.000527
0.8122	-0.005204	0.000526
0.8228	-0.004753	0.000524
0.8239	-0.00494	0.000525
0.8252	-0.004935	0.000525
0.8385	-0.004648	0.000524
0.8404	-0.004578	0.000523
0.8439	-0.004561	0.000523
0.8522	-0.004342	0.000522
0.8575	-0.004168	0.000521
0.8665	-0.003945	0.00052
0.8753	-0.003724	0.000519
0.8812	-0.003589	0.000518
0.8857	-0.003487	0.000518
0.8902	-0.003351	0.000517
0.8939	-0.00323	0.000517
0.8964	-0.003195	0.000516
0.9121	-0.00276	0.000514
0.9133	-0.002701	0.000514
0.9285	-0.002305	0.000512
0.9335	-0.002102	0.000511
0.9419	-0.001842	0.00051
0.9454	-0.001778	0.000509
0.9547	-0.001465	0.000508
0.9629	-0.001235	0.000507
0.9768	-0.000769	0.000504
0.9811	-0.000633	0.000504

System: (2R)-3-hydroxy-2-methyl-propanoic acid methyl ester + (2S)-3-hydroxy-2-methyl-propanoic acid methyl ester; phases: Liquid
Fixed: Pressure, kPa = 101
Fixed: Temperature, K = 298.15
Property: Excess molar enthalpy (molar enthalpy of mixing), kJ/mol (Liquid); method: CALVET:UFactor:0.5
Mole fraction of (2S)-3-hydroxy-2-methyl-propanoic acid methyl ester	Excess molar enthalpy (molar enthalpy of mixing), kJ/mol	uncertainty
0.08854	0.0031	0.000516
0.08893	0.003291	0.000517
0.08959	0.003011	0.000515
0.1627	0.005469	0.000528
0.1633	0.005322	0.000527
0.1645	0.005449	0.000528
0.2257	0.007168	0.000536
0.2265	0.007044	0.000536
0.2279	0.007182	0.000536
0.2798	0.008306	0.000542
0.2808	0.008276	0.000542
0.2825	0.008387	0.000542
0.3269	0.009125	0.000546
0.328	0.009069	0.000546
0.3298	0.009229	0.000547
0.3682	0.009691	0.000549
0.3693	0.009654	0.000549
0.3713	0.009773	0.000549
0.4048	0.01007	0.00055
0.4059	0.01002	0.00055
0.4079	0.01014	0.00055
0.4373	0.01035	0.00055
0.4385	0.01028	0.00055
0.4405	0.01036	0.00055
0.4665	0.01049	0.00055
0.4677	0.01042	0.00055
0.4697	0.01046	0.00055
0.4928	0.01052	0.00055
0.4939	0.01046	0.00055
0.496	0.01047	0.00055
0.5037	0.0106	0.00055
0.5048	0.0106	0.00055
0.53	0.01054	0.00055
0.5311	0.01056	0.00055
0.5592	0.01037	0.00055
0.5602	0.01043	0.00055
0.5918	0.01014	0.00055
0.5928	0.01016	0.00055
0.6285	0.00973	0.000549
0.6294	0.009763	0.000549
0.6699	0.009103	0.000546
0.6709	0.009139	0.000546
0.7173	0.008213	0.000541
0.7182	0.008266	0.000542
0.7718	0.006969	0.000535
0.7726	0.007042	0.000536
0.8354	0.005238	0.000527
0.836	0.005271	0.000527
0.9103	0.002939	0.000515
0.9107	0.002937	0.000515
