Measured thermophysical data. Solvation behaviour of an antihelmintic drug in aqueous solutions of sodium chloride and glucose at different temperatures
Source: J. Chem. Thermodyn., 2016, 10.1016/j.jct.2016.05.025
Compound 1: piperazine 2-hydroxy-1,2,3-propanetricarboxylate (3:2), C24H46N6O14, InChI=1S/2C6H8O7.3C4H10N2/c2*7-3(8)1-6(13,5(11)12)2-4(9)10;3*1-2-6-4-3-5-1/h2*13H,1-2H2,(H,7,8)(H,9,10)(H,11,12);3*5-6H,1-4H2, purity 99%
Compound 2: sodium chloride, ClNa, InChI=1S/ClH.Na/h1H;/q;+1/p-1, purity 99%
Compound 3: D-glucose, C6H12O6, InChI=1S/C6H12O6/c7-1-3(9)5(11)6(12)4(10)2-8/h1,3-6,8-12H,2H2/t3-,4+,5+,6+/m0/s1, purity 99%
Compound 4: water, H2O, InChI=1S/H2O/h1H2

System: water; phases: Liquid
Fixed: Pressure, kPa = 101.3
Property: Mass density, kg/m3 (Liquid); method: Vibrating tube method
Temperature, K	Mass density, kg/m3	uncertainty
293.15	998.203	0.167
303.15	995.645	0.168
313.15	992.212	0.167

System: water; phases: Liquid
Fixed: Pressure, kPa = 101.3
Fixed: Frequency, MHz = 3
Property: Speed of sound, m/s (Liquid); method: Sing-around technique in a fixed-path interferometer
Temperature, K	Speed of sound, m/s	uncertainty
293.15	1482.34	1.41
303.15	1509.13	1.42
313.15	1529.18	1.42

System: water; phases: Liquid
Fixed: Pressure, kPa = 101.3
Property: Viscosity, Pa*s (Liquid); method: Falling or rolling sphere viscometry
Temperature, K	Viscosity, Pa*s	uncertainty
293.15	0.001005	2.2e-05
303.15	0.000801	1.7e-05
313.15	0.000656	1.4e-05

System: piperazine 2-hydroxy-1,2,3-propanetricarboxylate (3:2) + water; phases: Liquid
Fixed: Pressure, kPa = 101.3
Property: Mass density, kg/m3 (Liquid); method: Vibrating tube method
Temperature, K	Molality, mol/kg of piperazine 2-hydroxy-1,2,3-propanetricarboxylate (3:2)	Mass density, kg/m3	uncertainty
293.15	0.0177	1002.339	0.167
293.15	0.0434	1008.051	0.17
293.15	0.0506	1009.595	0.17
293.15	0.0584	1011.289	0.171
293.15	0.0659	1012.909	0.171
293.15	0.0747	1014.821	0.172
293.15	0.0829	1016.586	0.173
293.15	0.0923	1018.637	0.174
293.15	0.0996	1020.218	0.175
293.15	0.1043	1021.22	0.175
293.15	0.158	1032.445	0.18
303.15	0.0177	999.676	0.166
303.15	0.0434	1005.27	0.168
303.15	0.0506	1006.783	0.169
303.15	0.0584	1008.44	0.169
303.15	0.0659	1010.029	0.17
303.15	0.0747	1011.902	0.171
303.15	0.0829	1013.631	0.172
303.15	0.0923	1015.64	0.172
303.15	0.0996	1017.189	0.173
303.15	0.1043	1018.171	0.171
303.15	0.158	1029.185	0.178
313.15	0.0177	996.151	0.167
313.15	0.0434	1001.637	0.166
313.15	0.0506	1003.123	0.167
313.15	0.0584	1004.751	0.168
313.15	0.0659	1006.309	0.168
313.15	0.0747	1008.149	0.169
313.15	0.0829	1009.846	0.17
313.15	0.0923	1011.819	0.171
313.15	0.0996	1013.339	0.171
313.15	0.1043	1014.303	0.172
313.15	0.158	1025.143	0.176
293.15	0	998.203	0.167
303.15	0	995.645	0.168
313.15	0	992.212	0.167

System: piperazine 2-hydroxy-1,2,3-propanetricarboxylate (3:2) + water; phases: Liquid
Fixed: Pressure, kPa = 101.3
Fixed: Frequency, MHz = 3
Property: Speed of sound, m/s (Liquid); method: Sing-around technique in a fixed-path interferometer
Temperature, K	Molality, mol/kg of piperazine 2-hydroxy-1,2,3-propanetricarboxylate (3:2)	Speed of sound, m/s	uncertainty
293.15	0.0177	1487.95	1.41
293.15	0.0434	1496.07	1.41
293.15	0.0506	1498.21	1.41
293.15	0.0584	1500.56	1.41
293.15	0.0659	1502.8	1.41
293.15	0.0747	1505.45	1.41
293.15	0.0829	1507.89	1.41
293.15	0.0923	1510.73	1.41
293.15	0.0996	1512.92	1.41
293.15	0.1043	1514.31	1.41
293.15	0.158	1530.13	1.42
303.15	0.0177	1514.17	1.41
303.15	0.0434	1521.36	1.42
303.15	0.0506	1523.25	1.42
303.15	0.0584	1525.35	1.42
303.15	0.0659	1527.37	1.42
303.15	0.0747	1529.74	1.42
303.15	0.0829	1531.94	1.42
303.15	0.0923	1534.49	1.42
303.15	0.0996	1536.45	1.42
303.15	0.1043	1537.7	1.42
303.15	0.158	1551.93	1.42
313.15	0.0177	1533.56	1.42
313.15	0.0434	1539.65	1.42
313.15	0.0506	1541.35	1.42
313.15	0.0584	1543.22	1.42
313.15	0.0659	1545	1.42
313.15	0.0747	1547.11	1.42
313.15	0.0829	1549.06	1.42
313.15	0.0923	1551.32	1.42
313.15	0.0996	1553.06	1.42
313.15	0.1043	1554.17	1.42
313.15	0.158	1566.92	1.42
293.15	0	1482.34	1.41
303.15	0	1509.13	1.42
313.15	0	1529.18	1.42

System: piperazine 2-hydroxy-1,2,3-propanetricarboxylate (3:2) + water; phases: Liquid
Fixed: Pressure, kPa = 101.3
Property: Viscosity, Pa*s (Liquid); method: Falling or rolling sphere viscometry
Temperature, K	Molality, mol/kg of piperazine 2-hydroxy-1,2,3-propanetricarboxylate (3:2)	Viscosity, Pa*s	uncertainty
293.15	0.0177	0.001035	2.2e-05
293.15	0.0434	0.001073	2.3e-05
293.15	0.0506	0.001086	2.3e-05
293.15	0.0584	0.001101	2.4e-05
293.15	0.0659	0.001115	2.4e-05
293.15	0.0747	0.001132	2.4e-05
293.15	0.0829	0.001148	2.5e-05
293.15	0.0923	0.001166	2.5e-05
293.15	0.0996	0.001179	2.5e-05
293.15	0.1043	0.001188	2.6e-05
293.15	0.158	0.001303	2.8e-05
303.15	0.0177	0.000826	1.8e-05
303.15	0.0434	0.000857	1.8e-05
303.15	0.0506	0.000865	1.9e-05
303.15	0.0584	0.000877	1.9e-05
303.15	0.0659	0.000888	1.9e-05
303.15	0.0747	0.000901	1.9e-05
303.15	0.0829	0.000914	2e-05
303.15	0.0923	0.000928	2e-05
303.15	0.0996	0.000939	2e-05
303.15	0.1043	0.000945	2e-05
303.15	0.158	0.001034	2.2e-05
313.15	0.0177	0.000679	1.5e-05
313.15	0.0434	0.000708	1.5e-05
313.15	0.0506	0.000716	1.5e-05
313.15	0.0584	0.000725	1.6e-05
313.15	0.0659	0.000733	1.6e-05
313.15	0.0747	0.000743	1.6e-05
313.15	0.0829	0.000753	1.6e-05
313.15	0.0923	0.000763	1.6e-05
313.15	0.0996	0.000771	1.7e-05
313.15	0.1043	0.000775	1.7e-05
313.15	0.158	0.000834	1.8e-05
293.15	0	0.001005	2.2e-05
303.15	0	0.000801	1.7e-05
313.15	0	0.000656	1.4e-05

System: piperazine 2-hydroxy-1,2,3-propanetricarboxylate (3:2) + sodium chloride + water; phases: Liquid
Fixed: Pressure, kPa = 101.3
Property: Mass density, kg/m3 (Liquid); method: Vibrating tube method
Temperature, K	Molality, mol/kg of piperazine 2-hydroxy-1,2,3-propanetricarboxylate (3:2)	Solvent: Molality, mol/kg of sodium chloride	Mass density, kg/m3	uncertainty
293.15	0	0.06	1000.643	0.1673
293.15	0.0091	0.06	1002.802	0.1701
293.15	0.0096	0.06	1002.936	0.1702
293.15	0.0176	0.06	1004.805	0.1688
293.15	0.028	0.06	1007.208	0.1649
293.15	0.0284	0.06	1007.25	0.1649
293.15	0.0305	0.06	1007.8	0.1717
293.15	0.042	0.06	1010.359	0.1708
293.15	0.0492	0.06	1012.035	0.1715
293.15	0.056	0.06	1013.52	0.1716
293.15	0.0723	0.06	1016.993	0.1734
293.15	0.0807	0.06	1018.985	0.1743
293.15	0.0944	0.06	1021.904	0.1751
303.15	0	0.06	998.045	0.169
303.15	0.0091	0.06	1000.138	0.232
303.15	0.0096	0.06	1000.268	0.172
303.15	0.0176	0.06	1002.089	0.167
303.15	0.028	0.06	1004.314	0.249
303.15	0.0284	0.06	1004.478	0.174
303.15	0.0305	0.06	1004.969	0.164
303.15	0.042	0.06	1007.517	0.169
303.15	0.0492	0.06	1009.16	0.17
303.15	0.056	0.06	1010.614	0.17
303.15	0.0723	0.06	1014.017	0.172
303.15	0.0807	0.06	1015.974	0.173
303.15	0.0944	0.06	1018.84	0.173
313.15	0	0.06	994.583	0.167
313.15	0.0091	0.06	996.621	0.168
313.15	0.0096	0.06	996.746	0.168
313.15	0.0176	0.06	998.53	0.166
313.15	0.028	0.06	1000.785	0.166
313.15	0.0284	0.06	1000.866	0.166
313.15	0.0305	0.06	1001.343	0.167
313.15	0.042	0.06	1003.85	0.168
313.15	0.0492	0.06	1005.457	0.168
313.15	0.056	0.06	1006.891	0.168
313.15	0.0723	0.06	1010.227	0.17
313.15	0.0807	0.06	1012.154	0.171
313.15	0.0944	0.06	1014.975	0.172
293.15	0	0	998.203	0.167
293.15	0.0177	0	1002.339	0.167
293.15	0.0434	0	1008.051	0.17
293.15	0.0506	0	1009.595	0.17
293.15	0.0584	0	1011.289	0.171
293.15	0.0659	0	1012.909	0.171
293.15	0.0747	0	1014.821	0.172
293.15	0.0829	0	1016.586	0.173
293.15	0.0923	0	1018.637	0.174
293.15	0.0996	0	1020.218	0.175
293.15	0.1043	0	1021.22	0.175
293.15	0.158	0	1032.445	0.18
303.15	0	0	995.645	0.168
303.15	0.0177	0	999.676	0.166
303.15	0.0434	0	1005.27	0.168
303.15	0.0506	0	1006.783	0.169
303.15	0.0584	0	1008.44	0.169
303.15	0.0659	0	1010.029	0.17
303.15	0.0747	0	1011.902	0.171
303.15	0.0829	0	1013.631	0.172
303.15	0.0923	0	1015.64	0.172
303.15	0.0996	0	1017.189	0.173
303.15	0.1043	0	1018.171	0.171
303.15	0.158	0	1029.185	0.178
313.15	0	0	992.212	0.167
313.15	0.0177	0	996.151	0.167
313.15	0.0434	0	1001.637	0.166
313.15	0.0506	0	1003.123	0.167
313.15	0.0584	0	1004.751	0.168
313.15	0.0659	0	1006.309	0.168
313.15	0.0747	0	1008.149	0.169
313.15	0.0829	0	1009.846	0.17
313.15	0.0923	0	1011.819	0.171
313.15	0.0996	0	1013.339	0.171
313.15	0.1043	0	1014.303	0.172
313.15	0.158	0	1025.143	0.176

System: piperazine 2-hydroxy-1,2,3-propanetricarboxylate (3:2) + sodium chloride + water; phases: Liquid
Fixed: Pressure, kPa = 101.3
Fixed: Frequency, MHz = 3
Property: Speed of sound, m/s (Liquid); method: Sing-around technique in a fixed-path interferometer
Temperature, K	Molality, mol/kg of piperazine 2-hydroxy-1,2,3-propanetricarboxylate (3:2)	Solvent: Molality, mol/kg of sodium chloride	Speed of sound, m/s	uncertainty
293.15	0	0.06	1486.68	1.41
293.15	0.0091	0.06	1489.91	1.41
293.15	0.0096	0.06	1490.06	1.41
293.15	0.0176	0.06	1492.63	1.41
293.15	0.028	0.06	1495.68	1.42
293.15	0.0284	0.06	1496.06	1.42
293.15	0.0305	0.06	1496.52	1.41
293.15	0.042	0.06	1499.74	1.41
293.15	0.0492	0.06	1501.9	1.41
293.15	0.056	0.06	1504.09	1.41
293.15	0.0723	0.06	1508.44	1.41
293.15	0.0807	0.06	1510.74	1.41
293.15	0.0944	0.06	1515.2	1.42
303.15	0	0.06	1512.94	1.42
303.15	0.0091	0.06	1515.38	1.63
303.15	0.0096	0.06	1515.47	1.58
303.15	0.0176	0.06	1517.95	1.42
303.15	0.028	0.06	1521.07	1.82
303.15	0.0284	0.06	1521.15	1.72
303.15	0.0305	0.06	1521.78	1.42
303.15	0.042	0.06	1524.75	1.42
303.15	0.0492	0.06	1526.69	1.42
303.15	0.056	0.06	1528.72	1.42
303.15	0.0723	0.06	1532.62	1.42
303.15	0.0807	0.06	1534.87	1.42
303.15	0.0944	0.06	1538.8	1.42
313.15	0	0.06	1532.26	1.42
313.15	0.0091	0.06	1535.16	1.42
313.15	0.0096	0.06	1535.3	1.42
313.15	0.0176	0.06	1537.35	1.42
313.15	0.028	0.06	1539.95	1.43
313.15	0.0284	0.06	1540.24	1.43
313.15	0.0305	0.06	1540.55	1.42
313.15	0.042	0.06	1543.15	1.42
313.15	0.0492	0.06	1544.74	1.42
313.15	0.056	0.06	1546.19	1.42
313.15	0.0723	0.06	1549.85	1.42
313.15	0.0807	0.06	1551.84	1.42
313.15	0.0944	0.06	1555.51	1.42
293.15	0	0	1482.34	1.41
293.15	0.0177	0	1487.95	1.41
293.15	0.0434	0	1496.07	1.41
293.15	0.0506	0	1498.21	1.41
293.15	0.0584	0	1500.56	1.41
293.15	0.0659	0	1502.8	1.41
293.15	0.0747	0	1505.45	1.41
293.15	0.0829	0	1507.89	1.41
293.15	0.0923	0	1510.73	1.41
293.15	0.0996	0	1512.92	1.41
293.15	0.1043	0	1514.31	1.41
293.15	0.158	0	1530.13	1.42
303.15	0	0	1509.13	1.42
303.15	0.0177	0	1514.17	1.41
303.15	0.0434	0	1521.36	1.42
303.15	0.0506	0	1523.25	1.42
303.15	0.0584	0	1525.35	1.42
303.15	0.0659	0	1527.37	1.42
303.15	0.0747	0	1529.74	1.42
303.15	0.0829	0	1531.94	1.42
303.15	0.0923	0	1534.49	1.42
303.15	0.0996	0	1536.45	1.42
303.15	0.1043	0	1537.7	1.42
303.15	0.158	0	1551.93	1.42
313.15	0	0	1529.18	1.42
313.15	0.0177	0	1533.56	1.42
313.15	0.0434	0	1539.65	1.42
313.15	0.0506	0	1541.35	1.42
313.15	0.0584	0	1543.22	1.42
313.15	0.0659	0	1545	1.42
313.15	0.0747	0	1547.11	1.42
313.15	0.0829	0	1549.06	1.42
313.15	0.0923	0	1551.32	1.42
313.15	0.0996	0	1553.06	1.42
313.15	0.1043	0	1554.17	1.42
313.15	0.158	0	1566.92	1.42

System: piperazine 2-hydroxy-1,2,3-propanetricarboxylate (3:2) + sodium chloride + water; phases: Liquid
Fixed: Pressure, kPa = 101.3
Property: Viscosity, Pa*s (Liquid); method: Falling or rolling sphere viscometry
Temperature, K	Molality, mol/kg of piperazine 2-hydroxy-1,2,3-propanetricarboxylate (3:2)	Solvent: Molality, mol/kg of sodium chloride	Viscosity, Pa*s	uncertainty
293.15	0	0.06	0.001008	2.2e-05
293.15	0.0091	0.06	0.001022	2.2e-05
293.15	0.0096	0.06	0.001024	2.2e-05
293.15	0.0176	0.06	0.001034	2.2e-05
293.15	0.028	0.06	0.001047	2.3e-05
293.15	0.0284	0.06	0.00105	2.3e-05
293.15	0.0305	0.06	0.001053	2.3e-05
293.15	0.042	0.06	0.00107	2.3e-05
293.15	0.0492	0.06	0.001086	2.3e-05
293.15	0.056	0.06	0.001098	2.4e-05
293.15	0.0723	0.06	0.001123	2.4e-05
293.15	0.0807	0.06	0.001142	2.5e-05
293.15	0.0944	0.06	0.001182	2.5e-05
303.15	0	0.06	0.000807	1.7e-05
303.15	0.0091	0.06	0.000817	1.9e-05
303.15	0.0096	0.06	0.000819	2e-05
303.15	0.0176	0.06	0.000826	1.8e-05
303.15	0.028	0.06	0.000835	2e-05
303.15	0.0284	0.06	0.000839	2.2e-05
303.15	0.0305	0.06	0.000842	1.8e-05
303.15	0.042	0.06	0.000858	1.9e-05
303.15	0.0492	0.06	0.000866	1.9e-05
303.15	0.056	0.06	0.000875	1.9e-05
303.15	0.0723	0.06	0.000896	1.9e-05
303.15	0.0807	0.06	0.00091	2e-05
303.15	0.0944	0.06	0.000942	2e-05
313.15	0	0.06	0.000668	1.4e-05
313.15	0.0091	0.06	0.000677	1.5e-05
313.15	0.0096	0.06	0.000679	1.5e-05
313.15	0.0176	0.06	0.000682	1.5e-05
313.15	0.028	0.06	0.000692	1.5e-05
313.15	0.0284	0.06	0.000695	1.5e-05
313.15	0.0305	0.06	0.000699	1.5e-05
313.15	0.042	0.06	0.00071	1.5e-05
313.15	0.0492	0.06	0.000715	1.5e-05
313.15	0.056	0.06	0.000721	1.6e-05
313.15	0.0723	0.06	0.000737	1.6e-05
313.15	0.0807	0.06	0.000748	1.6e-05
313.15	0.0944	0.06	0.000769	1.7e-05
293.15	0	0	0.001005	2.2e-05
293.15	0.0177	0	0.001035	2.2e-05
293.15	0.0434	0	0.001073	2.3e-05
293.15	0.0506	0	0.001086	2.3e-05
293.15	0.0584	0	0.001101	2.4e-05
293.15	0.0659	0	0.001115	2.4e-05
293.15	0.0747	0	0.001132	2.4e-05
293.15	0.0829	0	0.001148	2.5e-05
293.15	0.0923	0	0.001166	2.5e-05
293.15	0.0996	0	0.001179	2.5e-05
293.15	0.1043	0	0.001188	2.6e-05
293.15	0.158	0	0.001303	2.8e-05
303.15	0	0	0.000801	1.7e-05
303.15	0.0177	0	0.000826	1.8e-05
303.15	0.0434	0	0.000857	1.8e-05
303.15	0.0506	0	0.000865	1.9e-05
303.15	0.0584	0	0.000877	1.9e-05
303.15	0.0659	0	0.000888	1.9e-05
303.15	0.0747	0	0.000901	1.9e-05
303.15	0.0829	0	0.000914	2e-05
303.15	0.0923	0	0.000928	2e-05
303.15	0.0996	0	0.000939	2e-05
303.15	0.1043	0	0.000945	2e-05
303.15	0.158	0	0.001034	2.2e-05
313.15	0	0	0.000656	1.4e-05
313.15	0.0177	0	0.000679	1.5e-05
313.15	0.0434	0	0.000708	1.5e-05
313.15	0.0506	0	0.000716	1.5e-05
313.15	0.0584	0	0.000725	1.6e-05
313.15	0.0659	0	0.000733	1.6e-05
313.15	0.0747	0	0.000743	1.6e-05
313.15	0.0829	0	0.000753	1.6e-05
313.15	0.0923	0	0.000763	1.6e-05
313.15	0.0996	0	0.000771	1.7e-05
313.15	0.1043	0	0.000775	1.7e-05
313.15	0.158	0	0.000834	1.8e-05

System: D-glucose + piperazine 2-hydroxy-1,2,3-propanetricarboxylate (3:2) + water; phases: Liquid
Fixed: Pressure, kPa = 101.3
Property: Mass density, kg/m3 (Liquid); method: Vibrating tube method
Temperature, K	Molality, mol/kg of piperazine 2-hydroxy-1,2,3-propanetricarboxylate (3:2)	Solvent: Molality, mol/kg of D-glucose	Mass density, kg/m3	uncertainty
293.15	0	0.06	1002.245	0.168
293.15	0.022	0.06	1007.342	0.17
293.15	0.0429	0.06	1012.175	0.173
293.15	0.0461	0.06	1012.941	0.172
293.15	0.0585	0.06	1015.627	0.173
293.15	0.0697	0.06	1018.083	0.173
293.15	0.0811	0.06	1020.288	0.175
293.15	0.0877	0.06	1022.042	0.176
293.15	0.1075	0.06	1026.234	0.177
293.15	0.1186	0.06	1028.646	0.179
303.15	0	0.06	999.542	0.168
303.15	0.022	0.06	1004.591	0.169
303.15	0.0429	0.06	1009.334	0.176
303.15	0.0461	0.06	1010.032	0.171
303.15	0.0585	0.06	1012.688	0.172
303.15	0.0697	0.06	1015.117	0.172
303.15	0.0811	0.06	1017.295	0.173
303.15	0.0877	0.06	1019.007	0.175
303.15	0.1075	0.06	1023.125	0.176
303.15	0.1186	0.06	1025.469	0.176
313.15	0	0.06	996.126	0.167
313.15	0.022	0.06	1000.997	0.167
313.15	0.0429	0.06	1005.654	0.167
313.15	0.0461	0.06	1006.254	0.169
313.15	0.0585	0.06	1008.95	0.17
313.15	0.0697	0.06	1011.335	0.17
313.15	0.0811	0.06	1013.526	0.172
313.15	0.0877	0.06	1015.169	0.173
313.15	0.1075	0.06	1019.219	0.174
313.15	0.1186	0.06	1021.542	0.175
293.15	0	0	998.203	0.167
293.15	0.0177	0	1002.339	0.168
293.15	0.0434	0	1008.051	0.17
293.15	0.0506	0	1009.595	0.17
293.15	0.0584	0	1011.289	0.171
293.15	0.0659	0	1012.909	0.172
293.15	0.0747	0	1014.821	0.173
293.15	0.0829	0	1016.586	0.173
293.15	0.0923	0	1018.637	0.174
293.15	0.0996	0	1020.218	0.175
293.15	0.1043	0	1021.22	0.175
293.15	0.158	0	1032.445	0.18
303.15	0	0	995.645	0.168
303.15	0.0177	0	999.676	0.167
303.15	0.0434	0	1005.27	0.168
303.15	0.0506	0	1006.783	0.169
303.15	0.0584	0	1008.44	0.17
303.15	0.0659	0	1010.029	0.171
303.15	0.0747	0	1011.902	0.171
303.15	0.0829	0	1013.631	0.172
303.15	0.0923	0	1015.64	0.173
303.15	0.0996	0	1017.189	0.173
303.15	0.1043	0	1018.171	0.171
303.15	0.158	0	1029.185	0.178
313.15	0	0	992.212	0.168
313.15	0.0177	0	996.151	0.167
313.15	0.0434	0	1001.637	0.167
313.15	0.0506	0	1003.123	0.167
313.15	0.0584	0	1004.751	0.168
313.15	0.0659	0	1006.309	0.169
313.15	0.0747	0	1008.149	0.169
313.15	0.0829	0	1009.846	0.17
313.15	0.0923	0	1011.819	0.171
313.15	0.0996	0	1013.339	0.172
313.15	0.1043	0	1014.303	0.172
313.15	0.158	0	1025.143	0.176

System: D-glucose + piperazine 2-hydroxy-1,2,3-propanetricarboxylate (3:2) + water; phases: Liquid
Fixed: Pressure, kPa = 101.3
Fixed: Frequency, MHz = 3
Property: Speed of sound, m/s (Liquid); method: Sing-around technique in a fixed-path interferometer
Temperature, K	Molality, mol/kg of piperazine 2-hydroxy-1,2,3-propanetricarboxylate (3:2)	Solvent: Molality, mol/kg of D-glucose	Speed of sound, m/s	uncertainty
293.15	0	0.06	1486.72	1.41
293.15	0.022	0.06	1494.12	1.41
293.15	0.0429	0.06	1500.19	1.41
293.15	0.0461	0.06	1501.11	1.41
293.15	0.0585	0.06	1504.78	1.41
293.15	0.0697	0.06	1508.31	1.41
293.15	0.0811	0.06	1511.95	1.41
293.15	0.0877	0.06	1513.62	1.41
293.15	0.1075	0.06	1518.98	1.42
293.15	0.1186	0.06	1521.89	1.42
303.15	0	0.06	1512.8	1.42
303.15	0.022	0.06	1519.35	1.42
303.15	0.0429	0.06	1525.18	1.43
303.15	0.0461	0.06	1525.94	1.42
303.15	0.0585	0.06	1529.25	1.42
303.15	0.0697	0.06	1532.54	1.42
303.15	0.0811	0.06	1535.15	1.42
303.15	0.0877	0.06	1536.71	1.42
303.15	0.1075	0.06	1541.66	1.42
303.15	0.1186	0.06	1544.6	1.42
313.15	0	0.06	1532.07	1.42
313.15	0.022	0.06	1537.65	1.42
313.15	0.0429	0.06	1543.12	1.42
313.15	0.0461	0.06	1543.81	1.42
313.15	0.0585	0.06	1546.78	1.42
313.15	0.0697	0.06	1549.79	1.42
313.15	0.0811	0.06	1551.99	1.42
313.15	0.0877	0.06	1553.19	1.42
313.15	0.1075	0.06	1557.9	1.42
313.15	0.1186	0.06	1560.78	1.42
293.15	0	0	1482.34	1.41
293.15	0.0177	0	1487.95	1.41
293.15	0.0434	0	1496.07	1.41
293.15	0.0506	0	1498.21	1.41
293.15	0.0584	0	1500.56	1.41
293.15	0.0659	0	1502.8	1.41
293.15	0.0747	0	1505.45	1.41
293.15	0.0829	0	1507.89	1.41
293.15	0.0923	0	1510.73	1.41
293.15	0.0996	0	1512.92	1.41
293.15	0.1043	0	1514.31	1.41
293.15	0.158	0	1530.13	1.42
303.15	0	0	1509.13	1.42
303.15	0.0177	0	1514.17	1.41
303.15	0.0434	0	1521.36	1.42
303.15	0.0506	0	1523.25	1.42
303.15	0.0584	0	1525.35	1.42
303.15	0.0659	0	1527.37	1.42
303.15	0.0747	0	1529.74	1.42
303.15	0.0829	0	1531.94	1.42
303.15	0.0923	0	1534.49	1.42
303.15	0.0996	0	1536.45	1.42
303.15	0.1043	0	1537.7	1.42
303.15	0.158	0	1551.93	1.42
313.15	0	0	1529.18	1.42
313.15	0.0177	0	1533.56	1.42
313.15	0.0434	0	1539.65	1.42
313.15	0.0506	0	1541.35	1.42
313.15	0.0584	0	1543.22	1.42
313.15	0.0659	0	1545	1.42
313.15	0.0747	0	1547.11	1.42
313.15	0.0829	0	1549.06	1.42
313.15	0.0923	0	1551.32	1.42
313.15	0.0996	0	1553.06	1.42
313.15	0.1043	0	1554.17	1.42
313.15	0.158	0	1566.92	1.42

System: D-glucose + piperazine 2-hydroxy-1,2,3-propanetricarboxylate (3:2) + water; phases: Liquid
Fixed: Pressure, kPa = 101.3
Property: Viscosity, Pa*s (Liquid); method: Falling or rolling sphere viscometry
Temperature, K	Molality, mol/kg of piperazine 2-hydroxy-1,2,3-propanetricarboxylate (3:2)	Solvent: Molality, mol/kg of D-glucose	Viscosity, Pa*s	uncertainty
293.15	0	0.06	0.001021	2.2e-05
293.15	0.022	0.06	0.00107	2.3e-05
293.15	0.0429	0.06	0.0011	2.4e-05
293.15	0.0461	0.06	0.001107	2.4e-05
293.15	0.0585	0.06	0.001128	2.4e-05
293.15	0.0697	0.06	0.00115	2.5e-05
293.15	0.0811	0.06	0.001166	2.5e-05
293.15	0.0877	0.06	0.001194	2.6e-05
293.15	0.1075	0.06	0.001229	2.7e-05
293.15	0.1186	0.06	0.001252	2.7e-05
303.15	0	0.06	0.000814	1.8e-05
303.15	0.022	0.06	0.000849	1.8e-05
303.15	0.0429	0.06	0.000876	1.9e-05
303.15	0.0461	0.06	0.000881	1.9e-05
303.15	0.0585	0.06	0.000897	1.9e-05
303.15	0.0697	0.06	0.000915	2e-05
303.15	0.0811	0.06	0.000927	2e-05
303.15	0.0877	0.06	0.000947	2e-05
303.15	0.1075	0.06	0.000975	2.1e-05
303.15	0.1186	0.06	0.000994	2.1e-05
313.15	0	0.06	0.000671	1.4e-05
313.15	0.022	0.06	0.000698	1.5e-05
313.15	0.0429	0.06	0.00072	1.6e-05
313.15	0.0461	0.06	0.000724	1.6e-05
313.15	0.0585	0.06	0.000737	1.6e-05
313.15	0.0697	0.06	0.000752	1.6e-05
313.15	0.0811	0.06	0.000758	1.6e-05
313.15	0.0877	0.06	0.000776	1.7e-05
313.15	0.1075	0.06	0.000798	1.7e-05
313.15	0.1186	0.06	0.000816	1.8e-05
293.15	0	0	0.001005	2.2e-05
293.15	0.0177	0	0.001035	2.2e-05
293.15	0.0434	0	0.001073	2.3e-05
293.15	0.0506	0	0.001086	2.3e-05
293.15	0.0584	0	0.001101	2.4e-05
293.15	0.0659	0	0.001115	2.4e-05
293.15	0.0747	0	0.001132	2.4e-05
293.15	0.0829	0	0.001148	2.5e-05
293.15	0.0923	0	0.001166	2.5e-05
293.15	0.0996	0	0.001179	2.5e-05
293.15	0.1043	0	0.001188	2.6e-05
293.15	0.158	0	0.001303	2.8e-05
303.15	0	0	0.000801	1.7e-05
303.15	0.0177	0	0.000826	1.8e-05
303.15	0.0434	0	0.000857	1.8e-05
303.15	0.0506	0	0.000865	1.9e-05
303.15	0.0584	0	0.000877	1.9e-05
303.15	0.0659	0	0.000888	1.9e-05
303.15	0.0747	0	0.000901	1.9e-05
303.15	0.0829	0	0.000914	2e-05
303.15	0.0923	0	0.000928	2e-05
303.15	0.0996	0	0.000939	2e-05
303.15	0.1043	0	0.000945	2e-05
303.15	0.158	0	0.001034	2.2e-05
313.15	0	0	0.000656	1.4e-05
313.15	0.0177	0	0.000679	1.5e-05
313.15	0.0434	0	0.000708	1.5e-05
313.15	0.0506	0	0.000716	1.5e-05
313.15	0.0584	0	0.000725	1.6e-05
313.15	0.0659	0	0.000733	1.6e-05
313.15	0.0747	0	0.000743	1.6e-05
313.15	0.0829	0	0.000753	1.6e-05
313.15	0.0923	0	0.000763	1.6e-05
313.15	0.0996	0	0.000771	1.7e-05
313.15	0.1043	0	0.000775	1.7e-05
313.15	0.158	0	0.000834	1.8e-05

System: sodium chloride + water; phases: Liquid
Fixed: Pressure, kPa = 101.3
Property: Mass density, kg/m3 (Liquid); method: Vibrating tube method
Temperature, K	Molality, mol/kg of sodium chloride	Mass density, kg/m3	uncertainty
293.15	0.06	1000.643	0.1673
303.15	0.06	998.045	0.169
313.15	0.06	994.583	0.167
293.15	0	998.203	0.167
303.15	0	995.645	0.168
313.15	0	992.212	0.167

System: sodium chloride + water; phases: Liquid
Fixed: Pressure, kPa = 101.3
Fixed: Frequency, MHz = 3
Property: Speed of sound, m/s (Liquid); method: Sing-around technique in a fixed-path interferometer
Temperature, K	Molality, mol/kg of sodium chloride	Speed of sound, m/s	uncertainty
293.15	0.06	1486.68	1.41
303.15	0.06	1512.94	1.42
313.15	0.06	1532.26	1.42
293.15	0	1482.34	1.41
303.15	0	1509.13	1.42
313.15	0	1529.18	1.42

System: sodium chloride + water; phases: Liquid
Fixed: Pressure, kPa = 101.3
Property: Viscosity, Pa*s (Liquid); method: Falling or rolling sphere viscometry
Temperature, K	Molality, mol/kg of sodium chloride	Viscosity, Pa*s	uncertainty
293.15	0.06	0.001008	2.2e-05
303.15	0.06	0.000807	1.7e-05
313.15	0.06	0.000668	1.4e-05
293.15	0	0.001005	2.2e-05
303.15	0	0.000801	1.7e-05
313.15	0	0.000656	1.4e-05

System: D-glucose + water; phases: Liquid
Fixed: Pressure, kPa = 101.3
Property: Mass density, kg/m3 (Liquid); method: Vibrating tube method
Temperature, K	Molality, mol/kg of D-glucose	Mass density, kg/m3	uncertainty
293.15	0.06	1002.245	0.168
303.15	0.06	999.542	0.168
313.15	0.06	996.126	0.167
293.15	0	998.203	0.167
303.15	0	995.645	0.168
313.15	0	992.212	0.167

System: D-glucose + water; phases: Liquid
Fixed: Pressure, kPa = 101.3
Fixed: Frequency, MHz = 3
Property: Speed of sound, m/s (Liquid); method: Sing-around technique in a fixed-path interferometer
Temperature, K	Molality, mol/kg of D-glucose	Speed of sound, m/s	uncertainty
293.15	0.06	1486.72	1.41
303.15	0.06	1512.8	1.42
313.15	0.06	1532.07	1.42
293.15	0	1482.34	1.41
303.15	0	1509.13	1.42
313.15	0	1529.18	1.42

System: D-glucose + water; phases: Liquid
Fixed: Pressure, kPa = 101.3
Property: Viscosity, Pa*s (Liquid); method: Falling or rolling sphere viscometry
Temperature, K	Molality, mol/kg of D-glucose	Viscosity, Pa*s	uncertainty
293.15	0.06	0.001021	2.2e-05
303.15	0.06	0.000814	1.8e-05
313.15	0.06	0.000671	1.4e-05
293.15	0	0.001005	2.2e-05
303.15	0	0.000801	1.7e-05
313.15	0	0.000656	1.4e-05
