Measured thermophysical data. Standard state thermodynamic properties of aqueous sodium perrhenate using high dilution calorimetry up to 598.15 K
Source: J. Chem. Thermodyn., 2009, 10.1016/j.jct.2009.04.004
Compound 1: water, H2O, InChI=1S/H2O/h1H2
Compound 2: sodium perrhenate, NaO4Re, InChI=1S/Na.4O.Re/q+1;;;;-1;

System: sodium perrhenate; phases: Crystal
Fixed: Pressure, kPa = 101.325
Property: Molar heat capacity at constant pressure, J/K/mol (Crystal); method: Small sample (50 mg) DSC
Temperature, K	Molar heat capacity at constant pressure, J/K/mol	uncertainty
298.15	118.8	2.4
323.15	122.2	2.4
348.15	125.5	2.5
373.15	128.9	2.6
398.15	131.8	2.6
423.15	135.1	2.7
448.15	137.2	2.7
473.15	139.7	2.8
498.15	142.3	2.8
523.15	144.8	2.9
548.15	146.9	2.9
573.15	148.1	3
598.15	149.4	3

System: water + sodium perrhenate; phases: Liquid, Gas
Fixed: Mole fraction of sodium perrhenate = 0
Property: Molar enthalpy of solution, kJ/mol (Liquid); method: POWC:UFactor:4
Temperature, K	Molar enthalpy of solution, kJ/mol	uncertainty
437.37	14.137	0.438
497.07	-3.547	0.11
537.96	-28.157	0.872
567.15	-58.983	1.828
596.3	-129.005	3.997

System: water + sodium perrhenate; phases: Liquid, Gas
Property: Molar enthalpy of solution, kJ/mol (Liquid); method: POWC:UFactor:4
Temperature, K	Molality, mol/kg of sodium perrhenate	Molar enthalpy of solution, kJ/mol	uncertainty
437.37	0.00065292	16.953	0.525
437.37	0.0010551	16.039	0.497
437.37	0.0014032	15.514	0.481
437.37	0.0026116	14.31	0.443
437.37	0.003984	17.902	0.555
437.37	0.0041353	17.886	0.554
497.07	0.0008515	-1.481	0.046
497.07	0.0011932	-2.862	0.089
497.07	0.0029084	-1.681	0.052
497.07	0.0036573	-2.036	0.063
497.07	0.0039737	-1.242	0.039
497.07	0.0040416	0.293	0.009
497.07	0.0042259	1.691	0.052
497.07	0.0044658	-2.038	0.063
497.07	0.0059443	0.156	0.005
537.96	0.0010293	-22.922	0.71
537.96	0.0010154	-24.734	0.766
537.96	0.0018321	-24.175	0.749
537.96	0.0026611	-24.339	0.754
537.96	0.0029317	-23.989	0.743
537.96	0.0031681	-24.007	0.744
537.96	0.0032711	-24.263	0.752
537.96	0.0043942	-24.471	0.758
537.96	0.0050713	-22.553	0.699
537.96	0.0076065	-22.625	0.701
567.15	0.0012033	-49.619	1.537
567.15	0.002366	-43.923	1.361
567.15	0.0030287	-46.716	1.448
567.15	0.0031814	-49.545	1.535
567.15	0.0034295	-49.051	1.52
567.15	0.0038224	-48.708	1.509
567.15	0.0042223	-49.618	1.537
567.15	0.0043195	-46.581	1.443
567.15	0.0044006	-50.489	1.564
596.3	0.00032175	-105.082	3.256
596.3	0.00046092	-105.4	3.266
596.3	0.00129074	-104.762	3.246
596.3	0.00143247	-104.13	3.226
596.3	0.00203088	-101.88	3.157
