Measured thermophysical data. Solubility of inorganic salts in pure ionic liquids
Source: J. Chem. Thermodyn., 2012, 10.1016/j.jct.2012.06.007
Compound 1: 1-ethyl-3-methylimidazolium acetate, C8H14N2O2, InChI=1S/C6H11N2.C2H4O2/c1-3-8-5-4-7(2)6-8;1-2(3)4/h4-6H,3H2,1-2H3;1H3,(H,3,4)/q+1;/p-1, purity 95%
Compound 2: 1-ethyl-3-methylimidazolium thiocyanate, C7H11N3S, InChI=1S/C6H11N2.CHNS/c1-3-8-5-4-7(2)6-8;2-1-3/h4-6H,3H2,1-2H3;3H/q+1;/p-1, purity 98%
Compound 3: 1-ethyl-3-methylimidazolium ethyl sulfate, C8H16N2O4S, InChI=1S/C6H11N2.C2H6O4S/c1-3-8-5-4-7(2)6-8;1-2-6-7(3,4)5/h4-6H,3H2,1-2H3;2H2,1H3,(H,3,4,5)/q+1;/p-1, purity 98%
Compound 4: 3-ethyl-1-methyl-1H-imidazolium ethanesulfonate, C8H16N2O3S, InChI=1S/C6H11N2.C2H6O3S/c1-3-8-5-4-7(2)6-8;1-2-6(3,4)5/h4-6H,3H2,1-2H3;2H2,1H3,(H,3,4,5)/q+1;/p-1, purity 99%
Compound 5: 1-ethyl-3-methylimidazolium bis((trifluoromethyl)sulfonyl)imide, C8H11F6N3O4S2, InChI=1S/C6H11N2.C2F6NO4S2/c1-3-8-5-4-7(2)6-8;3-1(4,5)14(10,11)9-15(12,13)2(6,7)8/h4-6H,3H2,1-2H3;/q+1;-1, purity 99%
Compound 6: sodium thiocyanate, CNNaS, InChI=1S/CHNS.Na/c2-1-3;/h3H;/q;+1/p-1, purity 98%
Compound 7: ammonium chloride (NH4Cl), ClH4N, InChI=1S/ClH.H3N/h1H;1H3, purity 99.5%
Compound 8: ammonium isothiocyanate, CH4N2S, InChI=1S/CHNS.H3N/c2-1-3;/h3H;1H3, purity 97.5%
Compound 9: cesium bis((trifluoromethyl)sulfonyl)amide, C2CsF6NO4S2, InChI=1S/C2F6NO4S2.Cs/c3-1(4,5)14(10,11)9-15(12,13)2(6,7)8;/q-1;+1, purity 98%
Compound 10: lithium bis((trifluoromethyl)sulfonyl)amide, C2F6LiNO4S2, InChI=1S/C2F6NO4S2.Li/c3-1(4,5)14(10,11)9-15(12,13)2(6,7)8;/q-1;+1, purity 99%
Compound 11: choline bis(trifluoromethylsulfonyl)imide, C7H14F6N2O5S2, InChI=1S/C5H14NO.C2F6NO4S2/c1-6(2,3)4-5-7;3-1(4,5)14(10,11)9-15(12,13)2(6,7)8/h7H,4-5H2,1-3H3;/q+1;-1, purity 98%

System: ammonium isothiocyanate + 1-ethyl-3-methylimidazolium ethyl sulfate; phases: Liquid, Crystal
Property: Mass fraction of ammonium isothiocyanate (Liquid); method: Visual Detection Method
Temperature, K	Pressure, kPa	Mass fraction of ammonium isothiocyanate	uncertainty
298.15	101	0.3722	0.0014

System: ammonium isothiocyanate + 3-ethyl-1-methyl-1H-imidazolium ethanesulfonate; phases: Liquid, Crystal
Property: Mass fraction of ammonium isothiocyanate (Liquid); method: Visual Detection Method
Temperature, K	Pressure, kPa	Mass fraction of ammonium isothiocyanate	uncertainty
298.15	101	0.196	0.0007

System: ammonium isothiocyanate + 1-ethyl-3-methylimidazolium acetate; phases: Liquid, Crystal
Property: Mass fraction of ammonium isothiocyanate (Liquid); method: Visual Detection Method
Temperature, K	Pressure, kPa	Mass fraction of ammonium isothiocyanate	uncertainty
298.15	101	0.2322	0.0008

System: sodium thiocyanate + 1-ethyl-3-methylimidazolium ethyl sulfate; phases: Liquid, Crystal
Property: Mass fraction of sodium thiocyanate (Liquid); method: Visual Detection Method
Temperature, K	Pressure, kPa	Mass fraction of sodium thiocyanate	uncertainty
298.15	101	0.0964	0.0005

System: sodium thiocyanate + 1-ethyl-3-methylimidazolium thiocyanate; phases: Liquid, Crystal
Property: Mass fraction of sodium thiocyanate (Liquid); method: Visual Detection Method
Temperature, K	Pressure, kPa	Mass fraction of sodium thiocyanate	uncertainty
298.15	101	0.1353	0.0005

System: ammonium chloride (NH4Cl) + 3-ethyl-1-methyl-1H-imidazolium ethanesulfonate; phases: Liquid, Crystal
Property: Mass fraction of ammonium chloride (NH4Cl) (Liquid); method: Visual Detection Method
Temperature, K	Pressure, kPa	Mass fraction of ammonium chloride (NH4Cl)	uncertainty
298.15	101	0.076	0.0004

System: ammonium chloride (NH4Cl) + 1-ethyl-3-methylimidazolium acetate; phases: Liquid, Crystal
Property: Mass fraction of ammonium chloride (NH4Cl) (Liquid); method: Visual Detection Method
Temperature, K	Pressure, kPa	Mass fraction of ammonium chloride (NH4Cl)	uncertainty
298.15	101	0.159	0.0006

System: lithium bis((trifluoromethyl)sulfonyl)amide + 1-ethyl-3-methylimidazolium bis((trifluoromethyl)sulfonyl)imide; phases: Liquid, Crystal
Property: Mass fraction of lithium bis((trifluoromethyl)sulfonyl)amide (Liquid); method: Visual Detection Method
Temperature, K	Pressure, kPa	Mass fraction of lithium bis((trifluoromethyl)sulfonyl)amide	uncertainty
298.15	101	0.3592	0.0013

System: lithium bis((trifluoromethyl)sulfonyl)amide + choline bis(trifluoromethylsulfonyl)imide; phases: Liquid, Crystal
Property: Mass fraction of lithium bis((trifluoromethyl)sulfonyl)amide (Liquid); method: Visual Detection Method
Temperature, K	Pressure, kPa	Mass fraction of lithium bis((trifluoromethyl)sulfonyl)amide	uncertainty
298.15	101	0.4787	0.0021

System: cesium bis((trifluoromethyl)sulfonyl)amide + 1-ethyl-3-methylimidazolium bis((trifluoromethyl)sulfonyl)imide; phases: Liquid, Crystal
Property: Mass fraction of cesium bis((trifluoromethyl)sulfonyl)amide (Liquid); method: Visual Detection Method
Temperature, K	Pressure, kPa	Mass fraction of cesium bis((trifluoromethyl)sulfonyl)amide	uncertainty
298.15	101	0.3114	0.0011

System: cesium bis((trifluoromethyl)sulfonyl)amide + choline bis(trifluoromethylsulfonyl)imide; phases: Liquid, Crystal
Property: Mass fraction of cesium bis((trifluoromethyl)sulfonyl)amide (Liquid); method: Visual Detection Method
Temperature, K	Pressure, kPa	Mass fraction of cesium bis((trifluoromethyl)sulfonyl)amide	uncertainty
298.15	101	0.3302	0.0011
