Measured thermophysical data. Activity coefficients at infinite dilution of organic solutes in methylphosphonate based ionic liquids using gas-liquid chromatography
Source: J. Chem. Thermodyn., 2015, 10.1016/j.jct.2015.02.023
Compound 1: 1,3-dimethylimidazolium methyl phosphonate, C6H13N2O3P, InChI=1S/C5H9N2.CH5O3P/c1-6-3-4-7(2)5-6;1-4-5(2)3/h3-5H,1-2H3;5H,1H3,(H,2,3)/q+1;/p-1, purity 98%
Compound 2: 1-ethyl-3-methylimidazolium methyl phosphonate, C7H15N2O3P, InChI=1S/C6H11N2.CH5O3P/c1-3-8-5-4-7(2)6-8;1-4-5(2)3/h4-6H,3H2,1-2H3;5H,1H3,(H,2,3)/q+1;/p-1, purity 98%
Compound 3: octane, C8H18, InChI=1S/C8H18/c1-3-5-7-8-6-4-2/h3-8H2,1-2H3, purity 99.5%
Compound 4: nonane, C9H20, InChI=1S/C9H20/c1-3-5-7-9-8-6-4-2/h3-9H2,1-2H3, purity 99.5%
Compound 5: decane, C10H22, InChI=1S/C10H22/c1-3-5-7-9-10-8-6-4-2/h3-10H2,1-2H3, purity 99.5%
Compound 6: undecane, C11H24, InChI=1S/C11H24/c1-3-5-7-9-11-10-8-6-4-2/h3-11H2,1-2H3, purity 99.5%
Compound 7: dodecane, C12H26, InChI=1S/C12H26/c1-3-5-7-9-11-12-10-8-6-4-2/h3-12H2,1-2H3, purity 99.5%
Compound 8: tridecane, C13H28, InChI=1S/C13H28/c1-3-5-7-9-11-13-12-10-8-6-4-2/h3-13H2,1-2H3, purity 99.5%
Compound 9: tetradecane, C14H30, InChI=1S/C14H30/c1-3-5-7-9-11-13-14-12-10-8-6-4-2/h3-14H2,1-2H3, purity 99.5%
Compound 10: methylcyclopentane, C6H12, InChI=1S/C6H12/c1-6-4-2-3-5-6/h6H,2-5H2,1H3, purity 99.5%
Compound 11: cyclohexane, C6H12, InChI=1S/C6H12/c1-2-4-6-5-3-1/h1-6H2, purity 99.5%
Compound 12: methylcyclohexane, C7H14, InChI=1S/C7H14/c1-7-5-3-2-4-6-7/h7H,2-6H2,1H3, purity 99.5%
Compound 13: cycloheptane, C7H14, InChI=1S/C7H14/c1-2-4-6-7-5-3-1/h1-7H2, purity 99.5%
Compound 14: benzene, C6H6, InChI=1S/C6H6/c1-2-4-6-5-3-1/h1-6H, purity 99.5%
Compound 15: toluene, C7H8, InChI=1S/C7H8/c1-7-5-3-2-4-6-7/h2-6H,1H3, purity 99.5%
Compound 16: ethylbenzene, C8H10, InChI=1S/C8H10/c1-2-8-6-4-3-5-7-8/h3-7H,2H2,1H3, purity 99.5%
Compound 17: 1,3-dimethylbenzene, C8H10, InChI=1S/C8H10/c1-7-4-3-5-8(2)6-7/h3-6H,1-2H3, purity 99.5%
Compound 18: 1,4-dimethylbenzene, C8H10, InChI=1S/C8H10/c1-7-3-5-8(2)6-4-7/h3-6H,1-2H3, purity 99.5%
Compound 19: 1,2-dimethylbenzene, C8H10, InChI=1S/C8H10/c1-7-5-3-4-6-8(7)2/h3-6H,1-2H3, purity 99.5%
Compound 20: 1-hexyne, C6H10, InChI=1S/C6H10/c1-3-5-6-4-2/h1H,4-6H2,2H3, purity 99.5%
Compound 21: 1-heptyne, C7H12, InChI=1S/C7H12/c1-3-5-7-6-4-2/h1H,4-7H2,2H3, purity 99.5%
Compound 22: butanone, C4H8O, InChI=1S/C4H8O/c1-3-4(2)5/h3H2,1-2H3, purity 99.5%
Compound 23: pentan-2-one, C5H10O, InChI=1S/C5H10O/c1-3-4-5(2)6/h3-4H2,1-2H3, purity 99.5%
Compound 24: pentan-3-one, C5H10O, InChI=1S/C5H10O/c1-3-5(6)4-2/h3-4H2,1-2H3, purity 99.5%
Compound 25: 1,4-dioxane, C4H8O2, InChI=1S/C4H8O2/c1-2-6-4-3-5-1/h1-4H2, purity 99.5%
Compound 26: methanol, CH4O, InChI=1S/CH4O/c1-2/h2H,1H3, purity 99.5%
Compound 27: ethanol, C2H6O, InChI=1S/C2H6O/c1-2-3/h3H,2H2,1H3, purity 99.5%
Compound 28: propan-1-ol, C3H8O, InChI=1S/C3H8O/c1-2-3-4/h4H,2-3H2,1H3, purity 99.5%
Compound 29: propan-2-ol, C3H8O, InChI=1S/C3H8O/c1-3(2)4/h3-4H,1-2H3, purity 99.5%
Compound 30: 2-methyl-1-propanol, C4H10O, InChI=1S/C4H10O/c1-4(2)3-5/h4-5H,3H2,1-2H3, purity 99.5%
Compound 31: butan-1-ol, C4H10O, InChI=1S/C4H10O/c1-2-3-4-5/h5H,2-4H2,1H3, purity 99.5%
Compound 32: diethyl ether, C4H10O, InChI=1S/C4H10O/c1-3-5-4-2/h3-4H2,1-2H3, purity 99.5%
Compound 33: trichloromethane, CHCl3, InChI=1S/CHCl3/c2-1(3)4/h1H, purity 99.5%
Compound 34: dichloromethane, CH2Cl2, InChI=1S/CH2Cl2/c2-1-3/h1H2, purity 99.5%
Compound 35: tetrachloromethane, CCl4, InChI=1S/CCl4/c2-1(3,4)5, purity 99.5%
Compound 36: acetonitrile, C2H3N, InChI=1S/C2H3N/c1-2-3/h1H3, purity 99.5%
Compound 37: nitromethane, CH3NO2, InChI=1S/CH3NO2/c1-2(3)4/h1H3, purity 99.5%
Compound 38: 1-nitropropane, C3H7NO2, InChI=1S/C3H7NO2/c1-2-3-4(5)6/h2-3H2,1H3, purity 99.5%
Compound 39: triethylamine, C6H15N, InChI=1S/C6H15N/c1-4-7(5-2)6-3/h4-6H2,1-3H3, purity 99.5%
Compound 40: pyridine, C5H5N, InChI=1S/C5H5N/c1-2-4-6-5-3-1/h1-5H, purity 99.5%
Compound 41: thiophene, C4H4S, InChI=1S/C4H4S/c1-2-4-5-3-1/h1-4H, purity 99.5%
Compound 42: methanal, CH2O, InChI=1S/CH2O/c1-2/h1H2, purity 99.5%

System: 1,3-dimethylimidazolium methyl phosphonate; phases: Liquid
Fixed: Pressure, kPa = 101.325
Property: Mass density, kg/m3 (Liquid); method: Vibrating tube method
Temperature, K	Mass density, kg/m3	uncertainty
293.15	1252.5	1.8
303.15	1246.4	1.8
313.15	1241.7	1.8
323.15	1233.4	1.8
333.15	1227.2	1.7
343.15	1220.8	1.7

System: 1-ethyl-3-methylimidazolium methyl phosphonate; phases: Liquid
Fixed: Pressure, kPa = 101.325
Property: Mass density, kg/m3 (Liquid); method: Vibrating tube method
Temperature, K	Mass density, kg/m3	uncertainty
293.15	1190.6	1.6
303.15	1184.1	1.6
313.15	1180.1	1.6
323.15	1174	1.6
333.15	1168.7	1.6
343.15	1163.2	1.5

System: nonane + 1,3-dimethylimidazolium methyl phosphonate; phases: Liquid
Fixed: Pressure, kPa = 101.33
Fixed: Mole fraction of nonane = 0
Property: Activity coefficient of nonane (Liquid); method: Chromatography
Temperature, K	Activity coefficient of nonane	uncertainty
313.15	1068	74
323.15	1046	72

System: decane + 1,3-dimethylimidazolium methyl phosphonate; phases: Liquid
Fixed: Pressure, kPa = 101.33
Fixed: Mole fraction of decane = 0
Property: Activity coefficient of decane (Liquid); method: Chromatography
Temperature, K	Activity coefficient of decane	uncertainty
313.15	1220	84
323.15	1214	84

System: undecane + 1,3-dimethylimidazolium methyl phosphonate; phases: Liquid
Fixed: Pressure, kPa = 101.33
Fixed: Mole fraction of undecane = 0
Property: Activity coefficient of undecane (Liquid); method: Chromatography
Temperature, K	Activity coefficient of undecane	uncertainty
313.15	1530	106
323.15	1467	101
333.15	1402	97
343.15	1332	92

System: dodecane + 1,3-dimethylimidazolium methyl phosphonate; phases: Liquid
Fixed: Pressure, kPa = 101.33
Fixed: Mole fraction of dodecane = 0
Property: Activity coefficient of dodecane (Liquid); method: Chromatography
Temperature, K	Activity coefficient of dodecane	uncertainty
313.15	2354	163
323.15	1918	132
333.15	1790	124

System: tridecane + 1,3-dimethylimidazolium methyl phosphonate; phases: Liquid
Fixed: Pressure, kPa = 101.33
Fixed: Mole fraction of tridecane = 0
Property: Activity coefficient of tridecane (Liquid); method: Chromatography
Temperature, K	Activity coefficient of tridecane	uncertainty
313.15	2380	164
323.15	2223	154
333.15	2159	149
343.15	2124	147

System: tetradecane + 1,3-dimethylimidazolium methyl phosphonate; phases: Liquid
Fixed: Pressure, kPa = 101.33
Fixed: Mole fraction of tetradecane = 0
Property: Activity coefficient of tetradecane (Liquid); method: Chromatography
Temperature, K	Activity coefficient of tetradecane	uncertainty
313.15	3560	246
323.15	3215	222
333.15	2978	206
343.15	2890	200

System: cyclohexane + 1,3-dimethylimidazolium methyl phosphonate; phases: Liquid
Property: Activity coefficient of cyclohexane (Liquid); method: Chromatography
Temperature, K	Pressure, kPa	Mole fraction of cyclohexane	Activity coefficient of cyclohexane	uncertainty
313.15	101.33	0	129	9

System: methylcyclohexane + 1,3-dimethylimidazolium methyl phosphonate; phases: Liquid
Property: Activity coefficient of methylcyclohexane (Liquid); method: Chromatography
Temperature, K	Pressure, kPa	Mole fraction of methylcyclohexane	Activity coefficient of methylcyclohexane	uncertainty
313.15	101.33	0	257	18

System: cycloheptane + 1,3-dimethylimidazolium methyl phosphonate; phases: Liquid
Property: Activity coefficient of cycloheptane (Liquid); method: Chromatography
Temperature, K	Pressure, kPa	Mole fraction of cycloheptane	Activity coefficient of cycloheptane	uncertainty
313.15	101.33	0	250	17

System: benzene + 1,3-dimethylimidazolium methyl phosphonate; phases: Liquid
Fixed: Pressure, kPa = 101.33
Fixed: Mole fraction of benzene = 0
Property: Activity coefficient of benzene (Liquid); method: Chromatography
Temperature, K	Activity coefficient of benzene	uncertainty
313.15	5.69	0.39
323.15	5.58	0.38
333.15	5.52	0.38
343.15	5.43	0.37

System: toluene + 1,3-dimethylimidazolium methyl phosphonate; phases: Liquid
Fixed: Pressure, kPa = 101.33
Fixed: Mole fraction of toluene = 0
Property: Activity coefficient of toluene (Liquid); method: Chromatography
Temperature, K	Activity coefficient of toluene	uncertainty
313.15	11.47	0.78
323.15	11.37	0.78
333.15	11.29	0.77
343.15	11.25	0.77

System: ethylbenzene + 1,3-dimethylimidazolium methyl phosphonate; phases: Liquid
Fixed: Pressure, kPa = 101.33
Fixed: Mole fraction of ethylbenzene = 0
Property: Activity coefficient of ethylbenzene (Liquid); method: Chromatography
Temperature, K	Activity coefficient of ethylbenzene	uncertainty
313.15	22.7	1.55
323.15	22.08	1.51
333.15	21.73	1.49
343.15	21.51	1.47

System: 1,3-dimethylbenzene + 1,3-dimethylimidazolium methyl phosphonate; phases: Liquid
Fixed: Pressure, kPa = 101.33
Fixed: Mole fraction of 1,3-dimethylbenzene = 0
Property: Activity coefficient of 1,3-dimethylbenzene (Liquid); method: Chromatography
Temperature, K	Activity coefficient of 1,3-dimethylbenzene	uncertainty
313.15	24.51	1.68
323.15	24.45	1.67
333.15	23.59	1.61
343.15	23.06	1.58

System: 1,4-dimethylbenzene + 1,3-dimethylimidazolium methyl phosphonate; phases: Liquid
Fixed: Pressure, kPa = 101.33
Fixed: Mole fraction of 1,4-dimethylbenzene = 0
Property: Activity coefficient of 1,4-dimethylbenzene (Liquid); method: Chromatography
Temperature, K	Activity coefficient of 1,4-dimethylbenzene	uncertainty
313.15	23.42	1.6
323.15	23.35	1.6
333.15	22.69	1.55
343.15	22.01	1.5

System: 1,2-dimethylbenzene + 1,3-dimethylimidazolium methyl phosphonate; phases: Liquid
Fixed: Pressure, kPa = 101.33
Fixed: Mole fraction of 1,2-dimethylbenzene = 0
Property: Activity coefficient of 1,2-dimethylbenzene (Liquid); method: Chromatography
Temperature, K	Activity coefficient of 1,2-dimethylbenzene	uncertainty
313.15	19.21	1.31
323.15	19.12	1.31
333.15	18.65	1.27
343.15	18.51	1.26

System: 1-hexyne + 1,3-dimethylimidazolium methyl phosphonate; phases: Liquid
Fixed: Pressure, kPa = 101.33
Fixed: Mole fraction of 1-hexyne = 0
Property: Activity coefficient of 1-hexyne (Liquid); method: Chromatography
Temperature, K	Activity coefficient of 1-hexyne	uncertainty
313.15	12.73	0.87
323.15	12.96	0.88
333.15	13.36	0.91
343.15	13.68	0.93

System: 1-heptyne + 1,3-dimethylimidazolium methyl phosphonate; phases: Liquid
Fixed: Pressure, kPa = 101.33
Fixed: Mole fraction of 1-heptyne = 0
Property: Activity coefficient of 1-heptyne (Liquid); method: Chromatography
Temperature, K	Activity coefficient of 1-heptyne	uncertainty
313.15	21.98	1.5
323.15	23.47	1.6
333.15	23.52	1.61
343.15	24.95	1.71

System: butanone + 1,3-dimethylimidazolium methyl phosphonate; phases: Liquid
Fixed: Pressure, kPa = 101.33
Fixed: Mole fraction of butanone = 0
Property: Activity coefficient of butanone (Liquid); method: Chromatography
Temperature, K	Activity coefficient of butanone	uncertainty
313.15	5.52	0.38
323.15	5.16	0.35
333.15	4.66	0.32
343.15	4.17	0.28

System: pentan-2-one + 1,3-dimethylimidazolium methyl phosphonate; phases: Liquid
Fixed: Pressure, kPa = 101.33
Fixed: Mole fraction of pentan-2-one = 0
Property: Activity coefficient of pentan-2-one (Liquid); method: Chromatography
Temperature, K	Activity coefficient of pentan-2-one	uncertainty
313.15	10.6	0.7
323.15	10.5	0.7
333.15	10.3	0.7
343.15	10.1	0.7

System: pentan-3-one + 1,3-dimethylimidazolium methyl phosphonate; phases: Liquid
Fixed: Pressure, kPa = 101.33
Fixed: Mole fraction of pentan-3-one = 0
Property: Activity coefficient of pentan-3-one (Liquid); method: Chromatography
Temperature, K	Activity coefficient of pentan-3-one	uncertainty
313.15	10.2	0.7
323.15	10.1	0.7
333.15	10.1	0.7
343.15	10	0.7

System: 1,4-dioxane + 1,3-dimethylimidazolium methyl phosphonate; phases: Liquid
Fixed: Pressure, kPa = 101.33
Fixed: Mole fraction of 1,4-dioxane = 0
Property: Activity coefficient of 1,4-dioxane (Liquid); method: Chromatography
Temperature, K	Activity coefficient of 1,4-dioxane	uncertainty
313.15	3.73	0.25
323.15	3.72	0.25
333.15	3.69	0.25
343.15	3.66	0.25

System: methanol + 1,3-dimethylimidazolium methyl phosphonate; phases: Liquid
Property: Activity coefficient of methanol (Liquid); method: Chromatography
Temperature, K	Pressure, kPa	Mole fraction of methanol	Activity coefficient of methanol	uncertainty
343.15	101.33	0	0.07	0.03

System: ethanol + 1,3-dimethylimidazolium methyl phosphonate; phases: Liquid
Property: Activity coefficient of ethanol (Liquid); method: Chromatography
Temperature, K	Pressure, kPa	Mole fraction of ethanol	Activity coefficient of ethanol	uncertainty
343.15	101.33	0	0.16	0.03

System: propan-1-ol + 1,3-dimethylimidazolium methyl phosphonate; phases: Liquid
Property: Activity coefficient of propan-1-ol (Liquid); method: Chromatography
Temperature, K	Pressure, kPa	Mole fraction of propan-1-ol	Activity coefficient of propan-1-ol	uncertainty
343.15	101.33	0	0.25	0.03

System: trichloromethane + 1,3-dimethylimidazolium methyl phosphonate; phases: Liquid
Fixed: Pressure, kPa = 101.33
Fixed: Mole fraction of trichloromethane = 0
Property: Activity coefficient of trichloromethane (Liquid); method: Chromatography
Temperature, K	Activity coefficient of trichloromethane	uncertainty
313.15	0.39	0.03
323.15	0.43	0.04
333.15	0.48	0.04
343.15	0.51	0.04

System: dichloromethane + 1,3-dimethylimidazolium methyl phosphonate; phases: Liquid
Fixed: Pressure, kPa = 101.33
Fixed: Mole fraction of dichloromethane = 0
Property: Activity coefficient of dichloromethane (Liquid); method: Chromatography
Temperature, K	Activity coefficient of dichloromethane	uncertainty
313.15	0.57	0.04
323.15	0.65	0.04
333.15	0.72	0.05
343.15	0.77	0.05

System: tetrachloromethane + 1,3-dimethylimidazolium methyl phosphonate; phases: Liquid
Fixed: Pressure, kPa = 101.33
Fixed: Mole fraction of tetrachloromethane = 0
Property: Activity coefficient of tetrachloromethane (Liquid); method: Chromatography
Temperature, K	Activity coefficient of tetrachloromethane	uncertainty
313.15	6.57	0.45
323.15	6.83	0.47
333.15	7.03	0.48

System: acetonitrile + 1,3-dimethylimidazolium methyl phosphonate; phases: Liquid
Fixed: Pressure, kPa = 101.33
Fixed: Mole fraction of acetonitrile = 0
Property: Activity coefficient of acetonitrile (Liquid); method: Chromatography
Temperature, K	Activity coefficient of acetonitrile	uncertainty
313.15	1.1	0.07
323.15	1.11	0.07
333.15	1.12	0.07
343.15	1.12	0.07

System: nitromethane + 1,3-dimethylimidazolium methyl phosphonate; phases: Liquid
Fixed: Pressure, kPa = 101.33
Fixed: Mole fraction of nitromethane = 0
Property: Activity coefficient of nitromethane (Liquid); method: Chromatography
Temperature, K	Activity coefficient of nitromethane	uncertainty
313.15	0.8	0.05
323.15	0.81	0.05
333.15	0.82	0.05
343.15	0.83	0.05

System: 1-nitropropane + 1,3-dimethylimidazolium methyl phosphonate; phases: Liquid
Fixed: Pressure, kPa = 101.33
Fixed: Mole fraction of 1-nitropropane = 0
Property: Activity coefficient of 1-nitropropane (Liquid); method: Chromatography
Temperature, K	Activity coefficient of 1-nitropropane	uncertainty
313.15	3.41	0.23
323.15	3.35	0.23
333.15	3.29	0.22
343.15	3.29	0.22

System: triethylamine + 1,3-dimethylimidazolium methyl phosphonate; phases: Liquid
Fixed: Pressure, kPa = 101.33
Fixed: Mole fraction of triethylamine = 0
Property: Activity coefficient of triethylamine (Liquid); method: Chromatography
Temperature, K	Activity coefficient of triethylamine	uncertainty
313.15	9.04	0.62
323.15	12.7	0.9

System: pyridine + 1,3-dimethylimidazolium methyl phosphonate; phases: Liquid
Fixed: Pressure, kPa = 101.33
Fixed: Mole fraction of pyridine = 0
Property: Activity coefficient of pyridine (Liquid); method: Chromatography
Temperature, K	Activity coefficient of pyridine	uncertainty
313.15	2.15	0.15
323.15	2.16	0.15
333.15	2.17	0.15
343.15	2.19	0.15

System: thiophene + 1,3-dimethylimidazolium methyl phosphonate; phases: Liquid
Fixed: Pressure, kPa = 101.33
Fixed: Mole fraction of thiophene = 0
Property: Activity coefficient of thiophene (Liquid); method: Chromatography
Temperature, K	Activity coefficient of thiophene	uncertainty
313.15	2.47	0.17
323.15	2.54	0.17
333.15	2.58	0.18
343.15	2.6	0.18

System: octane + 1-ethyl-3-methylimidazolium methyl phosphonate; phases: Liquid
Property: Activity coefficient of octane (Liquid); method: Chromatography
Temperature, K	Pressure, kPa	Mole fraction of octane	Activity coefficient of octane	uncertainty
313.15	101.33	0	461	32

System: nonane + 1-ethyl-3-methylimidazolium methyl phosphonate; phases: Liquid
Fixed: Pressure, kPa = 101.33
Fixed: Mole fraction of nonane = 0
Property: Activity coefficient of nonane (Liquid); method: Chromatography
Temperature, K	Activity coefficient of nonane	uncertainty
313.15	617	42
333.15	485	33

System: decane + 1-ethyl-3-methylimidazolium methyl phosphonate; phases: Liquid
Fixed: Pressure, kPa = 101.33
Fixed: Mole fraction of decane = 0
Property: Activity coefficient of decane (Liquid); method: Chromatography
Temperature, K	Activity coefficient of decane	uncertainty
313.15	882	61
333.15	704	48
353.15	582	40

System: undecane + 1-ethyl-3-methylimidazolium methyl phosphonate; phases: Liquid
Fixed: Pressure, kPa = 101.33
Fixed: Mole fraction of undecane = 0
Property: Activity coefficient of undecane (Liquid); method: Chromatography
Temperature, K	Activity coefficient of undecane	uncertainty
313.15	1342	93
333.15	1078	74
353.15	888	61

System: dodecane + 1-ethyl-3-methylimidazolium methyl phosphonate; phases: Liquid
Fixed: Pressure, kPa = 101.33
Fixed: Mole fraction of dodecane = 0
Property: Activity coefficient of dodecane (Liquid); method: Chromatography
Temperature, K	Activity coefficient of dodecane	uncertainty
313.15	1745	120
333.15	1542	106
353.15	1300	90
373.15	915	63

System: tridecane + 1-ethyl-3-methylimidazolium methyl phosphonate; phases: Liquid
Fixed: Pressure, kPa = 101.33
Fixed: Mole fraction of tridecane = 0
Property: Activity coefficient of tridecane (Liquid); method: Chromatography
Temperature, K	Activity coefficient of tridecane	uncertainty
313.15	2564	177
333.15	2129	147
353.15	1853	128
373.15	1296	89

System: tetradecane + 1-ethyl-3-methylimidazolium methyl phosphonate; phases: Liquid
Fixed: Pressure, kPa = 101.33
Fixed: Mole fraction of tetradecane = 0
Property: Activity coefficient of tetradecane (Liquid); method: Chromatography
Temperature, K	Activity coefficient of tetradecane	uncertainty
313.15	3493	241
333.15	3007	208
353.15	2609	180
373.15	2268	157

System: methylcyclopentane + 1-ethyl-3-methylimidazolium methyl phosphonate; phases: Liquid
Property: Activity coefficient of methylcyclopentane (Liquid); method: Chromatography
Temperature, K	Pressure, kPa	Mole fraction of methylcyclopentane	Activity coefficient of methylcyclopentane	uncertainty
313.15	101.33	0	76	5

System: cyclohexane + 1-ethyl-3-methylimidazolium methyl phosphonate; phases: Liquid
Fixed: Pressure, kPa = 101.33
Fixed: Mole fraction of cyclohexane = 0
Property: Activity coefficient of cyclohexane (Liquid); method: Chromatography
Temperature, K	Activity coefficient of cyclohexane	uncertainty
313.15	89	6
333.15	43.1	3

System: methylcyclohexane + 1-ethyl-3-methylimidazolium methyl phosphonate; phases: Liquid
Fixed: Pressure, kPa = 101.33
Fixed: Mole fraction of methylcyclohexane = 0
Property: Activity coefficient of methylcyclohexane (Liquid); method: Chromatography
Temperature, K	Activity coefficient of methylcyclohexane	uncertainty
313.15	211	15
333.15	70.8	4.9

System: cycloheptane + 1-ethyl-3-methylimidazolium methyl phosphonate; phases: Liquid
Fixed: Pressure, kPa = 101.33
Fixed: Mole fraction of cycloheptane = 0
Property: Activity coefficient of cycloheptane (Liquid); method: Chromatography
Temperature, K	Activity coefficient of cycloheptane	uncertainty
313.15	98.8	6.8
333.15	180	12
353.15	303	21
373.15	438	30

System: benzene + 1-ethyl-3-methylimidazolium methyl phosphonate; phases: Liquid
Fixed: Pressure, kPa = 101.33
Fixed: Mole fraction of benzene = 0
Property: Activity coefficient of benzene (Liquid); method: Chromatography
Temperature, K	Activity coefficient of benzene	uncertainty
313.15	3.44	0.23
333.15	3.52	0.24
353.15	3.61	0.25
373.15	3.75	0.26

System: toluene + 1-ethyl-3-methylimidazolium methyl phosphonate; phases: Liquid
Fixed: Pressure, kPa = 101.33
Fixed: Mole fraction of toluene = 0
Property: Activity coefficient of toluene (Liquid); method: Chromatography
Temperature, K	Activity coefficient of toluene	uncertainty
313.15	6.53	0.45
333.15	6.63	0.45
353.15	6.82	0.46
373.15	7.16	0.49

System: ethylbenzene + 1-ethyl-3-methylimidazolium methyl phosphonate; phases: Liquid
Fixed: Pressure, kPa = 101.33
Fixed: Mole fraction of ethylbenzene = 0
Property: Activity coefficient of ethylbenzene (Liquid); method: Chromatography
Temperature, K	Activity coefficient of ethylbenzene	uncertainty
313.15	11.4	0.8
333.15	11.6	0.8
353.15	11.7	0.8
373.15	11.9	0.8

System: 1,3-dimethylbenzene + 1-ethyl-3-methylimidazolium methyl phosphonate; phases: Liquid
Fixed: Pressure, kPa = 101.33
Fixed: Mole fraction of 1,3-dimethylbenzene = 0
Property: Activity coefficient of 1,3-dimethylbenzene (Liquid); method: Chromatography
Temperature, K	Activity coefficient of 1,3-dimethylbenzene	uncertainty
313.15	18.6	1.3
333.15	18.8	1.3
353.15	20.4	1.4
373.15	24.9	1.7

System: 1,4-dimethylbenzene + 1-ethyl-3-methylimidazolium methyl phosphonate; phases: Liquid
Fixed: Pressure, kPa = 101.33
Fixed: Mole fraction of 1,4-dimethylbenzene = 0
Property: Activity coefficient of 1,4-dimethylbenzene (Liquid); method: Chromatography
Temperature, K	Activity coefficient of 1,4-dimethylbenzene	uncertainty
313.15	16.9	1.2
333.15	18	1.2
353.15	19.3	1.3
373.15	21.9	1.5

System: 1,2-dimethylbenzene + 1-ethyl-3-methylimidazolium methyl phosphonate; phases: Liquid
Fixed: Pressure, kPa = 101.33
Fixed: Mole fraction of 1,2-dimethylbenzene = 0
Property: Activity coefficient of 1,2-dimethylbenzene (Liquid); method: Chromatography
Temperature, K	Activity coefficient of 1,2-dimethylbenzene	uncertainty
313.15	14.4	1
333.15	15	1
353.15	16.2	1.1
373.15	18.8	1.3

System: 1-hexyne + 1-ethyl-3-methylimidazolium methyl phosphonate; phases: Liquid
Fixed: Pressure, kPa = 101.33
Fixed: Mole fraction of 1-hexyne = 0
Property: Activity coefficient of 1-hexyne (Liquid); method: Chromatography
Temperature, K	Activity coefficient of 1-hexyne	uncertainty
313.15	6.24	0.43
333.15	6.73	0.46
353.15	7.14	0.49
373.15	7.56	0.52

System: 1-heptyne + 1-ethyl-3-methylimidazolium methyl phosphonate; phases: Liquid
Fixed: Pressure, kPa = 101.33
Fixed: Mole fraction of 1-heptyne = 0
Property: Activity coefficient of 1-heptyne (Liquid); method: Chromatography
Temperature, K	Activity coefficient of 1-heptyne	uncertainty
313.15	10.2	0.7
333.15	11.1	0.8
353.15	11.8	0.8
373.15	12	0.8

System: butanone + 1-ethyl-3-methylimidazolium methyl phosphonate; phases: Liquid
Fixed: Pressure, kPa = 101.33
Fixed: Mole fraction of butanone = 0
Property: Activity coefficient of butanone (Liquid); method: Chromatography
Temperature, K	Activity coefficient of butanone	uncertainty
313.15	3.49	0.24
333.15	3	0.2
353.15	2.56	0.17
373.15	2.37	0.16

System: pentan-2-one + 1-ethyl-3-methylimidazolium methyl phosphonate; phases: Liquid
Fixed: Pressure, kPa = 101.33
Fixed: Mole fraction of pentan-2-one = 0
Property: Activity coefficient of pentan-2-one (Liquid); method: Chromatography
Temperature, K	Activity coefficient of pentan-2-one	uncertainty
313.15	6.12	0.42
333.15	6.13	0.42
353.15	6.15	0.42
373.15	6.18	0.42

System: pentan-3-one + 1-ethyl-3-methylimidazolium methyl phosphonate; phases: Liquid
Fixed: Pressure, kPa = 101.33
Fixed: Mole fraction of pentan-3-one = 0
Property: Activity coefficient of pentan-3-one (Liquid); method: Chromatography
Temperature, K	Activity coefficient of pentan-3-one	uncertainty
313.15	5.77	0.39
333.15	5.88	0.4
353.15	6	0.41
373.15	6.17	0.42

System: 1,4-dioxane + 1-ethyl-3-methylimidazolium methyl phosphonate; phases: Liquid
Fixed: Pressure, kPa = 101.33
Fixed: Mole fraction of 1,4-dioxane = 0
Property: Activity coefficient of 1,4-dioxane (Liquid); method: Chromatography
Temperature, K	Activity coefficient of 1,4-dioxane	uncertainty
313.15	3.4	0.23
333.15	3.55	0.24
353.15	3.87	0.26
373.15	4.33	0.29

System: methanol + 1-ethyl-3-methylimidazolium methyl phosphonate; phases: Liquid
Fixed: Pressure, kPa = 101.33
Fixed: Mole fraction of methanol = 0
Property: Activity coefficient of methanol (Liquid); method: Chromatography
Temperature, K	Activity coefficient of methanol	uncertainty
333.15	0.072	0.03
353.15	0.078	0.03
373.15	0.088	0.03

System: ethanol + 1-ethyl-3-methylimidazolium methyl phosphonate; phases: Liquid
Fixed: Pressure, kPa = 101.33
Fixed: Mole fraction of ethanol = 0
Property: Activity coefficient of ethanol (Liquid); method: Chromatography
Temperature, K	Activity coefficient of ethanol	uncertainty
333.15	0.148	0.029
353.15	0.156	0.029
373.15	0.169	0.029

System: propan-1-ol + 1-ethyl-3-methylimidazolium methyl phosphonate; phases: Liquid
Fixed: Pressure, kPa = 101.33
Fixed: Mole fraction of propan-1-ol = 0
Property: Activity coefficient of propan-1-ol (Liquid); method: Chromatography
Temperature, K	Activity coefficient of propan-1-ol	uncertainty
353.15	0.207	0.029
373.15	0.214	0.029

System: propan-2-ol + 1-ethyl-3-methylimidazolium methyl phosphonate; phases: Liquid
Fixed: Pressure, kPa = 101.33
Fixed: Mole fraction of propan-2-ol = 0
Property: Activity coefficient of propan-2-ol (Liquid); method: Chromatography
Temperature, K	Activity coefficient of propan-2-ol	uncertainty
333.15	0.261	0.03
353.15	0.294	0.031
373.15	0.314	0.031

System: 2-methyl-1-propanol + 1-ethyl-3-methylimidazolium methyl phosphonate; phases: Liquid
Fixed: Pressure, kPa = 101.33
Fixed: Mole fraction of 2-methyl-1-propanol = 0
Property: Activity coefficient of 2-methyl-1-propanol (Liquid); method: Chromatography
Temperature, K	Activity coefficient of 2-methyl-1-propanol	uncertainty
353.15	0.292	0.031
373.15	0.309	0.031

System: butan-1-ol + 1-ethyl-3-methylimidazolium methyl phosphonate; phases: Liquid
Fixed: Pressure, kPa = 101.33
Fixed: Mole fraction of butan-1-ol = 0
Property: Activity coefficient of butan-1-ol (Liquid); method: Chromatography
Temperature, K	Activity coefficient of butan-1-ol	uncertainty
353.15	0.308	0.031
373.15	0.324	0.032

System: diethyl ether + 1-ethyl-3-methylimidazolium methyl phosphonate; phases: Liquid
Fixed: Pressure, kPa = 101.33
Fixed: Mole fraction of diethyl ether = 0
Property: Activity coefficient of diethyl ether (Liquid); method: Chromatography
Temperature, K	Activity coefficient of diethyl ether	uncertainty
313.15	1.987	0.135
333.15	2.429	0.165
353.15	3.504	0.239
373.15	4.596	0.313

System: trichloromethane + 1-ethyl-3-methylimidazolium methyl phosphonate; phases: Liquid
Fixed: Pressure, kPa = 101.33
Fixed: Mole fraction of trichloromethane = 0
Property: Activity coefficient of trichloromethane (Liquid); method: Chromatography
Temperature, K	Activity coefficient of trichloromethane	uncertainty
313.15	0.277	0.03
333.15	0.358	0.033
353.15	0.451	0.036
373.15	0.544	0.04

System: dichloromethane + 1-ethyl-3-methylimidazolium methyl phosphonate; phases: Liquid
Fixed: Pressure, kPa = 101.33
Fixed: Mole fraction of dichloromethane = 0
Property: Activity coefficient of dichloromethane (Liquid); method: Chromatography
Temperature, K	Activity coefficient of dichloromethane	uncertainty
313.15	0.502	0.038
333.15	0.642	0.044
353.15	0.798	0.052

System: tetrachloromethane + 1-ethyl-3-methylimidazolium methyl phosphonate; phases: Liquid
Fixed: Pressure, kPa = 101.33
Fixed: Mole fraction of tetrachloromethane = 0
Property: Activity coefficient of tetrachloromethane (Liquid); method: Chromatography
Temperature, K	Activity coefficient of tetrachloromethane	uncertainty
313.15	4.38	0.3
333.15	4.96	0.34

System: acetonitrile + 1-ethyl-3-methylimidazolium methyl phosphonate; phases: Liquid
Fixed: Pressure, kPa = 101.33
Fixed: Mole fraction of acetonitrile = 0
Property: Activity coefficient of acetonitrile (Liquid); method: Chromatography
Temperature, K	Activity coefficient of acetonitrile	uncertainty
313.15	1.08	0.07
333.15	1.11	0.07
353.15	1.19	0.08
373.15	1.25	0.08

System: nitromethane + 1-ethyl-3-methylimidazolium methyl phosphonate; phases: Liquid
Fixed: Pressure, kPa = 101.33
Fixed: Mole fraction of nitromethane = 0
Property: Activity coefficient of nitromethane (Liquid); method: Chromatography
Temperature, K	Activity coefficient of nitromethane	uncertainty
313.15	0.75	0.049
333.15	0.787	0.051
353.15	0.831	0.054
373.15	0.873	0.056

System: 1-nitropropane + 1-ethyl-3-methylimidazolium methyl phosphonate; phases: Liquid
Fixed: Pressure, kPa = 101.33
Fixed: Mole fraction of 1-nitropropane = 0
Property: Activity coefficient of 1-nitropropane (Liquid); method: Chromatography
Temperature, K	Activity coefficient of 1-nitropropane	uncertainty
313.15	2.68	0.18
333.15	2.69	0.18
353.15	2.75	0.19
373.15	2.8	0.19

System: triethylamine + 1-ethyl-3-methylimidazolium methyl phosphonate; phases: Liquid
Fixed: Pressure, kPa = 101.33
Fixed: Mole fraction of triethylamine = 0
Property: Activity coefficient of triethylamine (Liquid); method: Chromatography
Temperature, K	Activity coefficient of triethylamine	uncertainty
313.15	30.2	2.1
333.15	48	3.3

System: pyridine + 1-ethyl-3-methylimidazolium methyl phosphonate; phases: Liquid
Fixed: Pressure, kPa = 101.33
Fixed: Mole fraction of pyridine = 0
Property: Activity coefficient of pyridine (Liquid); method: Chromatography
Temperature, K	Activity coefficient of pyridine	uncertainty
313.15	1.77	0.12
333.15	1.84	0.12
353.15	1.95	0.13
373.15	2	0.14

System: thiophene + 1-ethyl-3-methylimidazolium methyl phosphonate; phases: Liquid
Fixed: Pressure, kPa = 101.33
Fixed: Mole fraction of thiophene = 0
Property: Activity coefficient of thiophene (Liquid); method: Chromatography
Temperature, K	Activity coefficient of thiophene	uncertainty
313.15	1.99	0.14
333.15	2.16	0.15
353.15	2.5	0.17
373.15	2.64	0.18

System: methanal + 1-ethyl-3-methylimidazolium methyl phosphonate; phases: Liquid
Fixed: Pressure, kPa = 101.33
Fixed: Mole fraction of methanal = 0
Property: Activity coefficient of methanal (Liquid); method: Chromatography
Temperature, K	Activity coefficient of methanal	uncertainty
313.15	0.059	0.03
333.15	0.084	0.03
353.15	0.115	0.03
373.15	0.151	0.029
