Measured thermophysical data. Thermodynamics and activity coefficients at infinite dilution for organic compounds and water in the ionic liquid 1-butyl-3-methylimidazolium perchlorate
Source: J. Chem. Thermodyn., 2017, 10.1016/j.jct.2017.07.012
Compound 1: hexane, C6H14, InChI=1S/C6H14/c1-3-5-6-4-2/h3-6H2,1-2H3, purity 99%
Compound 2: 1-butyl-3-methylimidazolium perchlorate, C8H15ClN2O4, InChI=1S/C8H15N2.ClHO4/c1-3-4-5-10-7-6-9(2)8-10;2-1(3,4)5/h6-8H,3-5H2,1-2H3;(H,2,3,4,5)/q+1;/p-1, purity 99%
Compound 3: heptane, C7H16, InChI=1S/C7H16/c1-3-5-7-6-4-2/h3-7H2,1-2H3, purity 99%
Compound 4: octane, C8H18, InChI=1S/C8H18/c1-3-5-7-8-6-4-2/h3-8H2,1-2H3, purity 99%
Compound 5: nonane, C9H20, InChI=1S/C9H20/c1-3-5-7-9-8-6-4-2/h3-9H2,1-2H3, purity 99%
Compound 6: decane, C10H22, InChI=1S/C10H22/c1-3-5-7-9-10-8-6-4-2/h3-10H2,1-2H3, purity 99%
Compound 7: cyclohexane, C6H12, InChI=1S/C6H12/c1-2-4-6-5-3-1/h1-6H2, purity 98%
Compound 8: methylcyclohexane, C7H14, InChI=1S/C7H14/c1-7-5-3-2-4-6-7/h7H,2-6H2,1H3, purity 98%
Compound 9: 2,2,4-trimethylpentane, C8H18, InChI=1S/C8H18/c1-7(2)6-8(3,4)5/h7H,6H2,1-5H3, purity 99%
Compound 10: cyclohexene, C6H10, InChI=1S/C6H10/c1-2-4-6-5-3-1/h1-2H,3-6H2, purity 99%
Compound 11: styrene, C8H8, InChI=1S/C8H8/c1-2-8-6-4-3-5-7-8/h2-7H,1H2, purity 99%
Compound 12: benzene, C6H6, InChI=1S/C6H6/c1-2-4-6-5-3-1/h1-6H, purity 99%
Compound 13: toluene, C7H8, InChI=1S/C7H8/c1-7-5-3-2-4-6-7/h2-6H,1H3, purity 99%
Compound 14: ethylbenzene, C8H10, InChI=1S/C8H10/c1-2-8-6-4-3-5-7-8/h3-7H,2H2,1H3, purity 99%
Compound 15: 1,2-dimethylbenzene, C8H10, InChI=1S/C8H10/c1-7-5-3-4-6-8(7)2/h3-6H,1-2H3, purity 98%
Compound 16: 1,3-dimethylbenzene, C8H10, InChI=1S/C8H10/c1-7-4-3-5-8(2)6-7/h3-6H,1-2H3, purity 98%
Compound 17: 1,4-dimethylbenzene, C8H10, InChI=1S/C8H10/c1-7-3-5-8(2)6-4-7/h3-6H,1-2H3, purity 99%
Compound 18: acetonitrile, C2H3N, InChI=1S/C2H3N/c1-2-3/h1H3, purity 99%
Compound 19: acetone, C3H6O, InChI=1S/C3H6O/c1-3(2)4/h1-2H3, purity 98%
Compound 20: tetrahydrofuran, C4H8O, InChI=1S/C4H8O/c1-2-4-5-3-1/h1-4H2, purity 99%
Compound 21: ethyl acetate, C4H8O2, InChI=1S/C4H8O2/c1-3-6-4(2)5/h3H2,1-2H3, purity 99%
Compound 22: 1,4-dioxane, C4H8O2, InChI=1S/C4H8O2/c1-2-6-4-3-5-1/h1-4H2, purity 99%
Compound 23: water, H2O, InChI=1S/H2O/h1H2
Compound 24: dichloromethane, CH2Cl2, InChI=1S/CH2Cl2/c2-1-3/h1H2, purity 99%
Compound 25: trichloromethane, CHCl3, InChI=1S/CHCl3/c2-1(3)4/h1H, purity 99%
Compound 26: tetrachloromethane, CCl4, InChI=1S/CCl4/c2-1(3,4)5, purity 99%
Compound 27: methanol, CH4O, InChI=1S/CH4O/c1-2/h2H,1H3, purity 99%
Compound 28: ethanol, C2H6O, InChI=1S/C2H6O/c1-2-3/h3H,2H2,1H3, purity 99%
Compound 29: propan-1-ol, C3H8O, InChI=1S/C3H8O/c1-2-3-4/h4H,2-3H2,1H3, purity 99%
Compound 30: propan-2-ol, C3H8O, InChI=1S/C3H8O/c1-3(2)4/h3-4H,1-2H3, purity 99%
Compound 31: butan-1-ol, C4H10O, InChI=1S/C4H10O/c1-2-3-4-5/h5H,2-4H2,1H3, purity 99%
Compound 32: 2-methyl-1-propanol, C4H10O, InChI=1S/C4H10O/c1-4(2)3-5/h4-5H,3H2,1-2H3, purity 99%
Compound 33: butan-2-ol, C4H10O, InChI=1S/C4H10O/c1-3-4(2)5/h4-5H,3H2,1-2H3, purity 99%
Compound 34: pentan-1-ol, C5H12O, InChI=1S/C5H12O/c1-2-3-4-5-6/h6H,2-5H2,1H3, purity 99%
Compound 35: 3-methylbutan-1-ol, C5H12O, InChI=1S/C5H12O/c1-5(2)3-4-6/h5-6H,3-4H2,1-2H3, purity 99%

System: 1-butyl-3-methylimidazolium perchlorate; phases: Liquid
Fixed: Pressure, kPa = 101.325
Property: Mass density, kg/m3 (Liquid); method: Vibrating tube method
Temperature, K	Mass density, kg/m3	uncertainty
303.15	1247.87	2.43
313.15	1240.83	2.43
323.15	1233.88	2.43
333.15	1227.01	2.43
343.15	1220.19	2.43
353.15	1213.44	2.43

System: 1-butyl-3-methylimidazolium perchlorate + hexane; phases: Liquid
Fixed: Mole fraction of hexane = 0
Fixed: Pressure, kPa = 101.325
Property: Activity coefficient of hexane (Liquid); method: Chromatography
Temperature, K	Activity coefficient of hexane	uncertainty
303.15	81.69	8.61
313.15	89.19	9.4
323.15	97.99	10.32
333.15	106.89	11.26
343.15	112.39	11.84
353.15	117.78	12.41

System: 1-butyl-3-methylimidazolium perchlorate + heptane; phases: Liquid
Fixed: Mole fraction of heptane = 0
Fixed: Pressure, kPa = 101.325
Property: Activity coefficient of heptane (Liquid); method: Chromatography
Temperature, K	Activity coefficient of heptane	uncertainty
303.15	85.9	9.05
313.15	91.56	9.65
323.15	99.06	10.44
333.15	108.32	11.41
343.15	114.82	12.1
353.15	121.06	12.76

System: 1-butyl-3-methylimidazolium perchlorate + octane; phases: Liquid
Fixed: Mole fraction of octane = 0
Fixed: Pressure, kPa = 101.325
Property: Activity coefficient of octane (Liquid); method: Chromatography
Temperature, K	Activity coefficient of octane	uncertainty
303.15	109.21	11.51
313.15	111.48	11.75
323.15	118.64	12.5
333.15	119.24	12.57
343.15	122.43	12.9
353.15	126.89	13.37

System: 1-butyl-3-methylimidazolium perchlorate + nonane; phases: Liquid
Fixed: Mole fraction of nonane = 0
Fixed: Pressure, kPa = 101.325
Property: Activity coefficient of nonane (Liquid); method: Chromatography
Temperature, K	Activity coefficient of nonane	uncertainty
303.15	150.56	15.87
313.15	142.25	14.99
323.15	141.6	14.92
333.15	137.34	14.47
343.15	135.14	14.24
353.15	132.61	13.98

System: 1-butyl-3-methylimidazolium perchlorate + decane; phases: Liquid
Fixed: Mole fraction of decane = 0
Fixed: Pressure, kPa = 101.325
Property: Activity coefficient of decane (Liquid); method: Chromatography
Temperature, K	Activity coefficient of decane	uncertainty
303.15	225.97	23.83
313.15	219.25	23.12
323.15	216.52	22.83
333.15	204.46	21.56
343.15	200.08	21.09
353.15	192.17	20.26

System: 1-butyl-3-methylimidazolium perchlorate + cyclohexane; phases: Liquid
Fixed: Mole fraction of cyclohexane = 0
Fixed: Pressure, kPa = 101.325
Property: Activity coefficient of cyclohexane (Liquid); method: Chromatography
Temperature, K	Activity coefficient of cyclohexane	uncertainty
303.15	34.52	3.63
313.15	34.63	3.65
323.15	35.2	3.71
333.15	35.4	3.73
343.15	36.17	3.81
353.15	37.52	3.95

System: 1-butyl-3-methylimidazolium perchlorate + methylcyclohexane; phases: Liquid
Fixed: Mole fraction of methylcyclohexane = 0
Fixed: Pressure, kPa = 101.325
Property: Activity coefficient of methylcyclohexane (Liquid); method: Chromatography
Temperature, K	Activity coefficient of methylcyclohexane	uncertainty
303.15	46.45	4.89
313.15	46.68	4.91
323.15	47	4.95
333.15	47.29	4.98
343.15	47.34	4.98
353.15	47.76	5.03

System: 1-butyl-3-methylimidazolium perchlorate + 2,2,4-trimethylpentane; phases: Liquid
Fixed: Mole fraction of 2,2,4-trimethylpentane = 0
Fixed: Pressure, kPa = 101.325
Property: Activity coefficient of 2,2,4-trimethylpentane (Liquid); method: Chromatography
Temperature, K	Activity coefficient of 2,2,4-trimethylpentane	uncertainty
303.15	100.38	10.58
313.15	102.01	10.75
323.15	107.08	11.28
333.15	118.52	12.49
343.15	121.74	12.83
353.15	125	13.17

System: 1-butyl-3-methylimidazolium perchlorate + cyclohexene; phases: Liquid
Fixed: Mole fraction of cyclohexene = 0
Fixed: Pressure, kPa = 101.325
Property: Activity coefficient of cyclohexene (Liquid); method: Chromatography
Temperature, K	Activity coefficient of cyclohexene	uncertainty
303.15	15.06	1.58
313.15	14.83	1.56
323.15	14.72	1.55
333.15	14.59	1.53
343.15	14.41	1.52
353.15	14.21	1.49

System: 1-butyl-3-methylimidazolium perchlorate + styrene; phases: Liquid
Fixed: Mole fraction of styrene = 0
Fixed: Pressure, kPa = 101.325
Property: Activity coefficient of styrene (Liquid); method: Chromatography
Temperature, K	Activity coefficient of styrene	uncertainty
333.15	2.29	0.24
343.15	2.42	0.25
353.15	2.5	0.26

System: 1-butyl-3-methylimidazolium perchlorate + benzene; phases: Liquid
Fixed: Mole fraction of benzene = 0
Fixed: Pressure, kPa = 101.325
Property: Activity coefficient of benzene (Liquid); method: Chromatography
Temperature, K	Activity coefficient of benzene	uncertainty
303.15	1.78	0.19
313.15	1.82	0.19
323.15	1.97	0.21
333.15	2	0.21
343.15	2.08	0.22
353.15	2.17	0.23

System: 1-butyl-3-methylimidazolium perchlorate + toluene; phases: Liquid
Fixed: Mole fraction of toluene = 0
Fixed: Pressure, kPa = 101.325
Property: Activity coefficient of toluene (Liquid); method: Chromatography
Temperature, K	Activity coefficient of toluene	uncertainty
313.15	2.96	0.31
323.15	3.1	0.33
333.15	3.14	0.33
343.15	3.29	0.35
353.15	3.38	0.36

System: 1-butyl-3-methylimidazolium perchlorate + ethylbenzene; phases: Liquid
Fixed: Mole fraction of ethylbenzene = 0
Fixed: Pressure, kPa = 101.325
Property: Activity coefficient of ethylbenzene (Liquid); method: Chromatography
Temperature, K	Activity coefficient of ethylbenzene	uncertainty
323.15	5.05	0.53
333.15	5.11	0.54
343.15	5.29	0.56
353.15	5.35	0.56

System: 1-butyl-3-methylimidazolium perchlorate + 1,2-dimethylbenzene; phases: Liquid
Fixed: Mole fraction of 1,2-dimethylbenzene = 0
Fixed: Pressure, kPa = 101.325
Property: Activity coefficient of 1,2-dimethylbenzene (Liquid); method: Chromatography
Temperature, K	Activity coefficient of 1,2-dimethylbenzene	uncertainty
323.15	4.09	0.43
333.15	4.16	0.44
343.15	4.27	0.45
353.15	4.37	0.46

System: 1-butyl-3-methylimidazolium perchlorate + 1,3-dimethylbenzene; phases: Liquid
Fixed: Mole fraction of 1,3-dimethylbenzene = 0
Fixed: Pressure, kPa = 101.325
Property: Activity coefficient of 1,3-dimethylbenzene (Liquid); method: Chromatography
Temperature, K	Activity coefficient of 1,3-dimethylbenzene	uncertainty
323.15	4.99	0.52
333.15	5.08	0.53
343.15	5.28	0.55
353.15	5.36	0.56

System: 1-butyl-3-methylimidazolium perchlorate + 1,4-dimethylbenzene; phases: Liquid
Fixed: Mole fraction of 1,4-dimethylbenzene = 0
Fixed: Pressure, kPa = 101.325
Property: Activity coefficient of 1,4-dimethylbenzene (Liquid); method: Chromatography
Temperature, K	Activity coefficient of 1,4-dimethylbenzene	uncertainty
323.15	4.82	0.51
333.15	4.91	0.52
343.15	5.13	0.54
353.15	5.21	0.55

System: 1-butyl-3-methylimidazolium perchlorate + acetonitrile; phases: Liquid
Fixed: Mole fraction of acetonitrile = 0
Fixed: Pressure, kPa = 101.325
Property: Activity coefficient of acetonitrile (Liquid); method: Chromatography
Temperature, K	Activity coefficient of acetonitrile	uncertainty
303.15	0.61	0.07
313.15	0.62	0.07
323.15	0.63	0.07
333.15	0.65	0.07
343.15	0.67	0.07
353.15	0.69	0.07

System: 1-butyl-3-methylimidazolium perchlorate + acetone; phases: Liquid
Fixed: Mole fraction of acetone = 0
Fixed: Pressure, kPa = 101.325
Property: Activity coefficient of acetone (Liquid); method: Chromatography
Temperature, K	Activity coefficient of acetone	uncertainty
303.15	0.84	0.09
313.15	0.91	0.09
323.15	0.94	0.1
333.15	0.98	0.1
343.15	1.05	0.11
353.15	1.08	0.11

System: 1-butyl-3-methylimidazolium perchlorate + tetrahydrofuran; phases: Liquid
Fixed: Mole fraction of tetrahydrofuran = 0
Fixed: Pressure, kPa = 101.325
Property: Activity coefficient of tetrahydrofuran (Liquid); method: Chromatography
Temperature, K	Activity coefficient of tetrahydrofuran	uncertainty
303.15	1.5	0.16
313.15	1.57	0.16
323.15	1.67	0.17
333.15	1.94	0.2
343.15	1.94	0.2
353.15	2.06	0.22

System: 1-butyl-3-methylimidazolium perchlorate + ethyl acetate; phases: Liquid
Fixed: Mole fraction of ethyl acetate = 0
Fixed: Pressure, kPa = 101.325
Property: Activity coefficient of ethyl acetate (Liquid); method: Chromatography
Temperature, K	Activity coefficient of ethyl acetate	uncertainty
303.15	2.22	0.23
313.15	2.31	0.24
323.15	2.46	0.26
333.15	2.54	0.27
343.15	2.69	0.28
353.15	2.78	0.29

System: 1-butyl-3-methylimidazolium perchlorate + 1,4-dioxane; phases: Liquid
Fixed: Mole fraction of 1,4-dioxane = 0
Fixed: Pressure, kPa = 101.325
Property: Activity coefficient of 1,4-dioxane (Liquid); method: Chromatography
Temperature, K	Activity coefficient of 1,4-dioxane	uncertainty
323.15	1	0.1
333.15	1.02	0.1
343.15	1.1	0.11
353.15	1.14	0.12

System: 1-butyl-3-methylimidazolium perchlorate + water; phases: Liquid
Fixed: Mole fraction of water = 0
Fixed: Pressure, kPa = 101.325
Property: Activity coefficient of water (Liquid); method: Chromatography
Temperature, K	Activity coefficient of water	uncertainty
333.15	1.02	0.1
343.15	1.01	0.1
353.15	1	0.1

System: 1-butyl-3-methylimidazolium perchlorate + dichloromethane; phases: Liquid
Fixed: Mole fraction of dichloromethane = 0
Fixed: Pressure, kPa = 101.325
Property: Activity coefficient of dichloromethane (Liquid); method: Chromatography
Temperature, K	Activity coefficient of dichloromethane	uncertainty
303.15	0.84	0.09
313.15	0.91	0.09
323.15	0.96	0.1
333.15	1.01	0.1
343.15	1.1	0.11
353.15	1.13	0.12

System: 1-butyl-3-methylimidazolium perchlorate + trichloromethane; phases: Liquid
Fixed: Mole fraction of trichloromethane = 0
Fixed: Pressure, kPa = 101.325
Property: Activity coefficient of trichloromethane (Liquid); method: Chromatography
Temperature, K	Activity coefficient of trichloromethane	uncertainty
303.15	0.78	0.08
313.15	0.87	0.09
323.15	0.93	0.09
333.15	0.98	0.1
343.15	1.1	0.11
353.15	1.16	0.12

System: 1-butyl-3-methylimidazolium perchlorate + tetrachloromethane; phases: Liquid
Fixed: Mole fraction of tetrachloromethane = 0
Fixed: Pressure, kPa = 101.325
Property: Activity coefficient of tetrachloromethane (Liquid); method: Chromatography
Temperature, K	Activity coefficient of tetrachloromethane	uncertainty
303.15	3.61	0.38
313.15	3.93	0.41
323.15	4.1	0.43
333.15	4.22	0.44
343.15	4.6	0.48
353.15	4.67	0.49

System: 1-butyl-3-methylimidazolium perchlorate + methanol; phases: Liquid
Fixed: Mole fraction of methanol = 0
Fixed: Pressure, kPa = 101.325
Property: Activity coefficient of methanol (Liquid); method: Chromatography
Temperature, K	Activity coefficient of methanol	uncertainty
303.15	1.07	0.11
313.15	1.06	0.11
323.15	1.05	0.11
333.15	1.02	0.1
343.15	1.01	0.1
353.15	1	0.1

System: 1-butyl-3-methylimidazolium perchlorate + ethanol; phases: Liquid
Fixed: Mole fraction of ethanol = 0
Fixed: Pressure, kPa = 101.325
Property: Activity coefficient of ethanol (Liquid); method: Chromatography
Temperature, K	Activity coefficient of ethanol	uncertainty
303.15	1.67	0.17
313.15	1.59	0.17
323.15	1.59	0.17
333.15	1.5	0.16
343.15	1.45	0.15
353.15	1.44	0.15

System: 1-butyl-3-methylimidazolium perchlorate + propan-1-ol; phases: Liquid
Fixed: Mole fraction of propan-1-ol = 0
Fixed: Pressure, kPa = 101.325
Property: Activity coefficient of propan-1-ol (Liquid); method: Chromatography
Temperature, K	Activity coefficient of propan-1-ol	uncertainty
323.15	2.05	0.22
333.15	1.99	0.21
343.15	1.87	0.2
353.15	1.82	0.19

System: 1-butyl-3-methylimidazolium perchlorate + propan-2-ol; phases: Liquid
Fixed: Mole fraction of propan-2-ol = 0
Fixed: Pressure, kPa = 101.325
Property: Activity coefficient of propan-2-ol (Liquid); method: Chromatography
Temperature, K	Activity coefficient of propan-2-ol	uncertainty
303.15	2.27	0.24
313.15	2.18	0.23
323.15	2.06	0.22
333.15	2.06	0.22
343.15	1.93	0.2
353.15	1.92	0.2

System: 1-butyl-3-methylimidazolium perchlorate + butan-1-ol; phases: Liquid
Fixed: Mole fraction of butan-1-ol = 0
Fixed: Pressure, kPa = 101.325
Property: Activity coefficient of butan-1-ol (Liquid); method: Chromatography
Temperature, K	Activity coefficient of butan-1-ol	uncertainty
333.15	2.73	0.29
343.15	2.49	0.26
353.15	2.39	0.25

System: 1-butyl-3-methylimidazolium perchlorate + 2-methyl-1-propanol; phases: Liquid
Fixed: Mole fraction of 2-methyl-1-propanol = 0
Fixed: Pressure, kPa = 101.325
Property: Activity coefficient of 2-methyl-1-propanol (Liquid); method: Chromatography
Temperature, K	Activity coefficient of 2-methyl-1-propanol	uncertainty
323.15	2.9	0.3
333.15	2.67	0.28
343.15	2.48	0.26
353.15	2.32	0.24

System: 1-butyl-3-methylimidazolium perchlorate + butan-2-ol; phases: Liquid
Fixed: Mole fraction of butan-2-ol = 0
Fixed: Pressure, kPa = 101.325
Property: Activity coefficient of butan-2-ol (Liquid); method: Chromatography
Temperature, K	Activity coefficient of butan-2-ol	uncertainty
313.15	2.91	0.31
323.15	2.66	0.28
333.15	2.61	0.27
343.15	2.47	0.26
353.15	2.37	0.25

System: 1-butyl-3-methylimidazolium perchlorate + pentan-1-ol; phases: Liquid
Fixed: Mole fraction of pentan-1-ol = 0
Fixed: Pressure, kPa = 101.325
Property: Activity coefficient of pentan-1-ol (Liquid); method: Chromatography
Temperature, K	Activity coefficient of pentan-1-ol	uncertainty
333.15	3.88	0.41
343.15	3.55	0.37
353.15	3.23	0.34

System: 1-butyl-3-methylimidazolium perchlorate + 3-methylbutan-1-ol; phases: Liquid
Fixed: Mole fraction of 3-methylbutan-1-ol = 0
Fixed: Pressure, kPa = 101.325
Property: Activity coefficient of 3-methylbutan-1-ol (Liquid); method: Chromatography
Temperature, K	Activity coefficient of 3-methylbutan-1-ol	uncertainty
333.15	3.49	0.37
343.15	3.21	0.34
353.15	2.97	0.31
