Measured thermophysical data. Aqueous two-phase systems with thermo-sensitive EOPO co-polymer (UCON) and sulfate salts: Effect of temperature and cation
Source: J. Chem. Thermodyn., 2017, 10.1016/j.jct.2017.01.009
Compound 1: potassium sulfate, K2O4S, InChI=1S/2K.H2O4S/c;;1-5(2,3)4/h;;(H2,1,2,3,4)/q2*+1;/p-2, purity 99.4%
Compound 2: water, H2O, InChI=1S/H2O/h1H2

System: water + potassium sulfate; phases: Liquid
Fixed: Pressure, kPa = 100
Fixed: Temperature, K = 298.15
Property: Mass density, kg/m3 (Liquid); method: Vibrating tube method
Mass fraction of potassium sulfate	Mass density, kg/m3	uncertainty
0.0005	997.4	0.3
0.0009	997.8	0.3
0.005	1001.1	0.3
0.0098	1004.9	0.3
0.0196	1012.7	0.3
0.0401	1029.3	0.3
0.0704	1054.2	0.3
0.0986	1077.9	0.3
0	997.1	0.2

System: water + potassium sulfate; phases: Liquid
Fixed: Pressure, kPa = 100
Fixed: Temperature, K = 298.15
Property: Refractive index (Na D-line) (Liquid); method: Standard Abbe refractometry
Mass fraction of potassium sulfate	Refractive index (Na D-line)	uncertainty
0.0005	1.3326	0.0005
0.0009	1.3326	0.0005
0.005	1.3331	0.0005
0.0098	1.3337	0.0005
0.0196	1.3349	0.0005
0.0401	1.3373	0.0005
0.0704	1.3409	0.0005
0.0986	1.3442	0.0005
0	1.3325	0.0005
