Measured thermophysical data. Liquid-liquid equilibrium for the system of ionic liquid [BMIm][HSO4] catalysed isobutyl isobutyrate formation
Source: J. Chem. Thermodyn., 2018, 10.1016/j.jct.2018.03.015
Compound 1: 2-methylpropanoic acid, C4H8O2, InChI=1S/C4H8O2/c1-3(2)4(5)6/h3H,1-2H3,(H,5,6), purity 99%
Compound 2: 2-methylpropyl 2-methylpropanoate, C8H16O2, InChI=1S/C8H16O2/c1-6(2)5-10-8(9)7(3)4/h6-7H,5H2,1-4H3, purity 99%
Compound 3: 2-methyl-1-propanol, C4H10O, InChI=1S/C4H10O/c1-4(2)3-5/h4-5H,3H2,1-2H3, purity 99%
Compound 4: 1-butyl-3-methylimidazolium hydrogen sulfate, C8H16N2O4S, InChI=1S/C8H15N2.H2O4S/c1-3-4-5-10-7-6-9(2)8-10;1-5(2,3)4/h6-8H,3-5H2,1-2H3;(H2,1,2,3,4)/q+1;/p-1, purity 99%

System: 2-methylpropyl 2-methylpropanoate + 2-methylpropanoic acid + 1-butyl-3-methylimidazolium hydrogen sulfate; phases: Liquid mixture 2, Liquid mixture 1
Fixed: Pressure, kPa = 101.3
Property: Mass fraction of 2-methylpropyl 2-methylpropanoate (Liquid mixture 2); method: Chromatography
Property: Mass fraction of 2-methylpropanoic acid (Liquid mixture 1); method: Chromatography
Property: Mass fraction of 2-methylpropyl 2-methylpropanoate (Liquid mixture 1); method: Chromatography
Temperature, K	Mass fraction of 2-methylpropanoic acid	Mass fraction of 2-methylpropyl 2-methylpropanoate	uncertainty	Mass fraction of 2-methylpropanoic acid	uncertainty	Mass fraction of 2-methylpropyl 2-methylpropanoate	uncertainty
298.2	0	0.0011	0.0011	0		0.9999	
298.2	0.4194	0		0.996	0.004	0	
298.2	0.0278	0.0124	0.011	0.0682	0.011	0.9308	
298.2	0.0533	0.0176	0.011	0.1381	0.011	0.861	
298.2	0.075	0.0271	0.011	0.2191	0.0111	0.7798	
298.2	0.0939	0.0296	0.011	0.2881	0.0112	0.7097	
298.2	0.1224	0.0337	0.011	0.3519	0.0113	0.6459	
298.2	0.1585	0.0394	0.011	0.4104	0.0114	0.5863	
298.2	0.2278	0.0456	0.011	0.5254	0.0115	0.4706	
323.2	0	0.0036	0.0036	0		0.9998	
323.2	0.4456	0		0.9938	0.0062	0	
323.2	0.0255	0.0141	0.011	0.0695	0.011	0.9299	
323.2	0.0449	0.0232	0.011	0.1451	0.011	0.8539	
323.2	0.0632	0.0278	0.011	0.2244	0.0111	0.7741	
323.2	0.0803	0.0384	0.011	0.297	0.0112	0.7005	
323.2	0.1124	0.046	0.011	0.3609	0.0113	0.636	
323.2	0.147	0.0582	0.011	0.4213	0.0114	0.5747	
323.2	0.2151	0.0649	0.011	0.5299	0.0115	0.4645	
353.2	0	0.0047	0.0047	0		0.9997	
353.2	0.4643	0		0.99	0.01	0	
353.2	0.0179	0.0149	0.011	0.0658	0.011	0.9332	
353.2	0.0363	0.0213	0.011	0.1391	0.011	0.8592	
353.2	0.0567	0.0313	0.011	0.2224	0.0111	0.7757	
353.2	0.0746	0.0407	0.011	0.3017	0.0112	0.6955	
353.2	0.0977	0.0505	0.011	0.3548	0.0113	0.6412	
353.2	0.1328	0.065	0.011	0.4297	0.0114	0.5644	
353.2	0.1962	0.0766	0.011	0.5336	0.0115	0.4572	

System: 2-methylpropyl 2-methylpropanoate + 2-methyl-1-propanol + 1-butyl-3-methylimidazolium hydrogen sulfate; phases: Liquid mixture 2, Liquid mixture 1
Fixed: Pressure, kPa = 101.3
Property: Mass fraction of 2-methyl-1-propanol (Liquid mixture 2); method: Chromatography
Property: Mass fraction of 2-methyl-1-propanol (Liquid mixture 1); method: Chromatography
Property: Mass fraction of 2-methylpropyl 2-methylpropanoate (Liquid mixture 1); method: Chromatography
Temperature, K	Mass fraction of 2-methylpropyl 2-methylpropanoate	Mass fraction of 2-methyl-1-propanol	uncertainty	Mass fraction of 2-methyl-1-propanol	uncertainty	Mass fraction of 2-methylpropyl 2-methylpropanoate	uncertainty
298.2	0.0011	0		0		0.9999	
323.2	0.0273	0.0815	0.0096	0.0266	0.0096	0.9726	
323.2	0.0467	0.1353	0.0096	0.0654	0.0096	0.9323	
323.2	0.0684	0.1617	0.0097	0.089	0.0096	0.9074	
323.2	0.1097	0.1991	0.0097	0.1086	0.0096	0.8848	
323.2	0.1674	0.245	0.0098	0.1522	0.0097	0.8235	
323.2	0.2091	0.2676	0.0098	0.1992	0.0097	0.7416	
353.2	0.0047	0		0		0.9997	
353.2	0.0389	0.0727	0.0096	0.0435	0.0096	0.9551	
353.2	0.0672	0.1311	0.0096	0.0775	0.0096	0.92	
353.2	0.1244	0.1853	0.0097	0.1144	0.0096	0.8783	
298.2	0.0239	0.0937	0.0096	0.0288	0.0096	0.9705	
353.2	0.1411	0.2051	0.0097	0.1355	0.0096	0.8515	
353.2	0.2067	0.2406	0.0097	0.158	0.0097	0.8208	
353.2	0.272	0.2583	0.0098	0.1869	0.0097	0.7756	
298.2	0.031	0.1407	0.0097	0.0601	0.0096	0.9383	
298.2	0.0671	0.1955	0.0097	0.0991	0.0096	0.8966	
298.2	0.1223	0.2456	0.0098	0.1404	0.0097	0.8396	
298.2	0.1537	0.2753	0.0098	0.2111	0.0097	0.743	
298.2	0.1838	0.3063	0.0098	0.254	0.0098	0.6853	
298.2	0.2148	0.316	0.0099	0.2824	0.0098	0.6293	
323.2	0.0036	0		0		0.9998	

System: 2-methylpropyl 2-methylpropanoate + 1-butyl-3-methylimidazolium hydrogen sulfate; phases: Liquid mixture 2, Liquid mixture 1
Fixed: Pressure, kPa = 101.3
Property: Mass fraction of 2-methylpropyl 2-methylpropanoate (Liquid mixture 2); method: Chromatography
Temperature, K	Mass fraction of 2-methylpropyl 2-methylpropanoate	uncertainty
298.2	0.0011	0.0011
323.2	0.0036	0.0036
353.2	0.0047	0.0047

System: 2-methylpropyl 2-methylpropanoate + 1-butyl-3-methylimidazolium hydrogen sulfate; phases: Liquid mixture 1, Liquid mixture 2
Fixed: Pressure, kPa = 101.3
Property: Mass fraction of 2-methylpropyl 2-methylpropanoate (Liquid mixture 1); method: Chromatography
Temperature, K	Mass fraction of 2-methylpropyl 2-methylpropanoate	uncertainty
298.2	0.9999	0.0001
323.2	0.9998	0.0002
353.2	0.9997	0.0003

System: 2-methylpropanoic acid + 1-butyl-3-methylimidazolium hydrogen sulfate; phases: Liquid mixture 2, Liquid mixture 1
Fixed: Pressure, kPa = 101.3
Property: Mass fraction of 2-methylpropanoic acid (Liquid mixture 2); method: Chromatography
Temperature, K	Mass fraction of 2-methylpropanoic acid	uncertainty
323.2	0.4456	0.0114
298.2	0.4194	0.0114
353.2	0.4643	0.0115

System: 2-methylpropanoic acid + 1-butyl-3-methylimidazolium hydrogen sulfate; phases: Liquid mixture 1, Liquid mixture 2
Fixed: Pressure, kPa = 101.3
Property: Mass fraction of 2-methylpropanoic acid (Liquid mixture 1); method: Chromatography
Temperature, K	Mass fraction of 2-methylpropanoic acid	uncertainty
323.2	0.9938	0.0062
298.2	0.996	0.004
353.2	0.99	0.01
