Measured thermophysical data. Tie-line data for the aqueous solutions of phenol with organic solvents at T = 298.2 K
Source: J. Chem. Thermodyn., 2013, 10.1016/j.jct.2012.10.028
Compound 1: octan-1-ol, C8H18O, InChI=1S/C8H18O/c1-2-3-4-5-6-7-8-9/h9H,2-8H2,1H3, purity 99%
Compound 2: cyclohexanone, C6H10O, InChI=1S/C6H10O/c7-6-4-2-1-3-5-6/h1-5H2, purity 99%
Compound 3: 2-ethyl-1-hexanol, C8H18O, InChI=1S/C8H18O/c1-3-5-6-8(4-2)7-9/h8-9H,3-7H2,1-2H3, purity 99%
Compound 4: 2-methylpropyl ethanoate, C6H12O2, InChI=1S/C6H12O2/c1-5(2)4-8-6(3)7/h5H,4H2,1-3H3, purity 99%
Compound 5: water, H2O, InChI=1S/H2O/h1H2, purity 99.9%
Compound 6: phenol, C6H6O, InChI=1S/C6H6O/c7-6-4-2-1-3-5-6/h1-5,7H, purity 99%

System: octan-1-ol; phases: Liquid
Property: Refractive index (Na D-line) (Liquid); method: Standard Abbe refractometry
Temperature, K	Pressure, kPa	Refractive index (Na D-line)	uncertainty
298.2	101.325	1.427	0.0005

System: octan-1-ol; phases: Liquid
Property: Mass density, kg/m3 (Liquid); method: Vibrating tube method
Temperature, K	Pressure, kPa	Mass density, kg/m3	uncertainty
298.2	101.325	824.1	0.31

System: cyclohexanone; phases: Liquid
Property: Refractive index (Na D-line) (Liquid); method: Standard Abbe refractometry
Temperature, K	Pressure, kPa	Refractive index (Na D-line)	uncertainty
298.2	101.325	1.4503	0.0005

System: cyclohexanone; phases: Liquid
Property: Mass density, kg/m3 (Liquid); method: Vibrating tube method
Temperature, K	Pressure, kPa	Mass density, kg/m3	uncertainty
298.2	101.325	943.04	0.32

System: 2-ethyl-1-hexanol; phases: Liquid
Property: Refractive index (Na D-line) (Liquid); method: Standard Abbe refractometry
Temperature, K	Pressure, kPa	Refractive index (Na D-line)	uncertainty
298.2	101.325	1.4293	0.0005

System: 2-ethyl-1-hexanol; phases: Liquid
Property: Mass density, kg/m3 (Liquid); method: Vibrating tube method
Temperature, K	Pressure, kPa	Mass density, kg/m3	uncertainty
298.2	101.325	830.57	0.31

System: 2-methylpropyl ethanoate; phases: Liquid
Property: Refractive index (Na D-line) (Liquid); method: Standard Abbe refractometry
Temperature, K	Pressure, kPa	Refractive index (Na D-line)	uncertainty
298.2	101.325	1.3878	0.0005

System: 2-methylpropyl ethanoate; phases: Liquid
Property: Mass density, kg/m3 (Liquid); method: Vibrating tube method
Temperature, K	Pressure, kPa	Mass density, kg/m3	uncertainty
293.15	101.325	866.58	0.31

System: water; phases: Liquid
Property: Refractive index (Na D-line) (Liquid); method: Standard Abbe refractometry
Temperature, K	Pressure, kPa	Refractive index (Na D-line)	uncertainty
298.2	101.325	1.3325	0.0005

System: water; phases: Liquid
Property: Mass density, kg/m3 (Liquid); method: Vibrating tube method
Temperature, K	Pressure, kPa	Mass density, kg/m3	uncertainty
298.2	101.325	997.04	0.24

System: cyclohexanone + phenol + water; phases: Liquid mixture 1, Liquid mixture 2
Fixed: Temperature, K = 298.2
Fixed: Pressure, kPa = 101
Property: Mass fraction of phenol (Liquid mixture 1); method: Chromatography
Mass fraction of water	Mass fraction of phenol	uncertainty
0.0594	0	
0.0596	0.0937	0.0347
0.0634	0.1878	0.0334
0.0674	0.2798	0.0412
0.0695	0.3728	0.0387
0.0738	0.4633	0.0165
0.084	0.5494	0.0097
0.0991	0.6299	0.0047
0.1355	0.6913	0.003
0.1899	0.7295	0.0024
0.2941	0.7059	0.0025
0.9197	0	
0.9706	0.0155	0.0033
0.9633	0.0309	0.0026
0.9512	0.0456	0.0022
0.9394	0.0598	0.0021
0.923	0.0768	0.0326
0.9173	0.0827	0.0483

System: cyclohexanone + phenol + water; phases: Liquid mixture 2, Liquid mixture 1
Fixed: Temperature, K = 298.2
Fixed: Pressure, kPa = 101
Property: Mass fraction of water (Liquid mixture 2); method: Chromatography
Property: Mass fraction of phenol (Liquid mixture 1); method: Chromatography
Property: Mass fraction of water (Liquid mixture 1); method: Chromatography
Mass fraction of phenol	Mass fraction of water	uncertainty	Mass fraction of phenol	uncertainty	Mass fraction of water	uncertainty
0.1924	0.0625	0.002	0.0178	0.002	0.9715	
0.317	0.0754	0.0021	0.0249	0.0032	0.9658	
0.4057	0.0777	0.0021	0.0313	0.0032	0.9607	
0.467	0.0811	0.0021	0.0371	0.0032	0.9561	
0.5216	0.0835	0.0021	0.0428	0.0032	0.9516	
0.55	0.0873	0.0021	0.0473	0.002	0.948	

System: phenol + octan-1-ol + water; phases: Liquid mixture 1, Liquid mixture 2
Fixed: Temperature, K = 298.2
Fixed: Pressure, kPa = 101
Property: Mass fraction of phenol (Liquid mixture 1); method: Chromatography
Mass fraction of water	Mass fraction of phenol	uncertainty
0.025	0	
0.0487	0.0955	0.0079
0.0563	0.1884	0.0267
0.0576	0.2827	0.0271
0.0633	0.3744	0.014
0.0752	0.4618	0.0096
0.09	0.5446	0.0053
0.1244	0.612	0.004
0.1596	0.6727	0.0031
0.2111	0.7071	0.0025
0.2941	0.7059	0.0025
0.9961	0	
0.9823	0.0161	0.0021
0.9683	0.0307	0.002
0.9541	0.0453	0.002
0.9393	0.0603	0.002
0.926	0.0739	0.0021
0.9173	0.0827	0.0021

System: phenol + octan-1-ol + water; phases: Liquid mixture 2, Liquid mixture 1
Fixed: Temperature, K = 298.2
Fixed: Pressure, kPa = 101
Property: Mass fraction of water (Liquid mixture 2); method: Chromatography
Property: Mass fraction of phenol (Liquid mixture 1); method: Chromatography
Property: Mass fraction of water (Liquid mixture 1); method: Chromatography
Mass fraction of phenol	Mass fraction of water	uncertainty	Mass fraction of phenol	uncertainty	Mass fraction of water	uncertainty
0.1814	0.0483	0.002	0.0075	0.002	0.9902	
0.3165	0.0535	0.002	0.0177	0.0029	0.9805	
0.404	0.0643	0.0021	0.0327	0.0029	0.9662	
0.4684	0.0737	0.0021	0.0408	0.0029	0.9584	
0.5148	0.0825	0.0021	0.0476	0.0029	0.9519	
0.5538	0.0954	0.0021	0.0551	0.002	0.9447	

System: 2-ethyl-1-hexanol + phenol + water; phases: Liquid mixture 1, Liquid mixture 2
Fixed: Temperature, K = 298.2
Fixed: Pressure, kPa = 101
Property: Mass fraction of phenol (Liquid mixture 1); method: Chromatography
Mass fraction of water	Mass fraction of phenol	uncertainty
0.0121	0	
0.0253	0.0971	0.0137
0.0311	0.1936	0.0234
0.0368	0.289	0.0261
0.0413	0.3836	0.0138
0.0544	0.4724	0.0076
0.0763	0.5535	0.0063
0.0967	0.6321	0.004
0.1417	0.687	0.0029
0.2007	0.7186	0.0024
0.2941	0.7059	0.0025
0.9987	0	
0.9827	0.0162	0.002
0.9686	0.0304	0.002
0.9539	0.0455	0.002
0.9392	0.0605	0.002
0.9224	0.0775	0.0021
0.9173	0.0827	0.0021

System: 2-ethyl-1-hexanol + phenol + water; phases: Liquid mixture 2, Liquid mixture 1
Fixed: Temperature, K = 298.2
Fixed: Pressure, kPa = 101
Property: Mass fraction of water (Liquid mixture 2); method: Chromatography
Property: Mass fraction of phenol (Liquid mixture 1); method: Chromatography
Property: Mass fraction of water (Liquid mixture 1); method: Chromatography
Mass fraction of phenol	Mass fraction of water	uncertainty	Mass fraction of phenol	uncertainty	Mass fraction of water	uncertainty
0.1772	0.0396	0.002	0.0111	0.002	0.9876	
0.309	0.0459	0.002	0.0201	0.0028	0.9787	
0.4164	0.0542	0.0021	0.0291	0.0029	0.9698	
0.4707	0.0683	0.0021	0.0377	0.0029	0.9614	
0.5172	0.0779	0.0021	0.0422	0.0029	0.957	
0.557	0.0861	0.0021	0.0467	0.002	0.9525	

System: phenol + 2-methylpropyl ethanoate + water; phases: Liquid mixture 1, Liquid mixture 2
Fixed: Temperature, K = 298.2
Fixed: Pressure, kPa = 101
Property: Mass fraction of phenol (Liquid mixture 1); method: Chromatography
Mass fraction of water	Mass fraction of phenol	uncertainty
0.0212	0	
0.0243	0.0982	0.0256
0.0313	0.1941	0.0172
0.0398	0.2881	0.0171
0.0467	0.3814	0.0173
0.0549	0.4727	0.0102
0.0714	0.5567	0.0059
0.0995	0.6299	0.0041
0.1366	0.69	0.0029
0.1938	0.7233	0.0024
0.2941	0.7059	0.0025
0.9914	0	
0.9771	0.018	0.0022
0.9656	0.0316	0.0021
0.9526	0.0457	0.0021
0.9386	0.0605	0.0021
0.9225	0.0772	0.0021
0.9173	0.0827	0.0021

System: phenol + 2-methylpropyl ethanoate + water; phases: Liquid mixture 2, Liquid mixture 1
Fixed: Temperature, K = 298.2
Fixed: Pressure, kPa = 101
Property: Mass fraction of water (Liquid mixture 2); method: Chromatography
Property: Mass fraction of phenol (Liquid mixture 1); method: Chromatography
Property: Mass fraction of water (Liquid mixture 1); method: Chromatography
Mass fraction of phenol	Mass fraction of water	uncertainty	Mass fraction of phenol	uncertainty	Mass fraction of water	uncertainty
0.1829	0.033	0.002	0.0019	0.0019	0.991	
0.3196	0.04	0.002	0.01	0.003	0.9838	
0.4107	0.0477	0.002	0.0187	0.003	0.9759	
0.4804	0.0576	0.0021	0.0243	0.003	0.9709	
0.5302	0.0679	0.0021	0.0305	0.003	0.9653	
0.568	0.0754	0.0021	0.0387	0.002	0.958	

System: cyclohexanone + water; phases: Liquid mixture 1, Liquid mixture 2
Fixed: Temperature, K = 298.2
Fixed: Pressure, kPa = 101
Property: Mass fraction of water (Liquid mixture 1); method: Chromatography
Mass fraction of water	uncertainty
0.0594	
0.9197	

System: phenol + water; phases: Liquid mixture 1, Liquid mixture 2
Fixed: Temperature, K = 298.2
Fixed: Pressure, kPa = 101
Property: Mass fraction of phenol (Liquid mixture 1); method: Chromatography
Mass fraction of phenol	uncertainty
0.7059	0.0025
0.0827	0.0483

System: octan-1-ol + water; phases: Liquid mixture 1, Liquid mixture 2
Fixed: Temperature, K = 298.2
Fixed: Pressure, kPa = 101
Property: Mass fraction of water (Liquid mixture 1); method: Chromatography
Mass fraction of water	uncertainty
0.025	
0.9961	

System: 2-ethyl-1-hexanol + water; phases: Liquid mixture 1, Liquid mixture 2
Fixed: Temperature, K = 298.2
Fixed: Pressure, kPa = 101
Property: Mass fraction of water (Liquid mixture 1); method: Chromatography
Mass fraction of water	uncertainty
0.0121	
0.9987	

System: 2-methylpropyl ethanoate + water; phases: Liquid mixture 1, Liquid mixture 2
Fixed: Temperature, K = 298.2
Fixed: Pressure, kPa = 101
Property: Mass fraction of water (Liquid mixture 1); method: Chromatography
Mass fraction of water	uncertainty
0.0212	
0.9914	
