Measured thermophysical data. Coupled mutual diffusion in aqueous sodium (salicylate + sodium chloride) solutions at 25 .deg.C
Source: J. Chem. Thermodyn., 2019, 10.1016/j.jct.2019.06.022
Compound 1: sodium salicylate, C7H5NaO3, InChI=1S/C7H6O3.Na/c8-6-4-2-1-3-5(6)7(9)10;/h1-4,8H,(H,9,10);/q;+1/p-1, purity 99%
Compound 2: water, H2O, InChI=1S/H2O/h1H2, purity 99.9%

System: sodium salicylate + water; phases: Liquid
Fixed: Temperature, K = 298.15
Fixed: Pressure, kPa = 101.3
Property: Binary diffusion coefficient, m2/s (Liquid); method: Taylor dispersion method
Molality, mol/kg of sodium salicylate	Binary diffusion coefficient, m2/s	uncertainty
0.001004	1.065e-09	0.026
0.002502	1.049e-09	0.026
0.005026	1.035e-09	0.027
0.007532	1.016e-09	0.023
0.01004	1.02e-09	0.033

System: sodium salicylate + water; phases: Liquid
Fixed: Temperature, K = 298.15
Fixed: Pressure, kPa = 101.3
Property: Mass density, kg/m3 (Liquid); method: Vibrating tube method
Molality, mol/kg of sodium salicylate	Mass density, kg/m3	uncertainty
0	997.048	0.409
0.001004	996.965	0.401
0.002502	997.145	0.401
0.005026	997.318	0.401
0.007532	997.434	0.401
0.01004	997.909	0.403
0.05045	999.801	0.406
0.1014	1003.007	0.423
