Measured thermophysical data. Apparent molar volumes and apparent molar heat capacities of aqueous D(+)-cellobiose, D(+)-maltose, and sucrose at temperatures from 278.15 K to 393.15 K and at the pressure 0.35 MPa
Source: J. Chem. Thermodyn., 2005, 10.1016/j.jct.2004.12.004
Compound 1: D-sucrose, C12H22O11, InChI=1S/C12H22O11/c13-1-4-6(16)8(18)9(19)11(21-4)23-12(3-15)10(20)7(17)5(2-14)22-12/h4-11,13-20H,1-3H2/t4-,5-,6-,7-,8+,9-,10+,11-,12+/m1/s1
Compound 2: D-cellobiose, C12H22O11, InChI=1S/C12H22O11/c13-1-3-5(15)6(16)9(19)12(22-3)23-10-4(2-14)21-11(20)8(18)7(10)17/h3-20H,1-2H2/t3-,4-,5-,6+,7-,8-,9-,10-,11-,12+/m1/s1
Compound 3: D-maltose, C12H22O11, InChI=1S/C12H22O11/c13-1-3-5(15)6(16)9(19)12(22-3)23-10-4(2-14)21-11(20)8(18)7(10)17/h3-20H,1-2H2/t3-,4-,5-,6+,7-,8-,9-,10-,11?,12-/m1/s1
Compound 4: water, H2O, InChI=1S/H2O/h1H2

System: D-sucrose + water; phases: Liquid
Fixed: Pressure, kPa = 350
Property: Apparent molar heat capacity, J/K/mol (Liquid); method: Extra sensitive DSC
Temperature, K	Molality, mol/kg of D-sucrose	Apparent molar heat capacity, J/K/mol	uncertainty
278.15	0.014614	532.5	70
278.15	0.030476	533.5	34.4
278.15	0.061716	533.8	17.8
278.15	0.13018	535.7	9.3
278.15	0.248582	538.6	5.6
278.15	0.496866	544.2	3.7
278.15	0.746038	548.9	3
278.15	0.997241	554.2	2.7
278.15	1.488693	560.3	2.4
278.15	1.989904	566.8	2.2
278.15	2.989793	577.9	2.1
278.15	3.995073	587.9	2
283.15	0.014614	567.4	70.1
283.15	0.030476	567.3	34.5
283.15	0.061716	568.9	17.9
283.15	0.13018	569.8	9.4
283.15	0.248582	572	5.7
283.15	0.496866	575.9	3.8
283.15	0.746038	579.3	3.1
283.15	0.997241	583.7	2.8
283.15	1.488693	587.9	2.4
283.15	1.989904	593.1	2.3
283.15	2.989793	601.8	2.2
283.15	3.995073	610	2.1
288.15	0.014614	596.7	70.2
288.15	0.030476	596.6	34.6
288.15	0.061716	597.7	18
288.15	0.13018	598.1	9.5
288.15	0.248582	599.7	5.8
288.15	0.496866	602.4	3.8
288.15	0.746038	604.7	3.2
288.15	0.997241	608.3	2.8
288.15	1.488693	611	2.5
288.15	1.989904	614.9	2.4
288.15	2.989793	621.5	2.2
288.15	3.995073	628.2	2.1
293.15	0.014614	622	70.3
293.15	0.030476	621.8	34.7
293.15	0.061716	622.6	18.1
293.15	0.13018	622.7	9.6
293.15	0.248582	623.7	5.9
293.15	0.496866	625.6	3.9
293.15	0.746038	627.1	3.2
293.15	0.997241	629.8	2.9
293.15	1.488693	631.4	2.6
293.15	1.989904	634.1	2.4
293.15	2.989793	639	2.3
293.15	3.995073	644.5	2.2
298.15	0.014614	642.1	70.4
298.15	0.030476	642.9	34.8
298.15	0.061716	644	18.1
298.15	0.13018	643.9	9.6
298.15	0.248582	644.7	6
298.15	0.496866	646	4
298.15	0.746038	646.9	3.3
298.15	0.997241	649.1	3
298.15	1.488693	649.6	2.6
298.15	1.989904	651.6	2.5
298.15	2.989793	655.2	2.3
298.15	3.995073	659.4	2.2
303.15	0.014614	660.7	70.4
303.15	0.030476	662.1	34.8
303.15	0.061716	663	18.2
303.15	0.13018	663.2	9.7
303.15	0.248582	663.8	6
303.15	0.496866	664.5	4
303.15	0.746038	665.1	3.3
303.15	0.997241	666.8	3
303.15	1.488693	666.5	2.7
303.15	1.989904	667.8	2.5
303.15	2.989793	670.4	2.4
303.15	3.995073	673.5	2.3
308.15	0.014614	679	70.5
308.15	0.030476	679.1	34.9
308.15	0.061716	680.3	18.3
308.15	0.13018	680.3	9.7
308.15	0.248582	680.6	6.1
308.15	0.496866	680.9	4.1
308.15	0.746038	681.1	3.4
308.15	0.997241	682.4	3.1
308.15	1.488693	681.8	2.7
308.15	1.989904	682.4	2.6
308.15	2.989793	683.9	2.4
308.15	3.995073	686.3	2.3
313.15	0.014614	695.3	70.5
313.15	0.030476	695.1	34.9
313.15	0.061716	696.3	18.3
313.15	0.13018	696.2	9.8
313.15	0.248582	696.3	6.1
313.15	0.496866	696.3	4.1
313.15	0.746038	696.2	3.4
313.15	0.997241	697.3	3.1
313.15	1.488693	696.3	2.8
313.15	1.989904	696.4	2.6
313.15	2.989793	697.1	2.4
313.15	3.995073	698.8	2.4
318.15	0.014614	709.1	70.6
318.15	0.030476	709.4	35
318.15	0.061716	710.4	18.3
318.15	0.13018	710.3	9.8
318.15	0.248582	710.3	6.2
318.15	0.496866	710.1	4.2
318.15	0.746038	709.8	3.5
318.15	0.997241	710.5	3.1
318.15	1.488693	709.1	2.8
318.15	1.989904	709.1	2.6
318.15	2.989793	709.1	2.5
318.15	3.995073	710.2	2.4
323.15	0.014614	722.3	70.6
323.15	0.030476	722.4	35
323.15	0.061716	723.4	18.4
323.15	0.13018	723.1	9.9
323.15	0.248582	723	6.2
323.15	0.496866	722.6	4.2
323.15	0.746038	722	3.5
323.15	0.997241	722.7	3.2
323.15	1.488693	721	2.8
323.15	1.989904	720.7	2.7
323.15	2.989793	720.3	2.5
323.15	3.995073	720.8	2.4
328.15	0.014614	735.7	70.6
328.15	0.030476	735.3	35
328.15	0.061716	735.9	18.4
328.15	0.13018	735.3	9.9
328.15	0.248582	735.1	6.2
328.15	0.496866	734.6	4.2
328.15	0.746038	733.9	3.6
328.15	0.997241	734.3	3.2
328.15	1.488693	732.5	2.9
328.15	1.989904	731.9	2.7
328.15	2.989793	730.9	2.5
328.15	3.995073	731.1	2.5
333.15	0.014614	746.9	70.7
333.15	0.030476	746.6	35.1
333.15	0.061716	747	18.5
333.15	0.13018	746.5	9.9
333.15	0.248582	746.2	6.3
333.15	0.496866	745.4	4.3
333.15	0.746038	744.6	3.6
333.15	0.997241	745	3.2
333.15	1.488693	742.9	2.9
333.15	1.989904	742.1	2.7
333.15	2.989793	740.7	2.6
333.15	3.995073	740.5	2.5
338.15	0.014614	756.6	70.7
338.15	0.030476	757.3	35.1
338.15	0.061716	757.4	18.5
338.15	0.13018	756.8	10
338.15	0.248582	756.4	6.3
338.15	0.496866	755.6	4.3
338.15	0.746038	754.7	3.6
338.15	0.997241	754.9	3.3
338.15	1.488693	752.7	2.9
338.15	1.989904	751.7	2.8
338.15	2.989793	750	2.6
338.15	3.995073	749.3	2.5
343.15	0.014614	765.9	70.7
343.15	0.030476	766.2	35.1
343.15	0.061716	766.8	18.5
343.15	0.13018	766.3	10
343.15	0.248582	766	6.3
343.15	0.496866	765.2	4.3
343.15	0.746038	764.2	3.6
343.15	0.997241	764.2	3.3
343.15	1.488693	762	3
343.15	1.989904	760.8	2.8
343.15	2.989793	759	2.6
343.15	3.995073	758	2.5
348.15	0.014614	774.3	70.8
348.15	0.030476	775.2	35.1
348.15	0.061716	775.7	18.5
348.15	0.13018	775.1	10
348.15	0.248582	774.7	6.4
348.15	0.496866	774	4.3
348.15	0.746038	772.8	3.7
348.15	0.997241	772.7	3.3
348.15	1.488693	770.4	3
348.15	1.989904	769.1	2.8
348.15	2.989793	767	2.6
348.15	3.995073	765.8	2.6
353.15	0.014614	781.7	70.8
353.15	0.030476	783.6	35.2
353.15	0.061716	784	18.6
353.15	0.13018	783.3	10
353.15	0.248582	783	6.4
353.15	0.496866	782.2	4.4
353.15	0.746038	780.9	3.7
353.15	0.997241	780.7	3.4
353.15	1.488693	778.3	3
353.15	1.989904	777	2.8
353.15	2.989793	774.6	2.7
353.15	3.995073	773.2	2.6
358.15	0.014614	791	70.8
358.15	0.030476	791.1	35.2
358.15	0.061716	791.9	18.6
358.15	0.13018	791.1	10.1
358.15	0.248582	790.6	6.4
358.15	0.496866	789.8	4.4
358.15	0.746038	788.4	3.7
358.15	0.997241	788.2	3.4
358.15	1.488693	785.7	3
358.15	1.989904	784.3	2.9
358.15	2.989793	781.7	2.7
358.15	3.995073	780	2.6
363.15	0.014614	797.3	70.8
363.15	0.030476	797.3	35.2
363.15	0.061716	798	18.6
363.15	0.13018	797.4	10.1
363.15	0.248582	797.1	6.4
363.15	0.496866	796.6	4.4
363.15	0.746038	795.1	3.7
363.15	0.997241	794.7	3.4
363.15	1.488693	792.3	3.1
363.15	1.989904	790.9	2.9
363.15	2.989793	788.1	2.7
363.15	3.995073	786.3	2.6

System: D-sucrose + water; phases: Liquid
Fixed: Pressure, kPa = 350
Property: Apparent molar volume, m3/mol (Liquid); method: Calculated with densities of this investigation
Temperature, K	Molality, mol/kg of D-sucrose	Apparent molar volume, m3/mol	uncertainty
278.15	0.014614	0.0001953	3.3e-06
278.15	0.030476	0.0002051	2.9e-06
278.15	0.061716	0.0002093	2.4e-06
278.15	0.13018	0.0002075	1.2e-06
278.15	0.248582	0.0002077	9e-07
278.15	0.496866	0.0002085	6e-07
278.15	0.746038	0.0002087	6e-07
278.15	0.997241	0.0002091	5e-07
278.15	1.488693	0.0002099	7e-07
278.15	1.989904	0.0002104	5e-07
278.15	2.989793	0.0002114	5e-07
278.15	3.995073	0.0002123	6e-07
283.15	0.014614	0.0001972	5.1e-06
283.15	0.030476	0.0002066	2.9e-06
283.15	0.061716	0.0002109	2.5e-06
283.15	0.13018	0.0002088	1.3e-06
283.15	0.248582	0.0002089	9e-07
283.15	0.496866	0.0002096	6e-07
283.15	0.746038	0.0002098	6e-07
283.15	0.997241	0.0002101	5e-07
283.15	1.488693	0.0002108	7e-07
283.15	1.989904	0.0002113	5e-07
283.15	2.989793	0.0002122	5e-07
283.15	3.995073	0.0002131	6e-07
288.15	0.014614	0.0001983	6.8e-06
288.15	0.030476	0.0002077	3e-06
288.15	0.061716	0.0002122	2.6e-06
288.15	0.13018	0.0002098	1.3e-06
288.15	0.248582	0.0002098	9e-07
288.15	0.496866	0.0002105	7e-07
288.15	0.746038	0.0002107	6e-07
288.15	0.997241	0.000211	5e-07
288.15	1.488693	0.0002116	7e-07
288.15	1.989904	0.000212	5e-07
288.15	2.989793	0.0002129	5e-07
288.15	3.995073	0.0002137	6e-07
298.15	0.014614	0.0001988	7.1e-06
298.15	0.030476	0.0002103	3.2e-06
298.15	0.061716	0.0002143	2.8e-06
298.15	0.13018	0.0002117	1.4e-06
298.15	0.248582	0.0002116	1e-06
298.15	0.496866	0.0002122	6e-07
298.15	0.746038	0.0002123	6e-07
298.15	0.997241	0.0002126	5e-07
298.15	1.488693	0.0002131	7e-07
298.15	1.989904	0.0002135	5e-07
298.15	2.989793	0.0002143	5e-07
298.15	3.995073	0.000215	6e-07
308.15	0.014614	0.0002004	6.9e-06
308.15	0.030476	0.0002123	3.3e-06
308.15	0.061716	0.0002159	3e-06
308.15	0.13018	0.0002133	1.5e-06
308.15	0.248582	0.0002132	1e-06
308.15	0.496866	0.0002137	7e-07
308.15	0.746038	0.0002137	6e-07
308.15	0.997241	0.0002139	5e-07
308.15	1.488693	0.0002145	7e-07
308.15	1.989904	0.0002148	5e-07
308.15	2.989793	0.0002155	5e-07
308.15	3.995073	0.0002162	6e-07
318.15	0.014614	0.0002016	6.4e-06
318.15	0.030476	0.000213	3.4e-06
318.15	0.061716	0.0002168	3e-06
318.15	0.13018	0.0002146	1.5e-06
318.15	0.248582	0.0002145	1e-06
318.15	0.496866	0.000215	7e-07
318.15	0.746038	0.0002149	6e-07
318.15	0.997241	0.0002152	5e-07
318.15	1.488693	0.0002157	7e-07
318.15	1.989904	0.000216	5e-07
318.15	2.989793	0.0002166	5e-07
318.15	3.995073	0.0002173	6e-07
328.15	0.014614	0.0002045	5.4e-06
328.15	0.030476	0.0002136	3.1e-06
328.15	0.061716	0.0002173	2.7e-06
328.15	0.13018	0.0002156	1.3e-06
328.15	0.248582	0.0002157	9e-07
328.15	0.496866	0.0002161	6e-07
328.15	0.746038	0.000216	6e-07
328.15	0.997241	0.0002163	5e-07
328.15	1.488693	0.0002168	7e-07
328.15	1.989904	0.0002171	4e-07
328.15	2.989793	0.0002177	4e-07
328.15	3.995073	0.0002183	6e-07
338.15	0.014614	0.0002089	3.3e-06
338.15	0.030476	0.0002142	2.7e-06
338.15	0.061716	0.0002178	2.2e-06
338.15	0.13018	0.0002165	1.1e-06
338.15	0.248582	0.0002168	8e-07
338.15	0.496866	0.0002171	5e-07
338.15	0.746038	0.0002171	5e-07
338.15	0.997241	0.0002174	4e-07
338.15	1.488693	0.0002179	6e-07
338.15	1.989904	0.0002181	4e-07
338.15	2.989793	0.0002187	4e-07
338.15	3.995073	0.0002193	5e-07
348.15	0.014614	0.0002146	2.5e-06
348.15	0.030476	0.0002152	1.5e-06
348.15	0.061716	0.0002187	1.7e-06
348.15	0.13018	0.0002175	9e-07
348.15	0.248582	0.0002178	6e-07
348.15	0.496866	0.000218	4e-07
348.15	0.746038	0.0002182	4e-07
348.15	0.997241	0.0002183	3e-07
348.15	1.488693	0.0002188	5e-07
348.15	1.989904	0.000219	3e-07
348.15	2.989793	0.0002196	3e-07
348.15	3.995073	0.0002202	4e-07
358.15	0.014614	0.0002166	2.7e-06
358.15	0.030476	0.000217	1e-06
358.15	0.061716	0.0002195	1.4e-06
358.15	0.13018	0.0002185	7e-07
358.15	0.248582	0.0002188	5e-07
358.15	0.496866	0.0002189	4e-07
358.15	0.746038	0.000219	4e-07
358.15	0.997241	0.0002192	3e-07
358.15	1.488693	0.0002197	5e-07
358.15	1.989904	0.0002199	3e-07
358.15	2.989793	0.0002205	3e-07
358.15	3.995073	0.0002211	4e-07
368.15	0.014614	0.0002171	5.4e-06
368.15	0.030476	0.0002182	1.5e-06
368.15	0.061716	0.0002197	1.2e-06
368.15	0.13018	0.0002191	7e-07
368.15	0.248582	0.0002196	5e-07
368.15	0.496866	0.0002195	4e-07
368.15	0.746038	0.0002197	4e-07
368.15	0.997241	0.0002199	4e-07
368.15	1.488693	0.0002204	5e-07
368.15	1.989904	0.0002206	4e-07
368.15	2.989793	0.0002211	3e-07
368.15	3.995073	0.0002217	5e-07

System: D-cellobiose + water; phases: Liquid
Fixed: Pressure, kPa = 350
Property: Apparent molar heat capacity, J/K/mol (Liquid); method: Extra sensitive DSC
Temperature, K	Molality, mol/kg of D-cellobiose	Apparent molar heat capacity, J/K/mol	uncertainty
278.15	0.03222	562.9	32.7
278.15	0.051747	563	21
278.15	0.079863	562	14.2
278.15	0.099965	561.2	11.7
278.15	0.1501162	563	8.4
278.15	0.308394	566.4	5
283.15	0.03222	593	32.8
283.15	0.051747	592.8	21.1
283.15	0.079863	591.5	14.3
283.15	0.099965	590.9	11.8
283.15	0.1501162	592	8.4
283.15	0.308394	594.5	5
288.15	0.03222	619.4	32.9
288.15	0.051747	618.8	21.2
288.15	0.079863	617.3	14.4
288.15	0.099965	616.9	11.9
288.15	0.1501162	617.5	8.5
288.15	0.308394	619.6	5.1
293.15	0.03222	641.7	33
293.15	0.051747	641.1	21.3
293.15	0.079863	639.4	14.4
293.15	0.099965	639.2	11.9
293.15	0.1501162	639.5	8.6
293.15	0.308394	641.1	5.2
298.15	0.03222	661.3	33
298.15	0.051747	660.7	21.3
298.15	0.079863	658.6	14.5
298.15	0.099965	658.8	12
298.15	0.1501162	658.7	8.6
298.15	0.308394	660.1	5.2
303.15	0.03222	678.3	33.1
303.15	0.051747	677.8	21.4
303.15	0.079863	675.4	14.6
303.15	0.099965	676.2	12
303.15	0.1501162	675.7	8.7
303.15	0.308394	676.9	5.3
308.15	0.03222	693.2	33.1
308.15	0.051747	692.9	21.4
308.15	0.079863	690.6	14.6
308.15	0.099965	691.5	12.1
308.15	0.1501162	690.9	8.7
308.15	0.308394	691.8	5.3
313.15	0.03222	706.5	33.2
313.15	0.051747	706.5	21.5
313.15	0.079863	704.1	14.6
313.15	0.099965	705	12.1
313.15	0.1501162	704.3	8.8
313.15	0.308394	705.1	5.4
318.15	0.03222	718.8	33.2
318.15	0.051747	718.9	21.5
318.15	0.079863	716.6	14.7
318.15	0.099965	717.5	12.2
318.15	0.1501162	716.7	8.8
318.15	0.308394	717.3	5.4
323.15	0.03222	730	33.2
323.15	0.051747	730.1	21.5
323.15	0.079863	728	14.7
323.15	0.099965	728.9	12.2
323.15	0.1501162	728.1	8.9
323.15	0.308394	728.5	5.4
328.15	0.03222	740.4	33.3
328.15	0.051747	740.7	21.6
328.15	0.079863	738.6	14.7
328.15	0.099965	739.5	12.2
328.15	0.1501162	738.7	8.9
328.15	0.308394	739	5.5
333.15	0.03222	750.3	33.3
333.15	0.051747	750.6	21.6
333.15	0.079863	748.6	14.8
333.15	0.099965	749.5	12.3
333.15	0.1501162	748.7	8.9
333.15	0.308394	748.9	5.5
338.15	0.03222	759.6	33.3
338.15	0.051747	759.9	21.6
338.15	0.079863	758	14.8
338.15	0.099965	758.9	12.3
338.15	0.1501162	758.1	8.9
338.15	0.308394	758.3	5.5
343.15	0.03222	768.2	33.4
343.15	0.051747	768.6	21.6
343.15	0.079863	766.7	14.8
343.15	0.099965	767.6	12.3
343.15	0.1501162	766.7	9
343.15	0.308394	766.9	5.6
348.15	0.03222	776.4	33.4
348.15	0.051747	776.6	21.7
348.15	0.079863	774.8	14.9
348.15	0.099965	775.8	12.3
348.15	0.1501162	774.9	9
348.15	0.308394	775	5.6
353.15	0.03222	783.8	33.4
353.15	0.051747	784.2	21.7
353.15	0.079863	782.5	14.9
353.15	0.099965	783.5	12.4
353.15	0.1501162	782.6	9
353.15	0.308394	782.7	5.6
358.15	0.03222	791.1	33.4
358.15	0.051747	791.5	21.7
358.15	0.079863	789.8	14.9
358.15	0.099965	790.8	12.4
358.15	0.1501162	789.9	9
358.15	0.308394	789.9	5.6
363.15	0.03222	797.8	33.4
363.15	0.051747	798.3	21.7
363.15	0.079863	796.7	14.9
363.15	0.099965	797.8	12.4
363.15	0.1501162	796.8	9.1
363.15	0.308394	796.8	5.6
368.15	0.03222	803.8	33.5
368.15	0.051747	804.6	21.7
368.15	0.079863	803	14.9
368.15	0.099965	804.1	12.4
368.15	0.1501162	803.1	9.1
368.15	0.308394	803.1	5.7
373.15	0.03222	809.8	33.5
373.15	0.051747	810.7	21.8
373.15	0.079863	809	15
373.15	0.099965	810.1	12.4
373.15	0.1501162	809.2	9.1
373.15	0.308394	809.1	5.7
378.15	0.03222	815	33.5
378.15	0.051747	816.2	21.8
378.15	0.079863	814.6	15
378.15	0.099965	815.8	12.5
378.15	0.1501162	814.7	9.1
378.15	0.308394	814.7	5.7
383.15	0.03222	819.8	33.5
383.15	0.051747	821.3	21.8
383.15	0.079863	819.7	15
383.15	0.099965	821.4	12.5
383.15	0.1501162	820	9.1
383.15	0.308394	819.9	5.7
388.15	0.03222	823	33.5
388.15	0.051747	825.3	21.8
388.15	0.079863	824.1	15
388.15	0.099965	827.6	12.5
388.15	0.1501162	824.9	9.1
388.15	0.308394	824.8	5.7
393.15	0.03222	826.1	33.5
393.15	0.051747	828.7	21.8
393.15	0.079863	827.9	15
393.15	0.099965	833	12.5
393.15	0.1501162	829.1	9.2
393.15	0.308394	829.2	5.7

System: D-cellobiose + water; phases: Liquid
Fixed: Pressure, kPa = 350
Property: Apparent molar volume, m3/mol (Liquid); method: Calculated with densities of this investigation
Temperature, K	Molality, mol/kg of D-cellobiose	Apparent molar volume, m3/mol	uncertainty
278.15	0.03222	0.0002076	2e-06
278.15	0.051747	0.0002082	1.3e-06
278.15	0.079863	0.0002072	8e-07
278.15	0.099965	0.0002078	7e-07
278.15	0.1501162	0.0002074	5e-07
278.15	0.2015057	0.0002081	3e-07
278.15	0.308394	0.0002076	2e-07
283.15	0.03222	0.0002081	2e-06
283.15	0.051747	0.0002088	1.3e-06
283.15	0.079863	0.0002089	8e-07
283.15	0.099965	0.0002089	7e-07
283.15	0.1501162	0.0002089	5e-07
283.15	0.2015057	0.0002094	3e-07
283.15	0.308394	0.0002091	2e-07
288.15	0.03222	0.000211	2.1e-06
288.15	0.051747	0.00021	1.3e-06
288.15	0.079863	0.0002111	8e-07
288.15	0.099965	0.000211	7e-07
288.15	0.1501162	0.0002098	5e-07
288.15	0.2015057	0.0002102	4e-07
288.15	0.308394	0.0002101	2e-07
298.15	0.03222	0.0002156	2.1e-06
298.15	0.051747	0.0002139	1.3e-06
298.15	0.079863	0.000215	9e-07
298.15	0.099965	0.000214	7e-07
298.15	0.1501162	0.0002115	5e-07
298.15	0.2015057	0.0002117	4e-07
298.15	0.308394	0.0002119	2e-07
308.15	0.03222	0.0002146	2.1e-06
308.15	0.051747	0.000215	1.3e-06
308.15	0.079863	0.0002154	9e-07
308.15	0.099965	0.000215	7e-07
308.15	0.1501162	0.0002129	5e-07
308.15	0.2015057	0.0002131	4e-07
308.15	0.308394	0.0002132	2e-07
318.15	0.03222	0.0002118	2.1e-06
318.15	0.051747	0.0002141	1.3e-06
318.15	0.079863	0.0002153	9e-07
318.15	0.099965	0.000215	7e-07
318.15	0.1501162	0.0002138	5e-07
318.15	0.2015057	0.0002142	4e-07
318.15	0.308394	0.0002145	2e-07
328.15	0.03222	0.000212	2.1e-06
328.15	0.051747	0.0002153	1.3e-06
328.15	0.079863	0.0002164	9e-07
328.15	0.099965	0.0002157	7e-07
328.15	0.1501162	0.0002149	5e-07
328.15	0.2015057	0.0002153	4e-07
328.15	0.308394	0.0002156	2e-07
338.15	0.03222	0.000214	2.1e-06
338.15	0.051747	0.0002161	1.3e-06
338.15	0.079863	0.0002171	9e-07
338.15	0.099965	0.0002167	7e-07
338.15	0.1501162	0.0002165	5e-07
338.15	0.2015057	0.0002166	4e-07
338.15	0.308394	0.000217	2e-07
348.15	0.03222	0.0002151	2.1e-06
348.15	0.051747	0.0002178	1.3e-06
348.15	0.079863	0.0002182	9e-07
348.15	0.099965	0.0002176	7e-07
348.15	0.1501162	0.0002176	5e-07
348.15	0.2015057	0.0002178	4e-07
348.15	0.308394	0.000218	2e-07
358.15	0.03222	0.0002183	2.1e-06
358.15	0.051747	0.0002193	1.3e-06
358.15	0.079863	0.0002189	9e-07
358.15	0.099965	0.0002187	7e-07
358.15	0.1501162	0.0002184	5e-07
358.15	0.2015057	0.0002192	4e-07
358.15	0.308394	0.0002189	3e-07
368.15	0.03222	0.0002201	2.1e-06
368.15	0.051747	0.0002193	1.3e-06
368.15	0.079863	0.0002193	9e-07
368.15	0.099965	0.000219	7e-07
368.15	0.1501162	0.0002197	5e-07
368.15	0.2015057	0.0002201	4e-07
368.15	0.308394	0.0002197	3e-07

System: D-maltose + water; phases: Liquid
Fixed: Pressure, kPa = 350
Property: Apparent molar heat capacity, J/K/mol (Liquid); method: Extra sensitive DSC
Temperature, K	Molality, mol/kg of D-maltose	Apparent molar heat capacity, J/K/mol	uncertainty
278.15	0.030227	520.6	34.7
278.15	0.050411	519.9	21.4
278.15	0.080023	521.1	14.1
278.15	0.130187	524.4	9.3
278.15	0.200104	526.2	6.6
278.15	0.200642	527.5	6.6
278.15	0.299063	533.8	5
278.15	0.300114	531.1	4.9
278.15	0.500549	539.2	3.6
278.15	0.546301	544	3.5
283.15	0.030227	554	34.8
283.15	0.050411	553	21.5
283.15	0.080023	554	14.2
283.15	0.130187	556.3	9.4
283.15	0.200104	557.9	6.7
283.15	0.200642	559	6.7
283.15	0.299063	564.2	5
283.15	0.300114	562.2	5.1
283.15	0.500549	568.7	3.7
283.15	0.546301	573.2	3.6
288.15	0.030227	581.9	34.8
288.15	0.050411	580.8	21.6
288.15	0.080023	581.7	14.3
288.15	0.130187	583.6	9.4
288.15	0.200104	585.1	6.8
288.15	0.200642	586.1	6.8
288.15	0.299063	590.4	5.1
288.15	0.300114	588.7	5.1
288.15	0.500549	593.7	3.8
288.15	0.546301	598	3.6
293.15	0.030227	605.1	34.9
293.15	0.050411	604.3	21.7
293.15	0.080023	605.2	14.3
293.15	0.130187	606.8	9.5
293.15	0.200104	608	6.8
293.15	0.200642	609	6.8
293.15	0.299063	612.7	5.2
293.15	0.300114	611.2	5.2
293.15	0.500549	615	3.9
293.15	0.546301	619.1	3.7
298.15	0.030227	625.6	35
298.15	0.050411	624.8	21.7
298.15	0.080023	625.5	14.4
298.15	0.130187	626.8	9.6
298.15	0.200104	627.8	6.9
298.15	0.200642	628.8	6.9
298.15	0.299063	632	5.3
298.15	0.300114	630.6	5.2
298.15	0.500549	633.5	3.9
298.15	0.546301	637.6	3.8
303.15	0.030227	643.6	35
303.15	0.050411	642.9	21.8
303.15	0.080023	643.4	14.4
303.15	0.130187	644.5	9.6
303.15	0.200104	645.3	6.9
303.15	0.200642	646.3	6.9
303.15	0.299063	649.2	5.3
303.15	0.300114	647.9	5.3
303.15	0.500549	650	4
303.15	0.546301	654.1	3.8
308.15	0.030227	660	35.1
308.15	0.050411	659.2	21.8
308.15	0.080023	659.5	14.5
308.15	0.130187	660.4	9.7
308.15	0.200104	661	7
308.15	0.200642	662	7
308.15	0.299063	664.6	5.4
308.15	0.300114	663.3	5.3
308.15	0.500549	664.9	4
308.15	0.546301	668.9	3.8
313.15	0.030227	674.6	35.1
313.15	0.050411	673.7	21.9
313.15	0.080023	673.9	14.5
313.15	0.130187	674.7	9.7
313.15	0.200104	675.2	7
313.15	0.200642	676.2	7
313.15	0.299063	678.5	5.4
313.15	0.300114	677.3	5.4
313.15	0.500549	678.4	4
313.15	0.546301	682.4	3.9
318.15	0.030227	688	35.2
318.15	0.050411	686.9	21.9
318.15	0.080023	687.1	14.6
318.15	0.130187	687.8	9.8
318.15	0.200104	688.1	7.1
318.15	0.200642	689.3	7.1
318.15	0.299063	691.3	5.4
318.15	0.300114	690.2	5.4
318.15	0.500549	691	4.1
318.15	0.546301	694.8	3.9
323.15	0.030227	700.2	35.2
323.15	0.050411	699.1	21.9
323.15	0.080023	699.3	14.6
323.15	0.130187	699.9	9.8
323.15	0.200104	699.9	7.1
323.15	0.200642	701.1	7.1
323.15	0.299063	703	5.5
323.15	0.300114	702	5.5
323.15	0.500549	702.5	4.1
323.15	0.546301	706.2	4
328.15	0.030227	711.6	35.2
328.15	0.050411	710.5	22
328.15	0.080023	710.6	14.6
328.15	0.130187	711	9.8
328.15	0.200104	711	7.1
328.15	0.200642	712.3	7.1
328.15	0.299063	714	5.5
328.15	0.300114	713	5.5
328.15	0.500549	713.2	4.1
328.15	0.546301	716.8	4
333.15	0.030227	722.5	35.3
333.15	0.050411	721.2	22
333.15	0.080023	721.2	14.7
333.15	0.130187	721.6	9.9
333.15	0.200104	721.3	7.2
333.15	0.200642	722.7	7.2
333.15	0.299063	724.2	5.5
333.15	0.300114	723.4	5.5
333.15	0.500549	723.4	4.2
333.15	0.546301	726.9	4
338.15	0.030227	732.7	35.3
338.15	0.050411	731.5	22
338.15	0.080023	731.2	14.7
338.15	0.130187	731.5	9.9
338.15	0.200104	731	7.2
338.15	0.200642	732.5	7.2
338.15	0.299063	733.9	5.6
338.15	0.300114	733.1	5.5
338.15	0.500549	732.9	4.2
338.15	0.546301	736.3	4
343.15	0.030227	742.3	35.3
343.15	0.050411	740.7	22.1
343.15	0.080023	740.4	14.7
343.15	0.130187	740.6	9.9
343.15	0.200104	739.8	7.2
343.15	0.200642	741.5	7.2
343.15	0.299063	742.8	5.6
343.15	0.300114	742.1	5.6
343.15	0.500549	741.6	4.2
343.15	0.546301	745	4.1
348.15	0.030227	751.1	35.3
348.15	0.050411	749.4	22.1
348.15	0.080023	749.1	14.8
348.15	0.130187	749.2	9.9
348.15	0.200104	748.1	7.3
348.15	0.200642	750	7.3
348.15	0.299063	751.3	5.6
348.15	0.300114	750.6	5.6
348.15	0.500549	749.9	4.3
348.15	0.546301	753.2	4.1
353.15	0.030227	759.5	35.4
353.15	0.050411	757.7	22.1
353.15	0.080023	757.3	14.8
353.15	0.130187	757.2	10
353.15	0.200104	755.7	7.3
353.15	0.200642	758	7.3
353.15	0.299063	759.2	5.6
353.15	0.300114	758.6	5.6
353.15	0.500549	757.6	4.3
353.15	0.546301	761	4.1
358.15	0.030227	767.5	35.4
358.15	0.050411	765.5	22.1
358.15	0.080023	765.1	14.8
358.15	0.130187	764.9	10
358.15	0.200104	762.9	7.3
358.15	0.200642	765.6	7.3
358.15	0.299063	766.7	5.7
358.15	0.300114	766.1	5.6
358.15	0.500549	765.1	4.3
358.15	0.546301	768.4	4.1
363.15	0.030227	775	35.4
363.15	0.050411	773	22.2
363.15	0.080023	772.4	14.8
363.15	0.130187	772.2	10
363.15	0.200104	769.8	7.3
363.15	0.200642	772.8	7.4
363.15	0.299063	773.8	5.7
363.15	0.300114	773.3	5.7
363.15	0.500549	772.1	4.3
363.15	0.546301	775.3	4.2
368.15	0.030227	781.8	35.4
368.15	0.050411	779.7	22.2
368.15	0.080023	779.1	14.8
368.15	0.130187	778.8	10
368.15	0.200104	777	7.3
368.15	0.200642	779.4	7.4
368.15	0.299063	780.3	5.7
368.15	0.300114	779.8	5.7
368.15	0.500549	778.5	4.3
368.15	0.546301	781.7	4.2
373.15	0.030227	788.1	35.5
373.15	0.050411	786	22.2
373.15	0.080023	785.5	14.9
373.15	0.130187	785	10
373.15	0.200104	784.5	7.4
373.15	0.200642	785.6	7.4
373.15	0.299063	786.4	5.7
373.15	0.300114	786	5.7
373.15	0.500549	784.6	4.4
373.15	0.546301	787.7	4.2
378.15	0.030227	794	35.5
378.15	0.050411	791.8	22.2
378.15	0.080023	791.2	14.9
378.15	0.130187	790.8	10.1
378.15	0.200104	790.7	7.4
378.15	0.200642	791.4	7.4
378.15	0.299063	792.1	5.7
378.15	0.300114	791.7	5.7
378.15	0.500549	790.1	4.4
378.15	0.546301	793.3	4.2
383.15	0.030227	799.3	35.5
383.15	0.050411	797	22.2
383.15	0.080023	796.6	14.9
383.15	0.130187	796.1	10.1
383.15	0.200104	796	7.4
383.15	0.200642	796.6	7.4
383.15	0.299063	797.3	5.7
383.15	0.300114	797	5.7
383.15	0.500549	795.4	4.4
383.15	0.546301	798.4	4.2
388.15	0.030227	804	35.5
388.15	0.050411	801.8	22.3
388.15	0.080023	801.5	14.9
388.15	0.130187	801	10.1
388.15	0.200104	801	7.4
388.15	0.200642	801.5	7.4
388.15	0.299063	802.2	5.8
388.15	0.300114	801.8	5.7
388.15	0.500549	800.2	4.4
388.15	0.546301	803.2	4.3
393.15	0.030227	808.1	35.5
393.15	0.050411	806	22.3
393.15	0.080023	805.8	14.9
393.15	0.130187	805.3	10.1
393.15	0.200104	805.4	7.4
393.15	0.200642	806	7.4
393.15	0.299063	806.7	5.8
393.15	0.300114	806.4	5.8
393.15	0.500549	804.7	4.4
393.15	0.546301	807.7	4.3

System: D-maltose + water; phases: Liquid
Fixed: Pressure, kPa = 350
Property: Apparent molar volume, m3/mol (Liquid); method: Calculated with densities of this investigation
Temperature, K	Molality, mol/kg of D-maltose	Apparent molar volume, m3/mol	uncertainty
278.15	0.030227	0.0002008	2.5e-06
278.15	0.050411	0.0002041	1.6e-06
278.15	0.080023	0.0002024	1.1e-06
278.15	0.080119	0.0002008	1.1e-06
278.15	0.130048	0.0002039	7e-07
278.15	0.130187	0.0002027	8e-07
278.15	0.200104	0.0002052	4e-07
278.15	0.200642	0.0002052	4e-07
278.15	0.299063	0.0002058	5e-07
278.15	0.300114	0.0002055	4e-07
278.15	0.500549	0.0002066	4e-07
278.15	0.546301	0.0002069	4e-07
283.15	0.030227	0.0002041	1.4e-06
283.15	0.050411	0.0002059	9e-07
283.15	0.080023	0.0002045	7e-07
283.15	0.080119	0.0002029	7e-07
283.15	0.130048	0.0002056	5e-07
283.15	0.130187	0.000205	5e-07
283.15	0.200104	0.0002064	4e-07
283.15	0.200642	0.0002064	4e-07
283.15	0.299063	0.000207	4e-07
283.15	0.300114	0.0002068	4e-07
283.15	0.500549	0.0002079	4e-07
283.15	0.546301	0.0002082	4e-07
288.15	0.030227	0.0002063	8e-07
288.15	0.050411	0.0002072	7e-07
288.15	0.080023	0.0002062	5e-07
288.15	0.080119	0.0002043	5e-07
288.15	0.130048	0.0002067	4e-07
288.15	0.130187	0.0002065	4e-07
288.15	0.200104	0.0002076	4e-07
288.15	0.200642	0.0002075	4e-07
288.15	0.299063	0.0002081	4e-07
288.15	0.300114	0.0002079	4e-07
288.15	0.500549	0.0002088	4e-07
288.15	0.546301	0.0002092	4e-07
298.15	0.030227	0.0002082	1.1e-06
298.15	0.050411	0.0002093	4e-07
298.15	0.080023	0.0002084	5e-07
298.15	0.080119	0.0002071	5e-07
298.15	0.130048	0.0002086	4e-07
298.15	0.130187	0.0002087	5e-07
298.15	0.200104	0.0002095	4e-07
298.15	0.200642	0.0002094	4e-07
298.15	0.299063	0.0002099	4e-07
298.15	0.300114	0.0002097	4e-07
298.15	0.500549	0.0002106	4e-07
298.15	0.546301	0.0002109	4e-07
308.15	0.030227	0.0002103	6e-07
308.15	0.050411	0.0002108	5e-07
308.15	0.080023	0.0002101	4e-07
308.15	0.080119	0.000209	4e-07
308.15	0.130048	0.0002103	4e-07
308.15	0.130187	0.0002105	4e-07
308.15	0.200104	0.000211	4e-07
308.15	0.200642	0.0002109	4e-07
308.15	0.299063	0.0002113	4e-07
308.15	0.300114	0.0002111	4e-07
308.15	0.500549	0.000212	4e-07
308.15	0.546301	0.0002123	4e-07
318.15	0.030227	0.0002122	8e-07
318.15	0.050411	0.0002121	1.1e-06
318.15	0.080023	0.0002119	5e-07
318.15	0.080119	0.0002098	5e-07
318.15	0.130048	0.0002118	5e-07
318.15	0.130187	0.0002118	4e-07
318.15	0.200104	0.0002121	5e-07
318.15	0.200642	0.0002123	5e-07
318.15	0.299063	0.0002127	4e-07
318.15	0.300114	0.0002126	4e-07
318.15	0.500549	0.0002134	3e-07
318.15	0.546301	0.0002137	4e-07
328.15	0.030227	0.0002124	6e-07
328.15	0.050411	0.0002128	5e-07
328.15	0.080023	0.0002125	4e-07
328.15	0.080119	0.0002111	4e-07
328.15	0.130048	0.0002129	3e-07
328.15	0.130187	0.0002126	4e-07
328.15	0.200104	0.0002136	4e-07
328.15	0.200642	0.0002134	4e-07
328.15	0.299063	0.0002138	3e-07
328.15	0.300114	0.0002137	3e-07
328.15	0.500549	0.0002146	3e-07
328.15	0.546301	0.0002148	3e-07
338.15	0.030227	0.000208	7.3e-06
338.15	0.050411	0.0002137	5e-07
338.15	0.080023	0.0002164	2.8e-06
338.15	0.080119	0.0002153	2.8e-06
338.15	0.130048	0.0002141	3e-07
338.15	0.130187	0.0002141	1.8e-06
338.15	0.200104	0.0002152	4e-07
338.15	0.200642	0.0002148	4e-07
338.15	0.299063	0.0002151	3e-07
338.15	0.300114	0.000215	3e-07
338.15	0.500549	0.0002158	3e-07
338.15	0.546301	0.0002161	3e-07
348.15	0.030227	0.0002142	1.01e-05
348.15	0.050411	0.0002156	1.1e-06
348.15	0.080023	0.0002153	3.8e-06
348.15	0.080119	0.0002149	3.8e-06
348.15	0.130048	0.0002149	5e-07
348.15	0.130187	0.0002158	2.4e-06
348.15	0.200104	0.0002164	4e-07
348.15	0.200642	0.000216	4e-07
348.15	0.299063	0.0002164	3e-07
348.15	0.300114	0.000216	3e-07
348.15	0.500549	0.0002169	3e-07
348.15	0.546301	0.0002172	3e-07
358.15	0.030227	0.0002072	3.7e-06
358.15	0.050411	0.0002166	1.4e-06
358.15	0.080023	0.0002164	1.5e-06
358.15	0.080119	0.0002154	1.5e-06
358.15	0.130048	0.0002159	6e-07
358.15	0.130187	0.0002167	1e-06
358.15	0.200104	0.0002172	4e-07
358.15	0.200642	0.0002169	4e-07
358.15	0.299063	0.0002171	4e-07
358.15	0.300114	0.000217	3e-07
358.15	0.500549	0.000218	3e-07
358.15	0.546301	0.0002182	3e-07
368.15	0.030227	0.0002008	9.7e-06
368.15	0.050411	0.0002171	5e-07
368.15	0.080023	0.0002126	3.7e-06
368.15	0.080119	0.0002152	3.7e-06
368.15	0.130048	0.0002168	3e-07
368.15	0.130187	0.0002163	2.3e-06
368.15	0.200104	0.0002181	3e-07
368.15	0.200642	0.0002179	3e-07
368.15	0.299063	0.0002178	3e-07
368.15	0.300114	0.0002178	3e-07
368.15	0.500549	0.0002188	3e-07
368.15	0.546301	0.000219	3e-07
