Measured thermophysical data. Vapor liquid equilibria for binary mixtures of difluoromethane (R32) + fluoroethane (R161) and fluoroethane (R161) + trans-1,3,3,3-tetrafluoropropene (R1234ze(E))
Source: J. Chem. Thermodyn., 2018, 10.1016/j.jct.2017.10.015
Compound 1: difluoromethane, CH2F2, InChI=1S/CH2F2/c2-1-3/h1H2, purity 99.8%
Compound 2: fluoroethane, C2H5F, InChI=1S/C2H5F/c1-2-3/h2H2,1H3, purity 99.7%
Compound 3: trans-1,3,3,3-tetrafluoropropene, C3H2F4, InChI=1S/C3H2F4/c4-2-1-3(5,6)7/h1-2H/b2-1+, purity 99.5%

System: difluoromethane + fluoroethane; phases: Liquid, Gas
Property: Vapor or sublimation pressure, kPa (Liquid); method: Closed cell (Static) method
Mole fraction of difluoromethane	Temperature, K	Vapor or sublimation pressure, kPa	uncertainty
0	283.15	601.4	2
0.0913	283.15	648.2	5.6
0.2248	283.15	717.9	5.8
0.2905	283.15	753.2	5.9
0.406	283.15	814.6	5.9
0.4875	283.15	857.3	5.9
0.6124	283.15	921.8	5.9
0.6862	283.15	958.6	5.8
0.8242	283.15	1026	5.8
0.9427	283.15	1081.1	5.8
1	283.15	1107.3	3.5
0	293.15	805.6	2.6
0.0906	293.15	866.2	7.2
0.2236	293.15	957.9	7.9
0.2894	293.15	1003.5	7.3
0.4041	293.15	1083.2	7.9
0.4856	293.15	1140	7.8
0.6108	293.15	1230.1	8.2
0.6837	293.15	1274.4	7.2
0.8235	293.15	1364.9	7.8
0.9414	293.15	1438.8	8.2
1	293.15	1474	4.7
0	303.15	1057.4	3.3
0.0902	303.15	1135.1	9.3
0.2226	303.15	1251.9	10.1
0.2875	303.15	1310.3	9.6
0.4016	303.15	1413.3	10.2
0.4841	303.15	1487.1	9.9
0.6096	303.15	1599.4	10.5
0.6823	303.15	1661.5	9.6
0.8223	303.15	1781.5	10.2
0.9407	303.15	1878.7	10.6
1	303.15	1925.8	6.1
0	313.15	1363.6	4.3
0.0899	313.15	1461.4	11.7
0.2218	313.15	1607.8	12.7
0.2858	313.15	1681.1	12.2
0.3992	313.15	1811.3	13
0.482	313.15	1905.5	12.6
0.6081	313.15	2050.3	13.5
0.6801	313.15	2129.7	12.5
0.822	313.15	2286.2	13.2
0.9393	313.15	2411.7	13.7
1	313.15	2476.2	7.8
0	323.15	1730.6	5.4
0.0896	323.15	1852	14.9
0.2197	323.15	2032.9	15.4
0.2843	323.15	2124.4	15.7
0.397	323.15	2285.6	16.1
0.4797	323.15	2405.1	16.3
0.6069	323.15	2589.4	16.5
0.6785	323.15	2689.6	16.5
0.8206	323.15	2893	16.7
0.9382	323.15	3054.2	16.7
1	323.15	3138	9.8

System: difluoromethane + fluoroethane; phases: Gas, Liquid
Property: Mole fraction of difluoromethane (Gas); method: Chromatography
Mole fraction of difluoromethane	Temperature, K	Mole fraction of difluoromethane	uncertainty
0	283.15	0	
0.0913	283.15	0.1457	0.0179
0.2248	283.15	0.3326	0.017
0.2905	283.15	0.4123	0.0154
0.406	283.15	0.5371	0.0148
0.4875	283.15	0.6127	0.0137
0.6124	283.15	0.7195	0.0133
0.6862	283.15	0.7786	0.0126
0.8242	283.15	0.8784	0.0123
0.9427	283.15	0.9591	0.0122
1	283.15	1	
0	293.15	0	
0.0906	293.15	0.1415	0.0176
0.2236	293.15	0.3248	0.0169
0.2894	293.15	0.4032	0.0153
0.4041	293.15	0.5268	0.0149
0.4856	293.15	0.6038	0.0139
0.6108	293.15	0.7131	0.0134
0.6837	293.15	0.7723	0.0127
0.8235	293.15	0.8754	0.0124
0.9414	293.15	0.9583	0.0122
1	293.15	1	
0	303.15	0	
0.0902	303.15	0.1384	0.0174
0.2226	303.15	0.3171	0.0167
0.2875	303.15	0.3937	0.0153
0.4016	303.15	0.5162	0.0149
0.4841	303.15	0.5952	0.0139
0.6096	303.15	0.7057	0.0134
0.6823	303.15	0.7646	0.0128
0.8223	303.15	0.8715	0.0125
0.9407	303.15	0.9574	0.0123
1	303.15	1	
0	313.15	0	
0.0899	313.15	0.1346	0.0171
0.2218	313.15	0.3079	0.0165
0.2858	313.15	0.3834	0.0152
0.3992	313.15	0.5045	0.015
0.482	313.15	0.5851	0.014
0.6081	313.15	0.6967	0.0135
0.6801	313.15	0.7566	0.0129
0.822	313.15	0.8667	0.0126
0.9393	313.15	0.9544	0.0125
1	313.15	1	
0	323.15	0	
0.0896	323.15	0.1307	0.0169
0.2197	323.15	0.2982	0.0162
0.2843	323.15	0.3727	0.0151
0.397	323.15	0.4922	0.0149
0.4797	323.15	0.5725	0.0141
0.6069	323.15	0.6871	0.0136
0.6785	323.15	0.7473	0.0131
0.8206	323.15	0.8612	0.0128
0.9382	323.15	0.9521	0.0126
1	323.15	1	

System: fluoroethane + trans-1,3,3,3-tetrafluoropropene; phases: Liquid, Gas
Property: Vapor or sublimation pressure, kPa (Liquid); method: Closed cell (Static) method
Mole fraction of fluoroethane	Temperature, K	Vapor or sublimation pressure, kPa	uncertainty
0	283.15	308.6	1.4
0.1416	283.15	340.8	2.7
0.22	283.15	359.6	2.8
0.3322	283.15	386.8	3
0.4382	283.15	415.8	3.3
0.5782	283.15	457.1	3.4
0.6335	283.15	474.3	3.7
0.7184	283.15	502.2	3.9
0.8152	283.15	536.4	3.9
0.9026	283.15	565.9	4
1	283.15	601.4	2
0	293.15	428	1.6
0.1396	293.15	469.2	3.6
0.2181	293.15	493.6	3.5
0.3287	293.15	528.9	3.8
0.434	293.15	566.1	4.1
0.575	293.15	619.6	4.6
0.6298	293.15	641.4	4.4
0.7154	293.15	676.9	4.8
0.8132	293.15	720.8	5
0.9024	293.15	759.4	5.1
1	293.15	805.6	2.6
0	303.15	578.9	2
0.1381	303.15	631.2	4.5
0.2172	303.15	662.6	4.5
0.3266	303.15	707.3	4.9
0.4321	303.15	754.7	5.2
0.5738	303.15	822.4	5.8
0.6282	303.15	849.5	5.6
0.7133	303.15	894.3	6
0.8127	303.15	949.4	6.3
0.9022	303.15	999	6.5
1	303.15	1057.4	3.3
0	313.15	767.4	2.4
0.1375	313.15	832.4	5.7
0.2156	313.15	871.5	5.6
0.3237	313.15	927	6.1
0.43	313.15	985.7	6.4
0.5726	313.15	1070.1	7.3
0.626	313.15	1104	7.1
0.7117	313.15	1160.3	7.5
0.8111	313.15	1227.5	7.9
0.9009	313.15	1290.1	8.2
1	313.15	1363.6	4.3
0	323.15	997.8	3.1
0.1364	323.15	1078.4	6.9
0.2141	323.15	1126.6	7.2
0.3218	323.15	1194.9	7.6
0.4269	323.15	1266.8	8.1
0.57	323.15	1370.8	8.5
0.6244	323.15	1411.8	9
0.711	323.15	1480.9	9.4
0.8096	323.15	1562.9	9.8
0.9002	323.15	1640.6	10.2
1	323.15	1730.6	5.4

System: fluoroethane + trans-1,3,3,3-tetrafluoropropene; phases: Gas, Liquid
Property: Mole fraction of fluoroethane (Gas); method: Chromatography
Mole fraction of fluoroethane	Temperature, K	Mole fraction of fluoroethane	uncertainty
0	283.15	0	
0.1416	283.15	0.2123	0.0178
0.22	283.15	0.3193	0.0165
0.3322	283.15	0.4574	0.0159
0.4382	283.15	0.5746	0.0146
0.5782	283.15	0.7049	0.014
0.6335	283.15	0.7596	0.0132
0.7184	283.15	0.8233	0.0126
0.8152	283.15	0.8949	0.0121
0.9026	283.15	0.9483	0.0115
1	283.15	1	
0	293.15	0	
0.1396	293.15	0.2049	0.0175
0.2181	293.15	0.3098	0.0163
0.3287	293.15	0.4446	0.0158
0.434	293.15	0.5615	0.0147
0.575	293.15	0.6952	0.014
0.6298	293.15	0.748	0.0133
0.7154	293.15	0.816	0.0127
0.8132	293.15	0.8879	0.0122
0.9024	293.15	0.9448	0.0117
1	293.15	1	
0	303.15	0	
0.1381	303.15	0.1985	0.0173
0.2172	303.15	0.3011	0.0161
0.3266	303.15	0.4324	0.0157
0.4321	303.15	0.5482	0.0147
0.5738	303.15	0.684	0.0141
0.6282	303.15	0.7363	0.0134
0.7133	303.15	0.8066	0.0128
0.8127	303.15	0.8812	0.0123
0.9022	303.15	0.9411	0.0118
1	303.15	1	
0	313.15	0	
0.1375	313.15	0.1914	0.017
0.2156	313.15	0.2918	0.016
0.3237	313.15	0.4196	0.0155
0.43	313.15	0.5352	0.0148
0.5726	313.15	0.6755	0.0142
0.626	313.15	0.7244	0.0135
0.7117	313.15	0.7972	0.013
0.8111	313.15	0.8737	0.0125
0.9009	313.15	0.937	0.012
1	313.15	1	
0	323.15	0	
0.1364	323.15	0.1852	0.0167
0.2141	323.15	0.283	0.0158
0.3218	323.15	0.4082	0.0154
0.4269	323.15	0.5223	0.0149
0.57	323.15	0.6635	0.0142
0.6244	323.15	0.7126	0.0135
0.711	323.15	0.7878	0.0131
0.8096	323.15	0.867	0.0127
0.9002	323.15	0.933	0.0122
1	323.15	1	
