Measured thermophysical data. Solubility data and modeling for sugar alcohols in ionic liquids
Source: J. Chem. Thermodyn., 2014, 10.1016/j.jct.2014.04.021
Compound 1: 1-ethyl-1-methylpiperidinium bis(trifluoromethylsulfonyl)imide, C10H18F6N2O4S2, InChI=1S/C8H18N.C2F6NO4S2/c1-3-9(2)7-5-4-6-8-9;3-1(4,5)14(10,11)9-15(12,13)2(6,7)8/h3-8H2,1-2H3;/q+1;-1, purity 99%
Compound 2: 1-hexyl-1-methylpiperidinium bis(trifluoromethanesulfonyl)imide, C14H26F6N2O4S2, InChI=1S/C12H26N.C2F6NO4S2/c1-3-4-5-7-10-13(2)11-8-6-9-12-13;3-1(4,5)14(10,11)9-15(12,13)2(6,7)8/h3-12H2,1-2H3;/q+1;-1, purity 99%
Compound 3: 1-hexylquinolinium bis(trifluoromethylsulfonyl)amide, C17H20F6N2O4S2, InChI=1S/C15H20N.C2F6NO4S2/c1-2-3-4-7-12-16-13-8-10-14-9-5-6-11-15(14)16;3-1(4,5)14(10,11)9-15(12,13)2(6,7)8/h5-6,8-11,13H,2-4,7,12H2,1H3;/q+1;-1
Compound 4: N-hexylisoquinolinium bis(trifluoromethylsulfonyl)imide, C17H20F6N2O4S2, InChI=1S/C15H20N.C2F6NO4S2/c1-2-3-4-7-11-16-12-10-14-8-5-6-9-15(14)13-16;3-1(4,5)14(10,11)9-15(12,13)2(6,7)8/h5-6,8-10,12-13H,2-4,7,11H2,1H3;/q+1;-1
Compound 5: 1-butyl-3-methylimidazolium 4,5-dicyano-2-(trifluoromethyl)imidazolide, C14H15F3N6, InChI=1S/C8H15N2.C6F3N4/c1-3-4-5-10-7-6-9(2)8-10;7-6(8,9)5-12-3(1-10)4(2-11)13-5/h6-8H,3-5H2,1-2H3;/q+1;-1
Compound 6: 1-(cyanomethyl)-3-methylimidazolium 4,5-dicyano-2-(trifluoromethyl)imidazolide, C12H8F3N7, InChI=1S/C6F3N4.C6H8N3/c7-6(8,9)5-12-3(1-10)4(2-11)13-5;1-8-4-5-9(6-8)3-2-7/h;4-6H,3H2,1H3/q-1;+1
Compound 7: D-sorbitol, C6H14O6, InChI=1S/C6H14O6/c7-1-3(9)5(11)6(12)4(10)2-8/h3-12H,1-2H2/t3-,4+,5-,6-/m1/s1, purity 99%
Compound 8: xylitol, C5H12O5, InChI=1S/C5H12O5/c6-1-3(8)5(10)4(9)2-7/h3-10H,1-2H2/t3-,4+,5+, purity 99%

System: 1-hexyl-1-methylpiperidinium bis(trifluoromethanesulfonyl)imide; phases: Liquid
Fixed: Pressure, kPa = 101.325
Property: Mass density, kg/m3 (Liquid); method: Vibrating tube method
Temperature, K	Mass density, kg/m3	uncertainty
298.15	1325.4	1.1
293	1329.5	1.1

System: 1-hexylquinolinium bis(trifluoromethylsulfonyl)amide; phases: Crystal, Liquid, Air at 1 atmosphere
Property: Normal melting temperature, K (Crystal); method: DTA
Normal melting temperature, K	uncertainty
318	0.4

System: N-hexylisoquinolinium bis(trifluoromethylsulfonyl)imide; phases: Liquid
Property: Mass density, kg/m3 (Liquid); method: Vibrating tube method
Temperature, K	Pressure, kPa	Mass density, kg/m3	uncertainty
333.2	101.325	1349.3	1.8

System: 1-butyl-3-methylimidazolium 4,5-dicyano-2-(trifluoromethyl)imidazolide; phases: Liquid
Property: Mass density, kg/m3 (Liquid); method: Vibrating tube method
Temperature, K	Pressure, kPa	Mass density, kg/m3	uncertainty
298.15	101.325	1199.65	1.53

System: 1-(cyanomethyl)-3-methylimidazolium 4,5-dicyano-2-(trifluoromethyl)imidazolide; phases: Crystal, Liquid, Air at 1 atmosphere
Property: Normal melting temperature, K (Crystal); method: DTA
Normal melting temperature, K	uncertainty
365.8	0.4

System: D-sorbitol; phases: Crystal, Liquid, Air at 1 atmosphere
Property: Normal melting temperature, K (Crystal); method: DTA
Normal melting temperature, K	uncertainty
371.7	0.4

System: xylitol; phases: Crystal, Liquid, Air at 1 atmosphere
Property: Normal melting temperature, K (Crystal); method: DTA
Normal melting temperature, K	uncertainty
367.2	0.4

System: D-sorbitol + 1-ethyl-1-methylpiperidinium bis(trifluoromethylsulfonyl)imide; phases: Liquid mixture 1, Liquid mixture 2
Fixed: Pressure, kPa = 101.33
Property: Liquid-liquid equilibrium temperature, K (Liquid mixture 1); method: VISOBS
Mole fraction of D-sorbitol	Liquid-liquid equilibrium temperature, K	uncertainty
0.9989	376.4	0.4
0.9983	385.5	0.4
0.9967	413.5	0.4
0.9958	434.4	0.4
0.9941	457	0.4
0.9929	480.9	0.4
0.0076	481.3	0.4
0.0061	454.5	0.4
0.0045	432.4	0.4

System: D-sorbitol + 1-hexyl-1-methylpiperidinium bis(trifluoromethanesulfonyl)imide; phases: Liquid mixture 1, Liquid mixture 2
Fixed: Pressure, kPa = 101.33
Property: Liquid-liquid equilibrium temperature, K (Liquid mixture 1); method: VISOBS
Mole fraction of D-sorbitol	Liquid-liquid equilibrium temperature, K	uncertainty
0.9913	407.3	0.4
0.9891	417.9	0.4
0.98	444.6	0.4
0.9743	463	0.4
0.1043	498.5	0.4
0.0351	421.5	0.4
0.0273	399.1	0.4
0.0226	382	0.4

System: D-sorbitol + 1-hexylquinolinium bis(trifluoromethylsulfonyl)amide; phases: Liquid mixture 1, Liquid mixture 2
Fixed: Pressure, kPa = 101.33
Property: Liquid-liquid equilibrium temperature, K (Liquid mixture 1); method: VISOBS
Mole fraction of D-sorbitol	Liquid-liquid equilibrium temperature, K	uncertainty
0.9992	438.3	0.4
0.997	473.2	0.4
0.9901	502.3	0.4
0.083	493.2	0.4
0.0549	468.2	0.4
0.1244	501.2	0.4

System: D-sorbitol + N-hexylisoquinolinium bis(trifluoromethylsulfonyl)imide; phases: Liquid mixture 1, Liquid mixture 2
Fixed: Pressure, kPa = 101.33
Property: Liquid-liquid equilibrium temperature, K (Liquid mixture 1); method: VISOBS
Mole fraction of D-sorbitol	Liquid-liquid equilibrium temperature, K	uncertainty
0.9989	411.5	0.4
0.9976	461	0.4
0.997	498.3	0.4
0.0041	499.8	0.4
0.0021	451.7	0.4

System: D-sorbitol + 1-butyl-3-methylimidazolium 4,5-dicyano-2-(trifluoromethyl)imidazolide; phases: Liquid mixture 1, Liquid mixture 2
Fixed: Pressure, kPa = 101.33
Property: Liquid-liquid equilibrium temperature, K (Liquid mixture 1); method: VISOBS
Mole fraction of D-sorbitol	Liquid-liquid equilibrium temperature, K	uncertainty
0.9852	400.7	0.4
0.9528	432.4	0.4
0.9378	437.5	0.4
0.8651	453.4	0.4
0.8458	454.4	0.4
0.6781	457.2	0.4
0.4526	456.1	0.4
0.2844	451.6	0.4
0.1746	426.7	0.4
0.1489	412.7	0.4
0.1345	407	0.4
0.1003	378.9	0.4

System: D-sorbitol + 1-butyl-3-methylimidazolium 4,5-dicyano-2-(trifluoromethyl)imidazolide; phases: Liquid, Crystal
Fixed: Pressure, kPa = 101.33
Property: Solid-liquid equilibrium temperature, K (Liquid); method: VISOBS
Mole fraction of D-sorbitol	Solid-liquid equilibrium temperature, K	uncertainty
0.0752	365.7	0.4
0.0384	356.7	0.4

System: D-sorbitol + 1-butyl-3-methylimidazolium 4,5-dicyano-2-(trifluoromethyl)imidazolide; phases: Liquid mixture 1, Liquid mixture 2, Crystal
Property: Monotectic temperature, K (Liquid mixture 1); method: VISOBS
Pressure, kPa	Monotectic temperature, K	uncertainty
101.33	365.7	0.7

System: xylitol + 1-ethyl-1-methylpiperidinium bis(trifluoromethylsulfonyl)imide; phases: Liquid mixture 1, Liquid mixture 2
Fixed: Pressure, kPa = 101.33
Property: Liquid-liquid equilibrium temperature, K (Liquid mixture 1); method: VISOBS
Mole fraction of xylitol	Liquid-liquid equilibrium temperature, K	uncertainty
0.9985	393	0.4
0.9971	419.4	0.4
0.9961	443.2	0.4
0.995	461.7	0.4
0.994	483.2	0.4
0.0075	490.7	0.4
0.0059	482.1	0.4
0.0049	467.1	0.4
0.0043	440.9	0.4

System: xylitol + 1-hexyl-1-methylpiperidinium bis(trifluoromethanesulfonyl)imide; phases: Liquid mixture 1, Liquid mixture 2
Fixed: Pressure, kPa = 101.33
Property: Liquid-liquid equilibrium temperature, K (Liquid mixture 1); method: VISOBS
Mole fraction of xylitol	Liquid-liquid equilibrium temperature, K	uncertainty
0.992	418.2	0.4
0.9802	459.9	0.4
0.9713	498.8	0.4
0.0318	431.6	0.4
0.0302	421.1	0.4
0.0285	410.1	0.4
0.0272	402.5	0.4
0.0261	398.2	0.4
0.0232	385.3	0.4
0.0187	356.3	0.4

System: xylitol + 1-hexylquinolinium bis(trifluoromethylsulfonyl)amide; phases: Liquid mixture 1, Liquid mixture 2
Fixed: Pressure, kPa = 101.33
Property: Liquid-liquid equilibrium temperature, K (Liquid mixture 1); method: VISOBS
Mole fraction of xylitol	Liquid-liquid equilibrium temperature, K	uncertainty
0.9977	413.3	0.4
0.996	435.4	0.4
0.9891	480	0.4
0.9828	501.5	0.4
0.02	463.2	0.4
0.01	433.2	0.4

System: xylitol + N-hexylisoquinolinium bis(trifluoromethylsulfonyl)imide; phases: Liquid mixture 1, Liquid mixture 2
Fixed: Pressure, kPa = 101.33
Property: Liquid-liquid equilibrium temperature, K (Liquid mixture 1); method: VISOBS
Mole fraction of xylitol	Liquid-liquid equilibrium temperature, K	uncertainty
0.9991	393.9	0.4
0.998	419	0.4
0.9974	438.6	0.4
0.9962	471.8	0.4
0.0081	498.2	0.4
0.007	467.4	0.4

System: xylitol + 1-butyl-3-methylimidazolium 4,5-dicyano-2-(trifluoromethyl)imidazolide; phases: Liquid mixture 1, Liquid mixture 2
Fixed: Pressure, kPa = 101.33
Property: Liquid-liquid equilibrium temperature, K (Liquid mixture 1); method: VISOBS
Mole fraction of xylitol	Liquid-liquid equilibrium temperature, K	uncertainty
0.9914	377.5	0.4
0.9676	384.4	0.4
0.9011	411.2	0.4
0.8618	421.5	0.4
0.7325	443.3	0.4
0.6655	445.9	0.4
0.4649	445.3	0.4
0.3425	421.7	0.4
0.231	397.7	0.4
0.1886	382.9	0.4
0.1442	362.2	0.4

System: xylitol + 1-butyl-3-methylimidazolium 4,5-dicyano-2-(trifluoromethyl)imidazolide; phases: Liquid, Crystal
Fixed: Pressure, kPa = 101.33
Property: Solid-liquid equilibrium temperature, K (Liquid); method: VISOBS
Mole fraction of xylitol	Solid-liquid equilibrium temperature, K	uncertainty
0.1079	361.1	0.4
0.0541	350.8	0.4

System: xylitol + 1-butyl-3-methylimidazolium 4,5-dicyano-2-(trifluoromethyl)imidazolide; phases: Liquid mixture 1, Liquid mixture 2, Crystal
Property: Monotectic temperature, K (Liquid mixture 1); method: VISOBS
Pressure, kPa	Monotectic temperature, K	uncertainty
101.33	360.6	0.5
