Measured thermophysical data. The vapor pressure and vaporization enthalpy of squalene and squalane by correlation gas chromatography
Source: J. Chem. Thermodyn., 2019, 10.1016/j.jct.2019.03.032
Compound 1: 2,6,10,14,18,22-tetracosahexaene, 2,6,10,15,19,23-hexamethyl-, (all-E)-, C30H50, InChI=1S/C30H50/c1-25(2)15-11-19-29(7)23-13-21-27(5)17-9-10-18-28(6)22-14-24-30(8)20-12-16-26(3)4/h15-18,23-24H,9-14,19-22H2,1-8H3/b27-17+,28-18+,29-23+,30-24+, purity 98%
Compound 2: 2,6,10,15,19,23-hexamethyltetracosane, C30H62, InChI=1S/C30H62/c1-25(2)15-11-19-29(7)23-13-21-27(5)17-9-10-18-28(6)22-14-24-30(8)20-12-16-26(3)4/h25-30H,9-24H2,1-8H3, purity 96%

System: 2,6,10,14,18,22-tetracosahexaene, 2,6,10,15,19,23-hexamethyl-, (all-E)-; phases: Liquid, Gas
Property: Molar enthalpy of vaporization or sublimation, kJ/mol (Liquid); method: Correlation gas chromatography
Temperature, K	Molar enthalpy of vaporization or sublimation, kJ/mol	uncertainty
298.15	139.8	5.4

System: 2,6,10,14,18,22-tetracosahexaene, 2,6,10,15,19,23-hexamethyl-, (all-E)-; phases: Metastable liquid, Gas
Property: Vapor or sublimation pressure, kPa (Metastable liquid); method: Gas chromatography
Temperature, K	Vapor or sublimation pressure, kPa	uncertainty
298.15	3.7e-10	7.77e-09
310	3.1e-09	8e-09
320	1.6e-08	2.2e-08
330	7.5e-08	4.2e-08
340	3.1e-07	1.4e-07
350	1.2e-06	6e-07
360	3.9e-06	1.6e-06
370	1.2e-05	4e-06
380	3.5e-05	1.2e-05
390	9.3e-05	7e-06
400	0.00023	6e-05
410	0.00055	0.00015
420	0.0012	0.0002
430	0.0026	0.0004
440	0.0053	0.0009
450	0.01	0.002
460	0.019	0.002
470	0.035	0.005
480	0.061	0.007
490	0.1	0.011
500	0.17	0.017
510	0.27	0.025
520	0.42	0.036
530	0.63	0.052
540	0.94	0.073
550	1.4	0.108
560	2	0.155
570	2.8	0.217
580	3.8	0.294
590	5.1	0.395
600	6.9	0.535
709.1	101.325	10.135

System: 2,6,10,15,19,23-hexamethyltetracosane; phases: Liquid, Gas
Property: Molar enthalpy of vaporization or sublimation, kJ/mol (Liquid); method: Correlation gas chromatography
Temperature, K	Molar enthalpy of vaporization or sublimation, kJ/mol	uncertainty
298.15	134.4	5.4

System: 2,6,10,15,19,23-hexamethyltetracosane; phases: Metastable liquid, Gas
Property: Vapor or sublimation pressure, kPa (Metastable liquid); method: Gas chromatography
Temperature, K	Vapor or sublimation pressure, kPa	uncertainty
298.15	1.5e-09	7.9e-09
310	1.2e-08	1.1e-08
320	5.9e-08	3.6e-08
330	2.6e-07	1.4e-07
340	1e-06	4e-07
350	3.5e-06	1.4e-06
360	1.1e-05	4e-06
370	3.4e-05	1.2e-05
380	9.2e-05	7e-06
390	0.00024	6e-05
400	0.00057	0.00015
410	0.0013	0.0002
420	0.0028	0.0006
430	0.0059	0.0011
440	0.012	0.002
450	0.022	0.004
460	0.04	0.005
470	0.071	0.009
480	0.121	0.015
490	0.2	0.021
500	0.32	0.032
510	0.51	0.046
520	0.78	0.065
530	1.2	0.095
540	1.7	0.132
550	2.5	0.194
560	3.5	0.271
570	4.8	0.372
580	6.6	0.512
590	8.9	0.69
600	12	0.931
686.4	101.325	10.141
