Measured thermophysical data. Thermodynamic properties of 1-naphthol: Mutual validation of experimental and computational results
Source: J. Chem. Thermodyn., 2015, 10.1016/j.jct.2015.02.008
Compound 1: carbon dioxide, CO2, InChI=1S/CO2/c2-1-3
Compound 2: water, H2O, InChI=1S/H2O/h1H2
Compound 3: oxygen, O2, InChI=1S/O2/c1-2
Compound 4: 1-naphthol, C10H8O, InChI=1S/C10H8O/c11-10-7-3-5-8-4-1-2-6-9(8)10/h1-7,11H

System: 1-naphthol; phases: Crystal, Liquid, Gas
Property: Triple point temperature, K (Crystal); method: Adiabatic calorimetry
Triple point temperature, K	uncertainty
368.485	0.041

System: 1-naphthol; phases: Crystal, Liquid, Gas
Property: Molar enthalpy of transition or fusion, kJ/mol (Crystal); method: Adiabatic calorimetry
Molar enthalpy of transition or fusion, kJ/mol	uncertainty
24.257	0.031

System: 1-naphthol; phases: Liquid, Gas
Property: Mass density, kg/m3 (Liquid); method: Pycnometric method
Temperature, K	Mass density, kg/m3	uncertainty
393	1063	20

System: 1-naphthol; phases: Crystal, Gas
Property: Molar heat capacity at saturation pressure, J/K/mol (Crystal); method: Vacuum adiabatic calorimetry
Temperature, K	Molar heat capacity at saturation pressure, J/K/mol	uncertainty
4.908	0.3990941808	0.0166289242
5.887	0.6734714301	0.0249433863
6.773	0.9894209899	0.0332578484
7.696	1.413458557	0.0498867726
8.736	1.995470904	0.0665156968
9.852	2.7520869551	0.083144621
11.02	3.658363324	0.0332578484
12.261	4.6644132381	0.0415723105
13.566	5.8367523942	0.0498867726
14.975	7.2003241786	0.0582012347
16.553	8.7551285913	0.0665156968
18.3	10.5177945565	0.0748301589
20.232	12.4051774532	0.083144621
22.381	14.5419942129	0.0997735452
24.769	16.8617291388	0.1080880073
27.437	19.3976400793	0.1164024694
30.379	22.033324565	0.0665156968
33.629	24.8103549064	0.0748301589
37.255	27.770303414	0.0748301589
41.28	30.7718242321	0.083144621
45.762	34.0643512237	0.083144621
50.766	37.3069914427	0.0914590831
51.971	38.0719219559	0.0914590831
56.324	40.6992919795	0.0997735452
56.459	40.7824366005	0.0997735452
61.849	43.9918189711	0.0997735452
68.376	47.4090628942	0.1080880073
75.616	51.0840551424	0.1164024694
83.136	54.9087077084	0.1164024694
91.406	58.8081904333	0.1995470904
100.48	62.9903648696	0.2078615525
110.075	67.4552310173	0.2078615525
119.949	72.2111033385	0.2078615525
130.138	77.1415793638	0.2161760146
140.305	82.2383446311	0.2161760146
150.416	87.3351098984	0.2244904767
160.427	92.6646801045	0.2244904767
170.361	98.0441370832	0.2328049388
180.295	103.4984242208	0.2411194009
190.327	109.1273150625	0.2411194009
200.452	114.8975517599	0.249433863
210.564	120.7592475404	0.2577483251
220.639	126.629257783	0.2660627872
230.685	132.6239849571	0.2743772493
240.71	138.5438819723	0.2743772493
250.73	144.6134393053	0.2826917114
260.741	150.6913111004	0.2910061735
270.623	156.6694093503	0.2993206356
280.511	162.714023297	0.3076350977
290.517	168.8251529405	0.3076350977
300.534	174.9695404324	0.3159495598
310.566	180.8146072887	0.3242640219
320.582	186.6264162966	0.332578484
331.019	192.6544013191	0.3408929461
341.471	198.6158706448	0.3492074082
351.788	205.3256415595	0.3492074082
360.698	210.522180372	0.3575218703

System: 1-naphthol; phases: Liquid, Gas
Property: Molar heat capacity at saturation pressure, J/K/mol (Liquid); method: Vacuum adiabatic calorimetry
Temperature, K	Molar heat capacity at saturation pressure, J/K/mol	uncertainty
375.438	281.1535359115	0.4406664913
375.526	281.195108222	0.4406664913
382.755	283.2487803607	0.4406664913
389.876	285.3689681962	0.4489809534
405.805	290.0500103585	0.4489809534
423.589	295.3380082541	0.4572954155
438.901	299.8610756365	0.4656098776

System: 1-naphthol; phases: Crystal, Gas
Property: Molar heat capacity at saturation pressure, J/K/mol (Crystal); method: Vacuum adiabatic calorimetry
Temperature, K	Molar heat capacity at saturation pressure, J/K/mol	uncertainty
5	0.4074086429	0.0166289242
10	2.8601749624	0.0332578484
20	12.1806869765	0.083144621
30	21.700746081	0.0665156968
40	29.8406044769	0.0748301589
50	36.833067103	0.0914590831
60	42.9109388981	0.0997735452
70	48.2488235663	0.1080880073
80	53.3289599094	0.1164024694
90	58.1596623895	0.1995470904
100	62.774188855	0.2078615525
120	72.2277322627	0.2078615525
140	82.0803698512	0.2161760146
160	92.4318751657	0.2244904767
180	103.3404494409	0.2411194009
200	114.6398034348	0.249433863
220	126.2634214506	0.2660627872
240	138.1281588673	0.2743772493
260	150.242330147	0.2910061735
280	162.3980737372	0.3076350977
298.15	173.5145095649	0.3159495598
300	174.6369619484	0.3159495598
320	186.2855233505	0.332578484
340	197.9507136768	0.3408929461
360	210.1646585017	0.3575218703
368.485	215.5607444046	0.3658363324

System: 1-naphthol; phases: Crystal
Fixed: Pressure, kPa = 101.325
Property: Molar entropy, J/K/mol (Crystal); method: Vacuum adiabatic calorimetry
Temperature, K	Molar entropy, J/K/mol	uncertainty
5	0.1164024694	0.0166289242
10	1.0060499141	0.0249433863
20	5.7120354627	0.0665156968
30	12.4883220742	0.0748301589
40	19.8798788811	0.0914590831
50	27.3213224606	0.1080880073
60	34.5715334118	0.1247169315
70	41.5972538863	0.1496603178
80	48.3735404978	0.166289242
90	54.9419655568	0.2993206356
100	61.3025290633	0.3076350977
120	73.5746751229	0.3159495598
140	85.4477270017	0.332578484
160	97.0713450175	0.3492074082
180	108.586875026	0.3658363324
200	120.0525182619	0.3824652566
220	131.5264759599	0.4074086429
240	143.0170625821	0.4240375671
260	154.5492215148	0.4406664913
280	166.1312672201	0.4656098776
298.15	176.6740051629	0.4822388018
300	177.7548852359	0.4822388018
320	189.3951321759	0.498867726
340	201.0353791159	0.5238111123
360	212.6922549801	0.5404400365
368.485	217.6559888538	0.5487544986

System: 1-naphthol; phases: Crystal
Fixed: Pressure, kPa = 101.325
Property: Molar enthalpy function {Hm(T)-Hm(0)}/T, J/K/mol (Crystal); method: Vacuum adiabatic calorimetry
Temperature, K	Molar enthalpy function {Hm(T)-Hm(0)}/T, J/K/mol	uncertainty
5	0.0914590831	0.0083144621
10	0.7566160511	0.0166289242
20	4.0408285806	0.0332578484
30	8.3726633347	0.0415723105
40	12.7543848614	0.0498867726
50	16.8949869872	0.0582012347
60	20.7279540153	0.0665156968
70	24.2865437941	0.0665156968
80	27.5956997099	0.0748301589
90	30.7302519216	0.1829181662
100	33.7068293534	0.1829181662
120	39.327405733	0.1829181662
140	44.7234916359	0.1912326283
160	50.0281184557	0.1912326283
180	55.3493741997	0.1995470904
200	60.7038877921	0.1995470904
220	66.1332315434	0.2078615525
240	71.6457199157	0.2078615525
260	77.2247239848	0.2161760146
280	82.8702437507	0.2161760146
298.15	88.050153639	0.2244904767
300	88.5822792134	0.2244904767
320	94.3275725245	0.2244904767
340	100.0728658356	0.2328049388
360	105.8514169951	0.2411194009
368.485	108.3124977767	0.2411194009

System: 1-naphthol; phases: Liquid, Gas
Property: Molar heat capacity at saturation pressure, J/K/mol (Liquid); method: Vacuum adiabatic calorimetry
Temperature, K	Molar heat capacity at saturation pressure, J/K/mol	uncertainty
368.485	279.116492697	0.4406664913
380	282.4672209233	0.4406664913
400	288.3538600901	0.4489809534
420	294.2737571053	0.4572954155
440	300.1853396584	0.4656098776

System: 1-naphthol; phases: Liquid
Fixed: Pressure, kPa = 101.325
Property: Molar entropy, J/K/mol (Liquid); method: Vacuum adiabatic calorimetry
Temperature, K	Molar entropy, J/K/mol	uncertainty
368.485	283.4815852995	0.665156968
380	292.1203114214	0.6817858922
400	306.7620791795	0.7067292785
420	320.9714949084	0.7316726648
440	334.7984453807	0.7566160511

System: 1-naphthol; phases: Liquid
Fixed: Pressure, kPa = 101.325
Property: Molar enthalpy function {Hm(T)-Hm(0)}/T, J/K/mol (Liquid); method: Vacuum adiabatic calorimetry
Temperature, K	Molar enthalpy function {Hm(T)-Hm(0)}/T, J/K/mol	uncertainty
368.485	174.1380942224	0.3159495598
380	177.3724199793	0.3242640219
400	182.7768203443	0.3242640219
420	187.9401013084	0.332578484
440	192.9121496442	0.3408929461

System: 1-naphthol; phases: Liquid, Gas
Property: Vapor or sublimation pressure, kPa (Liquid); method: Inclined piston gauge
Temperature, K	Vapor or sublimation pressure, kPa	uncertainty
369.98	0.1033	0.0009
373.122	0.1259	0.0009
374.97	0.1406	0.0009
383.134	0.2221	0.001
384.975	0.2455	0.001
393.127	0.3779	0.0012
394.975	0.4163	0.0012
403.12	0.6229	0.0013
404.964	0.6815	0.0013
408.127	0.7902	0.0014
413.123	0.9955	0.0016
414.97	1.0854	0.0017
418.116	1.2487	0.0018
423.115	1.5509	0.002
424.962	1.6797	0.0022
429.963	2.0708	0.0024
434.966	2.5374	0.0028
439.957	3.0908	0.0033

System: 1-naphthol; phases: Liquid, Gas
Property: Vapor or sublimation pressure, kPa (Liquid); method: Twin ebulliometer
Temperature, K	Vapor or sublimation pressure, kPa	uncertainty
429.202	2.0002	0.0078
436.266	2.6663	0.0079
446.766	4.0003	0.0079
454.597	5.3335	0.008
466.259	7.9994	0.0082
475.013	10.666	0.008
482.077	13.332	0.009
489.42	16.665	0.009
495.526	19.932	0.009
503.548	25.02	0.01
503.551	25.021	0.01
511.628	31.174	0.011
519.753	38.561	0.013
527.934	47.371	0.014
536.162	57.812	0.016
544.441	70.114	0.018
552.77	84.526	0.021
561.143	101.32	0.03
569.589	120.78	0.03

Reaction: -1 1-naphthol + 10 carbon dioxide + 4 water + -11.5 oxygen
Property: Specific internal energy of reaction at constant volume, J/g
-34357.7
