Measured thermophysical data. Thermophysical properties of ionic liquid {1-butyl-3-methylimidazolium  bromide [bmim][Br] in alkoxyalkanols + water} mixtures at different temperatures
Source: J. Chem. Thermodyn., 2013, 10.1016/j.jct.2012.08.023
Compound 1: 2-methoxyethan-1-ol, C3H8O2, InChI=1S/C3H8O2/c1-5-3-2-4/h4H,2-3H2,1H3, purity 99%
Compound 2: 1-butyl-3-methylimidazolium bromide, C8H15BrN2, InChI=1S/C8H15N2.BrH/c1-3-4-5-10-7-6-9(2)8-10;/h6-8H,3-5H2,1-2H3;1H/q+1;/p-1
Compound 3: 2-(2-methoxyethoxy)ethanol, C5H12O3, InChI=1S/C5H12O3/c1-7-4-5-8-3-2-6/h6H,2-5H2,1H3, purity 98%
Compound 4: 2-[2-(2-methoxyethoxy)ethoxy]ethanol, C7H16O4, InChI=1S/C7H16O4/c1-9-4-5-11-7-6-10-3-2-8/h8H,2-7H2,1H3, purity 97%
Compound 5: water, H2O, InChI=1S/H2O/h1H2, purity 99.9%

System: 2-methoxyethan-1-ol + water + 1-butyl-3-methylimidazolium bromide; phases: Liquid
Fixed: Pressure, kPa = 101.3
Property: Mass density, kg/m3 (Liquid); method: Vibrating tube method
Temperature, K	Solvent: Molality, mol/kg of 1-butyl-3-methylimidazolium bromide	Molality, mol/kg of 2-methoxyethan-1-ol	Mass density, kg/m3	uncertainty
288.15	0	0	999.223	0.313
288.15	0	0.1766	999.359	0.313
288.15	0	0.3377	999.461	0.313
288.15	0	0.3987	999.495	0.313
288.15	0	0.5117	999.548	0.313
288.15	0	0.6355	999.593	0.313
288.15	0	0.7947	999.638	0.313
288.15	0	1.0116	999.666	0.313
298.15	0	0	997.111	0.313
298.15	0	0.1766	997.221	0.313
298.15	0	0.3377	997.304	0.313
298.15	0	0.3987	997.331	0.313
298.15	0	0.5117	997.377	0.313
298.15	0	0.6355	997.421	0.313
298.15	0	0.7947	997.462	0.313
298.15	0	1.0116	997.507	0.313
308.15	0	0	993.955	0.313
308.15	0	0.1766	994.075	0.313
308.15	0	0.3377	994.169	0.313
308.15	0	0.3987	994.202	0.313
308.15	0	0.5117	994.256	0.313
308.15	0	0.6355	994.305	0.313
308.15	0	0.7947	994.361	0.313
308.15	0	1.0116	994.412	0.313
288.15	0.0915	0	996.409	0.314
288.15	0.0915	0.1016	997.472	0.313
288.15	0.0915	0.2004	998.459	0.313
288.15	0.0915	0.3171	999.555	0.313
288.15	0.0915	0.4174	1000.437	0.313
288.15	0.0915	0.7039	1002.664	0.316
288.15	0.0915	0.8994	1003.961	0.317
288.15	0.0915	1.0039	1004.533	0.318
298.15	0.0915	0	996.531	0.313
298.15	0.0915	0.1016	997.279	0.313
298.15	0.0915	0.2004	997.959	0.313
298.15	0.0915	0.3171	998.696	0.313
298.15	0.0915	0.4174	999.285	0.313
298.15	0.0915	0.7039	1000.708	0.314
298.15	0.0915	0.8994	1001.511	0.314
298.15	0.0915	1.0039	1001.856	0.315
308.15	0.0915	0	991.528	0.313
308.15	0.0915	0.1016	992.461	0.313
308.15	0.0915	0.2004	993.312	0.313
308.15	0.0915	0.3171	994.252	0.313
308.15	0.0915	0.4174	995.006	0.313
308.15	0.0915	0.7039	996.901	0.313
308.15	0.0915	0.8994	997.994	0.313
308.15	0.0915	1.0039	998.513	0.313
288.15	0.2803	0	1007.114	0.32
288.15	0.2803	0.1432	1008.249	0.321
288.15	0.2803	0.3625	1009.875	0.323
288.15	0.2803	0.5073	1010.872	0.324
288.15	0.2803	0.6505	1011.794	0.325
288.15	0.2803	0.7949	1012.675	0.326
288.15	0.2803	0.8589	1013.041	0.327
288.15	0.2803	0.9442	1013.526	0.327
288.15	0.2803	1.0161	1013.893	0.327
298.15	0.2803	0	1005.82	0.319
298.15	0.2803	0.1432	1006.708	0.32
298.15	0.2803	0.3625	1007.999	0.321
298.15	0.2803	0.5073	1008.795	0.322
298.15	0.2803	0.6505	1009.542	0.323
298.15	0.2803	0.7949	1010.271	0.324
298.15	0.2803	0.8589	1010.573	0.324
298.15	0.2803	0.9442	1010.972	0.324
298.15	0.2803	1.0161	1011.298	0.325
308.15	0.2803	0	1002.41	0.316
308.15	0.2803	0.1432	1003.462	0.317
308.15	0.2803	0.3625	1004.981	0.318
308.15	0.2803	0.5073	1005.926	0.319
308.15	0.2803	0.6505	1006.814	0.32
308.15	0.2803	0.7949	1007.675	0.321
308.15	0.2803	0.8589	1008.035	0.321
308.15	0.2803	0.9442	1008.507	0.322
308.15	0.2803	1.0161	1008.883	0.322

System: 2-methoxyethan-1-ol + water + 1-butyl-3-methylimidazolium bromide; phases: Liquid
Fixed: Pressure, kPa = 101.3
Property: Speed of sound, m/s (Liquid); method: Single path-length method
Temperature, K	Solvent: Molality, mol/kg of 1-butyl-3-methylimidazolium bromide	Molality, mol/kg of 2-methoxyethan-1-ol	Speed of sound, m/s	uncertainty
288.15	0	0	1467.33	1.43
288.15	0	0.1766	1475.29	1.42
288.15	0	0.3377	1487.32	1.42
288.15	0	0.3987	1486.91	1.42
288.15	0	0.5117	1492.9	1.42
288.15	0	0.6355	1498.11	1.42
288.15	0	0.7947	1506.83	1.42
288.15	0	1.0116	1518.14	1.43
298.15	0	0	1497.73	1.43
298.15	0	0.1766	1504.91	1.43
298.15	0	0.3377	1511.21	1.42
298.15	0	0.3987	1513.82	1.43
298.15	0	0.5117	1517.98	1.43
298.15	0	0.6355	1522.87	1.43
298.15	0	0.7947	1529.32	1.43
298.15	0	1.0116	1539.1	1.43
308.15	0	0	1520.78	1.43
308.15	0	0.1766	1526.06	1.43
308.15	0	0.3377	1531.64	1.43
308.15	0	0.3987	1533.13	1.43
308.15	0	0.5117	1537.02	1.43
308.15	0	0.6355	1540.5	1.43
308.15	0	0.7947	1546.05	1.43
308.15	0	1.0116	1553.66	1.43
288.15	0.0915	0	1490.68	1.44
288.15	0.0915	0.1016	1491.31	1.42
288.15	0.0915	0.2004	1493.27	1.43
288.15	0.0915	0.3171	1495.34	1.44
288.15	0.0915	0.4174	1500.78	1.44
288.15	0.0915	0.7039	1508.69	1.42
288.15	0.0915	0.8994	1518.77	1.42
288.15	0.0915	1.0039	1521.22	1.42
298.15	0.0915	0	1516.69	1.43
298.15	0.0915	0.1016	1516.77	1.43
298.15	0.0915	0.2004	1521.88	1.43
298.15	0.0915	0.3171	1528.51	1.44
298.15	0.0915	0.4174	1530.08	1.43
298.15	0.0915	0.7039	1531.57	1.43
298.15	0.0915	0.8994	1538.99	1.43
298.15	0.0915	1.0039	1541.98	1.48
308.15	0.0915	0	1535.51	1.43
308.15	0.0915	0.1016	1535.91	1.43
308.15	0.0915	0.2004	1544.1	1.43
308.15	0.0915	0.3171	1547.77	1.43
308.15	0.0915	0.4174	1547.89	1.43
308.15	0.0915	0.7039	1553.13	1.44
308.15	0.0915	0.8994	1555.8	1.47
308.15	0.0915	1.0039	1604.84	1.48
288.15	0.2803	0	1512.3	1.43
288.15	0.2803	0.1432	1518.48	1.43
288.15	0.2803	0.3625	1521.69	1.42
288.15	0.2803	0.5073	1538.21	1.43
288.15	0.2803	0.6505	1546.13	1.43
288.15	0.2803	0.7949	1549.12	1.43
288.15	0.2803	0.8589	1559.66	1.43
288.15	0.2803	0.9442	1563.65	1.43
288.15	0.2803	1.0161	1572.43	1.43
298.15	0.2803	0	1536.76	1.43
298.15	0.2803	0.1432	1540.96	1.43
298.15	0.2803	0.3625	1542.47	1.43
298.15	0.2803	0.5073	1556	1.43
298.15	0.2803	0.6505	1562.25	1.43
298.15	0.2803	0.7949	1564.69	1.43
298.15	0.2803	0.8589	1573.04	1.43
298.15	0.2803	0.9442	1576.39	1.43
298.15	0.2803	1.0161	1583.35	1.44
308.15	0.2803	0	1555.34	1.43
308.15	0.2803	0.1432	1556.01	1.43
308.15	0.2803	0.3625	1557.21	1.44
308.15	0.2803	0.5073	1568.04	1.43
308.15	0.2803	0.6505	1573	1.43
308.15	0.2803	0.7949	1574.82	1.44
308.15	0.2803	0.8589	1581.46	1.43
308.15	0.2803	0.9442	1583.88	1.44
308.15	0.2803	1.0161	1589.17	1.44

System: 2-(2-methoxyethoxy)ethanol + water + 1-butyl-3-methylimidazolium bromide; phases: Liquid
Fixed: Pressure, kPa = 101.3
Property: Mass density, kg/m3 (Liquid); method: Vibrating tube method
Temperature, K	Solvent: Molality, mol/kg of 1-butyl-3-methylimidazolium bromide	Molality, mol/kg of 2-(2-methoxyethoxy)ethanol	Mass density, kg/m3	uncertainty
288.15	0	0	999.223	0.52
288.15	0	0.1113	999.888	0.52
288.15	0	0.1346	1000.025	0.52
288.15	0	0.3285	1001.108	0.522
288.15	0	0.4005	1001.491	0.522
288.15	0	0.62	1002.598	0.524
288.15	0	0.7114	1003.022	0.525
288.15	0	0.9906	1004.262	0.526
288.15	0	1.0515	1004.518	0.527
298.15	0	0	997.111	0.519
298.15	0	0.1113	997.716	0.519
298.15	0	0.1346	997.84	0.519
298.15	0	0.3285	998.835	0.52
298.15	0	0.4005	999.182	0.52
298.15	0	0.62	1000.215	0.52
298.15	0	0.7114	1000.621	0.521
298.15	0	0.9906	1001.807	0.523
298.15	0	1.0515	1002.031	0.524
308.15	0	0	993.955	0.517
308.15	0	0.1113	994.536	0.518
308.15	0	0.1346	994.655	0.518
308.15	0	0.3285	995.615	0.518
308.15	0	0.4005	995.953	0.518
308.15	0	0.62	996.952	0.519
308.15	0	0.7114	997.341	0.519
308.15	0	0.9906	998.476	0.525
308.15	0	1.0515	993.955	0.524
288.15	0.0969	0	1001.561	0.522
288.15	0.0969	0.1276	1002.868	0.524
288.15	0.0969	0.2299	1003.871	0.526
288.15	0.0969	0.3073	1004.601	0.527
288.15	0.0969	0.4327	1005.738	0.529
288.15	0.0969	0.6122	1007.272	0.531
288.15	0.0969	0.7862	1008.652	0.533
288.15	0.0969	0.9008	1009.494	0.534
288.15	0.0969	0.9862	1010.102	0.535
298.15	0.0969	0	999.293	0.52
298.15	0.0969	0.1276	1000.435	0.521
298.15	0.0969	0.2299	1001.308	0.522
298.15	0.0969	0.3073	1001.935	0.523
298.15	0.0969	0.4327	1002.912	0.524
298.15	0.0969	0.6122	1004.224	0.526
298.15	0.0969	0.7862	1005.401	0.528
298.15	0.0969	0.9008	1006.156	0.529
298.15	0.0969	0.9862	1006.675	0.53
308.15	0.0969	0	996.365	0.519
308.15	0.0969	0.1276	997.634	0.519
308.15	0.0969	0.2299	998.606	0.52
308.15	0.0969	0.3073	999.312	0.52
308.15	0.0969	0.4327	1000.402	0.521
308.15	0.0969	0.6122	1001.855	0.523
308.15	0.0969	0.7862	1003.164	0.525
308.15	0.0969	0.9008	1003.962	0.526
308.15	0.0969	0.9862	1004.513	0.527
288.15	0.2869	0	1010.491	0.536
288.15	0.2869	0.1004	1011.415	0.537
288.15	0.2869	0.3001	1013.092	0.54
288.15	0.2869	0.4153	1013.981	0.541
288.15	0.2869	0.5093	1014.641	0.542
288.15	0.2869	0.7116	1015.933	0.544
288.15	0.2869	0.822	1016.572	0.545
288.15	0.2869	0.888	1016.931	0.545
288.15	0.2869	1.0059	1017.508	0.546
298.15	0.2869	0	1005.515	0.528
298.15	0.2869	0.1004	1006.325	0.53
298.15	0.2869	0.3001	1007.808	0.532
298.15	0.2869	0.4153	1008.595	0.533
298.15	0.2869	0.5093	1009.189	0.534
298.15	0.2869	0.7116	1010.383	0.536
298.15	0.2869	0.822	1010.985	0.536
298.15	0.2869	0.888	1011.294	0.537
298.15	0.2869	1.0059	1011.871	0.538
308.15	0.2869	0	1001.764	0.523
308.15	0.2869	0.1004	1002.694	0.524
308.15	0.2869	0.3001	1004.408	0.527
308.15	0.2869	0.4153	1005.316	0.528
308.15	0.2869	0.5093	1006.015	0.529
308.15	0.2869	0.7116	1007.405	0.531
308.15	0.2869	0.822	1008.089	0.532
308.15	0.2869	0.888	1008.483	0.533
308.15	0.2869	1.0059	1009.123	0.534

System: 2-(2-methoxyethoxy)ethanol + water + 1-butyl-3-methylimidazolium bromide; phases: Liquid
Fixed: Pressure, kPa = 101.3
Property: Speed of sound, m/s (Liquid); method: Single path-length method
Temperature, K	Solvent: Molality, mol/kg of 1-butyl-3-methylimidazolium bromide	Molality, mol/kg of 2-(2-methoxyethoxy)ethanol	Speed of sound, m/s	uncertainty
288.15	0	0	1467.33	1.4
288.15	0	0.1113	1477.07	1.4
288.15	0	0.1346	1480.36	1.4
288.15	0	0.3285	1494.24	1.39
288.15	0	0.4005	1498.2	1.39
288.15	0	0.62	1516.33	1.38
288.15	0	0.7114	1523.77	1.38
288.15	0	0.9906	1539.6	1.38
288.15	0	1.0515	1548.03	1.46
298.15	0	0	1497.73	1.39
298.15	0	0.1113	1505.14	1.39
298.15	0	0.1346	1508.49	1.39
298.15	0	0.3285	1519.67	1.38
298.15	0	0.4005	1523.37	1.38
298.15	0	0.62	1537.77	1.38
298.15	0	0.7114	1544.46	1.38
298.15	0	0.9906	1556.8	1.37
298.15	0	1.0515	1497.73	1.37
308.15	0	0	1520.78	1.39
308.15	0	0.1113	1526.82	1.38
308.15	0	0.1346	1529.11	1.38
308.15	0	0.3285	1538.75	1.38
308.15	0	0.4005	1541.44	1.38
308.15	0	0.62	1553.58	1.38
308.15	0	0.7114	1558.75	1.37
308.15	0	0.9906	1569.06	1.37
308.15	0	1.0515	1574.65	1.57
288.15	0.0969	0	1489.07	1.4
288.15	0.0969	0.1276	1487.08	1.39
288.15	0.0969	0.2299	1495.09	1.39
288.15	0.0969	0.3073	1501.41	1.39
288.15	0.0969	0.4327	1510.29	1.38
288.15	0.0969	0.6122	1521.53	1.38
288.15	0.0969	0.7862	1535.95	1.38
288.15	0.0969	0.9008	1537.2	1.37
288.15	0.0969	0.9862	1546.73	1.38
298.15	0.0969	0	1517.02	1.39
298.15	0.0969	0.1276	1517.32	1.39
298.15	0.0969	0.2299	1520.86	1.38
298.15	0.0969	0.3073	1526.08	1.38
298.15	0.0969	0.4327	1533.21	1.38
298.15	0.0969	0.6122	1542.59	1.38
298.15	0.0969	0.7862	1554.33	1.37
298.15	0.0969	0.9008	1555.65	1.38
298.15	0.0969	0.9862	1564.1	1.37
308.15	0.0969	0	1537.93	1.38
308.15	0.0969	0.1276	1536.11	1.38
308.15	0.0969	0.2299	1538.85	1.38
308.15	0.0969	0.3073	1543.46	1.38
308.15	0.0969	0.4327	1549.46	1.38
308.15	0.0969	0.6122	1556.8	1.38
308.15	0.0969	0.7862	1565.36	1.37
308.15	0.0969	0.9008	1567.39	1.37
308.15	0.0969	0.9862	1573.99	1.37
288.15	0.2869	0	1512.3	1.4
288.15	0.2869	0.1004	1518.48	1.39
288.15	0.2869	0.3001	1521.69	1.38
288.15	0.2869	0.4153	1538.21	1.38
288.15	0.2869	0.5093	1546.13	1.38
288.15	0.2869	0.7116	1549.12	1.37
288.15	0.2869	0.822	1559.66	1.37
288.15	0.2869	0.888	1563.65	1.37
288.15	0.2869	1.0059	1572.43	1.41
298.15	0.2869	0	1536.76	1.38
298.15	0.2869	0.1004	1540.96	1.38
298.15	0.2869	0.3001	1542.47	1.38
298.15	0.2869	0.4153	1556	1.38
298.15	0.2869	0.5093	1562.25	1.37
298.15	0.2869	0.7116	1564.69	1.37
298.15	0.2869	0.822	1573.04	1.37
298.15	0.2869	0.888	1576.39	1.37
298.15	0.2869	1.0059	1536.76	1.37
308.15	0.2869	0	1555.34	1.38
308.15	0.2869	0.1004	1556.01	1.38
308.15	0.2869	0.3001	1557.21	1.38
308.15	0.2869	0.4153	1568.04	1.37
308.15	0.2869	0.5093	1573	1.37
308.15	0.2869	0.7116	1574.82	1.37
308.15	0.2869	0.822	1581.46	1.37
308.15	0.2869	0.888	1583.88	1.37
308.15	0.2869	1.0059	1589.17	1.46

System: 2-[2-(2-methoxyethoxy)ethoxy]ethanol + water + 1-butyl-3-methylimidazolium bromide; phases: Liquid
Fixed: Pressure, kPa = 101.3
Property: Mass density, kg/m3 (Liquid); method: Vibrating tube method
Temperature, K	Solvent: Molality, mol/kg of 1-butyl-3-methylimidazolium bromide	Molality, mol/kg of 2-[2-(2-methoxyethoxy)ethoxy]ethanol	Mass density, kg/m3	uncertainty
288.15	0	0	999.223	0.787
288.15	0	0.0992	1000.758	0.789
288.15	0	0.2191	1002.545	0.793
288.15	0	0.4289	1005.498	0.799
288.15	0	0.5088	1006.569	0.801
288.15	0	0.5825	1007.529	0.803
288.15	0	0.7077	1009.123	0.806
288.15	0	0.7956	1010.201	0.808
288.15	0	0.9789	1012.348	0.813
298.15	0	0	997.111	0.785
298.15	0	0.0992	998.595	0.787
298.15	0	0.2191	1000.324	0.789
298.15	0	0.4289	1003.195	0.794
298.15	0	0.5088	1004.235	0.796
298.15	0	0.5825	1005.166	0.798
298.15	0	0.7077	1006.712	0.801
298.15	0	0.7956	1007.755	0.803
298.15	0	0.9789	1009.853	0.808
308.15	0	0	993.955	0.782
308.15	0	0.0992	995.371	0.783
308.15	0	0.2191	997.022	0.785
308.15	0	0.4289	999.755	0.788
308.15	0	0.5088	1000.748	0.789
308.15	0	0.5825	1001.639	0.791
308.15	0	0.7077	1003.101	0.794
308.15	0	0.7956	1004.094	0.796
308.15	0	0.9789	1006.071	0.8
288.15	0.1014	0	989.502	0.78
288.15	0.1014	0.1092	992.259	0.781
288.15	0.1014	0.1898	994.185	0.782
288.15	0.1014	0.4108	998.961	0.787
288.15	0.1014	0.5858	1002.238	0.792
288.15	0.1014	0.7064	1004.278	0.797
288.15	0.1014	0.7931	1005.601	0.799
288.15	0.1014	0.9064	1007.187	0.803
288.15	0.1014	0.9847	1008.184	0.807
298.15	0.1014	0	997.101	0.785
298.15	0.1014	0.1092	999.579	0.787
298.15	0.1014	0.1898	1001.308	0.791
298.15	0.1014	0.4108	1005.603	0.799
298.15	0.1014	0.5858	1008.564	0.805
298.15	0.1014	0.7064	1010.377	0.809
298.15	0.1014	0.7931	1011.575	0.811
298.15	0.1014	0.9064	1012.928	0.814
298.15	0.1014	0.9847	1013.859	0.816
308.15	0.1014	0	992.565	0.78
308.15	0.1014	0.1092	995.192	0.783
308.15	0.1014	0.1898	997.015	0.785
308.15	0.1014	0.4108	1001.539	0.791
308.15	0.1014	0.5858	1004.651	0.797
308.15	0.1014	0.7064	1006.572	0.801
308.15	0.1014	0.7931	1007.821	0.804
308.15	0.1014	0.9064	1009.285	0.807
308.15	0.1014	0.9847	1010.232	0.809
288.15	0.2656	0	1010.437	0.809
288.15	0.2656	0.0974	1011.659	0.811
288.15	0.2656	0.229	1013.185	0.814
288.15	0.2656	0.3796	1014.769	0.818
288.15	0.2656	0.5103	1015.982	0.82
288.15	0.2656	0.6992	1017.548	0.823
288.15	0.2656	0.898	1018.929	0.826
288.15	0.2656	1.0168	1019.562	0.827
298.15	0.2656	0	1007.446	0.803
298.15	0.2656	0.0974	1008.422	0.805
298.15	0.2656	0.229	1009.639	0.807
298.15	0.2656	0.3796	1010.869	0.81
298.15	0.2656	0.5103	1011.864	0.812
298.15	0.2656	0.6992	1013.096	0.814
298.15	0.2656	0.898	1014.174	0.816
298.15	0.2656	1.0168	1014.833	0.818
308.15	0.2656	0	1005.51	0.799
308.15	0.2656	0.0974	1006.659	0.801
308.15	0.2656	0.229	1008.078	0.804
308.15	0.2656	0.3796	1009.554	0.807
308.15	0.2656	0.5103	1010.683	0.809
308.15	0.2656	0.6992	1012.109	0.812
308.15	0.2656	0.898	1013.311	0.814
308.15	0.2656	1.0168	1013.959	0.816

System: 2-[2-(2-methoxyethoxy)ethoxy]ethanol + water + 1-butyl-3-methylimidazolium bromide; phases: Liquid
Fixed: Pressure, kPa = 101.3
Property: Speed of sound, m/s (Liquid); method: Single path-length method
Temperature, K	Solvent: Molality, mol/kg of 1-butyl-3-methylimidazolium bromide	Molality, mol/kg of 2-[2-(2-methoxyethoxy)ethoxy]ethanol	Speed of sound, m/s	uncertainty
288.15	0	0	1467.33	1.73
288.15	0	0.0992	1476.92	1.72
288.15	0	0.2191	1490.1	1.72
288.15	0	0.4289	1510.65	1.72
288.15	0	0.5088	1517.65	1.71
288.15	0	0.5825	1524.95	1.71
288.15	0	0.7077	1537.23	1.71
288.15	0	0.7956	1543.87	1.74
288.15	0	0.9789	1467.33	1.99
298.15	0	0	1497.73	1.72
298.15	0	0.0992	1505.2	1.72
298.15	0	0.2191	1516.8	1.72
298.15	0	0.4289	1533.04	1.71
298.15	0	0.5088	1539.37	1.71
298.15	0	0.5825	1544.87	1.71
298.15	0	0.7077	1555.78	1.71
298.15	0	0.7956	1560.44	1.71
298.15	0	0.9789	1570.47	1.79
308.15	0	0	1520.78	1.72
308.15	0	0.0992	1526.76	1.71
308.15	0	0.2191	1535.87	1.71
308.15	0	0.4289	1549.81	1.71
308.15	0	0.5088	1554.66	1.71
308.15	0	0.5825	1559.49	1.71
308.15	0	0.7077	1568.28	1.7
308.15	0	0.7956	1572.22	1.7
308.15	0	0.9789	1579.96	1.7
288.15	0.1014	0	1490.89	1.73
288.15	0.1014	0.1092	1491.92	1.72
288.15	0.1014	0.1898	1497.45	1.72
288.15	0.1014	0.4108	1519.49	1.72
288.15	0.1014	0.5858	1532.57	1.71
288.15	0.1014	0.7064	1546.56	1.71
288.15	0.1014	0.7931	1550.55	1.72
288.15	0.1014	0.9064	1566.71	1.74
288.15	0.1014	0.9847	1569.77	1.77
298.15	0.1014	0	1520.17	1.72
298.15	0.1014	0.1092	1520.65	1.72
298.15	0.1014	0.1898	1522.74	1.71
298.15	0.1014	0.4108	1541.57	1.71
298.15	0.1014	0.5858	1556.42	1.71
298.15	0.1014	0.7064	1563.29	1.71
298.15	0.1014	0.7931	1577.73	1.71
298.15	0.1014	0.9064	1580.34	1.7
298.15	0.1014	0.9847	1582.77	1.7
308.15	0.1014	0	1540.18	1.71
308.15	0.1014	0.1092	1540.42	1.71
308.15	0.1014	0.1898	1540.49	1.71
308.15	0.1014	0.4108	1556.77	1.71
308.15	0.1014	0.5858	1568.88	1.7
308.15	0.1014	0.7064	1574.42	1.7
308.15	0.1014	0.7931	1582.88	1.7
308.15	0.1014	0.9064	1587.73	1.7
308.15	0.1014	0.9847	1589.34	1.7
288.15	0.2656	0	1511.62	1.72
288.15	0.2656	0.0974	1520.42	1.72
288.15	0.2656	0.229	1524.6	1.71
288.15	0.2656	0.3796	1537.61	1.71
288.15	0.2656	0.5103	1545.16	1.71
288.15	0.2656	0.6992	1558.18	1.71
288.15	0.2656	0.898	1584.82	1.71
288.15	0.2656	1.0168	1591.53	1.7
298.15	0.2656	0	1536.22	1.71
298.15	0.2656	0.0974	1540.7	1.71
298.15	0.2656	0.229	1545.46	1.71
298.15	0.2656	0.3796	1555.64	1.71
298.15	0.2656	0.5103	1562.33	1.71
298.15	0.2656	0.6992	1575.07	1.7
298.15	0.2656	0.898	1595.32	1.7
298.15	0.2656	1.0168	1598.47	1.7
308.15	0.2656	0	1554.45	1.71
308.15	0.2656	0.0974	1557.95	1.71
308.15	0.2656	0.229	1559.86	1.71
308.15	0.2656	0.3796	1565.97	1.71
308.15	0.2656	0.5103	1578.79	1.7
308.15	0.2656	0.6992	1583.12	1.7
308.15	0.2656	0.898	1595.85	1.7
308.15	0.2656	1.0168	1599.63	1.7

System: 2-methoxyethan-1-ol + water; phases: Liquid
Fixed: Pressure, kPa = 101.3
Property: Mass density, kg/m3 (Liquid); method: Vibrating tube method
Temperature, K	Molality, mol/kg of 2-methoxyethan-1-ol	Mass density, kg/m3	uncertainty
288.15	0.1766	999.359	0.313
288.15	0.3377	999.461	0.313
288.15	0.3987	999.495	0.313
288.15	0.5117	999.548	0.313
288.15	0.6355	999.593	0.313
288.15	0.7947	999.638	0.313
288.15	1.0116	999.666	0.313
298.15	0.1766	997.221	0.313
298.15	0.3377	997.304	0.313
298.15	0.3987	997.331	0.313
298.15	0.5117	997.377	0.313
298.15	0.6355	997.421	0.313
298.15	0.7947	997.462	0.313
298.15	1.0116	997.507	0.313
308.15	0.1766	994.075	0.313
308.15	0.3377	994.169	0.313
308.15	0.3987	994.202	0.313
308.15	0.5117	994.256	0.313
308.15	0.6355	994.305	0.313
308.15	0.7947	994.361	0.313
308.15	1.0116	994.412	0.313

System: 2-methoxyethan-1-ol + water; phases: Liquid
Fixed: Pressure, kPa = 101.3
Property: Speed of sound, m/s (Liquid); method: Single path-length method
Temperature, K	Molality, mol/kg of 2-methoxyethan-1-ol	Speed of sound, m/s	uncertainty
288.15	0.1766	1475.29	1.42
288.15	0.3377	1487.32	1.42
288.15	0.3987	1486.91	1.42
288.15	0.5117	1492.9	1.42
288.15	0.6355	1498.11	1.42
288.15	0.7947	1506.83	1.42
288.15	1.0116	1518.14	1.43
298.15	0.1766	1504.91	1.43
298.15	0.3377	1511.21	1.42
298.15	0.3987	1513.82	1.43
298.15	0.5117	1517.98	1.43
298.15	0.6355	1522.87	1.43
298.15	0.7947	1529.32	1.43
298.15	1.0116	1539.1	1.43
308.15	0.1766	1526.06	1.43
308.15	0.3377	1531.64	1.43
308.15	0.3987	1533.13	1.43
308.15	0.5117	1537.02	1.43
308.15	0.6355	1540.5	1.43
308.15	0.7947	1546.05	1.43
308.15	1.0116	1553.66	1.43

System: water + 1-butyl-3-methylimidazolium bromide; phases: Liquid
Fixed: Pressure, kPa = 101.3
Property: Mass density, kg/m3 (Liquid); method: Vibrating tube method
Temperature, K	Molality, mol/kg of 1-butyl-3-methylimidazolium bromide	Mass density, kg/m3	uncertainty
288.15	0.0915	996.409	0.314
298.15	0.0915	996.531	0.313
308.15	0.0915	991.528	0.313
288.15	0.2803	1007.114	0.32
298.15	0.2803	1005.82	0.319
308.15	0.2803	1002.41	0.316
288.15	0.0969	1001.561	0.522
298.15	0.0969	999.293	0.52
308.15	0.0969	996.365	0.519
288.15	0.2869	1010.491	0.536
298.15	0.2869	1005.515	0.528
308.15	0.2869	1001.764	0.523
288.15	0.1014	989.502	0.78
298.15	0.1014	997.101	0.785
308.15	0.1014	992.565	0.78
288.15	0.2656	1010.437	0.809
298.15	0.2656	1007.446	0.803
308.15	0.2656	1005.51	0.799

System: water + 1-butyl-3-methylimidazolium bromide; phases: Liquid
Fixed: Pressure, kPa = 101.3
Property: Speed of sound, m/s (Liquid); method: Single path-length method
Temperature, K	Molality, mol/kg of 1-butyl-3-methylimidazolium bromide	Speed of sound, m/s	uncertainty
288.15	0.0915	1490.68	1.44
298.15	0.0915	1516.69	1.43
308.15	0.0915	1535.51	1.43
288.15	0.2803	1512.3	1.43
298.15	0.2803	1536.76	1.43
308.15	0.2803	1555.34	1.43
288.15	0.0969	1489.07	1.4
298.15	0.0969	1517.02	1.39
308.15	0.0969	1537.93	1.38
288.15	0.2869	1512.3	1.4
298.15	0.2869	1536.76	1.38
308.15	0.2869	1555.34	1.38
288.15	0.1014	1490.89	1.73
298.15	0.1014	1520.17	1.72
308.15	0.1014	1540.18	1.71
288.15	0.2656	1511.62	1.72
298.15	0.2656	1536.22	1.71
308.15	0.2656	1554.45	1.71

System: 2-(2-methoxyethoxy)ethanol + water; phases: Liquid
Fixed: Pressure, kPa = 101.3
Property: Mass density, kg/m3 (Liquid); method: Vibrating tube method
Temperature, K	Molality, mol/kg of 2-(2-methoxyethoxy)ethanol	Mass density, kg/m3	uncertainty
288.15	0.1113	999.888	0.52
288.15	0.1346	1000.025	0.52
288.15	0.3285	1001.108	0.522
288.15	0.4005	1001.491	0.522
288.15	0.62	1002.598	0.524
288.15	0.7114	1003.022	0.525
288.15	0.9906	1004.262	0.526
288.15	1.0515	1004.518	0.527
298.15	0.1113	997.716	0.519
298.15	0.1346	997.84	0.519
298.15	0.3285	998.835	0.52
298.15	0.4005	999.182	0.52
298.15	0.62	1000.215	0.52
298.15	0.7114	1000.621	0.521
298.15	0.9906	1001.807	0.523
298.15	1.0515	1002.031	0.524
308.15	0.1113	994.536	0.518
308.15	0.1346	994.655	0.518
308.15	0.3285	995.615	0.518
308.15	0.4005	995.953	0.518
308.15	0.62	996.952	0.519
308.15	0.7114	997.341	0.519
308.15	0.9906	998.476	0.525
308.15	1.0515	993.955	0.524

System: 2-(2-methoxyethoxy)ethanol + water; phases: Liquid
Fixed: Pressure, kPa = 101.3
Property: Speed of sound, m/s (Liquid); method: Single path-length method
Temperature, K	Molality, mol/kg of 2-(2-methoxyethoxy)ethanol	Speed of sound, m/s	uncertainty
288.15	0.1113	1477.07	1.4
288.15	0.1346	1480.36	1.4
288.15	0.3285	1494.24	1.39
288.15	0.4005	1498.2	1.39
288.15	0.62	1516.33	1.38
288.15	0.7114	1523.77	1.38
288.15	0.9906	1539.6	1.38
288.15	1.0515	1548.03	1.46
298.15	0.1113	1505.14	1.39
298.15	0.1346	1508.49	1.39
298.15	0.3285	1519.67	1.38
298.15	0.4005	1523.37	1.38
298.15	0.62	1537.77	1.38
298.15	0.7114	1544.46	1.38
298.15	0.9906	1556.8	1.37
298.15	1.0515	1497.73	1.37
308.15	0.1113	1526.82	1.38
308.15	0.1346	1529.11	1.38
308.15	0.3285	1538.75	1.38
308.15	0.4005	1541.44	1.38
308.15	0.62	1553.58	1.38
308.15	0.7114	1558.75	1.37
308.15	0.9906	1569.06	1.37
308.15	1.0515	1574.65	1.57

System: 2-[2-(2-methoxyethoxy)ethoxy]ethanol + water; phases: Liquid
Fixed: Pressure, kPa = 101.3
Property: Mass density, kg/m3 (Liquid); method: Vibrating tube method
Temperature, K	Molality, mol/kg of 2-[2-(2-methoxyethoxy)ethoxy]ethanol	Mass density, kg/m3	uncertainty
288.15	0.0992	1000.758	0.789
288.15	0.2191	1002.545	0.793
288.15	0.4289	1005.498	0.799
288.15	0.5088	1006.569	0.801
288.15	0.5825	1007.529	0.803
288.15	0.7077	1009.123	0.806
288.15	0.7956	1010.201	0.808
288.15	0.9789	1012.348	0.813
298.15	0.0992	998.595	0.787
298.15	0.2191	1000.324	0.789
298.15	0.4289	1003.195	0.794
298.15	0.5088	1004.235	0.796
298.15	0.5825	1005.166	0.798
298.15	0.7077	1006.712	0.801
298.15	0.7956	1007.755	0.803
298.15	0.9789	1009.853	0.808
308.15	0.0992	995.371	0.783
308.15	0.2191	997.022	0.785
308.15	0.4289	999.755	0.788
308.15	0.5088	1000.748	0.789
308.15	0.5825	1001.639	0.791
308.15	0.7077	1003.101	0.794
308.15	0.7956	1004.094	0.796
308.15	0.9789	1006.071	0.8

System: 2-[2-(2-methoxyethoxy)ethoxy]ethanol + water; phases: Liquid
Fixed: Pressure, kPa = 101.3
Property: Speed of sound, m/s (Liquid); method: Single path-length method
Temperature, K	Molality, mol/kg of 2-[2-(2-methoxyethoxy)ethoxy]ethanol	Speed of sound, m/s	uncertainty
288.15	0.0992	1476.92	1.72
288.15	0.2191	1490.1	1.72
288.15	0.4289	1510.65	1.72
288.15	0.5088	1517.65	1.71
288.15	0.5825	1524.95	1.71
288.15	0.7077	1537.23	1.71
288.15	0.7956	1543.87	1.74
288.15	0.9789	1467.33	1.99
298.15	0.0992	1505.2	1.72
298.15	0.2191	1516.8	1.72
298.15	0.4289	1533.04	1.71
298.15	0.5088	1539.37	1.71
298.15	0.5825	1544.87	1.71
298.15	0.7077	1555.78	1.71
298.15	0.7956	1560.44	1.71
298.15	0.9789	1570.47	1.79
308.15	0.0992	1526.76	1.71
308.15	0.2191	1535.87	1.71
308.15	0.4289	1549.81	1.71
308.15	0.5088	1554.66	1.71
308.15	0.5825	1559.49	1.71
308.15	0.7077	1568.28	1.7
308.15	0.7956	1572.22	1.7
308.15	0.9789	1579.96	1.7
