Measured thermophysical data. Measurement of activity coefficients at infinite dilution of organic solutes in the ionic liquid 1-hexyl-1,4-diaza[2.2.2]bicyclooctanium bis(trifluoromethylsulfonyl)imide using gas-liquid chromatography
Source: J. Chem. Thermodyn., 2014, 10.1016/j.jct.2013.10.026
Compound 1: pentane, C5H12, InChI=1S/C5H12/c1-3-5-4-2/h3-5H2,1-2H3, purity 99%
Compound 2: 1-hexyl-1,4-diazabicyclo[2.2.2]octan-1-ium bis((trifluoromethyl)sulfonyl)amide, C14H25F6N3O4S2, InChI=1S/C12H25N2.C2F6NO4S2/c1-2-3-4-5-9-14-10-6-13(7-11-14)8-12-14;3-1(4,5)14(10,11)9-15(12,13)2(6,7)8/h2-12H2,1H3;/q+1;-1
Compound 3: hexane, C6H14, InChI=1S/C6H14/c1-3-5-6-4-2/h3-6H2,1-2H3, purity 99%
Compound 4: heptane, C7H16, InChI=1S/C7H16/c1-3-5-7-6-4-2/h3-7H2,1-2H3, purity 99%
Compound 5: octane, C8H18, InChI=1S/C8H18/c1-3-5-7-8-6-4-2/h3-8H2,1-2H3, purity 99%
Compound 6: nonane, C9H20, InChI=1S/C9H20/c1-3-5-7-9-8-6-4-2/h3-9H2,1-2H3, purity 99%
Compound 7: decane, C10H22, InChI=1S/C10H22/c1-3-5-7-9-10-8-6-4-2/h3-10H2,1-2H3, purity 99%
Compound 8: cyclopentane, C5H10, InChI=1S/C5H10/c1-2-4-5-3-1/h1-5H2, purity 99%
Compound 9: cyclohexane, C6H12, InChI=1S/C6H12/c1-2-4-6-5-3-1/h1-6H2, purity 99%
Compound 10: cycloheptane, C7H14, InChI=1S/C7H14/c1-2-4-6-7-5-3-1/h1-7H2, purity 99%
Compound 11: cyclooctane, C8H16, InChI=1S/C8H16/c1-2-4-6-8-7-5-3-1/h1-8H2, purity 99%
Compound 12: methanol, CH4O, InChI=1S/CH4O/c1-2/h2H,1H3, purity 99.9%
Compound 13: ethanol, C2H6O, InChI=1S/C2H6O/c1-2-3/h3H,2H2,1H3, purity 99%
Compound 14: propan-1-ol, C3H8O, InChI=1S/C3H8O/c1-2-3-4/h4H,2-3H2,1H3, purity 99%
Compound 15: propan-2-ol, C3H8O, InChI=1S/C3H8O/c1-3(2)4/h3-4H,1-2H3, purity 99%
Compound 16: 2-methylpropan-2-ol, C4H10O, InChI=1S/C4H10O/c1-4(2,3)5/h5H,1-3H3, purity 99%
Compound 17: pentan-1-ol, C5H12O, InChI=1S/C5H12O/c1-2-3-4-5-6/h6H,2-5H2,1H3, purity 99%
Compound 18: 2-methyl-2-pentanol, C6H14O, InChI=1S/C6H14O/c1-4-5-6(2,3)7/h7H,4-5H2,1-3H3, purity 99%
Compound 19: ethanal, C2H4O, InChI=1S/C2H4O/c1-2-3/h2H,1H3, purity 99%
Compound 20: propanal, C3H6O, InChI=1S/C3H6O/c1-2-3-4/h3H,2H2,1H3, purity 99%
Compound 21: pentanal, C5H10O, InChI=1S/C5H10O/c1-2-3-4-5-6/h5H,2-4H2,1H3, purity 99%
Compound 22: hexanal, C6H12O, InChI=1S/C6H12O/c1-2-3-4-5-6-7/h6H,2-5H2,1H3, purity 99%
Compound 23: pentan-3-one, C5H10O, InChI=1S/C5H10O/c1-3-5(6)4-2/h3-4H2,1-2H3, purity 99%
Compound 24: cyclopentanone, C5H8O, InChI=1S/C5H8O/c6-5-3-1-2-4-5/h1-4H2, purity 99%
Compound 25: cyclohexanone, C6H10O, InChI=1S/C6H10O/c7-6-4-2-1-3-5-6/h1-5H2, purity 99%
Compound 26: 1,4-dioxane, C4H8O2, InChI=1S/C4H8O2/c1-2-6-4-3-5-1/h1-4H2, purity 99%
Compound 27: tetrahydrofuran, C4H8O, InChI=1S/C4H8O/c1-2-4-5-3-1/h1-4H2, purity 99%
Compound 28: ethyl acetate, C4H8O2, InChI=1S/C4H8O2/c1-3-6-4(2)5/h3H2,1-2H3, purity 99%
Compound 29: toluene, C7H8, InChI=1S/C7H8/c1-7-5-3-2-4-6-7/h2-6H,1H3, purity 99%
Compound 30: 1,4-dimethylbenzene, C8H10, InChI=1S/C8H10/c1-7-3-5-8(2)6-4-7/h3-6H,1-2H3, purity 99%
Compound 31: isopropylbenzene, C9H12, InChI=1S/C9H12/c1-8(2)9-6-4-3-5-7-9/h3-8H,1-2H3, purity 99%
Compound 32: 1,3,5-trimethylbenzene, C9H12, InChI=1S/C9H12/c1-7-4-8(2)6-9(3)5-7/h4-6H,1-3H3, purity 99%
Compound 33: chlorobenzene, C6H5Cl, InChI=1S/C6H5Cl/c7-6-4-2-1-3-5-6/h1-5H, purity 99%
Compound 34: trichloromethane, CHCl3, InChI=1S/CHCl3/c2-1(3)4/h1H, purity 99%
Compound 35: acetonitrile, C2H3N, InChI=1S/C2H3N/c1-2-3/h1H3, purity 99%
Compound 36: benzene, C6H6, InChI=1S/C6H6/c1-2-4-6-5-3-1/h1-6H, purity 99%
Compound 37: butan-1-ol, C4H10O, InChI=1S/C4H10O/c1-2-3-4-5/h5H,2-4H2,1H3, purity 99%
Compound 38: pentan-2-one, C5H10O, InChI=1S/C5H10O/c1-3-4-5(2)6/h3-4H2,1-2H3, purity 99%
Compound 39: pyridine, C5H5N, InChI=1S/C5H5N/c1-2-4-6-5-3-1/h1-5H, purity 99%

System: pentane + 1-hexyl-1,4-diazabicyclo[2.2.2]octan-1-ium bis((trifluoromethyl)sulfonyl)amide; phases: Liquid
Fixed: Pressure, kPa = 100
Fixed: Mole fraction of pentane = 0
Property: Activity coefficient of pentane (Liquid); method: Chromatography
Temperature, K	Activity coefficient of pentane	uncertainty
313.15	10.7	1.13
323.15	10	1.05
333.15	9.2	0.97
343.15	8.81	0.93
353.15	8.25	0.87
363.15	7.82	0.82

System: hexane + 1-hexyl-1,4-diazabicyclo[2.2.2]octan-1-ium bis((trifluoromethyl)sulfonyl)amide; phases: Liquid
Fixed: Pressure, kPa = 100
Fixed: Mole fraction of hexane = 0
Property: Activity coefficient of hexane (Liquid); method: Chromatography
Temperature, K	Activity coefficient of hexane	uncertainty
313.15	15.2	1.6
323.15	14	1.47
333.15	12.84	1.35
343.15	12.3	1.29
353.15	11.2	1.18
363.15	9.99	1.05

System: heptane + 1-hexyl-1,4-diazabicyclo[2.2.2]octan-1-ium bis((trifluoromethyl)sulfonyl)amide; phases: Liquid
Fixed: Pressure, kPa = 100
Fixed: Mole fraction of heptane = 0
Property: Activity coefficient of heptane (Liquid); method: Chromatography
Temperature, K	Activity coefficient of heptane	uncertainty
313.15	18.4	1.94
323.15	17	1.79
333.15	15.82	1.66
343.15	14.8	1.56
353.15	13.81	1.45
363.15	13.1	1.38

System: octane + 1-hexyl-1,4-diazabicyclo[2.2.2]octan-1-ium bis((trifluoromethyl)sulfonyl)amide; phases: Liquid
Fixed: Pressure, kPa = 100
Fixed: Mole fraction of octane = 0
Property: Activity coefficient of octane (Liquid); method: Chromatography
Temperature, K	Activity coefficient of octane	uncertainty
313.15	23.41	2.46
323.15	21.71	2.28
333.15	20.2	2.13
343.15	18.92	1.99
353.15	17.81	1.87
363.15	16.7	1.76

System: nonane + 1-hexyl-1,4-diazabicyclo[2.2.2]octan-1-ium bis((trifluoromethyl)sulfonyl)amide; phases: Liquid
Fixed: Pressure, kPa = 100
Fixed: Mole fraction of nonane = 0
Property: Activity coefficient of nonane (Liquid); method: Chromatography
Temperature, K	Activity coefficient of nonane	uncertainty
313.15	29.73	3.13
323.15	27.6	2.9
333.15	25.71	2.71
343.15	24.2	2.55
353.15	22.6	2.38
363.15	21	2.21

System: decane + 1-hexyl-1,4-diazabicyclo[2.2.2]octan-1-ium bis((trifluoromethyl)sulfonyl)amide; phases: Liquid
Fixed: Pressure, kPa = 100
Fixed: Mole fraction of decane = 0
Property: Activity coefficient of decane (Liquid); method: Chromatography
Temperature, K	Activity coefficient of decane	uncertainty
313.15	38.5	4.05
323.15	35.7	3.76
333.15	33.2	3.49
343.15	31	3.26
353.15	28.8	3.03
363.15	27.2	2.86

System: cyclopentane + 1-hexyl-1,4-diazabicyclo[2.2.2]octan-1-ium bis((trifluoromethyl)sulfonyl)amide; phases: Liquid
Fixed: Pressure, kPa = 100
Fixed: Mole fraction of cyclopentane = 0
Property: Activity coefficient of cyclopentane (Liquid); method: Chromatography
Temperature, K	Activity coefficient of cyclopentane	uncertainty
313.15	5.9	0.62
323.15	5.72	0.6
333.15	5.58	0.59
343.15	5.45	0.57
353.15	5.33	0.56
363.15	5.29	0.56

System: cyclohexane + 1-hexyl-1,4-diazabicyclo[2.2.2]octan-1-ium bis((trifluoromethyl)sulfonyl)amide; phases: Liquid
Fixed: Pressure, kPa = 100
Fixed: Mole fraction of cyclohexane = 0
Property: Activity coefficient of cyclohexane (Liquid); method: Chromatography
Temperature, K	Activity coefficient of cyclohexane	uncertainty
313.15	7.16	0.75
323.15	6.87	0.72
333.15	6.63	0.7
343.15	6.42	0.67
353.15	6.26	0.66
363.15	6.14	0.65

System: cycloheptane + 1-hexyl-1,4-diazabicyclo[2.2.2]octan-1-ium bis((trifluoromethyl)sulfonyl)amide; phases: Liquid
Fixed: Pressure, kPa = 100
Fixed: Mole fraction of cycloheptane = 0
Property: Activity coefficient of cycloheptane (Liquid); method: Chromatography
Temperature, K	Activity coefficient of cycloheptane	uncertainty
313.15	8.17	0.86
323.15	7.84	0.82
333.15	7.52	0.79
343.15	7.25	0.76
353.15	7.02	0.74
363.15	6.87	0.72

System: cyclooctane + 1-hexyl-1,4-diazabicyclo[2.2.2]octan-1-ium bis((trifluoromethyl)sulfonyl)amide; phases: Liquid
Fixed: Pressure, kPa = 100
Fixed: Mole fraction of cyclooctane = 0
Property: Activity coefficient of cyclooctane (Liquid); method: Chromatography
Temperature, K	Activity coefficient of cyclooctane	uncertainty
313.15	10.78	1.13
323.15	10.24	1.08
333.15	9.82	1.03
343.15	9.49	1
353.15	9.15	0.96
363.15	8.93	0.94

System: methanol + 1-hexyl-1,4-diazabicyclo[2.2.2]octan-1-ium bis((trifluoromethyl)sulfonyl)amide; phases: Liquid
Fixed: Pressure, kPa = 100
Fixed: Mole fraction of methanol = 0
Property: Activity coefficient of methanol (Liquid); method: Chromatography
Temperature, K	Activity coefficient of methanol	uncertainty
313.15	1.56	0.16
323.15	1.47	0.15
333.15	1.39	0.14
343.15	1.31	0.13
353.15	1.25	0.13
363.15	1.2	0.12

System: ethanol + 1-hexyl-1,4-diazabicyclo[2.2.2]octan-1-ium bis((trifluoromethyl)sulfonyl)amide; phases: Liquid
Fixed: Pressure, kPa = 100
Fixed: Mole fraction of ethanol = 0
Property: Activity coefficient of ethanol (Liquid); method: Chromatography
Temperature, K	Activity coefficient of ethanol	uncertainty
313.15	1.95	0.2
323.15	1.75	0.18
333.15	1.64	0.17
343.15	1.56	0.16
353.15	1.45	0.15
363.15	1.39	0.14

System: propan-1-ol + 1-hexyl-1,4-diazabicyclo[2.2.2]octan-1-ium bis((trifluoromethyl)sulfonyl)amide; phases: Liquid
Fixed: Pressure, kPa = 100
Fixed: Mole fraction of propan-1-ol = 0
Property: Activity coefficient of propan-1-ol (Liquid); method: Chromatography
Temperature, K	Activity coefficient of propan-1-ol	uncertainty
313.15	2.23	0.23
323.15	2.03	0.21
333.15	1.86	0.19
343.15	1.72	0.18
353.15	1.61	0.17
363.15	1.53	0.16

System: propan-2-ol + 1-hexyl-1,4-diazabicyclo[2.2.2]octan-1-ium bis((trifluoromethyl)sulfonyl)amide; phases: Liquid
Fixed: Pressure, kPa = 100
Fixed: Mole fraction of propan-2-ol = 0
Property: Activity coefficient of propan-2-ol (Liquid); method: Chromatography
Temperature, K	Activity coefficient of propan-2-ol	uncertainty
313.15	2.07	0.22
323.15	1.91	0.2
333.15	1.79	0.19
343.15	1.7	0.18
353.15	1.62	0.17
363.15	1.5	0.16

System: 2-methylpropan-2-ol + 1-hexyl-1,4-diazabicyclo[2.2.2]octan-1-ium bis((trifluoromethyl)sulfonyl)amide; phases: Liquid
Fixed: Pressure, kPa = 100
Fixed: Mole fraction of 2-methylpropan-2-ol = 0
Property: Activity coefficient of 2-methylpropan-2-ol (Liquid); method: Chromatography
Temperature, K	Activity coefficient of 2-methylpropan-2-ol	uncertainty
313.15	2	0.21
323.15	1.86	0.19
333.15	1.73	0.18
343.15	1.63	0.17
353.15	1.52	0.16
363.15	1.44	0.15

System: pentan-1-ol + 1-hexyl-1,4-diazabicyclo[2.2.2]octan-1-ium bis((trifluoromethyl)sulfonyl)amide; phases: Liquid
Fixed: Pressure, kPa = 100
Fixed: Mole fraction of pentan-1-ol = 0
Property: Activity coefficient of pentan-1-ol (Liquid); method: Chromatography
Temperature, K	Activity coefficient of pentan-1-ol	uncertainty
313.15	3.12	0.33
323.15	2.83	0.3
333.15	2.57	0.27
343.15	2.37	0.25
353.15	2.19	0.23
363.15	2.06	0.22

System: 2-methyl-2-pentanol + 1-hexyl-1,4-diazabicyclo[2.2.2]octan-1-ium bis((trifluoromethyl)sulfonyl)amide; phases: Liquid
Fixed: Pressure, kPa = 100
Fixed: Mole fraction of 2-methyl-2-pentanol = 0
Property: Activity coefficient of 2-methyl-2-pentanol (Liquid); method: Chromatography
Temperature, K	Activity coefficient of 2-methyl-2-pentanol	uncertainty
313.15	3.14	0.33
323.15	2.8	0.29
333.15	2.52	0.26
343.15	2.37	0.25
353.15	2.14	0.22
363.15	2.02	0.21

System: ethanal + 1-hexyl-1,4-diazabicyclo[2.2.2]octan-1-ium bis((trifluoromethyl)sulfonyl)amide; phases: Liquid
Fixed: Pressure, kPa = 100
Fixed: Mole fraction of ethanal = 0
Property: Activity coefficient of ethanal (Liquid); method: Chromatography
Temperature, K	Activity coefficient of ethanal	uncertainty
313.15	0.636	0.067
323.15	0.63	0.067
333.15	0.626	0.066
343.15	0.621	0.066
353.15	0.616	0.065
363.15	0.612	0.065

System: propanal + 1-hexyl-1,4-diazabicyclo[2.2.2]octan-1-ium bis((trifluoromethyl)sulfonyl)amide; phases: Liquid
Fixed: Pressure, kPa = 100
Fixed: Mole fraction of propanal = 0
Property: Activity coefficient of propanal (Liquid); method: Chromatography
Temperature, K	Activity coefficient of propanal	uncertainty
313.15	0.731	0.076
323.15	0.726	0.075
333.15	0.723	0.075
343.15	0.72	0.075
353.15	0.718	0.075
363.15	0.714	0.074

System: pentanal + 1-hexyl-1,4-diazabicyclo[2.2.2]octan-1-ium bis((trifluoromethyl)sulfonyl)amide; phases: Liquid
Fixed: Pressure, kPa = 100
Fixed: Mole fraction of pentanal = 0
Property: Activity coefficient of pentanal (Liquid); method: Chromatography
Temperature, K	Activity coefficient of pentanal	uncertainty
313.15	1.15	0.118
323.15	1.14	0.117
333.15	1.14	0.117
343.15	1.13	0.115
353.15	1.12	0.114
363.15	1.11	0.113

System: hexanal + 1-hexyl-1,4-diazabicyclo[2.2.2]octan-1-ium bis((trifluoromethyl)sulfonyl)amide; phases: Liquid
Fixed: Pressure, kPa = 100
Fixed: Mole fraction of hexanal = 0
Property: Activity coefficient of hexanal (Liquid); method: Chromatography
Temperature, K	Activity coefficient of hexanal	uncertainty
313.15	1.49	0.154
323.15	1.47	0.152
333.15	1.45	0.15
343.15	1.43	0.148
353.15	1.42	0.147
363.15	1.4	0.145

System: pentan-3-one + 1-hexyl-1,4-diazabicyclo[2.2.2]octan-1-ium bis((trifluoromethyl)sulfonyl)amide; phases: Liquid
Fixed: Pressure, kPa = 100
Fixed: Mole fraction of pentan-3-one = 0
Property: Activity coefficient of pentan-3-one (Liquid); method: Chromatography
Temperature, K	Activity coefficient of pentan-3-one	uncertainty
313.15	0.547	0.059
323.15	0.575	0.062
333.15	0.599	0.064
343.15	0.625	0.066
353.15	0.646	0.068
363.15	0.673	0.071

System: cyclopentanone + 1-hexyl-1,4-diazabicyclo[2.2.2]octan-1-ium bis((trifluoromethyl)sulfonyl)amide; phases: Liquid
Fixed: Pressure, kPa = 100
Fixed: Mole fraction of cyclopentanone = 0
Property: Activity coefficient of cyclopentanone (Liquid); method: Chromatography
Temperature, K	Activity coefficient of cyclopentanone	uncertainty
323.15	0.688	0.072
333.15	0.698	0.073
343.15	0.712	0.074
353.15	0.725	0.075
363.15	0.736	0.076

System: cyclohexanone + 1-hexyl-1,4-diazabicyclo[2.2.2]octan-1-ium bis((trifluoromethyl)sulfonyl)amide; phases: Liquid
Fixed: Pressure, kPa = 100
Fixed: Mole fraction of cyclohexanone = 0
Property: Activity coefficient of cyclohexanone (Liquid); method: Chromatography
Temperature, K	Activity coefficient of cyclohexanone	uncertainty
333.15	0.731	0.076
343.15	0.742	0.077
353.15	0.753	0.078
363.15	0.766	0.079

System: 1,4-dioxane + 1-hexyl-1,4-diazabicyclo[2.2.2]octan-1-ium bis((trifluoromethyl)sulfonyl)amide; phases: Liquid
Fixed: Pressure, kPa = 100
Fixed: Mole fraction of 1,4-dioxane = 0
Property: Activity coefficient of 1,4-dioxane (Liquid); method: Chromatography
Temperature, K	Activity coefficient of 1,4-dioxane	uncertainty
313.15	0.856	0.088
323.15	0.863	0.088
333.15	0.87	0.089
343.15	0.877	0.09
353.15	0.882	0.09
363.15	0.888	0.091

System: tetrahydrofuran + 1-hexyl-1,4-diazabicyclo[2.2.2]octan-1-ium bis((trifluoromethyl)sulfonyl)amide; phases: Liquid
Fixed: Pressure, kPa = 100
Fixed: Mole fraction of tetrahydrofuran = 0
Property: Activity coefficient of tetrahydrofuran (Liquid); method: Chromatography
Temperature, K	Activity coefficient of tetrahydrofuran	uncertainty
313.15	0.807	0.083
323.15	0.815	0.084
333.15	0.821	0.084
343.15	0.827	0.085
353.15	0.831	0.085
363.15	0.838	0.086

System: ethyl acetate + 1-hexyl-1,4-diazabicyclo[2.2.2]octan-1-ium bis((trifluoromethyl)sulfonyl)amide; phases: Liquid
Fixed: Pressure, kPa = 100
Fixed: Mole fraction of ethyl acetate = 0
Property: Activity coefficient of ethyl acetate (Liquid); method: Chromatography
Temperature, K	Activity coefficient of ethyl acetate	uncertainty
313.15	0.636	0.067
323.15	0.63	0.067
333.15	0.626	0.066
343.15	0.621	0.066
353.15	0.616	0.065
363.15	0.612	0.065

System: toluene + 1-hexyl-1,4-diazabicyclo[2.2.2]octan-1-ium bis((trifluoromethyl)sulfonyl)amide; phases: Liquid
Fixed: Pressure, kPa = 100
Fixed: Mole fraction of toluene = 0
Property: Activity coefficient of toluene (Liquid); method: Chromatography
Temperature, K	Activity coefficient of toluene	uncertainty
313.15	1.37	0.14
323.15	1.38	0.14
333.15	1.39	0.14
343.15	1.41	0.15
353.15	1.42	0.15
363.15	1.43	0.15

System: 1,4-dimethylbenzene + 1-hexyl-1,4-diazabicyclo[2.2.2]octan-1-ium bis((trifluoromethyl)sulfonyl)amide; phases: Liquid
Fixed: Pressure, kPa = 100
Fixed: Mole fraction of 1,4-dimethylbenzene = 0
Property: Activity coefficient of 1,4-dimethylbenzene (Liquid); method: Chromatography
Temperature, K	Activity coefficient of 1,4-dimethylbenzene	uncertainty
313.15	1.99	0.21
323.15	2	0.21
333.15	2.01	0.21
343.15	2.01	0.21
353.15	2.02	0.21
363.15	2.02	0.21

System: isopropylbenzene + 1-hexyl-1,4-diazabicyclo[2.2.2]octan-1-ium bis((trifluoromethyl)sulfonyl)amide; phases: Liquid
Fixed: Pressure, kPa = 100
Fixed: Mole fraction of isopropylbenzene = 0
Property: Activity coefficient of isopropylbenzene (Liquid); method: Chromatography
Temperature, K	Activity coefficient of isopropylbenzene	uncertainty
313.15	20.2	2.13
323.15	17.9	1.88
333.15	15.4	1.62
343.15	13.6	1.43
353.15	11.9	1.25
363.15	10.7	1.13

System: 1,3,5-trimethylbenzene + 1-hexyl-1,4-diazabicyclo[2.2.2]octan-1-ium bis((trifluoromethyl)sulfonyl)amide; phases: Liquid
Fixed: Pressure, kPa = 100
Fixed: Mole fraction of 1,3,5-trimethylbenzene = 0
Property: Activity coefficient of 1,3,5-trimethylbenzene (Liquid); method: Chromatography
Temperature, K	Activity coefficient of 1,3,5-trimethylbenzene	uncertainty
323.15	2.69	0.28
333.15	2.7	0.28
343.15	2.7	0.28
353.15	2.7	0.28
363.15	2.7	0.28

System: chlorobenzene + 1-hexyl-1,4-diazabicyclo[2.2.2]octan-1-ium bis((trifluoromethyl)sulfonyl)amide; phases: Liquid
Fixed: Pressure, kPa = 100
Fixed: Mole fraction of chlorobenzene = 0
Property: Activity coefficient of chlorobenzene (Liquid); method: Chromatography
Temperature, K	Activity coefficient of chlorobenzene	uncertainty
313.15	1.61	0.17
323.15	1.58	0.16
333.15	1.56	0.16
343.15	1.54	0.16
353.15	1.53	0.16
363.15	1.51	0.16

System: trichloromethane + 1-hexyl-1,4-diazabicyclo[2.2.2]octan-1-ium bis((trifluoromethyl)sulfonyl)amide; phases: Liquid
Fixed: Pressure, kPa = 100
Fixed: Mole fraction of trichloromethane = 0
Property: Activity coefficient of trichloromethane (Liquid); method: Chromatography
Temperature, K	Activity coefficient of trichloromethane	uncertainty
313.15	1.07	0.11
323.15	1.08	0.11
333.15	1.09	0.11
343.15	1.1	0.11
353.15	1.1	0.11
363.15	1.11	0.11

System: acetonitrile + 1-hexyl-1,4-diazabicyclo[2.2.2]octan-1-ium bis((trifluoromethyl)sulfonyl)amide; phases: Liquid
Fixed: Pressure, kPa = 100
Fixed: Mole fraction of acetonitrile = 0
Property: Activity coefficient of acetonitrile (Liquid); method: Chromatography
Temperature, K	Activity coefficient of acetonitrile	uncertainty
313.15	0.73	0.08
323.15	0.7	0.07
333.15	0.69	0.07
343.15	0.66	0.07
353.15	0.65	0.07
363.15	0.63	0.07

System: benzene + 1-hexyl-1,4-diazabicyclo[2.2.2]octan-1-ium bis((trifluoromethyl)sulfonyl)amide; phases: Liquid
Fixed: Pressure, kPa = 100
Fixed: Mole fraction of benzene = 0
Property: Activity coefficient of benzene (Liquid); method: Chromatography
Temperature, K	Activity coefficient of benzene	uncertainty
313.15	1.13	0.115
323.15	1.1	0.112
333.15	1.08	0.11
343.15	1.05	0.107
353.15	1.04	0.106
363.15	1.02	0.104

System: butan-1-ol + 1-hexyl-1,4-diazabicyclo[2.2.2]octan-1-ium bis((trifluoromethyl)sulfonyl)amide; phases: Liquid
Fixed: Pressure, kPa = 100
Fixed: Mole fraction of butan-1-ol = 0
Property: Activity coefficient of butan-1-ol (Liquid); method: Chromatography
Temperature, K	Activity coefficient of butan-1-ol	uncertainty
313.15	2.75	0.289
323.15	2.5	0.263
333.15	2.27	0.238
343.15	2.06	0.216
353.15	1.91	0.2
363.15	1.76	0.184

System: pentan-2-one + 1-hexyl-1,4-diazabicyclo[2.2.2]octan-1-ium bis((trifluoromethyl)sulfonyl)amide; phases: Liquid
Fixed: Pressure, kPa = 100
Fixed: Mole fraction of pentan-2-one = 0
Property: Activity coefficient of pentan-2-one (Liquid); method: Chromatography
Temperature, K	Activity coefficient of pentan-2-one	uncertainty
313.15	0.765	0.079
323.15	0.785	0.081
333.15	0.803	0.083
343.15	0.818	0.084
353.15	0.832	0.085
363.15	0.847	0.087

System: pyridine + 1-hexyl-1,4-diazabicyclo[2.2.2]octan-1-ium bis((trifluoromethyl)sulfonyl)amide; phases: Liquid
Fixed: Pressure, kPa = 100
Fixed: Mole fraction of pyridine = 0
Property: Activity coefficient of pyridine (Liquid); method: Chromatography
Temperature, K	Activity coefficient of pyridine	uncertainty
313.15	0.641	0.068
323.15	0.657	0.069
333.15	0.664	0.07
343.15	0.675	0.071
353.15	0.688	0.072
363.15	0.696	0.073
