Measured thermophysical data. Thermodynamic study of (alkyl esters + alpha,beta-alkyl dihalides) VI.H and V for 20 binary mixtures {xCu-1H2u-1CO2(CH2)3CH3 + (1 - x)alpha,omega-BrCH2(CH2)v-2CH2Br}, where u = 1 to 5, alpha = 1, and v = omega = 2 to 6
Source: J. Chem. Thermodyn., 2009, 10.1016/j.jct.2009.05.006
Compound 1: butyl methanoate, C5H10O2, InChI=1S/C5H10O2/c1-2-3-4-7-5-6/h5H,2-4H2,1H3, purity 99%
Compound 2: 1,2-dibromoethane, C2H4Br2, InChI=1S/C2H4Br2/c3-1-2-4/h1-2H2, purity 99%
Compound 3: 1,3-dibromopropane, C3H6Br2, InChI=1S/C3H6Br2/c4-2-1-3-5/h1-3H2, purity 99%
Compound 4: 1,4-dibromobutane, C4H8Br2, InChI=1S/C4H8Br2/c5-3-1-2-4-6/h1-4H2, purity 99%
Compound 5: 1,5-dibromopentane, C5H10Br2, InChI=1S/C5H10Br2/c6-4-2-1-3-5-7/h1-5H2, purity 99%
Compound 6: 1,6-dibromohexane, C6H12Br2, InChI=1S/C6H12Br2/c7-5-3-1-2-4-6-8/h1-6H2, purity 99%
Compound 7: butyl ethanoate, C6H12O2, InChI=1S/C6H12O2/c1-3-4-5-8-6(2)7/h3-5H2,1-2H3, purity 99%
Compound 8: butyl propanoate, C7H14O2, InChI=1S/C7H14O2/c1-3-5-6-9-7(8)4-2/h3-6H2,1-2H3, purity 99%
Compound 9: butyl butanoate, C8H16O2, InChI=1S/C8H16O2/c1-3-5-7-10-8(9)6-4-2/h3-7H2,1-2H3, purity 99%

System: 1,2-dibromoethane + butyl methanoate; phases: Liquid
Fixed: Pressure, kPa = 101
Fixed: Temperature, K = 298.15
Property: Excess molar enthalpy (molar enthalpy of mixing), kJ/mol (Liquid); method: Calvet calorimetry
Mole fraction of butyl methanoate	Excess molar enthalpy (molar enthalpy of mixing), kJ/mol	uncertainty
0.0509	0.041	0.001
0.1197	0.078	0.002
0.1992	0.113	0.003
0.28	0.134	0.003
0.3511	0.139	0.003
0.3993	0.137	0.003
0.449	0.132	0.003
0.4831	0.125	0.003
0.5504	0.113	0.003
0.6334	0.092	0.002
0.7275	0.067	0.002
0.8087	0.044	0.001
0.9111	0.017	0.001

System: 1,2-dibromoethane + butyl methanoate; phases: Liquid
Fixed: Temperature, K = 298.15
Fixed: Pressure, kPa = 101
Property: Mass density, kg/m3 (Liquid); method: Vibrating tube method
Mole fraction of butyl methanoate	Mass density, kg/m3	uncertainty
0.0489	2085.1	1.33
0.0955	2008.94	1.23
0.1401	1938.46	1.15
0.1884	1864.18	1.07
0.2379	1790.7	0.99
0.3095	1688.13	0.88
0.3398	1646.07	0.83
0.3993	1565.68	0.75
0.5112	1422.24	0.61
0.5786	1340.18	0.53
0.641	1266.85	0.47
0.7029	1196.55	0.41
0.7738	1118.89	0.34
0.8358	1053.24	0.29
0.9138	973.46	0.25

System: 1,2-dibromoethane + butyl methanoate; phases: Liquid
Fixed: Temperature, K = 298.15
Fixed: Pressure, kPa = 101
Property: Excess molar volume, m3/mol (Liquid); method: Calculated with densities of this investigation
Mole fraction of butyl methanoate	Excess molar volume, m3/mol	uncertainty
0.0489	3.7e-08	8e-09
0.0955	7e-08	8e-09
0.1401	9.1e-08	8e-09
0.1884	1.25e-07	8e-09
0.2379	1.35e-07	8e-09
0.3095	1.62e-07	8e-09
0.3398	1.68e-07	8e-09
0.3993	1.78e-07	8e-09
0.5112	1.73e-07	8e-09
0.5786	1.62e-07	8e-09
0.641	1.51e-07	8e-09
0.7029	1.27e-07	8e-09
0.7738	9.6e-08	8e-09
0.8358	7.2e-08	8e-09
0.9138	4.5e-08	8e-09

System: 1,3-dibromopropane + butyl methanoate; phases: Liquid
Fixed: Pressure, kPa = 101
Fixed: Temperature, K = 298.15
Property: Excess molar enthalpy (molar enthalpy of mixing), kJ/mol (Liquid); method: Calvet calorimetry
Mole fraction of butyl methanoate	Excess molar enthalpy (molar enthalpy of mixing), kJ/mol	uncertainty
0.0631	0.065	0.002
0.1489	0.128	0.003
0.2355	0.166	0.004
0.3208	0.182	0.004
0.3958	0.179	0.004
0.4589	0.171	0.004
0.5144	0.158	0.004
0.5498	0.149	0.004
0.5621	0.144	0.003
0.6372	0.121	0.003
0.7237	0.095	0.002
0.8208	0.06	0.002
0.9151	0.029	0.001

System: 1,3-dibromopropane + butyl methanoate; phases: Liquid
Fixed: Temperature, K = 298.15
Fixed: Pressure, kPa = 101
Property: Mass density, kg/m3 (Liquid); method: Vibrating tube method
Mole fraction of butyl methanoate	Mass density, kg/m3	uncertainty
0.055	1904.29	1.11
0.1095	1839	1.04
0.1626	1776.37	0.97
0.2171	1712.74	0.9
0.273	1648.68	0.83
0.3252	1589.49	0.77
0.5003	1397.08	0.58
0.5617	1331.4	0.52
0.6186	1271.46	0.47
0.6866	1200.91	0.41
0.8026	1082.84	0.31
0.8655	1020.08	0.26
0.9344	952.37	0.25

System: 1,3-dibromopropane + butyl methanoate; phases: Liquid
Fixed: Temperature, K = 298.15
Fixed: Pressure, kPa = 101
Property: Excess molar volume, m3/mol (Liquid); method: Calculated with densities of this investigation
Mole fraction of butyl methanoate	Excess molar volume, m3/mol	uncertainty
0.055	1.6e-08	8e-09
0.1095	3.7e-08	8e-09
0.1626	5.7e-08	8e-09
0.2171	8.4e-08	8e-09
0.273	9.5e-08	8e-09
0.3252	1.1e-07	8e-09
0.5003	1.09e-07	8e-09
0.5617	1.05e-07	8e-09
0.6186	9.5e-08	8e-09
0.6866	7.9e-08	8e-09
0.8026	5.8e-08	8e-09
0.8655	4.1e-08	8e-09
0.9344	1.7e-08	8e-09

System: 1,4-dibromobutane + butyl methanoate; phases: Liquid
Fixed: Pressure, kPa = 101
Fixed: Temperature, K = 298.15
Property: Excess molar enthalpy (molar enthalpy of mixing), kJ/mol (Liquid); method: Calvet calorimetry
Mole fraction of butyl methanoate	Excess molar enthalpy (molar enthalpy of mixing), kJ/mol	uncertainty
0.0646	0.074	0.002
0.1478	0.132	0.003
0.2392	0.177	0.004
0.3291	0.204	0.005
0.4058	0.211	0.005
0.4726	0.204	0.005
0.5295	0.195	0.004
0.5817	0.182	0.004
0.6425	0.162	0.004
0.7078	0.138	0.003
0.7787	0.106	0.003
0.8648	0.069	0.002
0.9404	0.028	0.001

System: 1,4-dibromobutane + butyl methanoate; phases: Liquid
Fixed: Temperature, K = 298.15
Fixed: Pressure, kPa = 101
Property: Mass density, kg/m3 (Liquid); method: Vibrating tube method
Mole fraction of butyl methanoate	Mass density, kg/m3	uncertainty
0.0702	1756.08	0.94
0.1221	1708.91	0.89
0.1836	1652.89	0.83
0.241	1600.45	0.78
0.3018	1544.61	0.72
0.4249	1431.07	0.61
0.4765	1383.26	0.57
0.5374	1326.55	0.52
0.6529	1218.52	0.42
0.7677	1110.31	0.33
0.8248	1056.19	0.29
0.8824	1001.42	0.25
0.9353	950.88	0.25

System: 1,4-dibromobutane + butyl methanoate; phases: Liquid
Fixed: Temperature, K = 298.15
Fixed: Pressure, kPa = 101
Property: Excess molar volume, m3/mol (Liquid); method: Calculated with densities of this investigation
Mole fraction of butyl methanoate	Excess molar volume, m3/mol	uncertainty
0.0702	6e-09	8e-09
0.1221	1.1e-08	8e-09
0.1836	1.7e-08	8e-09
0.241	2e-08	8e-09
0.3018	2.3e-08	8e-09
0.4249	2.6e-08	8e-09
0.4765	2.6e-08	8e-09
0.5374	2.5e-08	8e-09
0.6529	2.1e-08	8e-09
0.7677	1.6e-08	8e-09
0.8248	1.2e-08	8e-09
0.8824	1e-08	8e-09
0.9353	5e-09	8e-09

System: 1,5-dibromopentane + butyl methanoate; phases: Liquid
Fixed: Pressure, kPa = 101
Fixed: Temperature, K = 298.15
Property: Excess molar enthalpy (molar enthalpy of mixing), kJ/mol (Liquid); method: Calvet calorimetry
Mole fraction of butyl methanoate	Excess molar enthalpy (molar enthalpy of mixing), kJ/mol	uncertainty
0.0868	0.097	0.002
0.1853	0.165	0.004
0.2872	0.222	0.005
0.3842	0.25	0.006
0.4656	0.253	0.006
0.5328	0.242	0.005
0.5803	0.233	0.005
0.6291	0.218	0.005
0.7084	0.187	0.004
0.7902	0.139	0.003
0.8713	0.09	0.002
0.9437	0.047	0.002

System: 1,5-dibromopentane + butyl methanoate; phases: Liquid
Fixed: Temperature, K = 298.15
Fixed: Pressure, kPa = 101
Property: Mass density, kg/m3 (Liquid); method: Vibrating tube method
Mole fraction of butyl methanoate	Mass density, kg/m3	uncertainty
0.0756	1642.01	0.82
0.1366	1599.08	0.77
0.2027	1551.59	0.73
0.2682	1503.58	0.68
0.3259	1460.47	0.64
0.3871	1413.8	0.59
0.4492	1365.54	0.55
0.5143	1313.85	0.5
0.5679	1270.35	0.46
0.6274	1221.19	0.42
0.687	1170.94	0.38
0.7958	1076.48	0.3
0.8434	1033.97	0.27
0.9499	936.18	0.25

System: 1,5-dibromopentane + butyl methanoate; phases: Liquid
Fixed: Temperature, K = 298.15
Fixed: Pressure, kPa = 101
Property: Excess molar volume, m3/mol (Liquid); method: Calculated with densities of this investigation
Mole fraction of butyl methanoate	Excess molar volume, m3/mol	uncertainty
0.0756	4e-09	8e-09
0.1366	3e-09	8e-09
0.2027	-3e-09	8e-09
0.2682	-6e-09	8e-09
0.3259	-1.4e-08	8e-09
0.3871	-1.9e-08	8e-09
0.4492	-2.6e-08	8e-09
0.5143	-3.1e-08	8e-09
0.5679	-3.3e-08	8e-09
0.6274	-3.4e-08	8e-09
0.687	-3.5e-08	8e-09
0.7958	-3e-08	8e-09
0.8434	-2.6e-08	8e-09
0.9499	-1.5e-08	8e-09

System: butyl methanoate + 1,6-dibromohexane; phases: Liquid
Fixed: Pressure, kPa = 101
Fixed: Temperature, K = 298.15
Property: Excess molar enthalpy (molar enthalpy of mixing), kJ/mol (Liquid); method: Calvet calorimetry
Mole fraction of butyl methanoate	Excess molar enthalpy (molar enthalpy of mixing), kJ/mol	uncertainty
0.0858	0.101	0.003
0.1844	0.173	0.004
0.2879	0.237	0.005
0.3755	0.274	0.006
0.4521	0.287	0.006
0.5188	0.282	0.006
0.6009	0.266	0.006
0.6581	0.244	0.005
0.7307	0.208	0.005
0.8078	0.157	0.004
0.8827	0.103	0.003
0.9487	0.056	0.002

System: butyl methanoate + 1,6-dibromohexane; phases: Liquid
Fixed: Temperature, K = 298.15
Fixed: Pressure, kPa = 101
Property: Mass density, kg/m3 (Liquid); method: Vibrating tube method
Mole fraction of butyl methanoate	Mass density, kg/m3	uncertainty
0.0793	1558.23	0.73
0.1555	1514.85	0.69
0.2238	1474.51	0.65
0.2952	1430.8	0.61
0.3567	1391.77	0.57
0.4201	1350.14	0.53
0.4813	1308.59	0.5
0.5983	1224.92	0.42
0.6603	1178.22	0.38
0.7628	1097.17	0.32
0.8097	1058.36	0.29
0.854	1020.74	0.26
0.9078	973.55	0.25

System: butyl methanoate + 1,6-dibromohexane; phases: Liquid
Fixed: Temperature, K = 298.15
Fixed: Pressure, kPa = 101
Property: Excess molar volume, m3/mol (Liquid); method: Calculated with densities of this investigation
Mole fraction of butyl methanoate	Excess molar volume, m3/mol	uncertainty
0.0793	3e-09	8e-09
0.1555	-4e-09	8e-09
0.2238	-1.2e-08	8e-09
0.2952	-2.1e-08	8e-09
0.3567	-2.9e-08	8e-09
0.4201	-3.7e-08	8e-09
0.4813	-4e-08	8e-09
0.5983	-4.4e-08	8e-09
0.6603	-4.2e-08	8e-09
0.7628	-3.6e-08	8e-09
0.8097	-2.9e-08	8e-09
0.854	-2.5e-08	8e-09
0.9078	-1.7e-08	8e-09

System: 1,2-dibromoethane + butyl ethanoate; phases: Liquid
Fixed: Pressure, kPa = 101
Fixed: Temperature, K = 298.15
Property: Excess molar enthalpy (molar enthalpy of mixing), kJ/mol (Liquid); method: Calvet calorimetry
Mole fraction of butyl ethanoate	Excess molar enthalpy (molar enthalpy of mixing), kJ/mol	uncertainty
0.0399	-0.001	0.001
0.0964	-0.003	0.001
0.1625	-0.016	0.001
0.2339	-0.043	0.001
0.3039	-0.073	0.002
0.3717	-0.103	0.003
0.4237	-0.129	0.003
0.4749	-0.147	0.003
0.5228	-0.152	0.004
0.5985	-0.153	0.004
0.6854	-0.139	0.003
0.7854	-0.116	0.003
0.8989	-0.062	0.002

System: 1,2-dibromoethane + butyl ethanoate; phases: Liquid
Fixed: Temperature, K = 298.15
Fixed: Pressure, kPa = 101
Property: Mass density, kg/m3 (Liquid); method: Vibrating tube method
Mole fraction of 1,2-dibromoethane	Mass density, kg/m3	uncertainty
0.0411	2088.28	1.33
0.0776	2020.04	1.25
0.1229	1938.53	1.16
0.1646	1867.04	1.07
0.2132	1787.29	0.98
0.2547	1722.15	0.91
0.3138	1633.77	0.82
0.3655	1560.33	0.75
0.4245	1480.67	0.67
0.4793	1410.27	0.6
0.5474	1327.38	0.52
0.606	1259.71	0.46
0.6776	1181.2	0.39
0.7476	1108.57	0.33
0.823	1034.7	0.27
0.9008	962.52	0.25

System: 1,2-dibromoethane + butyl ethanoate; phases: Liquid
Fixed: Temperature, K = 298.15
Fixed: Pressure, kPa = 101
Property: Excess molar volume, m3/mol (Liquid); method: Calculated with densities of this investigation
Mole fraction of 1,2-dibromoethane	Excess molar volume, m3/mol	uncertainty
0.0411	2.5e-08	8e-09
0.0776	4.4e-08	8e-09
0.1229	8.8e-08	8e-09
0.1646	1.07e-07	8e-09
0.2132	1.28e-07	8e-09
0.2547	1.42e-07	8e-09
0.3138	1.62e-07	8e-09
0.3655	1.73e-07	8e-09
0.4245	1.77e-07	8e-09
0.4793	1.82e-07	8e-09
0.5474	1.71e-07	8e-09
0.606	1.61e-07	8e-09
0.6776	1.45e-07	8e-09
0.7476	1.22e-07	8e-09
0.823	8.1e-08	8e-09
0.9008	4.6e-08	8e-09

System: 1,3-dibromopropane + butyl ethanoate; phases: Liquid
Fixed: Pressure, kPa = 101
Fixed: Temperature, K = 298.15
Property: Excess molar enthalpy (molar enthalpy of mixing), kJ/mol (Liquid); method: Calvet calorimetry
Mole fraction of butyl ethanoate	Excess molar enthalpy (molar enthalpy of mixing), kJ/mol	uncertainty
0.0548	0.008	0.001
0.1295	0.012	0.001
0.2133	0.008	0.001
0.2909	-0.007	0.001
0.3612	-0.036	0.001
0.424	-0.071	0.002
0.4792	-0.105	0.003
0.5321	-0.121	0.003
0.6141	-0.124	0.003
0.7077	-0.116	0.003
0.808	-0.091	0.002
0.9143	-0.055	0.002

System: 1,3-dibromopropane + butyl ethanoate; phases: Liquid
Fixed: Temperature, K = 298.15
Fixed: Pressure, kPa = 101
Property: Mass density, kg/m3 (Liquid); method: Vibrating tube method
Mole fraction of 1,3-dibromopropane	Mass density, kg/m3	uncertainty
0.0468	1904.88	1.11
0.0981	1834.95	1.03
0.1458	1771.86	0.96
0.1939	1709.59	0.9
0.2394	1652.62	0.84
0.2955	1584.12	0.77
0.3458	1524.51	0.71
0.4083	1452.85	0.64
0.5206	1329.82	0.52
0.5824	1265.26	0.46
0.6465	1200.31	0.41
0.7071	1140.83	0.36
0.7784	1072.94	0.3
0.8482	1008.73	0.25
0.9172	947.42	0.25

System: 1,3-dibromopropane + butyl ethanoate; phases: Liquid
Fixed: Temperature, K = 298.15
Fixed: Pressure, kPa = 101
Property: Excess molar volume, m3/mol (Liquid); method: Calculated with densities of this investigation
Mole fraction of 1,3-dibromopropane	Excess molar volume, m3/mol	uncertainty
0.0468	2.4e-08	8e-09
0.0981	4.5e-08	8e-09
0.1458	5.5e-08	8e-09
0.1939	8.3e-08	8e-09
0.2394	8.9e-08	8e-09
0.2955	1.09e-07	8e-09
0.3458	1.22e-07	8e-09
0.4083	1.27e-07	8e-09
0.5206	1.25e-07	8e-09
0.5824	1.2e-07	8e-09
0.6465	1.07e-07	8e-09
0.7071	9.2e-08	8e-09
0.7784	7.5e-08	8e-09
0.8482	6e-08	8e-09
0.9172	2.5e-08	8e-09

System: 1,4-dibromobutane + butyl ethanoate; phases: Liquid
Fixed: Pressure, kPa = 101
Fixed: Temperature, K = 298.15
Property: Excess molar enthalpy (molar enthalpy of mixing), kJ/mol (Liquid); method: Calvet calorimetry
Mole fraction of butyl ethanoate	Excess molar enthalpy (molar enthalpy of mixing), kJ/mol	uncertainty
0.0576	0.014	0.001
0.135	0.024	0.001
0.2211	0.026	0.001
0.3056	0.015	0.001
0.3729	-0.004	0.001
0.4291	-0.026	0.001
0.4798	-0.052	0.002
0.4866	-0.066	0.002
0.5277	-0.078	0.002
0.5406	-0.088	0.002
0.603	-0.098	0.002
0.6715	-0.099	0.002
0.7464	-0.093	0.002
0.8416	-0.065	0.002
0.9307	-0.03	0.001

System: 1,4-dibromobutane + butyl ethanoate; phases: Liquid
Fixed: Temperature, K = 298.15
Fixed: Pressure, kPa = 101
Property: Mass density, kg/m3 (Liquid); method: Vibrating tube method
Mole fraction of 1,4-dibromobutane	Mass density, kg/m3	uncertainty
0.06	1754.15	0.94
0.1131	1699.34	0.88
0.1633	1648.18	0.83
0.2229	1588.24	0.77
0.2748	1536.73	0.72
0.3886	1426	0.61
0.4426	1374.38	0.56
0.5	1320.28	0.51
0.6216	1207.87	0.41
0.6806	1154.38	0.37
0.8076	1041.44	0.28
0.8633	992.97	0.25
0.9298	935.67	0.25

System: 1,4-dibromobutane + butyl ethanoate; phases: Liquid
Fixed: Temperature, K = 298.15
Fixed: Pressure, kPa = 101
Property: Excess molar volume, m3/mol (Liquid); method: Calculated with densities of this investigation
Mole fraction of 1,4-dibromobutane	Excess molar volume, m3/mol	uncertainty
0.06	1.2e-08	8e-09
0.1131	2.5e-08	8e-09
0.1633	3.1e-08	8e-09
0.2229	4e-08	8e-09
0.2748	4.7e-08	8e-09
0.3886	5e-08	8e-09
0.4426	4.9e-08	8e-09
0.5	4.7e-08	8e-09
0.6216	4.2e-08	8e-09
0.6806	3.5e-08	8e-09
0.8076	2.3e-08	8e-09
0.8633	1.6e-08	8e-09
0.9298	7e-09	8e-09

System: 1,5-dibromopentane + butyl ethanoate; phases: Liquid
Fixed: Pressure, kPa = 101
Fixed: Temperature, K = 298.15
Property: Excess molar enthalpy (molar enthalpy of mixing), kJ/mol (Liquid); method: Calvet calorimetry
Mole fraction of butyl ethanoate	Excess molar enthalpy (molar enthalpy of mixing), kJ/mol	uncertainty
0.0669	0.028	0.001
0.1499	0.04	0.001
0.2436	0.042	0.001
0.3318	0.035	0.001
0.4096	0.019	0.001
0.4762	0.001	0.001
0.5331	-0.02	0.001
0.5566	-0.032	0.001
0.5827	-0.039	0.001
0.6168	-0.052	0.002
0.6927	-0.063	0.002
0.7844	-0.059	0.002
0.8533	-0.044	0.001
0.9377	-0.024	0.001

System: 1,5-dibromopentane + butyl ethanoate; phases: Liquid
Fixed: Temperature, K = 298.15
Fixed: Pressure, kPa = 101
Property: Mass density, kg/m3 (Liquid); method: Vibrating tube method
Mole fraction of 1,5-dibromopentane	Mass density, kg/m3	uncertainty
0.0686	1640.82	0.82
0.1281	1592.95	0.77
0.1854	1546.77	0.72
0.243	1500.2	0.68
0.2973	1456.16	0.63
0.3607	1404.62	0.59
0.4169	1358.76	0.54
0.4759	1310.5	0.5
0.5904	1216.52	0.42
0.6516	1166.07	0.37
0.7671	1070.52	0.3
0.8225	1024.43	0.26
0.881	975.68	0.24

System: 1,5-dibromopentane + butyl ethanoate; phases: Liquid
Fixed: Temperature, K = 298.15
Fixed: Pressure, kPa = 101
Property: Excess molar volume, m3/mol (Liquid); method: Calculated with densities of this investigation
Mole fraction of 1,5-dibromopentane	Excess molar volume, m3/mol	uncertainty
0.0686	-6e-09	8e-09
0.1281	-1e-08	8e-09
0.1854	-1.1e-08	8e-09
0.243	-1.6e-08	8e-09
0.2973	-2e-08	8e-09
0.3607	-2.3e-08	8e-09
0.4169	-2.5e-08	8e-09
0.4759	-2.7e-08	8e-09
0.5904	-2.9e-08	8e-09
0.6516	-3e-08	8e-09
0.7671	-2.9e-08	8e-09
0.8225	-2.7e-08	8e-09
0.881	-1.9e-08	8e-09

System: butyl ethanoate + 1,6-dibromohexane; phases: Liquid
Fixed: Pressure, kPa = 101
Fixed: Temperature, K = 298.15
Property: Excess molar enthalpy (molar enthalpy of mixing), kJ/mol (Liquid); method: Calvet calorimetry
Mole fraction of butyl ethanoate	Excess molar enthalpy (molar enthalpy of mixing), kJ/mol	uncertainty
0.0742	0.034	0.001
0.1664	0.058	0.002
0.27	0.075	0.002
0.3625	0.075	0.002
0.4313	0.063	0.002
0.4863	0.05	0.002
0.5098	0.04	0.001
0.5385	0.031	0.001
0.5631	0.017	0.001
0.5869	0.007	0.001
0.6272	-0.01	0.001
0.6989	-0.022	0.001
0.7827	-0.026	0.001
0.8669	-0.02	0.001
0.9422	-0.01	0.001

System: butyl ethanoate + 1,6-dibromohexane; phases: Liquid
Fixed: Temperature, K = 298.15
Fixed: Pressure, kPa = 101
Property: Mass density, kg/m3 (Liquid); method: Vibrating tube method
Mole fraction of butyl ethanoate	Mass density, kg/m3	uncertainty
0.1369	1513.56	0.69
0.2111	1464.63	0.64
0.2634	1429.52	0.61
0.3292	1384.72	0.57
0.3855	1345.64	0.53
0.4456	1303.3	0.49
0.5046	1260.95	0.45
0.5622	1219.05	0.42
0.6175	1178.12	0.38
0.7334	1090.14	0.31
0.7855	1049.66	0.28
0.8433	1003.91	0.25
0.8909	965.75	0.24
0.9462	920.67	0.24

System: butyl ethanoate + 1,6-dibromohexane; phases: Liquid
Fixed: Temperature, K = 298.15
Fixed: Pressure, kPa = 101
Property: Excess molar volume, m3/mol (Liquid); method: Calculated with densities of this investigation
Mole fraction of butyl ethanoate	Excess molar volume, m3/mol	uncertainty
0.1369	-1.4e-08	8e-09
0.2111	-2.5e-08	8e-09
0.2634	-3.1e-08	8e-09
0.3292	-4e-08	8e-09
0.3855	-4.4e-08	8e-09
0.4456	-4.7e-08	8e-09
0.5046	-4.8e-08	8e-09
0.5622	-5.3e-08	8e-09
0.6175	-5.2e-08	8e-09
0.7334	-4.7e-08	8e-09
0.7855	-4.4e-08	8e-09
0.8433	-3.5e-08	8e-09
0.8909	-2.7e-08	8e-09
0.9462	-1.8e-08	8e-09

System: 1,2-dibromoethane + butyl propanoate; phases: Liquid
Fixed: Pressure, kPa = 101
Fixed: Temperature, K = 298.15
Property: Excess molar enthalpy (molar enthalpy of mixing), kJ/mol (Liquid); method: Calvet calorimetry
Mole fraction of butyl propanoate	Excess molar enthalpy (molar enthalpy of mixing), kJ/mol	uncertainty
0.0417	0.022	0.001
0.0966	0.031	0.001
0.1618	0.026	0.001
0.2302	0.008	0.001
0.2936	-0.02	0.001
0.3529	-0.05	0.002
0.4091	-0.075	0.002
0.4511	-0.092	0.002
0.4917	-0.101	0.003
0.5694	-0.111	0.003
0.6594	-0.11	0.003
0.7605	-0.096	0.002
0.8773	-0.063	0.002

System: 1,2-dibromoethane + butyl propanoate; phases: Liquid
Fixed: Temperature, K = 298.15
Fixed: Pressure, kPa = 101
Property: Mass density, kg/m3 (Liquid); method: Vibrating tube method
Mole fraction of 1,2-dibromoethane	Mass density, kg/m3	uncertainty
0.0377	2085.27	1.33
0.0756	2005.97	1.24
0.1117	1934.81	1.15
0.1528	1857.84	1.07
0.1955	1782.46	0.98
0.2371	1712.84	0.91
0.287	1633.9	0.82
0.3666	1517.74	0.7
0.5139	1328.73	0.52
0.5797	1253.45	0.46
0.6475	1181.15	0.39
0.7224	1106.68	0.33
0.8024	1032.76	0.27
0.8971	951.87	0.25

System: 1,2-dibromoethane + butyl propanoate; phases: Liquid
Fixed: Temperature, K = 298.15
Fixed: Pressure, kPa = 101
Property: Excess molar volume, m3/mol (Liquid); method: Calculated with densities of this investigation
Mole fraction of 1,2-dibromoethane	Excess molar volume, m3/mol	uncertainty
0.0377	4.5e-08	8e-09
0.0756	1.03e-07	8e-09
0.1117	1.2e-07	8e-09
0.1528	1.51e-07	8e-09
0.1955	1.64e-07	8e-09
0.2371	1.78e-07	8e-09
0.287	1.9e-07	8e-09
0.3666	1.97e-07	9e-09
0.5139	1.78e-07	8e-09
0.5797	1.67e-07	8e-09
0.6475	1.47e-07	8e-09
0.7224	1.15e-07	8e-09
0.8024	8.4e-08	8e-09
0.8971	4.1e-08	8e-09

System: 1,3-dibromopropane + butyl propanoate; phases: Liquid
Fixed: Pressure, kPa = 101
Fixed: Temperature, K = 298.15
Property: Excess molar enthalpy (molar enthalpy of mixing), kJ/mol (Liquid); method: Calvet calorimetry
Mole fraction of butyl propanoate	Excess molar enthalpy (molar enthalpy of mixing), kJ/mol	uncertainty
0.045	0.032	0.001
0.1122	0.052	0.002
0.1829	0.054	0.002
0.2541	0.038	0.001
0.3191	0.009	0.001
0.3797	-0.034	0.001
0.4331	-0.063	0.002
0.4438	-0.071	0.002
0.5107	-0.096	0.002
0.5886	-0.109	0.003
0.6793	-0.11	0.003
0.7807	-0.092	0.002
0.8921	-0.055	0.002

System: 1,3-dibromopropane + butyl propanoate; phases: Liquid
Fixed: Temperature, K = 298.15
Fixed: Pressure, kPa = 101
Property: Mass density, kg/m3 (Liquid); method: Vibrating tube method
Mole fraction of 1,3-dibromopropane	Mass density, kg/m3	uncertainty
0.0443	1900.67	1.11
0.0867	1836.4	1.04
0.1297	1773.45	0.97
0.1758	1708.87	0.9
0.2241	1643.68	0.83
0.2725	1580.97	0.76
0.324	1517.05	0.7
0.4335	1389.62	0.58
0.4911	1326.87	0.52
0.6187	1197	0.4
0.688	1131.33	0.35
0.7551	1070.67	0.3
0.8298	1006.49	0.25
0.9086	941.97	0.24

System: 1,3-dibromopropane + butyl propanoate; phases: Liquid
Fixed: Temperature, K = 298.15
Fixed: Pressure, kPa = 101
Property: Excess molar volume, m3/mol (Liquid); method: Calculated with densities of this investigation
Mole fraction of 1,3-dibromopropane	Excess molar volume, m3/mol	uncertainty
0.0443	1.8e-08	8e-09
0.0867	2.8e-08	8e-09
0.1297	4.8e-08	8e-09
0.1758	5.8e-08	8e-09
0.2241	7.2e-08	8e-09
0.2725	8.5e-08	8e-09
0.324	9.1e-08	8e-09
0.4335	9.9e-08	8e-09
0.4911	9.7e-08	8e-09
0.6187	9e-08	8e-09
0.688	7.7e-08	8e-09
0.7551	6.8e-08	8e-09
0.8298	4.7e-08	8e-09
0.9086	3.2e-08	8e-09

System: 1,4-dibromobutane + butyl propanoate; phases: Liquid
Fixed: Pressure, kPa = 101
Fixed: Temperature, K = 298.15
Property: Excess molar enthalpy (molar enthalpy of mixing), kJ/mol (Liquid); method: Calvet calorimetry
Mole fraction of butyl propanoate	Excess molar enthalpy (molar enthalpy of mixing), kJ/mol	uncertainty
0.0509	0.024	0.001
0.1183	0.026	0.001
0.196	0.012	0.001
0.275	-0.01	0.001
0.3518	-0.032	0.001
0.4473	-0.055	0.002
0.4843	-0.063	0.002
0.5517	-0.068	0.002
0.6323	-0.071	0.002
0.7319	-0.067	0.002
0.8302	-0.052	0.002
0.9193	-0.036	0.001

System: 1,4-dibromobutane + butyl propanoate; phases: Liquid
Fixed: Temperature, K = 298.15
Fixed: Pressure, kPa = 101
Property: Mass density, kg/m3 (Liquid); method: Vibrating tube method
Mole fraction of 1,4-dibromobutane	Mass density, kg/m3	uncertainty
0.0993	1702.4	0.89
0.1484	1647.38	0.83
0.2006	1590.44	0.77
0.2485	1539.57	0.72
0.307	1478.88	0.66
0.3593	1426.19	0.61
0.4138	1372.46	0.56
0.4767	1312.32	0.5
0.5324	1260.38	0.46
0.5968	1201.95	0.41
0.6549	1150.66	0.36
0.721	1093.83	0.32
0.787	1038.79	0.27
0.8544	984.01	0.24
0.9302	924.33	0.24

System: 1,4-dibromobutane + butyl propanoate; phases: Liquid
Fixed: Temperature, K = 298.15
Fixed: Pressure, kPa = 101
Property: Excess molar volume, m3/mol (Liquid); method: Calculated with densities of this investigation
Mole fraction of 1,4-dibromobutane	Excess molar volume, m3/mol	uncertainty
0.0993	6e-09	8e-09
0.1484	7e-09	8e-09
0.2006	6e-09	8e-09
0.2485	3e-09	8e-09
0.307	-2e-09	8e-09
0.3593	-7e-09	8e-09
0.4138	-1e-08	8e-09
0.4767	-1.8e-08	8e-09
0.5324	-1.9e-08	8e-09
0.5968	-2.2e-08	8e-09
0.6549	-2.4e-08	8e-09
0.721	-2.6e-08	8e-09
0.787	-2.5e-08	8e-09
0.8544	-1.8e-08	8e-09
0.9302	-1e-08	8e-09

System: 1,5-dibromopentane + butyl propanoate; phases: Liquid
Fixed: Pressure, kPa = 101
Fixed: Temperature, K = 298.15
Property: Excess molar enthalpy (molar enthalpy of mixing), kJ/mol (Liquid); method: Calvet calorimetry
Mole fraction of butyl propanoate	Excess molar enthalpy (molar enthalpy of mixing), kJ/mol	uncertainty
0.0697	0.031	0.001
0.1544	0.05	0.002
0.248	0.052	0.002
0.3363	0.037	0.001
0.4134	0.011	0.001
0.4801	-0.022	0.001
0.4924	-0.037	0.001
0.5371	-0.055	0.002
0.5511	-0.069	0.002
0.6257	-0.086	0.002
0.7153	-0.088	0.002
0.8183	-0.067	0.002
0.9151	-0.037	0.001

System: 1,5-dibromopentane + butyl propanoate; phases: Liquid
Fixed: Temperature, K = 298.15
Fixed: Pressure, kPa = 101
Property: Mass density, kg/m3 (Liquid); method: Vibrating tube method
Mole fraction of 1,5-dibromopentane	Mass density, kg/m3	uncertainty
0.06	1640.51	0.82
0.1136	1592.92	0.77
0.1663	1546.56	0.72
0.2221	1498.04	0.68
0.2722	1454.88	0.63
0.3331	1402.96	0.58
0.3905	1354.52	0.54
0.447	1307.41	0.5
0.5055	1259.11	0.45
0.5635	1211.76	0.41
0.6229	1163.79	0.37
0.6866	1112.94	0.33
0.7446	1067.16	0.29
0.8045	1020.35	0.26
0.8671	971.95	0.24
0.9329	921.69	0.24

System: 1,5-dibromopentane + butyl propanoate; phases: Liquid
Fixed: Temperature, K = 298.15
Fixed: Pressure, kPa = 101
Property: Excess molar volume, m3/mol (Liquid); method: Calculated with densities of this investigation
Mole fraction of 1,5-dibromopentane	Excess molar volume, m3/mol	uncertainty
0.06	-1.6e-08	8e-09
0.1136	-3.4e-08	8e-09
0.1663	-4.1e-08	8e-09
0.2221	-5.6e-08	8e-09
0.2722	-6.3e-08	8e-09
0.3331	-7.2e-08	8e-09
0.3905	-7.6e-08	8e-09
0.447	-8.4e-08	8e-09
0.5055	-8.6e-08	8e-09
0.5635	-8.7e-08	8e-09
0.6229	-8.3e-08	8e-09
0.6866	-8e-08	8e-09
0.7446	-7.2e-08	8e-09
0.8045	-5.8e-08	8e-09
0.8671	-4.1e-08	8e-09
0.9329	-2.5e-08	8e-09

System: butyl propanoate + 1,6-dibromohexane; phases: Liquid
Fixed: Pressure, kPa = 101
Fixed: Temperature, K = 298.15
Property: Excess molar enthalpy (molar enthalpy of mixing), kJ/mol (Liquid); method: Calvet calorimetry
Mole fraction of butyl propanoate	Excess molar enthalpy (molar enthalpy of mixing), kJ/mol	uncertainty
0.0731	0.028	0.001
0.1582	0.049	0.002
0.2418	0.057	0.002
0.3151	0.05	0.002
0.3861	0.026	0.001
0.4485	0.001	0.001
0.5064	-0.028	0.001
0.5318	-0.044	0.001
0.5419	-0.045	0.001
0.596	-0.06	0.002
0.6658	0.067	0.002
0.7456	0.066	0.002
0.834	0.053	0.002
0.9306	0.022	0.001

System: butyl propanoate + 1,6-dibromohexane; phases: Liquid
Fixed: Temperature, K = 298.15
Fixed: Pressure, kPa = 101
Property: Mass density, kg/m3 (Liquid); method: Vibrating tube method
Mole fraction of butyl propanoate	Mass density, kg/m3	uncertainty
0.0686	1552.3	0.73
0.1212	1514.66	0.69
0.1829	1470.4	0.65
0.2418	1427.98	0.61
0.2995	1386.24	0.57
0.4152	1302.26	0.49
0.4752	1258.56	0.45
0.5954	1170.51	0.38
0.6527	1128.4	0.34
0.7123	1084.48	0.31
0.7652	1045.44	0.28
0.8249	1001.25	0.24
0.8847	956.84	0.24
0.9365	918.31	0.24

System: butyl propanoate + 1,6-dibromohexane; phases: Liquid
Fixed: Temperature, K = 298.15
Fixed: Pressure, kPa = 101
Property: Excess molar volume, m3/mol (Liquid); method: Calculated with densities of this investigation
Mole fraction of butyl propanoate	Excess molar volume, m3/mol	uncertainty
0.0686	-3.5e-08	8e-09
0.1212	-5.6e-08	8e-09
0.1829	-7.7e-08	8e-09
0.2418	-9.1e-08	8e-09
0.2995	-9.8e-08	8e-09
0.4152	-1.08e-07	8e-09
0.4752	-1.07e-07	8e-09
0.5954	-9.6e-08	8e-09
0.6527	-8.6e-08	8e-09
0.7123	-8.1e-08	8e-09
0.7652	-6.9e-08	8e-09
0.8249	-5.8e-08	8e-09
0.8847	-3.9e-08	8e-09
0.9365	-2.5e-08	8e-09

System: 1,2-dibromoethane + butyl butanoate; phases: Liquid
Fixed: Pressure, kPa = 101
Fixed: Temperature, K = 298.15
Property: Excess molar enthalpy (molar enthalpy of mixing), kJ/mol (Liquid); method: Calvet calorimetry
Mole fraction of butyl butanoate	Excess molar enthalpy (molar enthalpy of mixing), kJ/mol	uncertainty
0.0408	0.026	0.001
0.0978	0.048	0.002
0.1663	0.058	0.002
0.2361	0.051	0.002
0.2997	0.032	0.001
0.3488	0.015	0.001
0.4085	-0.002	0.001
0.4847	-0.027	0.001
0.5816	-0.048	0.002
0.7159	-0.054	0.002
0.8632	-0.037	0.001
0.9347	-0.022	0.001

System: 1,2-dibromoethane + butyl butanoate; phases: Liquid
Fixed: Temperature, K = 298.15
Fixed: Pressure, kPa = 101
Property: Mass density, kg/m3 (Liquid); method: Vibrating tube method
Mole fraction of 1,2-dibromoethane	Mass density, kg/m3	uncertainty
0.034	2084.99	1.34
0.068	2006.19	1.24
0.1037	1928.71	1.15
0.1757	1786.46	0.99
0.2194	1707.65	0.9
0.27	1623.15	0.81
0.3645	1481.33	0.67
0.4193	1407.36	0.6
0.5507	1250.61	0.45
0.6263	1171.44	0.38
0.7028	1098.24	0.32
0.7871	1024.55	0.26
0.8864	945.82	0.24

System: 1,2-dibromoethane + butyl butanoate; phases: Liquid
Fixed: Temperature, K = 298.15
Fixed: Pressure, kPa = 101
Property: Excess molar volume, m3/mol (Liquid); method: Calculated with densities of this investigation
Mole fraction of 1,2-dibromoethane	Excess molar volume, m3/mol	uncertainty
0.034	3.7e-08	8e-09
0.068	8e-08	8e-09
0.1037	1.2e-07	8e-09
0.1757	1.6e-07	8e-09
0.2194	1.97e-07	9e-09
0.27	2.17e-07	9e-09
0.3645	2.5e-07	9e-09
0.4193	2.53e-07	9e-09
0.5507	2.4e-07	9e-09
0.6263	2.17e-07	9e-09
0.7028	1.87e-07	8e-09
0.7871	1.37e-07	8e-09
0.8864	7e-08	8e-09

System: butyl butanoate + 1,3-dibromopropane; phases: Liquid
Fixed: Pressure, kPa = 101
Fixed: Temperature, K = 298.15
Property: Excess molar enthalpy (molar enthalpy of mixing), kJ/mol (Liquid); method: Calvet calorimetry
Mole fraction of butyl butanoate	Excess molar enthalpy (molar enthalpy of mixing), kJ/mol	uncertainty
0.0478	0.023	0.001
0.1102	0.039	0.001
0.1831	0.044	0.001
0.2568	0.032	0.001
0.3257	0.004	0.001
0.3879	-0.033	0.001
0.4528	-0.068	0.002
0.5333	-0.091	0.002
0.6324	-0.103	0.003
0.7588	-0.094	0.002
0.8755	-0.066	0.002

System: butyl butanoate + 1,3-dibromopropane; phases: Liquid
Fixed: Temperature, K = 298.15
Fixed: Pressure, kPa = 101
Property: Mass density, kg/m3 (Liquid); method: Vibrating tube method
Mole fraction of butyl butanoate	Mass density, kg/m3	uncertainty
0.079	1834.63	1.04
0.1205	1768.32	0.96
0.206	1641.3	0.83
0.2513	1578.66	0.76
0.3045	1509.31	0.69
0.356	1445.76	0.63
0.4085	1384.26	0.57
0.4703	1315.94	0.51
0.5404	1243.38	0.44
0.5989	1186.32	0.39
0.7409	1059.86	0.29
0.8162	998.93	0.24
0.8997	935.58	0.24
0.9428	904.65	0.24

System: butyl butanoate + 1,3-dibromopropane; phases: Liquid
Fixed: Temperature, K = 298.15
Fixed: Pressure, kPa = 101
Property: Excess molar volume, m3/mol (Liquid); method: Calculated with densities of this investigation
Mole fraction of butyl butanoate	Excess molar volume, m3/mol	uncertainty
0.079	4.8e-08	8e-09
0.1205	5.8e-08	8e-09
0.206	8.5e-08	8e-09
0.2513	1.1e-07	8e-09
0.3045	1.2e-07	8e-09
0.356	1.24e-07	8e-09
0.4085	1.29e-07	8e-09
0.4703	1.35e-07	8e-09
0.5404	1.32e-07	8e-09
0.5989	1.29e-07	8e-09
0.7409	1.04e-07	8e-09
0.8162	7.7e-08	8e-09
0.8997	4.9e-08	8e-09
0.9428	2.1e-08	8e-09

System: butyl butanoate + 1,4-dibromobutane; phases: Liquid
Fixed: Pressure, kPa = 101
Fixed: Temperature, K = 298.15
Property: Excess molar enthalpy (molar enthalpy of mixing), kJ/mol (Liquid); method: Calvet calorimetry
Mole fraction of butyl butanoate	Excess molar enthalpy (molar enthalpy of mixing), kJ/mol	uncertainty
0.0526	0.027	0.001
0.1195	0.049	0.002
0.1947	0.058	0.002
0.2716	0.049	0.002
0.3471	0.023	0.001
0.4134	-0.011	0.001
0.471	-0.049	0.002
0.5005	-0.065	0.002
0.579	-0.086	0.002
0.6761	-0.093	0.002
0.7901	-0.082	0.002
0.9017	-0.051	0.002

System: butyl butanoate + 1,4-dibromobutane; phases: Liquid
Fixed: Temperature, K = 298.15
Fixed: Pressure, kPa = 101
Property: Mass density, kg/m3 (Liquid); method: Vibrating tube method
Mole fraction of butyl butanoate	Mass density, kg/m3	uncertainty
0.0459	1757.74	0.95
0.1377	1643.47	0.83
0.1788	1594.83	0.78
0.2814	1479.86	0.66
0.3346	1423.4	0.61
0.3891	1367.86	0.55
0.5003	1260.78	0.46
0.5704	1197.33	0.4
0.6285	1146.9	0.36
0.7046	1083.68	0.31
0.7684	1032.96	0.27
0.8513	970.06	0.24
0.9156	923.4	0.24

System: butyl butanoate + 1,4-dibromobutane; phases: Liquid
Fixed: Temperature, K = 298.15
Fixed: Pressure, kPa = 101
Property: Excess molar volume, m3/mol (Liquid); method: Calculated with densities of this investigation
Mole fraction of butyl butanoate	Excess molar volume, m3/mol	uncertainty
0.0459	-7e-09	8e-09
0.1377	-1e-08	8e-09
0.1788	-1e-08	8e-09
0.2814	-6e-09	8e-09
0.3346	1e-09	8e-09
0.3891	9e-09	8e-09
0.5003	1.9e-08	8e-09
0.5704	2.6e-08	8e-09
0.6285	3.1e-08	8e-09
0.7046	3.2e-08	8e-09
0.7684	3.5e-08	8e-09
0.8513	2.6e-08	8e-09
0.9156	1.8e-08	8e-09

System: butyl butanoate + 1,5-dibromopentane; phases: Liquid
Fixed: Pressure, kPa = 101
Fixed: Temperature, K = 298.15
Property: Excess molar enthalpy (molar enthalpy of mixing), kJ/mol (Liquid); method: Calvet calorimetry
Mole fraction of butyl butanoate	Excess molar enthalpy (molar enthalpy of mixing), kJ/mol	uncertainty
0.0642	0.027	0.001
0.1447	0.045	0.001
0.2305	0.05	0.002
0.3193	0.04	0.001
0.3711	0.026	0.001
0.3957	0.018	0.001
0.4159	0.004	0.001
0.4621	-0.015	0.001
0.4668	-0.02	0.001
0.5278	-0.039	0.001
0.6041	-0.048	0.002
0.6965	-0.054	0.002
0.806	-0.048	0.002
0.9138	-0.029	0.001

System: butyl butanoate + 1,5-dibromopentane; phases: Liquid
Fixed: Temperature, K = 298.15
Fixed: Pressure, kPa = 101
Property: Mass density, kg/m3 (Liquid); method: Vibrating tube method
Mole fraction of butyl butanoate	Mass density, kg/m3	uncertainty
0.0517	1642.59	0.82
0.1033	1591.9	0.77
0.1521	1545.03	0.72
0.2029	1497.33	0.68
0.2545	1449.85	0.63
0.3101	1399.96	0.58
0.3663	1350.58	0.54
0.4214	1303.32	0.49
0.478	1255.87	0.45
0.6053	1153.05	0.36
0.6591	1111.13	0.33
0.7254	1060.71	0.29
0.7885	1013.92	0.25
0.8577	963.85	0.24
0.9262	915.51	0.24

System: butyl butanoate + 1,5-dibromopentane; phases: Liquid
Fixed: Temperature, K = 298.15
Fixed: Pressure, kPa = 101
Property: Excess molar volume, m3/mol (Liquid); method: Calculated with densities of this investigation
Mole fraction of butyl butanoate	Excess molar volume, m3/mol	uncertainty
0.0517	-1.7e-08	8e-09
0.1033	-2.7e-08	8e-09
0.1521	-3.3e-08	8e-09
0.2029	-4.4e-08	8e-09
0.2545	-5e-08	8e-09
0.3101	-6.2e-08	8e-09
0.3663	-6.6e-08	8e-09
0.4214	-7.1e-08	8e-09
0.478	-7.6e-08	8e-09
0.6053	-7.5e-08	8e-09
0.6591	-7.5e-08	8e-09
0.7254	-6.5e-08	8e-09
0.7885	-5.9e-08	8e-09
0.8577	-4.5e-08	8e-09
0.9262	-2.6e-08	8e-09

System: butyl butanoate + 1,6-dibromohexane; phases: Liquid
Fixed: Pressure, kPa = 101
Fixed: Temperature, K = 298.15
Property: Excess molar enthalpy (molar enthalpy of mixing), kJ/mol (Liquid); method: Calvet calorimetry
Mole fraction of butyl butanoate	Excess molar enthalpy (molar enthalpy of mixing), kJ/mol	uncertainty
0.0751	0.021	0.001
0.1669	0.029	0.001
0.2609	0.028	0.001
0.3471	0.019	0.001
0.418	0.002	0.001
0.4834	-0.017	0.001
0.5223	-0.033	0.001
0.5361	-0.036	0.001
0.5892	-0.044	0.001
0.6544	-0.048	0.002
0.7475	-0.048	0.002
0.8287	-0.04	0.001
0.9253	-0.021	0.001

System: butyl butanoate + 1,6-dibromohexane; phases: Liquid
Fixed: Temperature, K = 298.15
Fixed: Pressure, kPa = 101
Property: Mass density, kg/m3 (Liquid); method: Vibrating tube method
Mole fraction of butyl butanoate	Mass density, kg/m3	uncertainty
0.0615	1551.3	0.73
0.114	1509.95	0.69
0.1733	1463.7	0.64
0.2207	1427.05	0.61
0.2782	1383.1	0.56
0.3299	1343.86	0.53
0.3955	1294.64	0.48
0.4505	1253.75	0.45
0.5089	1210.69	0.41
0.5674	1168	0.37
0.6293	1123.3	0.34
0.68	1087.08	0.31
0.7477	1039.01	0.27
0.8082	996.64	0.24
0.8735	951.23	0.24
0.9358	908.5	0.24

System: butyl butanoate + 1,6-dibromohexane; phases: Liquid
Fixed: Temperature, K = 298.15
Fixed: Pressure, kPa = 101
Property: Excess molar volume, m3/mol (Liquid); method: Calculated with densities of this investigation
Mole fraction of butyl butanoate	Excess molar volume, m3/mol	uncertainty
0.0615	-2e-08	8e-09
0.114	-4.4e-08	8e-09
0.1733	-6.4e-08	8e-09
0.2207	-7.6e-08	8e-09
0.2782	-1.03e-07	8e-09
0.3299	-1.17e-07	8e-09
0.3955	-1.35e-07	8e-09
0.4505	-1.43e-07	8e-09
0.5089	-1.46e-07	8e-09
0.5674	-1.47e-07	8e-09
0.6293	-1.45e-07	8e-09
0.68	-1.4e-07	8e-09
0.7477	-1.19e-07	8e-09
0.8082	-1.01e-07	8e-09
0.8735	-6.3e-08	8e-09
0.9358	-3.1e-08	8e-09
