Measured thermophysical data. Determination and correlation of solubility of tylosin tartrate in alcohol mixtures
Source: J. Chem. Thermodyn., 2015, 10.1016/j.jct.2014.08.026
Compound 1: tylosin tartrate, C50H83NO23, InChI=1S/C46H77NO17.C4H6O6/c1-13-33-30(22-58-45-42(57-12)41(56-11)37(52)26(5)60-45)18-23(2)14-15-31(49)24(3)19-29(16-17-48)39(25(4)32(50)20-34(51)62-33)64-44-38(53)36(47(9)10)40(27(6)61-44)63-35-21-46(8,55)43(54)28(7)59-35;5-1(3(7)8)2(6)4(9)10/h14-15,17-18,24-30,32-33,35-45,50,52-55H,13,16,19-22H2,1-12H3;1-2,5-6H,(H,7,8)(H,9,10)/b15-14+,23-18+;/t24-,25+,26-,27-,28+,29+,30-,32-,33-,35+,36-,37-,38-,39-,40-,41-,42-,43+,44+,45-,46-;1-,2-/m11/s1
Compound 2: methanol, CH4O, InChI=1S/CH4O/c1-2/h2H,1H3, purity 99.5%
Compound 3: ethanol, C2H6O, InChI=1S/C2H6O/c1-2-3/h3H,2H2,1H3, purity 99.7%
Compound 4: propan-1-ol, C3H8O, InChI=1S/C3H8O/c1-2-3-4/h4H,2-3H2,1H3, purity 99.8%
Compound 5: propan-2-ol, C3H8O, InChI=1S/C3H8O/c1-3(2)4/h3-4H,1-2H3, purity 99.7%

System: ethanol + methanol + tylosin tartrate; phases: Liquid, Crystal
Fixed: Pressure, kPa = 101.3
Property: Mole fraction of tylosin tartrate (Liquid); method: gravimetric method
Solvent: Mass fraction of methanol	Temperature, K	Mole fraction of tylosin tartrate	uncertainty
0	278.15	0.0003708	1.49e-05
0	283.15	0.0004277	1.72e-05
0	288.15	0.0005058	2.03e-05
0	293.15	0.0005985	2.41e-05
0	298.15	0.0007476	3e-05
0	303.15	0.0008394	3.37e-05
0	308.15	0.0009929	4e-05
0	313.15	0.001253	5.05e-05
0	318.15	0.001505	6.05e-05
0	323.15	0.001803	7.25e-05
0.2	278.15	0.0007686	3.14e-05
0.2	283.15	0.0009147	3.74e-05
0.2	288.15	0.0010888	4.44e-05
0.2	293.15	0.0012961	5.27e-05
0.2	298.15	0.001543	6.26e-05
0.2	303.15	0.0018318	7.42e-05
0.2	308.15	0.0021337	8.63e-05
0.2	313.15	0.0024915	0.0001007
0.2	318.15	0.0029307	0.0001185
0.2	323.15	0.0036043	0.0001451
0.4	278.15	0.0015687	6.33e-05
0.4	283.15	0.001744	7.03e-05
0.4	288.15	0.001952	7.86e-05
0.4	293.15	0.002176	8.76e-05
0.4	298.15	0.002432	9.78e-05
0.4	303.15	0.00272	0.0001094
0.4	308.15	0.003056	0.0001229
0.4	313.15	0.003424	0.0001377
0.4	318.15	0.0038402	0.0001544
0.4	323.15	0.00432	0.0001752
0.6	278.15	0.0019322	7.77e-05
0.6	283.15	0.002208	8.88e-05
0.6	288.15	0.002448	9.84e-05
0.6	293.15	0.00272	0.0001093
0.6	298.15	0.003008	0.0001209
0.6	303.15	0.00336	0.0001352
0.6	308.15	0.0038461	0.0001547
0.6	313.15	0.0043048	0.0001732
0.6	318.15	0.0049603	0.0001998
0.6	323.15	0.0058662	0.0002363
0.8	278.15	0.0025232	0.0001014
0.8	283.15	0.0028544	0.0001147
0.8	288.15	0.0032032	0.0001288
0.8	293.15	0.003584	0.0001441
0.8	298.15	0.003968	0.0001596
0.8	303.15	0.00453	0.0001822
0.8	308.15	0.005149	0.000207
0.8	313.15	0.0057456	0.0002312
0.8	318.15	0.0067534	0.0002719
0.8	323.15	0.0078813	0.000317
1	278.15	0.003167	0.0001271
1	283.15	0.0035794	0.0001436
1	288.15	0.0040132	0.0001611
1	293.15	0.0045685	0.0001833
1	298.15	0.0050844	0.000204
1	303.15	0.0057893	0.0002323
1	308.15	0.0063774	0.0002559
1	313.15	0.0072178	0.0002898
1	318.15	0.0084076	0.0003379
1	323.15	0.0099251	0.0003987

System: methanol + propan-1-ol + tylosin tartrate; phases: Liquid, Crystal
Fixed: Pressure, kPa = 101.3
Property: Mole fraction of tylosin tartrate (Liquid); method: gravimetric method
Solvent: Mass fraction of methanol	Temperature, K	Mole fraction of tylosin tartrate	uncertainty
0	278.15	0.0001915	7.7e-06
0	283.15	0.000225	9.1e-06
0	288.15	0.000296	1.19e-05
0	293.15	0.0003474	1.4e-05
0	298.15	0.0003987	1.6e-05
0	303.15	0.0004643	1.87e-05
0	308.15	0.0005857	2.36e-05
0	313.15	0.0006936	2.79e-05
0	318.15	0.000879	3.54e-05
0	323.15	0.0010825	4.36e-05
0.2	278.15	0.0007864	3.23e-05
0.2	283.15	0.0009464	3.87e-05
0.2	288.15	0.0010912	4.45e-05
0.2	293.15	0.0012311	5.03e-05
0.2	298.15	0.001473	5.99e-05
0.2	303.15	0.0016614	6.75e-05
0.2	308.15	0.0019833	8.07e-05
0.2	313.15	0.0025001	0.0001014
0.2	318.15	0.002903	0.0001174
0.2	323.15	0.003315	0.0001337
0.4	278.15	0.001512	6.08e-05
0.4	283.15	0.0016383	6.6e-05
0.4	288.15	0.001816	7.32e-05
0.4	293.15	0.002145	8.64e-05
0.4	298.15	0.0023232	9.35e-05
0.4	303.15	0.0025423	0.0001023
0.4	308.15	0.0028621	0.0001152
0.4	313.15	0.0032733	0.0001316
0.4	318.15	0.003682	0.000148
0.4	323.15	0.004162	0.0001679
0.6	278.15	0.0019234	7.73e-05
0.6	283.15	0.0021539	8.66e-05
0.6	288.15	0.0023439	9.43e-05
0.6	293.15	0.0026624	0.0001071
0.6	298.15	0.0029864	0.00012
0.6	303.15	0.0032656	0.0001313
0.6	308.15	0.0036952	0.0001486
0.6	313.15	0.0041528	0.0001669
0.6	318.15	0.0046287	0.0001865
0.6	323.15	0.0056612	0.0002279
0.8	278.15	0.0025742	0.0001035
0.8	283.15	0.0028644	0.0001152
0.8	288.15	0.0033213	0.0001335
0.8	293.15	0.0035343	0.000142
0.8	298.15	0.0038432	0.0001545
0.8	303.15	0.0043424	0.0001746
0.8	308.15	0.0047123	0.0001895
0.8	313.15	0.0053763	0.0002164
0.8	318.15	0.0062231	0.0002505
0.8	323.15	0.0069431	0.0002804
1	278.15	0.003167	0.0001271
1	283.15	0.0035794	0.0001436
1	288.15	0.0040132	0.0001611
1	293.15	0.0045685	0.0001833
1	298.15	0.0050844	0.000204
1	303.15	0.0057893	0.0002323
1	308.15	0.0063774	0.0002559
1	313.15	0.0072178	0.0002898
1	318.15	0.0084076	0.0003379
1	323.15	0.0099251	0.0003987

System: methanol + propan-2-ol + tylosin tartrate; phases: Liquid, Crystal
Fixed: Pressure, kPa = 101.3
Property: Mole fraction of tylosin tartrate (Liquid); method: gravimetric method
Solvent: Mass fraction of methanol	Temperature, K	Mole fraction of tylosin tartrate	uncertainty
0	278.15	0.0001244	5e-06
0	283.15	0.0001635	6.6e-06
0	288.15	0.0002126	8.6e-06
0	293.15	0.0002528	1.02e-05
0	298.15	0.0003387	1.37e-05
0	303.15	0.0004047	1.63e-05
0	308.15	0.0005148	2.08e-05
0	313.15	0.0006526	2.63e-05
0	318.15	0.0008426	3.4e-05
0	323.15	0.00107	4.31e-05
0.2	278.15	0.0005584	2.29e-05
0.2	283.15	0.0006802	2.77e-05
0.2	288.15	0.0007487	3.06e-05
0.2	293.15	0.0009103	3.71e-05
0.2	298.15	0.00105	4.27e-05
0.2	303.15	0.001216	4.95e-05
0.2	308.15	0.0015238	6.19e-05
0.2	313.15	0.001817	7.36e-05
0.2	318.15	0.002147	8.69e-05
0.2	323.15	0.0025302	0.000102
0.4	278.15	0.0010202	4.12e-05
0.4	283.15	0.0011203	4.52e-05
0.4	288.15	0.0013212	5.33e-05
0.4	293.15	0.0014221	5.74e-05
0.4	298.15	0.0016203	6.55e-05
0.4	303.15	0.001939	7.82e-05
0.4	308.15	0.0021721	8.75e-05
0.4	313.15	0.002435	9.82e-05
0.4	318.15	0.002827	0.000114
0.4	323.15	0.003236	0.0001316
0.6	278.15	0.001543	6.22e-05
0.6	283.15	0.001666	6.72e-05
0.6	288.15	0.0019401	7.82e-05
0.6	293.15	0.0021303	8.58e-05
0.6	298.15	0.0024204	9.75e-05
0.6	303.15	0.0027212	0.0001097
0.6	308.15	0.003193	0.0001287
0.6	313.15	0.003638	0.0001466
0.6	318.15	0.004308	0.0001736
0.6	323.15	0.0049875	0.0002004
0.8	278.15	0.0022611	9.09e-05
0.8	283.15	0.0024713	9.95e-05
0.8	288.15	0.0026912	0.0001084
0.8	293.15	0.0030303	0.0001222
0.8	298.15	0.0034113	0.0001375
0.8	303.15	0.0037802	0.0001525
0.8	308.15	0.0043203	0.0001741
0.8	313.15	0.0047904	0.0001931
0.8	318.15	0.0054813	0.000221
0.8	323.15	0.0063206	0.0002565
1	278.15	0.003167	0.0001271
1	283.15	0.0035794	0.0001436
1	288.15	0.0040132	0.0001611
1	293.15	0.0045685	0.0001833
1	298.15	0.0050844	0.000204
1	303.15	0.0057893	0.0002323
1	308.15	0.0063774	0.0002559
1	313.15	0.0072178	0.0002898
1	318.15	0.0084076	0.0003379
1	323.15	0.0099251	0.0003987

System: ethanol + tylosin tartrate; phases: Liquid, Crystal
Fixed: Pressure, kPa = 101.3
Property: Mole fraction of tylosin tartrate (Liquid); method: gravimetric method
Temperature, K	Mole fraction of tylosin tartrate	uncertainty
278.15	0.0003708	1.49e-05
283.15	0.0004277	1.72e-05
288.15	0.0005058	2.03e-05
293.15	0.0005985	2.41e-05
298.15	0.0007476	3e-05
303.15	0.0008394	3.37e-05
308.15	0.0009929	4e-05
313.15	0.001253	5.05e-05
318.15	0.001505	6.05e-05
323.15	0.001803	7.25e-05

System: methanol + tylosin tartrate; phases: Liquid, Crystal
Fixed: Pressure, kPa = 101.3
Property: Mole fraction of tylosin tartrate (Liquid); method: gravimetric method
Temperature, K	Mole fraction of tylosin tartrate	uncertainty
278.15	0.003167	0.0001271
283.15	0.0035794	0.0001436
288.15	0.0040132	0.0001611
293.15	0.0045685	0.0001833
298.15	0.0050844	0.000204
303.15	0.0057893	0.0002323
308.15	0.0063774	0.0002559
313.15	0.0072178	0.0002898
318.15	0.0084076	0.0003379
323.15	0.0099251	0.0003987

System: propan-1-ol + tylosin tartrate; phases: Liquid, Crystal
Fixed: Pressure, kPa = 101.3
Property: Mole fraction of tylosin tartrate (Liquid); method: gravimetric method
Temperature, K	Mole fraction of tylosin tartrate	uncertainty
278.15	0.0001915	7.7e-06
283.15	0.000225	9.1e-06
288.15	0.000296	1.19e-05
293.15	0.0003474	1.4e-05
298.15	0.0003987	1.6e-05
303.15	0.0004643	1.87e-05
308.15	0.0005857	2.36e-05
313.15	0.0006936	2.79e-05
318.15	0.000879	3.54e-05
323.15	0.0010825	4.36e-05

System: propan-2-ol + tylosin tartrate; phases: Liquid, Crystal
Fixed: Pressure, kPa = 101.3
Property: Mole fraction of tylosin tartrate (Liquid); method: gravimetric method
Temperature, K	Mole fraction of tylosin tartrate	uncertainty
278.15	0.0001244	5e-06
283.15	0.0001635	6.6e-06
288.15	0.0002126	8.6e-06
293.15	0.0002528	1.02e-05
298.15	0.0003387	1.37e-05
303.15	0.0004047	1.63e-05
308.15	0.0005148	2.08e-05
313.15	0.0006526	2.63e-05
318.15	0.0008426	3.4e-05
323.15	0.00107	4.31e-05
