Measured thermophysical data. Enthalpies of combustion, vapour pressures, and enthalpies of sublimation of the 1,5- and 1,8-diaminonaphthalenes
Source: J. Chem. Thermodyn., 2010, 10.1016/j.jct.2009.09.009
Compound 1: carbon dioxide, CO2, InChI=1S/CO2/c2-1-3
Compound 2: nitrogen, N2, InChI=1S/N2/c1-2
Compound 3: water, H2O, InChI=1S/H2O/h1H2
Compound 4: oxygen, O2, InChI=1S/O2/c1-2
Compound 5: graphite, C
Compound 6: hydrogen, H2, InChI=1S/H2/h1H
Compound 7: 1,5-diaminonaphthalene, C10H10N2, InChI=1S/C10H10N2/c11-9-5-1-3-7-8(9)4-2-6-10(7)12/h1-6H,11-12H2, purity 97%
Compound 8: 1,8-diaminonaphthalene, C10H10N2, InChI=1S/C10H10N2/c11-8-5-1-3-7-4-2-6-9(12)10(7)8/h1-6H,11-12H2, purity 99%

System: 1,5-diaminonaphthalene; phases: Crystal, Gas
Property: Molar enthalpy of vaporization or sublimation, kJ/mol (Crystal); method: Clausius-Clapeyron equation and measured Psat
Temperature, K	Molar enthalpy of vaporization or sublimation, kJ/mol	uncertainty
378.11	118.5	3

System: 1,5-diaminonaphthalene; phases: Crystal, Gas
Property: Vapor or sublimation pressure, kPa (Crystal); method: Calculated from knudsen effusion weight loss
Temperature, K	Vapor or sublimation pressure, kPa	uncertainty
367.07	0.000122	6e-06
367.07	0.000123	6e-06
367.07	0.000125	6e-06
369.1	0.00015	8e-06
369.1	0.000153	8e-06
369.1	0.000149	7e-06
371.16	0.000193	1e-05
371.16	0.00019	1e-05
371.16	0.000182	9e-06
373.08	0.000246	1.2e-05
373.08	0.000243	1.2e-05
373.08	0.000229	1.1e-05
375.1	0.000311	1.6e-05
375.1	0.000289	1.4e-05
375.1	0.000286	1.4e-05
377.16	0.000365	1.8e-05
377.16	0.000344	1.7e-05
377.16	0.000338	1.7e-05
379.09	0.000432	2.2e-05
379.09	0.000427	2.1e-05
379.09	0.000417	2.1e-05
381.1	0.000535	2.7e-05
381.1	0.000522	2.6e-05
381.1	0.000502	2.5e-05
383.16	0.00064	3.2e-05
383.16	0.000622	3.1e-05
383.16	0.000603	3e-05
385.08	0.000758	3.8e-05
385.08	0.000781	3.9e-05
385.08	0.000757	3.8e-05
387.09	0.000967	4.8e-05
387.09	0.00093	4.7e-05
387.09	0.000909	4.6e-05
389.16	0.001163	0.00012
389.16	0.001096	0.000112
389.16	0.001063	0.000108

System: 1,8-diaminonaphthalene; phases: Crystal, Gas
Property: Molar enthalpy of vaporization or sublimation, kJ/mol (Crystal); method: Clausius-Clapeyron equation and measured Psat
Temperature, K	Molar enthalpy of vaporization or sublimation, kJ/mol	uncertainty
326.09	97.6	1.4

System: 1,8-diaminonaphthalene; phases: Crystal, Gas
Property: Vapor or sublimation pressure, kPa (Crystal); method: Calculated from knudsen effusion weight loss
Temperature, K	Vapor or sublimation pressure, kPa	uncertainty
314.1	4.71e-05	2.4e-06
314.1	4.91e-05	2.5e-06
314.1	4.81e-05	2.4e-06
316.18	6.84e-05	3.4e-06
316.18	6.65e-05	3.3e-06
316.18	6.32e-05	3.2e-06
318.18	8.3e-05	4.2e-06
318.18	7.89e-05	4e-06
318.18	8.02e-05	4e-06
320.09	0.000102	5e-06
320.09	0.000102	5e-06
320.09	9.96e-05	5e-06
322.13	0.000135	7e-06
322.13	0.000127	6e-06
322.13	0.000126	6e-06
324.19	0.000165	8e-06
324.19	0.000155	8e-06
324.19	0.000159	8e-06
326.12	0.000197	1e-05
326.12	0.000204	1e-05
326.12	0.000181	9e-06
328.19	0.000261	1.3e-05
328.19	0.000251	1.3e-05
328.19	0.000244	1.2e-05
330.17	0.000315	1.6e-05
330.17	0.000298	1.5e-05
330.17	0.000296	1.5e-05
332.07	0.000351	1.8e-05
332.07	0.000379	1.9e-05
332.07	0.000364	1.8e-05
334.12	0.000485	2.4e-05
334.12	0.000472	2.4e-05
334.12	0.000466	2.3e-05
336.19	0.000583	2.9e-05
336.19	0.00056	2.8e-05
336.19	0.000585	2.9e-05
338.08	0.000707	3.5e-05
338.08	0.000739	3.7e-05
338.08	0.000734	3.7e-05

Reaction: -1 1,5-diaminonaphthalene + 10 carbon dioxide + 1 nitrogen + 5 water + -12.5 oxygen
Property: Specific internal energy of reaction at constant volume, J/g
-34150.8

Reaction: -1 1,8-diaminonaphthalene + 10 carbon dioxide + 1 nitrogen + 5 water + -12.5 oxygen
Property: Specific internal energy of reaction at constant volume, J/g
-34297.7

Reaction: 1 1,5-diaminonaphthalene + -10 graphite + -5 hydrogen + -1 nitrogen
Property: Molar enthalpy of reaction, kJ/mol
42.1

Reaction: 1 1,5-diaminonaphthalene + -10 graphite + -5 hydrogen + -1 nitrogen
Property: Molar enthalpy of reaction, kJ/mol
164.6

Reaction: 1 1,8-diaminonaphthalene + -10 graphite + -5 hydrogen + -1 nitrogen
Property: Molar enthalpy of reaction, kJ/mol
65.4

Reaction: 1 1,8-diaminonaphthalene + -10 graphite + -5 hydrogen + -1 nitrogen
Property: Molar enthalpy of reaction, kJ/mol
164.4
