Measured thermophysical data. Molecular interactions of sodium salicylate in physiological media under the influence of electrolyte/non-electrolyte at different temperatures: Volumetric and acoustic study
Source: J. Chem. Thermodyn., 2017, 10.1016/j.jct.2017.08.002
Compound 1: sodium salicylate, C7H5NaO3, InChI=1S/C7H6O3.Na/c8-6-4-2-1-3-5(6)7(9)10;/h1-4,8H,(H,9,10);/q;+1/p-1, purity 99%
Compound 2: cis-1,2,3,5-trans-4,6-cyclohexanehexol, C6H12O6, InChI=1S/C6H12O6/c7-1-2(8)4(10)6(12)5(11)3(1)9/h1-12H/t1-,2-,3-,4+,5-,6-, purity 99%
Compound 3: sodium chloride, ClNa, InChI=1S/ClH.Na/h1H;/q;+1/p-1, purity 99%
Compound 4: water, H2O, InChI=1S/H2O/h1H2

System: sodium salicylate + sodium chloride + water; phases: Liquid
Fixed: Pressure, kPa = 101.325
Property: Mass density, kg/m3 (Liquid); method: Pycnometric method
Solvent: Molality, mol/kg of sodium chloride	Temperature, K	Molality, mol/kg of sodium salicylate	Mass density, kg/m3	uncertainty
0	288.15	0	999.1	0.36
0	288.15	0.0101	999.8	0.35
0	288.15	0.0221	1000.62	0.35
0	288.15	0.0307	1001.19	0.35
0	288.15	0.0448	1002.19	0.36
0	288.15	0.0501	1002.51	0.36
0	288.15	0.0546	1002.85	0.36
0	288.15	0.06	1003.2	0.36
0	288.15	0.0667	1003.66	0.36
0	288.15	0.0704	1003.92	0.36
0	288.15	0.0802	1004.55	0.37
0	288.15	0.0848	1004.87	0.37
0	288.15	0.0906	1005.23	0.37
0	288.15	0.1019	1006	0.38
0	298.15	0	997.05	0.36
0	298.15	0.0101	997.73	0.35
0	298.15	0.0221	998.51	0.35
0	298.15	0.0307	999.07	0.35
0	298.15	0.0448	1000	0.36
0	298.15	0.0501	1000.34	0.36
0	298.15	0.0546	1000.67	0.36
0	298.15	0.06	1001.01	0.36
0	298.15	0.0704	1001.66	0.37
0	298.15	0.0802	1002.35	0.37
0	298.15	0.0848	1002.59	0.37
0	298.15	0.0907	1002.99	0.37
0	298.15	0.0951	1003.26	0.38
0	298.15	0.1018	1003.68	0.38
0	308.15	0	994.04	0.38
0	308.15	0.01	994.69	0.37
0	308.15	0.0221	995.46	0.37
0	308.15	0.0333	996.16	0.38
0	308.15	0.04	996.59	0.38
0	308.15	0.0451	996.9	0.38
0	308.15	0.0501	997.24	0.38
0	308.15	0.0572	997.65	0.38
0	308.15	0.0702	998.5	0.39
0	308.15	0.0802	999.1	0.39
0	308.15	0.0857	999.47	0.4
0	308.15	0.0906	999.8	0.4
0	308.15	0.0951	1000.07	0.4
0	308.15	0.1023	1000.5	0.4
0.06	288.15	0	1001.66	0.36
0.06	288.15	0.0134	1002.57	0.36
0.06	288.15	0.0213	1003.1	0.36
0.06	288.15	0.03	1003.7	0.36
0.06	288.15	0.0401	1004.39	0.36
0.06	288.15	0.0504	1005.1	0.36
0.06	288.15	0.0554	1005.41	0.36
0.06	288.15	0.0603	1005.75	0.37
0.06	288.15	0.0701	1006.41	0.37
0.06	288.15	0.0753	1006.76	0.37
0.06	288.15	0.0801	1007.1	0.37
0.06	288.15	0.0844	1007.36	0.37
0.06	288.15	0.09	1007.74	0.38
0.06	288.15	0.095	1008.06	0.38
0.06	288.15	0.1001	1008.4	0.38
0.06	298.15	0	999.52	0.36
0.06	298.15	0.0134	1000.41	0.35
0.06	298.15	0.0213	1000.92	0.36
0.06	298.15	0.03	1001.46	0.36
0.06	298.15	0.0401	1002.09	0.37
0.06	298.15	0.0504	1002.76	0.37
0.06	298.15	0.0554	1003.05	0.37
0.06	298.15	0.0603	1003.36	0.38
0.06	298.15	0.0701	1003.98	0.38
0.06	298.15	0.0753	1004.3	0.39
0.06	298.15	0.0801	1004.62	0.39
0.06	298.15	0.0844	1004.89	0.39
0.06	298.15	0.09	1005.25	0.4
0.06	298.15	0.095	1005.57	0.4
0.06	298.15	0.1001	1005.86	0.4
0.06	308.15	0	996.46	0.38
0.06	308.15	0.0111	997.1	0.38
0.06	308.15	0.0229	997.84	0.38
0.06	308.15	0.0305	998.3	0.38
0.06	308.15	0.04	998.9	0.38
0.06	308.15	0.0441	999.18	0.38
0.06	308.15	0.0512	999.6	0.39
0.06	308.15	0.06	1000.18	0.39
0.06	308.15	0.0666	1000.53	0.39
0.06	308.15	0.0719	1000.87	0.39
0.06	308.15	0.0768	1001.2	0.39
0.06	308.15	0.0806	1001.42	0.39
0.06	308.15	0.0848	1001.6	0.4
0.06	308.15	0.0913	1001.99	0.4
0.06	308.15	0.1003	1002.56	0.4

System: sodium salicylate + sodium chloride + water; phases: Liquid
Fixed: Pressure, kPa = 101.325
Fixed: Frequency, MHz = 2
Property: Speed of sound, m/s (Liquid); method: Linear variable-path acoustic interferometer
Solvent: Molality, mol/kg of sodium chloride	Temperature, K	Molality, mol/kg of sodium salicylate	Speed of sound, m/s	uncertainty
0	288.15	0	1465.9	2.6
0	288.15	0.0101	1466.8	2.6
0	288.15	0.0221	1467.9	2.6
0	288.15	0.0307	1468.7	2.6
0	288.15	0.0448	1470	2.6
0	288.15	0.0501	1470.5	2.6
0	288.15	0.0546	1470.8	2.6
0	288.15	0.06	1471.4	2.6
0	288.15	0.0667	1472	2.6
0	288.15	0.0704	1472.3	2.6
0	288.15	0.0802	1473.2	2.6
0	288.15	0.0848	1473.6	2.6
0	288.15	0.0906	1474.2	2.6
0	288.15	0.1019	1475.2	2.6
0	298.15	0	1496.7	2.6
0	298.15	0.0101	1497.6	2.6
0	298.15	0.0221	1498.8	2.6
0	298.15	0.0307	1499.6	2.6
0	298.15	0.0448	1501	2.6
0	298.15	0.0501	1501.5	2.6
0	298.15	0.0546	1501.9	2.6
0	298.15	0.06	1502.4	2.6
0	298.15	0.0704	1503.5	2.6
0	298.15	0.0802	1504.4	2.6
0	298.15	0.0848	1504.9	2.6
0	298.15	0.0907	1505.4	2.6
0	298.15	0.0951	1505.8	2.6
0	298.15	0.1018	1506.5	2.6
0	308.15	0	1519.8	2.6
0	308.15	0.01	1520.8	2.6
0	308.15	0.0221	1521.9	2.6
0	308.15	0.0333	1523	2.6
0	308.15	0.04	1523.6	2.6
0	308.15	0.0451	1524.2	2.6
0	308.15	0.0501	1524.6	2.6
0	308.15	0.0572	1525.3	2.6
0	308.15	0.0702	1526.5	2.6
0	308.15	0.0802	1527.5	2.6
0	308.15	0.0857	1528	2.6
0	308.15	0.0906	1528.4	2.6
0	308.15	0.0951	1528.9	2.6
0	308.15	0.1023	1529.6	2.6
0.06	288.15	0	1468.2	2.6
0.06	288.15	0.0134	1469.4	2.6
0.06	288.15	0.0213	1470.1	2.6
0.06	288.15	0.03	1470.9	2.6
0.06	288.15	0.0401	1471.8	2.6
0.06	288.15	0.0504	1472.7	2.6
0.06	288.15	0.0554	1473.1	2.6
0.06	288.15	0.0603	1473.6	2.6
0.06	288.15	0.0701	1474.5	2.6
0.06	288.15	0.0753	1474.9	2.6
0.06	288.15	0.0801	1475.4	2.6
0.06	288.15	0.0844	1475.8	2.6
0.06	288.15	0.09	1476.3	2.6
0.06	288.15	0.095	1476.8	2.6
0.06	288.15	0.1001	1477.2	2.6
0.06	298.15	0	1501	2.6
0.06	298.15	0.0134	1502.3	2.6
0.06	298.15	0.0213	1503.1	2.6
0.06	298.15	0.03	1503.9	2.6
0.06	298.15	0.0401	1505	2.6
0.06	298.15	0.0504	1506	2.6
0.06	298.15	0.0554	1506.5	2.6
0.06	298.15	0.0603	1507	2.6
0.06	298.15	0.0701	1508	2.6
0.06	298.15	0.0753	1508.5	2.6
0.06	298.15	0.0801	1508.9	2.6
0.06	298.15	0.0844	1509.4	2.6
0.06	298.15	0.09	1509.9	2.6
0.06	298.15	0.095	1510.4	2.6
0.06	298.15	0.1001	1511	2.6
0.06	308.15	0	1523.8	2.6
0.06	308.15	0.0111	1525	2.6
0.06	308.15	0.0229	1526.1	2.6
0.06	308.15	0.0305	1526.9	2.6
0.06	308.15	0.04	1527.8	2.6
0.06	308.15	0.0441	1528.2	2.6
0.06	308.15	0.0512	1528.9	2.6
0.06	308.15	0.06	1529.7	2.6
0.06	308.15	0.0666	1530.4	2.6
0.06	308.15	0.0719	1530.9	2.6
0.06	308.15	0.0768	1531.4	2.6
0.06	308.15	0.0806	1531.8	2.6
0.06	308.15	0.0848	1532.3	2.6
0.06	308.15	0.0913	1533	2.6
0.06	308.15	0.1003	1533.9	2.6

System: sodium salicylate + cis-1,2,3,5-trans-4,6-cyclohexanehexol + water; phases: Liquid
Fixed: Pressure, kPa = 101.325
Property: Mass density, kg/m3 (Liquid); method: Pycnometric method
Solvent: Molality, mol/kg of cis-1,2,3,5-trans-4,6-cyclohexanehexol	Temperature, K	Molality, mol/kg of sodium salicylate	Mass density, kg/m3	uncertainty
0.06	288.15	0	1003.94	0.37
0.06	288.15	0.01	1004.63	0.35
0.06	288.15	0.0201	1005.29	0.35
0.06	288.15	0.0331	1006.18	0.36
0.06	288.15	0.0411	1006.68	0.36
0.06	288.15	0.0508	1007.33	0.36
0.06	288.15	0.0555	1007.65	0.36
0.06	288.15	0.0606	1007.98	0.36
0.06	288.15	0.0712	1008.71	0.37
0.06	288.15	0.0754	1008.97	0.37
0.06	288.15	0.0859	1009.66	0.37
0.06	288.15	0.0906	1009.99	0.39
0.06	288.15	0.0953	1010.3	0.38
0.06	288.15	0.1003	1010.62	0.38
0.06	298.15	0	1001.89	0.38
0.06	298.15	0.01	1002.55	0.35
0.06	298.15	0.0201	1003.19	0.35
0.06	298.15	0.0331	1004.01	0.36
0.06	298.15	0.0411	1004.5	0.36
0.06	298.15	0.0508	1005.12	0.36
0.06	298.15	0.0555	1005.42	0.36
0.06	298.15	0.0606	1005.74	0.36
0.06	298.15	0.0712	1006.42	0.37
0.06	298.15	0.0785	1006.9	0.37
0.06	298.15	0.0859	1007.32	0.37
0.06	298.15	0.0906	1007.57	0.38
0.06	298.15	0.0953	1007.95	0.38
0.06	298.15	0.1003	1008.21	0.38
0.06	308.15	0	998.64	0.39
0.06	308.15	0.01	999.26	0.38
0.06	308.15	0.02	999.9	0.37
0.06	308.15	0.0331	1000.7	0.38
0.06	308.15	0.041	1001.19	0.38
0.06	308.15	0.0511	1001.82	0.38
0.06	308.15	0.0555	1002.09	0.39
0.06	308.15	0.06	1002.35	0.39
0.06	308.15	0.0703	1002.97	0.39
0.06	308.15	0.0803	1003.58	0.4
0.06	308.15	0.0859	1003.9	0.4
0.06	308.15	0.0897	1004.18	0.4
0.06	308.15	0.0955	1004.5	0.4
0.06	308.15	0.1009	1004.83	0.41
0	288.15	0	999.1	0.36
0	288.15	0.0101	999.8	0.35
0	288.15	0.0221	1000.62	0.35
0	288.15	0.0307	1001.19	0.35
0	288.15	0.0448	1002.19	0.36
0	288.15	0.0501	1002.51	0.36
0	288.15	0.0546	1002.85	0.36
0	288.15	0.06	1003.2	0.36
0	288.15	0.0667	1003.66	0.36
0	288.15	0.0704	1003.92	0.36
0	288.15	0.0802	1004.55	0.37
0	288.15	0.0848	1004.87	0.37
0	288.15	0.0906	1005.23	0.37
0	288.15	0.1019	1006	0.38
0	298.15	0	997.05	0.36
0	298.15	0.0101	997.73	0.35
0	298.15	0.0221	998.51	0.35
0	298.15	0.0307	999.07	0.35
0	298.15	0.0448	1000	0.36
0	298.15	0.0501	1000.34	0.36
0	298.15	0.0546	1000.67	0.36
0	298.15	0.06	1001.01	0.36
0	298.15	0.0704	1001.66	0.37
0	298.15	0.0802	1002.35	0.37
0	298.15	0.0848	1002.59	0.37
0	298.15	0.0907	1002.99	0.37
0	298.15	0.0951	1003.26	0.38
0	298.15	0.1018	1003.68	0.38
0	308.15	0	994.04	0.38
0	308.15	0.01	994.69	0.37
0	308.15	0.0221	995.46	0.37
0	308.15	0.0333	996.16	0.38
0	308.15	0.04	996.59	0.38
0	308.15	0.0451	996.9	0.38
0	308.15	0.0501	997.24	0.38
0	308.15	0.0572	997.65	0.38
0	308.15	0.0702	998.5	0.39
0	308.15	0.0802	999.1	0.39
0	308.15	0.0857	999.47	0.4
0	308.15	0.0906	999.8	0.4
0	308.15	0.0951	1000.07	0.4
0	308.15	0.1023	1000.5	0.4

System: sodium salicylate + cis-1,2,3,5-trans-4,6-cyclohexanehexol + water; phases: Liquid
Fixed: Pressure, kPa = 101.325
Fixed: Frequency, MHz = 2
Property: Speed of sound, m/s (Liquid); method: Linear variable-path acoustic interferometer
Solvent: Molality, mol/kg of cis-1,2,3,5-trans-4,6-cyclohexanehexol	Temperature, K	Molality, mol/kg of sodium salicylate	Speed of sound, m/s	uncertainty
0.06	288.15	0	1470	2.6
0.06	288.15	0.01	1470.9	2.6
0.06	288.15	0.0201	1471.8	2.6
0.06	288.15	0.0331	1473	2.6
0.06	288.15	0.0411	1473.8	2.6
0.06	288.15	0.0508	1474.6	2.6
0.06	288.15	0.0555	1475	2.6
0.06	288.15	0.0606	1475.5	2.6
0.06	288.15	0.0712	1476.4	2.6
0.06	288.15	0.0754	1476.7	2.6
0.06	288.15	0.0859	1477.8	2.6
0.06	288.15	0.0906	1478.1	2.6
0.06	288.15	0.0953	1478.5	2.6
0.06	288.15	0.1003	1479	2.6
0.06	298.15	0	1503.7	2.6
0.06	298.15	0.01	1504.6	2.6
0.06	298.15	0.0201	1505.7	2.6
0.06	298.15	0.0331	1506.9	2.6
0.06	298.15	0.0411	1507.7	2.6
0.06	298.15	0.0508	1508.7	2.6
0.06	298.15	0.0555	1509.1	2.6
0.06	298.15	0.0606	1509.5	2.6
0.06	298.15	0.0712	1510.5	2.6
0.06	298.15	0.0785	1511.3	2.6
0.06	298.15	0.0859	1512	2.6
0.06	298.15	0.0906	1512.5	2.6
0.06	298.15	0.0953	1512.8	2.6
0.06	298.15	0.1003	1513.4	2.6
0.06	308.15	0	1525.9	2.6
0.06	308.15	0.01	1526.9	2.6
0.06	308.15	0.02	1527.9	2.6
0.06	308.15	0.0331	1529.1	2.6
0.06	308.15	0.041	1529.9	2.6
0.06	308.15	0.0511	1530.9	2.6
0.06	308.15	0.0555	1531.3	2.6
0.06	308.15	0.06	1531.7	2.6
0.06	308.15	0.0703	1532.8	2.6
0.06	308.15	0.0803	1533.7	2.6
0.06	308.15	0.0859	1534.3	2.6
0.06	308.15	0.0897	1534.6	2.6
0.06	308.15	0.0955	1535.2	2.6
0.06	308.15	0.1009	1535.6	2.6
0	288.15	0	1465.9	2.6
0	288.15	0.0101	1466.8	2.6
0	288.15	0.0221	1467.9	2.6
0	288.15	0.0307	1468.7	2.6
0	288.15	0.0448	1470	2.6
0	288.15	0.0501	1470.5	2.6
0	288.15	0.0546	1470.8	2.6
0	288.15	0.06	1471.4	2.6
0	288.15	0.0667	1472	2.6
0	288.15	0.0704	1472.3	2.6
0	288.15	0.0802	1473.2	2.6
0	288.15	0.0848	1473.6	2.6
0	288.15	0.0906	1474.2	2.6
0	288.15	0.1019	1475.2	2.6
0	298.15	0	1496.7	2.6
0	298.15	0.0101	1497.6	2.6
0	298.15	0.0221	1498.8	2.6
0	298.15	0.0307	1499.6	2.6
0	298.15	0.0448	1501	2.6
0	298.15	0.0501	1501.5	2.6
0	298.15	0.0546	1501.9	2.6
0	298.15	0.06	1502.4	2.6
0	298.15	0.0704	1503.5	2.6
0	298.15	0.0802	1504.4	2.6
0	298.15	0.0848	1504.9	2.6
0	298.15	0.0907	1505.4	2.6
0	298.15	0.0951	1505.8	2.6
0	298.15	0.1018	1506.5	2.6
0	308.15	0	1519.8	2.6
0	308.15	0.01	1520.8	2.6
0	308.15	0.0221	1521.9	2.6
0	308.15	0.0333	1523	2.6
0	308.15	0.04	1523.6	2.6
0	308.15	0.0451	1524.2	2.6
0	308.15	0.0501	1524.6	2.6
0	308.15	0.0572	1525.3	2.6
0	308.15	0.0702	1526.5	2.6
0	308.15	0.0802	1527.5	2.6
0	308.15	0.0857	1528	2.6
0	308.15	0.0906	1528.4	2.6
0	308.15	0.0951	1528.9	2.6
0	308.15	0.1023	1529.6	2.6

System: sodium salicylate + water; phases: Liquid
Fixed: Pressure, kPa = 101.325
Property: Mass density, kg/m3 (Liquid); method: Pycnometric method
Temperature, K	Molality, mol/kg of sodium salicylate	Mass density, kg/m3	uncertainty
288.15	0.0101	999.8	0.35
288.15	0.0221	1000.62	0.35
288.15	0.0307	1001.19	0.35
288.15	0.0448	1002.19	0.36
288.15	0.0501	1002.51	0.36
288.15	0.0546	1002.85	0.36
288.15	0.06	1003.2	0.36
288.15	0.0667	1003.66	0.36
288.15	0.0704	1003.92	0.36
288.15	0.0802	1004.55	0.37
288.15	0.0848	1004.87	0.37
288.15	0.0906	1005.23	0.37
288.15	0.1019	1006	0.38
298.15	0.0101	997.73	0.35
298.15	0.0221	998.51	0.35
298.15	0.0307	999.07	0.35
298.15	0.0448	1000	0.36
298.15	0.0501	1000.34	0.36
298.15	0.0546	1000.67	0.36
298.15	0.06	1001.01	0.36
298.15	0.0704	1001.66	0.37
298.15	0.0802	1002.35	0.37
298.15	0.0848	1002.59	0.37
298.15	0.0907	1002.99	0.37
298.15	0.0951	1003.26	0.38
298.15	0.1018	1003.68	0.38
308.15	0.01	994.69	0.37
308.15	0.0221	995.46	0.37
308.15	0.0333	996.16	0.38
308.15	0.04	996.59	0.38
308.15	0.0451	996.9	0.38
308.15	0.0501	997.24	0.38
308.15	0.0572	997.65	0.38
308.15	0.0702	998.5	0.39
308.15	0.0802	999.1	0.39
308.15	0.0857	999.47	0.4
308.15	0.0906	999.8	0.4
308.15	0.0951	1000.07	0.4
308.15	0.1023	1000.5	0.4
288.15	0	999.1	0.36
298.15	0	997.05	0.36
308.15	0	994.04	0.38

System: sodium salicylate + water; phases: Liquid
Fixed: Pressure, kPa = 101.325
Fixed: Frequency, MHz = 2
Property: Speed of sound, m/s (Liquid); method: Linear variable-path acoustic interferometer
Temperature, K	Molality, mol/kg of sodium salicylate	Speed of sound, m/s	uncertainty
288.15	0.0101	1466.8	2.6
288.15	0.0221	1467.9	2.6
288.15	0.0307	1468.7	2.6
288.15	0.0448	1470	2.6
288.15	0.0501	1470.5	2.6
288.15	0.0546	1470.8	2.6
288.15	0.06	1471.4	2.6
288.15	0.0667	1472	2.6
288.15	0.0704	1472.3	2.6
288.15	0.0802	1473.2	2.6
288.15	0.0848	1473.6	2.6
288.15	0.0906	1474.2	2.6
288.15	0.1019	1475.2	2.6
298.15	0.0101	1497.6	2.6
298.15	0.0221	1498.8	2.6
298.15	0.0307	1499.6	2.6
298.15	0.0448	1501	2.6
298.15	0.0501	1501.5	2.6
298.15	0.0546	1501.9	2.6
298.15	0.06	1502.4	2.6
298.15	0.0704	1503.5	2.6
298.15	0.0802	1504.4	2.6
298.15	0.0848	1504.9	2.6
298.15	0.0907	1505.4	2.6
298.15	0.0951	1505.8	2.6
298.15	0.1018	1506.5	2.6
308.15	0.01	1520.8	2.6
308.15	0.0221	1521.9	2.6
308.15	0.0333	1523	2.6
308.15	0.04	1523.6	2.6
308.15	0.0451	1524.2	2.6
308.15	0.0501	1524.6	2.6
308.15	0.0572	1525.3	2.6
308.15	0.0702	1526.5	2.6
308.15	0.0802	1527.5	2.6
308.15	0.0857	1528	2.6
308.15	0.0906	1528.4	2.6
308.15	0.0951	1528.9	2.6
308.15	0.1023	1529.6	2.6
288.15	0	1465.9	2.6
298.15	0	1496.7	2.6
308.15	0	1519.8	2.6

System: sodium chloride + water; phases: Liquid
Fixed: Pressure, kPa = 101.325
Property: Mass density, kg/m3 (Liquid); method: Pycnometric method
Molality, mol/kg of sodium chloride	Temperature, K	Mass density, kg/m3	uncertainty
0.06	288.15	1001.66	0.36
0.06	298.15	999.52	0.36
0.06	308.15	996.46	0.38
0	288.15	999.1	0.36
0	298.15	997.05	0.36
0	308.15	994.04	0.38

System: sodium chloride + water; phases: Liquid
Fixed: Pressure, kPa = 101.325
Fixed: Frequency, MHz = 2
Property: Speed of sound, m/s (Liquid); method: Linear variable-path acoustic interferometer
Molality, mol/kg of sodium chloride	Temperature, K	Speed of sound, m/s	uncertainty
0.06	288.15	1468.2	2.6
0.06	298.15	1501	2.6
0.06	308.15	1523.8	2.6
0	288.15	1465.9	2.6
0	298.15	1496.7	2.6
0	308.15	1519.8	2.6

System: cis-1,2,3,5-trans-4,6-cyclohexanehexol + water; phases: Liquid
Fixed: Pressure, kPa = 101.325
Property: Mass density, kg/m3 (Liquid); method: Pycnometric method
Molality, mol/kg of cis-1,2,3,5-trans-4,6-cyclohexanehexol	Temperature, K	Mass density, kg/m3	uncertainty
0.06	288.15	1003.94	0.37
0.06	298.15	1001.89	0.38
0.06	308.15	998.64	0.39
0	288.15	999.1	0.36
0	298.15	997.05	0.36
0	308.15	994.04	0.38

System: cis-1,2,3,5-trans-4,6-cyclohexanehexol + water; phases: Liquid
Fixed: Pressure, kPa = 101.325
Fixed: Frequency, MHz = 2
Property: Speed of sound, m/s (Liquid); method: Linear variable-path acoustic interferometer
Molality, mol/kg of cis-1,2,3,5-trans-4,6-cyclohexanehexol	Temperature, K	Speed of sound, m/s	uncertainty
0.06	288.15	1470	2.6
0.06	298.15	1503.7	2.6
0.06	308.15	1525.9	2.6
0	288.15	1465.9	2.6
0	298.15	1496.7	2.6
0	308.15	1519.8	2.6
