Measured thermophysical data. Experimental and computational thermochemical studies of benzoxazole  and two chlorobenzoxadole derivatives
Source: J. Chem. Thermodyn., 2013, 10.1016/j.jct.2012.08.028
Compound 1: carbon dioxide, CO2, InChI=1S/CO2/c2-1-3
Compound 2: nitrogen, N2, InChI=1S/N2/c1-2
Compound 3: water, H2O, InChI=1S/H2O/h1H2
Compound 4: oxygen, O2, InChI=1S/O2/c1-2
Compound 5: hydrogen chloride, ClH, InChI=1S/ClH/h1H
Compound 6: hydrogen, H2, InChI=1S/H2/h1H
Compound 7: graphite, C
Compound 8: chlorine, Cl2, InChI=1S/Cl2/c1-2
Compound 9: benzoxazole, C7H5NO, InChI=1S/C7H5NO/c1-2-4-7-6(3-1)8-5-9-7/h1-5H, purity 97.5%
Compound 10: 5-chloro-2-methylbenzoxazole, C8H6ClNO, InChI=1S/C8H6ClNO/c1-5-10-7-4-6(9)2-3-8(7)11-5/h2-4H,1H3, purity 99.4%
Compound 11: 2-chlorobenzoxazole, C7H4ClNO, InChI=1S/C7H4ClNO/c8-7-9-5-3-1-2-4-6(5)10-7/h1-4H, purity 99.6%

System: benzoxazole; phases: Crystal, Gas
Property: Molar enthalpy of vaporization or sublimation, kJ/mol (Crystal); method: Static calorimetry
Temperature, K	Molar enthalpy of vaporization or sublimation, kJ/mol	uncertainty
298.15	69.2	1.6

System: 5-chloro-2-methylbenzoxazole; phases: Crystal, Gas
Property: Molar enthalpy of vaporization or sublimation, kJ/mol (Crystal); method: Static calorimetry
Temperature, K	Molar enthalpy of vaporization or sublimation, kJ/mol	uncertainty
298.15	82.4	4.3

System: 2-chlorobenzoxazole; phases: Liquid, Gas
Property: Molar enthalpy of vaporization or sublimation, kJ/mol (Liquid); method: Static calorimetry
Temperature, K	Molar enthalpy of vaporization or sublimation, kJ/mol	uncertainty
298.15	56.3	3.1

Reaction: -1 benzoxazole + 7 carbon dioxide + .5 nitrogen + 2.5 water + -7.75 oxygen
Property: Specific internal energy of reaction at constant volume, J/g
-28811.39

Reaction: 1 hydrogen chloride + -1 5-chloro-2-methylbenzoxazole + 8 carbon dioxide + .5 nitrogen + 2.5 water + -8.75 oxygen
Property: Specific internal energy of reaction at constant volume, J/g
-23169.09

Reaction: -1 2-chlorobenzoxazole + 1 hydrogen chloride + 7 carbon dioxide + .5 nitrogen + 1.5 water + -7.25 oxygen
Property: Specific internal energy of reaction at constant volume, J/g
-21475.93

Reaction: 1 benzoxazole + -2.5 hydrogen + -.5 nitrogen + -7 graphite + -.5 oxygen
Property: Molar enthalpy of reaction, kJ/mol
-36.5

Reaction: -.5 chlorine + 1 5-chloro-2-methylbenzoxazole + -3 hydrogen + -.5 nitrogen + -8 graphite + -.5 oxygen
Property: Molar enthalpy of reaction, kJ/mol
-145.6

Reaction: 1 2-chlorobenzoxazole + -.5 chlorine + -2 hydrogen + -.5 nitrogen + -7 graphite + -.5 oxygen
Property: Molar enthalpy of reaction, kJ/mol
-52.5
