Measured thermophysical data. Aggregation properties and toxicity of newly synthesized thiazolium based surfactants - Thermodynamic and computational study
Source: J. Chem. Thermodyn., 2019, 10.1016/j.jct.2018.12.021
Compound 1: N-dodecylthiazolium bromide, C15H28BrNS, InChI=1S/C15H28NS.BrH/c1-2-3-4-5-6-7-8-9-10-11-12-16-13-14-17-15-16;/h13-15H,2-12H2,1H3;1H/q+1;/p-1
Compound 2: N-dodecyl-4-methylthiazolium bromide, C16H30BrNS, InChI=1S/C16H30NS.BrH/c1-3-4-5-6-7-8-9-10-11-12-13-17-15-18-14-16(17)2;/h14-15H,3-13H2,1-2H3;1H/q+1;/p-1
Compound 3: water, H2O, InChI=1S/H2O/h1H2, purity 99.8%

System: N-dodecylthiazolium bromide; phases: Crystal, Liquid, Air at 1 atmosphere
Property: Normal melting temperature, K (Crystal); method: DTA
Normal melting temperature, K	uncertainty
340	0.7

System: N-dodecyl-4-methylthiazolium bromide; phases: Crystal, Liquid, Air at 1 atmosphere
Property: Normal melting temperature, K (Crystal); method: DTA
Normal melting temperature, K	uncertainty
376.31	0.7

System: water; phases: Liquid, Air at 1 atmosphere
Property: Surface tension liquid-gas, N/m (Liquid); method: Ring tensiometer
Temperature, K	Surface tension liquid-gas, N/m	uncertainty
303.15	0.07114	0.00229

System: N-dodecylthiazolium bromide + water; phases: Liquid
Fixed: Pressure, kPa = 100
Property: Mass density, kg/m3 (Liquid); method: Vibrating tube method
Temperature, K	Molality, mol/kg of N-dodecylthiazolium bromide	Mass density, kg/m3	uncertainty
293.15	0	998.21	1.56
293.15	0.00122	998.24	1.56
293.15	0.00157	998.27	1.56
293.15	0.00191	998.29	1.56
293.15	0.00201	998.3	1.56
293.15	0.00258	998.33	1.56
293.15	0.00299	998.36	1.56
293.15	0.00326	998.38	1.56
293.15	0.00407	998.43	1.56
293.15	0.00429	998.45	1.56
293.15	0.00507	998.5	1.56
293.15	0.00548	998.53	1.56
293.15	0.00602	998.57	1.56
293.15	0.00698	998.64	1.56
293.15	0.00753	998.68	1.56
293.15	0.00905	998.78	1.56
293.15	0.01006	998.85	1.56
293.15	0.01266	999.01	1.56
293.15	0.01513	999.17	1.56
293.15	0.01771	999.33	1.56
293.15	0.01974	999.46	1.56
293.15	0.02301	999.66	1.56
293.15	0.02601	999.84	1.56
298.15	0	997.05	1.56
298.15	0.00122	997.08	1.56
298.15	0.00157	997.1	1.56
298.15	0.00191	997.12	1.56
298.15	0.00201	997.13	1.56
298.15	0.00258	997.16	1.56
298.15	0.00299	997.19	1.56
298.15	0.00326	997.21	1.56
298.15	0.00407	997.26	1.56
298.15	0.00429	997.28	1.56
298.15	0.00507	997.33	1.56
298.15	0.00548	997.36	1.56
298.15	0.00602	997.39	1.56
298.15	0.00698	997.46	1.56
298.15	0.00753	997.5	1.56
298.15	0.00905	997.61	1.56
298.15	0.01006	997.68	1.56
298.15	0.01266	997.84	1.56
298.15	0.01513	998	1.56
298.15	0.01771	998.16	1.56
298.15	0.01974	998.29	1.56
298.15	0.02301	998.49	1.56
298.15	0.02601	998.67	1.56
303.15	0	995.65	1.56
303.15	0.00122	995.67	1.56
303.15	0.00157	995.69	1.56
303.15	0.00191	995.71	1.56
303.15	0.00201	995.72	1.56
303.15	0.00258	995.75	1.56
303.15	0.00299	995.78	1.56
303.15	0.00326	995.8	1.56
303.15	0.00407	995.85	1.56
303.15	0.00429	995.87	1.56
303.15	0.00507	995.92	1.56
303.15	0.00548	995.95	1.56
303.15	0.00602	995.98	1.56
303.15	0.00698	996.04	1.56
303.15	0.00753	996.08	1.56
303.15	0.00905	996.18	1.56
303.15	0.01006	996.25	1.56
303.15	0.01266	996.42	1.56
303.15	0.01513	996.57	1.56
303.15	0.01771	996.72	1.56
303.15	0.01974	996.84	1.56
303.15	0.02301	997.04	1.56
303.15	0.02601	997.2	1.56
308.15	0	994.04	1.56
308.15	0.00122	994.05	1.56
308.15	0.00157	994.07	1.56
308.15	0.00191	994.09	1.56
308.15	0.00201	994.1	1.56
308.15	0.00258	994.14	1.56
308.15	0.00299	994.17	1.56
308.15	0.00326	994.18	1.56
308.15	0.00407	994.24	1.56
308.15	0.00429	994.25	1.56
308.15	0.00507	994.3	1.56
308.15	0.00548	994.33	1.56
308.15	0.00602	994.36	1.56
308.15	0.00698	994.42	1.56
308.15	0.00753	994.46	1.56
308.15	0.00905	994.55	1.56
308.15	0.01006	994.63	1.56
308.15	0.01266	994.78	1.56
308.15	0.01513	994.93	1.56
308.15	0.01771	995.08	1.56
308.15	0.01974	995.2	1.56
308.15	0.02301	995.4	1.56
308.15	0.02601	995.56	1.56
313.15	0	992.22	1.56
313.15	0.00122	992.22	1.56
313.15	0.00157	992.24	1.56
313.15	0.00191	992.26	1.56
313.15	0.00201	992.27	1.56
313.15	0.00258	992.3	1.56
313.15	0.00299	992.33	1.56
313.15	0.00326	992.35	1.56
313.15	0.00407	992.4	1.56
313.15	0.00429	992.42	1.56
313.15	0.00507	992.46	1.56
313.15	0.00548	992.49	1.56
313.15	0.00602	992.52	1.56
313.15	0.00698	992.58	1.56
313.15	0.00753	992.62	1.56
313.15	0.00905	992.72	1.56
313.15	0.01006	992.79	1.56
313.15	0.01266	992.94	1.56
313.15	0.01513	993.07	1.56
313.15	0.01771	993.22	1.56
313.15	0.01974	993.33	1.56
313.15	0.02301	993.52	1.56
313.15	0.02601	993.68	1.56

System: N-dodecylthiazolium bromide + water; phases: Liquid
Fixed: Pressure, kPa = 100
Property: Electrical conductivity, S/m (Liquid); method: Direct current cell with electrodes
Temperature, K	Molality, mol/kg of N-dodecylthiazolium bromide	Electrical conductivity, S/m	uncertainty
293.15	0.00157	0.01314	0.00091
293.15	0.00201	0.01697	0.0011
293.15	0.00299	0.02464	0.00158
293.15	0.00407	0.03302	0.00227
293.15	0.00507	0.04207	0.00269
293.15	0.00602	0.04825	0.00314
293.15	0.00698	0.05679	0.00379
293.15	0.00753	0.06032	0.00339
293.15	0.00905	0.06992	0.00387
293.15	0.01006	0.0754	0.00394
293.15	0.01266	0.0892	0.00407
293.15	0.01513	0.09578	0.00385
293.15	0.01771	0.1034	0.00413
293.15	0.01974	0.1075	0.00424
293.15	0.02301	0.1156	0.00482
293.15	0.02601	0.1227	0.00522
298.15	0.00157	0.01474	0.001
298.15	0.00201	0.01892	0.00122
298.15	0.00299	0.02757	0.00174
298.15	0.00407	0.03645	0.00251
298.15	0.00507	0.04689	0.00302
298.15	0.00602	0.05353	0.00348
298.15	0.00698	0.06318	0.00429
298.15	0.00753	0.06712	0.0038
298.15	0.00905	0.07789	0.00442
298.15	0.01006	0.08452	0.00454
298.15	0.01266	0.10048	0.0049
298.15	0.01513	0.1102	0.00444
298.15	0.01771	0.117	0.00456
298.15	0.01974	0.1228	0.00492
298.15	0.02301	0.13165	0.00545
298.15	0.02601	0.13986	0.00591
303.15	0.00157	0.01638	0.00109
303.15	0.00201	0.02094	0.00135
303.15	0.00299	0.03047	0.00191
303.15	0.00407	0.0402	0.00276
303.15	0.00507	0.05171	0.00331
303.15	0.00602	0.05887	0.00379
303.15	0.00698	0.06943	0.00464
303.15	0.00753	0.07338	0.00423
303.15	0.00905	0.08589	0.00503
303.15	0.01006	0.09304	0.00588
303.15	0.01266	0.117	0.00594
303.15	0.01513	0.1248	0.00461
303.15	0.01771	0.132	0.00504
303.15	0.01974	0.1383	0.00539
303.15	0.02301	0.14767	0.00596
303.15	0.02601	0.1564	0.00661
308.15	0.00157	0.01801	0.00117
308.15	0.00201	0.02289	0.00147
308.15	0.00299	0.0334	0.00212
308.15	0.00407	0.04433	0.00299
308.15	0.00507	0.05628	0.00359
308.15	0.00602	0.06458	0.00416
308.15	0.00698	0.07574	0.00505
308.15	0.00753	0.08031	0.0054
308.15	0.00905	0.09778	0.00656
308.15	0.01006	0.10734	0.00642
308.15	0.01266	0.1311	0.00641
308.15	0.01513	0.1409	0.00525
308.15	0.01771	0.1485	0.00569
308.15	0.01974	0.1561	0.00586
308.15	0.02301	0.1649	0.00628
308.15	0.02601	0.1736	0.0075
313.15	0.00157	0.01969	0.00128
313.15	0.00201	0.02497	0.00162
313.15	0.00299	0.03657	0.00233
313.15	0.00407	0.04854	0.00325
313.15	0.00507	0.06138	0.00386
313.15	0.00602	0.07029	0.00473
313.15	0.00698	0.08375	0.00615
313.15	0.00753	0.09043	0.00633
313.15	0.00905	0.10986	0.00749
313.15	0.01006	0.12168	0.00707
313.15	0.01266	0.1465	0.00715
313.15	0.01513	0.15924	0.00649
313.15	0.01771	0.17095	0.00658
313.15	0.01974	0.17695	0.00638
313.15	0.02301	0.1868	0.00698
313.15	0.02601	0.1958	0.00751

System: N-dodecylthiazolium bromide + water; phases: Liquid, Air at 1 atmosphere
Fixed: Temperature, K = 303.15
Property: Surface tension liquid-gas, N/m (Liquid); method: Ring tensiometer
Molality, mol/kg of N-dodecylthiazolium bromide	Surface tension liquid-gas, N/m	uncertainty
0	0.07114	0.00229
0.00157	0.0602	0.00194
0.00201	0.05703	0.00184
0.00299	0.05396	0.00174
0.00407	0.04957	0.0016
0.00507	0.04338	0.00141
0.00602	0.04131	0.00134
0.00698	0.03815	0.00124
0.00753	0.03787	0.00123
0.00905	0.0322	0.00105
0.01006	0.03254	0.00106
0.01266	0.03207	0.00105
0.01513	0.03243	0.00106
0.01771	0.03144	0.00103
0.01974	0.03187	0.00104
0.02601	0.03242	0.00106

System: N-dodecyl-4-methylthiazolium bromide + water; phases: Liquid
Fixed: Pressure, kPa = 100
Property: Mass density, kg/m3 (Liquid); method: Vibrating tube method
Temperature, K	Molality, mol/kg of N-dodecyl-4-methylthiazolium bromide	Mass density, kg/m3	uncertainty
293.15	0	998.21	1.56
293.15	0.0015	998.25	1.56
293.15	0.00206	998.29	1.56
293.15	0.0025	998.31	1.56
293.15	0.00402	998.4	1.56
293.15	0.005	998.45	1.56
293.15	0.00561	998.48	1.56
293.15	0.00708	998.56	1.56
293.15	0.00803	998.6	1.56
293.15	0.00906	998.66	1.56
293.15	0.01216	998.81	1.56
293.15	0.01507	998.96	1.56
293.15	0.01759	999.07	1.56
293.15	0.02033	999.21	1.56
293.15	0.02365	999.38	1.56
298.15	0	997.05	1.56
298.15	0.0015	997.07	1.56
298.15	0.00206	997.1	1.56
298.15	0.0025	997.12	1.56
298.15	0.00402	997.2	1.56
298.15	0.005	997.25	1.56
298.15	0.00561	997.29	1.56
298.15	0.00708	997.36	1.56
298.15	0.00803	997.42	1.56
298.15	0.00906	997.47	1.56
298.15	0.01216	997.62	1.56
298.15	0.01507	997.75	1.56
298.15	0.01759	997.86	1.56
298.15	0.02033	998	1.56
298.15	0.02365	998.16	1.56
303.15	0	995.65	1.56
303.15	0.0015	995.66	1.56
303.15	0.00206	995.68	1.56
303.15	0.0025	995.7	1.56
303.15	0.00402	995.77	1.56
303.15	0.005	995.82	1.56
303.15	0.00561	995.86	1.56
303.15	0.00708	995.93	1.56
303.15	0.00803	995.98	1.56
303.15	0.00906	996.03	1.56
303.15	0.01216	996.17	1.56
303.15	0.01507	996.3	1.56
303.15	0.01759	996.4	1.56
303.15	0.02033	996.53	1.56
303.15	0.02365	996.65	1.56
308.15	0	994.04	1.56
308.15	0.0015	994.04	1.56
308.15	0.00206	994.06	1.56
308.15	0.0025	994.08	1.56
308.15	0.00402	994.13	1.56
308.15	0.005	994.18	1.56
308.15	0.00561	994.21	1.56
308.15	0.00708	994.28	1.56
308.15	0.00803	994.33	1.56
308.15	0.00906	994.37	1.56
308.15	0.01216	994.49	1.56
308.15	0.01507	994.61	1.56
308.15	0.01759	994.69	1.56
308.15	0.02033	994.82	1.56
308.15	0.02365	994.89	1.56
313.15	0	992.22	1.56
313.15	0.0015	992.22	1.56
313.15	0.00206	992.23	1.56
313.15	0.0025	992.24	1.56
313.15	0.00402	992.28	1.56
313.15	0.005	992.31	1.56
313.15	0.00561	992.34	1.56
313.15	0.00708	992.39	1.56
313.15	0.00803	992.43	1.56
313.15	0.00906	992.47	1.56
313.15	0.01216	992.61	1.56
313.15	0.01507	992.72	1.56
313.15	0.01759	992.81	1.56
313.15	0.02033	992.9	1.56
313.15	0.02365	993	1.56

System: N-dodecyl-4-methylthiazolium bromide + water; phases: Liquid
Fixed: Pressure, kPa = 100
Property: Electrical conductivity, S/m (Liquid); method: Direct current cell with electrodes
Temperature, K	Molality, mol/kg of N-dodecyl-4-methylthiazolium bromide	Electrical conductivity, S/m	uncertainty
293.15	0.0015	0.01345	0.00082
293.15	0.00206	0.01792	0.00119
293.15	0.0025	0.02207	0.00143
293.15	0.00402	0.03462	0.00225
293.15	0.005	0.04275	0.00272
293.15	0.00708	0.05911	0.0037
293.15	0.00906	0.0738	0.00318
293.15	0.01216	0.08127	0.00308
293.15	0.01507	0.08929	0.00382
293.15	0.02033	0.1057	0.00495
298.15	0.0015	0.015	0.00092
298.15	0.00206	0.02002	0.00132
298.15	0.0025	0.02459	0.00159
298.15	0.00402	0.0387	0.00253
298.15	0.005	0.04788	0.00304
298.15	0.00708	0.06621	0.0041
298.15	0.00906	0.08218	0.00358
298.15	0.01216	0.09211	0.00358
298.15	0.01507	0.10092	0.00433
298.15	0.02033	0.11989	0.00584
303.15	0.0015	0.01662	0.00102
303.15	0.00206	0.02219	0.00147
303.15	0.0025	0.02724	0.00176
303.15	0.00402	0.04282	0.00279
303.15	0.005	0.05295	0.00337
303.15	0.00708	0.0733	0.00461
303.15	0.00906	0.09166	0.00403
303.15	0.01216	0.10256	0.00411
303.15	0.01507	0.11412	0.00511
303.15	0.02033	0.13666	0.00644
308.15	0.0015	0.01835	0.00112
308.15	0.00206	0.02437	0.00161
308.15	0.0025	0.03	0.00193
308.15	0.00402	0.04699	0.00306
308.15	0.005	0.05808	0.00368
308.15	0.00708	0.08028	0.00501
308.15	0.00906	0.10002	0.00455
308.15	0.01216	0.11402	0.00474
308.15	0.01507	0.12707	0.00553
308.15	0.02033	0.14999	0.00691
313.15	0.0015	0.02003	0.00123
313.15	0.00206	0.02674	0.00178
313.15	0.0025	0.03291	0.00213
313.15	0.00402	0.05154	0.00333
313.15	0.005	0.06344	0.00401
313.15	0.00708	0.08767	0.00554
313.15	0.00906	0.10998	0.00512
313.15	0.01216	0.12538	0.00505
313.15	0.01507	0.13771	0.00582
313.15	0.02033	0.16232	0.0075

System: N-dodecyl-4-methylthiazolium bromide + water; phases: Liquid, Air at 1 atmosphere
Fixed: Temperature, K = 303.15
Property: Surface tension liquid-gas, N/m (Liquid); method: Ring tensiometer
Molality, mol/kg of N-dodecyl-4-methylthiazolium bromide	Surface tension liquid-gas, N/m	uncertainty
0	0.07114	0.00229
0.0015	0.04778	0.00155
0.00206	0.04339	0.00141
0.0025	0.04179	0.00136
0.00402	0.03949	0.00128
0.005	0.03596	0.00117
0.00708	0.03049	0.001
0.00906	0.03089	0.00101
0.01216	0.03136	0.00102
0.01507	0.03086	0.00101
0.02033	0.03091	0.00101
