Measured thermophysical data. Interaction between a hydrophobic rigid face and a flexible alkyl tail: Thermodynamics of self-assembling of sodium cholate and SDS
Source: J. Chem. Thermodyn., 2016, 10.1016/j.jct.2016.04.019
Compound 1: sodium dodecyl sulfate, C12H25NaO4S, InChI=1S/C12H26O4S.Na/c1-2-3-4-5-6-7-8-9-10-11-12-16-17(13,14)15;/h2-12H2,1H3,(H,13,14,15);/q;+1/p-1, purity 99.5%
Compound 2: sodium cholate, C24H39NaO5, InChI=1S/C24H40O5.Na/c1-13(4-7-21(28)29)16-5-6-17-22-18(12-20(27)24(16,17)3)23(2)9-8-15(25)10-14(23)11-19(22)26;/h13-20,22,25-27H,4-12H2,1-3H3,(H,28,29);/q;+1/p-1/t13-,14+,15-,16-,17+,18+,19-,20+,22+,23+,24-;/m1./s1, purity 99%
Compound 3: water, H2O, InChI=1S/H2O/h1H2

System: sodium dodecyl sulfate + sodium cholate + water; phases: Liquid
Fixed: Temperature, K = 298.15
Fixed: Pressure, kPa = 101.3
Fixed: Frequency, MHz = 0.0002
Property: Electrical conductivity, S/m (Liquid); method: Alternating current cell with electrodes
Solvent: Molality, mol/kg of sodium dodecyl sulfate	Molality, mol/kg of sodium cholate	Electrical conductivity, S/m	uncertainty
0	0	0.0002	0.0003
0	0.00042	0.0033	0.0003
0	0.00083	0.0062	0.0003
0	0.00124	0.009	0.0006
0	0.00164	0.0118	0.0006
0	0.00205	0.0144	0.0006
0	0.00245	0.0171	0.0006
0	0.00284	0.0197	0.0007
0	0.00324	0.0225	0.0007
0	0.00363	0.025	0.0006
0	0.00401	0.0275	0.0006
0	0.0044	0.0299	0.0006
0	0.00478	0.0322	0.0006
0	0.00516	0.0345	0.0006
0	0.00553	0.0366	0.0007
0	0.0059	0.0388	0.0007
0	0.00627	0.0409	0.0007
0	0.00664	0.043	0.0007
0	0.007	0.0451	0.0007
0	0.00736	0.0473	0.0007
0	0.00772	0.0493	0.0007
0	0.00807	0.0512	0.0007
0	0.00842	0.0532	0.0008
0	0.00877	0.0553	0.0008
0	0.00912	0.0573	0.0008
0	0.00946	0.0591	0.0008
0	0.00981	0.061	0.0008
0	0.01015	0.063	0.0016
0	0.01048	0.0649	0.0015
0	0.01082	0.0668	0.0015
0	0.01115	0.0687	0.0016
0	0.01148	0.0706	0.0016
0	0.0118	0.0724	0.0016
0	0.01213	0.0743	0.0016
0	0.01245	0.0762	0.0016
0	0.01277	0.078	0.0016
0	0.01309	0.0798	0.0016
0	0.0134	0.0816	0.0016
0	0.01371	0.0834	0.0017
0	0.01402	0.0853	0.0017
0	0.01433	0.0871	0.0017
0	0.01464	0.0889	0.0017
0	0.01494	0.0906	0.0017
0	0.01524	0.0924	0.0017
0	0.01554	0.0942	0.0017
0	0.01584	0.0959	0.0017
0	0.01614	0.0976	0.0017
0	0.01643	0.0993	0.0018
0	0.01672	0.101	0.0018
0	0.01701	0.1027	0.0018
0	0.0173	0.1044	0.0018
0.001	0	0.0071	0.0003
0.001	0.00025	0.0088	0.0003
0.00099	0.0005	0.0105	0.0003
0.00099	0.00074	0.0122	0.0003
0.00098	0.00098	0.0139	0.0003
0.00098	0.00122	0.0156	0.0006
0.00097	0.00146	0.0172	0.0006
0.00097	0.0017	0.0187	0.0006
0.00096	0.00193	0.0203	0.0007
0.00096	0.00216	0.022	0.0007
0.00095	0.00239	0.0235	0.0006
0.00095	0.00261	0.025	0.0007
0.00094	0.00284	0.0265	0.0006
0.00094	0.00306	0.0279	0.0006
0.00094	0.00328	0.0294	0.0007
0.00093	0.0035	0.0307	0.0006
0.00093	0.00371	0.0321	0.0007
0.00092	0.00393	0.0334	0.0006
0.00092	0.00414	0.0346	0.0007
0.00091	0.00435	0.0359	0.0006
0.00091	0.00456	0.0371	0.0007
0.00091	0.00477	0.0383	0.0007
0.0009	0.00497	0.0395	0.0007
0.0009	0.00517	0.0406	0.0007
0.00089	0.00537	0.0418	0.0006
0.00089	0.00557	0.0429	0.0007
0.00089	0.00577	0.044	0.0007
0.00088	0.00596	0.0451	0.0007
0.00088	0.00616	0.0462	0.0006
0.00088	0.00635	0.0473	0.0007
0.00087	0.00654	0.0484	0.0007
0.00087	0.00673	0.0495	0.0008
0.00086	0.00692	0.0505	0.0008
0.00086	0.0071	0.0516	0.0008
0.00086	0.00729	0.0526	0.0007
0.00085	0.00747	0.0536	0.0008
0.00201	0	0.0137	0.0003
0.002	0.00021	0.015	0.0003
0.00199	0.00041	0.0164	0.0004
0.00199	0.00062	0.0178	0.0004
0.00198	0.00082	0.0191	0.0004
0.00197	0.00102	0.0204	0.0007
0.00196	0.00122	0.0219	0.0007
0.00195	0.00142	0.0233	0.0006
0.00195	0.00162	0.0245	0.0006
0.00194	0.00181	0.0258	0.0006
0.00193	0.00201	0.027	0.0007
0.00192	0.0022	0.0283	0.0007
0.00192	0.00239	0.0295	0.0007
0.00191	0.00258	0.0307	0.0007
0.0019	0.00276	0.0318	0.0006
0.00189	0.00295	0.0329	0.0007
0.00189	0.00313	0.0341	0.0006
0.00188	0.00332	0.0351	0.0006
0.00187	0.0035	0.0361	0.0006
0.00187	0.00368	0.0371	0.0006
0.00186	0.00386	0.0381	0.0007
0.00185	0.00403	0.0391	0.0007
0.00184	0.00421	0.0401	0.0006
0.00184	0.00439	0.0411	0.0007
0.00183	0.00456	0.0421	0.0007
0.00182	0.00473	0.043	0.0007
0.00182	0.0049	0.0439	0.0007
0.00181	0.00507	0.0448	0.0007
0.0018	0.00524	0.0457	0.0007
0.0018	0.00541	0.0466	0.0007
0.00179	0.00557	0.0475	0.0007
0.00178	0.00574	0.0484	0.0007
0.00178	0.0059	0.0493	0.0007
0.00177	0.00606	0.0502	0.0007
0.00177	0.00622	0.0511	0.0007
0.00176	0.00638	0.052	0.0007
0.00175	0.00654	0.0529	0.0007
0.00175	0.0067	0.0538	0.0007
0.00301	0	0.0209	0.0004
0.003	0.00021	0.0222	0.0004
0.00299	0.00041	0.0235	0.0004
0.00297	0.00062	0.0248	0.0004
0.00296	0.00082	0.0261	0.0004
0.00295	0.00102	0.0274	0.0007
0.00294	0.00122	0.0287	0.0006
0.00293	0.00142	0.0299	0.0006
0.00291	0.00162	0.0311	0.0007
0.0029	0.00181	0.0323	0.0006
0.00289	0.00201	0.0335	0.0006
0.00288	0.0022	0.0346	0.0006
0.00287	0.00239	0.0357	0.0006
0.00286	0.00258	0.0367	0.0006
0.00285	0.00276	0.0377	0.0006
0.00284	0.00295	0.0387	0.0006
0.00283	0.00313	0.0396	0.0007
0.00281	0.00332	0.0406	0.0007
0.0028	0.0035	0.0415	0.0007
0.00279	0.00368	0.0424	0.0006
0.00278	0.00386	0.0433	0.0007
0.00277	0.00403	0.0442	0.0007
0.00276	0.00421	0.0451	0.0007
0.00401	0	0.0275	0.0004
0.004	0.00017	0.0285	0.0004
0.00398	0.00033	0.0295	0.0004
0.00397	0.0005	0.0306	0.0004
0.00396	0.00066	0.0315	0.0004
0.00395	0.00082	0.0326	0.0004
0.00393	0.00098	0.0335	0.0004
0.00392	0.00114	0.0345	0.0006
0.00391	0.0013	0.0354	0.0006
0.0039	0.00146	0.0363	0.0006
0.00388	0.00162	0.0372	0.0007
0.00387	0.00177	0.038	0.0006
0.00386	0.00193	0.0388	0.0006
0.00385	0.00208	0.0396	0.0006
0.00383	0.00224	0.0404	0.0006
0.00382	0.00239	0.0412	0.0006
0.00381	0.00254	0.0419	0.0006
0.0038	0.00269	0.0427	0.0006
0.00379	0.00276	0.043	0.0005
0.00501	0	0.034	0.0005
0.00499	8e-05	0.0345	0.0005
0.00498	0.00017	0.0349	0.0005
0.00496	0.00025	0.0353	0.0005
0.00494	0.00033	0.0358	0.0005
0.00493	0.00041	0.0362	0.0005
0.00491	0.00049	0.0366	0.0005
0.0049	0.00057	0.037	0.0005
0.00488	0.00065	0.0374	0.0005
0.00487	0.00073	0.0378	0.0005
0.00485	0.00081	0.0382	0.0005
0.00483	0.00089	0.0386	0.0005
0.00482	0.00096	0.0389	0.0005
0.0048	0.00104	0.0392	0.0006
0.00479	0.00112	0.0395	0.0006
0.00477	0.00119	0.0399	0.0005
0.00476	0.00127	0.0402	0.0005
0.00474	0.00134	0.0406	0.0006
0.00473	0.00142	0.0409	0.0006
0.00471	0.00149	0.0412	0.0007
0.0047	0.00157	0.0415	0.0007
0.00469	0.00164	0.0418	0.0006
0.00467	0.00171	0.0421	0.0006
0.00466	0.00179	0.0424	0.0006
0.00464	0.00186	0.0427	0.0006
0.00463	0.00193	0.0429	0.0006
0.00461	0.002	0.0432	0.0006
0.0046	0.00207	0.0435	0.0006
0.00459	0.00214	0.0437	0.0006
0.00457	0.00221	0.044	0.0006
0.00456	0.00228	0.0443	0.0006
0.00455	0.00235	0.0445	0.0006
0.00453	0.00242	0.0448	0.0007
0.00452	0.00248	0.0451	0.0007
0.0045	0.00255	0.0453	0.0006
0.00449	0.00262	0.0456	0.0006
0.00448	0.00269	0.0459	0.0006
0.00447	0.00275	0.0461	0.0006
0.00445	0.00282	0.0463	0.0006
0.00602	0	0.041	0.0005
0.006	8e-05	0.0413	0.0005
0.00598	0.00017	0.0416	0.0005
0.00596	0.00025	0.042	0.0005
0.00594	0.00033	0.0423	0.0005
0.00592	0.00041	0.0427	0.0005
0.0059	0.00049	0.043	0.0005
0.00588	0.00057	0.0434	0.0005
0.00587	0.00065	0.0437	0.0005
0.00585	0.00073	0.0439	0.0005
0.00583	0.00081	0.0442	0.0005
0.00581	0.00089	0.0445	0.0005
0.00579	0.00096	0.0448	0.0005
0.00577	0.00104	0.045	0.0006
0.00575	0.00112	0.0453	0.0006
0.00574	0.00119	0.0455	0.0006
0.00572	0.00127	0.0458	0.0006
0.0057	0.00134	0.046	0.0006
0.00568	0.00142	0.0462	0.0006
0.00567	0.00146	0.0463	0.0006

System: sodium cholate + water; phases: Liquid
Fixed: Temperature, K = 298.15
Fixed: Pressure, kPa = 101.3
Fixed: Frequency, MHz = 0.0002
Property: Electrical conductivity, S/m (Liquid); method: Alternating current cell with electrodes
Molality, mol/kg of sodium cholate	Electrical conductivity, S/m	uncertainty
0.00042	0.0033	0.0003
0.00083	0.0062	0.0003
0.00124	0.009	0.0006
0.00164	0.0118	0.0006
0.00205	0.0144	0.0006
0.00245	0.0171	0.0006
0.00284	0.0197	0.0007
0.00324	0.0225	0.0007
0.00363	0.025	0.0006
0.00401	0.0275	0.0006
0.0044	0.0299	0.0006
0.00478	0.0322	0.0006
0.00516	0.0345	0.0006
0.00553	0.0366	0.0007
0.0059	0.0388	0.0007
0.00627	0.0409	0.0007
0.00664	0.043	0.0007
0.007	0.0451	0.0007
0.00736	0.0473	0.0007
0.00772	0.0493	0.0007
0.00807	0.0512	0.0007
0.00842	0.0532	0.0008
0.00877	0.0553	0.0008
0.00912	0.0573	0.0008
0.00946	0.0591	0.0008
0.00981	0.061	0.0008
0.01015	0.063	0.0016
0.01048	0.0649	0.0015
0.01082	0.0668	0.0015
0.01115	0.0687	0.0016
0.01148	0.0706	0.0016
0.0118	0.0724	0.0016
0.01213	0.0743	0.0016
0.01245	0.0762	0.0016
0.01277	0.078	0.0016
0.01309	0.0798	0.0016
0.0134	0.0816	0.0016
0.01371	0.0834	0.0017
0.01402	0.0853	0.0017
0.01433	0.0871	0.0017
0.01464	0.0889	0.0017
0.01494	0.0906	0.0017
0.01524	0.0924	0.0017
0.01554	0.0942	0.0017
0.01584	0.0959	0.0017
0.01614	0.0976	0.0017
0.01643	0.0993	0.0018
0.01672	0.101	0.0018
0.01701	0.1027	0.0018
0.0173	0.1044	0.0018

System: sodium cholate + water; phases: Liquid
Fixed: Temperature, K = 298.15
Fixed: Pressure, kPa = 101.3
Property: Molar enthalpy of dilution, kJ/mol (Liquid); method: Calvet calorimetry
Initial molality of solute, mol/kg	Final molality of solute, mol/kg	Molar enthalpy of dilution, kJ/mol	uncertainty
0.1003	0.00044	2	0.14
0.05015	0.00011	1.81	0.26
0.05015	0.00044	1.84	0.16

System: sodium dodecyl sulfate + water; phases: Liquid
Fixed: Temperature, K = 298.15
Fixed: Pressure, kPa = 101.3
Fixed: Frequency, MHz = 0.0002
Property: Electrical conductivity, S/m (Liquid); method: Alternating current cell with electrodes
Molality, mol/kg of sodium dodecyl sulfate	Electrical conductivity, S/m	uncertainty
0.001	0.0071	0.0001
0.00201	0.0137	0.0003
0.00301	0.0209	0.0004
0.00401	0.0275	0.0004
0.00501	0.034	0.0004
0.00602	0.041	0.0004
