Measured thermophysical data. (Liquid + liquid) equilibria of (sulfolane + benzene + n-hexane), (N-formylmorpholine + benzene + n-hexane), and (sulfolane + N-formylmorpholine + benzene + n-hexane) at temperatures ranging from (298.15 to 318.15) K: Experimental results and correlation
Source: J. Chem. Thermodyn., 2010, 10.1016/j.jct.2009.10.010
Compound 1: hexane, C6H14, InChI=1S/C6H14/c1-3-5-6-4-2/h3-6H2,1-2H3, purity 99%
Compound 2: sulfolane, C4H8O2S, InChI=1S/C4H8O2S/c5-7(6)3-1-2-4-7/h1-4H2, purity 99%
Compound 3: benzene, C6H6, InChI=1S/C6H6/c1-2-4-6-5-3-1/h1-6H, purity 99%
Compound 4: N-formylmorpholine, C5H9NO2, InChI=1S/C5H9NO2/c7-5-6-1-3-8-4-2-6/h5H,1-4H2, purity 99%

System: benzene + hexane + sulfolane; phases: Liquid mixture 2, Liquid mixture 1
Fixed: Pressure, kPa = 101.3
Property: Mass fraction of benzene (Liquid mixture 2); method: Chromatography
Property: Mass fraction of sulfolane (Liquid mixture 1); method: Chromatography
Property: Mass fraction of benzene (Liquid mixture 1); method: Chromatography
Temperature, K	Mass fraction of sulfolane	Mass fraction of benzene	uncertainty	Mass fraction of sulfolane	uncertainty	Mass fraction of benzene	uncertainty
308.15	0.6923	0.2776	0.0217	0.0981	0.0236	0.4351	
308.15	0.7192	0.2532	0.0216	0.0693	0.0202	0.4203	
308.15	0.7626	0.2142	0.0218	0.0391	0.0169	0.3807	
308.15	0.8194	0.1612	0.0219	0.0277	0.0164	0.3029	
313.15	0.6477	0.3085	0.0213	0.0901	0.0162	0.4232	
313.15	0.7209	0.2449	0.0208	0.0761	0.016	0.4086	
313.15	0.7503	0.2256	0.0215	0.0715	0.0205	0.3842	
313.15	0.8059	0.1705	0.0223	0.0574	0.0162	0.2844	
313.15	0.8398	0.1396	0.0217	0.0499	0.0162	0.2392	
318.15	0.6696	0.2875	0.0213	0.0798	0.0181	0.4434	
318.15	0.7247	0.2396	0.021	0.0704	0.0169	0.425	
318.15	0.7819	0.1923	0.0212	0.0598	0.0162	0.3854	
318.15	0.8335	0.1456	0.0216	0.0485	0.0162	0.3001	

System: benzene + hexane + N-formylmorpholine; phases: Liquid mixture 2, Liquid mixture 1
Fixed: Pressure, kPa = 101.3
Property: Mass fraction of benzene (Liquid mixture 2); method: Chromatography
Property: Mass fraction of N-formylmorpholine (Liquid mixture 1); method: Chromatography
Property: Mass fraction of benzene (Liquid mixture 1); method: Chromatography
Temperature, K	Mass fraction of N-formylmorpholine	Mass fraction of benzene	uncertainty	Mass fraction of N-formylmorpholine	uncertainty	Mass fraction of benzene	uncertainty
303.15	0.6445	0.2749	0.0198	0.1661	0.04	0.3526	
303.15	0.6725	0.2547	0.0201	0.1206	0.0335	0.3327	
303.15	0.6916	0.2396	0.0198	0.1072	0.0254	0.3207	
303.15	0.735	0.2091	0.0201	0.0844	0.0224	0.3085	
303.15	0.782	0.1716	0.0208	0.0414	0.0161	0.2545	
303.15	0.8896	0.0821	0.0208	0.0537	0.0161	0.1264	
308.15	0.6391	0.2778	0.0215	0.1531	0.0278	0.3612	
308.15	0.6596	0.2599	0.0204	0.1328	0.0215	0.3441	
308.15	0.6894	0.2375	0.0202	0.1174	0.0221	0.3281	
308.15	0.7474	0.1932	0.0198	0.0877	0.0223	0.2976	
308.15	0.8147	0.1464	0.0203	0.0519	0.016	0.2605	
308.15	0.8904	0.0815	0.0211	0.0599	0.016	0.1305	
313.15	0.6358	0.2796	0.0202	0.1003	0.019	0.3956	
313.15	0.6655	0.257	0.0208	0.0895	0.0183	0.3754	
313.15	0.6985	0.2283	0.0194	0.0798	0.0181	0.349	
313.15	0.7229	0.2185	0.0197	0.0627	0.0179	0.3349	
313.15	0.7936	0.1627	0.0204	0.0391	0.0168	0.2615	
