Measured thermophysical data. Thermodynamic characterization of binary mixtures of poly(propylene glycol) 425 with toluene and o-, m- and p-xylenes
Source: J. Chem. Thermodyn., 2019, 10.1016/j.jct.2018.11.020
Compound 1: toluene, C7H8, InChI=1S/C7H8/c1-7-5-3-2-4-6-7/h2-6H,1H3, purity 99.5%
Compound 2: 1,2-dimethylbenzene, C8H10, InChI=1S/C8H10/c1-7-5-3-4-6-8(7)2/h3-6H,1-2H3, purity 99%
Compound 3: 1,3-dimethylbenzene, C8H10, InChI=1S/C8H10/c1-7-4-3-5-8(2)6-7/h3-6H,1-2H3, purity 99%
Compound 4: 1,4-dimethylbenzene, C8H10, InChI=1S/C8H10/c1-7-3-5-8(2)6-4-7/h3-6H,1-2H3, purity 99%

System: toluene; phases: Liquid
Fixed: Pressure, kPa = 101.325
Property: Mass density, kg/m3 (Liquid); method: Vibrating tube method
Temperature, K	Mass density, kg/m3	uncertainty
288.15	871.5	1.01
293.15	866.84	1.01
298.15	862.18	1.01
303.15	857.51	1.01
308.15	852.83	1.01
313.15	848.15	1.01
318.15	843.44	1.01
323.15	838.73	1.01
328.15	834	1.01
333.15	829.25	1.01

System: toluene; phases: Liquid
Fixed: Pressure, kPa = 101.325
Property: Refractive index (Na D-line) (Liquid); method: Standard Abbe refractometry
Temperature, K	Refractive index (Na D-line)	uncertainty
288.15	1.49921	0.00036
293.15	1.49631	0.00036
298.15	1.49338	0.00036
303.15	1.49042	0.00036
308.15	1.48751	0.00036
313.15	1.48461	0.00036
318.15	1.48171	0.00036
323.15	1.47889	0.00036
328.15	1.47596	0.00036
333.15	1.47305	0.00036

System: toluene; phases: Liquid
Fixed: Pressure, kPa = 101.325
Property: Viscosity, Pa*s (Liquid); method: Concentric cylinders viscometry
Temperature, K	Viscosity, Pa*s	uncertainty
288.15	0.0006284	1.37e-05
293.15	0.0005926	1.3e-05
298.15	0.0005698	1.26e-05
303.15	0.000541	1.2e-05
308.15	0.000514	1.15e-05
313.15	0.0004854	1.09e-05
318.15	0.0004646	1.05e-05
323.15	0.0004421	1.01e-05
328.15	0.0004209	9.7e-06
333.15	0.0004035	9.4e-06

System: 1,2-dimethylbenzene; phases: Liquid
Fixed: Pressure, kPa = 101.325
Property: Mass density, kg/m3 (Liquid); method: Vibrating tube method
Temperature, K	Mass density, kg/m3	uncertainty
288.15	883.91	1.02
293.15	879.72	1.02
298.15	875.51	1.02
303.15	871.3	1.02
308.15	867.07	1.02
313.15	862.83	1.02
318.15	858.57	1.02
323.15	854.3	1.02
328.15	850.01	1.02
333.15	845.71	1.02

System: 1,2-dimethylbenzene; phases: Liquid
Fixed: Pressure, kPa = 101.325
Property: Refractive index (Na D-line) (Liquid); method: Standard Abbe refractometry
Temperature, K	Refractive index (Na D-line)	uncertainty
288.15	1.50706	0.0004
293.15	1.5044	0.0004
298.15	1.50173	0.0004
303.15	1.49906	0.0004
308.15	1.49644	0.0004
313.15	1.49383	0.0004
318.15	1.49124	0.0004
323.15	1.48869	0.0004
328.15	1.48604	0.0004
333.15	1.48345	0.0004

System: 1,2-dimethylbenzene; phases: Liquid
Fixed: Pressure, kPa = 101.325
Property: Viscosity, Pa*s (Liquid); method: Concentric cylinders viscometry
Temperature, K	Viscosity, Pa*s	uncertainty
288.15	0.000869	1.89e-05
293.15	0.0008175	1.78e-05
298.15	0.0007661	1.68e-05
303.15	0.000722	1.59e-05
308.15	0.0006809	1.51e-05
313.15	0.0006437	1.43e-05
318.15	0.000608	1.36e-05
323.15	0.0005757	1.29e-05
328.15	0.0005458	1.23e-05
333.15	0.0005221	1.19e-05

System: 1,3-dimethylbenzene; phases: Liquid
Fixed: Pressure, kPa = 101.325
Property: Mass density, kg/m3 (Liquid); method: Vibrating tube method
Temperature, K	Mass density, kg/m3	uncertainty
288.15	868.56	1.02
293.15	864.27	1.02
298.15	859.98	1.02
303.15	855.68	1.02
308.15	851.36	1.02
313.15	847.03	1.02
318.15	842.69	1.02
323.15	838.33	1.02
328.15	833.95	1.02
333.15	829.56	1.02

System: 1,3-dimethylbenzene; phases: Liquid
Fixed: Pressure, kPa = 101.325
Property: Refractive index (Na D-line) (Liquid); method: Standard Abbe refractometry
Temperature, K	Refractive index (Na D-line)	uncertainty
288.15	1.49868	0.0004
293.15	1.49604	0.0004
298.15	1.49339	0.0004
303.15	1.49074	0.0004
308.15	1.4881	0.0004
313.15	1.48545	0.0004
318.15	1.4828	0.0004
323.15	1.48017	0.0004
328.15	1.47757	0.0004
333.15	1.47489	0.0004

System: 1,3-dimethylbenzene; phases: Liquid
Fixed: Pressure, kPa = 101.325
Property: Viscosity, Pa*s (Liquid); method: Concentric cylinders viscometry
Temperature, K	Viscosity, Pa*s	uncertainty
288.15	0.0006601	1.46e-05
293.15	0.0006322	1.41e-05
298.15	0.0005969	1.34e-05
303.15	0.0005674	1.28e-05
308.15	0.0005396	1.22e-05
313.15	0.0005112	1.17e-05
318.15	0.0004888	1.12e-05
323.15	0.0004657	1.08e-05
328.15	0.0004439	1.03e-05
333.15	0.0004273	1e-05

System: 1,4-dimethylbenzene; phases: Liquid
Fixed: Pressure, kPa = 101.325
Property: Mass density, kg/m3 (Liquid); method: Vibrating tube method
Temperature, K	Mass density, kg/m3	uncertainty
288.15	865.31	1.02
293.15	860.97	1.02
298.15	856.63	1.02
303.15	852.27	1.02
308.15	847.91	1.02
313.15	843.53	1.02
318.15	839.14	1.02
323.15	834.74	1.02
328.15	830.32	1.02
333.15	825.88	1.02

System: 1,4-dimethylbenzene; phases: Liquid
Fixed: Pressure, kPa = 101.325
Property: Refractive index (Na D-line) (Liquid); method: Standard Abbe refractometry
Temperature, K	Refractive index (Na D-line)	uncertainty
288.15	1.4977	0.0004
293.15	1.49493	0.0004
298.15	1.49221	0.0004
303.15	1.48939	0.0004
308.15	1.48658	0.0004
313.15	1.48391	0.0004
318.15	1.48126	0.0004
323.15	1.47853	0.0004
328.15	1.47608	0.0004
333.15	1.47328	0.0004

System: 1,4-dimethylbenzene; phases: Liquid
Fixed: Pressure, kPa = 101.325
Property: Viscosity, Pa*s (Liquid); method: Concentric cylinders viscometry
Temperature, K	Viscosity, Pa*s	uncertainty
288.15	0.0006862	1.52e-05
293.15	0.0006515	1.45e-05
298.15	0.0006168	1.38e-05
303.15	0.0005848	1.31e-05
308.15	0.0005548	1.25e-05
313.15	0.0005247	1.19e-05
318.15	0.0005001	1.14e-05
323.15	0.0004753	1.09e-05
328.15	0.0004521	1.05e-05
333.15	0.0004342	1.01e-05
