Measured thermophysical data. Solubility measurement, model evaluation and thermodynamic analysis of rivaroxaban polymorphs in organic solvents
Source: J. Chem. Thermodyn., 2017, 10.1016/j.jct.2016.09.036
Compound 1: Rivaroxaban, C19H18ClN3O5S, InChI=1S/C19H18ClN3O5S/c20-16-6-5-15(29-16)18(25)21-9-14-10-23(19(26)28-14)13-3-1-12(2-4-13)22-7-8-27-11-17(22)24/h1-6,14H,7-11H2,(H,21,25)/t14-/m0/s1
Compound 2: acetonitrile, C2H3N, InChI=1S/C2H3N/c1-2-3/h1H3
Compound 3: methyl ethanoate, C3H6O2, InChI=1S/C3H6O2/c1-3(4)5-2/h1-2H3
Compound 4: 1,4-dioxane, C4H8O2, InChI=1S/C4H8O2/c1-2-6-4-3-5-1/h1-4H2
Compound 5: acetone, C3H6O, InChI=1S/C3H6O/c1-3(2)4/h1-2H3
Compound 6: butanone, C4H8O, InChI=1S/C4H8O/c1-3-4(2)5/h3H2,1-2H3
Compound 7: pentan-3-one, C5H10O, InChI=1S/C5H10O/c1-3-5(6)4-2/h3-4H2,1-2H3
Compound 8: 2-hexanone, C6H12O, InChI=1S/C6H12O/c1-3-4-5-6(2)7/h3-5H2,1-2H3
Compound 9: water, H2O, InChI=1S/H2O/h1H2

System: Rivaroxaban; phases: Crystal 1, Liquid, Air at 1 atmosphere
Property: Triple point temperature, K (Crystal 1); method: DSC
Triple point temperature, K	uncertainty
501.41	7.83

System: Rivaroxaban; phases: Crystal 1, Liquid, Air at 1 atmosphere
Property: Molar enthalpy of transition or fusion, kJ/mol (Crystal 1); method: DSC
Molar enthalpy of transition or fusion, kJ/mol	uncertainty
46.68	2.06

System: Rivaroxaban; phases: Crystal 1
Property: Mass density, kg/m3 (Crystal 1); method: Pycnometric method
Temperature, K	Pressure, kPa	Mass density, kg/m3	uncertainty
298.15	101.325	1517.1	2.1

System: Rivaroxaban; phases: Metastable crystal
Property: Mass density, kg/m3 (Metastable crystal); method: Pycnometric method
Temperature, K	Pressure, kPa	Mass density, kg/m3	uncertainty
298.15	101.325	1355.3	2.1

System: Rivaroxaban; phases: Crystal 1
Property: Mass density, kg/m3 (Crystal 1); method: X-ray diffraction
Temperature, K	Pressure, kPa	Mass density, kg/m3	uncertainty
298.15	101.325	1516.7	7.4

System: Rivaroxaban; phases: Metastable crystal
Property: Mass density, kg/m3 (Metastable crystal); method: X-ray diffraction
Temperature, K	Pressure, kPa	Mass density, kg/m3	uncertainty
298.15	101.325	1362.9	24.9

System: acetonitrile + Rivaroxaban; phases: Liquid, Crystal 1
Fixed: Pressure, kPa = 101.3
Property: Mole fraction of Rivaroxaban (Liquid); method: gravimetric
Temperature, K	Mole fraction of Rivaroxaban	uncertainty
273.15	4.82e-05	5.4e-06
278.15	6.11e-05	6.8e-06
283.15	7.68e-05	8.6e-06
288.15	9.58e-05	1.07e-05
293.15	0.0001186	1.33e-05
298.15	0.0001458	1.63e-05
303.15	0.000178	1.99e-05
308.15	0.0002159	2.42e-05
313.15	0.0002602	2.92e-05
318.15	0.0003118	3.49e-05

System: acetonitrile + Rivaroxaban; phases: Liquid, Metastable crystal
Fixed: Pressure, kPa = 101.3
Property: Mole fraction of Rivaroxaban (Liquid); method: gravimetric
Temperature, K	Mole fraction of Rivaroxaban	uncertainty
273.15	0.0001167	1.31e-05
278.15	0.0001481	1.66e-05
283.15	0.0001864	2.09e-05
288.15	0.0002327	2.61e-05
293.15	0.0002883	3.23e-05
298.15	0.0003546	3.97e-05
303.15	0.0004332	4.85e-05
308.15	0.0005258	5.89e-05
313.15	0.0006343	7.11e-05
318.15	0.0007607	8.52e-05

System: methyl ethanoate + Rivaroxaban; phases: Liquid, Crystal 1
Fixed: Pressure, kPa = 101.3
Property: Mole fraction of Rivaroxaban (Liquid); method: gravimetric
Temperature, K	Mole fraction of Rivaroxaban	uncertainty
273.15	3.2e-05	3.6e-06
278.15	4.05e-05	4.5e-06
283.15	5.07e-05	5.7e-06
288.15	6.31e-05	7.1e-06
293.15	7.79e-05	8.7e-06
298.15	9.54e-05	1.07e-05
303.15	0.0001162	1.3e-05
308.15	0.0001406	1.58e-05
313.15	0.0001691	1.89e-05
318.15	0.0002021	2.26e-05

System: methyl ethanoate + Rivaroxaban; phases: Liquid, Metastable crystal
Fixed: Pressure, kPa = 101.3
Property: Mole fraction of Rivaroxaban (Liquid); method: gravimetric
Temperature, K	Mole fraction of Rivaroxaban	uncertainty
273.15	8.52e-05	9.5e-06
278.15	0.0001077	1.21e-05
283.15	0.000135	1.51e-05
288.15	0.0001679	1.88e-05
293.15	0.0002073	2.32e-05
298.15	0.0002541	2.85e-05
303.15	0.0003095	3.47e-05
308.15	0.0003744	4.19e-05
313.15	0.0004503	5.05e-05
318.15	0.0005384	6.03e-05

System: 1,4-dioxane + Rivaroxaban; phases: Liquid, Crystal 1
Fixed: Pressure, kPa = 101.3
Property: Mole fraction of Rivaroxaban (Liquid); method: gravimetric
Temperature, K	Mole fraction of Rivaroxaban	uncertainty
288.15	0.000132	1.48e-05
293.15	0.0001584	1.77e-05
298.15	0.0001891	2.12e-05
303.15	0.0002244	2.51e-05
308.15	0.0002647	2.97e-05
313.15	0.0003107	3.48e-05
318.15	0.0003628	4.06e-05
323.15	0.0004217	4.72e-05
328.15	0.0004879	5.47e-05
333.15	0.0005619	6.3e-05

System: 1,4-dioxane + Rivaroxaban; phases: Liquid, Metastable crystal
Fixed: Pressure, kPa = 101.3
Property: Mole fraction of Rivaroxaban (Liquid); method: gravimetric
Temperature, K	Mole fraction of Rivaroxaban	uncertainty
288.15	0.0003413	3.82e-05
293.15	0.0004095	4.59e-05
298.15	0.0004884	5.47e-05
303.15	0.0005791	6.49e-05
308.15	0.0006829	7.65e-05
313.15	0.0008011	8.98e-05
318.15	0.000935	0.0001048
323.15	0.0010861	0.0001217
328.15	0.0012558	0.0001407
333.15	0.0014458	0.000162

System: acetone + Rivaroxaban; phases: Liquid, Crystal 1
Fixed: Pressure, kPa = 101.3
Property: Mole fraction of Rivaroxaban (Liquid); method: gravimetric
Temperature, K	Mole fraction of Rivaroxaban	uncertainty
273.15	4.06e-05	4.6e-06
278.15	5.29e-05	5.9e-06
283.15	6.83e-05	7.7e-06
288.15	8.74e-05	9.8e-06
293.15	0.0001109	1.24e-05
298.15	0.0001396	1.56e-05
303.15	0.0001745	1.96e-05
308.15	0.0002164	2.42e-05
313.15	0.0002666	2.99e-05
318.15	0.0003263	3.66e-05

System: acetone + Rivaroxaban; phases: Liquid, Metastable crystal
Fixed: Pressure, kPa = 101.3
Property: Mole fraction of Rivaroxaban (Liquid); method: gravimetric
Temperature, K	Mole fraction of Rivaroxaban	uncertainty
273.15	0.0001039	1.16e-05
278.15	0.0001354	1.52e-05
283.15	0.0001748	1.96e-05
288.15	0.0002236	2.51e-05
293.15	0.0002837	3.18e-05
298.15	0.0003571	4e-05
303.15	0.0004461	5e-05
308.15	0.0005532	6.2e-05
313.15	0.0006813	7.63e-05
318.15	0.0008337	9.34e-05

System: butanone + Rivaroxaban; phases: Liquid, Crystal 1
Fixed: Pressure, kPa = 101.3
Property: Mole fraction of Rivaroxaban (Liquid); method: gravimetric
Temperature, K	Mole fraction of Rivaroxaban	uncertainty
273.15	3.47e-05	3.9e-06
278.15	4.55e-05	5.1e-06
283.15	5.9e-05	6.6e-06
288.15	7.59e-05	8.5e-06
293.15	9.67e-05	1.08e-05
298.15	0.0001223	1.37e-05
303.15	0.0001535	1.72e-05
308.15	0.0001912	2.14e-05
313.15	0.0002364	2.65e-05
318.15	0.0002904	3.25e-05

System: butanone + Rivaroxaban; phases: Liquid, Metastable crystal
Fixed: Pressure, kPa = 101.3
Property: Mole fraction of Rivaroxaban (Liquid); method: gravimetric
Temperature, K	Mole fraction of Rivaroxaban	uncertainty
273.15	9.24e-05	1.04e-05
278.15	0.0001212	1.36e-05
283.15	0.0001573	1.76e-05
288.15	0.0002024	2.27e-05
293.15	0.0002582	2.89e-05
298.15	0.0003266	3.66e-05
303.15	0.00041	4.59e-05
308.15	0.000511	5.73e-05
313.15	0.0006323	7.08e-05
318.15	0.0007773	8.71e-05

System: pentan-3-one + Rivaroxaban; phases: Liquid, Crystal 1
Fixed: Pressure, kPa = 101.3
Property: Mole fraction of Rivaroxaban (Liquid); method: gravimetric
Temperature, K	Mole fraction of Rivaroxaban	uncertainty
273.15	2.43e-05	2.7e-06
278.15	3.11e-05	3.5e-06
283.15	3.94e-05	4.4e-06
288.15	4.95e-05	5.5e-06
293.15	6.17e-05	6.9e-06
298.15	7.64e-05	8.6e-06
303.15	9.39e-05	1.05e-05
308.15	0.0001147	1.29e-05
313.15	0.0001392	1.56e-05
318.15	0.0001678	1.88e-05

System: pentan-3-one + Rivaroxaban; phases: Liquid, Metastable crystal
Fixed: Pressure, kPa = 101.3
Property: Mole fraction of Rivaroxaban (Liquid); method: gravimetric
Temperature, K	Mole fraction of Rivaroxaban	uncertainty
273.15	6.39e-05	7.2e-06
278.15	8.14e-05	9.1e-06
283.15	0.0001027	1.15e-05
288.15	0.0001286	1.44e-05
293.15	0.0001599	1.79e-05
298.15	0.0001972	2.21e-05
303.15	0.0002416	2.71e-05
308.15	0.000294	3.29e-05
313.15	0.0003556	3.98e-05
318.15	0.0004276	4.79e-05

System: 2-hexanone + Rivaroxaban; phases: Liquid, Crystal 1
Fixed: Pressure, kPa = 101.3
Property: Mole fraction of Rivaroxaban (Liquid); method: gravimetric
Temperature, K	Mole fraction of Rivaroxaban	uncertainty
273.15	1.78e-05	2e-06
278.15	2.24e-05	2.5e-06
283.15	2.79e-05	3.1e-06
288.15	3.45e-05	3.9e-06
293.15	4.24e-05	4.8e-06
298.15	5.17e-05	5.8e-06
303.15	6.27e-05	7e-06
308.15	7.54e-05	8.4e-06
313.15	9.03e-05	1.01e-05
318.15	0.0001074	1.2e-05

System: 2-hexanone + Rivaroxaban; phases: Liquid, Metastable crystal
Fixed: Pressure, kPa = 101.3
Property: Mole fraction of Rivaroxaban (Liquid); method: gravimetric
Temperature, K	Mole fraction of Rivaroxaban	uncertainty
273.15	4.75e-05	5.3e-06
278.15	5.97e-05	6.7e-06
283.15	7.43e-05	8.3e-06
288.15	9.19e-05	1.03e-05
293.15	0.0001129	1.27e-05
298.15	0.0001376	1.54e-05
303.15	0.0001667	1.87e-05
308.15	0.0002007	2.25e-05
313.15	0.0002402	2.69e-05
318.15	0.0002858	3.2e-05

System: water + Rivaroxaban; phases: Liquid, Crystal 1
Property: Mole fraction of Rivaroxaban (Liquid); method: gravimetric
Temperature, K	Pressure, kPa	Mole fraction of Rivaroxaban	uncertainty
298.15	101.3	8.25e-05	9.2e-06

System: water + Rivaroxaban; phases: Liquid, Metastable crystal
Property: Mole fraction of Rivaroxaban (Liquid); method: gravimetric
Temperature, K	Pressure, kPa	Mole fraction of Rivaroxaban	uncertainty
298.15	101.3	0.0001403	1.57e-05
