Measured thermophysical data. Solubility determination and thermodynamic models for dehydroepiandrosterone acetate in mixed solvents of (ethyl acetate + methanol), (ethyl acetate + ethanol) and (ethyl acetate + isopropanol)
Source: J. Chem. Thermodyn., 2016, 10.1016/j.jct.2016.06.014
Compound 1: dehydroepiandrosterone acetate, C21H30O3, InChI=1S/C21H30O3/c1-13(22)24-15-8-10-20(2)14(12-15)4-5-16-17-6-7-19(23)21(17,3)11-9-18(16)20/h4,15-18H,5-12H2,1-3H3/t15-,16-,17-,18-,20-,21-/m0/s1, purity 98.1%
Compound 2: ethyl acetate, C4H8O2, InChI=1S/C4H8O2/c1-3-6-4(2)5/h3H2,1-2H3, purity 99.3%
Compound 3: methanol, CH4O, InChI=1S/CH4O/c1-2/h2H,1H3, purity 99.5%
Compound 4: ethanol, C2H6O, InChI=1S/C2H6O/c1-2-3/h3H,2H2,1H3, purity 99.4%
Compound 5: propan-2-ol, C3H8O, InChI=1S/C3H8O/c1-3(2)4/h3-4H,1-2H3, purity 99.4%
Compound 6: toluene, C7H8, InChI=1S/C7H8/c1-7-5-3-2-4-6-7/h2-6H,1H3, purity 99.5%
Compound 7: benzoic acid, C7H6O2, InChI=1S/C7H6O2/c8-7(9)6-4-2-1-3-5-6/h1-5H,(H,8,9), purity 99.4%

System: methanol + ethyl acetate + dehydroepiandrosterone acetate; phases: Liquid, Crystal
Fixed: Pressure, kPa = 101.1
Property: Mole fraction of dehydroepiandrosterone acetate (Liquid); method: Chromatography
Solvent: Mass fraction of ethyl acetate	Temperature, K	Mole fraction of dehydroepiandrosterone acetate	uncertainty
0.1	273.15	0.001434	0.000304
0.1	278.15	0.001775	0.000376
0.1	283.15	0.002213	0.000469
0.1	288.15	0.002725	0.000578
0.1	293.15	0.003385	0.000718
0.1	298.15	0.004139	0.000878
0.1	303.15	0.005009	0.001062
0.1	308.15	0.005854	0.001241
0.1	313.15	0.007139	0.001514
0.2	273.15	0.002025	0.000429
0.2	278.15	0.002492	0.000528
0.2	283.15	0.003107	0.000659
0.2	288.15	0.003805	0.000807
0.2	293.15	0.004469	0.000948
0.2	298.15	0.005533	0.001173
0.2	303.15	0.006537	0.001386
0.2	308.15	0.007721	0.001637
0.2	313.15	0.009111	0.001932
0.3	273.15	0.003008	0.000638
0.3	278.15	0.003725	0.00079
0.3	283.15	0.004516	0.000957
0.3	288.15	0.005443	0.001154
0.3	293.15	0.006533	0.001385
0.3	298.15	0.00791	0.001677
0.3	303.15	0.009287	0.001969
0.3	308.15	0.01062	0.00225
0.3	313.15	0.01225	0.0026
0.4	273.15	0.004557	0.000966
0.4	278.15	0.005648	0.001197
0.4	283.15	0.00668	0.00142
0.4	288.15	0.007986	0.001693
0.4	293.15	0.009453	0.002004
0.4	298.15	0.01127	0.00239
0.4	303.15	0.01294	0.00274
0.4	308.15	0.01475	0.00313
0.4	313.15	0.01721	0.00365
0.5	273.15	0.006795	0.001441
0.5	278.15	0.008115	0.001721
0.5	283.15	0.009566	0.002028
0.5	288.15	0.01126	0.00239
0.5	293.15	0.01311	0.00278
0.5	298.15	0.01508	0.0032
0.5	303.15	0.01772	0.00376
0.5	308.15	0.02027	0.0043
0.5	313.15	0.02323	0.00493
0.6	273.15	0.009475	0.002009
0.6	278.15	0.01139	0.00241
0.6	283.15	0.01314	0.00279
0.6	288.15	0.01516	0.00321
0.6	293.15	0.01736	0.00368
0.6	298.15	0.02029	0.0043
0.6	303.15	0.02317	0.00491
0.6	308.15	0.02626	0.00557
0.6	313.15	0.03	0.00636
0.7	273.15	0.01248	0.00265
0.7	278.15	0.01486	0.00315
0.7	283.15	0.01694	0.00359
0.7	288.15	0.01955	0.00414
0.7	293.15	0.02224	0.00472
0.7	298.15	0.02537	0.00538
0.7	303.15	0.02872	0.00609
0.7	308.15	0.03207	0.0068
0.7	313.15	0.03638	0.00771
0.8	273.15	0.01572	0.00333
0.8	278.15	0.01839	0.0039
0.8	283.15	0.02104	0.00446
0.8	288.15	0.02398	0.00508
0.8	293.15	0.02732	0.00579
0.8	298.15	0.03053	0.00647
0.8	303.15	0.03413	0.00724
0.8	308.15	0.03836	0.00813
0.8	313.15	0.04278	0.00907
0.9	273.15	0.01968	0.00417
0.9	278.15	0.02272	0.00482
0.9	283.15	0.0258	0.00547
0.9	288.15	0.02892	0.00613
0.9	293.15	0.03289	0.00697
0.9	298.15	0.03656	0.00775
0.9	303.15	0.04048	0.00858
0.9	308.15	0.04515	0.00957
0.9	313.15	0.0496	0.01052

System: ethanol + ethyl acetate + dehydroepiandrosterone acetate; phases: Liquid, Crystal
Fixed: Pressure, kPa = 101.1
Property: Mole fraction of dehydroepiandrosterone acetate (Liquid); method: Chromatography
Solvent: Mass fraction of ethyl acetate	Temperature, K	Mole fraction of dehydroepiandrosterone acetate	uncertainty
0.1	273.15	0.002295	0.000487
0.1	278.15	0.002904	0.000616
0.1	283.15	0.003504	0.000743
0.1	288.15	0.004262	0.000904
0.1	293.15	0.005311	0.001126
0.1	298.15	0.006639	0.001408
0.1	303.15	0.007889	0.001673
0.1	308.15	0.00959	0.002033
0.1	313.15	0.01159	0.00246
0.2	273.15	0.003008	0.000638
0.2	278.15	0.003676	0.000779
0.2	283.15	0.004549	0.000964
0.2	288.15	0.005475	0.001161
0.2	293.15	0.00675	0.001431
0.2	298.15	0.008197	0.001738
0.2	303.15	0.009873	0.002093
0.2	308.15	0.01117	0.00237
0.2	313.15	0.0138	0.00293
0.3	273.15	0.004016	0.000851
0.3	278.15	0.005115	0.001084
0.3	283.15	0.005994	0.001271
0.3	288.15	0.007246	0.001536
0.3	293.15	0.008889	0.001885
0.3	298.15	0.01074	0.00228
0.3	303.15	0.01262	0.00268
0.3	308.15	0.0148	0.00314
0.3	313.15	0.01734	0.00368
0.4	273.15	0.005738	0.001217
0.4	278.15	0.006873	0.001457
0.4	283.15	0.008268	0.001753
0.4	288.15	0.009803	0.002078
0.4	293.15	0.01177	0.0025
0.4	298.15	0.01385	0.00294
0.4	303.15	0.01609	0.00341
0.4	308.15	0.01913	0.00406
0.4	313.15	0.02207	0.00468
0.5	273.15	0.007656	0.001623
0.5	278.15	0.009164	0.001943
0.5	283.15	0.01085	0.0023
0.5	288.15	0.01272	0.0027
0.5	293.15	0.01523	0.00323
0.5	298.15	0.01768	0.00375
0.5	303.15	0.02038	0.00432
0.5	308.15	0.02375	0.00504
0.5	313.15	0.02708	0.00574
0.6	273.15	0.01007	0.00214
0.6	278.15	0.01196	0.00254
0.6	283.15	0.01392	0.00295
0.6	288.15	0.01633	0.00346
0.6	293.15	0.01903	0.00403
0.6	298.15	0.02198	0.00466
0.6	303.15	0.0252	0.00534
0.6	308.15	0.02877	0.0061
0.6	313.15	0.03274	0.00694
0.7	273.15	0.01275	0.0027
0.7	278.15	0.01505	0.00319
0.7	283.15	0.01755	0.00372
0.7	288.15	0.02013	0.00427
0.7	293.15	0.02379	0.00504
0.7	298.15	0.02639	0.0056
0.7	303.15	0.02998	0.00636
0.7	308.15	0.03413	0.00724
0.7	313.15	0.03844	0.00815
0.8	273.15	0.01599	0.00339
0.8	278.15	0.01875	0.00398
0.8	283.15	0.02133	0.00452
0.8	288.15	0.0243	0.00515
0.8	293.15	0.02796	0.00593
0.8	298.15	0.03129	0.00663
0.8	303.15	0.03507	0.00744
0.8	308.15	0.03964	0.0084
0.8	313.15	0.04415	0.00936
0.9	273.15	0.01995	0.00423
0.9	278.15	0.02296	0.00487
0.9	283.15	0.02607	0.00553
0.9	288.15	0.02934	0.00622
0.9	293.15	0.03338	0.00708
0.9	298.15	0.03701	0.00785
0.9	303.15	0.04107	0.00871
0.9	308.15	0.04608	0.00977
0.9	313.15	0.05084	0.01078

System: propan-2-ol + ethyl acetate + dehydroepiandrosterone acetate; phases: Liquid, Crystal
Fixed: Pressure, kPa = 101.1
Property: Mole fraction of dehydroepiandrosterone acetate (Liquid); method: Chromatography
Solvent: Mass fraction of ethyl acetate	Temperature, K	Mole fraction of dehydroepiandrosterone acetate	uncertainty
0.1	273.15	0.0031	0.000657
0.1	278.15	0.003767	0.000799
0.1	283.15	0.004633	0.000982
0.1	288.15	0.00558	0.00118
0.1	293.15	0.006725	0.001426
0.1	298.15	0.007879	0.00167
0.1	303.15	0.009141	0.001938
0.1	308.15	0.01058	0.00224
0.1	313.15	0.01245	0.00264
0.2	273.15	0.004272	0.000906
0.2	278.15	0.004993	0.001059
0.2	283.15	0.005804	0.001231
0.2	288.15	0.006832	0.001448
0.2	293.15	0.007869	0.001668
0.2	298.15	0.009005	0.001909
0.2	303.15	0.01022	0.00217
0.2	308.15	0.01168	0.00248
0.2	313.15	0.01357	0.00288
0.3	273.15	0.006266	0.001328
0.3	278.15	0.007089	0.001503
0.3	283.15	0.008374	0.001775
0.3	288.15	0.009464	0.002006
0.3	293.15	0.01075	0.00228
0.3	298.15	0.01221	0.00259
0.3	303.15	0.01371	0.00291
0.3	308.15	0.01524	0.00323
0.3	313.15	0.01744	0.0037
0.4	273.15	0.008702	0.001845
0.4	278.15	0.009715	0.00206
0.4	283.15	0.01126	0.00239
0.4	288.15	0.0129	0.00273
0.4	293.15	0.01437	0.00305
0.4	298.15	0.01588	0.00337
0.4	303.15	0.01773	0.00376
0.4	308.15	0.01951	0.00414
0.4	313.15	0.02167	0.00459
0.5	273.15	0.01053	0.00223
0.5	278.15	0.01183	0.00251
0.5	283.15	0.0134	0.00284
0.5	288.15	0.0151	0.0032
0.5	293.15	0.01696	0.0036
0.5	298.15	0.0186	0.00394
0.5	303.15	0.02052	0.00435
0.5	308.15	0.02236	0.00474
0.5	313.15	0.02438	0.00517
0.6	273.15	0.01296	0.00275
0.6	278.15	0.01433	0.00304
0.6	283.15	0.01584	0.00336
0.6	288.15	0.01752	0.00371
0.6	293.15	0.01944	0.00412
0.6	298.15	0.02139	0.00453
0.6	303.15	0.02347	0.00498
0.6	308.15	0.02555	0.00542
0.6	313.15	0.02816	0.00597
0.7	273.15	0.01647	0.00349
0.7	278.15	0.01824	0.00387
0.7	283.15	0.02019	0.00428
0.7	288.15	0.02221	0.00471
0.7	293.15	0.0243	0.00515
0.7	298.15	0.02634	0.00558
0.7	303.15	0.02835	0.00601
0.7	308.15	0.03039	0.00644
0.7	313.15	0.03293	0.00698
0.8	273.15	0.01967	0.00417
0.8	278.15	0.02139	0.00453
0.8	283.15	0.02381	0.00505
0.8	288.15	0.02621	0.00556
0.8	293.15	0.02859	0.00606
0.8	298.15	0.03084	0.00654
0.8	303.15	0.03326	0.00705
0.8	308.15	0.03586	0.0076
0.8	313.15	0.03903	0.00827
0.9	273.15	0.02266	0.0048
0.9	278.15	0.02525	0.00535
0.9	283.15	0.02813	0.00596
0.9	288.15	0.03114	0.0066
0.9	293.15	0.03428	0.00727
0.9	298.15	0.03772	0.008
0.9	303.15	0.04102	0.0087
0.9	308.15	0.0444	0.00941
0.9	313.15	0.04867	0.01032

System: benzoic acid + toluene; phases: Liquid, Crystal
Fixed: Pressure, kPa = 101.1
Property: Mole fraction of benzoic acid (Liquid); method: Chromatography
Temperature, K	Mole fraction of benzoic acid	uncertainty
273.15	0.03402	0.00191
283.15	0.04279	0.0024
293.15	0.06162	0.00345
298.15	0.07408	0.00415
303.15	0.08919	0.005
313.15	0.127	0.0071
323.15	0.1784	0.01
