Measured thermophysical data. NaCl and KCl effect on (vapour + liquid) equilibrium of binary, ternary and quaternary systems involving water, ethanol and glycerol at low pressures
Source: J. Chem. Thermodyn., 2016, 10.1016/j.jct.2016.02.026
Compound 1: ethanol, C2H6O, InChI=1S/C2H6O/c1-2-3/h3H,2H2,1H3, purity 99.5%
Compound 2: glycerol, C3H8O3, InChI=1S/C3H8O3/c4-1-3(6)2-5/h3-6H,1-2H2, purity 99.5%
Compound 3: sodium chloride, ClNa, InChI=1S/ClH.Na/h1H;/q;+1/p-1, purity 99.9%
Compound 4: potassium chloride, ClK, InChI=1S/ClH.K/h1H;/q;+1/p-1, purity 99.9%
Compound 5: water, H2O, InChI=1S/H2O/h1H2

System: ethanol; phases: Liquid
Property: Mass density, kg/m3 (Liquid); method: Vibrating tube method
Pressure, kPa	Temperature, K	Mass density, kg/m3	uncertainty
91.2	303.15	781	2

System: glycerol; phases: Liquid
Property: Mass density, kg/m3 (Liquid); method: Vibrating tube method
Pressure, kPa	Temperature, K	Mass density, kg/m3	uncertainty
91.2	303.15	1255	3

System: water; phases: Liquid, Gas
Property: Vapor or sublimation pressure, kPa (Liquid); method: Ebulliometric method (Recirculating still)
Temperature, K	Vapor or sublimation pressure, kPa	uncertainty
327.65	15.32	0.9
337.15	23.61	0.97
341.35	28.46	1.4
344.45	33.81	1.49
348.05	38.36	1.51
351.55	44.42	1.9
355.75	52.9	1.93
358.05	56.84	2.4
361.85	67.25	2.73
365.65	77.55	2.98
370.05	91.59	3.2

System: water; phases: Liquid
Property: Mass density, kg/m3 (Liquid); method: Vibrating tube method
Pressure, kPa	Temperature, K	Mass density, kg/m3	uncertainty
91.2	303.15	996	2

System: glycerol + ethanol; phases: Liquid, Gas
Fixed: Pressure, kPa = 91.2
Property: Boiling temperature at pressure P, K (Liquid); method: Ebulliometric method (Recirculating still)
Mass fraction of ethanol	Boiling temperature at pressure P, K	uncertainty
0.8328	351.05	1.01
0.7641	351.95	1.01
0.7229	352.75	1.01
0.6469	353.75	1.01
0.5442	354.55	1.01
0.4461	355.45	1.01
0.3675	357.65	1.02
0.262	360.85	1.04
0.1748	366.75	1.18
0.1058	378.55	1.45
0.0801	384.75	2.72
0.0413	406.95	4.37
0.036	417.55	4.49
0.0235	429.75	5.56
0.0207	435.85	6.77
0.0186	443.25	8.33

System: glycerol + ethanol; phases: Liquid
Fixed: Pressure, kPa = 91.2
Fixed: Temperature, K = 303.15
Property: Mass density, kg/m3 (Liquid); method: Vibrating tube method
Mass fraction of glycerol	Mass density, kg/m3	uncertainty
0	781	2
0.1529	835	2
0.2901	888	2
0.4124	939	2
0.5159	985	2
0.6211	1036	2
0.7096	1084	2
0.7971	1136	2
0.869	1174	3
0.9357	1215	3
1	1255	3

System: sodium chloride + water; phases: Liquid, Gas
Property: Boiling temperature at pressure P, K (Liquid); method: Ebulliometric method (Recirculating still)
Pressure, kPa	Mass fraction of sodium chloride	Boiling temperature at pressure P, K	uncertainty
15.32	0	327.65	1.06
23.61	0	337.15	1.03
28.46	0	341.35	1.02
33.81	0	344.45	1.02
38.36	0	348.05	1.02
44.42	0	351.55	1.02
52.9	0	355.75	1.02
56.84	0	358.05	1.01
67.25	0	361.85	1.01
77.55	0	365.65	1.01
91.59	0	370.05	1.01
14.01	0.00356	326.55	1.05
15.02	0.00356	327.65	1.05
18.96	0.00356	331.95	1.05
24.41	0.00356	337.55	1.05
33.91	0.00356	345.35	1.03
42.6	0.00356	350.45	1.02
54.92	0.00356	356.85	1.01
66.74	0.00356	361.65	1.01
73.41	0.00356	364.25	1.01
91.49	0.00356	370.15	1.01
14.11	0.04015	326.95	1.07
17.04	0.04015	330.85	1.06
24.11	0.04015	338.15	1.05
28.96	0.04015	342.05	1.03
43.71	0.04015	351.75	1.03
54.11	0.04015	356.95	1.02
64.42	0.04015	361.35	1.02
73.71	0.04015	364.85	1.01
90.99	0.04015	370.45	1.02
14.52	0.07981	328.25	1.07
17.44	0.07981	331.95	1.06
23.51	0.07981	338.25	1.02
23.81	0.07981	338.45	1.02
33.3	0.07981	345.95	1.03
43.81	0.07981	352.45	1.02
54.62	0.07981	357.85	1.02
64.22	0.07981	362.05	1.02
74.12	0.07981	365.85	1.01
90.78	0.07981	371.25	1.02
19.97	0.14365	335.35	1.04
28.86	0.14365	343.65	1.04
39.47	0.14365	350.95	1.03
49.57	0.14365	356.65	1.02
59.17	0.14365	361.15	1.02
69.27	0.14365	365.35	1.02
79.98	0.14365	369.15	1.02
90.99	0.14365	372.65	1.02
20.07	0.25618	337.55	1.04
29.97	0.25618	346.65	1.03
40.48	0.25618	353.85	1.03
49.77	0.25618	359.05	1.02
59.37	0.25618	363.55	1.02
70.08	0.25618	368.05	1.02
79.98	0.25618	371.55	1.02
90.99	0.25618	375.15	1.02

System: sodium chloride + water; phases: Liquid
Fixed: Pressure, kPa = 91.2
Fixed: Temperature, K = 303.15
Property: Mass density, kg/m3 (Liquid); method: Vibrating tube method
Mass fraction of sodium chloride	Mass density, kg/m3	uncertainty
0.0345	1020	2
0.0654	1042	2
0.0949	1063	2
0.1232	1084	2
0.1578	1110	2
0	996	2
0.0318	1018	2
0.067	1043	2
0.0974	1065	2
0.1259	1086	2
0.1772	1125	2
0.2013	1144	3
0.225	1163	3
0.244	1178	3
0.2672	1195	3

System: potassium chloride + water; phases: Liquid, Gas
Property: Boiling temperature at pressure P, K (Liquid); method: Ebulliometric method (Recirculating still)
Pressure, kPa	Mass fraction of potassium chloride	Boiling temperature at pressure P, K	uncertainty
15.32	0	327.65	1.06
23.61	0	337.15	1.05
28.46	0	341.35	1.02
33.81	0	344.45	1.02
38.36	0	348.05	1.02
44.42	0	351.55	1.02
52.9	0	355.75	1.02
56.84	0	358.05	1.01
67.25	0	361.85	1.01
77.55	0	365.65	1.01
91.59	0	370.05	1.01
15.02	0.00807	327.55	1.06
19.97	0.00807	333.45	1.05
29.97	0.00807	342.45	1.04
39.97	0.00807	349.15	1.02
49.97	0.00807	354.55	1.02
59.97	0.00807	359.15	1.01
69.97	0.00807	363.05	1.01
79.97	0.00807	366.55	1.01
91.28	0.00807	370.15	1.01
15.02	0.0393	327.45	1.06
19.97	0.0393	333.45	1.04
29.97	0.0393	342.55	1.03
39.97	0.0393	349.25	1.02
49.87	0.0393	354.65	1.02
59.97	0.0393	359.25	1.01
69.97	0.0393	363.25	1.01
79.97	0.0393	366.75	1.01
91.39	0.0393	370.35	1.01
15.02	0.07943	327.65	1.06
20.17	0.07943	333.85	1.05
29.86	0.07943	342.75	1.03
39.76	0.07943	349.45	1.02
49.97	0.07943	355.15	1.02
59.77	0.07943	359.65	1.02
70.07	0.07943	363.75	1.02
79.77	0.07943	367.25	1.01
91.79	0.07943	371.05	1.02
15.02	0.14234	328.45	1.06
19.97	0.14234	334.45	1.05
29.97	0.14234	343.65	1.04
39.97	0.14234	350.55	1.03
49.97	0.14234	356.05	1.02
60.07	0.14234	360.85	1.02
70.17	0.14234	364.85	1.02
80.07	0.14234	368.45	1.02
91.08	0.14234	371.95	1.02
15.02	0.23466	330.45	1.07
19.97	0.23466	336.55	1.05
29.97	0.23466	345.65	1.03
39.97	0.23466	352.55	1.03
49.97	0.23466	358.15	1.02
59.97	0.23466	362.75	1.02
70.07	0.23466	366.95	1.02
79.97	0.23466	370.45	1.02
91.69	0.23466	374.15	1.02

System: potassium chloride + water; phases: Liquid
Fixed: Pressure, kPa = 91.2
Fixed: Temperature, K = 303.15
Property: Mass density, kg/m3 (Liquid); method: Vibrating tube method
Mass fraction of potassium chloride	Mass density, kg/m3	uncertainty
0.053	1029	2
0.2117	1137	3
0	996	2
0.0344	1017	2
0.067	1038	2
0.0975	1058	2
0.1259	1077	2
0.1526	1095	2
0.1779	1113	2
0.2009	1129	2
0.2156	1140	2
0.2448	1161	3
0.2645	1176	3

System: glycerol + ethanol + sodium chloride; phases: Liquid, Gas
Fixed: Pressure, kPa = 91.2
Property: Boiling temperature at pressure P, K (Liquid); method: Ebulliometric method (Recirculating still)
Solvent: Mass fraction of sodium chloride	Mass fraction of ethanol	Boiling temperature at pressure P, K	uncertainty
0.00041	0.7221	353.35	1.01
0.00041	0.4539	354.95	1
0.00041	0.3082	358.55	1.02
0.00041	0.2008	364.15	1.07
0.00041	0.1378	372.35	1.53
0.00041	0.1068	378.75	1.43
0.00041	0.0858	381.65	1.68
0.00041	0.0558	396.05	5.74
0.00041	0.0438	408.15	5.74
0.00041	0.0305	424.35	7.24
0	0.8328	351.05	1.01
0	0.7641	351.95	1.01
0	0.7229	352.75	1.01
0	0.6469	353.75	1.01
0	0.5442	354.55	1.01
0	0.4461	355.45	1
0	0.3675	357.65	1.02
0	0.262	360.85	1.05
0	0.1748	366.75	1.24
0	0.1058	378.55	1.42
0	0.0801	384.75	1
0	0.0413	406.95	6.34
0	0.036	417.55	5.56
0	0.0235	429.75	1
0	0.0207	435.85	1
0	0.0186	443.25	1

System: glycerol + ethanol + sodium chloride; phases: Liquid
Fixed: Pressure, kPa = 91.2
Fixed: Temperature, K = 303.15
Property: Mass density, kg/m3 (Liquid); method: Vibrating tube method
Solvent: Mass fraction of sodium chloride	Mass fraction of glycerol	Mass density, kg/m3	uncertainty
0	0	781	2
0	0.1529	835	2
0	0.2901	888	2
0	0.4124	939	2
0	0.5159	985	2
0	0.6211	1036	2
0	0.7096	1084	2
0	0.7971	1136	2
0	0.869	1174	3
0	0.9357	1215	3
0	1	1255	3
0.00041	0	788	2
0.00041	0.1456	838	2
0.00041	0.2893	892	2
0.00041	0.4029	939	2
0.00041	0.5125	988	2
0.00041	0.6139	1036	2
0.00041	0.6996	1081	2
0.00041	0.8026	1137	2
0.00041	0.8615	1170	3
0.00041	0.9333	1213	3
0.00041	1	1255	3

System: glycerol + sodium chloride + water; phases: Liquid, Gas
Fixed: Pressure, kPa = 91.2
Property: Boiling temperature at pressure P, K (Liquid); method: Ebulliometric method (Recirculating still)
Solvent: Mass fraction of sodium chloride	Mass fraction of water	Boiling temperature at pressure P, K	uncertainty
0.0989	0.8902	372.05	1.01
0.0989	0.7873	372.95	1.01
0.0989	0.7183	373.75	1.01
0.0989	0.588	375.35	1.01
0.0989	0.3643	379.85	1.04
0.0989	0.3237	381.85	1.05
0.0989	0.2626	385.05	1.07
0.0989	0.231	387.55	1.1
0.0989	0.2131	388.75	1.1
0.0989	0.1747	391.85	1.15
0.0989	0.1454	395.55	1.35
0.0989	0.1196	400.55	1.49
0.1557	0.8156	373.05	1.01
0.1557	0.7741	373.65	1.01
0.1557	0.7359	373.95	1.01
0.1557	0.6633	374.65	1.01
0.1557	0.6238	375.05	1.01
0.1557	0.5819	375.65	1.01
0.1557	0.5161	376.55	1.01
0.1557	0.4443	378.15	1.02
0.1557	0.3711	379.85	1.02
0.1557	0.3192	381.45	1.03
0.1557	0.2619	384.05	1.05
0.1557	0.2158	387.25	1.12
0.1557	0.1707	392.15	1.17
0.1557	0.1372	395.55	1.42
0.1557	0.0598	411.55	1.56
0.2223	0.7142	375.95	1.02
0.2223	0.7096	376.05	1.02
0.2223	0.6657	376.45	1.02
0.2223	0.6202	377.05	1.02
0.2223	0.5557	377.55	1.02
0.2223	0.3841	380.75	1.02
0.2223	0.3188	382.35	1.03
0.2223	0.2324	385.85	1.04
0.2223	0.1856	388.95	1.13
0.2223	0.1632	392.65	1.17
0.2223	0.0991	398.35	1.19
0.2223	0.0769	402.95	1.86
0.2223	0.0222	419.15	1.96

System: glycerol + sodium chloride + water; phases: Liquid
Fixed: Pressure, kPa = 91.2
Fixed: Temperature, K = 303.15
Property: Mass density, kg/m3 (Liquid); method: Vibrating tube method
Solvent: Mass fraction of sodium chloride	Mass fraction of glycerol	Mass density, kg/m3	uncertainty
0	0	996	2
0	0.1159	1022	2
0	0.2056	1044	2
0	0.3521	1080	2
0	0.4646	1108	2
0	0.5524	1133	2
0	1	1255	3
0.0345	0	1020	2
0.0345	0.1189	1046	2
0.0345	0.2463	1074	2
0.0345	0.3599	1101	2
0.0345	0.4541	1124	2
0.0345	0.5601	1149	2
0.0654	0	1042	2
0.0654	0.121	1066	2
0.0654	0.2263	1088	2
0.0654	0.3492	1114	2
0.0654	0.4516	1135	2
0.0654	0.5438	1155	3
0.0949	0	1063	2
0.0949	0.1187	1085	2
0.0949	0.2215	1104	2
0.0949	0.342	1127	2
0.0949	0.4431	1147	2
0.0949	0.546	1168	3
0.1232	0	1084	2
0.1232	0.2327	1123	2
0.1232	0.3319	1140	2
0.1232	0.4349	1158	3
0.1232	0.545	1178	3
0.1578	0	1110	2
0.1578	0.1116	1126	2
0.1578	0.2223	1142	3
0.1578	0.3262	1158	3
0.1578	0.4325	1174	3
0.1578	0.5179	1187	3
0.1578	0.626	1202	3
0.1578	0.7285	1217	3
0.1578	0.8187	1230	3
0.1578	0.9085	1243	3

System: glycerol + potassium chloride + water; phases: Liquid, Gas
Fixed: Pressure, kPa = 91.2
Property: Boiling temperature at pressure P, K (Liquid); method: Ebulliometric method (Recirculating still)
Solvent: Mass fraction of potassium chloride	Mass fraction of water	Boiling temperature at pressure P, K	uncertainty
0.1374	0.8407	371.85	1.02
0.1374	0.807	372.65	1.01
0.1374	0.7252	373.45	1.01
0.1374	0.6665	374.05	1.01
0.1374	0.5962	374.95	1.01
0.1374	0.5437	375.75	1.01
0.1374	0.4082	378.45	1.02
0.1374	0.2749	383.75	1.05
0.1374	0.1919	389.55	1.15
0.1374	0.1374	395.85	1.3
0.1374	0.1082	401.65	1.56
0.1374	0.0864	406.55	2.28
0.1374	0.071	415.05	3.06
0.1374	0.0553	421.75	3.24
0.1374	0.0353	433.45	3.65
0.1374	0.03	446.75	5.99
0.2185	0.7204	373.75	1.01
0.2185	0.6408	374.75	1.01
0.2185	0.568	375.85	1.01
0.2185	0.4756	377.25	1.01
0.2185	0.3392	380.35	1.02
0.2185	0.2573	383.35	1.04
0.2185	0.1832	387.45	1.08
0.2185	0.1638	389.55	1.26
0.2185	0.1234	395.35	1.23
0.2185	0.0927	398.05	1.43
0.2185	0.0607	405.85	2.59
0.2185	0.0543	408.35	2.59
0.2185	0.0264	420.25	5.09
0.2185	0.0259	420.55	5.07
0.2185	0.0041	451.95	6.39

System: glycerol + potassium chloride + water; phases: Liquid
Fixed: Pressure, kPa = 91.2
Fixed: Temperature, K = 303.15
Property: Mass density, kg/m3 (Liquid); method: Vibrating tube method
Solvent: Mass fraction of potassium chloride	Mass fraction of glycerol	Mass density, kg/m3	uncertainty
0	0	996	2
0	0.1159	1022	2
0	0.2056	1044	2
0	0.3521	1080	2
0	0.4646	1108	2
0	0.5524	1133	2
0	1	1255	3
0.053	0	1029	2
0.053	0.1233	1055	2
0.053	0.2352	1080	2
0.053	0.3436	1104	2
0.053	0.4463	1128	2
0.053	0.5439	1151	2
0.053	0.6462	1175	3
0.053	0.7461	1197	3
0.053	0.8271	1216	3
0.053	0.9182	1236	3
0.053	1	1255	3
0.2117	0	1137	2
0.2117	0.1097	1151	3
0.2117	0.2192	1164	3
0.2117	0.3176	1177	3
0.2117	0.4134	1189	3
0.2117	0.5288	1203	3
0.2117	0.6217	1214	3
0.2117	0.7269	1227	3
0.2117	0.8118	1236	3
0.2117	0.9033	1245	3
0.2117	1	1255	3

System: glycerol + water; phases: Liquid
Fixed: Pressure, kPa = 91.2
Fixed: Temperature, K = 303.15
Property: Mass density, kg/m3 (Liquid); method: Vibrating tube method
Mass fraction of glycerol	Mass density, kg/m3	uncertainty
0	996	2
0.1159	1022	2
0.2056	1044	2
0.3521	1080	2
0.4646	1108	2
0.5524	1133	2
1	1255	3

System: ethanol + sodium chloride; phases: Liquid
Fixed: Pressure, kPa = 91.2
Fixed: Temperature, K = 303.15
Property: Mass density, kg/m3 (Liquid); method: Vibrating tube method
Mass fraction of sodium chloride	Mass density, kg/m3	uncertainty
0.00041	788	2
0	781	2
