Measured thermophysical data. Study of the binary mixtures of {monoglyme + (hexane, cyclohexane, octane, dodecane)} by ECM-average and PFP models
Source: J. Chem. Thermodyn., 2015, 10.1016/j.jct.2015.05.006
Compound 1: 1,2-dimethoxyethane, C4H10O2, InChI=1S/C4H10O2/c1-5-3-4-6-2/h3-4H2,1-2H3, purity 99.5%
Compound 2: dodecane, C12H26, InChI=1S/C12H26/c1-3-5-7-9-11-12-10-8-6-4-2/h3-12H2,1-2H3, purity 99%
Compound 3: cyclohexane, C6H12, InChI=1S/C6H12/c1-2-4-6-5-3-1/h1-6H2, purity 99.5%
Compound 4: hexane, C6H14, InChI=1S/C6H14/c1-3-5-6-4-2/h3-6H2,1-2H3, purity 99.5%
Compound 5: octane, C8H18, InChI=1S/C8H18/c1-3-5-7-8-6-4-2/h3-8H2,1-2H3, purity 99.5%

System: 1,2-dimethoxyethane; phases: Liquid
Fixed: Pressure, kPa = 101.325
Property: Mass density, kg/m3 (Liquid); method: Vibrating tube method
Temperature, K	Mass density, kg/m3	uncertainty
288.15	872.06	1.01
298.15	861.17	1.01
308.15	850.13	1.01

System: 1,2-dimethoxyethane; phases: Liquid
Fixed: Pressure, kPa = 96.5
Fixed: Frequency, MHz = 1
Property: Relative permittivity at various frequencies (Liquid); method: Parallel plate capacitor
Temperature, K	Relative permittivity at various frequencies	uncertainty
288.15	7.41	0.07
298.15	7.07	0.07
308.15	6.75	0.07

System: dodecane; phases: Liquid
Fixed: Pressure, kPa = 101.325
Property: Mass density, kg/m3 (Liquid); method: Vibrating tube method
Temperature, K	Mass density, kg/m3	uncertainty
288.15	752.44	1.02
298.15	745.29	1.03
308.15	737.93	1.03

System: dodecane; phases: Liquid
Fixed: Pressure, kPa = 97
Fixed: Frequency, MHz = 1
Property: Relative permittivity at various frequencies (Liquid); method: Parallel plate capacitor
Temperature, K	Relative permittivity at various frequencies	uncertainty
288.15	2.04	0.02
298.15	2.02	0.02
308.15	2.01	0.02

System: cyclohexane; phases: Liquid
Fixed: Pressure, kPa = 101.325
Property: Mass density, kg/m3 (Liquid); method: Vibrating tube method
Temperature, K	Mass density, kg/m3	uncertainty
288.15	783.29	1.01
298.15	773.86	1.01
308.15	764.38	1.01

System: cyclohexane; phases: Liquid
Fixed: Pressure, kPa = 96.6
Fixed: Frequency, MHz = 1
Property: Relative permittivity at various frequencies (Liquid); method: Parallel plate capacitor
Temperature, K	Relative permittivity at various frequencies	uncertainty
288.15	2.04	0.02
298.15	2.03	0.02
308.15	2.02	0.02

System: hexane; phases: Liquid
Fixed: Pressure, kPa = 101.325
Property: Mass density, kg/m3 (Liquid); method: Vibrating tube method
Temperature, K	Mass density, kg/m3	uncertainty
288.15	664.13	1.02
298.15	655.14	1.02
308.15	646.1	1.02

System: hexane; phases: Liquid
Fixed: Pressure, kPa = 95.2
Fixed: Frequency, MHz = 1
Property: Relative permittivity at various frequencies (Liquid); method: Parallel plate capacitor
Temperature, K	Relative permittivity at various frequencies	uncertainty
288.15	1.91	0.02
298.15	1.89	0.02
308.15	1.88	0.02

System: octane; phases: Liquid
Fixed: Pressure, kPa = 101.325
Property: Mass density, kg/m3 (Liquid); method: Vibrating tube method
Temperature, K	Mass density, kg/m3	uncertainty
288.15	706.6	1.01
298.15	698.58	1.01
308.15	690.48	1.01

System: octane; phases: Liquid
Fixed: Pressure, kPa = 97.1
Fixed: Frequency, MHz = 1
Property: Relative permittivity at various frequencies (Liquid); method: Parallel plate capacitor
Temperature, K	Relative permittivity at various frequencies	uncertainty
288.15	1.97	0.02
298.15	1.96	0.02
308.15	1.94	0.02

System: hexane + 1,2-dimethoxyethane; phases: Liquid
Fixed: Pressure, kPa = 95.2
Property: Mass density, kg/m3 (Liquid); method: Vibrating tube method
Temperature, K	Mole fraction of hexane	Mass density, kg/m3	uncertainty
288.15	0.0501	857.87	1.01
288.15	0.1049	842.87	1.01
288.15	0.2999	794.19	1.01
288.15	0.4059	770.33	1.01
288.15	0.4961	751.31	1.01
288.15	0.6054	729.6	1.01
288.15	0.694	713.16	1.01
288.15	0.7916	696.41	1.01
288.15	0.9035	678.43	1.02
288.15	0.9533	670.87	1.02
298.15	0.0495	846.99	1.01
298.15	0.1011	833.13	1.01
298.15	0.2009	807.1	1.01
298.15	0.3031	782.87	1.01
298.15	0.4027	760.92	1.01
298.15	0.4977	740.86	1.01
298.15	0.5959	721.71	1.01
298.15	0.6972	703.06	1.01
298.15	0.8051	684.57	1.02
298.15	0.8985	670	1.02
308.15	0.0457	837.34	1.01
308.15	0.0927	824.63	1.01
308.15	0.2001	797.09	1.01
308.15	0.2984	773.76	1.01
308.15	0.3939	752.46	1.01
308.15	0.5082	728.75	1.01
308.15	0.5955	711.88	1.01
308.15	0.6927	694.24	1.01
308.15	0.8036	675.37	1.02
308.15	0.9023	660.16	1.02
308.15	0.9509	653.01	1.02
288.15	0	872.06	1.01
298.15	0	861.17	1.01
308.15	0	850.13	1.01
288.15	1	664.13	1.02
298.15	1	655.14	1.02
308.15	1	646.1	1.02

System: hexane + 1,2-dimethoxyethane; phases: Liquid
Fixed: Pressure, kPa = 95.2
Fixed: Frequency, MHz = 1
Property: Relative permittivity at various frequencies (Liquid); method: Parallel plate capacitor
Temperature, K	Mole fraction of hexane	Relative permittivity at various frequencies	uncertainty
288.15	0.0513	6.89	0.07
288.15	0.0904	6.46	0.06
288.15	0.1999	5.58	0.06
288.15	0.2992	4.85	0.05
288.15	0.4004	4.19	0.04
288.15	0.4983	3.65	0.04
288.15	0.6001	3.17	0.03
288.15	0.7004	2.77	0.03
288.15	0.8057	2.41	0.02
288.15	0.9022	2.14	0.02
288.15	0.9509	2.02	0.02
298.15	0.0459	6.61	0.07
298.15	0.0955	6.19	0.06
298.15	0.2013	5.36	0.05
298.15	0.2992	4.67	0.05
298.15	0.398	4.07	0.04
298.15	0.4984	3.53	0.04
298.15	0.6014	3.08	0.03
298.15	0.7019	2.7	0.03
298.15	0.8016	2.38	0.02
298.15	0.9031	2.11	0.02
298.15	0.9477	2.01	0.02
308.15	0.0494	6.3	0.06
308.15	0.0967	5.9	0.06
308.15	0.1938	5.18	0.05
308.15	0.3011	4.47	0.05
308.15	0.4025	3.91	0.04
308.15	0.4989	3.44	0.03
308.15	0.6018	3	0.03
308.15	0.699	2.66	0.03
308.15	0.7982	2.36	0.02
308.15	0.901	2.09	0.02
308.15	0.9506	1.99	0.02
288.15	0	7.41	0.07
298.15	0	7.07	0.07
308.15	0	6.75	0.07
288.15	1	1.91	0.02
298.15	1	1.89	0.02
308.15	1	1.88	0.02

System: 1,2-dimethoxyethane + cyclohexane; phases: Liquid
Fixed: Pressure, kPa = 96.6
Property: Mass density, kg/m3 (Liquid); method: Vibrating tube method
Temperature, K	Mole fraction of cyclohexane	Mass density, kg/m3	uncertainty
288.15	0.0497	865.63	1.01
288.15	0.1021	859.14	1.01
288.15	0.1974	847.96	1.01
288.15	0.3031	836.42	1.01
288.15	0.4026	826.35	1.01
288.15	0.4967	817.52	1.01
288.15	0.5998	808.62	1.01
288.15	0.6961	801.06	1.01
288.15	0.8006	793.78	1.01
288.15	0.9033	787.7	1.01
288.15	0.9514	785.33	1.01
298.15	0.0446	855.02	1.01
298.15	0.0978	848.89	1.01
298.15	0.1963	837.39	1.01
298.15	0.3038	825.79	1.01
298.15	0.4024	815.96	1.01
298.15	0.5013	806.83	1.01
298.15	0.6054	798.09	1.01
298.15	0.7018	790.78	1.01
298.15	0.8023	784.01	1.01
298.15	0.8965	778.59	1.01
298.15	0.9498	776	1.01
308.15	0.0454	844.13	1.01
308.15	0.0969	838.11	1.01
308.15	0.1954	826.9	1.01
308.15	0.2993	815.83	1.01
308.15	0.4037	805.56	1.01
308.15	0.5042	796.44	1.01
308.15	0.6072	787.93	1.01
308.15	0.6995	781.05	1.01
308.15	0.8004	774.34	1.01
308.15	0.904	768.62	1.01
308.15	0.9535	766.31	1.01
288.15	0	872.06	1.01
298.15	0	861.17	1.01
308.15	0	850.13	1.01
288.15	1	783.29	1.01
298.15	1	773.86	1.01
308.15	1	764.38	1.01

System: 1,2-dimethoxyethane + cyclohexane; phases: Liquid
Fixed: Pressure, kPa = 96.6
Fixed: Frequency, MHz = 1
Property: Relative permittivity at various frequencies (Liquid); method: Parallel plate capacitor
Temperature, K	Mole fraction of cyclohexane	Relative permittivity at various frequencies	uncertainty
288.15	0.0459	7.02	0.07
288.15	0.1034	6.56	0.07
288.15	0.2009	5.84	0.06
288.15	0.3013	5.17	0.05
288.15	0.4027	4.55	0.05
288.15	0.5031	3.99	0.04
288.15	0.5998	3.51	0.04
288.15	0.7015	3.06	0.03
288.15	0.7953	2.69	0.03
288.15	0.9017	2.33	0.02
288.15	0.9494	2.19	0.02
298.15	0.0475	6.7	0.07
298.15	0.098	6.31	0.06
298.15	0.2057	5.58	0.06
298.15	0.3034	4.96	0.05
298.15	0.3952	4.43	0.04
298.15	0.5077	3.84	0.04
298.15	0.6014	3.41	0.03
298.15	0.7093	2.96	0.03
298.15	0.7994	2.63	0.03
298.15	0.9016	2.3	0.02
298.15	0.952	2.16	0.02
308.15	0.0456	6.42	0.06
308.15	0.0976	6.05	0.06
308.15	0.1983	5.41	0.05
308.15	0.299	4.83	0.05
308.15	0.3959	4.29	0.04
308.15	0.4993	3.77	0.04
308.15	0.6002	3.32	0.03
308.15	0.7005	2.93	0.03
308.15	0.8012	2.58	0.03
308.15	0.902	2.27	0.02
308.15	0.9514	2.14	0.02
288.15	0	7.41	0.07
298.15	0	7.07	0.07
308.15	0	6.75	0.07
288.15	1	2.04	0.02
298.15	1	2.03	0.02
308.15	1	2.02	0.02

System: 1,2-dimethoxyethane + octane; phases: Liquid
Fixed: Pressure, kPa = 97.1
Property: Mass density, kg/m3 (Liquid); method: Vibrating tube method
Temperature, K	Mole fraction of octane	Mass density, kg/m3	uncertainty
288.15	0.0493	857.73	1.01
288.15	0.1011	843.79	1.01
288.15	0.2032	819.39	1.01
288.15	0.3036	798.48	1.01
288.15	0.4019	780.49	1.01
288.15	0.4992	764.69	1.01
288.15	0.6046	749.52	1.01
288.15	0.707	736.47	1.01
288.15	0.8044	725.4	1.01
288.15	0.9082	714.88	1.01
288.15	0.9495	711.04	1.01
298.15	0.0493	847.03	1.01
298.15	0.1011	833.26	1.01
298.15	0.2032	809.21	1.01
298.15	0.3036	788.62	1.01
298.15	0.4019	770.94	1.01
298.15	0.4992	755.41	1.01
298.15	0.6046	740.56	1.01
298.15	0.707	727.79	1.01
298.15	0.8044	716.95	1.01
298.15	0.9082	706.67	1.01
298.15	0.9495	702.91	1.01
308.15	0.0493	836.17	1.01
308.15	0.1011	822.58	1.01
308.15	0.2032	798.9	1.01
308.15	0.3036	778.63	1.01
308.15	0.4019	761.25	1.01
308.15	0.4992	746.01	1.01
308.15	0.6046	731.48	1.01
308.15	0.707	718.98	1.01
308.15	0.8044	708.4	1.01
308.15	0.9082	698.35	1.01
308.15	0.9495	694.71	1.01
288.15	0	872.06	1.01
298.15	0	861.17	1.01
308.15	0	850.13	1.01
288.15	1	706.6	1.01
298.15	1	698.58	1.01
308.15	1	690.48	1.01

System: 1,2-dimethoxyethane + octane; phases: Liquid
Fixed: Pressure, kPa = 97.1
Fixed: Frequency, MHz = 1
Property: Relative permittivity at various frequencies (Liquid); method: Parallel plate capacitor
Temperature, K	Mole fraction of octane	Relative permittivity at various frequencies	uncertainty
288.15	0.0502	6.79	0.07
288.15	0.1035	6.21	0.06
288.15	0.2005	5.31	0.05
288.15	0.3015	4.54	0.05
288.15	0.4024	3.92	0.04
288.15	0.4964	3.45	0.03
288.15	0.6022	3.01	0.03
288.15	0.7031	2.67	0.03
288.15	0.8035	2.38	0.02
288.15	0.9038	2.15	0.02
288.15	0.9511	2.06	0.02
298.15	0.0487	6.5	0.07
298.15	0.1004	5.97	0.06
298.15	0.204	5.07	0.05
298.15	0.3008	4.39	0.04
298.15	0.4064	3.78	0.04
298.15	0.5043	3.32	0.03
298.15	0.6046	2.93	0.03
298.15	0.7038	2.62	0.03
298.15	0.8039	2.35	0.02
298.15	0.9008	2.14	0.02
298.15	0.9516	2.04	0.02
308.15	0.0513	6.2	0.06
308.15	0.1017	5.71	0.06
308.15	0.203	4.88	0.05
308.15	0.3025	4.23	0.04
308.15	0.4021	3.69	0.04
308.15	0.5006	3.25	0.03
308.15	0.6029	2.87	0.03
308.15	0.7028	2.57	0.03
308.15	0.802	2.32	0.02
308.15	0.9027	2.11	0.02
308.15	0.9493	2.03	0.02
288.15	0	7.41	0.07
298.15	0	7.07	0.07
308.15	0	6.75	0.07
288.15	1	1.97	0.02
298.15	1	1.96	0.02
308.15	1	1.94	0.02

System: 1,2-dimethoxyethane + dodecane; phases: Liquid
Fixed: Pressure, kPa = 97
Property: Mass density, kg/m3 (Liquid); method: Vibrating tube method
Temperature, K	Mole fraction of dodecane	Mass density, kg/m3	uncertainty
288.15	0.0501	856.95	1.01
288.15	0.101	843.87	1.01
288.15	0.2009	823.2	1.01
288.15	0.3011	807.11	1.01
288.15	0.4022	794.1	1.01
288.15	0.5014	783.69	1.02
288.15	0.6019	774.99	1.02
288.15	0.7001	767.94	1.02
288.15	0.8049	761.62	1.02
288.15	0.9011	756.69	1.02
288.15	0.9514	754.42	1.02
298.15	0.0499	846.45	1.01
298.15	0.1013	833.6	1.01
298.15	0.2016	813.45	1.01
298.15	0.3019	797.83	1.01
298.15	0.4015	785.4	1.01
298.15	0.5059	774.85	1.02
298.15	0.6021	766.88	1.02
298.15	0.7021	760.01	1.02
298.15	0.8048	754.06	1.02
298.15	0.9025	749.21	1.02
298.15	0.9491	747.21	1.02
308.15	0.0495	835.93	1.01
308.15	0.0982	824.01	1.01
308.15	0.2021	803.62	1.01
308.15	0.2982	789.08	1.01
308.15	0.4018	776.58	1.01
308.15	0.5024	766.76	1.02
308.15	0.6046	758.6	1.02
308.15	0.6951	752.57	1.02
308.15	0.8031	746.52	1.02
308.15	0.899	741.95	1.02
308.15	0.9502	739.81	1.02
288.15	0	872.06	1.01
298.15	0	861.17	1.01
308.15	0	850.13	1.01
288.15	1	752.44	1.02
298.15	1	745.29	1.02
308.15	1	737.93	1.02

System: 1,2-dimethoxyethane + dodecane; phases: Liquid
Fixed: Pressure, kPa = 97
Fixed: Frequency, MHz = 1
Property: Relative permittivity at various frequencies (Liquid); method: Parallel plate capacitor
Temperature, K	Mole fraction of dodecane	Relative permittivity at various frequencies	uncertainty
288.15	0.05	6.6	0.07
288.15	0.1013	5.92	0.06
288.15	0.2007	4.89	0.05
288.15	0.3016	4.13	0.04
288.15	0.402	3.57	0.04
288.15	0.5015	3.15	0.03
288.15	0.6016	2.81	0.03
288.15	0.6998	2.53	0.03
288.15	0.8051	2.33	0.02
288.15	0.9019	2.16	0.02
288.15	0.9515	2.1	0.02
298.15	0.05	6.31	0.06
298.15	0.102	5.66	0.06
298.15	0.2014	4.71	0.05
298.15	0.3016	4	0.04
298.15	0.4011	3.48	0.04
298.15	0.5061	3.06	0.03
298.15	0.6047	2.75	0.03
298.15	0.7033	2.51	0.03
298.15	0.8055	2.31	0.02
298.15	0.9024	2.15	0.02
298.15	0.9498	2.09	0.02
308.15	0.05	6.04	0.06
308.15	0.1018	5.44	0.05
308.15	0.2026	4.53	0.05
308.15	0.3027	3.87	0.04
308.15	0.4043	3.38	0.03
308.15	0.505	3	0.03
308.15	0.6068	2.7	0.03
308.15	0.7013	2.48	0.03
308.15	0.806	2.28	0.02
308.15	0.8975	2.14	0.02
308.15	0.9512	2.07	0.02
288.15	0	7.41	0.07
298.15	0	7.07	0.07
308.15	0	6.75	0.07
288.15	1	2.04	0.02
298.15	1	2.02	0.02
308.15	1	2.01	0.02
