Measured thermophysical data. pVTx properties of binary R1234ze(E)/R600a system
Source: J. Chem. Thermodyn., 2017, 10.1016/j.jct.2017.03.032
Compound 1: trans-1,3,3,3-tetrafluoropropene, C3H2F4, InChI=1S/C3H2F4/c4-2-1-3(5,6)7/h1-2H/b2-1+, purity 99.99%
Compound 2: 2-methylpropane, C4H10, InChI=1S/C4H10/c1-4(2)3/h4H,1-3H3, purity 99.9%

System: trans-1,3,3,3-tetrafluoropropene; phases: Liquid, Gas
Property: Vapor or sublimation pressure, kPa (Liquid); method: Closed cell (Static) method
Temperature, K	Vapor or sublimation pressure, kPa	uncertainty
330.126	1178.1	20.1
325.174	1043.5	20.1
320.098	916.6	20
315.179	805	20
310.34	706.3	20
305.15	609.7	20
300.155	526.7	20
295.114	452.1	20
290.118	386	20
285.177	328.2	20
280.15	276.5	20

System: 2-methylpropane + trans-1,3,3,3-tetrafluoropropene; phases: Gas
Property: Mass density, kg/m3 (Gas); method: Burnett expansion method
Temperature, K	Pressure, kPa	Mass fraction of trans-1,3,3,3-tetrafluoropropene	Mass density, kg/m3	uncertainty
330.239	702.3	0.65	25.6134	0.8609
330.246	548.5	0.65	19.3004	0.8407
330.24	431.5	0.65	14.544	0.7807
330.238	330.6	0.65	10.9596	0.7114
330.233	252.5	0.65	8.2587	0.6894
330.233	192.1	0.65	6.2233	0.6698
330.228	145.4	0.65	4.6896	0.6586
325.134	619.9	0.65	22.7108	0.859
325.134	484.7	0.65	17.1136	0.8286
325.134	377.5	0.65	12.8959	0.7684
325.134	289.1	0.65	9.7176	0.7175
325.134	220.6	0.65	7.3227	0.6972
325.134	167.9	0.65	5.518	0.6872
320.154	569.2	0.65	20.7395	0.8419
320.152	441.3	0.65	15.6283	0.8018
320.152	340.3	0.65	11.7766	0.7631
320.157	262	0.65	8.8741	0.7305
320.158	199.9	0.65	6.687	0.7012
320.158	152	0.65	5.039	0.6871
315.143	497.8	0.65	18.2238	0.8245
315.143	386	0.65	13.7325	0.8
315.143	297.2	0.65	10.348	0.7573
315.144	227.3	0.65	7.7977	0.7282
315.146	173.5	0.65	5.8759	0.7116
310.13	556	0.65	21.1744	0.8978
310.13	436.3	0.65	15.9559	0.852
310.13	337.1	0.65	12.0235	0.7847
310.143	258.2	0.65	9.0598	0.7468
310.138	196.8	0.65	6.8271	0.7259
310.15	149.8	0.65	5.1443	0.7179
305.2	465.9	0.65	17.6129	0.8527
305.2	361.8	0.65	13.2721	0.8255
305.204	278.3	0.65	10.001	0.7784
305.2	212.9	0.65	7.5363	0.7501
305.2	162.4	0.65	5.6789	0.7329
300.188	408.2	0.65	15.4884	0.8383
300.189	315.5	0.65	11.6712	0.8157
300.187	242.2	0.65	8.7948	0.7798
300.188	185.2	0.65	6.6273	0.7553
300.193	141.1	0.65	4.9939	0.7424
295.183	336.3	0.65	12.7921	0.8228
295.184	258.7	0.65	9.6394	0.8079
295.181	198.3	0.65	7.2638	0.7805
295.185	151.4	0.65	5.4735	0.7602
290.18	299.2	0.65	11.4985	0.8261
290.18	229.9	0.65	8.6646	0.812
290.181	176	0.65	6.5292	0.7951
285.085	254.6	0.65	9.9134	0.8329
285.083	195.5	0.65	7.4702	0.8193
285.081	149.5	0.65	5.6292	0.8025
280.178	215.5	0.65	8.4982	0.8388
280.178	165.3	0.65	6.4038	0.8369
330.197	717.8	0.7	27.2782	0.901
330.2	559.7	0.7	20.5552	0.8759
330.204	440.7	0.7	15.4891	0.8185
330.211	338.1	0.7	11.6715	0.744
330.22	258.3	0.7	8.7948	0.7194
330.236	196.7	0.7	6.6269	0.702
330.234	149.5	0.7	4.9937	0.6894
325.11	617.3	0.7	23.2823	0.8965
325.11	483.2	0.7	17.5443	0.8452
325.11	373.4	0.7	13.2204	0.7844
325.113	286.7	0.7	9.9621	0.7451
325.113	218.6	0.7	7.5069	0.7195
325.114	166.4	0.7	5.6568	0.7064
320.154	556	0.7	21.0901	0.8852
320.149	435.2	0.7	15.8926	0.8433
320.155	335.6	0.7	11.9756	0.7801
320.154	256.8	0.7	9.0242	0.7464
320.153	195.8	0.7	6.8002	0.7258
320.151	148.8	0.7	5.1243	0.7118
315.152	497.7	0.7	19.0258	0.8725
315.153	390.1	0.7	14.3368	0.8436
315.153	299.1	0.7	10.8034	0.7777
315.153	229.1	0.7	8.1409	0.7505
315.155	173.8	0.7	6.1345	0.7306
310.088	569.4	0.7	22.5217	0.9451
310.105	446.6	0.7	16.9702	0.885
310.096	344.7	0.7	12.7882	0.8167
310.116	264.5	0.7	9.6359	0.7806
310.101	201.9	0.7	7.2614	0.7535
310.087	153.4	0.7	5.4721	0.7372
305.186	487	0.7	19.1285	0.9193
305.183	377.9	0.7	14.4143	0.8568
305.183	290.8	0.7	10.8618	0.8113
305.185	222.7	0.7	8.1848	0.7813
305.183	169.9	0.7	6.1677	0.7588
300.21	415.8	0.7	16.3872	0.8755
300.211	321.3	0.7	12.3484	0.8484
300.211	246.8	0.7	9.3051	0.811
300.21	188.7	0.7	7.0118	0.785
300.21	143.9	0.7	5.2837	0.7699
295.2	356.2	0.7	14.1209	0.8716
295.2	274.6	0.7	10.6407	0.8446
295.202	210.4	0.7	8.0182	0.8123
295.201	160.8	0.7	6.0421	0.7914
290.166	304.8	0.7	12.1924	0.8664
290.164	234.4	0.7	9.1876	0.8466
290.18	179.5	0.7	6.9229	0.8219
285.092	258.7	0.7	10.4543	0.8718
285.088	198.7	0.7	7.8779	0.8503
285.09	151.9	0.7	5.9363	0.8248
280.174	218.3	0.7	8.9087	0.8813
280.17	167.4	0.7	6.7132	0.8654
330.115	945.5	0.75	39.4741	1.0724
330.116	750	0.75	29.7454	1.0021
330.116	588.2	0.75	22.4145	0.9079
330.116	457.3	0.75	16.8904	0.849
330.123	354.5	0.75	12.7274	0.7951
330.117	271	0.75	9.5908	0.7452
330.117	205.5	0.75	7.2271	0.7298
330.115	156.9	0.75	5.446	0.7292
325.098	786.7	0.75	32.2887	1.0177
325.103	621.5	0.75	24.3306	0.9677
325.102	488	0.75	18.3343	0.8739
325.1	374.7	0.75	13.8158	0.805
325.1	287.7	0.75	10.4108	0.7773
325.101	219.4	0.75	7.845	0.7502
325.108	167.1	0.75	5.9115	0.739
320.16	730.8	0.75	30.2287	1.0185
320.163	577.4	0.75	22.7785	0.9655
320.165	451.9	0.75	17.1645	0.8716
320.164	347.7	0.75	12.9343	0.8096
320.164	266.1	0.75	9.7466	0.7788
320.166	203	0.75	7.3444	0.7552
320.164	154	0.75	5.5344	0.7377
315.14	642.7	0.75	26.4588	0.9961
315.14	506.8	0.75	19.9379	0.9373
315.14	392.5	0.75	15.0241	0.8535
315.141	301.4	0.75	11.3213	0.8098
315.146	230.4	0.75	8.531	0.783
315.148	175.6	0.75	6.4285	0.7663
310.103	583	0.75	24.1187	0.9933
310.103	459.6	0.75	18.1746	0.9325
310.101	354.2	0.75	13.6955	0.8483
310.104	271.8	0.75	10.3201	0.8145
310.108	207.6	0.75	7.7765	0.7887
310.105	158.1	0.75	5.86	0.7706
305.19	401.5	0.75	15.9791	0.8863
305.198	309.5	0.75	12.0406	0.85
305.188	237.2	0.75	9.0735	0.8159
305.188	181.1	0.75	6.8373	0.7929
300.189	425.4	0.75	17.4445	0.9298
300.19	328.9	0.75	13.1452	0.8851
300.191	252.7	0.75	9.9055	0.8446
300.189	193.2	0.75	7.4643	0.8174
300.186	147.4	0.75	5.6247	0.8004
295.211	366.4	0.75	15.1241	0.9093
295.213	282.6	0.75	11.3966	0.8817
295.211	216.7	0.75	8.5879	0.8462
295.215	165.5	0.75	6.4713	0.8256
290.165	311.8	0.75	12.9866	0.9044
290.162	239.9	0.75	9.7861	0.8827
290.163	183.7	0.75	7.3743	0.853
290.162	140.3	0.75	5.5569	0.8368
285.058	266.4	0.75	11.209	0.8568
330.232	951.7	0.8	41.2719	1.1263
330.232	754.4	0.8	31.1003	1.0381
330.239	590.5	0.8	23.435	0.9543
330.232	463.4	0.8	17.6597	0.8774
330.232	354.3	0.8	13.3074	0.8093
330.233	272.1	0.8	10.0277	0.7897
330.238	207.3	0.8	7.5562	0.7616
330.239	157.7	0.8	5.6939	0.7488
325.168	846.3	0.8	36.6175	1.0836
325.168	669	0.8	27.593	1.0292
325.168	526.5	0.8	20.7926	0.9356
325.169	407	0.8	15.6681	0.8539
325.169	312.1	0.8	11.8066	0.8124
325.171	238.4	0.8	8.8968	0.7864
325.177	181.5	0.8	6.704	0.768
320.123	779.8	0.8	33.8752	1.0799
320.131	616.7	0.8	25.5259	1.0219
320.134	483.3	0.8	19.2347	0.9304
320.134	373.2	0.8	14.4942	0.854
320.135	286	0.8	10.922	0.8147
320.14	218.3	0.8	8.2301	0.7861
320.138	165.2	0.8	6.2018	0.7665
315.156	529.7	0.8	21.8918	0.9579
315.161	412.2	0.8	16.4962	0.9093
315.163	317.7	0.8	12.4305	0.8536
315.165	243	0.8	9.3669	0.8177
315.164	185.3	0.8	7.0584	0.7921
310.104	583.3	0.8	25.0653	1.0368
310.1	458.2	0.8	18.8881	0.9673
310.101	354.6	0.8	14.233	0.8884
310.096	272	0.8	10.7254	0.8461
310.096	207.9	0.8	8.082	0.8137
310.097	157.4	0.8	6.0902	0.791
305.171	410.9	0.8	17.0511	0.9241
305.171	316.9	0.8	12.8488	0.8881
305.171	243	0.8	9.6822	0.8512
305.171	185.5	0.8	7.2959	0.8213
300.145	337.5	0.8	14.0697	0.9108
300.142	259.5	0.8	10.6023	0.8834
300.143	198.5	0.8	7.9893	0.8528
300.157	151.4	0.8	6.02	0.8308
295.216	374	0.8	16.0973	0.9453
295.218	288.6	0.8	12.13	0.9213
295.218	221.5	0.8	9.1405	0.8832
295.217	169.2	0.8	6.8878	0.8584
290.202	320.1	0.8	13.8847	0.9504
290.2	246.5	0.8	10.4628	0.9216
290.202	188.8	0.8	7.8842	0.89
285.057	272	0.8	11.904	0.9564
285.056	208.9	0.8	8.9702	0.9222
285.051	159.8	0.8	6.7596	0.9031
280.18	229.9	0.8	10.1496	0.9064
330.124	981.5	0.85	44.7652	1.1818
330.127	779.3	0.85	33.7323	1.1053
330.128	612.7	0.85	25.4187	0.9969
330.136	476.1	0.85	19.1537	0.9293
330.129	369.7	0.85	14.4335	0.87
330.132	282.7	0.85	10.876	0.815
330.129	215.1	0.85	8.1958	0.7945
330.127	163.7	0.85	6.1759	0.7855
325.101	844.6	0.85	38.0818	1.1319
325.101	668.2	0.85	28.6964	1.0676
325.101	523.6	0.85	21.624	0.9737
325.101	406.4	0.85	16.2947	0.8979
325.104	311.6	0.85	12.2787	0.8455
325.107	237.8	0.85	9.2525	0.8183
325.101	181	0.85	6.9723	0.8026
320.189	764.8	0.85	34.5619	1.1223
320.191	605	0.85	26.0438	1.0565
320.191	472.3	0.85	19.6252	0.9579
320.192	364.7	0.85	14.7884	0.8929
320.187	279.4	0.85	11.1439	0.8564
320.194	214.1	0.85	8.3973	0.827
320.193	162.2	0.85	6.3277	0.7967
315.146	539.7	0.85	23.5026	1.0064
315.149	422.3	0.85	17.7101	0.9694
315.153	325.7	0.85	13.3452	0.8966
315.153	249.3	0.85	10.0562	0.8563
315.153	190.1	0.85	7.5778	0.8408
310.134	607.5	0.85	27.5031	1.0976
310.138	479.8	0.85	20.7246	1.0372
310.134	372.9	0.85	15.6171	0.9341
310.144	285	0.85	11.7678	0.8737
310.138	216.8	0.85	8.8678	0.8588
310.133	166	0.85	6.6824	0.8556
305.179	536.7	0.85	24.3325	1.0636
305.179	420.8	0.85	18.3356	1.0155
305.179	325.5	0.85	13.8167	0.9378
305.18	249.6	0.85	10.4115	0.8863
305.178	189.6	0.85	7.8456	0.8656
305.179	145.2	0.85	5.912	0.873
300.158	448.5	0.85	20.2174	1.0208
300.158	348.9	0.85	15.2347	0.9857
300.157	268.4	0.85	11.4801	0.9267
300.157	205.4	0.85	8.6508	0.8911
300.157	156.6	0.85	6.5188	0.8752
295.204	384.1	0.85	17.2147	1.0018
295.202	296.4	0.85	12.9722	0.9592
295.204	227.4	0.85	9.7751	0.9195
295.201	173.7	0.85	7.366	0.8921
290.186	328.4	0.85	14.8972	0.9898
290.187	252.9	0.85	11.2256	0.965
290.189	193.9	0.85	8.459	0.9304
290.187	148.1	0.85	6.3743	0.9127
330.214	929.7	0.9	43.8273	1.1982
330.218	735.5	0.9	33.0255	1.1262
330.22	576.5	0.9	24.8861	1.042
330.223	452.8	0.9	18.7526	0.96
330.222	347.5	0.9	14.131	0.8779
330.222	265.5	0.9	10.6483	0.848
330.222	202.2	0.9	8.024	0.8276
330.22	153.7	0.9	6.0465	0.8178
325.18	703.2	0.9	31.8661	1.0725
325.181	549.6	0.9	24.0125	1.039
325.182	430.4	0.9	18.0945	0.964
325.18	330.4	0.9	13.6351	0.8897
325.18	252.4	0.9	10.2747	0.8598
325.181	192.3	0.9	7.7424	0.848
320.138	621.3	0.9	28.2744	1.1076
320.138	491	0.9	21.3061	1.0324
320.138	378.8	0.9	16.0551	0.9331
320.138	290.4	0.9	12.0982	0.8924
320.137	221.7	0.9	9.1166	0.8653
320.138	168.8	0.9	6.8698	0.8523
315.165	551.9	0.9	25.0657	1.0667
315.165	432.8	0.9	18.8881	1.0113
315.164	333.2	0.9	14.2331	0.9313
315.165	255.2	0.9	10.7253	0.8948
315.166	194.6	0.9	8.0819	0.8698
315.168	148.1	0.9	6.0901	0.8594
310.125	493.5	0.9	22.3926	1.0268
310.13	383.7	0.9	16.8736	0.9919
310.129	294.9	0.9	12.7151	0.9321
310.126	225.6	0.9	9.5815	0.8999
310.128	172	0.9	7.22	0.8842
305.21	557	0.9	26.2379	1.0867
305.21	434.3	0.9	19.7715	1.0442
305.21	335.6	0.9	14.8987	0.9795
305.21	257.6	0.9	11.2269	0.936
305.21	196.9	0.9	8.4599	0.9064
305.21	150	0.9	6.375	0.8914
300.174	466.4	0.9	21.9125	1.056
300.183	361.8	0.9	16.5116	1.0242
300.179	278.5	0.9	12.4424	0.9708
300.179	213.3	0.9	9.3759	0.9353
300.18	162.8	0.9	7.0652	0.9128
295.18	399.6	0.9	18.8389	1.0404
295.183	308.8	0.9	14.1958	1.0143
295.193	237.2	0.9	10.6968	0.9706
295.183	181.5	0.9	8.0608	0.939
295.183	138.3	0.9	6.0742	0.9218
290.168	340.7	0.9	16.1673	1.0334
290.168	262.6	0.9	12.1828	1.0115
290.166	201.4	0.9	9.1804	0.9729
290.169	153.8	0.9	6.9178	0.9532
285.064	290	0.9	13.8805	0.978
