Measured thermophysical data. (Vapour + liquid) equilibria of the {carbon dioxide + pentafluoroethane (HFC-125)} system and the {carbon dioxide + dodecafluoro-2-methylpentan-3-one (NOVECe1230)} system
Source: J. Chem. Thermodyn., 2007, 10.1016/j.jct.2006.09.010
Compound 1: carbon dioxide, CO2, InChI=1S/CO2/c2-1-3, purity 99.99%
Compound 2: pentafluoroethane, C2HF5, InChI=1S/C2HF5/c3-1(4)2(5,6)7/h1H, purity 99.8%
Compound 3: dodecafluoro-2-methylpentan-3-one, C6F12O, InChI=1S/C6F12O/c7-2(4(10,11)12,5(13,14)15)1(19)3(8,9)6(16,17)18, purity 99%

System: pentafluoroethane; phases: Liquid, Gas
Property: Vapor or sublimation pressure, kPa (Liquid); method: CCELL:UFactor:6
Temperature, K	Vapor or sublimation pressure, kPa	uncertainty
313.15	2008	38
323.15	2535	48
333.15	3171	59

System: carbon dioxide + pentafluoroethane; phases: Liquid, Gas
Property: Vapor or sublimation pressure, kPa (Liquid); method: CCELL:UFactor:6
Mole fraction of carbon dioxide	Temperature, K	Vapor or sublimation pressure, kPa	uncertainty
0	313.15	2008	38
0	323.15	2535	48
0	333.15	3171	59
0.0518	323.15	2851	53
0.0546	333.15	3547	66
0.0871	333.15	3757	70
0.1047	323.15	3135	59
0.1427	333.15	4082	76
0.1736	333.15	4252	79
0.1781	323.15	3560	67
0.1821	333.15	4314	81
0.214	313.15	3083	58
0.2155	333.15	4470	84
0.3128	313.15	3617	68
0.3285	323.15	4472	84
0.4295	313.15	4297	80
0.4421	323.15	5231	98
0.5131	323.15	5604	105
0.549	313.15	5043	94
0.6132	313.15	5466	102
0.7152	313.15	6220	116
0.7481	313.15	6458	120

System: carbon dioxide + pentafluoroethane; phases: Gas, Liquid
Property: Mole fraction of carbon dioxide (Gas); method: CHROM:UFactor:4
Mole fraction of carbon dioxide	Temperature, K	Mole fraction of carbon dioxide	uncertainty
0	313.15	0	0.0001
0	323.15	0	0.0001
0	333.15	0	0.0001
0.0518	323.15	0.1014	0.0049
0.0546	333.15	0.088	0.0042
0.0871	333.15	0.1315	0.0063
0.1047	323.15	0.1829	0.0088
0.1427	333.15	0.1899	0.0091
0.1736	333.15	0.2136	0.0103
0.1781	323.15	0.2773	0.0133
0.1821	333.15	0.2173	0.0104
0.214	313.15	0.3614	0.0174
0.2155	333.15	0.2263	0.0109
0.3128	313.15	0.4716	0.0226
0.3285	323.15	0.4304	0.0207
0.4295	313.15	0.5785	0.0202
0.4421	323.15	0.5174	0.0232
0.5131	323.15	0.5386	0.0222
0.549	313.15	0.6661	0.0161
0.6132	313.15	0.708	0.0141
0.7152	313.15	0.7697	0.0111
0.7481	313.15	0.7816	0.0106

System: carbon dioxide + dodecafluoro-2-methylpentan-3-one; phases: Liquid, Gas
Property: Vapor or sublimation pressure, kPa (Liquid); method: CCELL:UFactor:6
Mole fraction of carbon dioxide	Temperature, K	Vapor or sublimation pressure, kPa	uncertainty
0.2229	333.15	1710	32
0.2359	313.15	1603	30
0.2535	343.15	2175	41
0.2605	323.15	1772	33
0.4777	333.15	3852	72
0.4801	343.15	4320	81
0.4807	323.15	3486	65
0.5265	313.15	3421	64
0.5937	323.15	4515	84
0.6058	333.15	5198	97
0.6363	313.15	4312	80
0.658	343.15	6422	120
0.7017	323.15	5608	105
0.7233	313.15	5104	95
0.7405	333.15	6820	127
0.7515	343.15	7658	143
0.7811	323.15	6476	121
0.8045	343.15	8360	156
0.8218	333.15	7898	147
0.8399	323.15	7275	136
0.8504	313.15	6401	119
0.853	343.15	8718	162
0.8718	333.15	8494	158
0.8917	323.15	8023	150
0.9148	313.15	7200	134
0.9484	313.15	7765	145

System: carbon dioxide + dodecafluoro-2-methylpentan-3-one; phases: Gas, Liquid
Property: Mole fraction of carbon dioxide (Gas); method: CHROM:UFactor:4
Mole fraction of carbon dioxide	Temperature, K	Mole fraction of carbon dioxide	uncertainty
0.2229	333.15	0.8894	0.0053
0.2359	313.15	0.9361	0.0031
0.2535	343.15	0.8724	0.0061
0.2605	323.15	0.9217	0.0038
0.4777	333.15	0.9392	0.0029
0.4801	343.15	0.9215	0.0038
0.4807	323.15	0.9526	0.0023
0.5265	313.15	0.9658	0.0016
0.5937	323.15	0.9591	0.002
0.6058	333.15	0.9416	0.0028
0.6363	313.15	0.9706	0.0014
0.658	343.15	0.9304	0.0033
0.7017	323.15	0.9621	0.0018
0.7233	313.15	0.9735	0.0013
0.7405	333.15	0.9477	0.0025
0.7515	343.15	0.9259	0.0036
0.7811	323.15	0.9643	0.0017
0.8045	343.15	0.9151	0.0041
0.8218	333.15	0.9422	0.0028
0.8399	323.15	0.9636	0.0018
0.8504	313.15	0.9765	0.0011
0.853	343.15	0.8705	0.0063
0.8718	333.15	0.9245	0.0037
0.8917	323.15	0.9573	0.0021
0.9148	313.15	0.9778	0.0011
0.9484	313.15	0.9751	0.0012
