Measured thermophysical data. Crystal structure and thermochemical properties of a novel coordination compound sodium pyruvate C3H3O3Na(s)
Source: J. Chem. Thermodyn., 2014, 10.1016/j.jct.2014.06.029
Compound 1: sodium, Na, InChI=1S/Na
Compound 2: hydrogen, H2, InChI=1S/H2/h1H
Compound 3: graphite, C
Compound 4: oxygen, O2, InChI=1S/O2/c1-2
Compound 5: sodium pyruvate, C3H3NaO3, InChI=1S/C3H4O3.Na/c1-2(4)3(5)6;/h1H3,(H,5,6);/q;+1/p-1
Compound 6: water, H2O, InChI=1S/H2O/h1H2
Compound 7: 2-oxopropanoic acid, C3H4O3, InChI=1S/C3H4O3/c1-2(4)3(5)6/h1H3,(H,5,6), purity 99.5%

System: sodium pyruvate; phases: Crystal
Property: Mass density, kg/m3 (Crystal); method: X-ray diffraction
Temperature, K	Pressure, kPa	Mass density, kg/m3	uncertainty
298	101.325	1749	9

System: sodium pyruvate + water; phases: Liquid
Property: Molar enthalpy of solution, kJ/mol (Liquid); method: ISOPERIBOL
Molality, mol/kg of sodium pyruvate	Temperature, K	Pressure, kPa	Molar enthalpy of solution, kJ/mol	uncertainty
0.02	298.15	101.22	12.109	0.161

System: sodium pyruvate + water; phases: Liquid
Fixed: Temperature, K = 298.15
Fixed: Pressure, kPa = 101.22
Property: Molar enthalpy of solution, kJ/mol (Liquid); method: ISOPERIBOL
Molality, mol/kg of sodium pyruvate	Molar enthalpy of solution, kJ/mol	uncertainty
9.35e-05	19.16	6.22
0.0001215	17.54	5.09
0.0001473	15.82	3.08
0.0001738	14.84	2.41
0.0002256	14.14	2.03
0.0002729	13.53	1.35
0.000368	12.77	0.77
0.0004552	12.36	0.43
0.0005441	12.16	2.24
0.0006363	12.06	1.05
0.0007307	11.99	0.68
0.0008215	11.91	0.44
0.0009147	11.88	0.25
0.001095	11.83	0.16
0.001273	11.8	0.12
0.001459	11.78	0.12
0.001642	11.77	0.11
0.001818	11.77	0.11
0.002	11.78	0.11
0.002276	11.77	0.11
0.002726	11.78	0.11

System: sodium pyruvate + water; phases: Liquid
Property: Refractive index (Na D-line) (Liquid); method: Standard Abbe refractometry
Molality, mol/kg of sodium pyruvate	Pressure, kPa	Temperature, K	Refractive index (Na D-line)	uncertainty
0.02	101	293.15	1.3308	0.0007

System: 2-oxopropanoic acid + water; phases: Liquid
Property: Molar enthalpy of solution, kJ/mol (Liquid); method: ISOPERIBOL
Molality, mol/kg of 2-oxopropanoic acid	Temperature, K	Pressure, kPa	Molar enthalpy of solution, kJ/mol	uncertainty
0.02	298.15	101.22	-12.249	0.208

Reaction: 1 sodium pyruvate + -1 sodium + -1.5 hydrogen + -3 graphite + -1.5 oxygen
Property: Molar enthalpy of reaction, kJ/mol
-836.65
