Measured thermophysical data. Vapour pressure measurement of metal organic precursors used for MOVPE
Source: J. Chem. Thermodyn., 2006, 10.1016/j.jct.2005.05.018
Compound 1: triethylstibine, C6H15Sb, InChI=1S/3C2H5.Sb/c3*1-2;/h3*1H2,2H3;

System: triethylstibine; phases: Liquid, Gas
Property: Vapor or sublimation pressure, kPa (Liquid); method: Closed cell (Static) method
Temperature, K	Vapor or sublimation pressure, kPa	uncertainty
238.42	0.0037	0.00017
238.42	0.0037	0.00017
238.42	0.0037	0.00017
238.42	0.0037	0.00017
243.46	0.00611	0.00026
243.46	0.00611	0.00026
243.46	0.0061	0.00026
243.46	0.0061	0.00026
248.47	0.0099	0.0004
248.47	0.0099	0.0004
248.47	0.00991	0.0004
248.47	0.00989	0.0004
253.48	0.01569	0.00056
253.48	0.01569	0.00056
253.48	0.01569	0.00056
253.48	0.01569	0.00056
258.48	0.02451	0.0007
258.48	0.02448	0.0007
258.48	0.02449	0.0007
258.48	0.02448	0.0007
263.48	0.03735	0.00091
263.48	0.03734	0.00091
263.48	0.03733	0.00091
263.48	0.03733	0.00091
268.48	0.0557	0.00121
268.48	0.05561	0.00121
268.48	0.0556	0.00121
273.68	0.08269	0.00166
273.68	0.08268	0.00166
273.68	0.08265	0.00166
273.68	0.08263	0.00166
278.49	0.11807	0.00224
278.49	0.11808	0.00224
278.49	0.11801	0.00224
278.49	0.11799	0.00224
283.49	0.16755	0.00249
283.49	0.1676	0.00249
283.49	0.16759	0.00249
283.49	0.16759	0.00249
285.99	0.19953	0.0028
285.99	0.1995	0.0028
285.99	0.19949	0.0028
285.99	0.1995	0.0028
288.49	0.2362	0.00314
288.49	0.23618	0.00314
288.49	0.23627	0.00314
290.99	0.27905	0.00354
290.99	0.27905	0.00354
290.99	0.27902	0.00354
290.99	0.279	0.00354
293.49	0.32877	0.00401
293.49	0.32816	0.004
293.49	0.32818	0.004
293.49	0.32815	0.004
295.99	0.38493	0.00454
295.99	0.38496	0.00454
295.99	0.38492	0.00454
295.99	0.38494	0.00454
298.49	0.45048	0.00515
298.49	0.45038	0.00515
298.49	0.4503	0.00515
298.49	0.45031	0.00515
301	0.52459	0.00583
