Measured thermophysical data. (Vapor + liquid) equilibrium data for (carbon dioxide + 1,1-difluoroethane) system at temperatures from (258 to 343) K and pressures up to about 8 MPa
Source: J. Chem. Thermodyn., 2008, 10.1016/j.jct.2008.06.002
Compound 1: 1,1-difluoroethane, C2H4F2, InChI=1S/C2H4F2/c1-2(3)4/h2H,1H3
Compound 2: carbon dioxide, CO2, InChI=1S/CO2/c2-1-3

System: 1,1-difluoroethane; phases: Liquid, Gas
Property: Vapor or sublimation pressure, kPa (Liquid); method: CCELL:UFactor:24
Temperature, K	Vapor or sublimation pressure, kPa	uncertainty
253.68	115.2	4.5
258.44	142.2	5.5
258.44	144	5.5
263.39	174.9	6.7
268.32	213.7	8.1
273.23	256.8	9.7
278.19	308.1	11.7
278.25	311.7	11.8
283.31	368.5	13.9
288.27	432.9	16.3
293.23	506.8	19
298.17	590.3	22.2
298.84	604.4	22.7
303.37	687.6	25.8
308.31	791	29.6
308.37	812.5	30.4
313.19	904.5	33.8
318.25	1034.8	38.7
323.26	1175.4	43.9
323.3	1185.5	44.3
328.12	1326.8	49.6
333.31	1502.3	56.1
338.19	1683.5	62.8
343.1	1879.6	70.3
343.2	1891.7	70.7
348.26	2104.6	78.5

System: carbon dioxide; phases: Liquid, Gas
Property: Vapor or sublimation pressure, kPa (Liquid); method: CCELL:UFactor:12
Temperature, K	Vapor or sublimation pressure, kPa	uncertainty
258.44	2294	42.9
278.25	3977	74.1
298.84	6502.6	121.1

System: 1,1-difluoroethane + carbon dioxide; phases: Liquid, Gas
Property: Vapor or sublimation pressure, kPa (Liquid); method: CCELL:UFactor:16
Mole fraction of carbon dioxide	Temperature, K	Vapor or sublimation pressure, kPa	uncertainty
0	258.44	144	7.4
0	278.25	311.7	15.7
0	298.84	604.4	30.2
0	308.37	812.5	40.5
0	323.3	1185.5	59
0	343.2	1891.7	94.1
0.24	343.2	2604.8	147.8
0.2788	323.3	1686.8	95
0.2811	298.84	856.6	48.7
0.3157	308.37	1191.6	66.5
0.3915	343.2	3313.8	196.5
0.4515	323.3	2208.3	133.7
0.4847	343.2	3936.5	251.4
0.493	308.37	1573.8	95.6
0.5036	298.84	1200.6	71.7
0.5295	323.3	2554.5	164.5
0.5657	343.2	4695.8	316.9
0.6012	343.2	5220.2	420.1
0.6021	278.25	762.8	51.8
0.6097	308.37	1986.3	132.5
0.6264	258.44	392.6	32.3
0.6306	298.84	1565.7	111.9
0.6352	323.3	3222	220.3
0.6467	343.2	6029.8	664.3
0.664	343.2	6545.9	532.7
0.671	343.2	7411.7	1195.4
0.6794	343.2	7166.3	780.8
0.6909	323.3	3750	290
0.6937	308.37	2447.4	188.9
0.7411	278.25	1081.8	85.8
0.7417	323.3	4435	377
0.757	298.84	2224.1	174.9
0.7783	308.37	3203.9	264.5
0.7794	258.44	588.7	47.7
0.7808	323.3	5133.7	476.3
0.8206	323.3	6022.1	606.6
0.8209	278.25	1443.4	131.4
0.8239	308.37	3849.6	371.3
0.8291	298.84	2912.1	267
0.8482	323.3	6933.5	744.7
0.8522	323.3	7648.2	1097
0.8546	323.3	7361.4	868.4
0.8621	308.37	4517.8	472.8
0.8658	258.44	860.5	87.5
0.8673	298.84	3470.3	377.5
0.8724	278.25	1815.8	206.4
0.8922	308.37	5240.6	570.8
0.9063	298.84	4218.3	508
0.9105	258.44	1102.2	141
0.9179	308.37	5937.7	647.3
0.9217	278.25	2416.9	328.1
0.9313	298.84	4809.8	548.5
0.9378	258.44	1336.3	242.5
0.9387	308.37	6583.6	690.8
0.9423	278.25	2776.6	398
0.949	298.84	5269.1	583.8
0.9507	308.37	6982	724.9
0.9516	258.44	1506.8	255.8
0.9594	308.37	7200.5	695
0.9682	278.25	3300.2	455.3
0.969	258.44	1780.6	320.4
0.9741	298.84	5932.2	510.6
0.98	258.44	1964.6	339.5
0.9829	278.25	3619.3	487.8
1	258.44	2294	114
1	278.25	3977	197.5
1	298.84	6502.6	322.7

System: 1,1-difluoroethane + carbon dioxide; phases: Liquid, Gas
Property: Mole fraction of carbon dioxide (Liquid); method: Chromatography
Mole fraction of carbon dioxide	Temperature, K	Mole fraction of carbon dioxide	uncertainty
0	258.44	0	0.0001
0	278.25	0	0.0001
0	298.84	0	0.0001
0	308.37	0	0.0001
0	323.3	0	0.0001
0	343.2	0	0.0001
0.24	343.2	0.0826	0.0042
0.2788	323.3	0.0743	0.0033
0.2811	298.84	0.0539	0.0027
0.3157	308.37	0.0722	0.003
0.3915	343.2	0.1628	0.0062
0.4515	323.3	0.1497	0.0052
0.4847	343.2	0.231	0.0087
0.493	308.37	0.142	0.0049
0.5036	298.84	0.1285	0.0044
0.5295	323.3	0.1999	0.0078
0.5657	343.2	0.3117	0.0115
0.6012	343.2	0.3651	0.0173
0.6021	278.25	0.1424	0.0072
0.6097	308.37	0.2148	0.0077
0.6264	258.44	0.1241	0.0067
0.6306	298.84	0.2044	0.0085
0.6352	323.3	0.2908	0.0102
0.6467	343.2	0.4491	0.0212
0.664	343.2	0.5001	0.0355
0.671	343.2	0.5941	0.0598
0.6794	343.2	0.565	0.0423
0.6909	323.3	0.3615	0.0152
0.6937	308.37	0.295	0.0124
0.7411	278.25	0.2416	0.0094
0.7417	323.3	0.4516	0.0201
0.757	298.84	0.337	0.0132
0.7783	308.37	0.4194	0.0173
0.7794	258.44	0.2249	0.0096
0.7808	323.3	0.5398	0.0232
0.8206	323.3	0.632	0.0283
0.8209	278.25	0.3541	0.0169
0.8239	308.37	0.5197	0.0242
0.8291	298.84	0.4707	0.0214
0.8482	323.3	0.7319	0.0363
0.8522	323.3	0.8088	0.056
0.8546	323.3	0.776	0.0424
0.8621	308.37	0.6201	0.0294
0.8658	258.44	0.3586	0.0188
0.8673	298.84	0.5736	0.029
0.8724	278.25	0.4641	0.0276
0.8922	308.37	0.7176	0.0322
0.9063	298.84	0.6928	0.0334
0.9105	258.44	0.4748	0.0313
0.9179	308.37	0.7994	0.0339
0.9217	278.25	0.6298	0.0363
0.9313	298.84	0.7863	0.0379
0.9378	258.44	0.586	0.0446
0.9387	308.37	0.8755	0.0355
0.9423	278.25	0.7241	0.0479
0.949	298.84	0.8537	0.0344
0.9507	308.37	0.9152	0.0331
0.9516	258.44	0.6603	0.0623
0.9594	308.37	0.9355	0.029
0.9682	278.25	0.8516	0.0482
0.969	258.44	0.7793	0.0697
0.9741	298.84	0.9354	0.0274
0.98	258.44	0.8586	0.0711
0.9829	278.25	0.9245	0.0464
1	258.44	1	0.0001
1	278.25	1	0.0001
1	298.84	1	0.0001
