Measured thermophysical data. Extraction desulfurization process of fuels with ionic liquids
Source: J. Chem. Thermodyn., 2014, 10.1016/j.jct.2014.04.025
Compound 1: 1-butyl-1-methylpyrrolidinium trifluoromethanesulfonate, C10H20F3NO3S, InChI=1S/C9H20N.CHF3O3S/c1-3-4-7-10(2)8-5-6-9-10;2-1(3,4)8(5,6)7/h3-9H2,1-2H3;(H,5,6,7)/q+1;/p-1, purity 99%
Compound 2: 1-butyl-1-methylpyrrolidinium tricyanomethanide, C13H20N4, InChI=1S/C9H20N.C4N3/c1-3-4-7-10(2)8-5-6-9-10;5-1-4(2-6)3-7/h3-9H2,1-2H3;/q+1;-1, purity 98%
Compound 3: 1-hexyl-3-methylimidazolium tetracyanoborate, C14H19BN6, InChI=1S/C10H19N2.C4BN4/c1-3-4-5-6-7-12-9-8-11(2)10-12;6-1-5(2-7,3-8)4-9/h8-10H,3-7H2,1-2H3;/q+1;-1, purity 99%
Compound 4: thiophene, C4H4S, InChI=1S/C4H4S/c1-2-4-5-3-1/h1-4H, purity 99%
Compound 5: benzo[b]thiophene, C8H6S, InChI=1S/C8H6S/c1-2-4-8-7(3-1)5-6-9-8/h1-6H, purity 99.5%
Compound 6: heptane, C7H16, InChI=1S/C7H16/c1-3-5-7-6-4-2/h3-7H2,1-2H3, purity 99%
Compound 7: propan-1-ol, C3H8O, InChI=1S/C3H8O/c1-2-3-4/h4H,2-3H2,1H3, purity 99%
Compound 8: acetone, C3H6O, InChI=1S/C3H6O/c1-3(2)4/h1-2H3, purity 99.5%

System: 1-butyl-1-methylpyrrolidinium trifluoromethanesulfonate; phases: Liquid
Property: Mass density, kg/m3 (Liquid); method: Vibrating tube method
Temperature, K	Pressure, kPa	Mass density, kg/m3	uncertainty
298.15	101.325	1252.75	1.08

System: 1-butyl-1-methylpyrrolidinium tricyanomethanide; phases: Liquid
Property: Mass density, kg/m3 (Liquid); method: Vibrating tube method
Temperature, K	Pressure, kPa	Mass density, kg/m3	uncertainty
298.15	101.325	1006.91	1.27

System: 1-hexyl-3-methylimidazolium tetracyanoborate; phases: Liquid
Property: Mass density, kg/m3 (Liquid); method: Vibrating tube method
Temperature, K	Pressure, kPa	Mass density, kg/m3	uncertainty
308.15	101.325	983.03	1.02

System: thiophene; phases: Liquid
Property: Mass density, kg/m3 (Liquid); method: Vibrating tube method
Temperature, K	Pressure, kPa	Mass density, kg/m3	uncertainty
298.15	101.325	1058.92	1

System: benzo[b]thiophene; phases: Liquid
Fixed: Pressure, kPa = 101.325
Property: Mass density, kg/m3 (Liquid); method: Vibrating tube method
Temperature, K	Mass density, kg/m3	uncertainty
308.15	1150.81	1.01
318.15	1141.83	1.01
328.15	1132.85	1.01

System: heptane; phases: Liquid
Property: Mass density, kg/m3 (Liquid); method: Vibrating tube method
Temperature, K	Pressure, kPa	Mass density, kg/m3	uncertainty
298.15	101.325	679.54	1.01

System: propan-1-ol; phases: Liquid
Property: Mass density, kg/m3 (Liquid); method: Vibrating tube method
Temperature, K	Pressure, kPa	Mass density, kg/m3	uncertainty
298.15	101.325	799.52	1.01

System: acetone; phases: Liquid
Property: Mass density, kg/m3 (Liquid); method: Vibrating tube method
Temperature, K	Pressure, kPa	Mass density, kg/m3	uncertainty
298.15	101.325	785.32	1.01

System: thiophene + heptane + 1-butyl-1-methylpyrrolidinium trifluoromethanesulfonate; phases: Liquid mixture 1, Liquid mixture 2
Fixed: Temperature, K = 308.15
Fixed: Pressure, kPa = 101
Property: Mole fraction of 1-butyl-1-methylpyrrolidinium trifluoromethanesulfonate (Liquid mixture 1); method: Chromatography
Property: Mole fraction of 1-butyl-1-methylpyrrolidinium trifluoromethanesulfonate (Liquid mixture 2); method: Chromatography
Property: Mole fraction of thiophene (Liquid mixture 2); method: Chromatography
Mole fraction of thiophene	Mole fraction of 1-butyl-1-methylpyrrolidinium trifluoromethanesulfonate	uncertainty	Mole fraction of 1-butyl-1-methylpyrrolidinium trifluoromethanesulfonate	uncertainty	Mole fraction of thiophene	uncertainty
0	0		0.978	0.01	0	
0.264	0		0.601	0.014	0.376	
0.335	0		0.548	0.015	0.431	
0.481	0		0.446	0.015	0.531	
0.595	0		0.384	0.014	0.593	
0.666	0		0.348	0.014	0.628	
0.784	0		0.297	0.014	0.682	
0.836	0		0.274	0.013	0.706	
0.934	0		0.227	0.013	0.761	
1	0		0.182	0.013	0.818	
0.08	0		0.833	0.014	0.144	
0.169	0		0.704	0.014	0.273	

System: benzo[b]thiophene + heptane + 1-butyl-1-methylpyrrolidinium trifluoromethanesulfonate; phases: Liquid mixture 1, Liquid mixture 2
Fixed: Temperature, K = 308.15
Fixed: Pressure, kPa = 101
Property: Mole fraction of 1-butyl-1-methylpyrrolidinium trifluoromethanesulfonate (Liquid mixture 1); method: Chromatography
Property: Mole fraction of 1-butyl-1-methylpyrrolidinium trifluoromethanesulfonate (Liquid mixture 2); method: Chromatography
Property: Mole fraction of benzo[b]thiophene (Liquid mixture 2); method: Chromatography
Mole fraction of benzo[b]thiophene	Mole fraction of 1-butyl-1-methylpyrrolidinium trifluoromethanesulfonate	uncertainty	Mole fraction of 1-butyl-1-methylpyrrolidinium trifluoromethanesulfonate	uncertainty	Mole fraction of benzo[b]thiophene	uncertainty
0	0		0.978	0.01	0	
0.034	0		0.872	0.014	0.104	
0.077	0		0.768	0.014	0.206	
0.121	0		0.693	0.014	0.279	
0.206	0		0.558	0.015	0.412	
0.242	0		0.501	0.015	0.466	
0.355	0		0.421	0.015	0.543	
0.442	0		0.371	0.015	0.592	
0.605	0		0.311	0.015	0.648	
0.727	0		0.27	0.015	0.682	
0.826	0		0.218	0.014	0.733	
0.868	0		0.154	0.014	0.802	
0.927	0		0.067	0.014	0.886	

System: benzo[b]thiophene + heptane + 1-butyl-1-methylpyrrolidinium tricyanomethanide; phases: Liquid mixture 2, Liquid mixture 1
Fixed: Temperature, K = 308.15
Fixed: Pressure, kPa = 101
Property: Mole fraction of 1-butyl-1-methylpyrrolidinium tricyanomethanide (Liquid mixture 2); method: Chromatography
Property: Mole fraction of 1-butyl-1-methylpyrrolidinium tricyanomethanide (Liquid mixture 1); method: Chromatography
Property: Mole fraction of benzo[b]thiophene (Liquid mixture 1); method: Chromatography
Mole fraction of benzo[b]thiophene	Mole fraction of 1-butyl-1-methylpyrrolidinium tricyanomethanide	uncertainty	Mole fraction of 1-butyl-1-methylpyrrolidinium tricyanomethanide	uncertainty	Mole fraction of benzo[b]thiophene	uncertainty
0.822	0.143	0.014	0		0.884	
0.175	0.797	0.014	0		0.037	
0	0.974	0.01	0		0	
0.756	0.203	0.014	0		0.677	
0.736	0.225	0.015	0		0.612	
0.707	0.254	0.015	0		0.502	
0.67	0.295	0.015	0		0.381	
0.623	0.342	0.014	0		0.271	
0.544	0.423	0.015	0		0.199	
0.438	0.531	0.015	0		0.123	
0.334	0.636	0.014	0		0.078	

System: thiophene + heptane + 1-hexyl-3-methylimidazolium tetracyanoborate; phases: Liquid mixture 2, Liquid mixture 1
Fixed: Temperature, K = 308.15
Fixed: Pressure, kPa = 101
Property: Mole fraction of 1-hexyl-3-methylimidazolium tetracyanoborate (Liquid mixture 2); method: Chromatography
Property: Mole fraction of 1-hexyl-3-methylimidazolium tetracyanoborate (Liquid mixture 1); method: Chromatography
Property: Mole fraction of thiophene (Liquid mixture 1); method: Chromatography
Mole fraction of thiophene	Mole fraction of 1-hexyl-3-methylimidazolium tetracyanoborate	uncertainty	Mole fraction of 1-hexyl-3-methylimidazolium tetracyanoborate	uncertainty	Mole fraction of thiophene	uncertainty
0	0.939	0.01	0		0	
0.672	0.284	0.014	0		0.543	
0.704	0.254	0.014	0		0.624	
0.756	0.207	0.013	0		0.761	
0.786	0.184	0.013	0		0.849	
0.817	0.162	0.012	0		0.918	
0.879	0.121	0.012	0		1	
0.22	0.722	0.014	0		0.082	
0.351	0.596	0.014	0		0.154	
0.456	0.493	0.014	0		0.232	
0.517	0.434	0.014	0		0.293	
0.621	0.332	0.014	0		0.438	

System: benzo[b]thiophene + heptane + 1-hexyl-3-methylimidazolium tetracyanoborate; phases: Liquid mixture 2, Liquid mixture 1
Fixed: Temperature, K = 308.15
Fixed: Pressure, kPa = 101
Property: Mole fraction of 1-hexyl-3-methylimidazolium tetracyanoborate (Liquid mixture 2); method: Chromatography
Property: Mole fraction of 1-hexyl-3-methylimidazolium tetracyanoborate (Liquid mixture 1); method: Chromatography
Property: Mole fraction of benzo[b]thiophene (Liquid mixture 1); method: Chromatography
Mole fraction of benzo[b]thiophene	Mole fraction of 1-hexyl-3-methylimidazolium tetracyanoborate	uncertainty	Mole fraction of 1-hexyl-3-methylimidazolium tetracyanoborate	uncertainty	Mole fraction of benzo[b]thiophene	uncertainty
0	0.939	0.01	0		0	
0.688	0.242	0.015	0		0.432	
0.72	0.207	0.014	0		0.683	
0.777	0.154	0.012	0		0.776	
0.937	0.063	0.012	0		1	
0.139	0.799	0.014	0		0.025	
0.257	0.681	0.014	0		0.05	
0.365	0.57	0.015	0		0.085	
0.489	0.447	0.015	0		0.136	
0.557	0.376	0.014	0		0.222	
0.658	0.276	0.014	0		0.334	

System: heptane + 1-butyl-1-methylpyrrolidinium trifluoromethanesulfonate; phases: Liquid mixture 2, Liquid mixture 1
Property: Mole fraction of 1-butyl-1-methylpyrrolidinium trifluoromethanesulfonate (Liquid mixture 2); method: Chromatography
Pressure, kPa	Temperature, K	Mole fraction of 1-butyl-1-methylpyrrolidinium trifluoromethanesulfonate	uncertainty
101	308.15	0.978	0.01

System: thiophene + 1-butyl-1-methylpyrrolidinium trifluoromethanesulfonate; phases: Liquid mixture 2, Liquid mixture 1
Property: Mole fraction of thiophene (Liquid mixture 2); method: Chromatography
Pressure, kPa	Temperature, K	Mole fraction of thiophene	uncertainty
101	308.15	0.818	0.01

System: heptane + 1-butyl-1-methylpyrrolidinium tricyanomethanide; phases: Liquid mixture 2, Liquid mixture 1
Property: Mole fraction of 1-butyl-1-methylpyrrolidinium tricyanomethanide (Liquid mixture 2); method: Chromatography
Pressure, kPa	Temperature, K	Mole fraction of 1-butyl-1-methylpyrrolidinium tricyanomethanide	uncertainty
101	308.15	0.974	0.01

System: heptane + 1-hexyl-3-methylimidazolium tetracyanoborate; phases: Liquid mixture 2, Liquid mixture 1
Property: Mole fraction of 1-hexyl-3-methylimidazolium tetracyanoborate (Liquid mixture 2); method: Chromatography
Pressure, kPa	Temperature, K	Mole fraction of 1-hexyl-3-methylimidazolium tetracyanoborate	uncertainty
101	308.15	0.939	0.01

System: thiophene + 1-hexyl-3-methylimidazolium tetracyanoborate; phases: Liquid mixture 2, Liquid mixture 1
Property: Mole fraction of thiophene (Liquid mixture 2); method: Chromatography
Pressure, kPa	Temperature, K	Mole fraction of thiophene	uncertainty
101	308.15	0.879	0.01

System: benzo[b]thiophene + 1-hexyl-3-methylimidazolium tetracyanoborate; phases: Liquid mixture 2, Liquid mixture 1
Property: Mole fraction of benzo[b]thiophene (Liquid mixture 2); method: Chromatography
Pressure, kPa	Temperature, K	Mole fraction of benzo[b]thiophene	uncertainty
101	308.15	0.937	0.01
