Measured thermophysical data. Isobaric heat capacities of R245fa and R236fa in liquid phase at temperatures from (315 to 365) K and pressures up to 5.5 MPa
Source: J. Chem. Thermodyn., 2015, 10.1016/j.jct.2015.06.014
Compound 1: 1,1,1,3,3-pentafluoropropane, C3H3F5, InChI=1S/C3H3F5/c4-2(5)1-3(6,7)8/h2H,1H2, purity 99.8%
Compound 2: 1,1,1,3,3,3-hexafluoropropane, C3H2F6, InChI=1S/C3H2F6/c4-2(5,6)1-3(7,8)9/h1H2, purity 99.9%

System: 1,1,1,3,3-pentafluoropropane; phases: Liquid
Property: Molar heat capacity at constant pressure, J/K/mol (Liquid); method: Large sample (1 g) DSC
Temperature, K	Pressure, kPa	Molar heat capacity at constant pressure, J/K/mol	uncertainty
315.15	1590	184.584007872	7.104540608
320.15	1590	185.790439296	7.238588544
325.15	1590	187.801158336	7.238588544
330.15	1590	191.0183088	7.37263648
335.15	1590	195.307842752	7.506684416
340.15	1590	200.133568448	7.774780288
345.15	1590	204.825246208	7.908828224
350.15	1590	209.516923968	8.04287616
355.15	1590	214.074553792	8.310972032
360.15	1590	219.302423296	8.445019968
365.15	1590	226.54101184	8.71311584
315.15	2520	184.047816128	7.104540608
320.15	2520	185.120199616	7.104540608
325.15	2520	186.728774848	7.238588544
330.15	2520	189.945925312	7.37263648
335.15	2520	194.3695072	7.506684416
340.15	2520	199.195232896	7.640732352
345.15	2520	204.020958592	7.908828224
350.15	2520	208.44454048	8.04287616
355.15	2520	212.734074432	8.176924096
360.15	2520	217.693848064	8.445019968
365.15	2520	224.262196928	8.71311584
315.15	3480	183.779720256	7.104540608
320.15	3480	184.718055808	7.104540608
325.15	3480	186.192583104	7.238588544
330.15	3480	189.00758976	7.37263648
335.15	3480	193.163075776	7.506684416
340.15	3480	197.854753536	7.640732352
345.15	3480	202.546431296	7.774780288
350.15	3480	207.10406112	8.04287616
355.15	3480	211.661690944	8.176924096
360.15	3480	216.755512512	8.445019968
365.15	3480	222.653621696	8.579067904
315.15	4530	182.97543264	7.104540608
320.15	4530	183.913768192	7.104540608
325.15	4530	185.388295488	7.104540608
330.15	4530	188.069254208	7.238588544
335.15	4530	191.822596416	7.37263648
340.15	4530	196.246178304	7.640732352
345.15	4530	200.937856064	7.774780288
350.15	4530	205.495485888	7.908828224
355.15	4530	210.053115712	8.176924096
360.15	4530	214.744793472	8.310972032
365.15	4530	220.50885472	8.579067904
315.15	5500	182.439240896	7.104540608
320.15	5500	183.243528512	7.104540608
325.15	5500	184.584007872	7.104540608
330.15	5500	187.130918656	7.238588544
335.15	5500	191.0183088	7.37263648
340.15	5500	195.441890688	7.506684416
345.15	5500	200.133568448	7.774780288
350.15	5500	204.557150336	7.908828224
355.15	5500	208.980732224	8.04287616
360.15	5500	213.672409984	8.310972032
365.15	5500	219.436471232	8.445019968

System: 1,1,1,3,3,3-hexafluoropropane; phases: Liquid
Property: Molar heat capacity at constant pressure, J/K/mol (Liquid); method: Large sample (1 g) DSC
Temperature, K	Pressure, kPa	Molar heat capacity at constant pressure, J/K/mol	uncertainty
315.15	1480	195.6734197704	6.841727964
320.15	1480	198.7141877544	6.9937663632
325.15	1480	202.0590325368	7.1458047624
330.15	1480	205.7079541176	7.1458047624
335.15	1480	209.3568756984	7.2978431616
340.15	1480	213.4619124768	7.4498815608
345.15	1480	218.0230644528	7.60191996
350.15	1480	223.3444084248	7.7539583592
315.15	2490	193.6969205808	6.841727964
320.15	2490	196.5856501656	6.841727964
325.15	2490	199.7784565488	6.9937663632
330.15	2490	203.2753397304	7.1458047624
335.15	2490	207.0762997104	7.2978431616
340.15	2490	210.7252212912	7.2978431616
345.15	2490	214.8302580696	7.4498815608
350.15	2490	219.2393716464	7.60191996
355.15	2490	224.5607156184	7.9059967584
360.15	2490	231.098366784	8.0580351576
365.15	2490	239.9165939376	8.362111956
315.15	3540	192.4806133872	6.6896895648
320.15	3540	194.9132277744	6.841727964
325.15	3540	197.9539957584	6.9937663632
330.15	3540	201.45087894	6.9937663632
335.15	3540	205.0998005208	7.1458047624
340.15	3540	208.5966837024	7.2978431616
345.15	3540	212.2456052832	7.4498815608
350.15	3540	216.3506420616	7.60191996
355.15	3540	221.215870836	7.7539583592
360.15	3540	226.8412916064	7.9059967584
365.15	3540	233.5309811712	8.2100735568
315.15	4560	191.4163445928	6.6896895648
320.15	4560	193.6969205808	6.841727964
325.15	4560	196.4336117664	6.841727964
330.15	4560	199.7784565488	6.9937663632
335.15	4560	203.2753397304	7.1458047624
340.15	4560	206.772222912	7.2978431616
345.15	4560	210.2691060936	7.2978431616
350.15	4560	214.0700660736	7.4498815608
355.15	4560	218.3271412512	7.60191996
360.15	4560	223.496446824	7.7539583592
365.15	4560	230.4902131872	8.0580351576
315.15	5410	190.047999	6.6896895648
320.15	5410	192.7846901856	6.6896895648
325.15	5410	195.6734197704	6.841727964
330.15	5410	199.0182645528	6.9937663632
335.15	5410	202.211070936	7.1458047624
340.15	5410	205.5559157184	7.1458047624
345.15	5410	208.9007605008	7.2978431616
350.15	5410	212.3976436824	7.4498815608
355.15	5410	216.3506420616	7.60191996
360.15	5410	221.0638324368	7.7539583592
365.15	5410	227.4494452032	7.9059967584
