Measured thermophysical data. Using ab initio data to accurately determine the fourth density virial coefficient of helium
Source: J. Chem. Thermodyn., 2010, 10.1016/j.jct.2010.02.015
Compound 1: helium, He, InChI=1S/He, purity 99.99987%

System: helium; phases: Gas
Property: Mass density, kg/m3 (Gas); method: Buoyancy - hydrostatic balance with magnetic suspension - two sinkers
Temperature, K	Pressure, kPa	Mass density, kg/m3	uncertainty
323.1472	37960.8	48.7698	0.0084
323.1483	24300.8	32.8072	0.0065
323.1484	37959.6	48.7683	0.0084
323.1489	15457.5	21.5942	0.0051
323.1494	18569.7	25.6263	0.0056
323.1494	24300.5	32.8067	0.0065
323.1494	24300.7	32.8069	0.0065
323.1494	32137.5	42.1514	0.0076
323.1495	7816.5	11.2639	0.0038
323.1495	11560.6	16.4048	0.0044
323.1496	4851.3	7.0783	0.0033
323.1496	7551	10.8932	0.0038
323.1496	15405.9	21.5262	0.0051
323.1497	4851.3	7.0787	0.0033
323.1497	7816.6	11.264	0.004
323.1497	11516.2	16.3444	0.0045
323.1498	18569.6	25.6261	0.0056
323.1498	32138	42.1518	0.0076
323.1499	7816.6	11.264	0.004
323.1499	25288.8	34.0147	0.0066
323.15	15457	21.5934	0.0051
323.15	25287.6	34.0134	0.0066
323.15	30740.4	40.5237	0.0074
323.1502	30739.7	40.5227	0.0074
323.1503	11560.6	16.4063	0.0045
323.1503	15405.9	21.5263	0.0051
323.1503	18569.3	25.6255	0.0056
323.1504	11516.2	16.3445	0.0044
323.1504	15406	21.5265	0.0051
323.1504	37958.9	48.7675	0.0084
323.1505	7551	10.8928	0.0038
323.1505	11560.6	16.4048	0.0044
323.1505	19211	26.4456	0.0057
323.1505	19211.8	26.4466	0.0057
323.1505	25287.3	34.0129	0.0066
323.1505	30738.5	40.5213	0.0074
323.1506	7550.9	10.893	0.004
323.1506	7551	10.8929	0.0038
323.1506	19211.5	26.446	0.006
323.1506	32138.7	42.1524	0.0076
323.1506	37732.6	48.5152	0.0084
323.1507	4851.3	7.0785	0.0033
323.1507	15457	21.5932	0.0051
323.1507	19211.1	26.4456	0.0057
323.1507	24300.7	32.807	0.006
323.1507	37734.9	48.5178	0.0084
323.1507	37959.5	48.7679	0.0084
323.1508	37733.7	48.5163	0.0084
323.1509	7816.6	11.2637	0.0038
323.1509	15405.9	21.5262	0.0051
323.1509	18569.4	25.6259	0.0056
323.1509	30739.1	40.522	0.007
323.1509	32137.3	42.1508	0.0076
323.151	4851.4	7.0788	0.0033
323.1511	25287.1	34.0124	0.0066
323.1512	4247.3	6.2128	0.0033
323.1513	4247.3	6.2127	0.0033
323.1513	15456.8	21.5932	0.0051
323.1514	37736.4	48.5195	0.0084
323.1517	4247.3	6.2128	0.0033
323.1522	4247.2	6.2127	0.0033
349.9989	15078.8	19.5795	0.0048
349.9993	37805.6	45.3936	0.008
349.9995	30656	37.6893	0.0071
349.9995	37806.5	45.3946	0.008
349.9996	24052	30.2468	0.0061
349.9997	11158.3	14.7003	0.0042
349.9997	15078.3	19.5787	0.0048
349.9998	7452.5	9.9569	0.0036
349.9999	4685.1	6.3268	0.0033
349.9999	11158.2	14.7004	0.0042
349.9999	11158.3	14.7004	0.0042
349.9999	24051.8	30.2462	0.0061
349.9999	30657.9	37.6913	0.0071
350	7452.5	9.9569	0.0036
350	18991.5	24.313	0.005
350	18991.6	24.3135	0.0054
350.0001	37805.1	45.3931	0.008
350.0002	15078.5	19.579	0.005
350.0004	4685.1	6.3265	0.0033
350.0004	7452.5	9.9566	0.0036
350.0004	18991.1	24.3127	0.0054
350.0005	4685.2	6.3269	0.0033
350.0005	18991.4	24.3128	0.0054
350.0006	7452.5	9.9568	0.0036
350.0006	15078.3	19.5788	0.0048
350.0006	30655.9	37.6888	0.0071
350.0007	4685.2	6.3267	0.0033
350.0007	24052.4	30.2471	0.0061
350.0008	24051.7	30.2461	0.0061
350.0011	11158.5	14.7008	0.0042
350.0011	37804.5	45.3924	0.008
350.0013	30655.4	37.6887	0.0071
374.9972	30461.8	35.2524	0.0068
374.9974	30460.3	35.251	0.007
374.9975	24590.8	28.9966	0.006
374.9976	30461.2	35.2518	0.0068
374.9978	30462.8	35.2534	0.0068
374.9979	24590.8	28.9964	0.006
374.998	30460.7	35.2512	0.0068
374.9981	4669.4	5.8931	0.0032
374.9981	24590.7	28.9965	0.006
374.9981	24590.9	28.9964	0.006
374.9981	37971.5	42.9339	0.0077
374.9981	4669.4	5.893	0.003
374.9983	7673.4	9.5815	0.0036
374.9983	24590.5	28.996	0.006
374.9984	7673.4	9.5814	0.0036
374.9984	14992.4	18.2509	0.0047
374.9984	14992.8	18.2512	0.0047
374.9984	19144.6	22.9817	0.0052
374.9984	37969.1	42.9318	0.0077
374.9984	37972.8	42.9352	0.0077
374.9985	4669.4	5.8932	0.0032
374.9985	11339.3	13.9783	0.0041
374.9985	4669.4	5.893	0.003
374.9986	4669.4	5.8932	0.0032
374.9986	19144.6	22.9816	0.0052
374.9987	14992.5	18.2507	0.0047
374.9987	37969.9	42.9322	0.0077
374.9987	37970.8	42.9332	0.0077
374.999	11339.3	13.9779	0.0041
374.999	19144.4	22.9816	0.0052
374.9991	19144.1	22.9811	0.0052
374.9992	7673.3	9.581	0.004
374.9992	7673.5	9.5816	0.0036
374.9993	14992.7	18.2509	0.0047
374.9993	19144.2	22.981	0.005
374.9994	7673.3	9.5809	0.0036
374.9994	14992.6	18.2509	0.0047
374.9995	11339.2	13.9779	0.0041
374.9995	11339.4	13.9781	0.0041
374.9997	11339.3	13.9779	0.0041
399.997	19143.1	21.6425	0.0051
399.9972	29990.7	32.8101	0.0064
399.9973	29990.1	32.8093	0.0064
399.9974	14776.9	16.9375	0.0045
399.9974	19142.5	21.6423	0.0051
399.9974	23883.8	26.6117	0.0057
399.9974	37941	40.56	0.01
399.9976	7571.4	8.883	0.004
399.9976	11460.3	13.2766	0.004
399.9976	14776.9	16.9377	0.0045
399.9977	19142.2	21.6418	0.0051
399.9979	7571.3	8.8831	0.0035
399.9979	11460.5	13.2769	0.004
399.9979	37942	40.5606	0.0074
399.998	7571.3	8.8829	0.0035
399.9981	14777.3	16.9379	0.0045
399.9981	37940.3	40.5595	0.0074
399.9982	11460.4	13.2767	0.004
399.9982	23883.5	26.6114	0.0057
399.9983	5058.3	5.9845	0.0032
399.9983	11460.4	13.2769	0.004
399.9984	5058.3	5.9842	0.0032
399.9984	14776.8	16.9373	0.0045
399.9984	29989	32.8083	0.0064
399.9985	7571.4	8.8833	0.0035
399.9985	19141.9	21.6416	0.0051
399.9985	23882.5	26.6105	0.0057
399.9986	5058.3	5.9844	0.0032
399.9987	5058.3	5.9843	0.0032
399.9988	29989.6	32.8086	0.0064
399.9989	37939.1	40.5581	0.0074
399.999	23883.2	26.6111	0.0057
424.9958	11517	12.5867	0.0039
424.9958	37913.1	38.4326	0.0072
424.9966	19133.3	20.4427	0.0049
424.9966	31604.6	32.5929	0.0064
424.9968	7875.4	8.7027	0.0035
424.9968	15540.9	16.7806	0.0045
424.9968	19133.6	20.4431	0.0049
424.9968	37907.7	38.4278	0.0072
424.9969	15540.4	16.7803	0.0045
424.9969	15540.8	16.7809	0.0045
424.997	7875.8	8.7031	0.0035
424.997	31605.5	32.5939	0.0064
424.997	37906.4	38.4268	0.0072
424.9971	7875.6	8.703	0.004
424.9971	25119.7	26.3801	0.0056
424.9972	11516.5	12.586	0.004
424.9972	25120.2	26.3808	0.0056
424.9974	11516.5	12.5859	0.0039
424.9974	11516.7	12.5863	0.0039
424.9974	19133.1	20.4422	0.0049
424.9974	25119.1	26.3797	0.0056
424.9974	37909.1	38.4293	0.0072
424.9976	7875.7	8.703	0.004
424.9976	31606.9	32.5953	0.0064
424.9977	25118.5	26.3791	0.0056
424.9977	31603.9	32.5927	0.0064
449.9954	31394.9	30.7683	0.0062
449.9954	37608	36.2728	0.0069
449.9954	37611.4	36.2757	0.0069
449.9954	37613.3	36.2772	0.0069
449.9955	24940.2	24.8633	0.0055
449.9955	24940.7	24.8636	0.0055
449.9955	24943.4	24.8658	0.0055
449.9955	31395.8	30.7693	0.0062
449.9955	37609.8	36.274	0.007
449.9957	18965.5	19.2158	0.0047
449.9957	18966.2	19.2164	0.0047
449.9962	31397.5	30.7705	0.0062
449.9963	18965.5	19.2154	0.0047
449.9963	24939.7	24.8624	0.0055
449.9964	31393.9	30.7672	0.0062
449.9966	15358	15.7167	0.0043
449.9967	11907	12.3041	0.0039
449.9969	7656	8.0084	0.0034
449.9969	18965.3	19.2155	0.0047
449.997	4775.3	5.0371	0.0031
449.997	4775.4	5.0373	0.0031
449.997	11907	12.3042	0.0039
449.997	15358.2	15.7171	0.0043
449.9973	4775.4	5.0374	0.0031
449.9974	7655.9	8.0083	0.0034
449.9974	15357.9	15.7166	0.0043
449.9975	7656	8.0084	0.0034
449.9976	15358.3	15.7173	0.0043
449.9978	7656	8.0085	0.0034
449.9979	11906.9	12.3038	0.0039
449.9985	11906.7	12.3037	0.0039
474.996	18996.2	18.2908	0.0046
474.996	37994.1	34.8888	0.0067
474.996	37996.5	34.891	0.007
474.9961	37991.7	34.8873	0.0067
474.9962	31121.5	29.0604	0.006
474.9964	37989.6	34.8852	0.0067
474.9965	18995.1	18.29	0.01
474.9968	11474.5	11.2698	0.0038
474.9968	11474.7	11.2697	0.0038
474.9969	31118.7	29.0583	0.006
474.997	4812.4	4.813	0.003
474.997	15102.5	14.6905	0.0042
474.997	25698.5	24.3237	0.0054
474.997	31117.6	29.0576	0.006
474.9971	7937.7	7.8707	0.0034
474.9971	18995.3	18.2901	0.0046
474.9971	25699.2	24.3246	0.0054
474.9973	18994.8	18.2895	0.0046
474.9973	25697.9	24.3233	0.0054
474.9974	11474.4	11.2694	0.0038
474.9974	15102.3	14.6903	0.0042
474.9975	15102.7	14.6908	0.0042
474.9976	15102	14.69	0.01
474.9977	31116.4	29.0563	0.006
474.9979	7937.9	7.871	0.003
474.9982	4812.4	4.8133	0.0031
474.9982	11474.7	11.2696	0.0038
474.9983	7938	7.8709	0.0034
474.9994	4812.4	4.8131	0.0031
499.9947	37867.6	33.2206	0.0065
499.995	37865.4	33.2203	0.0065
499.9953	37869.8	33.2239	0.0065
499.9963	37863.6	33.2185	0.0065
499.9979	11580.1	10.8213	0.0037
499.9979	11580.6	10.8215	0.0037
499.9981	4928	4.6849	0.0031
499.9981	4928	4.6846	0.0031
499.9982	15421.8	14.2732	0.0041
499.9982	19581.3	17.9371	0.0046
499.9985	7887.3	7.4406	0.0034
499.9986	11580.3	10.8221	0.0037
499.9987	7887.1	7.4404	0.0034
499.9988	4928	4.685	0.003
499.9988	11579.9	10.8212	0.0037
499.9989	7887.1	7.4403	0.0034
499.9989	15421	14.2721	0.0041
499.999	25162.2	22.7413	0.0052
499.9991	19583	17.9388	0.0046
499.9991	25166.1	22.7445	0.0052
499.9992	19580.7	17.9369	0.0046
499.9995	15421.6	14.2727	0.0041
499.9996	15421.4	14.2719	0.0041
499.9996	25163.1	22.7419	0.0052
499.9996	30654	27.3459	0.0057
499.9997	30650.6	27.3437	0.0057
499.9999	30651.7	27.3446	0.0057
500.0001	30652.9	27.3454	0.0057
