Measured thermophysical data. Part I: Thermodynamic analysis of volumetric properties of concentrated aqueous solutions of 1-butyl-3-methylimidazolium tetrafluoroborate, 1-butyl-2,3-dimethylimidazolium tetrafluoroborate, and ethylammonium nitrate based on pseudo-lattice theory
Source: J. Chem. Thermodyn., 2007, 10.1016/j.jct.2007.01.007
Compound 1: 1-butyl-3-methylimidazolium tetrafluoroborate, C8H15BF4N2, InChI=1S/C8H15N2.BF4/c1-3-4-5-10-7-6-9(2)8-10;2-1(3,4)5/h6-8H,3-5H2,1-2H3;/q+1;-1
Compound 2: 1-butyl-2,3-dimethylimidazolium tetrafluoroborate, C9H17BF4N2, InChI=1S/C9H17N2.BF4/c1-4-5-6-11-8-7-10(3)9(11)2;2-1(3,4)5/h7-8H,4-6H2,1-3H3;/q+1;-1
Compound 3: water, H2O, InChI=1S/H2O/h1H2

System: 1-butyl-3-methylimidazolium tetrafluoroborate; phases: Liquid
Property: Mass density, kg/m3 (Liquid); method: VIBTUB:UFactor:4
Temperature, K	Pressure, kPa	Mass density, kg/m3	uncertainty
298	101	1200.297	8.166

System: 1-butyl-2,3-dimethylimidazolium tetrafluoroborate; phases: Liquid
Property: Mass density, kg/m3 (Liquid); method: VIBTUB:UFactor:4
Temperature, K	Pressure, kPa	Mass density, kg/m3	uncertainty
298	101	1191.2	8

System: water + 1-butyl-3-methylimidazolium tetrafluoroborate; phases: Liquid
Fixed: Temperature, K = 298
Fixed: Pressure, kPa = 101
Property: Mass density, kg/m3 (Liquid); method: VIBTUB:UFactor:4
Molality, mol/kg of water	Mass density, kg/m3	uncertainty
0.2159	1193.752	8.015
0.3678	1192.922	7.965
0.4894	1192.229	7.924
0.6261	1191.489	7.879
0.8059	1190.502	7.82
0.9897	1189.527	7.761

System: water + 1-butyl-3-methylimidazolium tetrafluoroborate; phases: Liquid
Fixed: Temperature, K = 298
Fixed: Pressure, kPa = 101
Property: Mass density, kg/m3 (Liquid); method: VIBTUB:UFactor:4
Mole fraction of 1-butyl-3-methylimidazolium tetrafluoroborate	Mass density, kg/m3	uncertainty
0	997.043	0.177
0.0499	1064.225	0.344
0.1237	1111.069	0.573
0.2342	1145.01	0.985
0.3016	1156.777	1.298
0.4073	1169.74	1.902
0.5268	1180.153	2.762
0.6698	1188.391	4.047
0.7818	1193.431	5.26
0.896	1197.37	6.689
0.9228	1198.2	7.054
0.9682	1199.432	7.696
1	1200.297	8.166

System: water + 1-butyl-3-methylimidazolium tetrafluoroborate; phases: Liquid
Fixed: Temperature, K = 298
Fixed: Pressure, kPa = 101
Property: Mass density, kg/m3 (Liquid); method: VIBTUB:UFactor:4
Mole fraction of water	Mass density, kg/m3	uncertainty
0.1027	1197.389	6.707
0.1342	1196.345	6.291
0.1468	1195.898	6.129
0.1641	1195.299	5.911
0.1829	1194.598	5.679
0.3068	1188.86	4.279
0.3138	1188.445	4.207
0.323	1187.99	4.113
0.3333	1187.648	4.011
0.3722	1185.634	3.635
0.593	1169.039	1.897
0.595	1168.829	1.884
0.599	1168.429	1.859
0.601	1168.206	1.846
0.6157	1166.547	1.755
0.8385	1126.047	0.702
0.8398	1125.628	0.697
0.8432	1124.502	0.685
0.8448	1123.966	0.68
0.8459	1123.573	0.676
0.8905	1105.046	0.529
0.8907	1104.965	0.528
0.8915	1104.554	0.526
0.8924	1104.12	0.523
0.8936	1103.538	0.519
0.9412	1069.881	0.37
0.9414	1069.706	0.369
0.9416	1069.532	0.366
0.9417	1069.419	0.366
0.9423	1068.771	0.366

System: water + 1-butyl-3-methylimidazolium tetrafluoroborate; phases: Liquid
Fixed: Pressure, kPa = 101
Fixed: Temperature, K = 298
Property: Mass density, kg/m3 (Liquid); method: VIBTUB:UFactor:4
Mole fraction of 1-butyl-3-methylimidazolium tetrafluoroborate	Mass density, kg/m3	uncertainty
0.000587	998.273	0.176
0.00065	998.405	0.176
0.001001	999.13	0.175
0.001583	1000.317	0.175
0.001889	1000.931	0.176

System: water + 1-butyl-2,3-dimethylimidazolium tetrafluoroborate; phases: Liquid
Fixed: Temperature, K = 298
Fixed: Pressure, kPa = 101
Property: Mass density, kg/m3 (Liquid); method: VIBTUB:UFactor:4
Mole fraction of 1-butyl-2,3-dimethylimidazolium tetrafluoroborate	Mass density, kg/m3	uncertainty
0.000339	997.743	0.176
0.000762	998.6	0.176
0.001181	999.44	0.175
0.001432	999.935	0.174
0.001477	1000.024	0.174
0.001903	1000.856	0.176

System: water + 1-butyl-2,3-dimethylimidazolium tetrafluoroborate; phases: Liquid
Fixed: Temperature, K = 298
Fixed: Pressure, kPa = 101
Property: Mass density, kg/m3 (Liquid); method: VIBTUB:UFactor:4
Molality, mol/kg of water	Mass density, kg/m3	uncertainty
0.2116	1190.599	7.972
0.4529	1189.231	7.891
0.7871	1187.243	7.779
0.9494	1186.326	7.727
1.1738	1185.125	7.655

System: water + 1-butyl-2,3-dimethylimidazolium tetrafluoroborate; phases: Liquid
Fixed: Temperature, K = 298
Fixed: Pressure, kPa = 101
Property: Mass density, kg/m3 (Liquid); method: VIBTUB:UFactor:4
Mole fraction of 1-butyl-2,3-dimethylimidazolium tetrafluoroborate	Mass density, kg/m3	uncertainty
0	997.043	0.177
0.0071	1010.238	0.197
0.02	1029.861	0.245
0.0289	1041.283	0.275
0.0686	1077.836	0.397
0.2076	1134.407	0.863
0.2204	1136.955	0.913
0.2979	1150.711	1.262
0.4286	1165.249	2.012
0.4983	1170.897	2.502
0.6317	1178.812	3.622
0.7598	1184.289	4.931
0.848	1187.227	5.97
1	1191.2	8

System: water + 1-butyl-2,3-dimethylimidazolium tetrafluoroborate; phases: Liquid
Fixed: Temperature, K = 298
Fixed: Pressure, kPa = 101
Property: Mass density, kg/m3 (Liquid); method: VIBTUB:UFactor:4
Mole fraction of water	Mass density, kg/m3	uncertainty
0.4407	1173.711	2.977
0.448	1173.28	2.917
0.4546	1172.874	2.863
0.4666	1172.152	2.767
0.4894	1170.648	2.59
0.849	1118.998	0.658
0.8502	1118.581	0.654
0.8516	1118.072	0.649
0.8534	1117.454	0.643
0.8549	1116.88	0.638
0.8816	1106.891	0.552
0.8822	1106.651	0.55
0.8825	1106.537	0.549
0.8826	1106.471	0.549
0.8851	1105.42	0.541
0.8856	1105.159	0.539
0.9248	1081.493	0.416
0.9253	1081.183	0.415
0.9258	1080.855	0.413
0.9267	1080.328	0.41
0.9271	1080.047	0.409
0.9633	1050.346	0.301
0.9634	1050.255	0.301
0.9638	1049.887	0.299
0.964	1049.661	0.298
0.9641	1049.49	0.298
0.9812	1028.268	0.24
0.9814	1028.057	0.24
0.9815	1027.929	0.239
0.9816	1027.73	0.239
0.9816	1027.69	0.239
