Measured thermophysical data. Simultaneous determination of enthalpies of dilution and dissociation of protocatechuic acid in aqueous salt solutions by calorimetric measurements
Source: J. Chem. Thermodyn., 2015, 10.1016/j.jct.2015.07.029
Compound 1: 3,4-dihydroxybenzoic acid, C7H6O4, InChI=1S/C7H6O4/c8-5-2-1-4(7(10)11)3-6(5)9/h1-3,8-9H,(H,10,11), purity 99%
Compound 2: water, H2O, InChI=1S/H2O/h1H2
Compound 3: potassium chloride, ClK, InChI=1S/ClH.K/h1H;/q;+1/p-1, purity 99.8%
Compound 4: sodium chloride, ClNa, InChI=1S/ClH.Na/h1H;/q;+1/p-1, purity 99.8%

System: 3,4-dihydroxybenzoic acid + water; phases: Liquid
Fixed: Pressure, kPa = 101.3
Property: Electrical conductivity, S/m (Liquid); method: Alternating current cell with electrodes
Temperature, K	Molality, mol/kg of 3,4-dihydroxybenzoic acid	Electrical conductivity, S/m	uncertainty
288.15	0.001	0.0048	0.0011
288.15	0.002	0.007	0.0014
288.15	0.004	0.0102	0.0021
288.15	0.006	0.0126	0.0025
288.15	0.008	0.0146	0.0029
288.15	0.01	0.0164	0.0033
291.15	0.001	0.0051	0.0011
291.15	0.002	0.0074	0.0015
291.15	0.004	0.0107	0.0022
291.15	0.006	0.0132	0.0027
291.15	0.008	0.0154	0.0031
291.15	0.01	0.0173	0.0035
294.15	0.001	0.0054	0.0012
294.15	0.002	0.0078	0.0016
294.15	0.004	0.0113	0.0023
294.15	0.006	0.014	0.0028
294.15	0.008	0.0162	0.0032
294.15	0.01	0.0182	0.0036
298.15	0.001	0.0058	0.0013
298.15	0.002	0.0084	0.0017
298.15	0.004	0.0121	0.0024
298.15	0.006	0.015	0.003
298.15	0.008	0.0174	0.0035
298.15	0.01	0.0196	0.0039

System: 3,4-dihydroxybenzoic acid + water; phases: Liquid
Fixed: Temperature, K = 298.15
Fixed: Pressure, kPa = 101.3
Property: Molar enthalpy of dilution, kJ/mol (Liquid); method: Flow calorimetry
Initial molality of solute, mol/kg	Final molality of solute, mol/kg	Molar enthalpy of dilution, kJ/mol	uncertainty
0.025	0.0118	0.29296	0.00648
0.03	0.0142	0.33252	0.00732
0.04	0.0189	0.40863	0.00893
0.045	0.0212	0.44623	0.00972
0.05	0.0236	0.47964	0.01043
0.055	0.026	0.51226	0.01112
0.06	0.0282	0.54543	0.01182
0.065	0.0306	0.57515	0.01245
0.07	0.033	0.60373	0.01306
0.075	0.0354	0.62968	0.01361
0.08	0.0377	0.65522	0.01415
0.09	0.0424	0.70033	0.01511

System: 3,4-dihydroxybenzoic acid + potassium chloride + water; phases: Liquid
Fixed: Temperature, K = 298.15
Fixed: Pressure, kPa = 101.3
Property: Molar enthalpy of dilution, kJ/mol (Liquid); method: Flow calorimetry
Solvent: Molality, mol/kg of potassium chloride	Initial molality of solute, mol/kg	Final molality of solute, mol/kg	Molar enthalpy of dilution, kJ/mol	uncertainty
0	0.025	0.0118	0.29296	0.00648
0	0.03	0.0142	0.33252	0.00732
0	0.04	0.0189	0.40863	0.00893
0	0.045	0.0212	0.44623	0.00972
0	0.05	0.0236	0.47964	0.01043
0	0.055	0.026	0.51226	0.01112
0	0.06	0.0282	0.54543	0.01182
0	0.065	0.0306	0.57515	0.01245
0	0.07	0.033	0.60373	0.01306
0	0.075	0.0354	0.62968	0.01361
0	0.08	0.0377	0.65522	0.01415
0	0.09	0.0424	0.70033	0.01511
0.1	0.025	0.0119	0.30304	0.0067
0.1	0.03	0.0144	0.33931	0.00746
0.1	0.04	0.0191	0.41678	0.0091
0.1	0.045	0.0215	0.45202	0.00985
0.1	0.05	0.0239	0.48932	0.01064
0.1	0.055	0.0262	0.5242	0.01138
0.1	0.06	0.0286	0.55849	0.0121
0.1	0.065	0.0309	0.59094	0.01279
0.1	0.07	0.0333	0.6213	0.01343
0.1	0.075	0.0357	0.64937	0.01403
0.1	0.08	0.0381	0.67676	0.01461
0.1	0.09	0.0428	0.7273	0.01568
0.2	0.025	0.0119	0.32403	0.00714
0.2	0.03	0.0143	0.35956	0.00789
0.2	0.04	0.019	0.43244	0.00943
0.2	0.045	0.0214	0.46686	0.01016
0.2	0.05	0.0239	0.49779	0.01082
0.2	0.055	0.0263	0.52771	0.01145
0.2	0.06	0.0287	0.55996	0.01213
0.2	0.065	0.0311	0.59022	0.01277
0.2	0.07	0.0335	0.61849	0.01337
0.2	0.075	0.0358	0.64674	0.01397
0.2	0.08	0.0382	0.67508	0.01457
0.2	0.0901	0.043	0.72972	0.01573
0.3	0.025	0.0122	0.29224	0.00647
0.3	0.03	0.0147	0.32976	0.00726
0.3	0.04	0.0196	0.40802	0.00892
0.3	0.045	0.022	0.44584	0.00972
0.3	0.05	0.0246	0.47532	0.01034
0.3	0.055	0.0269	0.51206	0.01112
0.3	0.06	0.0294	0.54423	0.0118
0.3	0.065	0.0318	0.57842	0.01252
0.3	0.07	0.0343	0.60937	0.01318
0.3	0.075	0.0367	0.64212	0.01387
0.3	0.0799	0.0391	0.67021	0.01447
0.3	0.09	0.044	0.73262	0.01579
0.4	0.025	0.0122	0.30795	0.0068
0.4	0.03	0.0146	0.34795	0.00765
0.4	0.04	0.0194	0.4255	0.00929
0.4	0.0456	0.0222	0.46489	0.01012
0.4	0.05	0.0243	0.49771	0.01081
0.4	0.055	0.0268	0.52847	0.01147
0.4	0.06	0.0292	0.56055	0.01215
0.4	0.065	0.0316	0.59038	0.01278
0.4	0.07	0.0341	0.62107	0.01343
0.4	0.075	0.0365	0.65015	0.01404
0.4	0.08	0.0389	0.67942	0.01466
0.4	0.09	0.0437	0.73374	0.01581
0.5	0.025	0.0119	0.34091	0.0075
0.5	0.03	0.0143	0.38326	0.00839
0.5	0.0398	0.019	0.45855	0.00999
0.5	0.045	0.0215	0.49796	0.01082
0.5	0.05	0.0238	0.53566	0.01162
0.5	0.055	0.0262	0.56846	0.01231
0.5	0.06	0.0286	0.60225	0.01303
0.5	0.065	0.0308	0.63491	0.01372
0.5	0.07	0.0332	0.66664	0.01439
0.5	0.075	0.0356	0.69471	0.01499
0.5	0.08	0.038	0.72051	0.01553
0.5	0.09	0.0427	0.7743	0.01667
0.6	0.025	0.0121	0.33267	0.00732
0.6	0.03	0.0145	0.37896	0.0083
0.6	0.04	0.0193	0.45917	0.01
0.6	0.045	0.0218	0.49565	0.01077
0.6	0.05	0.0241	0.53477	0.0116
0.6	0.055	0.0267	0.56458	0.01223
0.6	0.06	0.0288	0.60249	0.01303
0.6	0.065	0.0313	0.62944	0.0136
0.6	0.07	0.0339	0.65303	0.0141
0.6	0.075	0.0363	0.67938	0.01466
0.6	0.08	0.0385	0.70913	0.01529
0.6	0.09	0.0435	0.74755	0.01611

System: 3,4-dihydroxybenzoic acid + sodium chloride + water; phases: Liquid
Fixed: Temperature, K = 298.15
Fixed: Pressure, kPa = 101.3
Property: Molar enthalpy of dilution, kJ/mol (Liquid); method: Flow calorimetry
Solvent: Molality, mol/kg of sodium chloride	Initial molality of solute, mol/kg	Final molality of solute, mol/kg	Molar enthalpy of dilution, kJ/mol	uncertainty
0	0.025	0.0118	0.29296	0.00648
0	0.03	0.0142	0.33252	0.00732
0	0.04	0.0189	0.40863	0.00893
0	0.045	0.0212	0.44623	0.00972
0	0.05	0.0236	0.47964	0.01043
0	0.055	0.026	0.51226	0.01112
0	0.06	0.0282	0.54543	0.01182
0	0.065	0.0306	0.57515	0.01245
0	0.07	0.033	0.60373	0.01306
0	0.075	0.0354	0.62968	0.01361
0	0.08	0.0377	0.65522	0.01415
0	0.09	0.0424	0.70033	0.01511
0.1	0.025	0.0119	0.29007	0.00642
0.1	0.03	0.0143	0.32931	0.00725
0.1	0.04	0.019	0.40623	0.00888
0.1	0.045	0.0213	0.44412	0.00968
0.1	0.05	0.0237	0.47591	0.01035
0.1	0.055	0.0261	0.51043	0.01108
0.1	0.06	0.0284	0.54102	0.01173
0.1	0.065	0.0307	0.57249	0.0124
0.1	0.07	0.0331	0.59981	0.01298
0.1	0.075	0.0354	0.62694	0.01355
0.1	0.08	0.0378	0.65061	0.01405
0.1	0.09	0.0425	0.69956	0.01509
0.2	0.025	0.0119	0.33195	0.00731
0.2	0.03	0.0142	0.3698	0.00811
0.2	0.04	0.0192	0.4336	0.00946
0.2	0.0449	0.0212	0.47266	0.01028
0.2	0.05	0.0239	0.49818	0.01082
0.2	0.055	0.026	0.53495	0.0116
0.2	0.0599	0.0287	0.55836	0.0121
0.2	0.065	0.0311	0.5882	0.01273
0.2	0.0701	0.0336	0.61547	0.01331
0.2	0.075	0.0359	0.64362	0.01391
0.2	0.0801	0.0384	0.67133	0.01449
0.2	0.09	0.0427	0.73666	0.01588
0.3	0.025	0.0117	0.32746	0.00721
0.3	0.03	0.0141	0.37081	0.00813
0.3	0.04	0.0188	0.44741	0.00975
0.3	0.045	0.0211	0.48606	0.01057
0.3	0.0501	0.0236	0.5181	0.01125
0.3	0.055	0.0258	0.55264	0.01198
0.3	0.06	0.0282	0.58578	0.01268
0.3	0.0648	0.0304	0.61557	0.01331
0.3	0.07	0.0329	0.64751	0.01399
0.3	0.075	0.0352	0.67524	0.01458
0.3	0.0804	0.0378	0.70456	0.0152
0.3	0.09	0.0424	0.75391	0.01624
0.4	0.025	0.0123	0.32309	0.00712
0.4	0.03	0.0147	0.36671	0.00804
0.4	0.04	0.0196	0.45036	0.00981
0.4	0.045	0.022	0.48592	0.01056
0.4	0.05	0.0246	0.51828	0.01125
0.4	0.055	0.027	0.55296	0.01198
0.4	0.06	0.0294	0.58472	0.01266
0.4	0.065	0.0319	0.61319	0.01326
0.4	0.07	0.0344	0.63986	0.01383
0.4	0.075	0.0369	0.66525	0.01436
0.4	0.08	0.0393	0.6924	0.01494
0.4	0.09	0.044	0.74126	0.01597
0.5	0.025	0.0119	0.32986	0.00726
0.5	0.03	0.0143	0.37311	0.00818
0.5	0.04	0.0191	0.45316	0.00987
0.5	0.045	0.0215	0.48603	0.01057
0.5	0.05	0.0238	0.52358	0.01136
0.5	0.055	0.0262	0.55659	0.01206
0.5	0.06	0.0286	0.59007	0.01277
0.5	0.065	0.0309	0.61948	0.01339
0.5	0.07	0.0333	0.64786	0.01399
0.5	0.0749	0.0356	0.67602	0.01459
0.5	0.08	0.0381	0.70235	0.01515
0.5	0.0899	0.0427	0.75593	0.01629
0.6	0.025	0.012	0.32755	0.00722
0.6	0.03	0.0144	0.37531	0.00822
0.6	0.04	0.0192	0.45911	0.01
0.6	0.045	0.0216	0.4976	0.01081
0.6	0.05	0.024	0.53408	0.01158
0.6	0.055	0.0264	0.5695	0.01233
0.6	0.06	0.0288	0.59987	0.01298
0.6	0.065	0.031	0.63445	0.01371
0.6	0.07	0.0336	0.65467	0.01414
0.6	0.075	0.0359	0.68687	0.01482
0.6	0.08	0.0381	0.71323	0.01538
0.6	0.0898	0.043	0.75492	0.01626
