Measured thermophysical data. Effect of magnesium acetate on the volumetric and transport behavior of some amino acids in aqueous solutions at 298.15 K
Source: J. Chem. Thermodyn., 2006, 10.1016/j.jct.2005.12.002
Compound 1: 2-aminoacetic acid, C2H5NO2, InChI=1S/C2H5NO2/c3-1-2(4)5/h1,3H2,(H,4,5)
Compound 2: DL-2-aminopropanoic acid, C3H7NO2, InChI=1S/C3H7NO2/c1-2(4)3(5)6/h2H,4H2,1H3,(H,5,6)
Compound 3: (.+-.)-.alpha.-aminobutyric acid, C4H9NO2, InChI=1S/C4H9NO2/c1-2-3(5)4(6)7/h3H,2,5H2,1H3,(H,6,7)
Compound 4: L-leucine, C6H13NO2, InChI=1S/C6H13NO2/c1-4(2)3-5(7)6(8)9/h4-5H,3,7H2,1-2H3,(H,8,9)/t5-/m0/s1
Compound 5: L-phenylalanine, C9H11NO2, InChI=1S/C9H11NO2/c10-8(9(11)12)6-7-4-2-1-3-5-7/h1-5,8H,6,10H2,(H,11,12)/t8-/m0/s1
Compound 6: magnesium acetate, C4H6MgO4, InChI=1S/2C2H4O2.Mg/c2*1-2(3)4;/h2*1H3,(H,3,4);/q;;+2/p-2
Compound 7: water, H2O, InChI=1S/H2O/h1H2

System: 2-aminoacetic acid + magnesium acetate + water; phases: Liquid
Fixed: Pressure, kPa = 101
Fixed: Temperature, K = 298.15
Property: Viscosity, Pa*s (Liquid); method: Capillary tube (Ostwald; Ubbelohde) method
Solvent: Molality, mol/kg of magnesium acetate	Amount concentration (molarity), mol/dm3 of 2-aminoacetic acid	Viscosity, Pa*s	uncertainty
0.5	0.09144	1.0139	0.0182
0.5	0.14551	1.0215	0.0183
0.5	0.23235	1.0389	0.0187
0.5	0.31655	1.0487	0.0188
0.5	0.41508	1.0599	0.019
0.5	0.45641	1.0679	0.0192
1	0.1054	1.0165	0.0183
1	0.18913	1.0317	0.0185
1	0.23507	1.0369	0.0186
1	0.33584	1.0507	0.0189
1	0.45006	1.0692	0.0192
1	0.5415	1.0838	0.0195
1.5	0.05807	1.0103	0.0181
1.5	0.11028	1.0173	0.0183
1.5	0.1618	1.0268	0.0184
1.5	0.22334	1.0371	0.0186
1.5	0.29278	1.0457	0.0188
1.5	0.34806	1.0533	0.0189
2	0.05636	1.0087	0.0181
2	0.10083	1.0157	0.0182
2	0.27464	1.0432	0.0187
2	0.35479	1.0556	0.019
2	0.41505	1.0699	0.0192

System: 2-aminoacetic acid + magnesium acetate + water; phases: Liquid
Fixed: Pressure, kPa = 101
Fixed: Temperature, K = 298.15
Property: Mass density, kg/m3 (Liquid); method: Vibrating tube method
Solvent: Molality, mol/kg of magnesium acetate	Molality, mol/kg of 2-aminoacetic acid	Mass density, kg/m3	uncertainty
0.5	0.04183	1034.548	1.877
0.5	0.13377	1037.17	1.882
0.5	0.22182	1039.659	1.886
0.5	0.40569	1044.804	1.896
0.5	0.48723	1047.03	1.9
0.5	0.61685	1050.544	1.906
0.5	0.71509	1053.207	1.911
1	0.09959	1066.284	1.935
1	0.17935	1068.379	1.939
1	0.22347	1069.495	1.941
1	0.32082	1072.042	1.945
1	0.43229	1074.906	1.951
1	0.52241	1077.178	1.955
1	0.68625	1081.366	1.962
1.5	0.08343	1091.953	1.982
1.5	0.20655	1094.959	1.987
1.5	0.27436	1096.651	1.99
1.5	0.31153	1097.523	1.992
1.5	0.38311	1099.266	1.995
1.5	0.43374	1100.478	1.997
1.5	0.57205	1103.731	2.003
2	0.06972	1114.07	2.022
2	0.11056	1114.999	2.024
2	0.19304	1116.882	2.027
2	0.21005	1117.257	2.028
2	0.39596	1121.453	2.036

System: magnesium acetate + DL-2-aminopropanoic acid + water; phases: Liquid
Fixed: Pressure, kPa = 101
Fixed: Temperature, K = 298.15
Property: Viscosity, Pa*s (Liquid); method: Capillary tube (Ostwald; Ubbelohde) method
Solvent: Molality, mol/kg of magnesium acetate	Amount concentration (molarity), mol/dm3 of DL-2-aminopropanoic acid	Viscosity, Pa*s	uncertainty
0.5	0.04703	1.0128	0.0257
0.5	0.10051	1.028	0.026
0.5	0.1486	1.0417	0.0264
0.5	0.18425	1.0522	0.0266
0.5	0.30377	1.0834	0.0274
0.5	0.35702	1.0942	0.0277
1	0.05531	1.0157	0.0257
1	0.09295	1.025	0.026
1	0.14252	1.0389	0.0263
1	0.19933	1.0528	0.0267
1	0.26529	1.0737	0.0272
1	0.32444	1.0908	0.0276
1.5	0.10898	1.0296	0.0261
1.5	0.15752	1.0447	0.0265
1.5	0.22304	1.0638	0.0269
1.5	0.27996	1.0808	0.0274
1.5	0.34017	1.094	0.0277
2	0.10791	1.0337	0.0262
2	0.15694	1.0461	0.0265
2	0.20104	1.0548	0.0267
2	0.24765	1.0698	0.0271
2	0.29804	1.0879	0.0275

System: magnesium acetate + DL-2-aminopropanoic acid + water; phases: Liquid
Fixed: Pressure, kPa = 101
Fixed: Temperature, K = 298.15
Property: Mass density, kg/m3 (Liquid); method: Vibrating tube method
Solvent: Molality, mol/kg of magnesium acetate	Molality, mol/kg of DL-2-aminopropanoic acid	Mass density, kg/m3	uncertainty
0.5	0.05082	1034.643	1.877
0.5	0.17623	1037.788	1.883
0.5	0.27423	1040.212	1.887
0.5	0.33006	1041.593	1.89
0.5	0.40315	1043.362	1.893
0.5	0.49772	1045.598	1.897
0.5	0.58318	1047.632	1.901
1	0.08023	1065.48	1.934
1	0.2141	1068.517	1.939
1	0.2686	1069.701	1.941
1	0.32929	1071.039	1.943
1	0.35327	1071.594	1.945
1	0.36912	1071.941	1.945
1	0.45942	1073.917	1.949
1.5	0.09111	1091.798	1.981
1.5	0.25029	1095.046	1.987
1.5	0.30202	1096.098	1.989
1.5	0.35577	1097.187	1.991
1.5	0.48144	1099.672	1.996
1.5	0.50533	1100.164	1.997
1.5	0.58097	1101.579	1.999
2	0.04177	1113.265	2.021
2	0.08804	1114.145	2.022
2	0.17318	1115.76	2.025
2	0.28413	1117.785	2.029
2	0.43964	1120.58	2.034

System: magnesium acetate + (.+-.)-.alpha.-aminobutyric acid + water; phases: Liquid
Fixed: Pressure, kPa = 101
Fixed: Temperature, K = 298.15
Property: Viscosity, Pa*s (Liquid); method: Capillary tube (Ostwald; Ubbelohde) method
Solvent: Molality, mol/kg of magnesium acetate	Amount concentration (molarity), mol/dm3 of (.+-.)-.alpha.-aminobutyric acid	Viscosity, Pa*s	uncertainty
0.5	0.0363	1.0136	0.0182
0.5	0.07878	1.0286	0.0185
0.5	0.11296	1.0389	0.0187
0.5	0.15883	1.0605	0.019
0.5	0.1933	1.0717	0.0192
0.5	0.22503	1.0842	0.0195
1	0.03984	1.0147	0.0182
1	0.07667	1.0298	0.0185
1	0.11039	1.0397	0.0187
1	0.14121	1.0555	0.019
1	0.17592	1.0656	0.0191
1	0.2046	1.0772	0.0193
1.5	0.08353	1.0332	0.0186
1.5	0.12044	1.0468	0.0188
1.5	0.15669	1.0589	0.019
1.5	0.19122	1.0742	0.0193
1.5	0.22863	1.0877	0.0195
2	0.03322	1.0132	0.0182
2	0.07618	1.029	0.0185
2	0.11493	1.0431	0.0187
2	0.14743	1.0573	0.019
2	0.16981	1.0675	0.0192

System: magnesium acetate + (.+-.)-.alpha.-aminobutyric acid + water; phases: Liquid
Fixed: Pressure, kPa = 101
Fixed: Temperature, K = 298.15
Property: Mass density, kg/m3 (Liquid); method: Vibrating tube method
Solvent: Molality, mol/kg of magnesium acetate	Molality, mol/kg of (.+-.)-.alpha.-aminobutyric acid	Mass density, kg/m3	uncertainty
0.5	0.03891	1034.297	1.877
0.5	0.07487	1035.172	1.878
0.5	0.11296	1036.083	1.88
0.5	0.17439	1037.552	1.882
0.5	0.20799	1038.352	1.884
0.5	0.23731	1039.039	1.885
0.5	0.28017	1040.01	1.887
1	0.04248	1064.551	1.933
1	0.07402	1065.226	1.933
1	0.12012	1066.207	1.935
1	0.19094	1067.716	1.942
1	0.20298	1067.971	1.938
1	0.24199	1068.771	1.939
1.5	0.03817	1090.622	1.979
1.5	0.10559	1091.897	1.982
1.5	0.14724	1092.671	1.983
1.5	0.16628	1093.039	1.984
1.5	0.20413	1093.739	1.985
1.5	0.25537	1094.7	1.987

System: L-leucine + magnesium acetate + water; phases: Liquid
Fixed: Pressure, kPa = 101
Fixed: Temperature, K = 298.15
Property: Viscosity, Pa*s (Liquid); method: Capillary tube (Ostwald; Ubbelohde) method
Solvent: Molality, mol/kg of magnesium acetate	Molality, mol/kg of L-leucine	Viscosity, Pa*s	uncertainty
0.5	0.01002	1.0055	0.0181
0.5	0.01616	1.0088	0.0181
0.5	0.02192	1.012	0.0182
0.5	0.03061	1.0167	0.0183
0.5	0.03896	1.0213	0.0183
0.5	0.04406	1.0243	0.0184
1	0.01109	1.0061	0.0181
1	0.01679	1.0093	0.0181
1	0.02401	1.0133	0.0182
1	0.02832	1.0156	0.0182
1	0.03451	1.019	0.0183
1	0.04027	1.0223	0.0184
1.5	0.01102	1.0061	0.0181
1.5	0.02229	1.0125	0.0182
1.5	0.02731	1.0152	0.0182
1.5	0.03418	1.0189	0.0183
1.5	0.0408	1.023	0.0184

System: L-leucine + magnesium acetate + water; phases: Liquid
Fixed: Pressure, kPa = 101
Fixed: Temperature, K = 298.15
Property: Mass density, kg/m3 (Liquid); method: Vibrating tube method
Solvent: Molality, mol/kg of magnesium acetate	Molality, mol/kg of L-leucine	Mass density, kg/m3	uncertainty
0.5	0.00775	1033.501	1.875
0.5	0.01853	1033.709	1.875
0.5	0.02757	1033.883	1.876
0.5	0.0336	1033.998	1.876
0.5	0.04447	1034.203	1.876
0.5	0.04835	1034.28	1.876
0.5	0.05419	1034.391	1.877
1	0.01569	1063.885	1.938
1	0.023	1063.998	1.931
1	0.03219	1064.144	1.931
1	0.04555	1064.353	2.013
1	0.04804	1064.39	1.939
1	0.04903	1064.405	2.346
1	0.05355	1064.474	1.952
1.5	0.01489	1090.073	1.978
1.5	0.02846	1090.238	1.978
1.5	0.03201	1090.282	1.979
1.5	0.04444	1090.428	1.979
1.5	0.04781	1090.468	1.979
1.5	0.05748	1090.587	1.979

System: L-phenylalanine + magnesium acetate + water; phases: Liquid
Fixed: Pressure, kPa = 101
Fixed: Temperature, K = 298.15
Property: Viscosity, Pa*s (Liquid); method: Capillary tube (Ostwald; Ubbelohde) method
Solvent: Molality, mol/kg of magnesium acetate	Molality, mol/kg of L-phenylalanine	Viscosity, Pa*s	uncertainty
0.5	0.01035	1.0063	0.0181
0.5	0.01636	1.0098	0.0181
0.5	0.02177	1.0129	0.0182
0.5	0.02773	1.0165	0.0183
0.5	0.03191	1.0193	0.0183
0.5	0.03723	1.0223	0.0184
1	0.01017	1.0061	0.0181
1	0.01586	1.0095	0.0181
1	0.02262	1.0138	0.0182
1	0.02678	1.0163	0.0183
1	0.03298	1.02	0.0183
1	0.03733	1.0227	0.0184

System: L-phenylalanine + magnesium acetate + water; phases: Liquid
Fixed: Pressure, kPa = 101
Fixed: Temperature, K = 298.15
Property: Mass density, kg/m3 (Liquid); method: Vibrating tube method
Solvent: Molality, mol/kg of magnesium acetate	Molality, mol/kg of L-phenylalanine	Mass density, kg/m3	uncertainty
0.5	0.01335	1033.867	1.876
0.5	0.0207	1034.152	1.876
0.5	0.03276	1034.613	1.877
0.5	0.0409	1034.925	1.878
0.5	0.04146	1034.946	1.878
0.5	0.05089	1035.308	1.879
1	0.01163	1064.043	1.931
1	0.01871	1064.286	1.931
1	0.03333	1064.791	1.932
1	0.03772	1064.941	1.933
1	0.04189	1065.088	1.933
