Measured thermophysical data. Thermophysical properties of binary mixtures of {ionic liquid 2-hydroxy ethylammonium acetate + (water, methanol, or ethanol)}
Source: J. Chem. Thermodyn., 2011, 10.1016/j.jct.2011.01.014
Compound 1: 2-hydroxyethylammonium acetate, C4H11NO3, InChI=1S/C2H7NO.C2H4O2/c3-1-2-4;1-2(3)4/h4H,1-3H2;1H3,(H,3,4), purity 97%
Compound 2: water, H2O, InChI=1S/H2O/h1H2
Compound 3: methanol, CH4O, InChI=1S/CH4O/c1-2/h2H,1H3, purity 99.6%
Compound 4: ethanol, C2H6O, InChI=1S/C2H6O/c1-2-3/h3H,2H2,1H3, purity 99.6%

System: 2-hydroxyethylammonium acetate; phases: Liquid
Property: Speed of sound, m/s (Liquid); method: sound velocity cell
Temperature, K	Pressure, kPa	Speed of sound, m/s	uncertainty
298.15	101.325	1790.73	3.04

System: 2-hydroxyethylammonium acetate; phases: Liquid
Property: Mass density, kg/m3 (Liquid); method: Vibrating tube method
Temperature, K	Pressure, kPa	Mass density, kg/m3	uncertainty
298.15	101.325	1149.039	2.537

System: 2-hydroxyethylammonium acetate; phases: Liquid
Fixed: Pressure, kPa = 101
Property: Speed of sound, m/s (Liquid); method: sound velocity cell
Temperature, K	Speed of sound, m/s	uncertainty
288.15	1817.23	3.16
290.65	1809.95	3.16
293.15	1803.21	3.16
295.65	1796.84	3.16
298.15	1790.73	3.16
300.65	1784.81	3.16
303.15	1779.04	3.16
305.65	1773.43	3.16
308.15	1767.91	3.16
310.65	1762.5	3.16
313.15	1757.17	3.16
315.65	1751.86	3.16
318.15	1746.54	3.16
320.65	1741.26	3.16
323.15	1735.99	3.16

System: 2-hydroxyethylammonium acetate; phases: Liquid
Fixed: Pressure, kPa = 101
Property: Mass density, kg/m3 (Liquid); method: Vibrating tube method
Temperature, K	Mass density, kg/m3	uncertainty
288.15	1154.702	2.561
290.65	1153.284	2.555
293.15	1151.866	2.548
295.65	1150.452	2.542
300.65	1147.628	2.528
303.15	1146.216	2.522
305.65	1144.802	2.515
308.15	1143.386	2.509
310.65	1141.965	2.502
313.15	1140.545	2.496
315.15	1139.18	2.489
315.65	1139.18	2.489
318.15	1137.818	2.483
320.65	1136.449	2.477
323.15	1135.075	2.47

System: water; phases: Liquid
Fixed: Pressure, kPa = 101
Property: Speed of sound, m/s (Liquid); method: sound velocity cell
Temperature, K	Speed of sound, m/s	uncertainty
288.15	1466.4	1.01
290.65	1474.69	1.01
293.15	1482.53	1.01
295.65	1489.93	1.01
298.15	1496.89	1.01
300.65	1503.41	1.01
303.15	1509.48	1.01
305.65	1515.11	1.01
308.15	1520.3	1.01
310.65	1525.04	1.01
313.15	1529.34	1.01
315.65	1533.2	1.01
318.15	1536.62	1.01
320.65	1539.6	1.01
323.15	1542.13	1.01

System: water; phases: Liquid
Fixed: Pressure, kPa = 101
Property: Mass density, kg/m3 (Liquid); method: Vibrating tube method
Temperature, K	Mass density, kg/m3	uncertainty
288.15	999.1	0.068
290.65	998.68	0.068
293.15	998.2	0.068
295.65	997.65	0.068
298.15	997.04	0.068
300.65	996.37	0.069
303.15	995.65	0.069
305.65	994.86	0.069
308.15	994.03	0.069
310.65	993.15	0.07
313.15	992.21	0.07
315.15	991.24	0.07
318.15	990.21	0.07
320.65	989.15	0.071
323.15	988.04	0.071

System: methanol; phases: Liquid
Fixed: Pressure, kPa = 101
Property: Speed of sound, m/s (Liquid); method: sound velocity cell
Temperature, K	Speed of sound, m/s	uncertainty
288.15	1136.34	1.09
290.65	1127.69	1.09
293.15	1119.49	1.09
295.65	1111.28	1.09
298.15	1102.98	1.09
300.65	1094.69	1.09
303.15	1086.46	1.08
305.65	1078.3	1.08
308.15	1070.15	1.08
310.65	1062.07	1.08
313.15	1053.97	1.08
315.65	1045.91	1.08
318.15	1037.93	1.08
320.65	1029.9	1.08
323.15	1021.99	1.08

System: methanol; phases: Liquid
Fixed: Pressure, kPa = 101
Property: Mass density, kg/m3 (Liquid); method: Vibrating tube method
Temperature, K	Mass density, kg/m3	uncertainty
288.15	796.694	0.141
290.65	793.768	0.141
293.15	791.418	0.14
295.65	789.066	0.141
298.15	786.71	0.141
300.65	784.349	0.142
303.15	781.983	0.143
305.65	779.612	0.143
308.15	777.234	0.144
310.65	774.851	0.145
313.15	772.458	0.145
315.65	770.058	0.146
318.15	767.647	0.147
320.65	765.229	0.147
323.15	762.809	0.148

System: ethanol; phases: Liquid
Fixed: Pressure, kPa = 101
Property: Speed of sound, m/s (Liquid); method: sound velocity cell
Temperature, K	Speed of sound, m/s	uncertainty
288.15	1177.84	1.09
290.65	1169.17	1.09
293.15	1160.63	1.09
295.65	1152.03	1.09
298.15	1143.5	1.09
300.65	1134.98	1.09
303.15	1126.5	1.09
305.65	1118.06	1.09
308.15	1109.66	1.09
310.65	1101.24	1.09
313.15	1092.85	1.09
315.65	1084.53	1.09
318.15	1076.22	1.09
320.65	1067.9	1.09
323.15	1059.58	1.09

System: ethanol; phases: Liquid
Fixed: Pressure, kPa = 101
Property: Mass density, kg/m3 (Liquid); method: Vibrating tube method
Temperature, K	Mass density, kg/m3	uncertainty
288.15	793.828	0.138
290.65	791.692	0.139
293.15	789.553	0.14
295.65	787.411	0.14
298.15	785.261	0.141
300.65	783.106	0.141
303.15	780.944	0.142
305.65	778.773	0.143
308.15	776.593	0.143
310.65	774.405	0.144
313.15	772.204	0.145
315.65	769.995	0.145
318.15	767.77	0.146
320.65	765.534	0.146
323.15	763.296	0.147

System: water + 2-hydroxyethylammonium acetate; phases: Liquid
Fixed: Pressure, kPa = 101
Property: Speed of sound, m/s (Liquid); method: sound velocity cell
Temperature, K	Mole fraction of 2-hydroxyethylammonium acetate	Speed of sound, m/s	uncertainty
288.15	0	1466.4	1.01
288.15	0.051	1676.33	3.21
288.15	0.1019	1768.92	1.56
288.15	0.1963	1838.97	1.31
288.15	0.2894	1851.11	1.37
288.15	0.3959	1843.14	1.6
288.15	0.5016	1833.58	1.85
288.15	0.5821	1831.56	2.05
288.15	0.6837	1824.35	2.31
288.15	0.7763	1824.4	2.56
288.15	0.8761	1817.14	2.83
288.15	0.9137	1819.47	2.93
288.15	1	1817.23	3.16
290.65	0	1474.69	1.01
290.65	0.051	1679.03	3.06
290.65	0.1019	1768.58	1.47
290.65	0.1963	1836.08	1.28
290.65	0.2894	1847.26	1.37
290.65	0.3959	1838.65	1.6
290.65	0.5016	1828.68	1.85
290.65	0.5821	1826.48	2.05
290.65	0.6837	1818.91	2.31
290.65	0.7763	1818.55	2.56
290.65	0.8761	1810.65	2.83
290.65	0.9137	1812.82	2.93
290.65	1	1809.95	3.16
293.15	0	1482.53	1.01
293.15	0.051	1681.43	2.99
293.15	0.1019	1768.09	1.45
293.15	0.1963	1833.14	1.27
293.15	0.2894	1843.39	1.37
293.15	0.3959	1834.17	1.6
293.15	0.5016	1823.86	1.85
293.15	0.5821	1821.56	2.05
293.15	0.6837	1813.61	2.31
293.15	0.7763	1812.94	2.56
293.15	0.8761	1804.56	2.83
293.15	0.9137	1806.51	2.93
293.15	1	1803.21	3.16
295.65	0	1489.93	1.01
295.65	0.051	1683.59	2.91
295.65	0.1019	1767.46	1.42
295.65	0.1963	1830.11	1.26
295.65	0.2894	1839.5	1.37
295.65	0.3959	1829.67	1.6
295.65	0.5016	1819.1	1.85
295.65	0.5821	1816.53	2.05
295.65	0.6837	1808.4	2.31
295.65	0.7763	1807.46	2.56
295.65	0.8761	1798.69	2.83
295.65	0.9137	1800.52	2.93
295.65	1	1796.84	3.16
298.15	0	1496.89	1.01
298.15	0.051	1685.51	2.84
298.15	0.1019	1766.71	1.4
298.15	0.1963	1827.04	1.26
298.15	0.2894	1835.55	1.37
298.15	0.3959	1825.16	1.6
298.15	0.5016	1814.18	1.85
298.15	0.5821	1811.61	2.05
298.15	0.6837	1803.28	2.31
298.15	0.7763	1802.14	2.56
298.15	0.8761	1793.01	2.83
298.15	0.9137	1794.74	2.93
298.15	1	1790.73	3.16
300.65	0	1503.41	1.01
300.65	0.051	1687.16	2.77
300.65	0.1019	1765.84	1.38
300.65	0.1963	1823.87	1.25
300.65	0.2894	1831.58	1.37
300.65	0.3959	1820.61	1.6
300.65	0.5016	1809.38	1.85
300.65	0.5821	1806.72	2.05
300.65	0.6837	1798.24	2.31
300.65	0.7763	1796.9	2.56
300.65	0.8761	1787.44	2.83
300.65	0.9137	1789.11	2.93
300.65	1	1784.81	3.16
303.15	0	1509.48	1.01
303.15	0.051	1688.61	2.71
303.15	0.1019	1764.8	1.36
303.15	0.1963	1820.63	1.25
303.15	0.2894	1827.54	1.37
303.15	0.3959	1816.05	1.6
303.15	0.5016	1804.6	1.85
303.15	0.5821	1801.86	2.05
303.15	0.6837	1793.18	2.31
303.15	0.7763	1791.71	2.56
303.15	0.8761	1781.98	2.83
303.15	0.9137	1783.58	2.93
303.15	1	1779.04	3.16
305.65	0	1515.11	1.01
305.65	0.051	1689.81	2.65
305.65	0.1019	1763.63	1.35
305.65	0.1963	1817.32	1.25
305.65	0.2894	1823.45	1.37
305.65	0.3959	1811.5	1.6
305.65	0.5016	1799.82	1.85
305.65	0.5821	1797	2.05
305.65	0.6837	1788.16	2.31
305.65	0.7763	1786.56	2.56
305.65	0.8761	1776.59	2.83
305.65	0.9137	1778.14	2.93
305.65	1	1773.43	3.16
308.15	0	1520.3	1.01
308.15	0.051	1690.78	2.59
308.15	0.1019	1762.3	1.33
308.15	0.1963	1813.98	1.24
308.15	0.2894	1819.34	1.37
308.15	0.3959	1806.94	1.61
308.15	0.5016	1795.01	1.85
308.15	0.5821	1792.13	2.05
308.15	0.6837	1783.15	2.31
308.15	0.7763	1781.44	2.56
308.15	0.8761	1771.28	2.83
308.15	0.9137	1772.79	2.93
308.15	1	1767.91	3.16
310.65	0	1525.04	1.01
310.65	0.051	1691.51	2.53
310.65	0.1019	1760.83	1.31
310.65	0.1963	1810.58	1.24
310.65	0.2894	1815.22	1.37
310.65	0.3959	1802.36	1.61
310.65	0.5016	1790.2	1.85
310.65	0.5821	1787.24	2.05
310.65	0.6837	1778.15	2.31
310.65	0.7763	1776.34	2.56
310.65	0.8761	1766.04	2.83
310.65	0.9137	1767.5	2.93
310.65	1	1762.5	3.16
313.15	0	1529.34	1.01
313.15	0.051	1692.01	2.48
313.15	0.1019	1759.23	1.3
313.15	0.1963	1807.09	1.24
313.15	0.2894	1811.06	1.37
313.15	0.3959	1797.72	1.61
313.15	0.5016	1785.34	1.85
313.15	0.5821	1782.34	2.05
313.15	0.6837	1773.15	2.31
313.15	0.7763	1771.26	2.56
313.15	0.8761	1760.85	2.83
313.15	0.9137	1762.29	2.93
313.15	1	1757.17	3.16
315.65	0	1533.2	1.01
315.65	0.051	1692.28	2.43
315.65	0.1019	1757.46	1.29
315.65	0.1963	1803.54	1.23
315.65	0.2894	1806.87	1.37
315.65	0.3959	1793.08	1.61
315.65	0.5016	1780.48	1.85
315.65	0.5821	1777.43	2.05
315.65	0.6837	1768.17	2.31
315.65	0.7763	1766.21	2.56
315.65	0.8761	1755.69	2.83
315.65	0.9137	1757.1	2.93
315.65	1	1751.86	3.16
318.15	0	1536.62	1.01
318.15	0.051	1692.33	2.38
318.15	0.1019	1755.54	1.27
318.15	0.1963	1799.88	1.23
318.15	0.2894	1802.57	1.38
318.15	0.3959	1788.37	1.61
318.15	0.5016	1775.6	1.85
318.15	0.5821	1772.55	2.05
318.15	0.6837	1763.19	2.31
318.15	0.7763	1761.19	2.56
318.15	0.8761	1750.48	2.83
318.15	0.9137	1751.89	2.93
318.15	1	1746.54	3.16
320.65	0	1539.6	1.01
320.65	0.051	1692.16	2.34
320.65	0.1019	1753.45	1.26
320.65	0.1963	1796.14	1.23
320.65	0.2894	1798.25	1.38
320.65	0.3959	1783.64	1.61
320.65	0.5016	1770.73	1.85
320.65	0.5821	1767.63	2.05
320.65	0.6837	1758.22	2.31
320.65	0.7763	1756.14	2.56
320.65	0.8761	1745.3	2.83
320.65	0.9137	1746.7	2.93
320.65	1	1741.26	3.16
323.15	0	1542.13	1.01
323.15	0.051	1691.79	2.35
323.15	0.1019	1751.19	1.29
323.15	0.1963	1792.35	1.25
323.15	0.2894	1793.89	1.38
323.15	0.3959	1778.92	1.61
323.15	0.5016	1765.89	1.85
323.15	0.5821	1762.79	2.05
323.15	0.6837	1753.26	2.31
323.15	0.7763	1751.03	2.56
323.15	0.8761	1740.16	2.83
323.15	0.9137	1741.5	2.93
323.15	1	1735.99	3.16

System: water + 2-hydroxyethylammonium acetate; phases: Liquid
Fixed: Pressure, kPa = 101
Property: Mass density, kg/m3 (Liquid); method: Vibrating tube method
Temperature, K	Mole fraction of 2-hydroxyethylammonium acetate	Mass density, kg/m3	uncertainty
288.15	0	999.1	0.068
288.15	0.051	1055.262	0.858
288.15	0.1019	1085.138	0.43
288.15	0.1963	1116.518	0.316
288.15	0.2894	1131.278	0.328
288.15	0.3959	1140.754	0.493
288.15	0.5016	1145.825	0.723
288.15	0.5821	1148.341	0.936
288.15	0.6837	1150.311	1.249
288.15	0.7763	1152.168	1.581
288.15	0.8761	1153.585	1.987
288.15	0.9137	1153.92	2.153
288.15	1	1154.702	2.561
290.65	0	998.68	0.068
290.65	0.051	1054.356	0.842
290.65	0.1019	1084.059	0.414
290.65	0.1963	1115.238	0.308
290.65	0.2894	1129.935	0.327
290.65	0.3959	1139.382	0.492
290.65	0.5016	1144.466	0.722
290.65	0.5821	1146.91	0.933
290.65	0.6837	1148.881	1.246
290.65	0.7763	1150.752	1.577
290.65	0.8761	1152.164	1.982
290.65	0.9137	1152.503	2.147
290.65	1	1153.284	2.555
293.15	0	998.2	0.068
293.15	0.051	1053.411	0.836
293.15	0.1019	1082.965	0.412
293.15	0.1963	1113.953	0.306
293.15	0.2894	1128.588	0.326
293.15	0.3959	1138.005	0.491
293.15	0.5016	1143.092	0.72
293.15	0.5821	1145.54	0.931
293.15	0.6837	1147.451	1.243
293.15	0.7763	1149.335	1.573
293.15	0.8761	1150.746	1.977
293.15	0.9137	1151.087	2.142
293.15	1	1151.866	2.548
295.65	0	997.65	0.068
295.65	0.051	1052.438	0.831
295.65	0.1019	1081.85	0.41
295.65	0.1963	1112.659	0.305
295.65	0.2894	1127.238	0.325
295.65	0.3959	1136.622	0.489
295.65	0.5016	1141.714	0.717
295.65	0.5821	1144.182	0.928
295.65	0.6837	1146.019	1.239
295.65	0.7763	1147.918	1.569
295.65	0.8761	1149.328	1.971
295.65	0.9137	1149.674	2.136
295.65	1	1150.452	2.542
298.15	0	997.04	0.068
298.15	0.051	1051.433	0.826
298.15	0.1019	1080.717	0.408
298.15	0.1963	1111.361	0.304
298.15	0.2894	1125.886	0.324
298.15	0.3959	1135.241	0.488
298.15	0.5016	1140.333	0.715
298.15	0.5821	1142.818	0.926
298.15	0.6837	1144.634	1.236
298.15	0.7763	1146.499	1.564
298.15	0.8761	1147.908	1.966
298.15	0.9137	1148.26	2.13
298.15	1	1149.039	2.535
300.65	0	996.37	0.069
300.65	0.051	1050.382	0.821
300.65	0.1019	1079.566	0.406
300.65	0.1963	1110.056	0.302
300.65	0.2894	1124.528	0.323
300.65	0.3959	1133.856	0.486
300.65	0.5016	1138.942	0.713
300.65	0.5821	1141.445	0.923
300.65	0.6837	1143.271	1.233
300.65	0.7763	1145.078	1.56
300.65	0.8761	1146.49	1.961
300.65	0.9137	1146.846	2.125
300.65	1	1147.628	2.528
303.15	0	995.65	0.069
303.15	0.051	1049.299	0.817
303.15	0.1019	1078.395	0.405
303.15	0.1963	1108.745	0.301
303.15	0.2894	1123.167	0.322
303.15	0.3959	1132.471	0.485
303.15	0.5016	1137.555	0.711
303.15	0.5821	1140.067	0.921
303.15	0.6837	1141.902	1.229
303.15	0.7763	1143.669	1.556
303.15	0.8761	1145.068	1.956
303.15	0.9137	1145.431	2.119
303.15	1	1146.216	2.522
305.65	0	994.86	0.069
305.65	0.051	1048.184	0.813
305.65	0.1019	1077.207	0.403
305.65	0.1963	1107.426	0.3
305.65	0.2894	1121.803	0.321
305.65	0.3959	1131.08	0.483
305.65	0.5016	1136.165	0.709
305.65	0.5821	1138.682	0.918
305.65	0.6837	1140.524	1.226
305.65	0.7763	1142.309	1.552
305.65	0.8761	1143.646	1.951
305.65	0.9137	1144.012	2.114
305.65	1	1144.802	2.515
308.15	0	994.03	0.069
308.15	0.051	1047.038	0.809
308.15	0.1019	1075.999	0.402
308.15	0.1963	1106.101	0.299
308.15	0.2894	1120.435	0.32
308.15	0.3959	1129.689	0.482
308.15	0.5016	1134.769	0.707
308.15	0.5821	1137.297	0.916
308.15	0.6837	1139.143	1.223
308.15	0.7763	1140.954	1.548
308.15	0.8761	1142.229	1.945
308.15	0.9137	1142.593	2.108
308.15	1	1143.386	2.509
310.65	0	993.15	0.07
310.65	0.051	1045.858	0.806
310.65	0.1019	1074.775	0.401
310.65	0.1963	1104.764	0.298
310.65	0.2894	1119.064	0.318
310.65	0.3959	1128.297	0.48
310.65	0.5016	1133.376	0.705
310.65	0.5821	1135.914	0.913
310.65	0.6837	1137.762	1.219
310.65	0.7763	1139.584	1.544
310.65	0.8761	1140.867	1.94
310.65	0.9137	1141.201	2.103
310.65	1	1141.965	2.502
313.15	0	992.21	0.07
313.15	0.051	1044.653	0.803
313.15	0.1019	1073.54	0.4
313.15	0.1963	1103.422	0.297
313.15	0.2894	1117.687	0.318
313.15	0.3959	1126.901	0.479
313.15	0.5016	1131.979	0.703
313.15	0.5821	1134.527	0.91
313.15	0.6837	1136.367	1.216
313.15	0.7763	1138.213	1.54
313.15	0.8761	1139.504	1.936
313.15	0.9137	1139.839	2.097
313.15	1	1140.545	2.496
315.15	0	991.24	0.07
315.15	0.051	1043.455	0.8
315.15	0.1019	1072.285	0.398
315.15	0.1963	1102.071	0.295
315.15	0.2894	1116.306	0.316
315.15	0.3959	1125.501	0.477
315.15	0.5016	1130.577	0.701
315.15	0.5821	1133.133	0.908
315.15	0.6837	1134.979	1.213
315.15	0.7763	1136.833	1.536
315.15	0.8761	1138.137	1.931
315.15	0.9137	1138.477	2.092
315.15	1	1139.18	2.489
318.15	0	990.21	0.07
318.15	0.051	1042.251	0.798
318.15	0.1019	1071.022	0.398
318.15	0.1963	1100.713	0.295
318.15	0.2894	1114.919	0.315
318.15	0.3959	1124.097	0.476
318.15	0.5016	1129.176	0.699
318.15	0.5821	1131.74	0.905
318.15	0.6837	1133.587	1.209
318.15	0.7763	1135.45	1.532
318.15	0.8761	1136.758	1.926
318.15	0.9137	1137.11	2.087
318.15	1	1137.818	2.483
320.65	0	989.15	0.071
320.65	0.051	1041.083	0.795
320.65	0.1019	1069.744	0.396
320.65	0.1963	1099.344	0.294
320.65	0.2894	1113.527	0.314
320.65	0.3959	1122.692	0.474
320.65	0.5016	1127.768	0.697
320.65	0.5821	1130.345	0.903
320.65	0.6837	1132.189	1.206
320.65	0.7763	1134.064	1.528
320.65	0.8761	1135.375	1.921
320.65	0.9137	1135.735	2.081
320.65	1	1136.449	2.477
323.15	0	988.04	0.071
323.15	0.051	1040.148	0.806
323.15	0.1019	1068.467	0.414
323.15	0.1963	1097.974	0.309
323.15	0.2894	1112.14	0.318
323.15	0.3959	1121.292	0.474
323.15	0.5016	1126.361	0.695
323.15	0.5821	1128.951	0.9
323.15	0.6837	1130.791	1.203
323.15	0.7763	1132.672	1.524
323.15	0.8761	1133.996	1.916
323.15	0.9137	1134.359	2.076
323.15	1	1135.075	2.47

System: water + 2-hydroxyethylammonium acetate; phases: Liquid
Fixed: Pressure, kPa = 101
Property: Excess molar volume, m3/mol (Liquid); method: Calculated with densities of this investigation
Temperature, K	Mole fraction of 2-hydroxyethylammonium acetate	Excess molar volume, m3/mol	uncertainty
288.15	0	0	7.7e-09
288.15	0.051	-4.061e-07	1.05e-08
288.15	0.1019	-5.988e-07	9.6e-09
288.15	0.1963	-8.196e-07	9.8e-09
288.15	0.2894	-8.685e-07	9.8e-09
288.15	0.3959	-8.446e-07	9.7e-09
288.15	0.5016	-7.431e-07	9.5e-09
288.15	0.5821	-6.411e-07	9.4e-09
288.15	0.6837	-4.759e-07	9e-09
288.15	0.7763	-3.568e-07	8.7e-09
288.15	0.8761	-2.102e-07	8.4e-09
288.15	0.9137	-1.439e-07	8.3e-09
288.15	1	0	7.7e-09
290.65	0	0	7.7e-09
290.65	0.051	-4.01e-07	1.04e-08
290.65	0.1019	-5.926e-07	9.5e-09
290.65	0.1963	-8.117e-07	9.7e-09
290.65	0.2894	-8.61e-07	9.7e-09
290.65	0.3959	-8.382e-07	9.7e-09
290.65	0.5016	-7.393e-07	9.5e-09
290.65	0.5821	-6.345e-07	9.3e-09
290.65	0.6837	-4.707e-07	9e-09
290.65	0.7763	-3.539e-07	8.7e-09
290.65	0.8761	-2.083e-07	8.4e-09
290.65	0.9137	-1.428e-07	8.2e-09
290.65	1	0	7.7e-09
293.15	0	0	7.7e-09
293.15	0.051	-3.96e-07	1.04e-08
293.15	0.1019	-5.87e-07	9.5e-09
293.15	0.1963	-8.045e-07	9.7e-09
293.15	0.2894	-8.54e-07	9.7e-09
293.15	0.3959	-8.321e-07	9.7e-09
293.15	0.5016	-7.352e-07	9.5e-09
293.15	0.5821	-6.321e-07	9.3e-09
293.15	0.6837	-4.659e-07	8.9e-09
293.15	0.7763	-3.512e-07	8.7e-09
293.15	0.8761	-2.068e-07	8.4e-09
293.15	0.9137	-1.419e-07	8.2e-09
293.15	1	0	7.7e-09
295.65	0	0	7.7e-09
295.65	0.051	-3.916e-07	1.04e-08
295.65	0.1019	-5.819e-07	9.5e-09
295.65	0.1963	-7.979e-07	9.7e-09
295.65	0.2894	-8.477e-07	9.7e-09
295.65	0.3959	-8.264e-07	9.7e-09
295.65	0.5016	-7.314e-07	9.5e-09
295.65	0.5821	-6.306e-07	9.3e-09
295.65	0.6837	-4.61e-07	8.9e-09
295.65	0.7763	-3.484e-07	8.7e-09
295.65	0.8761	-2.051e-07	8.4e-09
295.65	0.9137	-1.41e-07	8.2e-09
295.65	1	0	7.7e-09
298.15	0	0	7.7e-09
298.15	0.051	-3.876e-07	1.03e-08
298.15	0.1019	-5.774e-07	9.5e-09
298.15	0.1963	-7.92e-07	9.7e-09
298.15	0.2894	-8.42e-07	9.7e-09
298.15	0.3959	-8.213e-07	9.7e-09
298.15	0.5016	-7.278e-07	9.5e-09
298.15	0.5821	-6.292e-07	9.3e-09
298.15	0.6837	-4.596e-07	8.9e-09
298.15	0.7763	-3.457e-07	8.7e-09
298.15	0.8761	-2.032e-07	8.3e-09
298.15	0.9137	-1.401e-07	8.2e-09
298.15	1	0	7.7e-09
300.65	0	0	7.7e-09
300.65	0.051	-3.835e-07	1.03e-08
300.65	0.1019	-5.734e-07	9.5e-09
300.65	0.1963	-7.868e-07	9.7e-09
300.65	0.2894	-8.368e-07	9.7e-09
300.65	0.3959	-8.167e-07	9.7e-09
300.65	0.5016	-7.242e-07	9.5e-09
300.65	0.5821	-6.276e-07	9.3e-09
300.65	0.6837	-4.598e-07	8.9e-09
300.65	0.7763	-3.429e-07	8.6e-09
300.65	0.8761	-2.015e-07	8.3e-09
300.65	0.9137	-1.39e-07	8.2e-09
300.65	1	0	7.7e-09
303.15	0	0	7.7e-09
303.15	0.051	-3.797e-07	1.03e-08
303.15	0.1019	-5.697e-07	9.5e-09
303.15	0.1963	-7.821e-07	9.7e-09
303.15	0.2894	-8.322e-07	9.7e-09
303.15	0.3959	-8.126e-07	9.6e-09
303.15	0.5016	-7.213e-07	9.5e-09
303.15	0.5821	-6.261e-07	9.3e-09
303.15	0.6837	-4.6e-07	8.9e-09
303.15	0.7763	-3.412e-07	8.6e-09
303.15	0.8761	-1.997e-07	8.3e-09
303.15	0.9137	-1.381e-07	8.2e-09
303.15	1	0	7.7e-09
305.65	0	0	7.7e-09
305.65	0.051	-3.764e-07	1.03e-08
305.65	0.1019	-5.667e-07	9.4e-09
305.65	0.1963	-7.781e-07	9.7e-09
305.65	0.2894	-8.284e-07	9.7e-09
305.65	0.3959	-8.091e-07	9.6e-09
305.65	0.5016	-7.189e-07	9.5e-09
305.65	0.5821	-6.248e-07	9.3e-09
305.65	0.6837	-4.602e-07	8.9e-09
305.65	0.7763	-3.437e-07	8.7e-09
305.65	0.8761	-1.982e-07	8.3e-09
305.65	0.9137	-1.37e-07	8.2e-09
305.65	1	0	7.7e-09
308.15	0	0	7.7e-09
308.15	0.051	-3.731e-07	1.02e-08
308.15	0.1019	-5.639e-07	9.4e-09
308.15	0.1963	-7.746e-07	9.6e-09
308.15	0.2894	-8.25e-07	9.7e-09
308.15	0.3959	-8.06e-07	9.6e-09
308.15	0.5016	-7.167e-07	9.5e-09
308.15	0.5821	-6.239e-07	9.3e-09
308.15	0.6837	-4.604e-07	8.9e-09
308.15	0.7763	-3.468e-07	8.7e-09
308.15	0.8761	-1.973e-07	8.3e-09
308.15	0.9137	-1.362e-07	8.2e-09
308.15	1	0	7.7e-09
310.15	0	0	7.7e-09
310.15	0.051	-3.7e-07	1.02e-08
310.15	0.1019	-5.616e-07	9.4e-09
310.15	0.1963	-7.715e-07	9.6e-09
310.15	0.2894	-8.222e-07	9.7e-09
310.15	0.3959	-8.037e-07	9.6e-09
310.15	0.5016	-7.153e-07	9.5e-09
310.15	0.5821	-6.238e-07	9.3e-09
310.15	0.6837	-4.613e-07	8.9e-09
310.15	0.7763	-3.494e-07	8.7e-09
310.15	0.8761	-2.016e-07	8.4e-09
310.15	0.9137	-1.382e-07	8.2e-09
310.15	1	0	7.7e-09
313.15	0	0	7.7e-09
313.15	0.051	-3.674e-07	1.02e-08
313.15	0.1019	-5.6e-07	9.4e-09
313.15	0.1963	-7.692e-07	9.6e-09
313.15	0.2894	-8.199e-07	9.7e-09
313.15	0.3959	-8.017e-07	9.6e-09
313.15	0.5016	-7.142e-07	9.5e-09
313.15	0.5821	-6.239e-07	9.3e-09
313.15	0.6837	-4.616e-07	8.9e-09
313.15	0.7763	-3.522e-07	8.7e-09
313.15	0.8761	-2.058e-07	8.4e-09
313.15	0.9137	-1.429e-07	8.2e-09
313.15	1	0	7.7e-09
315.15	0	0	7.7e-09
315.15	0.051	-3.652e-07	1.02e-08
315.15	0.1019	-5.578e-07	9.4e-09
315.15	0.1963	-7.659e-07	9.6e-09
315.15	0.2894	-8.164e-07	9.6e-09
315.15	0.3959	-7.979e-07	9.6e-09
315.15	0.5016	-7.104e-07	9.4e-09
315.15	0.5821	-6.208e-07	9.3e-09
315.15	0.6837	-4.589e-07	8.9e-09
315.15	0.7763	-3.503e-07	8.7e-09
315.15	0.8761	-2.053e-07	8.4e-09
315.15	0.9137	-1.429e-07	8.2e-09
315.15	1	0	7.7e-09
318.15	0	0	7.7e-09
318.15	0.051	-3.638e-07	1.02e-08
318.15	0.1019	-5.564e-07	9.4e-09
318.15	0.1963	-7.633e-07	9.6e-09
318.15	0.2894	-8.134e-07	9.6e-09
318.15	0.3959	-7.944e-07	9.6e-09
318.15	0.5016	-7.072e-07	9.4e-09
318.15	0.5821	-6.18e-07	9.3e-09
318.15	0.6837	-4.562e-07	8.9e-09
318.15	0.7763	-3.483e-07	8.7e-09
318.15	0.8761	-2.036e-07	8.4e-09
318.15	0.9137	-1.423e-07	8.2e-09
318.15	1	0	7.7e-09
320.65	0	0	7.7e-09
320.65	0.051	-3.638e-07	1.02e-08
320.65	0.1019	-5.551e-07	9.4e-09
320.65	0.1963	-7.608e-07	9.6e-09
320.65	0.2894	-8.107e-07	9.6e-09
320.65	0.3959	-7.914e-07	9.6e-09
320.65	0.5016	-7.041e-07	9.4e-09
320.65	0.5821	-6.157e-07	9.3e-09
320.65	0.6837	-4.536e-07	8.9e-09
320.65	0.7763	-3.467e-07	8.7e-09
320.65	0.8761	-2.023e-07	8.3e-09
320.65	0.9137	-1.417e-07	8.2e-09
320.65	1	0	7.7e-09
323.15	0	0	7.7e-09
323.15	0.051	-3.697e-07	1.02e-08
323.15	0.1019	-5.548e-07	9.4e-09
323.15	0.1963	-7.592e-07	9.6e-09
323.15	0.2894	-8.089e-07	9.6e-09
323.15	0.3959	-7.894e-07	9.6e-09
323.15	0.5016	-7.018e-07	9.4e-09
323.15	0.5821	-6.141e-07	9.3e-09
323.15	0.6837	-4.516e-07	8.9e-09
323.15	0.7763	-3.451e-07	8.6e-09
323.15	0.8761	-2.018e-07	8.3e-09
323.15	0.9137	-1.415e-07	8.2e-09
323.15	1	0	7.7e-09

System: methanol + 2-hydroxyethylammonium acetate; phases: Liquid
Fixed: Pressure, kPa = 101
Property: Speed of sound, m/s (Liquid); method: sound velocity cell
Temperature, K	Mole fraction of 2-hydroxyethylammonium acetate	Speed of sound, m/s	uncertainty
288.15	0	1136.34	1.09
288.15	0.0492	1214.76	1.86
288.15	0.0951	1276.77	1.66
288.15	0.1987	1390.34	1.7
288.15	0.29	1476.08	1.75
288.15	0.3786	1545.44	1.86
288.15	0.4825	1618.37	2.04
288.15	0.6007	1688.04	2.28
288.15	0.6711	1725.14	2.38
288.15	0.7797	1740.76	2.69
288.15	0.8297	1797.77	2.78
288.15	0.9328	1795.27	3.01
288.15	1	1817.23	3.16
290.65	0	1127.69	1.09
290.65	0.0492	1207.23	1.88
290.65	0.0951	1269.39	1.66
290.65	0.1987	1383.4	1.71
290.65	0.29	1469.47	1.76
290.65	0.3786	1538.9	1.86
290.65	0.4825	1612.3	2.04
290.65	0.6007	1681.64	2.28
290.65	0.6711	1718.61	2.38
290.65	0.7797	1734.62	2.65
290.65	0.8297	1790.72	2.76
290.65	0.9328	1787.94	3
290.65	1	1809.95	3.16
293.15	0	1119.49	1.09
293.15	0.0492	1199.77	1.88
293.15	0.0951	1262.08	1.67
293.15	0.1987	1376.31	1.71
293.15	0.29	1462.77	1.76
293.15	0.3786	1532.41	1.87
293.15	0.4825	1606.2	2.04
293.15	0.6007	1675.24	2.28
293.15	0.6711	1712.12	2.38
293.15	0.7797	1728.63	2.65
293.15	0.8297	1784.03	2.76
293.15	0.9328	1781.08	3
293.15	1	1803.21	3.16
295.65	0	1111.28	1.09
295.65	0.0492	1192.06	1.89
295.65	0.0951	1254.62	1.67
295.65	0.1987	1369.24	1.71
295.65	0.29	1456.01	1.76
295.65	0.3786	1525.89	1.87
295.65	0.4825	1600.01	2.04
295.65	0.6007	1669.08	2.28
295.65	0.6711	1705.79	2.38
295.65	0.7797	1722.73	2.65
295.65	0.8297	1777.55	2.76
295.65	0.9328	1774.52	3
295.65	1	1796.84	3.16
298.15	0	1102.98	1.09
298.15	0.0492	1184.3	1.9
298.15	0.0951	1247.05	1.67
298.15	0.1987	1362.18	1.71
298.15	0.29	1449.35	1.76
298.15	0.3786	1519.48	1.87
298.15	0.4825	1593.89	2.04
298.15	0.6007	1662.98	2.28
298.15	0.6711	1699.69	2.39
298.15	0.7797	1716.96	2.65
298.15	0.8297	1771.31	2.76
298.15	0.9328	1768.21	3
298.15	1	1790.73	3.16
300.65	0	1094.69	1.09
300.65	0.0492	1176.55	1.9
300.65	0.0951	1239.52	1.67
300.65	0.1987	1355.13	1.72
300.65	0.29	1442.66	1.77
300.65	0.3786	1513.09	1.87
300.65	0.4825	1587.8	2.04
300.65	0.6007	1656.99	2.28
300.65	0.6711	1693.66	2.39
300.65	0.7797	1711.28	2.65
300.65	0.8297	1765.26	2.76
300.65	0.9328	1762.14	3
300.65	1	1784.81	3.16
303.15	0	1086.46	1.08
303.15	0.0492	1168.82	1.91
303.15	0.0951	1232	1.68
303.15	0.1987	1348.07	1.72
303.15	0.29	1435.98	1.77
303.15	0.3786	1506.71	1.87
303.15	0.4825	1581.73	2.04
303.15	0.6007	1651.03	2.28
303.15	0.6711	1687.7	2.39
303.15	0.7797	1705.67	2.65
303.15	0.8297	1759.39	2.76
303.15	0.9328	1756.27	3
303.15	1	1779.04	3.16
305.65	0	1078.3	1.08
305.65	0.0492	1161.06	1.91
305.65	0.0951	1224.49	1.68
305.65	0.1987	1341.04	1.72
305.65	0.29	1429.29	1.77
305.65	0.3786	1500.33	1.87
305.65	0.4825	1575.66	2.04
305.65	0.6007	1645.07	2.28
305.65	0.6711	1681.75	2.39
305.65	0.7797	1700.09	2.65
305.65	0.8297	1753.66	2.76
305.65	0.9328	1750.55	3
305.65	1	1773.43	3.16
308.15	0	1070.15	1.08
308.15	0.0492	1153.32	1.92
308.15	0.0951	1217.03	1.68
308.15	0.1987	1334.04	1.72
308.15	0.29	1422.66	1.77
308.15	0.3786	1493.97	1.87
308.15	0.4825	1569.57	2.04
308.15	0.6007	1639.15	2.28
308.15	0.6711	1675.91	2.39
308.15	0.7797	1694.51	2.65
308.15	0.8297	1747.99	2.76
308.15	0.9328	1744.9	3
308.15	1	1767.91	3.16
310.65	0	1062.07	1.08
310.65	0.0492	1145.56	1.93
310.65	0.0951	1209.57	1.69
310.65	0.1987	1327.02	1.73
310.65	0.29	1416	1.77
310.65	0.3786	1487.63	1.87
310.65	0.4825	1563.52	2.04
310.65	0.6007	1633.27	2.28
310.65	0.6711	1670.08	2.39
310.65	0.7797	1688.95	2.65
310.65	0.8297	1742.35	2.76
310.65	0.9328	1739.34	3
310.65	1	1762.5	3.16
313.15	0	1053.97	1.08
313.15	0.0492	1137.85	1.93
313.15	0.0951	1202.11	1.69
313.15	0.1987	1320.02	1.73
313.15	0.29	1409.34	1.77
313.15	0.3786	1481.29	1.88
313.15	0.4825	1557.49	2.04
313.15	0.6007	1627.38	2.28
313.15	0.6711	1664.3	2.39
313.15	0.7797	1683.43	2.65
313.15	0.8297	1736.74	2.76
313.15	0.9328	1733.82	3
313.15	1	1757.17	3.16
315.65	0	1045.91	1.08
315.65	0.0492	1130.12	1.94
315.65	0.0951	1194.66	1.69
315.65	0.1987	1313.06	1.73
315.65	0.29	1402.69	1.78
315.65	0.3786	1474.95	1.88
315.65	0.4825	1551.44	2.04
315.65	0.6007	1621.43	2.28
315.65	0.6711	1658.52	2.39
315.65	0.7797	1677.97	2.65
315.65	0.8297	1731.21	2.76
315.65	0.9328	1728.37	3
315.65	1	1751.86	3.16
318.15	0	1037.93	1.08
318.15	0.0492	1122.43	1.94
318.15	0.0951	1187.22	1.7
318.15	0.1987	1306.04	1.73
318.15	0.29	1396.06	1.78
318.15	0.3786	1468.59	1.88
318.15	0.4825	1545.34	2.04
318.15	0.6007	1615.5	2.28
318.15	0.6711	1652.73	2.39
318.15	0.7797	1672.48	2.65
318.15	0.8297	1725.67	2.76
318.15	0.9328	1722.97	3
318.15	1	1746.54	3.16
320.65	0	1029.9	1.08
320.65	0.0492	1114.75	1.95
320.65	0.0951	1179.8	1.7
320.65	0.1987	1299.06	1.74
320.65	0.29	1389.41	1.78
320.65	0.3786	1462.27	1.88
320.65	0.4825	1539.26	2.05
320.65	0.6007	1609.6	2.28
320.65	0.6711	1646.91	2.39
320.65	0.7797	1667.03	2.65
320.65	0.8297	1720.18	2.76
320.65	0.9328	1717.62	3
320.65	1	1741.26	3.16
323.15	0	1021.99	1.08
323.15	0.0492	1107.05	1.96
323.15	0.0951	1172.35	1.72
323.15	0.1987	1292.08	1.75
323.15	0.29	1382.74	1.79
323.15	0.3786	1455.93	1.88
323.15	0.4825	1533.18	2.05
323.15	0.6007	1603.68	2.28
323.15	0.6711	1641.12	2.4
323.15	0.7797	1661.68	2.67
323.15	0.8297	1714.67	2.8
323.15	0.9328	1712.3	3
323.15	1	1735.99	3.16

System: methanol + 2-hydroxyethylammonium acetate; phases: Liquid
Fixed: Pressure, kPa = 101
Property: Mass density, kg/m3 (Liquid); method: Vibrating tube method
Temperature, K	Mole fraction of 2-hydroxyethylammonium acetate	Mass density, kg/m3	uncertainty
288.15	0	796.694	0.141
288.15	0.0492	850.323	1.008
288.15	0.0951	891.619	0.726
288.15	0.1987	958.564	0.607
288.15	0.29	1002.523	0.519
288.15	0.3786	1034.793	0.56
288.15	0.4825	1066.135	0.729
288.15	0.6007	1093.447	1.019
288.15	0.6711	1107.676	1.229
288.15	0.7797	1126.677	1.611
288.15	0.8297	1134.061	1.804
288.15	0.9328	1147.97	2.249
288.15	1	1154.702	2.561
290.65	0	793.768	0.141
290.65	0.0492	848.152	1.019
290.65	0.0951	889.567	0.718
290.65	0.1987	956.698	0.608
290.65	0.29	1000.782	0.519
290.65	0.3786	1033.158	0.56
290.65	0.4825	1064.58	0.727
290.65	0.6007	1091.923	1.016
290.65	0.6711	1106.193	1.225
290.65	0.7797	1125.185	1.606
290.65	0.8297	1132.654	1.799
290.65	0.9328	1146.533	2.244
290.65	1	1153.284	2.555
293.15	0	791.418	0.14
293.15	0.0492	845.97	1.022
293.15	0.0951	887.505	0.72
293.15	0.1987	954.823	0.61
293.15	0.29	999.035	0.519
293.15	0.3786	1031.502	0.559
293.15	0.4825	1063.019	0.725
293.15	0.6007	1090.449	1.014
293.15	0.6711	1104.702	1.221
293.15	0.7797	1123.695	1.602
293.15	0.8297	1131.238	1.795
293.15	0.9328	1145.1	2.238
293.15	1	1151.866	2.548
295.65	0	789.066	0.141
295.65	0.0492	843.786	1.025
295.65	0.0951	885.441	0.722
295.65	0.1987	952.95	0.611
295.65	0.29	997.283	0.52
295.65	0.3786	1029.844	0.558
295.65	0.4825	1061.455	0.723
295.65	0.6007	1088.983	1.011
295.65	0.6711	1103.208	1.218
295.65	0.7797	1122.202	1.597
295.65	0.8297	1129.826	1.79
295.65	0.9328	1143.667	2.232
295.65	1	1150.452	2.542
298.15	0	786.71	0.141
298.15	0.0492	841.599	1.028
298.15	0.0951	883.376	0.724
298.15	0.1987	951.074	0.613
298.15	0.29	995.529	0.521
298.15	0.3786	1028.181	0.557
298.15	0.4825	1059.889	0.721
298.15	0.6007	1087.506	1.008
298.15	0.6711	1101.717	1.214
298.15	0.7797	1120.709	1.593
298.15	0.8297	1128.413	1.785
298.15	0.9328	1142.237	2.226
298.15	1	1149.039	2.535
300.65	0	784.349	0.142
300.65	0.0492	839.407	1.031
300.65	0.0951	881.305	0.726
300.65	0.1987	949.197	0.615
300.65	0.29	993.775	0.522
300.65	0.3786	1026.518	0.556
300.65	0.4825	1058.319	0.719
300.65	0.6007	1086.031	1.005
300.65	0.6711	1100.298	1.211
300.65	0.7797	1119.263	1.588
300.65	0.8297	1127.001	1.78
300.65	0.9328	1140.809	2.22
300.65	1	1147.628	2.528
303.15	0	781.983	0.143
303.15	0.0492	837.209	1.034
303.15	0.0951	879.233	0.728
303.15	0.1987	947.318	0.616
303.15	0.29	992.018	0.523
303.15	0.3786	1024.855	0.555
303.15	0.4825	1056.745	0.717
303.15	0.6007	1084.544	1.002
303.15	0.6711	1098.865	1.207
303.15	0.7797	1117.835	1.584
303.15	0.8297	1125.586	1.775
303.15	0.9328	1139.378	2.214
303.15	1	1146.216	2.522
305.65	0	779.612	0.143
305.65	0.0492	835.006	1.037
305.65	0.0951	877.153	0.73
305.65	0.1987	945.436	0.618
305.65	0.29	990.259	0.524
305.65	0.3786	1023.189	0.554
305.65	0.4825	1055.17	0.715
305.65	0.6007	1083.059	0.999
305.65	0.6711	1097.42	1.204
305.65	0.7797	1116.396	1.579
305.65	0.8297	1124.166	1.771
305.65	0.9328	1137.948	2.208
305.65	1	1144.802	2.515
308.15	0	777.234	0.144
308.15	0.0492	832.793	1.041
308.15	0.0951	875.068	0.732
308.15	0.1987	943.548	0.619
308.15	0.29	988.497	0.525
308.15	0.3786	1021.519	0.553
308.15	0.4825	1053.595	0.713
308.15	0.6007	1081.566	0.996
308.15	0.6711	1095.973	1.201
308.15	0.7797	1114.953	1.575
308.15	0.8297	1122.742	1.766
308.15	0.9328	1136.517	2.202
308.15	1	1143.386	2.509
310.65	0	774.851	0.145
310.65	0.0492	830.575	1.044
310.65	0.0951	872.975	0.734
310.65	0.1987	941.654	0.621
310.65	0.29	986.73	0.525
310.65	0.3786	1019.844	0.552
310.65	0.4825	1052.012	0.712
310.65	0.6007	1080.07	0.994
310.65	0.6711	1094.528	1.197
310.65	0.7797	1113.51	1.571
310.65	0.8297	1121.315	1.761
310.65	0.9328	1135.081	2.196
310.65	1	1141.965	2.502
313.15	0	772.458	0.145
313.15	0.0492	828.348	1.047
313.15	0.0951	870.876	0.737
313.15	0.1987	939.757	0.623
313.15	0.29	984.961	0.526
313.15	0.3786	1018.167	0.551
313.15	0.4825	1050.423	0.71
313.15	0.6007	1078.571	0.991
313.15	0.6711	1093.067	1.194
313.15	0.7797	1112.052	1.566
313.15	0.8297	1119.912	1.756
313.15	0.9328	1133.642	2.191
313.15	1	1140.545	2.496
315.65	0	770.058	0.146
315.65	0.0492	826.113	1.05
315.65	0.0951	868.768	0.739
315.65	0.1987	937.855	0.624
315.65	0.29	983.188	0.527
315.65	0.3786	1016.487	0.55
315.65	0.4825	1048.813	0.708
315.65	0.6007	1077.069	0.988
315.65	0.6711	1091.605	1.19
315.65	0.7797	1110.597	1.562
315.65	0.8297	1118.541	1.752
315.65	0.9328	1132.263	2.185
315.65	1	1139.18	2.489
318.15	0	767.647	0.147
318.15	0.0492	823.867	1.053
318.15	0.0951	866.652	0.741
318.15	0.1987	935.943	0.626
318.15	0.29	981.405	0.528
318.15	0.3786	1014.805	0.549
318.15	0.4825	1047.209	0.706
318.15	0.6007	1075.564	0.985
318.15	0.6711	1090.136	1.187
318.15	0.7797	1109.137	1.558
318.15	0.8297	1117.155	1.747
318.15	0.9328	1130.88	2.179
318.15	1	1137.818	2.483
320.65	0	765.229	0.147
320.65	0.0492	821.611	1.056
320.65	0.0951	864.531	0.743
320.65	0.1987	934.029	0.628
320.65	0.29	979.623	0.529
320.65	0.3786	1013.115	0.548
320.65	0.4825	1045.591	0.704
320.65	0.6007	1074.054	0.982
320.65	0.6711	1088.657	1.183
320.65	0.7797	1107.663	1.553
320.65	0.8297	1115.765	1.742
320.65	0.9328	1129.49	2.174
320.65	1	1136.449	2.477
323.15	0	762.809	0.148
323.15	0.0492	819.344	1.061
323.15	0.0951	862.394	0.764
323.15	0.1987	932.105	0.639
323.15	0.29	977.831	0.536
323.15	0.3786	1011.42	0.55
323.15	0.4825	1043.94	0.705
323.15	0.6007	1072.543	0.98
323.15	0.6711	1087.182	1.18
323.15	0.7797	1106.186	1.549
323.15	0.8297	1114.37	1.738
323.15	0.9328	1128.103	2.168
323.15	1	1135.075	2.47

System: methanol + 2-hydroxyethylammonium acetate; phases: Liquid
Fixed: Pressure, kPa = 101
Property: Excess molar volume, m3/mol (Liquid); method: Calculated with densities of this investigation
Temperature, K	Mole fraction of 2-hydroxyethylammonium acetate	Excess molar volume, m3/mol	uncertainty
288.15	0	0	7.7e-09
288.15	0.0492	-5.64e-07	1.34e-08
288.15	0.0951	-9.3e-07	1.09e-08
288.15	0.1987	-1.1762e-06	1.07e-08
288.15	0.29	-1.2442e-06	1.08e-08
288.15	0.3786	-1.1487e-06	1.05e-08
288.15	0.4825	-1.0561e-06	1.04e-08
288.15	0.6007	-8.274e-07	9.8e-09
288.15	0.6711	-7.245e-07	9.6e-09
288.15	0.7797	-5.6e-07	9.2e-09
288.15	0.8297	-4.533e-07	9e-09
288.15	0.9328	-2.526e-07	8.8e-09
288.15	1	0	7.7e-09
290.65	0	0	7.7e-09
290.65	0.0492	-6.017e-07	1.37e-08
290.65	0.0951	-9.716e-07	1.07e-08
290.65	0.1987	-1.2194e-06	1.07e-08
290.65	0.29	-1.2864e-06	1.07e-08
290.65	0.3786	-1.1891e-06	1.06e-08
290.65	0.4825	-1.0922e-06	1.04e-08
290.65	0.6007	-8.548e-07	9.9e-09
290.65	0.6711	-7.487e-07	9.6e-09
290.65	0.7797	-5.737e-07	9.2e-09
290.65	0.8297	-4.695e-07	9.1e-09
290.65	0.9328	-2.572e-07	8.8e-09
290.65	1	0	7.7e-09
293.15	0	0	7.7e-09
293.15	0.0492	-6.112e-07	1.39e-08
293.15	0.0951	-9.865e-07	1.07e-08
293.15	0.1987	-1.239e-06	1.08e-08
293.15	0.29	-1.3079e-06	1.08e-08
293.15	0.3786	-1.2103e-06	1.06e-08
293.15	0.4825	-1.1132e-06	1.05e-08
293.15	0.6007	-8.744e-07	1e-08
293.15	0.6711	-7.628e-07	9.7e-09
293.15	0.7797	-5.813e-07	9.3e-09
293.15	0.8297	-4.801e-07	9.1e-09
293.15	0.9328	-2.602e-07	8.8e-09
293.15	1	0	7.7e-09
295.65	0	0	7.7e-09
295.65	0.0492	-6.209e-07	1.4e-08
295.65	0.0951	-1.0016e-06	1.07e-08
295.65	0.1987	-1.259e-06	1.08e-08
295.65	0.29	-1.3293e-06	1.08e-08
295.65	0.3786	-1.2316e-06	1.07e-08
295.65	0.4825	-1.134e-06	1.05e-08
295.65	0.6007	-8.946e-07	1e-08
295.65	0.6711	-7.767e-07	9.7e-09
295.65	0.7797	-5.885e-07	9.3e-09
295.65	0.8297	-4.909e-07	9.1e-09
295.65	0.9328	-2.628e-07	8.8e-09
295.65	1	0	7.7e-09
298.15	0	0	7.7e-09
298.15	0.0492	-6.307e-07	1.42e-08
298.15	0.0951	-1.017e-06	1.08e-08
298.15	0.1987	-1.2792e-06	1.09e-08
298.15	0.29	-1.3509e-06	1.09e-08
298.15	0.3786	-1.2529e-06	1.07e-08
298.15	0.4825	-1.155e-06	1.05e-08
298.15	0.6007	-9.142e-07	1.01e-08
298.15	0.6711	-7.909e-07	9.8e-09
298.15	0.7797	-5.958e-07	9.3e-09
298.15	0.8297	-5.016e-07	9.2e-09
298.15	0.9328	-2.657e-07	8.8e-09
298.15	1	0	7.7e-09
300.65	0	0	7.7e-09
300.65	0.0492	-6.406e-07	1.43e-08
300.65	0.0951	-1.0324e-06	1.09e-08
300.65	0.1987	-1.2998e-06	1.09e-08
300.65	0.29	-1.3729e-06	1.09e-08
300.65	0.3786	-1.2745e-06	1.08e-08
300.65	0.4825	-1.1759e-06	1.06e-08
300.65	0.6007	-9.342e-07	1.01e-08
300.65	0.6711	-8.107e-07	9.8e-09
300.65	0.7797	-6.068e-07	9.3e-09
300.65	0.8297	-5.123e-07	9.2e-09
300.65	0.9328	-2.687e-07	8.9e-09
300.65	1	0	7.7e-09
303.15	0	0	7.7e-09
303.15	0.0492	-6.506e-07	1.44e-08
303.15	0.0951	-1.0483e-06	1.09e-08
303.15	0.1987	-1.3207e-06	1.1e-08
303.15	0.29	-1.3952e-06	1.1e-08
303.15	0.3786	-1.2966e-06	1.08e-08
303.15	0.4825	-1.1971e-06	1.06e-08
303.15	0.6007	-9.536e-07	1.02e-08
303.15	0.6711	-8.298e-07	9.9e-09
303.15	0.7797	-6.196e-07	9.4e-09
303.15	0.8297	-5.231e-07	9.3e-09
303.15	0.9328	-2.715e-07	8.9e-09
303.15	1	0	7.7e-09
305.65	0	0	7.7e-09
305.65	0.0492	-6.607e-07	1.46e-08
305.65	0.0951	-1.0642e-06	1.1e-08
305.65	0.1987	-1.3419e-06	1.1e-08
305.65	0.29	-1.4179e-06	1.1e-08
305.65	0.3786	-1.3189e-06	1.09e-08
305.65	0.4825	-1.2186e-06	1.07e-08
305.65	0.6007	-9.736e-07	1.02e-08
305.65	0.6711	-8.483e-07	9.9e-09
305.65	0.7797	-6.317e-07	9.4e-09
305.65	0.8297	-5.337e-07	9.3e-09
305.65	0.9328	-2.747e-07	8.9e-09
305.65	1	0	7.7e-09
308.15	0	0	7.7e-09
308.15	0.0492	-6.708e-07	1.47e-08
308.15	0.0951	-1.0804e-06	1.1e-08
308.15	0.1987	-1.3635e-06	1.11e-08
308.15	0.29	-1.441e-06	1.11e-08
308.15	0.3786	-1.3416e-06	1.09e-08
308.15	0.4825	-1.2406e-06	1.08e-08
308.15	0.6007	-9.935e-07	1.03e-08
308.15	0.6711	-8.672e-07	1e-08
308.15	0.7797	-6.439e-07	9.5e-09
308.15	0.8297	-5.443e-07	9.3e-09
308.15	0.9328	-2.779e-07	8.9e-09
308.15	1	0	7.7e-09
310.65	0	0	7.7e-09
310.65	0.0492	-6.81e-07	1.49e-08
310.65	0.0951	-1.0967e-06	1.11e-08
310.65	0.1987	-1.3852e-06	1.11e-08
310.65	0.29	-1.4644e-06	1.12e-08
310.65	0.3786	-1.3646e-06	1.1e-08
310.65	0.4825	-1.2626e-06	1.08e-08
310.65	0.6007	-1.0138e-06	1.03e-08
310.65	0.6711	-8.867e-07	1e-08
310.65	0.7797	-6.567e-07	9.5e-09
310.65	0.8297	-5.551e-07	9.4e-09
310.65	0.9328	-2.812e-07	9e-09
310.65	1	0	7.7e-09
313.15	0	0	7.7e-09
313.15	0.0492	-6.914e-07	1.5e-08
313.15	0.0951	-1.1133e-06	1.12e-08
313.15	0.1987	-1.4075e-06	1.12e-08
313.15	0.29	-1.4883e-06	1.12e-08
313.15	0.3786	-1.388e-06	1.1e-08
313.15	0.4825	-1.2848e-06	1.09e-08
313.15	0.6007	-1.0341e-06	1.04e-08
313.15	0.6711	-9.053e-07	1.01e-08
313.15	0.7797	-6.683e-07	9.5e-09
313.15	0.8297	-5.681e-07	9.4e-09
313.15	0.9328	-2.843e-07	9e-09
313.15	1	0	7.7e-09
315.65	0	0	7.7e-09
315.65	0.0492	-7.016e-07	1.52e-08
315.65	0.0951	-1.1295e-06	1.12e-08
315.65	0.1987	-1.429e-06	1.13e-08
315.65	0.29	-1.511e-06	1.13e-08
315.65	0.3786	-1.4097e-06	1.11e-08
315.65	0.4825	-1.3034e-06	1.09e-08
315.65	0.6007	-1.0516e-06	1.04e-08
315.65	0.6711	-9.207e-07	1.01e-08
315.65	0.7797	-6.765e-07	9.6e-09
315.65	0.8297	-5.798e-07	9.5e-09
315.65	0.9328	-2.88e-07	9e-09
315.65	1	0	7.7e-09
318.15	0	0	7.7e-09
318.15	0.0492	-7.119e-07	1.53e-08
318.15	0.0951	-1.146e-06	1.13e-08
318.15	0.1987	-1.4506e-06	1.13e-08
318.15	0.29	-1.5338e-06	1.13e-08
318.15	0.3786	-1.4319e-06	1.11e-08
318.15	0.4825	-1.3229e-06	1.1e-08
318.15	0.6007	-1.0691e-06	1.04e-08
318.15	0.6711	-9.358e-07	1.02e-08
318.15	0.7797	-6.842e-07	9.6e-09
318.15	0.8297	-5.901e-07	9.5e-09
318.15	0.9328	-2.911e-07	9.1e-09
318.15	1	0	7.7e-09
320.65	0	0	7.7e-09
320.65	0.0492	-7.223e-07	1.55e-08
320.65	0.0951	-1.1628e-06	1.13e-08
320.65	0.1987	-1.4729e-06	1.14e-08
320.65	0.29	-1.5573e-06	1.14e-08
320.65	0.3786	-1.4543e-06	1.12e-08
320.65	0.4825	-1.3422e-06	1.1e-08
320.65	0.6007	-1.0869e-06	1.05e-08
320.65	0.6711	-9.508e-07	1.02e-08
320.65	0.7797	-6.914e-07	9.6e-09
320.65	0.8297	-6.008e-07	9.5e-09
320.65	0.9328	-2.943e-07	9.1e-09
320.65	1	0	7.7e-09
323.15	0	0	7.7e-09
323.15	0.0492	-7.322e-07	1.57e-08
323.15	0.0951	-1.1792e-06	1.17e-08
323.15	0.1987	-1.495e-06	1.14e-08
323.15	0.29	-1.5808e-06	1.14e-08
323.15	0.3786	-1.4769e-06	1.12e-08
323.15	0.4825	-1.3597e-06	1.1e-08
323.15	0.6007	-1.1052e-06	1.05e-08
323.15	0.6711	-9.666e-07	1.03e-08
323.15	0.7797	-6.989e-07	9.6e-09
323.15	0.8297	-6.116e-07	9.6e-09
323.15	0.9328	-2.982e-07	9.2e-09
323.15	1	0	7.7e-09

System: ethanol + 2-hydroxyethylammonium acetate; phases: Liquid
Fixed: Pressure, kPa = 101
Property: Speed of sound, m/s (Liquid); method: sound velocity cell
Temperature, K	Mole fraction of 2-hydroxyethylammonium acetate	Speed of sound, m/s	uncertainty
288.15	0	1177.84	1.09
288.15	0.0497	1219.72	1.38
288.15	0.101	1257.67	1.4
288.15	0.201	1327.03	1.57
288.15	0.3009	1410.01	1.7
288.15	0.4057	1470.21	1.88
288.15	0.4946	1529.9	2.07
288.15	0.603	1601.6	2.3
288.15	0.6765	1646.28	2.45
288.15	0.7918	1707.89	2.71
288.15	0.8825	1756.7	2.94
288.15	0.9539	1806.7	3.09
288.15	1	1817.23	3.16
290.65	0	1169.17	1.09
290.65	0.0497	1211.32	1.39
290.65	0.101	1249.56	1.4
290.65	0.201	1319.31	1.57
290.65	0.3009	1402.88	1.7
290.65	0.4057	1463.17	1.87
290.65	0.4946	1523.05	2.07
290.65	0.603	1594.94	2.3
290.65	0.6765	1639.64	2.45
290.65	0.7918	1700.45	2.71
290.65	0.8825	1749.39	2.94
290.65	0.9539	1796.04	3.1
290.65	1	1809.95	3.16
293.15	0	1160.63	1.09
293.15	0.0497	1203.03	1.39
293.15	0.101	1241.51	1.4
293.15	0.201	1311.66	1.57
293.15	0.3009	1395.69	1.7
293.15	0.4057	1456.17	1.87
293.15	0.4946	1516.31	2.07
293.15	0.603	1588.44	2.3
293.15	0.6765	1633.15	2.44
293.15	0.7918	1693.35	2.71
293.15	0.8825	1741.7	2.93
293.15	0.9539	1786.64	3.1
293.15	1	1803.21	3.16
295.65	0	1152.03	1.09
295.65	0.0497	1194.73	1.4
295.65	0.101	1233.49	1.4
295.65	0.201	1304.03	1.57
295.65	0.3009	1388.52	1.71
295.65	0.4057	1449.22	1.88
295.65	0.4946	1509.6	2.08
295.65	0.603	1582	2.3
295.65	0.6765	1626.75	2.44
295.65	0.7918	1686.5	2.71
295.65	0.8825	1734.48	2.93
295.65	0.9539	1777.96	3.1
295.65	1	1796.84	3.16
298.15	0	1143.5	1.09
298.15	0.0497	1186.46	1.4
298.15	0.101	1225.47	1.41
298.15	0.201	1296.39	1.57
298.15	0.3009	1381.35	1.71
298.15	0.4057	1442.27	1.88
298.15	0.4946	1502.9	2.08
298.15	0.603	1575.59	2.3
298.15	0.6765	1620.44	2.44
298.15	0.7918	1679.8	2.71
298.15	0.8825	1727.54	2.93
298.15	0.9539	1769.92	3.1
298.15	1	1790.73	3.16
300.65	0	1134.98	1.09
300.65	0.0497	1178.2	1.4
300.65	0.101	1217.46	1.41
300.65	0.201	1288.77	1.57
300.65	0.3009	1374.17	1.71
300.65	0.4057	1435.34	1.88
300.65	0.4946	1496.22	2.08
300.65	0.603	1569.19	2.3
300.65	0.6765	1614.19	2.44
300.65	0.7918	1673.32	2.71
300.65	0.8825	1720.9	2.93
300.65	0.9539	1762.42	3.1
300.65	1	1784.81	3.16
303.15	0	1126.5	1.09
303.15	0.0497	1169.98	1.4
303.15	0.101	1209.48	1.41
303.15	0.201	1281.19	1.58
303.15	0.3009	1367.04	1.71
303.15	0.4057	1428.42	1.88
303.15	0.4946	1489.56	2.08
303.15	0.603	1562.83	2.3
303.15	0.6765	1607.96	2.44
303.15	0.7918	1666.99	2.71
303.15	0.8825	1714.49	2.93
303.15	0.9539	1755.41	3.1
303.15	1	1779.04	3.16
305.65	0	1118.06	1.09
305.65	0.0497	1161.75	1.41
305.65	0.101	1201.49	1.41
305.65	0.201	1273.6	1.58
305.65	0.3009	1359.93	1.71
305.65	0.4057	1421.54	1.88
305.65	0.4946	1482.96	2.08
305.65	0.603	1556.52	2.31
305.65	0.6765	1601.78	2.44
305.65	0.7918	1660.78	2.71
305.65	0.8825	1708.25	2.93
305.65	0.9539	1748.73	3.1
305.65	1	1773.43	3.16
308.15	0	1109.66	1.09
308.15	0.0497	1153.58	1.41
308.15	0.101	1193.51	1.41
308.15	0.201	1266.05	1.58
308.15	0.3009	1352.81	1.71
308.15	0.4057	1414.66	1.88
308.15	0.4946	1476.36	2.08
308.15	0.603	1550.24	2.31
308.15	0.6765	1595.64	2.44
308.15	0.7918	1654.64	2.71
308.15	0.8825	1702.18	2.93
308.15	0.9539	1742.24	3.1
308.15	1	1767.91	3.16
310.65	0	1101.24	1.09
310.65	0.0497	1145.39	1.41
310.65	0.101	1185.55	1.42
310.65	0.201	1258.5	1.58
310.65	0.3009	1345.71	1.71
310.65	0.4057	1407.79	1.88
310.65	0.4946	1469.74	2.08
310.65	0.603	1543.97	2.31
310.65	0.6765	1589.56	2.44
310.65	0.7918	1648.55	2.71
310.65	0.8825	1696.15	2.93
310.65	0.9539	1735.94	3.1
310.65	1	1762.5	3.16
313.15	0	1092.85	1.09
313.15	0.0497	1137.22	1.41
313.15	0.101	1177.6	1.42
313.15	0.201	1250.96	1.59
313.15	0.3009	1338.66	1.72
313.15	0.4057	1400.95	1.88
313.15	0.4946	1463.15	2.08
313.15	0.603	1537.67	2.31
313.15	0.6765	1583.47	2.44
313.15	0.7918	1642.51	2.71
313.15	0.8825	1690.2	2.93
313.15	0.9539	1729.87	3.1
313.15	1	1757.17	3.16
315.65	0	1084.53	1.09
315.65	0.0497	1129.07	1.42
315.65	0.101	1169.72	1.42
315.65	0.201	1243.48	1.59
315.65	0.3009	1331.59	1.72
315.65	0.4057	1394.16	1.88
315.65	0.4946	1456.63	2.08
315.65	0.603	1531.41	2.31
315.65	0.6765	1577.4	2.44
315.65	0.7918	1636.56	2.71
315.65	0.8825	1684.36	2.93
315.65	0.9539	1723.94	3.1
315.65	1	1751.86	3.16
318.15	0	1076.22	1.09
318.15	0.0497	1120.9	1.42
318.15	0.101	1161.85	1.42
318.15	0.201	1235.92	1.59
318.15	0.3009	1324.53	1.72
318.15	0.4057	1387.31	1.88
318.15	0.4946	1450.04	2.08
318.15	0.603	1525.18	2.31
318.15	0.6765	1571.32	2.44
318.15	0.7918	1630.66	2.71
318.15	0.8825	1678.56	2.93
318.15	0.9539	1718.12	3.1
318.15	1	1746.54	3.16
320.65	0	1067.9	1.09
320.65	0.0497	1112.76	1.42
320.65	0.101	1153.93	1.43
320.65	0.201	1228.43	1.59
320.65	0.3009	1317.5	1.72
320.65	0.4057	1380.49	1.88
320.65	0.4946	1443.47	2.08
320.65	0.603	1518.95	2.31
320.65	0.6765	1565.31	2.44
320.65	0.7918	1624.76	2.71
320.65	0.8825	1672.84	2.93
320.65	0.9539	1712.37	3.1
320.65	1	1741.26	3.16
323.15	0	1059.58	1.09
323.15	0.0497	1104.68	1.43
323.15	0.101	1146.05	1.43
323.15	0.201	1220.99	1.59
323.15	0.3009	1310.52	1.74
323.15	0.4057	1373.74	1.88
323.15	0.4946	1436.95	2.09
323.15	0.603	1512.7	2.31
323.15	0.6765	1559.36	2.45
323.15	0.7918	1618.89	2.71
323.15	0.8825	1667.21	2.93
323.15	0.9539	1706.71	3.1
323.15	1	1735.99	3.16

System: ethanol + 2-hydroxyethylammonium acetate; phases: Liquid
Fixed: Pressure, kPa = 101
Property: Mass density, kg/m3 (Liquid); method: Vibrating tube method
Temperature, K	Mole fraction of 2-hydroxyethylammonium acetate	Mass density, kg/m3	uncertainty
288.15	0	793.828	0.138
288.15	0.0497	830.092	0.698
288.15	0.101	862.917	0.591
288.15	0.201	917.271	0.546
288.15	0.3009	964.134	0.528
288.15	0.4057	1005.849	0.593
288.15	0.4946	1036.288	0.73
288.15	0.603	1068.792	0.992
288.15	0.6765	1088.47	1.209
288.15	0.7918	1116.268	1.626
288.15	0.8825	1135.661	2.009
288.15	0.9539	1148.757	2.342
288.15	1	1154.702	2.561
290.65	0	791.692	0.139
290.65	0.0497	828.024	0.699
290.65	0.101	860.918	0.59
290.65	0.201	915.381	0.548
290.65	0.3009	962.336	0.529
290.65	0.4057	1004.141	0.592
290.65	0.4946	1034.643	0.728
290.65	0.603	1067.234	0.99
290.65	0.6765	1086.903	1.205
290.65	0.7918	1114.762	1.621
290.65	0.8825	1134.02	2.003
290.65	0.9539	1147.227	2.336
290.65	1	1153.284	2.555
293.15	0	789.553	0.14
293.15	0.0497	825.955	0.701
293.15	0.101	858.918	0.591
293.15	0.201	913.49	0.549
293.15	0.3009	960.535	0.53
293.15	0.4057	1002.435	0.591
293.15	0.4946	1033.003	0.726
293.15	0.603	1065.672	0.987
293.15	0.6765	1085.334	1.202
293.15	0.7918	1113.26	1.617
293.15	0.8825	1132.524	1.998
293.15	0.9539	1145.666	2.329
293.15	1	1151.866	2.548
295.65	0	787.411	0.14
295.65	0.0497	823.881	0.702
295.65	0.101	856.913	0.592
295.65	0.201	911.596	0.55
295.65	0.3009	958.737	0.53
295.65	0.4057	1000.727	0.59
295.65	0.4946	1031.36	0.724
295.65	0.603	1064.103	0.984
295.65	0.6765	1083.813	1.198
295.65	0.7918	1111.758	1.612
295.65	0.8825	1131.064	1.992
295.65	0.9539	1144.088	2.323
295.65	1	1150.452	2.542
298.15	0	785.261	0.141
298.15	0.0497	821.798	0.704
298.15	0.101	854.902	0.593
298.15	0.201	909.701	0.551
298.15	0.3009	956.936	0.531
298.15	0.4057	999.015	0.59
298.15	0.4946	1029.717	0.722
298.15	0.603	1062.531	0.981
298.15	0.6765	1082.308	1.195
298.15	0.7918	1110.256	1.608
298.15	0.8825	1129.605	1.987
298.15	0.9539	1142.497	2.316
298.15	1	1149.039	2.535
300.65	0	783.106	0.141
300.65	0.0497	819.712	0.705
300.65	0.101	852.887	0.595
300.65	0.201	907.8	0.552
300.65	0.3009	955.132	0.531
300.65	0.4057	997.306	0.59
300.65	0.4946	1028.073	0.72
300.65	0.603	1060.957	0.978
300.65	0.6765	1080.798	1.191
300.65	0.7918	1108.756	1.603
300.65	0.8825	1128.148	1.981
300.65	0.9539	1141.037	2.31
300.65	1	1147.628	2.528
303.15	0	780.944	0.142
303.15	0.0497	817.614	0.707
303.15	0.101	850.864	0.596
303.15	0.201	905.897	0.553
303.15	0.3009	953.327	0.532
303.15	0.4057	995.593	0.59
303.15	0.4946	1026.43	0.718
303.15	0.603	1059.371	0.975
303.15	0.6765	1079.281	1.188
303.15	0.7918	1107.257	1.598
303.15	0.8825	1126.691	1.976
303.15	0.9539	1139.621	2.304
303.15	1	1146.216	2.522
305.65	0	778.773	0.143
305.65	0.0497	815.509	0.708
305.65	0.101	848.835	0.597
305.65	0.201	903.988	0.554
305.65	0.3009	951.519	0.533
305.65	0.4057	993.881	0.59
305.65	0.4946	1024.783	0.716
305.65	0.603	1057.776	0.972
305.65	0.6765	1077.755	1.184
305.65	0.7918	1105.753	1.594
305.65	0.8825	1125.233	1.971
305.65	0.9539	1138.204	2.298
305.65	1	1144.802	2.515
308.15	0	776.593	0.143
308.15	0.0497	813.395	0.71
308.15	0.101	846.797	0.599
308.15	0.201	902.073	0.555
308.15	0.3009	949.706	0.533
308.15	0.4057	992.164	0.59
308.15	0.4946	1023.135	0.714
308.15	0.603	1056.168	0.969
308.15	0.6765	1076.231	1.181
308.15	0.7918	1104.248	1.589
308.15	0.8825	1123.773	1.965
308.15	0.9539	1136.788	2.292
308.15	1	1143.386	2.509
310.65	0	774.405	0.144
310.65	0.0497	811.269	0.711
310.65	0.101	844.752	0.6
310.65	0.201	900.153	0.556
310.65	0.3009	947.892	0.534
310.65	0.4057	990.442	0.59
310.65	0.4946	1021.484	0.712
310.65	0.603	1054.533	0.966
310.65	0.6765	1074.706	1.177
310.65	0.7918	1102.76	1.585
310.65	0.8825	1122.309	1.96
310.65	0.9539	1135.374	2.286
310.65	1	1141.965	2.502
313.15	0	772.204	0.145
313.15	0.0497	809.131	0.713
313.15	0.101	842.694	0.602
313.15	0.201	898.225	0.558
313.15	0.3009	946.069	0.535
313.15	0.4057	988.723	0.59
313.15	0.4946	1019.833	0.71
313.15	0.603	1052.873	0.963
313.15	0.6765	1073.17	1.174
313.15	0.7918	1101.31	1.58
313.15	0.8825	1120.845	1.954
313.15	0.9539	1133.958	2.28
313.15	1	1140.545	2.496
315.65	0	769.995	0.145
315.65	0.0497	806.984	0.714
315.65	0.101	840.628	0.603
315.65	0.201	896.29	0.559
315.65	0.3009	944.245	0.535
315.65	0.4057	986.994	0.589
315.65	0.4946	1018.176	0.708
315.65	0.603	1051.281	0.96
315.65	0.6765	1071.633	1.17
315.65	0.7918	1099.86	1.576
315.65	0.8825	1119.377	1.949
315.65	0.9539	1132.537	2.274
315.65	1	1139.18	2.489
318.15	0	767.77	0.146
318.15	0.0497	804.825	0.716
318.15	0.101	838.551	0.605
318.15	0.201	894.347	0.56
318.15	0.3009	942.413	0.536
318.15	0.4057	985.266	0.59
318.15	0.4946	1016.52	0.706
318.15	0.603	1049.695	0.957
318.15	0.6765	1070.088	1.167
318.15	0.7918	1098.4	1.571
318.15	0.8825	1117.905	1.944
318.15	0.9539	1131.115	2.268
318.15	1	1137.818	2.483
320.65	0	765.534	0.146
320.65	0.0497	802.647	0.717
320.65	0.101	836.46	0.606
320.65	0.201	892.395	0.561
320.65	0.3009	940.573	0.537
320.65	0.4057	983.53	0.59
320.65	0.4946	1014.852	0.704
320.65	0.603	1048.103	0.955
320.65	0.6765	1068.533	1.163
320.65	0.7918	1096.934	1.567
320.65	0.8825	1116.49	1.938
320.65	0.9539	1129.692	2.262
320.65	1	1136.449	2.477
323.15	0	763.296	0.147
323.15	0.0497	800.468	0.721
323.15	0.101	834.368	0.614
323.15	0.201	890.443	0.566
323.15	0.3009	938.735	0.542
323.15	0.4057	981.801	0.591
323.15	0.4946	1013.188	0.704
323.15	0.603	1046.544	0.952
323.15	0.6765	1066.976	1.16
323.15	0.7918	1095.472	1.563
323.15	0.8825	1115.061	1.933
323.15	0.9539	1128.27	2.256
323.15	1	1135.075	2.47

System: ethanol + 2-hydroxyethylammonium acetate; phases: Liquid
Fixed: Pressure, kPa = 101
Property: Excess molar volume, m3/mol (Liquid); method: Calculated with densities of this investigation
Temperature, K	Mole fraction of 2-hydroxyethylammonium acetate	Excess molar volume, m3/mol	uncertainty
288.15	0	0	7.7e-09
288.15	0.0497	-3.709e-07	1.05e-08
288.15	0.101	-5.951e-07	9.5e-09
288.15	0.201	-7.816e-07	9.7e-09
288.15	0.3009	-9.263e-07	1e-08
288.15	0.4057	-9.707e-07	1e-08
288.15	0.4946	-9.325e-07	9.9e-09
288.15	0.603	-8.435e-07	9.8e-09
288.15	0.6765	-7.636e-07	9.6e-09
288.15	0.7918	-6.309e-07	9.3e-09
288.15	0.8825	-5.007e-07	9.1e-09
288.15	0.9539	-3.089e-07	9.5e-09
288.15	1	0	7.7e-09
290.65	0	0	7.7e-09
290.65	0.0497	-3.762e-07	1.05e-08
290.65	0.101	-6.045e-07	9.5e-09
290.65	0.201	-7.949e-07	9.7e-09
290.65	0.3009	-9.415e-07	1e-08
290.65	0.4057	-9.867e-07	1e-08
290.65	0.4946	-9.478e-07	1e-08
290.65	0.603	-8.587e-07	9.8e-09
290.65	0.6765	-7.733e-07	9.6e-09
290.65	0.7918	-6.379e-07	9.3e-09
290.65	0.8825	-4.898e-07	9.1e-09
290.65	0.9539	-3.026e-07	9.3e-09
290.65	1	0	7.7e-09
293.15	0	0	7.7e-09
293.15	0.0497	-3.818e-07	1.06e-08
293.15	0.101	-6.142e-07	9.5e-09
293.15	0.201	-8.086e-07	9.8e-09
293.15	0.3009	-9.569e-07	1e-08
293.15	0.4057	-1.0032e-06	1.01e-08
293.15	0.4946	-9.637e-07	1e-08
293.15	0.603	-8.738e-07	9.8e-09
293.15	0.6765	-7.829e-07	9.6e-09
293.15	0.7918	-6.455e-07	9.4e-09
293.15	0.8825	-4.916e-07	9.1e-09
293.15	0.9539	-2.934e-07	9.3e-09
293.15	1	0	7.7e-09
295.65	0	0	7.7e-09
295.65	0.0497	-3.873e-07	1.06e-08
295.65	0.101	-6.238e-07	9.6e-09
295.65	0.201	-8.223e-07	9.8e-09
295.65	0.3009	-9.727e-07	1.01e-08
295.65	0.4057	-1.0196e-06	1.01e-08
295.65	0.4946	-9.796e-07	1e-08
295.65	0.603	-8.884e-07	9.9e-09
295.65	0.6765	-7.965e-07	9.7e-09
295.65	0.7918	-6.528e-07	9.4e-09
295.65	0.8825	-4.963e-07	9.2e-09
295.65	0.9539	-2.824e-07	9.3e-09
295.65	1	0	7.7e-09
298.15	0	0	7.7e-09
298.15	0.0497	-3.928e-07	1.07e-08
298.15	0.101	-6.336e-07	9.6e-09
298.15	0.201	-8.365e-07	9.9e-09
298.15	0.3009	-9.889e-07	1.01e-08
298.15	0.4057	-1.0363e-06	1.02e-08
298.15	0.4946	-9.959e-07	1.01e-08
298.15	0.603	-9.031e-07	9.9e-09
298.15	0.6765	-8.116e-07	9.7e-09
298.15	0.7918	-6.603e-07	9.4e-09
298.15	0.8825	-5.011e-07	9.2e-09
298.15	0.9539	-2.7e-07	9.3e-09
298.15	1	0	7.7e-09
300.65	0	0	7.7e-09
300.65	0.0497	-3.984e-07	1.08e-08
300.65	0.101	-6.436e-07	9.6e-09
300.65	0.201	-8.508e-07	9.9e-09
300.65	0.3009	-1.0052e-06	1.01e-08
300.65	0.4057	-1.0536e-06	1.02e-08
300.65	0.4946	-1.0124e-06	1.01e-08
300.65	0.603	-9.178e-07	9.9e-09
300.65	0.6765	-8.265e-07	9.8e-09
300.65	0.7918	-6.68e-07	9.4e-09
300.65	0.8825	-5.061e-07	9.2e-09
300.65	0.9539	-2.693e-07	9.3e-09
300.65	1	0	7.7e-09
303.15	0	0	7.7e-09
303.15	0.0497	-4.038e-07	1.08e-08
303.15	0.101	-6.536e-07	9.7e-09
303.15	0.201	-8.655e-07	9.9e-09
303.15	0.3009	-1.0221e-06	1.02e-08
303.15	0.4057	-1.0711e-06	1.02e-08
303.15	0.4946	-1.0294e-06	1.02e-08
303.15	0.603	-9.32e-07	1e-08
303.15	0.6765	-8.412e-07	9.8e-09
303.15	0.7918	-6.76e-07	9.5e-09
303.15	0.8825	-5.112e-07	9.3e-09
303.15	0.9539	-2.727e-07	9.4e-09
303.15	1	0	7.7e-09
305.65	0	0	7.7e-09
305.65	0.0497	-4.093e-07	1.09e-08
305.65	0.101	-6.639e-07	9.7e-09
305.65	0.201	-8.806e-07	1e-08
305.65	0.3009	-1.0395e-06	1.02e-08
305.65	0.4057	-1.0894e-06	1.03e-08
305.65	0.4946	-1.0468e-06	1.02e-08
305.65	0.603	-9.46e-07	1e-08
305.65	0.6765	-8.557e-07	9.8e-09
305.65	0.7918	-6.84e-07	9.5e-09
305.65	0.8825	-5.166e-07	9.3e-09
305.65	0.9539	-2.763e-07	9.4e-09
305.65	1	0	7.7e-09
308.15	0	0	7.7e-09
308.15	0.0497	-4.149e-07	1.1e-08
308.15	0.101	-6.743e-07	9.8e-09
308.15	0.201	-8.96e-07	1e-08
308.15	0.3009	-1.0573e-06	1.03e-08
308.15	0.4057	-1.108e-06	1.03e-08
308.15	0.4946	-1.0648e-06	1.03e-08
308.15	0.603	-9.595e-07	1e-08
308.15	0.6765	-8.708e-07	9.9e-09
308.15	0.7918	-6.923e-07	9.5e-09
308.15	0.8825	-5.221e-07	9.3e-09
308.15	0.9539	-2.801e-07	9.4e-09
308.15	1	0	7.7e-09
310.65	0	0	7.7e-09
310.65	0.0497	-4.203e-07	1.1e-08
310.65	0.101	-6.849e-07	9.8e-09
310.65	0.201	-9.118e-07	1.01e-08
310.65	0.3009	-1.0757e-06	1.03e-08
310.65	0.4057	-1.127e-06	1e-08
310.65	0.4946	-1.0833e-06	1.03e-08
310.65	0.603	-9.714e-07	1.01e-08
310.65	0.6765	-8.865e-07	9.9e-09
310.65	0.7918	-7.027e-07	9.5e-09
310.65	0.8825	-5.277e-07	9.3e-09
310.65	0.9539	-2.847e-07	9.5e-09
310.65	1	0	7.7e-09
313.15	0	0	7.7e-09
313.15	0.0497	-4.258e-07	1.11e-08
313.15	0.101	-6.956e-07	9.9e-09
313.15	0.201	-9.28e-07	1.01e-08
313.15	0.3009	-1.0945e-06	1.03e-08
313.15	0.4057	-1.147e-06	1.04e-08
313.15	0.4946	-1.1024e-06	1.03e-08
313.15	0.603	-9.818e-07	1.01e-08
313.15	0.6765	-9.017e-07	9.9e-09
313.15	0.7918	-7.166e-07	9.6e-09
313.15	0.8825	-5.335e-07	9.4e-09
313.15	0.9539	-2.891e-07	9.5e-09
313.15	1	0	7.7e-09
315.65	0	0	7.7e-09
315.65	0.0497	-4.31e-07	1.12e-08
315.65	0.101	-7.059e-07	9.9e-09
315.65	0.201	-9.433e-07	1.01e-08
315.65	0.3009	-1.1122e-06	1.04e-08
315.65	0.4057	-1.1648e-06	1.05e-08
315.65	0.4946	-1.1191e-06	1.04e-08
315.65	0.603	-9.952e-07	1.01e-08
315.65	0.6765	-9.137e-07	1e-08
315.65	0.7918	-7.267e-07	9.6e-09
315.65	0.8825	-5.345e-07	9.4e-09
315.65	0.9539	-2.882e-07	9.5e-09
315.65	1	0	7.7e-09
318.15	0	0	7.7e-09
318.15	0.0497	-4.366e-07	1.13e-08
318.15	0.101	-7.165e-07	9.9e-09
318.15	0.201	-9.592e-07	1.02e-08
318.15	0.3009	-1.1304e-06	1.04e-08
318.15	0.4057	-1.1835e-06	1.05e-08
318.15	0.4946	-1.1366e-06	1.04e-08
318.15	0.603	-1.0095e-06	1.02e-08
318.15	0.6765	-9.254e-07	1e-08
318.15	0.7918	-7.361e-07	9.6e-09
318.15	0.8825	-5.351e-07	9.4e-09
318.15	0.9539	-2.87e-07	9.5e-09
318.15	1	0	7.7e-09
320.65	0	0	7.7e-09
320.65	0.0497	-4.416e-07	1.13e-08
320.65	0.101	-7.271e-07	1e-08
320.65	0.201	-9.754e-07	1.02e-08
320.65	0.3009	-1.149e-06	1.05e-08
320.65	0.4057	-1.2026e-06	1.05e-08
320.65	0.4946	-1.1541e-06	1.05e-08
320.65	0.603	-1.0242e-06	1.02e-08
320.65	0.6765	-9.372e-07	1e-08
320.65	0.7918	-7.458e-07	9.7e-09
320.65	0.8825	-5.415e-07	9.4e-09
320.65	0.9539	-2.863e-07	9.5e-09
320.65	1	0	7.7e-09
323.15	0	0	7.7e-09
323.15	0.0497	-4.468e-07	1.14e-08
323.15	0.101	-7.379e-07	1.01e-08
323.15	0.201	-9.921e-07	1.03e-08
323.15	0.3009	-1.1682e-06	1.05e-08
323.15	0.4057	-1.2227e-06	1.06e-08
323.15	0.4946	-1.1724e-06	1.05e-08
323.15	0.603	-1.0423e-06	1.02e-08
323.15	0.6765	-9.493e-07	1.01e-08
323.15	0.7918	-7.563e-07	9.7e-09
323.15	0.8825	-5.472e-07	9.5e-09
323.15	0.9539	-2.863e-07	9.6e-09
323.15	1	0	7.7e-09
