Measured thermophysical data. Thermodynamics of solvation of some linear and branched aliphatic aldehydes in water and heptane
Source: J. Chem. Thermodyn., 2010, 10.1016/j.jct.2010.04.017
Compound 1: pentanal, C5H10O, InChI=1S/C5H10O/c1-2-3-4-5-6/h5H,2-4H2,1H3, purity 99.5%
Compound 2: butanal, C4H8O, InChI=1S/C4H8O/c1-2-3-4-5/h4H,2-3H2,1H3, purity 99.5%
Compound 3: 2,2-dimethylpropanal, C5H10O, InChI=1S/C5H10O/c1-5(2,3)4-6/h4H,1-3H3, purity 98%
Compound 4: 2-methylpropanal, C4H8O, InChI=1S/C4H8O/c1-4(2)3-5/h3-4H,1-2H3, purity 98%
Compound 5: water, H2O, InChI=1S/H2O/h1H2, purity 99.5%
Compound 6: propanal, C3H6O, InChI=1S/C3H6O/c1-2-3-4/h3H,2H2,1H3, purity 98%

System: pentanal + water; phases: Liquid, Liquid
Fixed: Temperature, K = 298.15
Property: Molar enthalpy of solution, kJ/mol (Liquid); method: Calvet calorimetry
Molality, mol/kg of pentanal	Molar enthalpy of solution, kJ/mol	uncertainty
0.842	-18.23	0.38
0.884	-18.24	0.38
1.215	-18.37	0.38
1.265	-18.33	0.38
1.831	-18.25	0.38

System: propanal + water; phases: Liquid, Liquid
Fixed: Temperature, K = 298.15
Property: Molar enthalpy of solution, kJ/mol (Liquid); method: Calvet calorimetry
Molality, mol/kg of propanal	Molar enthalpy of solution, kJ/mol	uncertainty
0.00822	-21.86	0.17
0.00977	-21.89	0.17
0.01265	-21.88	0.17
0.01345	-21.84	0.17
0.0241	-21.87	0.17

System: butanal + water; phases: Liquid, Liquid
Fixed: Temperature, K = 298.15
Property: Molar enthalpy of solution, kJ/mol (Liquid); method: Calvet calorimetry
Molality, mol/kg of butanal	Molar enthalpy of solution, kJ/mol	uncertainty
1.687	-19.34	0.39
2.475	-19.78	0.39
3.113	-19.19	0.38

System: 2,2-dimethylpropanal + water; phases: Liquid, Liquid
Fixed: Temperature, K = 298.15
Property: Molar enthalpy of solution, kJ/mol (Liquid); method: Calvet calorimetry
Molality, mol/kg of 2,2-dimethylpropanal	Molar enthalpy of solution, kJ/mol	uncertainty
1.687	-19.34	0.21
2.475	-19.78	0.21
3.113	-19.19	0.21

System: 2-methylpropanal + water; phases: Liquid, Liquid
Fixed: Temperature, K = 298.15
Property: Molar enthalpy of solution, kJ/mol (Liquid); method: Calvet calorimetry
Molality, mol/kg of 2-methylpropanal	Molar enthalpy of solution, kJ/mol	uncertainty
0.94	-17.87	0.5
0.998	-17.49	0.5
1.176	-17.22	0.5
1.759	-17.68	0.5
1.851	-17.09	0.5
