Measured thermophysical data. Densities and derived thermodynamic properties of 1-heptanol and 2-heptanol at temperatures from 313 K to 363 K and pressures up to 22 MPa
Source: J. Chem. Thermodyn., 2008, 10.1016/j.jct.2007.05.007
Compound 1: heptan-1-ol, C7H16O, InChI=1S/C7H16O/c1-2-3-4-5-6-7-8/h8H,2-7H2,1H3, purity 98%
Compound 2: 2-heptanol, C7H16O, InChI=1S/C7H16O/c1-3-4-5-6-7(2)8/h7-8H,3-6H2,1-2H3, purity 98%

System: heptan-1-ol; phases: Liquid
Property: Mass density, kg/m3 (Liquid); method: Vibrating tube method
Temperature, K	Pressure, kPa	Mass density, kg/m3	uncertainty
313.13	1001	808.5	0.3
313.13	2016	809.2	0.3
313.13	3001	809.9	0.3
313.13	4001	810.6	0.3
313.13	4999	811.2	0.3
313.13	6000	811.9	0.3
313.13	7000	812.6	0.3
313.13	7996	813.3	0.3
313.13	8998	813.9	0.3
313.13	10004	814.6	0.3
313.13	11010	815.2	0.3
313.13	12000	815.9	0.3
313.13	12997	816.5	0.3
313.13	14001	817.2	0.3
313.13	14997	817.8	0.3
313.13	16001	818.4	0.3
313.13	16995	819.1	0.3
313.13	17997	819.7	0.3
313.13	18351	819.9	0.3
313.13	19000	820.4	0.3
313.13	20005	821.1	0.3
313.13	20308	821.3	0.4
323.09	1003	801.4	0.3
323.09	2013	802.1	0.3
323.09	3005	802.9	0.3
323.09	4003	803.5	0.3
323.09	5002	804.3	0.3
323.09	6000	805	0.3
323.09	7000	805.7	0.3
323.09	8000	806.4	0.3
323.09	9000	807.1	0.3
323.09	10010	807.8	0.3
323.09	11005	808.5	0.3
323.09	12003	809.2	0.3
323.09	12991	809.9	0.3
323.09	14001	810.5	0.3
323.09	15009	811.2	0.3
323.09	16003	811.9	0.3
323.09	17002	812.5	0.3
323.09	18002	813.1	0.3
323.09	19005	813.8	0.3
323.09	20002	814.4	0.4
323.09	21031	815	0.4
323.09	22007	815.7	0.4
333.01	1031	794.3	0.3
333.01	2004	795.1	0.3
333.01	3002	795.8	0.3
333.01	4025	796.6	0.3
333.01	5006	797.3	0.3
333.01	5999	798.1	0.3
333.01	7003	798.8	0.3
333.01	8013	799.6	0.3
333.01	8998	800.3	0.3
333.01	10031	801.1	0.3
333.01	11002	801.8	0.3
333.01	12004	802.5	0.3
333.01	13003	803.2	0.3
333.01	14006	803.9	0.3
333.01	15004	804.6	0.3
333.01	16030	805.3	0.3
333.01	17006	805.9	0.3
333.01	18008	806.6	0.3
333.01	19003	807.3	0.4
333.01	20017	808	0.4
333.01	21003	808.6	0.4
333.01	21914	809.2	0.4
342.68	1023	787.3	0.3
342.68	2006	788.1	0.3
342.68	3015	788.9	0.3
342.68	4017	789.7	0.3
342.68	5007	790.5	0.3
342.68	6001	791.3	0.3
342.68	6998	792.1	0.3
342.68	8008	792.9	0.3
342.68	9005	793.6	0.3
342.68	10015	794.4	0.3
342.68	11016	795.1	0.3
342.68	12003	795.9	0.3
342.68	13013	796.6	0.3
342.68	14005	797.3	0.3
342.68	15002	798	0.3
342.68	16034	798.7	0.3
342.68	17008	799.4	0.3
342.68	18009	800.1	0.4
342.68	19004	800.7	0.4
342.68	20018	801.4	0.4
342.68	21004	802	0.4
342.68	22006	802.7	0.4
352.86	1020	779.5	0.3
352.86	2011	780.4	0.3
352.86	3030	781.3	0.3
352.86	4017	782.1	0.3
352.86	5005	782.9	0.3
352.86	6022	783.8	0.3
352.86	7004	784.6	0.3
352.86	8007	785.4	0.3
352.86	9007	786.3	0.3
352.86	10017	787	0.3
352.86	11013	787.9	0.3
352.86	12003	788.6	0.3
352.86	13015	789.4	0.3
352.86	14006	790.2	0.3
352.86	15006	790.9	0.3
352.86	16034	791.7	0.3
352.86	17018	792.5	0.4
352.86	18013	793.2	0.4
352.86	19004	793.9	0.4
352.86	20030	794.7	0.4
352.86	21006	795.4	0.4
352.86	22013	796.1	0.4
362.73	1039	770.9	0.3
362.73	2024	771.9	0.3
362.73	3016	772.8	0.3
362.73	4009	773.7	0.3
362.73	4974	774.5	0.3
362.73	6005	775.5	0.3
362.73	7006	776.4	0.3
362.73	8011	777.3	0.3
362.73	9008	778.1	0.3
362.73	10010	779	0.3
362.73	11013	779.8	0.3
362.73	12003	780.6	0.3
362.73	13006	781.5	0.3
362.73	14006	782.3	0.3
362.73	15014	783.1	0.3
362.73	16002	783.9	0.4
362.73	17004	784.7	0.4
362.73	18000	785.4	0.4
362.73	19000	786.2	0.4
362.73	20036	787	0.4
362.73	21004	787.7	0.4
362.73	22002	788.5	0.4

System: 2-heptanol; phases: Liquid
Property: Mass density, kg/m3 (Liquid); method: Vibrating tube method
Temperature, K	Pressure, kPa	Mass density, kg/m3	uncertainty
313.16	1003	802.5	0.3
313.16	2005	803.3	0.3
313.16	3002	804	0.3
313.16	4013	804.8	0.3
313.16	5001	805.5	0.3
313.16	5991	806.2	0.3
313.16	6993	806.9	0.3
313.16	7994	807.7	0.3
313.16	9011	808.4	0.3
313.16	9995	809.1	0.3
313.16	10990	809.8	0.3
313.16	11988	810.5	0.3
313.16	13003	811.2	0.3
313.16	13988	811.9	0.3
313.16	14992	812.6	0.3
313.16	15990	813.2	0.3
313.16	17012	813.9	0.3
313.16	17987	814.5	0.3
313.16	18982	815.2	0.3
313.16	20004	815.9	0.4
313.16	20996	816.5	0.4
313.16	21989	817.2	0.4
323.09	1026	794.4	0.3
323.09	2006	795.2	0.3
323.09	3018	796	0.3
323.09	4017	796.8	0.3
323.09	5005	797.5	0.3
323.09	6018	798.3	0.3
323.09	7002	799.1	0.3
323.09	8003	799.8	0.3
323.09	9017	800.6	0.3
323.09	10017	801.3	0.3
323.09	10994	802	0.3
323.09	11998	802.8	0.3
323.09	13028	803.5	0.3
323.09	13997	804.2	0.3
323.09	15005	804.9	0.3
323.09	16003	805.6	0.3
323.09	17013	806.3	0.3
323.09	18009	807	0.3
323.09	19003	807.6	0.4
323.09	20006	808.3	0.4
323.09	20998	808.9	0.4
323.09	22011	809.6	0.4
333.05	1047	786.1	0.3
333.05	2009	787	0.3
333.05	3005	787.8	0.3
333.05	4010	788.7	0.3
333.05	5015	789.5	0.3
333.05	6018	790.3	0.3
333.05	7022	791.1	0.3
333.05	8012	791.9	0.3
333.05	9031	792.8	0.3
333.05	10017	793.5	0.3
333.05	11080	794.3	0.3
333.05	12039	795.1	0.3
333.05	13026	795.8	0.3
333.05	14017	796.6	0.3
333.05	15024	797.3	0.3
333.05	16018	798.1	0.3
333.05	17020	798.8	0.3
333.05	18019	799.5	0.4
333.05	19029	800.2	0.4
333.05	20016	800.9	0.4
333.05	21037	801.7	0.4
333.05	22015	802.4	0.4
342.96	971	777.4	0.3
342.96	2038	778.5	0.3
342.96	3013	779.3	0.3
342.96	4034	780.2	0.3
342.96	5024	781.1	0.3
342.96	6033	782	0.3
342.96	7015	782.9	0.3
342.96	8023	783.8	0.3
342.96	9025	784.7	0.3
342.96	10020	785.4	0.3
342.96	11029	786.3	0.3
342.96	12020	787.1	0.3
342.96	13030	787.9	0.3
342.96	14039	788.7	0.3
342.96	15023	789.5	0.3
342.96	16026	790.3	0.3
342.96	17026	791.1	0.4
342.96	18034	791.9	0.4
342.96	19026	792.7	0.4
342.96	20040	793.5	0.4
342.96	21031	794.2	0.4
342.96	22028	795	0.4
352.85	1038	769	0.3
352.85	2045	770	0.3
352.85	3019	770.9	0.3
352.85	4058	771.9	0.3
352.85	5028	772.8	0.3
352.85	6028	773.7	0.3
352.85	7037	774.7	0.3
352.85	8022	775.5	0.3
352.85	9078	776.5	0.3
352.85	10037	777.3	0.3
352.85	11042	778.2	0.3
352.85	12042	779	0.3
352.85	13042	779.9	0.3
352.85	14040	780.8	0.3
352.85	15042	781.6	0.3
352.85	16053	782.5	0.4
352.85	17058	783.3	0.4
352.85	18042	784.1	0.4
352.85	19040	784.9	0.4
352.85	20070	785.7	0.4
352.85	21055	786.5	0.4
352.85	22050	787.3	0.4
362.72	1043	760.1	0.3
362.72	2049	761.2	0.3
362.72	3066	762.2	0.3
362.72	4062	763.2	0.3
362.72	5041	764.2	0.3
362.72	6045	765.2	0.3
362.72	7046	766.2	0.3
362.72	8042	767.2	0.3
362.72	9058	768.1	0.3
362.72	10038	769	0.3
362.72	11054	770	0.3
362.72	12046	770.9	0.3
362.72	13054	771.8	0.3
362.72	14048	772.7	0.3
362.72	15049	773.6	0.4
362.72	16050	774.5	0.4
362.72	17070	775.4	0.4
362.72	18065	776.2	0.4
362.72	19060	777.1	0.4
362.72	20081	777.9	0.4
362.72	21068	778.8	0.4
362.72	22063	779.6	0.4
