Measured thermophysical data. Thermodynamics of proton dissociation from aqueous bicarbonate: apparent molar volumes and apparent molar heat capacities of potassium carbonate and potassium bicarbonate at T=(278.15 to 393.15) K and at the pressure 0.35 MPa
Source: J. Chem. Thermodyn., 2004, 10.1016/j.jct.2003.12.008
Compound 1: water, H2O, InChI=1S/H2O/h1H2
Compound 2: potassium carbonate, CK2O3, InChI=1S/CH2O3.2K/c2-1(3)4;;/h(H2,2,3,4);;/q;2*+1/p-2
Compound 3: potassium bicarbonate, CHKO3, InChI=1S/CH2O3.K/c2-1(3)4;/h(H2,2,3,4);/q;+1/p-1

System: potassium carbonate + water; phases: Liquid
Fixed: Pressure, kPa = 350
Property: Apparent molar heat capacity, J/K/mol (Liquid); method: Differential flow calorimetry
Temperature, K	Molality, mol/kg of potassium carbonate	Apparent molar heat capacity, J/K/mol	uncertainty
278.15	0.01479	-366	26
278.15	0.02833	-381	16
278.15	0.05081	-372	9.9
278.15	0.08017	-359.9	7.9
278.15	0.15051	-337.4	6.5
278.15	0.30098	-295.7	6
278.15	0.50522	-251.5	5.4
283.15	0.01479	-304	27
283.15	0.02833	-322	16
283.15	0.05081	-315.6	9.7
283.15	0.08017	-306.3	7.6
283.15	0.15051	-288.6	6
283.15	0.30098	-254.2	5.6
283.15	0.50522	-216.6	5.1
288.15	0.01479	-251	26
288.15	0.02833	-273	16
288.15	0.05081	-270	9.5
288.15	0.08017	-263.1	7.2
288.15	0.15051	-249.3	5.5
288.15	0.30098	-220.5	5.2
288.15	0.50522	-188.1	4.7
293.15	0.01479	-209	26
293.15	0.02833	-233	16
293.15	0.05081	-232.7	9.4
293.15	0.08017	-228	7
293.15	0.15051	-217.2	5
293.15	0.30098	-192.8	4.8
293.15	0.50522	-164.4	4.4
298.15	0.01479	-171	27
298.15	0.02833	-200	16
298.15	0.05081	-201.4	9.3
298.15	0.08017	-198.8	6.8
298.15	0.15051	-190.7	4.7
298.15	0.30098	-170	4.4
298.15	0.50522	-144.8	4.2
303.15	0.01479	-139	27
303.15	0.02833	-171	16
303.15	0.05081	-175.3	9.2
303.15	0.08017	-174.3	6.6
303.15	0.15051	-168.7	4.3
303.15	0.30098	-150.9	4.1
303.15	0.50522	-128.3	3.8
308.15	0.01479	-112	27
308.15	0.02833	-147	16
308.15	0.05081	-152.7	9.4
308.15	0.08017	-153.4	6.6
308.15	0.15051	-150	4.1
308.15	0.30098	-134.7	3.9
308.15	0.50522	-114.3	3.7
313.15	0.01479	-87	28
313.15	0.02833	-125	17
313.15	0.05081	-133	9.5
313.15	0.08017	-135.2	6.5
313.15	0.15051	-133.8	3.9
313.15	0.30098	-120.7	3.7
313.15	0.50522	-102.1	3.5
318.15	0.01479	-65	29
318.15	0.02833	-105	17
318.15	0.05081	-115.6	9.7
318.15	0.08017	-119.3	6.6
318.15	0.15051	-119.8	3.7
318.15	0.30098	-108.7	3.5
318.15	0.50522	-91.7	3.3
323.15	0.01479	-45	30
323.15	0.02833	-87	18
323.15	0.05081	-100	9.8
323.15	0.08017	-105.2	6.6
323.15	0.15051	-107.4	3.5
323.15	0.30098	-98.2	3.4
323.15	0.50522	-82.5	3.2
328.15	0.01479	-26	31
328.15	0.02833	-71	18
328.15	0.05081	-85.7	9.9
328.15	0.08017	-92.3	6.6
328.15	0.15051	-96.4	3.3
328.15	0.30098	-88.9	3.2
328.15	0.50522	-74.5	3.1
333.15	0.01479	-8	32
333.15	0.02833	-56	18
333.15	0.05081	-72.6	10
333.15	0.08017	-80.6	6.6
333.15	0.15051	-86.6	3.3
333.15	0.30098	-80.6	3.1
333.15	0.50522	-67.4	2.9
338.15	0.01479	8	33
338.15	0.02833	-42	19
338.15	0.05081	-60.6	10.3
338.15	0.08017	-70	6.7
338.15	0.15051	-77.8	3.1
338.15	0.30098	-73.4	2.9
338.15	0.50522	-61.3	2.8
343.15	0.01479	22	34
343.15	0.02833	-30	19
343.15	0.05081	-49.4	10.3
343.15	0.08017	-60.3	6.8
343.15	0.15051	-69.7	3
343.15	0.30098	-66.8	2.8
343.15	0.50522	-55.7	2.7
348.15	0.01479	35	34
348.15	0.02833	-18	19
348.15	0.05081	-39.1	10.4
348.15	0.08017	-51.2	6.7
348.15	0.15051	-62.1	2.9
348.15	0.30098	-60.8	2.7
348.15	0.50522	-50.5	2.6
353.15	0.01479	47	35
353.15	0.02833	-7	19
353.15	0.05081	-29.2	10.3
353.15	0.08017	-42.6	6.6
353.15	0.15051	-55.2	2.8
353.15	0.30098	-55.3	2.6
353.15	0.50522	-45.9	2.5
358.15	0.01479	57	35
358.15	0.02833	4	19
358.15	0.05081	-20.1	10.4
358.15	0.08017	-34.6	6.7
358.15	0.15051	-48.6	2.7
358.15	0.30098	-50.1	2.5
358.15	0.50522	-41.6	2.4
363.15	0.01479	65	36
363.15	0.02833	13	19
363.15	0.05081	-11.7	10.3
363.15	0.08017	-27.2	6.6
363.15	0.15051	-42.6	2.7
363.15	0.30098	-45.4	2.3
363.15	0.50522	-37.7	2.3
368.15	0.01479	71	38
368.15	0.02833	21	19
368.15	0.05081	-3.9	10.4
368.15	0.08017	-20.4	6.7
368.15	0.15051	-37.2	2.5
368.15	0.30098	-41.3	2.2
368.15	0.50522	-34.3	2.2
373.15	0.01479	76	38
373.15	0.02833	28	19
373.15	0.05081	3.2	10.5
373.15	0.08017	-14.1	6.7
373.15	0.15051	-32	2.5
373.15	0.30098	-37.3	2.3
373.15	0.50522	-31	2.2
378.15	0.01479	79	39
378.15	0.02833	34	19
378.15	0.05081	9.4	10.6
378.15	0.08017	-8.4	6.7
378.15	0.15051	-27.2	2.4
378.15	0.30098	-33.6	2.2
378.15	0.50522	-27.9	2.1
383.15	0.01479	80	40
383.15	0.02833	38	19
383.15	0.05081	14.8	10.5
383.15	0.08017	-3.1	6.7
383.15	0.15051	-22.6	2.4
383.15	0.30098	-29.9	2.1
383.15	0.50522	-24.9	2
388.15	0.01479	78	40
388.15	0.02833	41	18
388.15	0.05081	19.6	10.4
388.15	0.08017	1.6	6.6
388.15	0.15051	-18.4	2.4
388.15	0.30098	-26.6	2
388.15	0.50522	-22.1	1.9
393.15	0.01479	75	40
393.15	0.02833	43	18
393.15	0.05081	23.3	10.3
393.15	0.08017	5.2	6.5
393.15	0.15051	-14.8	2.3
393.15	0.30098	-23.6	1.9
393.15	0.50522	-19.3	1.8

System: potassium carbonate + water; phases: Liquid
Fixed: Pressure, kPa = 350
Property: Apparent molar volume, m3/mol (Liquid); method: Calculated with densities of this investigation
Temperature, K	Molality, mol/kg of potassium carbonate	Apparent molar volume, m3/mol	uncertainty
278.15	0.01479	1.9e-06	4e-06
278.15	0.02833	3.6e-06	2.1e-06
278.15	0.05081	6.1e-06	1.2e-06
278.15	0.08017	7.26e-06	7.3e-07
278.15	0.15051	1.106e-05	8.6e-07
278.15	0.30098	1.407e-05	4.2e-07
278.15	0.50522	1.638e-05	2.5e-07
283.15	0.01479	6.8e-06	3.5e-06
283.15	0.02833	6.1e-06	1.8e-06
283.15	0.05081	8.7e-06	1e-06
283.15	0.08017	9.9e-06	6.5e-07
283.15	0.15051	1.311e-05	6.8e-07
283.15	0.30098	1.581e-05	3.5e-07
283.15	0.50522	1.794e-05	2.2e-07
288.15	0.01479	9.1e-06	3.5e-06
288.15	0.02833	8.2e-06	1.8e-06
288.15	0.05081	1.06e-05	1e-06
288.15	0.08017	1.18e-05	6.5e-07
288.15	0.15051	1.465e-05	5.9e-07
288.15	0.30098	1.724e-05	3.1e-07
288.15	0.50522	1.92e-05	2.1e-07
298.15	0.01479	1.31e-05	4e-06
298.15	0.02833	1.12e-05	2.1e-06
298.15	0.05081	1.39e-05	1.2e-06
298.15	0.08017	1.459e-05	7.4e-07
298.15	0.15051	1.693e-05	5e-07
298.15	0.30098	1.941e-05	2.6e-07
298.15	0.50522	2.117e-05	1.7e-07
308.15	0.01479	1.63e-05	3.6e-06
308.15	0.02833	1.32e-05	1.9e-06
308.15	0.05081	1.42e-05	1e-06
308.15	0.08017	1.636e-05	6.7e-07
308.15	0.15051	1.868e-05	4.5e-07
308.15	0.30098	2.09e-05	2.3e-07
308.15	0.50522	2.253e-05	1.4e-07
318.15	0.01479	1.86e-05	3.7e-06
318.15	0.02833	1.55e-05	1.9e-06
318.15	0.05081	1.37e-05	1e-06
318.15	0.08017	1.723e-05	6.7e-07
318.15	0.15051	2.009e-05	4.1e-07
318.15	0.30098	2.205e-05	2e-07
318.15	0.50522	2.36e-05	1.2e-07
328.15	0.01479	2.44e-05	7.9e-06
328.15	0.02833	1.83e-05	4.1e-06
328.15	0.05081	1.62e-05	2.3e-06
328.15	0.08017	1.81e-05	1.5e-06
328.15	0.15051	1.993e-05	4.8e-07
328.15	0.30098	2.267e-05	2.4e-07
328.15	0.50522	2.407e-05	1.4e-07
338.15	0.01479	1.54e-05	3.2e-06
338.15	0.02833	1.45e-05	1.7e-06
338.15	0.05081	1.72e-05	9e-07
338.15	0.08017	1.85e-05	6e-07
338.15	0.15051	2.044e-05	7.8e-07
338.15	0.30098	2.224e-05	3.9e-07
338.15	0.50522	2.384e-05	2.3e-07
348.15	0.01479	1.84e-05	4.1e-06
348.15	0.02833	1.61e-05	2.1e-06
348.15	0.05081	1.75e-05	1.2e-06
348.15	0.08017	1.857e-05	7.5e-07
348.15	0.15051	2.078e-05	1.5e-07
348.15	0.30098	2.214e-05	9e-08
348.15	0.50522	2.374e-05	7e-08
358.15	0.01479	1.81e-05	3.6e-06
358.15	0.02833	1.69e-05	1.8e-06
358.15	0.05081	1.68e-05	1e-06
358.15	0.08017	1.82e-05	6e-07
358.15	0.15051	1.969e-05	3.3e-07
358.15	0.30098	2.153e-05	1.7e-07
358.15	0.50522	2.31e-05	1.1e-07
368.15	0.01479	1.65e-05	6.7e-06
368.15	0.02833	1.37e-05	3.5e-06
368.15	0.05081	1.59e-05	1.9e-06
368.15	0.08017	1.75e-05	1.2e-06
368.15	0.15051	1.9e-05	4.9e-07
368.15	0.30098	2.099e-05	2.5e-07
368.15	0.50522	2.246e-05	1.5e-07

System: potassium bicarbonate + water; phases: Liquid
Fixed: Pressure, kPa = 350
Property: Apparent molar heat capacity, J/K/mol (Liquid); method: Differential flow calorimetry
Temperature, K	Molality, mol/kg of potassium bicarbonate	Apparent molar heat capacity, J/K/mol	uncertainty
278.15	0.01505	-127.2	19.5
278.15	0.03015	-125.8	10
278.15	0.05045	-113.3	6.4
278.15	0.08064	-109.6	4.8
278.15	0.1505	-101.2	4
278.15	0.30169	-86.6	3.6
278.15	0.50348	-70.3	3.3
283.15	0.01505	-100.9	19.7
283.15	0.03015	-98.6	10
283.15	0.05045	-86.4	6.4
283.15	0.08064	-83.2	4.8
283.15	0.1505	-75.8	3.8
283.15	0.30169	-63.6	3.4
283.15	0.50348	-49.7	3.2
288.15	0.01505	-79.2	19.9
288.15	0.03015	-76.1	10
288.15	0.05045	-64.9	6.5
288.15	0.08064	-62.3	4.7
288.15	0.1505	-55.8	3.7
288.15	0.30169	-45	3.2
288.15	0.50348	-33.1	3
293.15	0.01505	-62.7	20
293.15	0.03015	-58.1	9.9
293.15	0.05045	-47.6	6.4
293.15	0.08064	-45.3	4.6
293.15	0.1505	-39.5	3.6
293.15	0.30169	-30.1	3.1
293.15	0.50348	-19.6	2.8
298.15	0.01505	-50.4	20.1
298.15	0.03015	-44	9.9
298.15	0.05045	-34.2	6.4
298.15	0.08064	-32	4.6
298.15	0.1505	-26.5	3.4
298.15	0.30169	-18.3	2.9
298.15	0.50348	-8.9	2.7
303.15	0.01505	-40.2	20.2
303.15	0.03015	-32.7	10
303.15	0.05045	-23.2	6.5
303.15	0.08064	-21.1	4.6
303.15	0.1505	-15.9	3.4
303.15	0.30169	-8.5	2.8
303.15	0.50348	0.1	2.7
308.15	0.01505	-32.2	20.3
308.15	0.03015	-23.7	10.1
308.15	0.05045	-14.4	6.6
308.15	0.08064	-12.5	4.6
308.15	0.1505	-7.6	3.3
308.15	0.30169	-0.7	2.8
308.15	0.50348	7.4	2.6
313.15	0.01505	-23.6	20.4
313.15	0.03015	-15.5	10.1
313.15	0.05045	-6.9	6.6
313.15	0.08064	-4.9	4.7
313.15	0.1505	-0.4	3.3
313.15	0.30169	5.8	2.7
313.15	0.50348	13.5	2.5
318.15	0.01505	-18.1	20.4
318.15	0.03015	-8.9	10.2
318.15	0.05045	-1.1	6.7
318.15	0.08064	0.7	4.6
318.15	0.1505	5	3.2
318.15	0.30169	11	2.7
318.15	0.50348	18.4	2.4
323.15	0.01505	-12.4	20.5
323.15	0.03015	-4.1	10.2
323.15	0.05045	3.6	6.6
323.15	0.08064	5.4	4.6
323.15	0.1505	9.5	3.3
323.15	0.30169	15.3	2.6
323.15	0.50348	22.5	2.4
328.15	0.01505	-8.5	20.5
328.15	0.03015	0	10.3
328.15	0.05045	7.5	6.7
328.15	0.08064	9.2	4.6
328.15	0.1505	13.2	3.2
328.15	0.30169	18.9	2.6
328.15	0.50348	26	2.4
333.15	0.01505	-4.9	20.5
333.15	0.03015	3.4	10.3
333.15	0.05045	11	6.9
333.15	0.08064	12.6	4.8
333.15	0.1505	16.4	3.3
333.15	0.30169	22	2.6
333.15	0.50348	28.9	2.4
338.15	0.01505	-0.9	20.6
338.15	0.03015	6.8	10.4
338.15	0.05045	13.6	6.8
338.15	0.08064	15.1	4.7
338.15	0.1505	18.8	3.3
338.15	0.30169	24.4	2.6
338.15	0.50348	31.4	2.3
343.15	0.01505	0.6	20.6
343.15	0.03015	8.7	10.4
343.15	0.05045	15.5	7
343.15	0.08064	16.9	4.8
343.15	0.1505	20.7	3.3
343.15	0.30169	26.2	2.5
343.15	0.50348	33.2	2.3
348.15	0.01505	2.2	20.6
348.15	0.03015	10.5	10.4
348.15	0.05045	16.8	6.9
348.15	0.08064	18	4.7
348.15	0.1505	21.9	3.2
348.15	0.30169	27.5	2.5
348.15	0.50348	34.7	2.3
353.15	0.01505	4.8	20.7
353.15	0.03015	12.1	10.4
353.15	0.05045	18	7.1
353.15	0.08064	19.2	4.8
353.15	0.1505	23	3.2
353.15	0.30169	28.7	2.5
353.15	0.50348	35.9	2.3
358.15	0.01505	7	20.7
358.15	0.03015	13.4	10.5
358.15	0.05045	18.2	6.7
358.15	0.08064	19.3	4.6
358.15	0.1505	23.4	3.2
358.15	0.30169	29.3	2.5
358.15	0.50348	36.8	2.2
363.15	0.01505	9.6	20.7
363.15	0.03015	14.1	10.5
363.15	0.05045	18.2	6.6
363.15	0.08064	19.4	4.6
363.15	0.1505	23.4	3.2
363.15	0.30169	29.7	2.5
363.15	0.50348	37.3	2.2
368.15	0.01505	10.4	20.7
368.15	0.03015	14.8	10.5
368.15	0.05045	18.2	6.6
368.15	0.08064	19.1	4.6
368.15	0.1505	23.4	3.2
368.15	0.30169	29.9	2.5
368.15	0.50348	37.6	2.2
373.15	0.01505	11.1	20.7
373.15	0.03015	15.4	10.5
373.15	0.05045	18.4	6.7
373.15	0.08064	19.2	4.6
373.15	0.1505	23.4	3.2
373.15	0.30169	30	2.5
373.15	0.50348	37.7	2.3
378.15	0.01505	12.1	20.8
378.15	0.03015	15.3	10.5
378.15	0.05045	18.1	6.8
378.15	0.08064	18.7	4.6
378.15	0.1505	22.9	3.2
378.15	0.30169	29.6	2.5
378.15	0.50348	37.2	2.3
383.15	0.01505	13.1	20.8
383.15	0.03015	14.9	10.5
383.15	0.05045	17.8	6.9
383.15	0.08064	17.7	4.7
383.15	0.1505	22.3	3.2
383.15	0.30169	29.3	2.5
383.15	0.50348	36.6	2.3
388.15	0.01505	14.3	20.8
388.15	0.03015	14.4	10.5
388.15	0.05045	16.8	6.8
388.15	0.08064	14.9	4.6
388.15	0.1505	21.4	3.2
388.15	0.30169	28.7	2.5
388.15	0.50348	35.4	2.3
393.15	0.01505	11.1	20.8
393.15	0.03015	14.5	10.5
393.15	0.05045	16.4	6.9
393.15	0.08064	15	4.7
393.15	0.1505	20.4	3.2
393.15	0.30169	27.8	2.6
393.15	0.50348	33.9	2.3

System: potassium bicarbonate + water; phases: Liquid
Fixed: Pressure, kPa = 350
Property: Apparent molar volume, m3/mol (Liquid); method: Calculated with densities of this investigation
Temperature, K	Molality, mol/kg of potassium bicarbonate	Apparent molar volume, m3/mol	uncertainty
278.15	0.01505	3.211e-05	1.75e-06
278.15	0.03015	3.185e-05	8.6e-07
278.15	0.05045	3.033e-05	4.9e-07
278.15	0.08064	3.112e-05	3.2e-07
278.15	0.1505	3.092e-05	2.9e-07
278.15	0.30169	3.174e-05	1.4e-07
278.15	0.50348	3.243e-05	9e-08
283.15	0.01505	3.277e-05	1.74e-06
283.15	0.03015	3.224e-05	9.3e-07
283.15	0.05045	3.134e-05	5.5e-07
283.15	0.08064	3.208e-05	3.6e-07
283.15	0.1505	3.191e-05	3e-07
283.15	0.30169	3.271e-05	1.7e-07
283.15	0.50348	3.333e-05	1.2e-07
288.15	0.01505	3.348e-05	1.83e-06
288.15	0.03015	3.243e-05	9.6e-07
288.15	0.05045	3.222e-05	5.8e-07
288.15	0.08064	3.277e-05	3.8e-07
288.15	0.1505	3.275e-05	3.2e-07
288.15	0.30169	3.349e-05	1.8e-07
288.15	0.50348	3.416e-05	1.3e-07
298.15	0.01505	3.391e-05	1.81e-06
298.15	0.03015	3.361e-05	1.16e-06
298.15	0.05045	3.336e-05	7e-07
298.15	0.08064	3.369e-05	4.4e-07
298.15	0.1505	3.414e-05	2.7e-07
298.15	0.30169	3.48e-05	1.6e-07
298.15	0.50348	3.537e-05	1.1e-07
308.15	0.01505	3.513e-05	1.98e-06
308.15	0.03015	3.466e-05	1.14e-06
308.15	0.05045	3.427e-05	6.9e-07
308.15	0.08064	3.455e-05	4.3e-07
308.15	0.1505	3.509e-05	2.4e-07
308.15	0.30169	3.572e-05	1.3e-07
308.15	0.50348	3.622e-05	9e-08
318.15	0.01505	3.51e-05	2.1e-06
318.15	0.03015	3.476e-05	1.05e-06
318.15	0.05045	3.519e-05	6.3e-07
318.15	0.08064	3.521e-05	4e-07
318.15	0.1505	3.582e-05	2.3e-07
318.15	0.30169	3.63e-05	1.2e-07
318.15	0.50348	3.681e-05	8e-08
328.15	0.01505	3.55e-05	2.2e-06
328.15	0.03015	3.577e-05	9.9e-07
328.15	0.05045	3.597e-05	6e-07
328.15	0.08064	3.556e-05	3.7e-07
328.15	0.1505	3.626e-05	2.1e-07
328.15	0.30169	3.674e-05	1.1e-07
328.15	0.50348	3.72e-05	8e-08
338.15	0.01505	3.64e-05	2.3e-06
338.15	0.03015	3.631e-05	1.03e-06
338.15	0.05045	3.617e-05	6.1e-07
338.15	0.08064	3.588e-05	3.8e-07
338.15	0.1505	3.646e-05	2.2e-07
338.15	0.30169	3.696e-05	1.2e-07
338.15	0.50348	3.737e-05	8e-08
348.15	0.01505	3.54e-05	2.3e-06
348.15	0.03015	3.633e-05	1.05e-06
348.15	0.05045	3.606e-05	6.3e-07
348.15	0.08064	3.56e-05	3.9e-07
348.15	0.1505	3.654e-05	2.1e-07
348.15	0.30169	3.698e-05	1.2e-07
348.15	0.50348	3.743e-05	8e-08
358.15	0.01505	3.49e-05	2e-06
358.15	0.03015	3.579e-05	9.5e-07
358.15	0.05045	3.587e-05	5.7e-07
358.15	0.08064	3.57e-05	3.6e-07
358.15	0.1505	3.63e-05	2.2e-07
358.15	0.30169	3.688e-05	1.2e-07
358.15	0.50348	3.732e-05	8e-08
368.15	0.01505	3.47e-05	2.3e-06
368.15	0.03015	3.579e-05	9.9e-07
368.15	0.05045	3.554e-05	5.9e-07
368.15	0.08064	3.518e-05	3.7e-07
368.15	0.1505	3.592e-05	2.2e-07
368.15	0.30169	3.662e-05	1.2e-07
368.15	0.50348	3.714e-05	8e-08
