Measured thermophysical data. Thermodynamic study of solvent-free reaction between 17-methyltestosterone and o-aminophenol
Source: J. Chem. Thermodyn., 2011, 10.1016/j.jct.2011.02.003
Compound 1: carbon dioxide, CO2, InChI=1S/CO2/c2-1-3
Compound 2: water, H2O, InChI=1S/H2O/h1H2
Compound 3: oxygen, O2, InChI=1S/O2/c1-2
Compound 4: nitrogen, N2, InChI=1S/N2/c1-2
Compound 5: 17-methyltestosterone, C20H30O2, InChI=1S/C20H30O2/c1-18-9-6-14(21)12-13(18)4-5-15-16(18)7-10-19(2)17(15)8-11-20(19,3)22/h12,15-17,22H,4-11H2,1-3H3/t15-,16+,17+,18+,19+,20+/m1/s1, purity 99%
Compound 6: 2-hydroxybenzenamine, C6H7NO, InChI=1S/C6H7NO/c7-5-3-1-2-4-6(5)8/h1-4,8H,7H2, purity 99.5%
Compound 7: (8R,9S,10R,13S,14S,17S,E)-3-((2-hydroxyphenyl)imino)-10,13,17-trimethyl-2,3,6,7,8,9,10,11,12,13,14,15,16,17-tetradecahydro-1H-cyclopenta[a]phenanthren-17-ol, C26H35NO2, InChI=1S/C26H35NO2/c1-24-13-10-18(27-22-6-4-5-7-23(22)28)16-17(24)8-9-19-20(24)11-14-25(2)21(19)12-15-26(25,3)29/h4-7,16,19-21,28-29H,8-15H2,1-3H3/b27-18+/t19-,20+,21+,24+,25+,26+/m1/s1

System: 17-methyltestosterone; phases: Crystal, Liquid, Air at 1 atmosphere
Property: Normal melting temperature, K (Crystal); method: DTA
Normal melting temperature, K	uncertainty
437.34	0.71

System: 17-methyltestosterone; phases: Crystal, Liquid, Air at 1 atmosphere
Property: Molar enthalpy of transition or fusion, kJ/mol (Crystal); method: DSC
Molar enthalpy of transition or fusion, kJ/mol	uncertainty
25.02	7.52

System: 2-hydroxybenzenamine; phases: Crystal, Liquid, Air at 1 atmosphere
Property: Normal melting temperature, K (Crystal); method: DTA
Normal melting temperature, K	uncertainty
448.72	0.93

System: 2-hydroxybenzenamine; phases: Crystal, Liquid, Air at 1 atmosphere
Property: Molar enthalpy of transition or fusion, kJ/mol (Crystal); method: DSC
Molar enthalpy of transition or fusion, kJ/mol	uncertainty
26.74	8.04

Reaction: -1 17-methyltestosterone + 20 carbon dioxide + 15 water + -26.5 oxygen
Property: Specific internal energy of reaction at constant volume, J/g
-37695.48

Reaction: -1 2-hydroxybenzenamine + 6 carbon dioxide + .5 nitrogen + 3.5 water + -7.25 oxygen
Property: Specific internal energy of reaction at constant volume, J/g
-29083.66

Reaction: -1 (8R,9S,10R,13S,14S,17S,E)-3-((2-hydroxyphenyl)imino)-10,13,17-trimethyl-2,3,6,7,8,9,10,11,12,13,14,15,16,17-tetradecahydro-1H-cyclopenta[a]phenanthren-17-ol + 26 carbon dioxide + .5 nitrogen + 17.5 water + -33.75 oxygen
Property: Specific internal energy of reaction at constant volume, J/g
-37378.86
