Measured thermophysical data. Determination and correlation of the solubility of four Bronsted-acidic ionic liquids based on benzothiazolium cations in six alcohols
Source: J. Chem. Thermodyn., 2014, 10.1016/j.jct.2013.12.031
Compound 1: benzothiazolium tetrafluoroborate, C7H6BF4NS, InChI=1S/C7H5NS.BF4/c1-2-4-7-6(3-1)8-5-9-7;2-1(3,4)5/h1-5H;/q;-1/p+1
Compound 2: benzothiazolium p-toluenesulfonate, C14H13NO3S2, InChI=1S/C7H5NS.C7H8O3S/c1-2-4-7-6(3-1)8-5-9-7;1-6-2-4-7(5-3-6)11(8,9)10/h1-5H;2-5H,1H3,(H,8,9,10)
Compound 3: benzothiazolium methanesulfonate, C8H9NO3S2, InChI=1S/C7H5NS.CH4O3S/c1-2-4-7-6(3-1)8-5-9-7;1-5(2,3)4/h1-5H;1H3,(H,2,3,4)
Compound 4: benzothiazolium trifluoromethanesulfonate, C8H6F3NO3S2, InChI=1S/C7H5NS.CHF3O3S/c1-2-4-7-6(3-1)8-5-9-7;2-1(3,4)8(5,6)7/h1-5H;(H,5,6,7)
Compound 5: methanol, CH4O, InChI=1S/CH4O/c1-2/h2H,1H3, purity 99.5%
Compound 6: ethanol, C2H6O, InChI=1S/C2H6O/c1-2-3/h3H,2H2,1H3, purity 99.5%
Compound 7: propan-1-ol, C3H8O, InChI=1S/C3H8O/c1-2-3-4/h4H,2-3H2,1H3, purity 99.5%
Compound 8: propan-2-ol, C3H8O, InChI=1S/C3H8O/c1-3(2)4/h3-4H,1-2H3, purity 99.5%
Compound 9: butan-1-ol, C4H10O, InChI=1S/C4H10O/c1-2-3-4-5/h5H,2-4H2,1H3, purity 99.5%
Compound 10: 2-methyl-1-propanol, C4H10O, InChI=1S/C4H10O/c1-4(2)3-5/h4-5H,3H2,1-2H3, purity 99.5%

System: benzothiazolium tetrafluoroborate; phases: Crystal, Liquid, Air at 1 atmosphere
Property: Normal melting temperature, K (Crystal); method: VISOBS
Normal melting temperature, K	uncertainty
398.15	0.5

System: benzothiazolium p-toluenesulfonate; phases: Crystal, Liquid, Air at 1 atmosphere
Property: Normal melting temperature, K (Crystal); method: VISOBS
Normal melting temperature, K	uncertainty
393.15	0.5

System: benzothiazolium methanesulfonate; phases: Crystal, Liquid, Air at 1 atmosphere
Property: Normal melting temperature, K (Crystal); method: VISOBS
Normal melting temperature, K	uncertainty
378.15	0.5

System: benzothiazolium trifluoromethanesulfonate; phases: Crystal, Liquid, Air at 1 atmosphere
Property: Normal melting temperature, K (Crystal); method: VISOBS
Normal melting temperature, K	uncertainty
401.15	0.5

System: methanol + benzothiazolium tetrafluoroborate; phases: Liquid, Crystal
Fixed: Pressure, kPa = 101
Property: Mole fraction of benzothiazolium tetrafluoroborate (Liquid); method: UV-Vis spectrophotometry
Temperature, K	Mole fraction of benzothiazolium tetrafluoroborate	uncertainty
253.75	0.0114	0.0005
263.25	0.0159	0.0006
268.15	0.0209	0.0009
278.25	0.0392	0.0016
283.65	0.058	0.0024
293.55	0.097	0.0039
303.05	0.149	0.006
313.15	0.219	0.009
323.15	0.329	0.013
333.05	0.466	0.019

System: methanol + benzothiazolium p-toluenesulfonate; phases: Liquid, Crystal
Fixed: Pressure, kPa = 101
Property: Mole fraction of benzothiazolium p-toluenesulfonate (Liquid); method: UV-Vis spectrophotometry
Temperature, K	Mole fraction of benzothiazolium p-toluenesulfonate	uncertainty
253.75	0.00513	0.00021
263.25	0.00637	0.00026
268.15	0.00793	0.00032
278.25	0.0146	0.0006
283.65	0.0201	0.0008
293.55	0.0331	0.0013
303.05	0.0489	0.002
313.15	0.0666	0.0027
323.15	0.104	0.004
333.05	0.16	0.006

System: methanol + benzothiazolium methanesulfonate; phases: Liquid, Crystal
Fixed: Pressure, kPa = 101
Property: Mole fraction of benzothiazolium methanesulfonate (Liquid); method: UV-Vis spectrophotometry
Temperature, K	Mole fraction of benzothiazolium methanesulfonate	uncertainty
253.75	0.00434	0.00017
263.25	0.00593	0.00024
268.15	0.00708	0.00029
278.25	0.0118	0.0005
283.65	0.0144	0.0006
293.55	0.0204	0.0008
303.05	0.029	0.0012
313.15	0.0411	0.0017
323.15	0.0605	0.0024
333.05	0.0863	0.0035

System: methanol + benzothiazolium trifluoromethanesulfonate; phases: Liquid, Crystal
Fixed: Pressure, kPa = 101
Property: Mole fraction of benzothiazolium trifluoromethanesulfonate (Liquid); method: UV-Vis spectrophotometry
Temperature, K	Mole fraction of benzothiazolium trifluoromethanesulfonate	uncertainty
253.75	0.0182	0.0007
263.25	0.0321	0.0013
268.15	0.0409	0.0017
278.25	0.0606	0.0024
283.65	0.0719	0.0029
293.55	0.107	0.004
303.05	0.163	0.007
313.15	0.235	0.009
323.15	0.346	0.014
333.05	0.516	0.021

System: ethanol + benzothiazolium tetrafluoroborate; phases: Liquid, Crystal
Fixed: Pressure, kPa = 101
Property: Mole fraction of benzothiazolium tetrafluoroborate (Liquid); method: UV-Vis spectrophotometry
Temperature, K	Mole fraction of benzothiazolium tetrafluoroborate	uncertainty
253.15	0.00408	0.00016
263.35	0.00506	0.0002
268.15	0.00583	0.00023
273.25	0.00668	0.00027
278.15	0.0077	0.00031
283.05	0.00927	0.00037
293.85	0.0139	0.0006
303.65	0.0244	0.001
313.75	0.0408	0.0017
323.25	0.0689	0.0028
333.55	0.115	0.005
343.25	0.175	0.007

System: ethanol + benzothiazolium p-toluenesulfonate; phases: Liquid, Crystal
Fixed: Pressure, kPa = 101
Property: Mole fraction of benzothiazolium p-toluenesulfonate (Liquid); method: UV-Vis spectrophotometry
Temperature, K	Mole fraction of benzothiazolium p-toluenesulfonate	uncertainty
253.15	0.00272	0.00011
263.35	0.00359	0.00014
268.15	0.00434	0.00017
273.25	0.00497	0.0002
278.15	0.00636	0.00026
283.05	0.00786	0.00032
293.85	0.0116	0.0005
303.65	0.0202	0.0008
313.75	0.0308	0.0013
323.25	0.0601	0.0024
333.55	0.111	0.005
343.25	0.171	0.007

System: ethanol + benzothiazolium methanesulfonate; phases: Liquid, Crystal
Fixed: Pressure, kPa = 101
Property: Mole fraction of benzothiazolium methanesulfonate (Liquid); method: UV-Vis spectrophotometry
Temperature, K	Mole fraction of benzothiazolium methanesulfonate	uncertainty
253.15	0.0023	9e-05
263.35	0.00303	0.00012
268.15	0.00369	0.00015
273.25	0.00441	0.00018
278.15	0.00522	0.00021
283.05	0.00628	0.00025
293.85	0.00982	0.0004
303.65	0.0143	0.0006
313.75	0.0223	0.0009
323.25	0.0353	0.0014
333.55	0.0539	0.0022
343.25	0.0853	0.0034

System: ethanol + benzothiazolium trifluoromethanesulfonate; phases: Liquid, Crystal
Fixed: Pressure, kPa = 101
Property: Mole fraction of benzothiazolium trifluoromethanesulfonate (Liquid); method: UV-Vis spectrophotometry
Temperature, K	Mole fraction of benzothiazolium trifluoromethanesulfonate	uncertainty
253.15	0.0169	0.0007
263.35	0.0277	0.0011
268.15	0.0351	0.0014
273.25	0.0442	0.0018
278.15	0.0537	0.0022
283.05	0.0688	0.0028
293.85	0.102	0.004
303.65	0.154	0.006
313.75	0.223	0.009
323.25	0.322	0.013
333.55	0.445	0.018
343.25	0.624	0.025

System: propan-1-ol + benzothiazolium tetrafluoroborate; phases: Liquid, Crystal
Fixed: Pressure, kPa = 101
Property: Mole fraction of benzothiazolium tetrafluoroborate (Liquid); method: UV-Vis spectrophotometry
Temperature, K	Mole fraction of benzothiazolium tetrafluoroborate	uncertainty
253.45	0.00347	0.00014
258.15	0.0037	0.00015
263.35	0.00436	0.00018
268.15	0.00478	0.00019
278.15	0.00702	0.00028
283.25	0.00841	0.00034
293.75	0.0117	0.0005
303.85	0.0168	0.0007
313.65	0.029	0.0012
323.35	0.0494	0.002
333.35	0.0818	0.0033
343.45	0.135	0.005
353.25	0.217	0.009
363.45	0.346	0.014

System: propan-1-ol + benzothiazolium p-toluenesulfonate; phases: Liquid, Crystal
Fixed: Pressure, kPa = 101
Property: Mole fraction of benzothiazolium p-toluenesulfonate (Liquid); method: UV-Vis spectrophotometry
Temperature, K	Mole fraction of benzothiazolium p-toluenesulfonate	uncertainty
253.45	0.00248	0.0001
258.15	0.00278	0.00011
263.35	0.00317	0.00013
268.15	0.00378	0.00015
278.15	0.00487	0.0002
283.25	0.00563	0.00023
293.75	0.00803	0.00032
303.85	0.0118	0.0005
313.65	0.0255	0.001
323.35	0.0417	0.0017
333.35	0.0793	0.0032
343.45	0.131	0.005
353.25	0.202	0.008
363.45	0.342	0.014

System: propan-1-ol + benzothiazolium methanesulfonate; phases: Liquid, Crystal
Fixed: Pressure, kPa = 101
Property: Mole fraction of benzothiazolium methanesulfonate (Liquid); method: UV-Vis spectrophotometry
Temperature, K	Mole fraction of benzothiazolium methanesulfonate	uncertainty
253.45	0.00206	8e-05
258.15	0.00238	0.0001
263.35	0.00246	0.0001
268.15	0.00305	0.00012
278.15	0.00378	0.00015
283.25	0.00459	0.00018
293.75	0.00617	0.00025
303.85	0.00867	0.00035
313.65	0.0153	0.0006
323.35	0.0264	0.0011
333.35	0.0403	0.0016
343.45	0.0665	0.0027
353.25	0.11	0.004
363.45	0.179	0.007

System: propan-1-ol + benzothiazolium trifluoromethanesulfonate; phases: Liquid, Crystal
Fixed: Pressure, kPa = 101
Property: Mole fraction of benzothiazolium trifluoromethanesulfonate (Liquid); method: UV-Vis spectrophotometry
Temperature, K	Mole fraction of benzothiazolium trifluoromethanesulfonate	uncertainty
253.45	0.00249	0.00011
258.15	0.00432	0.00018
263.35	0.00638	0.00026
268.15	0.0101	0.0004
278.15	0.0234	0.001
283.25	0.0332	0.0014
293.75	0.063	0.0026
303.85	0.117	0.005
313.65	0.192	0.008
323.35	0.298	0.012
333.35	0.416	0.017
343.45	0.562	0.023
353.25	0.719	0.029
363.45	0.86	0.034

System: propan-2-ol + benzothiazolium tetrafluoroborate; phases: Liquid, Crystal
Fixed: Pressure, kPa = 101
Property: Mole fraction of benzothiazolium tetrafluoroborate (Liquid); method: UV-Vis spectrophotometry
Temperature, K	Mole fraction of benzothiazolium tetrafluoroborate	uncertainty
253.65	0.0022	9e-05
258.35	0.00244	0.0001
263.55	0.00295	0.00012
268.45	0.00334	0.00013
273.15	0.00391	0.00016
278.45	0.00472	0.00019
283.55	0.0057	0.00023
293.65	0.00823	0.00033
303.55	0.0145	0.0006
313.35	0.0262	0.0011
323.25	0.0444	0.0018
333.05	0.0734	0.003
343.15	0.119	0.005

System: propan-2-ol + benzothiazolium p-toluenesulfonate; phases: Liquid, Crystal
Fixed: Pressure, kPa = 101
Property: Mole fraction of benzothiazolium p-toluenesulfonate (Liquid); method: UV-Vis spectrophotometry
Temperature, K	Mole fraction of benzothiazolium p-toluenesulfonate	uncertainty
253.65	0.00226	9e-05
258.35	0.0026	0.0001
263.55	0.00283	0.00011
268.45	0.00339	0.00014
273.15	0.00381	0.00015
278.45	0.00437	0.00018
283.55	0.00521	0.00021
293.65	0.00754	0.0003
303.55	0.0111	0.00045
313.35	0.0173	0.0007
323.25	0.0252	0.001
333.05	0.0433	0.0018
343.15	0.0909	0.0037

System: propan-2-ol + benzothiazolium methanesulfonate; phases: Liquid, Crystal
Fixed: Pressure, kPa = 101
Property: Mole fraction of benzothiazolium methanesulfonate (Liquid); method: UV-Vis spectrophotometry
Temperature, K	Mole fraction of benzothiazolium methanesulfonate	uncertainty
253.65	0.00187	8e-05
258.35	0.00212	9e-05
263.55	0.00265	0.00011
268.45	0.00321	0.00013
273.15	0.0036	0.00014
278.45	0.00411	0.00017
283.55	0.00494	0.0002
293.65	0.00749	0.0003
303.55	0.0107	0.0004
313.35	0.0146	0.0006
323.25	0.0231	0.0009
333.05	0.0408	0.0017
343.15	0.0681	0.0027

System: propan-2-ol + benzothiazolium trifluoromethanesulfonate; phases: Liquid, Crystal
Fixed: Pressure, kPa = 101
Property: Mole fraction of benzothiazolium trifluoromethanesulfonate (Liquid); method: UV-Vis spectrophotometry
Temperature, K	Mole fraction of benzothiazolium trifluoromethanesulfonate	uncertainty
253.65	0.00282	0.00012
258.35	0.00469	0.00019
263.55	0.00753	0.00031
268.45	0.0115	0.0005
273.15	0.0177	0.0007
278.45	0.0259	0.0011
283.55	0.0384	0.0016
293.65	0.0695	0.0028
303.55	0.121	0.005
313.35	0.206	0.008
323.25	0.306	0.012
333.05	0.432	0.017
343.15	0.571	0.023

System: butan-1-ol + benzothiazolium tetrafluoroborate; phases: Liquid, Crystal
Fixed: Pressure, kPa = 101
Property: Mole fraction of benzothiazolium tetrafluoroborate (Liquid); method: UV-Vis spectrophotometry
Temperature, K	Mole fraction of benzothiazolium tetrafluoroborate	uncertainty
253.45	0.00174	7e-05
258.65	0.00208	8e-05
263.35	0.00251	0.0001
268.55	0.00285	0.00011
278.75	0.00378	0.00015
283.55	0.0042	0.00017
293.15	0.00631	0.00025
303.05	0.0099	0.0004
313.45	0.0167	0.0007
323.25	0.0238	0.001
333.05	0.0432	0.0017
343.15	0.074	0.003
353.35	0.126	0.005
363.45	0.222	0.009
373.25	0.353	0.014
383.35	0.578	0.023

System: butan-1-ol + benzothiazolium p-toluenesulfonate; phases: Liquid, Crystal
Fixed: Pressure, kPa = 101
Property: Mole fraction of benzothiazolium p-toluenesulfonate (Liquid); method: UV-Vis spectrophotometry
Temperature, K	Mole fraction of benzothiazolium p-toluenesulfonate	uncertainty
253.45	0.0011	5e-05
258.65	0.00209	9e-05
263.35	0.00261	0.00011
268.55	0.00296	0.00012
278.75	0.00383	0.00015
283.55	0.00452	0.00018
293.15	0.00695	0.00028
303.05	0.0105	0.0004
313.45	0.018	0.0007
323.25	0.0313	0.0013
333.05	0.0578	0.0023
343.15	0.103	0.004
353.35	0.153	0.006
363.45	0.25	0.01
373.25	0.394	0.016
383.35	0.629	0.025

System: butan-1-ol + benzothiazolium methanesulfonate; phases: Liquid, Crystal
Fixed: Pressure, kPa = 101
Property: Mole fraction of benzothiazolium methanesulfonate (Liquid); method: UV-Vis spectrophotometry
Temperature, K	Mole fraction of benzothiazolium methanesulfonate	uncertainty
253.45	0.00064	3e-05
258.65	0.00078	3e-05
263.35	0.00092	4e-05
268.55	0.00116	5e-05
278.75	0.00212	9e-05
283.55	0.00279	0.00011
293.15	0.00406	0.00016
303.05	0.0059	0.00024
313.45	0.00927	0.00037
323.25	0.0144	0.0006
333.05	0.0292	0.0012
343.15	0.0519	0.0021
353.35	0.0877	0.0035
363.45	0.134	0.005
373.25	0.225	0.009

System: butan-1-ol + benzothiazolium methanesulfonate; phases: Liquid mixture 1, Liquid mixture 2
Property: Mole fraction of benzothiazolium methanesulfonate (Liquid mixture 1); method: UV-Vis spectrophotometry
Temperature, K	Pressure, kPa	Mole fraction of benzothiazolium methanesulfonate	uncertainty
383.35	101	0.374	0.017

System: butan-1-ol + benzothiazolium trifluoromethanesulfonate; phases: Liquid, Crystal
Fixed: Pressure, kPa = 101
Property: Mole fraction of benzothiazolium trifluoromethanesulfonate (Liquid); method: UV-Vis spectrophotometry
Temperature, K	Mole fraction of benzothiazolium trifluoromethanesulfonate	uncertainty
253.45	0.00149	6e-05
258.65	0.00272	0.00011
263.35	0.00473	0.0002
268.55	0.00792	0.00033
278.75	0.0204	0.0008
283.55	0.0294	0.0012
293.15	0.0603	0.0025
303.05	0.114	0.005
313.45	0.191	0.008
323.25	0.288	0.012
333.05	0.416	0.017
343.15	0.554	0.022
353.35	0.69	0.028
363.45	0.806	0.032
373.25	0.888	0.036
383.35	0.926	0.037

System: 2-methyl-1-propanol + benzothiazolium tetrafluoroborate; phases: Liquid, Crystal
Fixed: Pressure, kPa = 101
Property: Mole fraction of benzothiazolium tetrafluoroborate (Liquid); method: UV-Vis spectrophotometry
Temperature, K	Mole fraction of benzothiazolium tetrafluoroborate	uncertainty
253.45	0.00125	5e-05
263.75	0.00161	6e-05
268.35	0.00196	8e-05
273.65	0.00204	8e-05
278.35	0.00246	0.0001
283.15	0.00287	0.00012
293.35	0.00369	0.00015
303.45	0.00531	0.00021
313.65	0.00939	0.00038
323.25	0.0147	0.0006
333.35	0.0286	0.0012
343.45	0.059	0.0024
353.35	0.104	0.004
363.25	0.178	0.007
373.25	0.298	0.012
383.35	0.522	0.021

System: 2-methyl-1-propanol + benzothiazolium p-toluenesulfonate; phases: Liquid, Crystal
Fixed: Pressure, kPa = 101
Property: Mole fraction of benzothiazolium p-toluenesulfonate (Liquid); method: UV-Vis spectrophotometry
Temperature, K	Mole fraction of benzothiazolium p-toluenesulfonate	uncertainty
253.45	0.00137	6e-05
263.75	0.00215	9e-05
268.35	0.00263	0.00011
273.65	0.00307	0.00012
278.35	0.00355	0.00014
283.15	0.00447	0.00018
293.35	0.00674	0.00027
303.45	0.00954	0.00038
313.65	0.0147	0.0006
323.25	0.0228	0.0009
333.35	0.0443	0.0018
343.45	0.083	0.0034
353.35	0.134	0.005
363.25	0.204	0.008
373.25	0.337	0.014
383.35	0.545	0.022

System: 2-methyl-1-propanol + benzothiazolium methanesulfonate; phases: Liquid, Crystal
Fixed: Pressure, kPa = 101
Property: Mole fraction of benzothiazolium methanesulfonate (Liquid); method: UV-Vis spectrophotometry
Temperature, K	Mole fraction of benzothiazolium methanesulfonate	uncertainty
253.45	0.00145	6e-05
263.75	0.00215	9e-05
268.35	0.00261	0.00011
273.65	0.00307	0.00012
278.35	0.00367	0.00015
283.15	0.00447	0.00018
293.35	0.00625	0.00025
303.45	0.00893	0.00036
313.65	0.0134	0.0005
323.25	0.0205	0.0008
333.35	0.0353	0.0014
343.45	0.0619	0.0025
353.35	0.0959	0.0039
363.25	0.145	0.006
373.25	0.24	0.01

System: 2-methyl-1-propanol + benzothiazolium methanesulfonate; phases: Liquid mixture 1, Liquid mixture 2
Property: Mole fraction of benzothiazolium methanesulfonate (Liquid mixture 1); method: UV-Vis spectrophotometry
Temperature, K	Pressure, kPa	Mole fraction of benzothiazolium methanesulfonate	uncertainty
383.35	101	0.392	0.018

System: 2-methyl-1-propanol + benzothiazolium trifluoromethanesulfonate; phases: Liquid, Crystal
Fixed: Pressure, kPa = 101
Property: Mole fraction of benzothiazolium trifluoromethanesulfonate (Liquid); method: UV-Vis spectrophotometry
Temperature, K	Mole fraction of benzothiazolium trifluoromethanesulfonate	uncertainty
253.45	0.00097	5e-05
263.75	0.00327	0.00013
268.35	0.00562	0.00023
273.65	0.00928	0.00038
278.35	0.0144	0.0006
283.15	0.0236	0.001
293.35	0.0496	0.002
303.45	0.0903	0.0037
313.65	0.157	0.006
323.25	0.252	0.01
333.35	0.376	0.015
343.45	0.508	0.02
353.35	0.649	0.026
363.25	0.771	0.031
373.25	0.861	0.034
383.35	0.912	0.037
