Measured thermophysical data. Experimental and theoretical study of surface tension of binary mixtures of (n-alkyl acetates + heptane, benzene, and toluene)
Source: J. Chem. Thermodyn., 2009, 10.1016/j.jct.2008.10.009
Compound 1: heptane, C7H16, InChI=1S/C7H16/c1-3-5-7-6-4-2/h3-7H2,1-2H3, purity 99%
Compound 2: benzene, C6H6, InChI=1S/C6H6/c1-2-4-6-5-3-1/h1-6H, purity 99%
Compound 3: toluene, C7H8, InChI=1S/C7H8/c1-7-5-3-2-4-6-7/h2-6H,1H3, purity 99%
Compound 4: butyl ethanoate, C6H12O2, InChI=1S/C6H12O2/c1-3-4-5-8-6(2)7/h3-5H2,1-2H3, purity 99%
Compound 5: pentyl ethanoate, C7H14O2, InChI=1S/C7H14O2/c1-3-4-5-6-9-7(2)8/h3-6H2,1-2H3, purity 99%
Compound 6: hexyl ethanoate, C8H16O2, InChI=1S/C8H16O2/c1-3-4-5-6-7-10-8(2)9/h3-7H2,1-2H3, purity 99%

System: heptane; phases: Liquid
Property: Mass density, kg/m3 (Liquid); method: Vibrating tube method
Temperature, K	Pressure, kPa	Mass density, kg/m3	uncertainty
298.15	101.325	679.54	0.36

System: heptane; phases: Liquid, Air at 1 atmosphere
Property: Surface tension liquid-gas, N/m (Liquid); method: Ring tensiometer
Temperature, K	Surface tension liquid-gas, N/m	uncertainty
298.15	0.02002	0.00036

System: benzene; phases: Liquid
Property: Mass density, kg/m3 (Liquid); method: Vibrating tube method
Temperature, K	Pressure, kPa	Mass density, kg/m3	uncertainty
298.15	101.325	874.16	0.37

System: benzene; phases: Liquid, Air at 1 atmosphere
Property: Surface tension liquid-gas, N/m (Liquid); method: Ring tensiometer
Temperature, K	Surface tension liquid-gas, N/m	uncertainty
298.15	0.02873	0.00045

System: toluene; phases: Liquid
Property: Mass density, kg/m3 (Liquid); method: Vibrating tube method
Temperature, K	Pressure, kPa	Mass density, kg/m3	uncertainty
298.15	101.325	857.58	0.36

System: toluene; phases: Liquid, Air at 1 atmosphere
Property: Surface tension liquid-gas, N/m (Liquid); method: Ring tensiometer
Temperature, K	Surface tension liquid-gas, N/m	uncertainty
298.15	0.02844	0.00045

System: butyl ethanoate; phases: Liquid
Property: Mass density, kg/m3 (Liquid); method: Vibrating tube method
Temperature, K	Pressure, kPa	Mass density, kg/m3	uncertainty
298.15	101.325	876.38	0.37

System: butyl ethanoate; phases: Liquid, Air at 1 atmosphere
Property: Surface tension liquid-gas, N/m (Liquid); method: Ring tensiometer
Temperature, K	Surface tension liquid-gas, N/m	uncertainty
298.15	0.02485	0.00041

System: pentyl ethanoate; phases: Liquid
Property: Mass density, kg/m3 (Liquid); method: Vibrating tube method
Temperature, K	Pressure, kPa	Mass density, kg/m3	uncertainty
298.15	101.325	870.17	0.37

System: pentyl ethanoate; phases: Liquid, Air at 1 atmosphere
Property: Surface tension liquid-gas, N/m (Liquid); method: Ring tensiometer
Temperature, K	Surface tension liquid-gas, N/m	uncertainty
298.15	0.02536	0.00041

System: hexyl ethanoate; phases: Liquid
Property: Mass density, kg/m3 (Liquid); method: Vibrating tube method
Temperature, K	Pressure, kPa	Mass density, kg/m3	uncertainty
298.15	101.325	868.52	0.37

System: hexyl ethanoate; phases: Liquid, Air at 1 atmosphere
Property: Surface tension liquid-gas, N/m (Liquid); method: Ring tensiometer
Temperature, K	Surface tension liquid-gas, N/m	uncertainty
298.15	0.02675	0.00043

System: butyl ethanoate + heptane; phases: Liquid, Air at 1 atmosphere
Fixed: Temperature, K = 298.15
Property: Surface tension liquid-gas, N/m (Liquid); method: Ring tensiometer
Mole fraction of heptane	Surface tension liquid-gas, N/m	uncertainty
0.0351	0.02456	0.00041
0.1081	0.02426	0.0004
0.1538	0.02406	0.0004
0.2067	0.02383	0.0004
0.2534	0.02362	0.0004
0.3038	0.02339	0.00039
0.3579	0.02313	0.00039
0.4064	0.0229	0.00039
0.4518	0.02267	0.00039
0.503	0.02242	0.00038
0.5599	0.02212	0.00038
0.6071	0.02187	0.00038
0.6562	0.02161	0.00038
0.7027	0.02136	0.00037
0.7555	0.02107	0.00037
0.807	0.02079	0.00037
0.8533	0.02053	0.00037
0.9009	0.02026	0.00036

System: benzene + butyl ethanoate; phases: Liquid, Air at 1 atmosphere
Fixed: Temperature, K = 298.15
Property: Surface tension liquid-gas, N/m (Liquid); method: Ring tensiometer
Mole fraction of benzene	Surface tension liquid-gas, N/m	uncertainty
0.0561	0.02509	0.00041
0.1063	0.02521	0.00041
0.1514	0.02532	0.00041
0.2049	0.02543	0.00041
0.2521	0.02554	0.00042
0.3085	0.02566	0.00042
0.3529	0.02579	0.00042
0.4027	0.02592	0.00042
0.4573	0.02608	0.00042
0.5028	0.02622	0.00042
0.5534	0.02641	0.00042
0.6058	0.02662	0.00043
0.6532	0.02682	0.00043
0.7041	0.02705	0.00043
0.7521	0.02729	0.00043
0.8006	0.02755	0.00044
0.8561	0.02786	0.00044
0.8992	0.02814	0.00044
0.95	0.02849	0.00045

System: toluene + butyl ethanoate; phases: Liquid, Air at 1 atmosphere
Fixed: Temperature, K = 298.15
Property: Surface tension liquid-gas, N/m (Liquid); method: Ring tensiometer
Mole fraction of toluene	Surface tension liquid-gas, N/m	uncertainty
0.0544	0.02497	0.00041
0.1097	0.02505	0.00041
0.153	0.02519	0.00041
0.2081	0.02535	0.00041
0.2565	0.0255	0.00042
0.3033	0.02564	0.00042
0.3549	0.02579	0.00042
0.4024	0.02594	0.00042
0.4509	0.0261	0.00042
0.5066	0.02628	0.00042
0.552	0.02642	0.00043
0.6094	0.02664	0.00043
0.6577	0.02682	0.00043
0.7071	0.027	0.00043
0.7549	0.0272	0.00043
0.8073	0.02745	0.00044
0.85	0.02762	0.00044
0.9035	0.02791	0.00044
0.95	0.0282	0.00044

System: heptane + pentyl ethanoate; phases: Liquid, Air at 1 atmosphere
Fixed: Temperature, K = 298.15
Property: Surface tension liquid-gas, N/m (Liquid); method: Ring tensiometer
Mole fraction of heptane	Surface tension liquid-gas, N/m	uncertainty
0.0521	0.02547	0.00042
0.1046	0.02499	0.00041
0.1515	0.02455	0.00041
0.207	0.02419	0.0004
0.2557	0.02378	0.0004
0.3087	0.02336	0.00039
0.3546	0.02309	0.00039
0.4072	0.02274	0.00039
0.4518	0.02245	0.00038
0.5075	0.02214	0.00038
0.5529	0.02191	0.00038
0.6072	0.02159	0.00038
0.6547	0.0214	0.00037
0.7086	0.02108	0.00037
0.7556	0.02081	0.00037
0.8047	0.02061	0.00037
0.8567	0.02042	0.00036
0.9	0.02028	0.00036

System: benzene + pentyl ethanoate; phases: Liquid, Air at 1 atmosphere
Fixed: Temperature, K = 298.15
Property: Surface tension liquid-gas, N/m (Liquid); method: Ring tensiometer
Mole fraction of benzene	Surface tension liquid-gas, N/m	uncertainty
0.0532	0.02599	0.00042
0.101	0.02608	0.00042
0.1443	0.02615	0.00042
0.1982	0.02623	0.00042
0.2394	0.02631	0.00042
0.2881	0.02641	0.00042
0.3359	0.02653	0.00043
0.3905	0.02662	0.00043
0.4403	0.02673	0.00043
0.4886	0.02686	0.00043
0.5341	0.02699	0.00043
0.5842	0.02714	0.00043
0.6353	0.0273	0.00043
0.6811	0.02744	0.00044
0.7413	0.02762	0.00044
0.795	0.0278	0.00044
0.8436	0.02797	0.00044
0.894	0.0282	0.00044
0.95	0.02849	0.00045

System: toluene + pentyl ethanoate; phases: Liquid, Air at 1 atmosphere
Fixed: Temperature, K = 298.15
Property: Surface tension liquid-gas, N/m (Liquid); method: Ring tensiometer
Mole fraction of toluene	Surface tension liquid-gas, N/m	uncertainty
0.0497	0.02589	0.00042
0.1356	0.02606	0.00042
0.1989	0.02614	0.00042
0.2463	0.02622	0.00042
0.2949	0.02633	0.00042
0.3433	0.02642	0.00043
0.3855	0.02651	0.00043
0.4395	0.02663	0.00043
0.4848	0.02673	0.00043
0.5349	0.02685	0.00043
0.5898	0.02698	0.00043
0.6382	0.02709	0.00043
0.6896	0.02727	0.00043
0.7419	0.02745	0.00044
0.7968	0.02763	0.00044
0.8459	0.0278	0.00044
0.9002	0.02798	0.00044
0.95	0.02817	0.00044

System: heptane + hexyl ethanoate; phases: Liquid, Air at 1 atmosphere
Fixed: Temperature, K = 298.15
Property: Surface tension liquid-gas, N/m (Liquid); method: Ring tensiometer
Mole fraction of heptane	Surface tension liquid-gas, N/m	uncertainty
0.0691	0.02627	0.00042
0.1024	0.02591	0.00042
0.1544	0.02541	0.00041
0.2007	0.02489	0.00041
0.2551	0.02448	0.00041
0.3025	0.0241	0.0004
0.3539	0.02372	0.0004
0.4014	0.02333	0.00039
0.4528	0.02304	0.00039
0.5067	0.02265	0.00039
0.5566	0.02236	0.00038
0.6064	0.02211	0.00038
0.6599	0.0218	0.00038
0.7056	0.02159	0.00038
0.755	0.02127	0.00037
0.8053	0.02104	0.00037
0.8509	0.02083	0.00037
0.9049	0.02051	0.00037
0.9501	0.02031	0.00036

System: benzene + hexyl ethanoate; phases: Liquid, Air at 1 atmosphere
Fixed: Temperature, K = 298.15
Property: Surface tension liquid-gas, N/m (Liquid); method: Ring tensiometer
Mole fraction of benzene	Surface tension liquid-gas, N/m	uncertainty
0.036	0.02697	0.00043
0.1008	0.02703	0.00043
0.1574	0.02708	0.00043
0.2072	0.02712	0.00043
0.2516	0.02716	0.00043
0.3095	0.02723	0.00043
0.3591	0.0273	0.00043
0.402	0.02736	0.00043
0.4566	0.02744	0.00044
0.5009	0.02751	0.00044
0.5576	0.02761	0.00044
0.6027	0.02769	0.00044
0.6512	0.02777	0.00044
0.7001	0.02786	0.00044
0.7583	0.02798	0.00044
0.8042	0.02808	0.00044
0.8566	0.02819	0.00044
0.9088	0.02832	0.00044
0.9503	0.02844	0.00045
