Measured thermophysical data. Interactions of sodium polystyrene sulfonate with 4-methylpyridinium based ionic liquids in aqueous solution: Viscometry, conductometry, UV-Vis spectroscopy and density functional theory studies
Source: J. Chem. Thermodyn., 2019, 10.1016/j.jct.2018.12.008
Compound 1: 1-butyl-4-methylpyridinium bromide, C10H16BrN, InChI=1S/C10H16N.BrH/c1-3-4-7-11-8-5-10(2)6-9-11;/h5-6,8-9H,3-4,7H2,1-2H3;1H/q+1;/p-1
Compound 2: 1-hexyl-4-methylpyridinium bromide, C12H20BrN, InChI=1S/C12H20N.BrH/c1-3-4-5-6-9-13-10-7-12(2)8-11-13;/h7-8,10-11H,3-6,9H2,1-2H3;1H/q+1;/p-1
Compound 3: 1-octyl-4-methylpyridinium bromide, C14H24BrN, InChI=1S/C14H24N.BrH/c1-3-4-5-6-7-8-11-15-12-9-14(2)10-13-15;/h9-10,12-13H,3-8,11H2,1-2H3;1H/q+1;/p-1
Compound 4: water, H2O, InChI=1S/H2O/h1H2

System: water; phases: Liquid
Fixed: Pressure, kPa = 100
Property: Mass density, kg/m3 (Liquid); method: Vibrating tube method
Temperature, K	Mass density, kg/m3	uncertainty
288.15	999.097	0.601
298.15	997.043	0.604
308.15	994.038	0.601

System: water; phases: Liquid
Fixed: Pressure, kPa = 100
Property: Viscosity, Pa*s (Liquid); method: Falling or rolling sphere viscometry
Temperature, K	Viscosity, Pa*s	uncertainty
288.15	0.001133	2.2e-05
298.15	0.00089	2.1e-05
308.15	0.000719	2.1e-05

System: 1-butyl-4-methylpyridinium bromide + water; phases: Liquid
Fixed: Pressure, kPa = 100
Property: Mass density, kg/m3 (Liquid); method: Vibrating tube method
Temperature, K	Molality, mol/kg of 1-butyl-4-methylpyridinium bromide	Mass density, kg/m3	uncertainty
288.15	0.0011	999.126	0.601
298.15	0.0011	997.066	0.601
308.15	0.0011	994.057	0.601
288.15	0.0018	999.138	0.601
298.15	0.0018	997.081	0.602
308.15	0.0018	994.066	0.601
288.15	0.0036	999.163	0.601
298.15	0.0036	997.131	0.601
308.15	0.0036	994.087	0.601
288.15	0	999.097	0.601
298.15	0	997.043	0.604
308.15	0	994.038	0.601
288.15	0.0021	999.139	0.601
298.15	0.0021	997.093	0.637
308.15	0.0021	994.069	0.601
288.15	0.0043	999.177	0.601
298.15	0.0043	997.148	0.601
308.15	0.0043	994.099	0.601
288.15	0.0065	999.217	0.601
298.15	0.0065	997.205	0.602
308.15	0.0065	994.13	0.601

System: 1-butyl-4-methylpyridinium bromide + water; phases: Liquid
Fixed: Pressure, kPa = 100
Property: Viscosity, Pa*s (Liquid); method: Falling or rolling sphere viscometry
Temperature, K	Molality, mol/kg of 1-butyl-4-methylpyridinium bromide	Viscosity, Pa*s	uncertainty
288.15	0.0011	0.0011355	2.16e-05
298.15	0.0011	0.0008895	2.1e-05
308.15	0.0011	0.0007239	2.07e-05
288.15	0.0018	0.0011368	2.16e-05
298.15	0.0018	0.0008911	2.12e-05
308.15	0.0018	0.0007267	2.07e-05
288.15	0.0036	0.0011401	2.16e-05
298.15	0.0036	0.000894	2.11e-05
308.15	0.0036	0.0007317	2.07e-05
288.15	0	0.001133	2.2e-05
298.15	0	0.00089	2.1e-05
308.15	0	0.000719	2.1e-05
288.15	0.0021	0.001137	2.2e-05
298.15	0.0021	0.000891	2.8e-05
308.15	0.0021	0.000727	2.1e-05
288.15	0.0043	0.001141	2.2e-05
298.15	0.0043	0.000895	2.1e-05
308.15	0.0043	0.000734	2.1e-05
288.15	0.0065	0.001146	2.2e-05
298.15	0.0065	0.0009	2.1e-05
308.15	0.0065	0.000742	2.1e-05

System: 1-butyl-4-methylpyridinium bromide + water; phases: Liquid
Fixed: Pressure, kPa = 100
Fixed: Frequency, MHz = 0.003
Property: Electrical conductivity, S/m (Liquid); method: Alternating current cell with electrodes
Temperature, K	Molality, mol/kg of 1-butyl-4-methylpyridinium bromide	Electrical conductivity, S/m	uncertainty
288.15	0	0.0001006	0.0017594
298.15	0	0.00015	0.002176
308.15	0	0.000216	0.0026312
288.15	0.0021	0.01857	0.00167
298.15	0.0021	0.023	0.00207
308.15	0.0021	0.02784	0.00252
288.15	0.0043	0.03577	0.00163
298.15	0.0043	0.04444	0.00205
308.15	0.0043	0.05403	0.00247
288.15	0.0065	0.05361	0.00171
298.15	0.0065	0.06711	0.00218
308.15	0.0065	0.08095	0.00258

System: 1-hexyl-4-methylpyridinium bromide + water; phases: Liquid
Fixed: Pressure, kPa = 100
Property: Mass density, kg/m3 (Liquid); method: Vibrating tube method
Temperature, K	Molality, mol/kg of 1-hexyl-4-methylpyridinium bromide	Mass density, kg/m3	uncertainty
288.15	0.0011	999.106	0.601
298.15	0.0011	997.049	0.601
308.15	0.0011	994.045	0.601
288.15	0.0018	999.113	0.601
298.15	0.0018	997.053	0.602
308.15	0.0018	994.051	0.601
288.15	0.0036	999.129	0.601
298.15	0.0036	997.069	0.601
308.15	0.0036	994.067	0.601
288.15	0	999.097	0.601
298.15	0	997.043	0.604
308.15	0	994.038	0.601
288.15	0.0021	999.119	0.601
298.15	0.0021	997.057	0.636
308.15	0.0021	994.054	0.601
288.15	0.0043	999.138	0.601
298.15	0.0043	997.073	0.601
308.15	0.0043	994.072	0.601
288.15	0.0065	999.156	0.601
298.15	0.0065	997.088	0.602
308.15	0.0065	994.09	0.601

System: 1-hexyl-4-methylpyridinium bromide + water; phases: Liquid
Fixed: Pressure, kPa = 100
Property: Viscosity, Pa*s (Liquid); method: Falling or rolling sphere viscometry
Temperature, K	Molality, mol/kg of 1-hexyl-4-methylpyridinium bromide	Viscosity, Pa*s	uncertainty
288.15	0.0011	0.0011342	2.16e-05
298.15	0.0011	0.0008886	2.1e-05
308.15	0.0011	0.000721	2.07e-05
288.15	0.0018	0.0011347	2.16e-05
298.15	0.0018	0.0008893	2.11e-05
308.15	0.0018	0.0007216	2.07e-05
288.15	0.0036	0.0011358	2.16e-05
298.15	0.0036	0.0008907	2.1e-05
308.15	0.0036	0.0007231	2.07e-05
288.15	0.0021	0.001135	2.2e-05
298.15	0.0021	0.000889	2.7e-05
308.15	0.0021	0.000722	2.1e-05
288.15	0.0043	0.001136	2.2e-05
298.15	0.0043	0.000891	2.1e-05
308.15	0.0043	0.000724	2.1e-05
288.15	0.0065	0.001138	2.2e-05
298.15	0.0065	0.000893	2.1e-05
308.15	0.0065	0.000725	2.1e-05
288.15	0	0.001133	2.2e-05
298.15	0	0.00089	2.2e-05
308.15	0	0.000719	2.1e-05

System: 1-hexyl-4-methylpyridinium bromide + water; phases: Liquid
Fixed: Pressure, kPa = 100
Fixed: Frequency, MHz = 0.003
Property: Electrical conductivity, S/m (Liquid); method: Alternating current cell with electrodes
Temperature, K	Molality, mol/kg of 1-hexyl-4-methylpyridinium bromide	Electrical conductivity, S/m	uncertainty
288.15	0.0021	0.01772	0.00161
298.15	0.0021	0.02201	0.00201
308.15	0.0021	0.02656	0.00243
288.15	0.0043	0.03446	0.00156
298.15	0.0043	0.04306	0.00193
308.15	0.0043	0.05216	0.00235
288.15	0.0065	0.05121	0.00161
298.15	0.0065	0.0635	0.002
308.15	0.0065	0.07701	0.00239
288.15	0	0.0001006	0.0016785
298.15	0	0.00015	0.0020818
308.15	0	0.000216	0.0025093

System: 1-octyl-4-methylpyridinium bromide + water; phases: Liquid
Fixed: Pressure, kPa = 100
Property: Mass density, kg/m3 (Liquid); method: Vibrating tube method
Temperature, K	Molality, mol/kg of 1-octyl-4-methylpyridinium bromide	Mass density, kg/m3	uncertainty
288.15	0.0011	999.141	0.601
298.15	0.0011	997.088	0.601
308.15	0.0011	994.07	0.601
288.15	0.0018	999.186	0.601
298.15	0.0018	997.125	0.601
308.15	0.0018	994.101	0.601
288.15	0.0036	999.266	0.601
298.15	0.0036	997.199	0.601
308.15	0.0036	994.174	0.602
288.15	0	999.097	0.601
298.15	0	997.043	0.605
308.15	0	994.038	0.601
288.15	0.0021	999.196	0.601
298.15	0.0021	997.135	0.636
308.15	0.0021	994.115	0.601
288.15	0.0043	999.3	0.601
298.15	0.0043	997.233	0.601
308.15	0.0043	994.42	0.601
288.15	0.0065	999.402	0.601
298.15	0.0065	997.329	0.601
308.15	0.0065	994.283	0.601

System: 1-octyl-4-methylpyridinium bromide + water; phases: Liquid
Fixed: Pressure, kPa = 100
Property: Viscosity, Pa*s (Liquid); method: Falling or rolling sphere viscometry
Temperature, K	Molality, mol/kg of 1-octyl-4-methylpyridinium bromide	Viscosity, Pa*s	uncertainty
288.15	0.0011	0.0011342	2.16e-05
298.15	0.0011	0.0008878	2.1e-05
308.15	0.0011	0.0007215	2.07e-05
288.15	0.0018	0.0011348	2.16e-05
298.15	0.0018	0.0008882	2.12e-05
308.15	0.0018	0.0007225	2.07e-05
288.15	0.0036	0.0011365	2.16e-05
298.15	0.0036	0.0008892	2.1e-05
308.15	0.0036	0.0007255	2.07e-05
288.15	0	0.001133	2.2e-05
298.15	0	0.00089	2.2e-05
308.15	0	0.000719	2.1e-05
288.15	0.0021	0.001136	2.2e-05
298.15	0.0021	0.000891	2.9e-05
308.15	0.0021	0.000727	2.1e-05
288.15	0.0043	0.001138	2.2e-05
298.15	0.0043	0.000892	2.1e-05
308.15	0.0043	0.000731	2.1e-05
288.15	0.0065	0.001139	2.2e-05
298.15	0.0065	0.000893	2.1e-05
308.15	0.0065	0.000734	2.1e-05

System: 1-octyl-4-methylpyridinium bromide + water; phases: Liquid
Fixed: Pressure, kPa = 100
Fixed: Frequency, MHz = 0.003
Property: Electrical conductivity, S/m (Liquid); method: Alternating current cell with electrodes
Temperature, K	Molality, mol/kg of 1-octyl-4-methylpyridinium bromide	Electrical conductivity, S/m	uncertainty
288.15	0.0021	0.01762	0.00161
298.15	0.0021	0.02188	0.00196
308.15	0.0021	0.02651	0.00241
288.15	0.0043	0.03443	0.00155
298.15	0.0043	0.04197	0.00193
308.15	0.0043	0.05165	0.00231
288.15	0.0065	0.05095	0.00159
298.15	0.0065	0.06338	0.00205
308.15	0.0065	0.07597	0.00234
288.15	0	0.0001006	0.001669
298.15	0	0.00015	0.0020694
308.15	0	0.000216	0.0025045
