Measured thermophysical data. Thermodynamic properties of indan: Experimental and computational results
Source: J. Chem. Thermodyn., 2016, 10.1016/j.jct.2015.12.005
Compound 1: indane, C9H10, InChI=1S/C9H10/c1-2-5-9-7-3-6-8(9)4-1/h1-2,4-5H,3,6-7H2

System: indane; phases: Crystal 1, Liquid, Gas
Property: Triple point temperature, K (Crystal 1); method: Adiabatic calorimetry
Triple point temperature, K	uncertainty
221.786	0.039

System: indane; phases: Crystal 2, Crystal 1, Gas
Property: Molar enthalpy of transition or fusion, kJ/mol (Crystal 2); method: Adiabatic calorimetry
Molar enthalpy of transition or fusion, kJ/mol	uncertainty
0.152	0.0018

System: indane; phases: Crystal 1, Liquid, Gas
Property: Molar enthalpy of transition or fusion, kJ/mol (Crystal 1); method: Adiabatic calorimetry
Molar enthalpy of transition or fusion, kJ/mol	uncertainty
8.554	0.011

System: indane; phases: Crystal 2, Crystal 1, Gas
Property: Triple point temperature, K (Crystal 2); method: Adiabatic calorimetry
Triple point temperature, K	uncertainty
73.83	0.04

System: indane; phases: Liquid, Gas
Property: Vapor or sublimation pressure, kPa (Liquid); method: Twin ebulliometer
Temperature, K	Vapor or sublimation pressure, kPa	uncertainty
338.122	2.0002	0.0078
344.12	2.6663	0.0079
353.029	4.0003	0.0079
359.691	5.3335	0.008
369.612	7.9994	0.0082
377.064	10.666	0.008
383.095	13.332	0.009
389.366	16.665	0.009
394.577	19.932	0.009
401.44	25.02	0.011
401.443	25.021	0.01
408.36	31.174	0.011
415.329	38.561	0.013
422.347	47.371	0.014
429.417	57.812	0.016
436.538	70.114	0.019
443.709	84.526	0.021
450.931	101.32	0.03
458.204	120.78	0.03
465.529	143.23	0.03
472.901	169	0.03
480.328	198.46	0.04
487.803	231.99	0.05
495.326	269.98	0.05

System: indane; phases: Liquid, Gas
Property: Mass density, kg/m3 (Liquid); method: Vibrating tube method
Temperature, K	Mass density, kg/m3	uncertainty
323.149	937.2	1.9
348.149	915.6	1.8
373.148	893.7	1.8
398.147	871.2	1.7
423.149	848.5	1.7
448.15	824.8	1.7
473.15	799.8	1.6
498.151	774	1.6
523.149	745.8	1.5

System: indane; phases: Crystal 2, Gas
Property: Molar heat capacity at saturation pressure, J/K/mol (Crystal 2); method: Vacuum adiabatic calorimetry
Temperature, K	Molar heat capacity at saturation pressure, J/K/mol	uncertainty
5	0.291006093	0.0166289196
10	2.7354572742	0.0332578392
20	13.6107706926	0.0914590578
30	24.9600083196	0.1413458166
40	34.4384924916	0.083144598
50	42.7695812112	0.0997735176
60	51.2420157474	0.1164024372
62	53.2208571798	0.1164024372
64	55.4657613258	0.124716897
66	57.827067909	0.124716897
68	60.7620722184	0.1330313568
70	64.0379693796	0.1413458166
72	67.679702772	0.1496602764
73.83	71.4295241418	0.1496602764

System: indane; phases: Crystal 2, Gas
Property: Molar entropy, J/K/mol (Crystal 2); method: Vacuum adiabatic calorimetry
Temperature, K	Molar entropy, J/K/mol	uncertainty
5	0.0997735176	0.0166289196
10	0.873018279	0.0249433794
20	5.8783230786	0.0665156784
30	13.6024562328	0.124716897
40	22.116463068	0.0997735176
50	30.7136145012	0.1164024372
60	39.244250256	0.1413458166
62	40.9570289748	0.1413458166
64	42.6781221534	0.1496602764
66	44.4241587114	0.1496602764
68	46.186824189	0.1579747362
70	47.9993764254	0.166289196
72	49.8535009608	0.166289196
73.83	51.591223059	0.1746036558

System: indane; phases: Crystal 2, Gas
Property: Molar enthalpy function {Hm(T)-Hm(0)}/T, J/K/mol (Crystal 2); method: Vacuum adiabatic calorimetry
Temperature, K	Molar enthalpy function {Hm(T)-Hm(0)}/T, J/K/mol	uncertainty
5	0.0748301382	0.0083144598
10	0.665156784	0.0166289196
20	4.2486889578	0.0332578392
30	9.312194976	0.0665156784
40	14.4505311324	0.0582012186
50	19.289546736	0.0582012186
60	23.8957574652	0.0665156784
62	24.8103480432	0.0665156784
64	25.733253081	0.0748301382
66	26.6644725786	0.0748301382
68	27.6206354556	0.0748301382
70	28.6183706316	0.0748301382
72	29.6493636468	0.0748301382
73.83	30.638784363	0.083144598

System: indane; phases: Crystal 1, Gas
Property: Molar heat capacity at saturation pressure, J/K/mol (Crystal 1); method: Vacuum adiabatic calorimetry
Temperature, K	Molar heat capacity at saturation pressure, J/K/mol	uncertainty
73.83	57.4861750572	0.124716897
74	57.5526907356	0.124716897
76	58.2760487382	0.124716897
78	59.0077212006	0.124716897
80	59.739393663	0.124716897
90	63.3894415152	0.207861495
100	67.0727472066	0.207861495
120	74.4476730492	0.2161759548
140	82.063718226	0.2161759548
160	90.1370586918	0.2244904146
180	99.0002728386	0.2328048744
200	108.8861655408	0.2411193342
220	119.5120451652	0.2577482538
221.786	120.4682080422	0.2577482538

System: indane; phases: Crystal 1, Gas
Property: Molar entropy, J/K/mol (Crystal 1); method: Vacuum adiabatic calorimetry
Temperature, K	Molar entropy, J/K/mol	uncertainty
73.83	53.6532090894	0.1746036558
74	53.7862404462	0.1746036558
76	55.332729969	0.1829181156
78	56.8542761124	0.1829181156
80	58.3591933362	0.1912325754
90	65.6094022818	0.3076350126
100	72.4771460766	0.3159494724
120	85.3562443068	0.332578392
140	97.403896557	0.3492073116
160	108.877851081	0.3658362312
180	120.0025982934	0.3824651508
200	130.9361129304	0.3990940704
220	141.8114263488	0.4240374498
221.786	142.7842181454	0.4240374498

System: indane; phases: Crystal 1, Gas
Property: Molar enthalpy function {Hm(T)-Hm(0)}/T, J/K/mol (Crystal 1); method: Vacuum adiabatic calorimetry
Temperature, K	Molar enthalpy function {Hm(T)-Hm(0)}/T, J/K/mol	uncertainty
73.83	32.7007703934	0.083144598
74	32.7506571522	0.083144598
76	33.4158139362	0.083144598
78	34.0643418006	0.083144598
80	34.6962407454	0.083144598
90	37.6811318136	0.1829181156
100	40.4332180074	0.1829181156
120	45.4884095658	0.1912325754
140	50.1694504332	0.1912325754
160	54.6592587252	0.1995470352
180	59.0825513388	0.1995470352
200	63.564045171	0.207861495
220	68.1619414404	0.207861495
221.786	68.5776644304	0.207861495

System: indane; phases: Liquid, Gas
Property: Molar heat capacity at saturation pressure, J/K/mol (Liquid); method: Vacuum adiabatic calorimetry
Temperature, K	Molar heat capacity at saturation pressure, J/K/mol	uncertainty
221.786	163.9112604972	0.3076350126
230	166.2226803216	0.3076350126
240	169.1327412516	0.3076350126
250	172.3088648952	0.3159494724
260	175.7510512524	0.3159494724
270	179.4759292428	0.3242639322
280	183.042832497	0.3242639322
290	186.4600754748	0.332578392
298.15	189.4782243822	0.332578392
300	190.1849534652	0.332578392
310	194.1176929506	0.3408928518
320	198.0670613556	0.3408928518
330	202.1494611174	0.3492073116
333.38	203.537975904	0.3492073116
340	206.2983765576	0.3575217714
350	210.480549837	0.3575217714
360	214.6128363576	0.3658362312
370	218.8033240968	0.3658362312
380	223.0270696752	0.374150691
390	227.2508152536	0.374150691
400	231.474560832	0.3824651508
410	235.6816774908	0.3907796106
420	239.8804796898	0.3907796106
430	244.0460240496	0.3990940704
440	248.4028009848	0.3990940704

System: indane; phases: Liquid, Gas
Property: Molar entropy, J/K/mol (Liquid); method: Vacuum adiabatic calorimetry
Temperature, K	Molar entropy, J/K/mol	uncertainty
221.786	181.3466826978	0.4905531282
230	187.3497226734	0.498867588
240	194.4918436416	0.5071820478
250	201.459360954	0.5238109674
260	208.27721799	0.5321254272
270	214.9786725888	0.5487543468
280	221.5720392102	0.5570688066
290	228.0573178542	0.5653832664
298.15	233.262169689	0.5736977262
300	234.4428229806	0.582012186
310	240.7368690492	0.5903266458
320	246.9643994394	0.5986411056
330	253.1254141512	0.6152700252
333.38	255.1874001816	0.6152700252
340	259.2199131846	0.623584485
350	265.2562109994	0.6318989448
360	271.2426220554	0.6485278644
370	277.1874608124	0.6568423242
380	283.0740983508	0.665156784
390	288.9191635902	0.6734712438
400	294.7309709904	0.6901001634
410	300.4928916318	0.6984146232
420	306.2298688938	0.706729083
430	311.916959397	0.7150435428
440	317.5791065208	0.7233580026

System: indane; phases: Liquid, Gas
Property: Molar enthalpy function {Hm(T)-Hm(0)}/T, J/K/mol (Liquid); method: Vacuum adiabatic calorimetry
Temperature, K	Molar enthalpy function {Hm(T)-Hm(0)}/T, J/K/mol	uncertainty
221.786	107.1484434426	0.2411193342
230	109.2187439328	0.2411193342
240	111.6548806542	0.249433794
250	114.0161872374	0.249433794
260	116.319292602	0.249433794
270	118.5891401274	0.2577482538
280	120.8340442734	0.2577482538
290	123.0373761204	0.2577482538
298.15	124.8083560578	0.2577482538
300	125.2074501282	0.2660627136
310	127.3692096762	0.2660627136
320	129.5143403046	0.2660627136
330	131.659470933	0.2660627136
333.38	132.3745144758	0.2660627136
340	133.7879726418	0.2743771734
350	135.9247888104	0.2743771734
360	138.0532905192	0.2743771734
370	140.1734777682	0.2743771734
380	142.301979477	0.2826916332
390	144.422166726	0.2826916332
400	146.5506684348	0.2826916332
410	148.6708556838	0.291006093
420	150.7910429328	0.291006093
430	152.9112301818	0.291006093
440	155.0314174308	0.291006093

System: indane; phases: Crystal 2, Gas
Property: Molar heat capacity at saturation pressure, J/K/mol (Crystal 2); method: Vacuum adiabatic calorimetry
Temperature, K	Molar heat capacity at saturation pressure, J/K/mol	uncertainty
5.31	0.3492073116	0.0166289196
6.26	0.623584485	0.0249433794
7.189	0.9811062564	0.0332578392
8.165	1.4633449248	0.0498867588
9.174	2.120187249	0.0665156784
10.221	2.9183753898	0.0249433794
11.356	3.8911671864	0.0332578392
12.632	5.0967638574	0.041572299
14.044	6.609995541	0.0498867588
15.6	8.3643465588	0.0665156784
17.346	10.434647049	0.0748301382
19.293	12.762695793	0.0914590578
21.45	15.3484927908	0.0997735176
23.858	18.1920380424	0.1164024372
26.55	21.2683881684	0.124716897
29.534	24.4694551914	0.1413458166
32.823	27.8201824908	0.0748301382
36.447	31.2706833078	0.083144598
40.465	34.837586562	0.083144598
44.935	38.6372946906	0.0914590578
49.869	42.6698076936	0.0997735176
52.708	44.9562841386	0.0997735176
55.331	47.142987066	0.1080879774
57.683	49.1550863376	0.1080879774
62.176	53.4536620542	0.1164024372
62.485	53.7363536874	0.1164024372
63.405	54.750717783	0.1164024372
67.106	59.5149032484	0.124716897
70.703	67.014545988	0.1413458166
70.759	67.1725207242	0.1413458166
72.076	72.8928690666	0.1746036558
72.265	74.4643019688	0.166289196
72.751	77.9646895446	0.1829181156
73.075	82.146862824	0.249433794
73.384	89.79616584	0.332578392

System: indane; phases: Crystal 1, Gas
Property: Molar heat capacity at saturation pressure, J/K/mol (Crystal 1); method: Vacuum adiabatic calorimetry
Temperature, K	Molar heat capacity at saturation pressure, J/K/mol	uncertainty
74.143	63.1815800202	0.1579747362
74.516	59.9306262384	0.1413458166
74.892	59.44838757	0.124716897
76.02	59.1906393162	0.124716897
77.684	59.2987272936	0.124716897
79.983	59.8807394796	0.124716897
82.009	60.529267344	0.1330313568
82.047	60.5458962636	0.1330313568
82.966	60.8369023566	0.1330313568
83.169	60.9117324948	0.1330313568
91.462	63.9049380228	0.207861495
100.482	67.2556653222	0.207861495
110.067	70.797625197	0.207861495
119.851	74.3811573708	0.2161759548
129.726	78.15592212	0.2161759548
138.657	81.5399072586	0.2161759548
139.607	81.939001329	0.2161759548
148.523	85.4227599852	0.2244904146
158.503	89.4968452872	0.2244904146
168.627	93.870251142	0.2244904146
178.805	98.4348895722	0.2328048744
184.216	100.895969673	0.2328048744
189.01	103.3237919346	0.2411193342
194.749	106.217223945	0.2411193342
199.286	108.50370039	0.2411193342
205.188	111.621622815	0.249433794
209.539	113.9579860188	0.249433794
212.418	115.5876201396	0.249433794
214.319	116.3525504412	0.249433794

System: indane; phases: Liquid, Gas
Property: Molar heat capacity at saturation pressure, J/K/mol (Liquid); method: Vacuum adiabatic calorimetry
Temperature, K	Molar heat capacity at saturation pressure, J/K/mol	uncertainty
228.223	165.7154982738	0.3076350126
228.343	165.7570705728	0.3076350126
229.687	166.1312212638	0.3076350126
229.779	166.2393092412	0.3076350126
236.447	168.0435470178	0.3076350126
238.809	168.7585905606	0.3076350126
250.133	172.3504371942	0.3159494724
262.099	176.4827237148	0.3159494724
262.279	176.5409249334	0.3159494724
274.491	181.1970224214	0.3242639322
275.317	181.4963429742	0.3242639322
286.775	185.3542523214	0.332578392
288.597	185.9279500476	0.332578392
297.894	189.3784508646	0.332578392
299.11	189.819117234	0.332578392
301.904	190.9083114678	0.332578392
310.196	194.1925230888	0.3408928518
311.457	194.6747617572	0.3408928518
322.458	199.0814254512	0.3492073116
334.631	204.036843492	0.3492073116
347.486	209.4495568218	0.3575217714
360.866	214.9620436692	0.3658362312
374.715	220.7987944488	0.374150691
388.612	226.6604886078	0.374150691
402.42	232.4889249276	0.3824651508
409.242	235.3574135586	0.3907796106
415.989	238.20927327	0.3907796106
426.539	242.5993080444	0.3990940704
428.896	243.530527542	0.3990940704
439.86	248.2780840878	0.3990940704

System: indane; phases: Liquid, Gas
Property: Molar heat capacity at saturation pressure, J/K/mol (Liquid); method: Small sample (50 mg) DSC
Temperature, K	Molar heat capacity at saturation pressure, J/K/mol	uncertainty
450	253.1669864502	3.9244250256
460	258.039259893	3.9992551638
470	262.695357381	4.0657708422
480	267.2017945926	4.1406009804
490	271.7082318042	4.2071166588
500	276.2146690158	4.281946797
510	280.7211062274	4.3484624754
520	285.227543439	4.4149781538
530	289.717351731	4.489808292
540	294.2154744828	4.5646384302
550	298.696968315	4.7142987066
560	303.1784621472	4.863958983
570	307.6516415196	5.030248179
580	312.124820892	5.196537375
590	316.5896858046	5.3794554906
600	321.0462362574	5.5623736062

System: indane; phases: Liquid, Gas
Property: Molar entropy, J/K/mol (Liquid); method: Small sample (50 mg) DSC
Temperature, K	Molar entropy, J/K/mol	uncertainty
450	323.2163102652	7.5079571994
460	328.8285706302	7.6409885562
470	334.4325165354	7.774019913
480	340.0115190612	7.89873681
490	345.5655782076	8.0317681668
500	351.1030084344	8.1564850638
510	356.6154952818	8.2895164206
520	362.1113532096	8.4142333176
530	367.582267758	8.5389502146
540	373.0448678466	8.6719815714
550	378.4825245558	8.7966984684
560	383.9035523454	8.9214153654
570	389.3079512154	9.0461322624
580	394.6957211658	9.1708491594
590	400.0751766564	9.2955660564
600	405.4296887676	9.4202829534

System: indane; phases: Liquid, Gas
Property: Molar enthalpy function {Hm(T)-Hm(0)}/T, J/K/mol (Liquid); method: Small sample (50 mg) DSC
Temperature, K	Molar enthalpy function {Hm(T)-Hm(0)}/T, J/K/mol	uncertainty
450	157.1599191396	2.4361367214
460	159.2967353082	2.4693945606
470	161.4501803964	2.5026523998
480	163.6036254846	2.535910239
490	165.7653850326	2.5691680782
500	167.9271445806	2.6024259174
510	170.0972185884	2.6356837566
520	172.2672925962	2.6689415958
530	174.4456810638	2.702199435
540	176.6157550716	2.7354572742
550	178.7941435392	2.7687151134
560	180.9808464666	2.8019729526
570	183.1592349342	2.8352307918
580	185.3459378616	2.868488631
590	187.532640789	2.9017464702
600	189.7193437164	2.9350043094
