Measured thermophysical data. The physicochemical properties and solubility of pharmaceuticals - Methyl xanthines
Source: J. Chem. Thermodyn., 2014, 10.1016/j.jct.2014.05.005
Compound 1: 3,7-dihydro-1,3-dimethyl-1H-purine-2,6-dione, C7H8N4O2, InChI=1S/C7H8N4O2/c1-10-5-4(8-3-9-5)6(12)11(2)7(10)13/h3H,1-2H3,(H,8,9), purity 99%
Compound 2: 7-(2-hydroxyethyl)-1,3-dimethylxanthine, C9H12N4O3, InChI=1S/C9H12N4O3/c1-11-7-6(8(15)12(2)9(11)16)13(3-4-14)5-10-7/h5,14H,3-4H2,1-2H3, purity 99%
Compound 3: 1H-purine-2,6-dione, 3,7-dihydro-3,7-dimethyl-, C7H8N4O2, InChI=1S/C7H8N4O2/c1-10-3-8-5-4(10)6(12)9-7(13)11(5)2/h3H,1-2H3,(H,9,12,13), purity 99%
Compound 4: water, H2O, InChI=1S/H2O/h1H2
Compound 5: ethanol, C2H6O, InChI=1S/C2H6O/c1-2-3/h3H,2H2,1H3, purity 99.8%
Compound 6: octan-1-ol, C8H18O, InChI=1S/C8H18O/c1-2-3-4-5-6-7-8-9/h9H,2-8H2,1H3, purity 99.8%

System: 3,7-dihydro-1,3-dimethyl-1H-purine-2,6-dione; phases: Crystal, Liquid, Air at 1 atmosphere
Property: Normal melting temperature, K (Crystal); method: DTA
Normal melting temperature, K	uncertainty
544.5	0.4

System: 3,7-dihydro-1,3-dimethyl-1H-purine-2,6-dione; phases: Crystal, Liquid, Air at 1 atmosphere
Property: Molar enthalpy of transition or fusion, kJ/mol (Crystal); method: DSC
Molar enthalpy of transition or fusion, kJ/mol	uncertainty
30.23	0.66

System: 7-(2-hydroxyethyl)-1,3-dimethylxanthine; phases: Crystal, Liquid, Air at 1 atmosphere
Property: Normal melting temperature, K (Crystal); method: DTA
Normal melting temperature, K	uncertainty
435.8	0.4

System: 7-(2-hydroxyethyl)-1,3-dimethylxanthine; phases: Crystal, Liquid, Air at 1 atmosphere
Property: Molar enthalpy of transition or fusion, kJ/mol (Crystal); method: DSC
Molar enthalpy of transition or fusion, kJ/mol	uncertainty
32.62	0.71

System: water; phases: Liquid
Property: Mass density, kg/m3 (Liquid); method: Vibrating tube method
Temperature, K	Pressure, kPa	Mass density, kg/m3	uncertainty
298.15	101.325	997.03	1

System: ethanol; phases: Liquid
Property: Mass density, kg/m3 (Liquid); method: Vibrating tube method
Temperature, K	Pressure, kPa	Mass density, kg/m3	uncertainty
298.15	101.325	785.12	1.01

System: octan-1-ol; phases: Liquid
Property: Mass density, kg/m3 (Liquid); method: Vibrating tube method
Temperature, K	Pressure, kPa	Mass density, kg/m3	uncertainty
298.15	101.325	822.99	1.01

System: 3,7-dihydro-1,3-dimethyl-1H-purine-2,6-dione + water; phases: Liquid, Crystal
Fixed: Pressure, kPa = 100
Property: Solid-liquid equilibrium temperature, K (Liquid); method: VISOBS
Mole fraction of 3,7-dihydro-1,3-dimethyl-1H-purine-2,6-dione	Solid-liquid equilibrium temperature, K	uncertainty
0.0004	308.5	5.1
0.0005	310.6	6
0.0007	314.5	7.4
0.0009	316.7	8.8
0.001	319.3	8.8
0.0012	323.4	7.1
0.0018	326.2	7
0.0026	333.3	5.3
0.0039	337.6	2.4
0.0064	342.6	2
0.007	343.1	1.8

System: 3,7-dihydro-1,3-dimethyl-1H-purine-2,6-dione + ethanol; phases: Liquid, Crystal
Fixed: Pressure, kPa = 100
Property: Solid-liquid equilibrium temperature, K (Liquid); method: VISOBS
Mole fraction of 3,7-dihydro-1,3-dimethyl-1H-purine-2,6-dione	Solid-liquid equilibrium temperature, K	uncertainty
0.0008	309.4	6.1
0.0013	313	5.9
0.002	318.6	5.6
0.0027	321.3	5.3
0.0036	325.2	4.7
0.005	332.8	3
0.0083	340.1	1.7
0.0123	345.3	1.3

System: 3,7-dihydro-1,3-dimethyl-1H-purine-2,6-dione + octan-1-ol; phases: Liquid, Crystal
Fixed: Pressure, kPa = 100
Property: Solid-liquid equilibrium temperature, K (Liquid); method: VISOBS
Mole fraction of 3,7-dihydro-1,3-dimethyl-1H-purine-2,6-dione	Solid-liquid equilibrium temperature, K	uncertainty
0.001	322.3	9.6
0.0013	327.2	7.9
0.0017	330.2	4.9
0.0025	336.7	5
0.0027	337.5	5.1
0.0045	343.8	4.1
0.0063	352.1	5.9
0.0069	355.3	5.7
0.008	364.5	8.4

System: 7-(2-hydroxyethyl)-1,3-dimethylxanthine + water; phases: Liquid, Crystal
Fixed: Pressure, kPa = 100
Property: Solid-liquid equilibrium temperature, K (Liquid); method: VISOBS
Mole fraction of 7-(2-hydroxyethyl)-1,3-dimethylxanthine	Solid-liquid equilibrium temperature, K	uncertainty
0.0027	290.7	8.5
0.0039	300.9	6.1
0.0041	301.6	6.2
0.0042	303.4	5.3
0.0048	304.6	5.5
0.0052	306	4.2
0.0067	312.5	3
0.0067	312.8	3
0.0086	316.2	1.7
0.0099	317.9	1.3
0.0119	320.5	1.4
0.0133	322.5	1.2
0.0155	324.9	1.2
0.0204	330.8	1
0.026	334.7	0.5
0.0447	342	0.4
0.0623	347.3	0.3
0.0808	348.4	0.3

System: ethanol + 7-(2-hydroxyethyl)-1,3-dimethylxanthine; phases: Liquid, Crystal
Fixed: Pressure, kPa = 100
Property: Solid-liquid equilibrium temperature, K (Liquid); method: VISOBS
Mole fraction of 7-(2-hydroxyethyl)-1,3-dimethylxanthine	Solid-liquid equilibrium temperature, K	uncertainty
0.001	313.9	9.1
0.0016	321.2	4.8
0.0023	325.7	6.1
0.0029	327.4	4.7
0.004	332.5	3.6
0.0055	336.8	2.6
0.0065	339.1	2.7
0.0068	339.7	2.7
0.0077	342.4	2.8
0.0081	343.8	3.2
0.0086	344.9	2.9

System: octan-1-ol + 7-(2-hydroxyethyl)-1,3-dimethylxanthine; phases: Liquid, Crystal
Fixed: Pressure, kPa = 100
Property: Solid-liquid equilibrium temperature, K (Liquid); method: VISOBS
Mole fraction of 7-(2-hydroxyethyl)-1,3-dimethylxanthine	Solid-liquid equilibrium temperature, K	uncertainty
0.0026	323.2	5
0.0046	333.2	3.6
0.006	335.2	1.9
0.0074	338.4	2.4
0.0095	343.5	1.8
0.0149	351.8	1.2
0.02	355.5	1.3
0.0259	365.2	1.7

System: 1H-purine-2,6-dione, 3,7-dihydro-3,7-dimethyl- + water; phases: Liquid, Crystal
Fixed: Pressure, kPa = 100
Property: Mole fraction of 1H-purine-2,6-dione, 3,7-dihydro-3,7-dimethyl- (Liquid); method: UV-Vis spectrophotometry
Temperature, K	Mole fraction of 1H-purine-2,6-dione, 3,7-dihydro-3,7-dimethyl-	uncertainty
293.15	0.0010037	2.9e-06
298.15	0.0010087	2.9e-06
303.15	0.0010139	3e-06
308.15	0.0010284	3e-06
313.15	0.0010413	3e-06
318.15	0.0010444	3e-06

System: ethanol + 1H-purine-2,6-dione, 3,7-dihydro-3,7-dimethyl-; phases: Liquid, Crystal
Fixed: Pressure, kPa = 100
Property: Mole fraction of 1H-purine-2,6-dione, 3,7-dihydro-3,7-dimethyl- (Liquid); method: UV-Vis spectrophotometry
Temperature, K	Mole fraction of 1H-purine-2,6-dione, 3,7-dihydro-3,7-dimethyl-	uncertainty
293.15	1.5295e-05	2.025e-06
298.15	2.3263e-05	2.027e-06
303.15	3.147e-05	2.024e-06
308.15	3.8528e-05	2.056e-06
313.15	5.4889e-05	2.064e-06
318.15	6.3411e-05	2.033e-06

System: 1H-purine-2,6-dione, 3,7-dihydro-3,7-dimethyl- + octan-1-ol; phases: Liquid, Crystal
Fixed: Pressure, kPa = 100
Property: Mole fraction of 1H-purine-2,6-dione, 3,7-dihydro-3,7-dimethyl- (Liquid); method: UV-Vis spectrophotometry
Temperature, K	Mole fraction of 1H-purine-2,6-dione, 3,7-dihydro-3,7-dimethyl-	uncertainty
293.15	0.00021386	9.01e-06
298.15	0.0004332	5.49e-06
308.15	0.00061	4.57e-06
318.15	0.00082351	5.03e-06
