Measured thermophysical data. Experimental study on the thermochemistry of 2,5-dimethylthiophene and its acetyl derivative
Source: J. Chem. Thermodyn., 2008, 10.1016/j.jct.2008.04.005
Compound 1: sulfuric acid, H2O4S, InChI=1S/H2O4S/c1-5(2,3)4/h(H2,1,2,3,4)
Compound 2: carbon dioxide, CO2, InChI=1S/CO2/c2-1-3
Compound 3: water, H2O, InChI=1S/H2O/h1H2
Compound 4: oxygen, O2, InChI=1S/O2/c1-2
Compound 5: 2,5-dimethylthiophene, C6H8S, InChI=1S/C6H8S/c1-5-3-4-6(2)7-5/h3-4H,1-2H3, purity 98%
Compound 6: 3-acetyl-2,5-dimethylthiophene, C8H10OS, InChI=1S/C8H10OS/c1-5-4-8(6(2)9)7(3)10-5/h4H,1-3H3, purity 99%

System: 2,5-dimethylthiophene; phases: Liquid, Gas
Property: Molar enthalpy of vaporization or sublimation, kJ/mol (Liquid); method: Calvet microcalorimetry
Temperature, K	Molar enthalpy of vaporization or sublimation, kJ/mol	uncertainty
298.15	40.2	1.8

System: 2,5-dimethylthiophene; phases: Gas
Property: Molar enthalpy, kJ/mol (Gas); method: Vacuum drop calorimetry
Temperature, K	Pressure, kPa	Molar enthalpy, kJ/mol	uncertainty
349.8	100	47.7	0.2

System: 3-acetyl-2,5-dimethylthiophene; phases: Liquid, Gas
Property: Molar enthalpy of vaporization or sublimation, kJ/mol (Liquid); method: Vacuum drop calorimetry
Temperature, K	Molar enthalpy of vaporization or sublimation, kJ/mol	uncertainty
298.15	61.3	2.6

System: 3-acetyl-2,5-dimethylthiophene; phases: Gas
Property: Molar enthalpy, kJ/mol (Gas); method: Vacuum drop calorimetry
Temperature, K	Pressure, kPa	Molar enthalpy, kJ/mol	uncertainty
350	100	71.4	0.4

Reaction: -1 2,5-dimethylthiophene + 1 sulfuric acid + 6 carbon dioxide + 3 water + -9.5 oxygen
Property: Specific internal energy of reaction at constant volume, J/g
-36616.2

Reaction: -1 3-acetyl-2,5-dimethylthiophene + 1 sulfuric acid + 8 carbon dioxide + 4 water + -11.5 oxygen
Property: Specific internal energy of reaction at constant volume, J/g
-32328.7
