Measured thermophysical data. Extraction of propylbenzene or butylbenzene from dodecane using 4-methyl-N-butylpyridinium tetrafluoroborate, [mebupy][BF4], as an ionic liquid at different temperatures
Source: J. Chem. Thermodyn., 2011, 10.1016/j.jct.2011.06.009
Compound 1: 1-butyl-4-methylpyridinium tetrafluoroborate, C10H16BF4N, InChI=1S/C10H16N.BF4/c1-3-4-7-11-8-5-10(2)6-9-11;2-1(3,4)5/h5-6,8-9H,3-4,7H2,1-2H3;/q+1;-1, purity 98%
Compound 2: dodecane, C12H26, InChI=1S/C12H26/c1-3-5-7-9-11-12-10-8-6-4-2/h3-12H2,1-2H3, purity 99%
Compound 3: propylbenzene, C9H12, InChI=1S/C9H12/c1-2-6-9-7-4-3-5-8-9/h3-5,7-8H,2,6H2,1H3, purity 99%
Compound 4: butylbenzene, C10H14, InChI=1S/C10H14/c1-2-3-7-10-8-5-4-6-9-10/h4-6,8-9H,2-3,7H2,1H3, purity 99%

System: 1-butyl-4-methylpyridinium tetrafluoroborate; phases: Liquid
Property: Refractive index (Na D-line) (Liquid); method: Standard Abbe refractometry
Temperature, K	Pressure, kPa	Refractive index (Na D-line)	uncertainty
298.1	101.325	1.4509	0.0008

System: dodecane; phases: Liquid
Property: Refractive index (Na D-line) (Liquid); method: Standard Abbe refractometry
Temperature, K	Pressure, kPa	Refractive index (Na D-line)	uncertainty
293.1	101.325	1.422	0.0008

System: propylbenzene; phases: Liquid
Property: Refractive index (Na D-line) (Liquid); method: Standard Abbe refractometry
Temperature, K	Pressure, kPa	Refractive index (Na D-line)	uncertainty
293.1	101.325	1.4915	0.0008

System: butylbenzene; phases: Liquid
Property: Refractive index (Na D-line) (Liquid); method: Standard Abbe refractometry
Temperature, K	Pressure, kPa	Refractive index (Na D-line)	uncertainty
293.1	101.325	1.4895	0.0008

System: propylbenzene + dodecane + 1-butyl-4-methylpyridinium tetrafluoroborate; phases: Liquid mixture 1, Liquid mixture 2
Fixed: Pressure, kPa = 101
Property: Mole fraction of propylbenzene (Liquid mixture 1); method: Chromatography
Property: Mole fraction of dodecane (Liquid mixture 2); method: Chromatography
Property: Mole fraction of propylbenzene (Liquid mixture 2); method: Chromatography
Temperature, K	Mole fraction of dodecane	Mole fraction of propylbenzene	uncertainty	Mole fraction of dodecane	uncertainty	Mole fraction of propylbenzene	uncertainty
313	0.8912	0.1088	0.0011	0.0045	0.0001	0.0341	
313	0.8025	0.1975	0.002	0.0047	0.0001	0.0636	
313	0.7301	0.2699	0.0027	0.005	0.0001	0.092	
313	0.6686	0.3314	0.0033	0.0053	0.0001	0.1162	
313	0.6157	0.3843	0.0038	0.0055	0.0001	0.1367	
313	0.5709	0.4291	0.0043	0.0058	0.0001	0.1573	
313	0.5318	0.4682	0.0047	0.0061	0.0001	0.1758	
313	0.4977	0.5023	0.005	0.0064	0.0001	0.1935	
313	0.4398	0.5602	0.0044	0.0067	0.0001	0.2211	
313	0.3942	0.6058	0.0039	0.007	0.0001	0.2482	
323	0.8921	0.1079	0.0011	0.0052	0.0001	0.0356	
323	0.8037	0.1963	0.002	0.0055	0.0001	0.066	
323	0.7309	0.2691	0.0027	0.0059	0.0001	0.094	
323	0.6697	0.3303	0.0033	0.0061	0.0001	0.1191	
323	0.6175	0.3825	0.0038	0.0063	0.0001	0.1418	
323	0.5734	0.4266	0.0043	0.0067	0.0001	0.1651	
323	0.5349	0.4651	0.0047	0.007	0.0001	0.1863	
323	0.5018	0.4982	0.005	0.0074	0.0001	0.2085	
323	0.443	0.557	0.0044	0.0079	0.0001	0.2355	
323	0.3962	0.6038	0.004	0.0082	0.0001	0.2591	
333	0.8933	0.1067	0.0011	0.006	0.0001	0.0376	
333	0.8058	0.1942	0.0019	0.0064	0.0001	0.07	
333	0.7331	0.2669	0.0027	0.0068	0.0001	0.0988	
333	0.6723	0.3277	0.0033	0.0072	0.0001	0.1256	
333	0.6204	0.3796	0.0038	0.0076	0.0001	0.1499	
333	0.5758	0.4242	0.0042	0.008	0.0001	0.1726	
333	0.5379	0.4621	0.0046	0.0083	0.0001	0.1964	
333	0.5049	0.4951	0.005	0.0086	0.0001	0.2196	
333	0.4472	0.5528	0.0045	0.0089	0.0001	0.2528	
333	0.4005	0.5995	0.004	0.0092	0.0001	0.2799	

System: butylbenzene + dodecane + 1-butyl-4-methylpyridinium tetrafluoroborate; phases: Liquid mixture 1, Liquid mixture 2
Fixed: Pressure, kPa = 101
Property: Mole fraction of butylbenzene (Liquid mixture 1); method: Chromatography
Property: Mole fraction of dodecane (Liquid mixture 2); method: Chromatography
Property: Mole fraction of butylbenzene (Liquid mixture 2); method: Chromatography
Temperature, K	Mole fraction of dodecane	Mole fraction of butylbenzene	uncertainty	Mole fraction of dodecane	uncertainty	Mole fraction of butylbenzene	uncertainty
313	0.9026	0.0974	0.001	0.0039	0.0001	0.0261	
313	0.8214	0.1786	0.0018	0.0041	0.0001	0.0488	
313	0.7531	0.2469	0.0025	0.0043	0.0001	0.0696	
313	0.6948	0.3052	0.0031	0.0045	0.0001	0.0883	
313	0.6441	0.3559	0.0036	0.0047	0.0001	0.1043	
313	0.6002	0.3998	0.004	0.0049	0.0001	0.1195	
313	0.5618	0.4382	0.0044	0.0051	0.0001	0.1339	
313	0.5277	0.4723	0.0047	0.0053	0.0001	0.1467	
313	0.4978	0.5022	0.005	0.0055	0.0001	0.1604	
313	0.471	0.529	0.0047	0.0057	0.0001	0.1732	
313	0.4471	0.5529	0.0045	0.0059	0.0001	0.1864	
313	0.4249	0.5751	0.0042	0.0061	0.0001	0.1963	
313	0.4047	0.5953	0.004	0.0063	0.0001	0.2055	
313	0.3866	0.6134	0.0039	0.0065	0.0001	0.216	
323	0.9036	0.0964	0.001	0.0047	0.0001	0.0277	
323	0.8234	0.1766	0.0018	0.0049	0.0001	0.0527	
323	0.7552	0.2448	0.0024	0.0051	0.0001	0.0742	
323	0.6967	0.3033	0.003	0.0053	0.0001	0.093	
323	0.6461	0.3539	0.0035	0.0055	0.0001	0.1099	
323	0.6024	0.3976	0.004	0.0056	0.0001	0.1262	
323	0.5641	0.4359	0.0044	0.0058	0.0001	0.1417	
323	0.5299	0.4701	0.0047	0.0061	0.0001	0.155	
323	0.4999	0.5001	0.005	0.0063	0.0001	0.169	
323	0.473	0.527	0.0047	0.0065	0.0001	0.1822	
323	0.449	0.551	0.0045	0.0067	0.0001	0.1957	
323	0.4268	0.5732	0.0043	0.007	0.0001	0.2064	
323	0.4066	0.5934	0.0041	0.0072	0.0001	0.2163	
323	0.3886	0.6114	0.0039	0.0075	0.0001	0.2282	
333	0.9044	0.0956	0.001	0.0078	0.0001	0.0274	
333	0.8244	0.1755	0.0018	0.0076	0.0001	0.0524	
333	0.7563	0.2436	0.0024	0.0074	0.0001	0.0754	
333	0.6983	0.3015	0.003	0.0073	0.0001	0.0964	
333	0.6482	0.3515	0.0035	0.0071	0.0001	0.1157	
333	0.6048	0.3949	0.0039	0.007	0.0001	0.1335	
333	0.5665	0.433	0.0043	0.0069	0.0001	0.15	
333	0.5328	0.4666	0.0047	0.0068	0.0001	0.1652	
333	0.5024	0.4967	0.005	0.0066	0.0001	0.1796	
333	0.4753	0.5238	0.0048	0.0065	0.0001	0.193	
333	0.4502	0.5487	0.0045	0.0064	0.0001	0.2059	
333	0.428	0.5706	0.0043	0.0063	0.0001	0.2177	
333	0.4076	0.5908	0.0041	0.0062	0.0001	0.2289	
333	0.3889	0.6092	0.0039	0.0061	0.0001	0.2395	
