Measured thermophysical data. Solubilities and thermodynamic properties of CO2 in choline-chloride based deep eutectic solvents
Source: J. Chem. Thermodyn., 2014, 10.1016/j.jct.2014.04.012
Compound 1: carbon dioxide, CO2, InChI=1S/CO2/c2-1-3, purity 99.95%
Compound 2: choline chloride, C5H14ClNO, InChI=1S/C5H14NO.ClH/c1-6(2,3)4-5-7;/h7H,4-5H2,1-3H3;1H/q+1;/p-1, purity 98.5%
Compound 3: phenol, C6H6O, InChI=1S/C6H6O/c7-6-4-2-1-3-5-6/h1-5,7H, purity 99%
Compound 4: diethylene glycol, C4H10O3, InChI=1S/C4H10O3/c5-1-3-7-4-2-6/h5-6H,1-4H2, purity 99%
Compound 5: triethylene glycol, C6H14O4, InChI=1S/C6H14O4/c7-1-3-9-5-6-10-4-2-8/h7-8H,1-6H2, purity 99%

System: choline chloride + phenol; phases: Liquid
Fixed: Pressure, kPa = 101.3
Property: Mass density, kg/m3 (Liquid); method: Pycnometric method
Temperature, K	Mole fraction of choline chloride	Mass density, kg/m3	uncertainty
293.15	0.333	1096.6	1
293.15	0.25	1092.7	1
293.15	0.2	1091.3	1
303.15	0.333	1093.8	1
303.15	0.25	1087.3	1
303.15	0.2	1085.1	1
313.15	0.333	1087.2	1
313.15	0.25	1083.9	1
313.15	0.2	1081.1	1
323.15	0.333	1082.5	1
323.15	0.25	1079.5	1
323.15	0.2	1076	1

System: choline chloride + diethylene glycol; phases: Liquid
Fixed: Pressure, kPa = 101.3
Property: Mass density, kg/m3 (Liquid); method: Pycnometric method
Temperature, K	Mole fraction of choline chloride	Mass density, kg/m3	uncertainty
293.15	0.25	1122.4	1
293.15	0.2	1120.3	1
303.15	0.25	1117.9	1
303.15	0.2	1113	1
313.15	0.25	1113	1
313.15	0.2	1108.9	1
323.15	0.25	1108.3	1
323.15	0.2	1103.2	1

System: choline chloride + triethylene glycol; phases: Liquid
Fixed: Pressure, kPa = 101.3
Property: Mass density, kg/m3 (Liquid); method: Pycnometric method
Temperature, K	Mole fraction of choline chloride	Mass density, kg/m3	uncertainty
293.15	0.25	1133.1	1.1
293.15	0.2	1120.3	1.1
303.15	0.25	1126.2	1.1
303.15	0.2	1114.6	1.1
313.15	0.25	1119.3	1.1
313.15	0.2	1108.9	1.1
323.15	0.25	1112.4	1.1
323.15	0.2	1103.2	1.1

System: choline chloride + phenol + carbon dioxide; phases: Liquid, Gas
Property: Mole fraction of carbon dioxide (Liquid); method: Volumetric method
Temperature, K	Solvent: Mole fraction of choline chloride	Pressure, kPa	Mole fraction of carbon dioxide	uncertainty
293.15	0.333	99	0.0038	0.0002
293.15	0.333	197.2	0.0077	0.0003
293.15	0.333	303.1	0.0126	0.0005
293.15	0.333	397	0.0163	0.0007
293.15	0.333	494.5	0.0208	0.0008
303.15	0.333	104.3	0.0037	0.0002
303.15	0.333	198.2	0.0071	0.0003
303.15	0.333	295.5	0.0105	0.0004
303.15	0.333	400.6	0.0137	0.0006
303.15	0.333	510.1	0.017	0.0007
313.15	0.333	121.8	0.0033	0.0001
313.15	0.333	217.8	0.006	0.0002
313.15	0.333	322	0.0091	0.0004
313.15	0.333	417.4	0.0121	0.0005
313.15	0.333	503	0.0149	0.0006
323.15	0.333	115.2	0.0024	0.0001
323.15	0.333	216.5	0.0048	0.0002
323.15	0.333	320	0.0069	0.0003
323.15	0.333	424.8	0.0093	0.0004
323.15	0.333	520.2	0.0114	0.0005
293.15	0.25	104.4	0.0043	0.0002
293.15	0.25	206.3	0.0086	0.0004
293.15	0.25	307.7	0.0128	0.0005
293.15	0.25	406.2	0.0164	0.0007
293.15	0.25	508.5	0.0212	0.0009
303.15	0.25	113.1	0.0035	0.0002
303.15	0.25	217.6	0.0068	0.0003
303.15	0.25	316.3	0.0103	0.0004
303.15	0.25	418.3	0.0139	0.0006
303.15	0.25	514.2	0.0177	0.0007
313.15	0.25	116	0.0032	0.0001
313.15	0.25	218.1	0.0064	0.0003
313.15	0.25	317.3	0.0095	0.0004
313.15	0.25	411.5	0.0124	0.0005
313.15	0.25	506.8	0.0156	0.0006
323.15	0.25	123.4	0.0029	0.0001
323.15	0.25	218.1	0.0054	0.0002
323.15	0.25	318.2	0.0079	0.0003
323.15	0.25	412.5	0.0106	0.0004
323.15	0.25	513.6	0.0133	0.0005
293.15	0.2	108.2	0.0043	0.0002
293.15	0.2	212.1	0.0083	0.0003
293.15	0.2	312.6	0.0125	0.0005
293.15	0.2	401.6	0.0162	0.0007
293.15	0.2	509.2	0.0213	0.0009
303.15	0.2	115	0.0035	0.0002
303.15	0.2	220	0.0067	0.0003
303.15	0.2	323.9	0.0102	0.0004
303.15	0.2	420.9	0.0136	0.0005
303.15	0.2	523.3	0.0172	0.0007
313.15	0.2	117.1	0.0032	0.0001
313.15	0.2	214.2	0.0062	0.0003
313.15	0.2	320.4	0.0096	0.0004
313.15	0.2	415.8	0.0125	0.0005
313.15	0.2	504.5	0.0157	0.0006
323.15	0.2	118.2	0.0027	0.0001
323.15	0.2	221.4	0.0051	0.0002
323.15	0.2	325.1	0.0079	0.0003
323.15	0.2	418.4	0.0109	0.0004
323.15	0.2	529.1	0.0132	0.0005

System: choline chloride + diethylene glycol + carbon dioxide; phases: Liquid, Gas
Property: Mole fraction of carbon dioxide (Liquid); method: Volumetric method
Temperature, K	Solvent: Mole fraction of choline chloride	Pressure, kPa	Mole fraction of carbon dioxide	uncertainty
293.15	0.25	112.8	0.0037	0.0002
293.15	0.25	212.2	0.0076	0.0003
293.15	0.25	314.9	0.011	0.0004
293.15	0.25	409.8	0.0147	0.0006
293.15	0.25	512.9	0.0189	0.0008
303.15	0.25	117.7	0.0037	0.0002
303.15	0.25	215.1	0.0069	0.0003
303.15	0.25	321.3	0.0105	0.0004
303.15	0.25	415.1	0.0136	0.0005
303.15	0.25	524	0.0169	0.0007
313.15	0.25	116.9	0.003	0.0001
313.15	0.25	219.6	0.0059	0.0002
313.15	0.25	327	0.0091	0.0004
313.15	0.25	417.7	0.0114	0.0005
313.15	0.25	515.7	0.0142	0.0006
323.15	0.25	122.5	0.0025	0.0001
323.15	0.25	220.3	0.0046	0.0002
323.15	0.25	321	0.0068	0.0003
323.15	0.25	421.2	0.0092	0.0004
323.15	0.25	518	0.0116	0.0005
293.15	0.2	110.4	0.0039	0.0002
293.15	0.2	210.5	0.0079	0.0003
293.15	0.2	313.8	0.0123	0.0005
293.15	0.2	412.3	0.0164	0.0007
293.15	0.2	508.8	0.0205	0.0008
303.15	0.2	115.8	0.0034	0.0002
303.15	0.2	218.4	0.0066	0.0003
303.15	0.2	318.7	0.0099	0.0004
303.15	0.2	417.2	0.0133	0.0005
303.15	0.2	519	0.0167	0.0007
313.15	0.2	116.5	0.003	0.0001
313.15	0.2	217.1	0.0059	0.0002
313.15	0.2	313.5	0.0088	0.0004
313.15	0.2	416	0.0119	0.0005
313.15	0.2	518.2	0.0147	0.0006
323.15	0.2	116.7	0.0023	0.0001
323.15	0.2	221.2	0.0045	0.0002
323.15	0.2	327.4	0.0072	0.0003
323.15	0.2	419.2	0.0096	0.0004
323.15	0.2	526.9	0.0121	0.0005

System: choline chloride + triethylene glycol + carbon dioxide; phases: Liquid, Gas
Property: Mole fraction of carbon dioxide (Liquid); method: Volumetric method
Temperature, K	Solvent: Mole fraction of choline chloride	Pressure, kPa	Mole fraction of carbon dioxide	uncertainty
293.15	0.25	109.3	0.0052	0.0002
293.15	0.25	208.6	0.0108	0.0004
293.15	0.25	315.9	0.0166	0.0007
293.15	0.25	403.3	0.0213	0.0009
293.15	0.25	504	0.0274	0.0011
303.15	0.25	119.3	0.0047	0.0002
303.15	0.25	212.9	0.0089	0.0004
303.15	0.25	319.4	0.0138	0.0006
303.15	0.25	416.7	0.0188	0.0008
303.15	0.25	512.7	0.0232	0.0009
313.15	0.25	114	0.0038	0.0002
313.15	0.25	220.8	0.0078	0.0003
313.15	0.25	318.2	0.0111	0.0005
313.15	0.25	414.9	0.0154	0.0006
313.15	0.25	510.6	0.0194	0.0008
323.15	0.25	119.2	0.0034	0.0002
323.15	0.25	216.7	0.0065	0.0003
323.15	0.25	318.8	0.0095	0.0004
323.15	0.25	418.6	0.013	0.0005
323.15	0.25	516	0.0163	0.0007
293.15	0.2	119	0.006	0.0003
293.15	0.2	215	0.011	0.0004
293.15	0.2	322.1	0.017	0.0007
293.15	0.2	404.3	0.0219	0.0009
293.15	0.2	513.5	0.028	0.0011
303.15	0.2	109.3	0.0049	0.0002
303.15	0.2	211.5	0.01	0.0004
303.15	0.2	310.4	0.0148	0.0006
303.15	0.2	410.5	0.02	0.0008
303.15	0.2	513	0.0247	0.001
313.15	0.2	119.6	0.0042	0.0002
313.15	0.2	219.3	0.0081	0.0003
313.15	0.2	315.2	0.0124	0.0005
313.15	0.2	415	0.0168	0.0007
313.15	0.2	519	0.0202	0.0008
323.15	0.2	118.8	0.0033	0.0001
323.15	0.2	221.4	0.0066	0.0003
323.15	0.2	318.6	0.0096	0.0004
323.15	0.2	420.2	0.0134	0.0005
323.15	0.2	520.3	0.0167	0.0007
