Measured thermophysical data. Phase behaviour for the (carbon dioxide + 2-phenoxyethyl acrylate) and (carbon dioxide + 2-phenoxyethyl methacrylate) systems at temperatures from (313.2 to 393.2) K and pressures from (5 to 31) MPa
Source: J. Chem. Thermodyn., 2010, 10.1016/j.jct.2010.01.011
Compound 1: carbon dioxide, CO2, InChI=1S/CO2/c2-1-3, purity 99.8%
Compound 2: 2-phenoxyethyl acrylate, C11H12O3, InChI=1S/C11H12O3/c1-2-11(12)14-9-8-13-10-6-4-3-5-7-10/h2-7H,1,8-9H2, purity 99%
Compound 3: 2-phenoxyethyl methacrylate, C12H14O3, InChI=1S/C12H14O3/c1-10(2)12(13)15-9-8-14-11-6-4-3-5-7-11/h3-7H,1,8-9H2,2H3, purity 90%

System: carbon dioxide + 2-phenoxyethyl methacrylate; phases: Liquid, Gas
Property: Vapor or sublimation pressure, kPa (Liquid); method: High Pressure Cell
Temperature, K	Mole fraction of 2-phenoxyethyl methacrylate	Vapor or sublimation pressure, kPa	uncertainty
313.2	0.077	15210	150
313.2	0.097	14720	140
313.2	0.113	14510	140
313.2	0.133	14030	140
313.2	0.196	12660	140
313.2	0.214	12580	130
313.2	0.219	12290	260
313.2	0.309	10580	130
313.2	0.365	9490	120
313.2	0.456	7900	110
313.2	0.517	7250	110
313.2	0.544	6860	100
313.2	0.64	5840	100
313.2	0.699	5080	100
333.2	0.077	20160	140
333.2	0.097	19730	140
333.2	0.113	19400	140
333.2	0.133	18970	150
333.2	0.196	17420	160
333.2	0.214	17180	160
333.2	0.219	16870	420
333.2	0.309	13600	170
333.2	0.365	12300	150
333.2	0.456	10050	140
333.2	0.517	9130	130
333.2	0.544	8570	120
333.2	0.64	7450	120
333.2	0.699	6380	130
353.2	0.097	24510	120
353.2	0.113	24290	140
353.2	0.133	23680	170
353.2	0.196	21430	180
353.2	0.214	21210	160
353.2	0.219	20890	370
353.2	0.309	16920	210
353.2	0.365	14810	180
353.2	0.456	12150	160
353.2	0.517	11000	150
353.2	0.544	10300	140
353.2	0.64	8830	140
353.2	0.699	7680	150
373.2	0.113	27620	150
373.2	0.133	27050	160
373.2	0.196	25200	180
373.2	0.214	24900	190
373.2	0.219	24570	560
373.2	0.309	19850	250
373.2	0.365	17220	210
373.2	0.456	13910	190
373.2	0.517	12530	170
373.2	0.544	11830	160
373.2	0.64	10090	160
373.2	0.699	8570	170
393.2	0.133	30030	170
393.2	0.196	27990	190
393.2	0.214	27560	190
393.2	0.219	27220	310
393.2	0.309	22320	270
393.2	0.365	19220	240
393.2	0.456	15630	210
393.2	0.517	13970	190
393.2	0.544	13090	180
393.2	0.64	10860	170
393.2	0.699	9410	170

System: carbon dioxide + 2-phenoxyethyl methacrylate; phases: Gas, Liquid
Property: Vapor or sublimation pressure, kPa (Gas); method: High Pressure Cell
Temperature, K	Mole fraction of 2-phenoxyethyl methacrylate	Vapor or sublimation pressure, kPa	uncertainty
373.2	0.077	27810	290
393.2	0.077	30310	310
393.2	0.097	30370	310

System: carbon dioxide + 2-phenoxyethyl methacrylate; phases: Liquid, Gas
Property: Vapor or sublimation pressure, kPa (Liquid); method: High Pressure Cell
Temperature, K	Mole fraction of 2-phenoxyethyl methacrylate	Vapor or sublimation pressure, kPa	uncertainty
353.2	0.077	24710	260
373.2	0.097	27900	610
393.2	0.113	30550	620

System: carbon dioxide + 2-phenoxyethyl acrylate; phases: Gas, Liquid
Property: Vapor or sublimation pressure, kPa (Gas); method: High Pressure Cell
Temperature, K	Mole fraction of 2-phenoxyethyl acrylate	Vapor or sublimation pressure, kPa	uncertainty
393.2	0.076	31120	620

System: carbon dioxide + 2-phenoxyethyl acrylate; phases: Liquid, Gas
Property: Vapor or sublimation pressure, kPa (Liquid); method: High Pressure Cell
Temperature, K	Mole fraction of 2-phenoxyethyl acrylate	Vapor or sublimation pressure, kPa	uncertainty
373.2	0.076	28570	290
393.2	0.119	31430	320

System: carbon dioxide + 2-phenoxyethyl acrylate; phases: Liquid, Gas
Property: Vapor or sublimation pressure, kPa (Liquid); method: High Pressure Cell
Temperature, K	Mole fraction of 2-phenoxyethyl acrylate	Vapor or sublimation pressure, kPa	uncertainty
313.2	0.076	16480	110
313.2	0.119	16090	120
313.2	0.162	15310	160
313.2	0.224	12810	170
313.2	0.298	10720	120
313.2	0.371	9470	110
313.2	0.386	9130	110
313.2	0.411	8590	100
313.2	0.469	7610	90
313.2	0.542	6400	80
313.2	0.591	5830	60
313.2	0.662	5140	60
333.2	0.076	21140	100
333.2	0.119	20620	120
333.2	0.162	19660	160
333.2	0.224	17520	190
333.2	0.298	14030	170
333.2	0.371	12310	110
333.2	0.386	12030	140
333.2	0.411	11070	120
333.2	0.469	9740	110
333.2	0.542	8130	100
333.2	0.591	7210	80
333.2	0.662	6150	80
353.2	0.076	25310	90
353.2	0.119	25170	100
353.2	0.162	24110	160
353.2	0.224	21690	200
353.2	0.298	18020	190
353.2	0.371	15280	150
353.2	0.386	14570	190
353.2	0.411	13520	140
353.2	0.469	11860	120
353.2	0.542	10030	120
353.2	0.591	8560	110
353.2	0.662	7100	100
373.2	0.119	28280	100
373.2	0.162	27600	130
373.2	0.224	25450	210
373.2	0.298	21070	230
373.2	0.371	17570	160
373.2	0.386	16990	210
373.2	0.411	15590	170
373.2	0.469	13550	140
373.2	0.542	11410	130
373.2	0.591	9880	120
373.2	0.662	7940	120
393.2	0.162	30410	170
393.2	0.224	27970	210
393.2	0.298	23760	230
393.2	0.371	19820	260
393.2	0.386	18870	240
393.2	0.411	17520	190
393.2	0.469	15050	150
393.2	0.542	12790	140
393.2	0.591	11020	150
393.2	0.662	8660	140
