Measured thermophysical data. The density, refractive index, and thermodynamic behaviour of binary mixtures of 1,3-Diethenyl-1,1,3,3-tetramethyldisiloxane with aromatic hydrocarbons
Source: J. Chem. Thermodyn., 2014, 10.1016/j.jct.2013.12.025
Compound 1: 1,3-diethenyl-1,1,3,3-tetramethyldisiloxane, C8H18OSi2, InChI=1S/C8H18OSi2/c1-7-10(3,4)9-11(5,6)8-2/h7-8H,1-2H2,3-6H3
Compound 2: anisole, C7H8O, InChI=1S/C7H8O/c1-8-7-5-3-2-4-6-7/h2-6H,1H3
Compound 3: ethylbenzene, C8H10, InChI=1S/C8H10/c1-2-8-6-4-3-5-7-8/h3-7H,2H2,1H3
Compound 4: chlorobenzene, C6H5Cl, InChI=1S/C6H5Cl/c7-6-4-2-1-3-5-6/h1-5H
Compound 5: fluorobenzene, C6H5F, InChI=1S/C6H5F/c7-6-4-2-1-3-5-6/h1-5H
Compound 6: nitrobenzene, C6H5NO2, InChI=1S/C6H5NO2/c8-7(9)6-4-2-1-3-5-6/h1-5H

System: 1,3-diethenyl-1,1,3,3-tetramethyldisiloxane; phases: Liquid
Fixed: Pressure, kPa = 101
Property: Mass density, kg/m3 (Liquid); method: Vibrating tube method
Temperature, K	Mass density, kg/m3	uncertainty
283.15	822.67	1.01
288.15	817.77	1.01
293.15	812.92	1.01
298.15	808	1.01
303.15	803.07	1.01

System: 1,3-diethenyl-1,1,3,3-tetramethyldisiloxane; phases: Liquid
Fixed: Pressure, kPa = 101.325
Property: Refractive index (Na D-line) (Liquid); method: Standard Abbe refractometry
Temperature, K	Refractive index (Na D-line)	uncertainty
283.15	1.41766	0.00032
288.15	1.415	0.00032
293.15	1.41236	0.00032
298.15	1.4097	0.00032
303.15	1.40707	0.00032

System: anisole; phases: Liquid
Fixed: Pressure, kPa = 101
Property: Mass density, kg/m3 (Liquid); method: Vibrating tube method
Temperature, K	Mass density, kg/m3	uncertainty
283.15	1003.3	1
288.15	998.62	1
293.15	994.01	1
298.15	989.32	1.01
303.15	984.59	1.01

System: anisole; phases: Liquid
Fixed: Pressure, kPa = 101.325
Property: Refractive index (Na D-line) (Liquid); method: Standard Abbe refractometry
Temperature, K	Refractive index (Na D-line)	uncertainty
283.15	1.52242	0.00031
288.15	1.51985	0.00031
293.15	1.51724	0.00031
298.15	1.5146	0.00032
303.15	1.51191	0.00032

System: ethylbenzene; phases: Liquid
Fixed: Pressure, kPa = 101
Property: Mass density, kg/m3 (Liquid); method: Vibrating tube method
Temperature, K	Mass density, kg/m3	uncertainty
283.15	875.69	1.01
288.15	871.3	1.01
293.15	866.9	1.01
298.15	862.58	1.01
303.15	858.16	1.01

System: ethylbenzene; phases: Liquid
Fixed: Pressure, kPa = 101.325
Property: Refractive index (Na D-line) (Liquid); method: Standard Abbe refractometry
Temperature, K	Refractive index (Na D-line)	uncertainty
283.15	1.50118	0.00032
288.15	1.49845	0.00032
293.15	1.49575	0.00032
298.15	1.49301	0.00032
303.15	1.4903	0.00032

System: chlorobenzene; phases: Liquid
Fixed: Pressure, kPa = 101
Property: Mass density, kg/m3 (Liquid); method: Vibrating tube method
Temperature, K	Mass density, kg/m3	uncertainty
283.15	1117.29	1.01
288.15	1111.89	1.01
293.15	1106.55	1.01
298.15	1101.16	1.01
303.15	1095.79	1.01

System: chlorobenzene; phases: Liquid
Fixed: Pressure, kPa = 101.325
Property: Refractive index (Na D-line) (Liquid); method: Standard Abbe refractometry
Temperature, K	Refractive index (Na D-line)	uncertainty
283.15	1.52992	0.00032
288.15	1.52722	0.00032
293.15	1.52446	0.00032
298.15	1.52168	0.00032
303.15	1.51893	0.00032

System: fluorobenzene; phases: Liquid
Fixed: Pressure, kPa = 101
Property: Mass density, kg/m3 (Liquid); method: Vibrating tube method
Temperature, K	Mass density, kg/m3	uncertainty
283.15	1036.89	1.01
288.15	1030.93	1.01
293.15	1024.96	1.01
298.15	1019.07	1.01
303.15	1013.03	1.01

System: fluorobenzene; phases: Liquid
Fixed: Pressure, kPa = 101.325
Property: Refractive index (Na D-line) (Liquid); method: Standard Abbe refractometry
Temperature, K	Refractive index (Na D-line)	uncertainty
283.15	1.47152	0.00032
288.15	1.46859	0.00032
293.15	1.46571	0.00032
298.15	1.46283	0.00032
303.15	1.45989	0.00032

System: nitrobenzene; phases: Liquid
Fixed: Pressure, kPa = 101
Property: Mass density, kg/m3 (Liquid); method: Vibrating tube method
Temperature, K	Mass density, kg/m3	uncertainty
283.15	1212.99	1.01
288.15	1208.01	1.01
293.15	1203.05	1.01
298.15	1198.2	1.01
303.15	1193.25	1.01

System: nitrobenzene; phases: Liquid
Fixed: Pressure, kPa = 101.325
Property: Refractive index (Na D-line) (Liquid); method: Standard Abbe refractometry
Temperature, K	Refractive index (Na D-line)	uncertainty
283.15	1.55729	0.00031
288.15	1.55485	0.00031
293.15	1.55234	0.00031
298.15	1.54992	0.00031
303.15	1.54746	0.00031

System: anisole + 1,3-diethenyl-1,1,3,3-tetramethyldisiloxane; phases: Liquid
Fixed: Pressure, kPa = 101
Property: Mass density, kg/m3 (Liquid); method: Vibrating tube method
Temperature, K	Mole fraction of 1,3-diethenyl-1,1,3,3-tetramethyldisiloxane	Mass density, kg/m3	uncertainty
283.15	0	1003.3	1
283.15	0.0501	987.07	1.01
283.15	0.1	972.12	1.01
283.15	0.15	958.3	1.01
283.15	0.2004	945.4	1.01
283.15	0.2499	933.62	1.01
283.15	0.3	922.54	1.01
283.15	0.35	912.24	1.01
283.15	0.3997	902.67	1.01
283.15	0.4499	893.63	1.01
283.15	0.5001	885.14	1.01
283.15	0.5499	877.24	1.01
283.15	0.6	869.73	1.01
283.15	0.6499	862.68	1.01
283.15	0.6999	856.02	1.01
283.15	0.7499	849.72	1.01
283.15	0.8	843.72	1.01
283.15	0.8499	838.07	1.01
283.15	0.8998	832.69	1.01
283.15	0.9499	827.56	1.01
283.15	1	822.67	1.01
288.15	0	998.62	1
288.15	0.0501	982.37	1.01
288.15	0.1	967.42	1.01
288.15	0.15	953.58	1.01
288.15	0.2004	940.66	1.01
288.15	0.2499	928.87	1.01
288.15	0.3	917.77	1.01
288.15	0.35	907.47	1.01
288.15	0.3997	897.88	1.01
288.15	0.4499	888.81	1.01
288.15	0.5001	880.31	1.01
288.15	0.5499	872.4	1
288.15	0.6	864.89	1.01
288.15	0.6499	857.84	1.01
288.15	0.6999	851.16	1.01
288.15	0.7499	844.85	1.01
288.15	0.8	838.85	1.01
288.15	0.8499	833.19	1.01
288.15	0.8998	827.81	1.01
288.15	0.9499	822.67	1.01
288.15	1	817.77	1.01
293.15	0	994.01	1
293.15	0.0501	977.74	1.01
293.15	0.1	962.75	1.01
293.15	0.15	948.89	1.01
293.15	0.2004	935.96	1.01
293.15	0.2499	924.15	1.01
293.15	0.3	913.04	1.01
293.15	0.35	902.73	1.01
293.15	0.3997	893.12	1.01
293.15	0.4499	884.04	1.01
293.15	0.5001	875.53	1.01
293.15	0.5499	867.62	1.01
293.15	0.6	860.09	1.01
293.15	0.6499	853.04	1.01
293.15	0.6999	846.35	1.01
293.15	0.7499	840.03	1.01
293.15	0.8	834.02	1.01
293.15	0.8499	828.35	1.01
293.15	0.8998	822.98	1.01
293.15	0.9499	817.83	1.01
293.15	1	812.92	1.01
298.15	0	989.32	1.01
298.15	0.0501	973.02	1.01
298.15	0.1	958.01	1.01
298.15	0.15	944.14	1.01
298.15	0.2004	931.19	1.01
298.15	0.2499	919.36	1.01
298.15	0.3	908.24	1.01
298.15	0.35	897.91	1.01
298.15	0.3997	888.29	1.01
298.15	0.4499	879.2	1.01
298.15	0.5001	870.68	1.01
298.15	0.5499	862.75	1.01
298.15	0.6	855.21	1.01
298.15	0.6499	848.15	1.01
298.15	0.6999	841.46	1.01
298.15	0.7499	835.13	1.01
298.15	0.8	829.11	1.01
298.15	0.8499	823.44	1.01
298.15	0.8998	818.06	1.01
298.15	0.9499	812.91	1.01
298.15	1	808	1.01
303.15	0	984.59	1.01
303.15	0.0501	968.3	1.01
303.15	0.1	953.27	1.01
303.15	0.15	939.38	1.01
303.15	0.2004	926.42	1.01
303.15	0.2499	914.57	1.01
303.15	0.3	903.45	1.01
303.15	0.35	893.1	1.01
303.15	0.3997	883.45	1.01
303.15	0.4499	874.35	1.01
303.15	0.5001	865.82	1.01
303.15	0.5499	857.88	1.01
303.15	0.6	850.33	1.01
303.15	0.6499	843.25	1.01
303.15	0.6999	836.55	1.01
303.15	0.7499	830.23	1.01
303.15	0.8	824.19	1.01
303.15	0.8499	818.52	1.01
303.15	0.8998	813.14	1.01
303.15	0.9499	808	1.01
303.15	1	803.07	1.01

System: anisole + 1,3-diethenyl-1,1,3,3-tetramethyldisiloxane; phases: Liquid
Fixed: Pressure, kPa = 101
Property: Refractive index (Na D-line) (Liquid); method: Standard Abbe refractometry
Temperature, K	Mole fraction of 1,3-diethenyl-1,1,3,3-tetramethyldisiloxane	Refractive index (Na D-line)	uncertainty
283.15	0	1.52242	0.00031
283.15	0.0501	1.51284	0.00032
283.15	0.1	1.50406	0.00032
283.15	0.15	1.49596	0.00032
283.15	0.2004	1.48841	0.00032
283.15	0.2499	1.48153	0.00032
283.15	0.3	1.47505	0.00032
283.15	0.35	1.46908	0.00032
283.15	0.3997	1.46353	0.00032
283.15	0.4499	1.45831	0.00032
283.15	0.5001	1.45338	0.00032
283.15	0.5499	1.44883	0.00032
283.15	0.6	1.4445	0.0003
283.15	0.6499	1.44046	0.00032
283.15	0.6999	1.43664	0.00032
283.15	0.7499	1.43304	0.00032
283.15	0.8	1.42961	0.00032
283.15	0.8499	1.42639	0.00032
283.15	0.8998	1.42333	0.00032
283.15	0.9499	1.42042	0.00032
283.15	1	1.41766	0.00032
288.15	0	1.51985	0.00031
288.15	0.0501	1.51027	0.00032
288.15	0.1	1.5015	0.00032
288.15	0.15	1.49337	0.00032
288.15	0.2004	1.48578	0.00032
288.15	0.2499	1.47893	0.00032
288.15	0.3	1.47247	0.00032
288.15	0.35	1.46651	0.00032
288.15	0.3997	1.46092	0.00032
288.15	0.4499	1.45568	0.00032
288.15	0.5001	1.45077	0.00032
288.15	0.5499	1.4462	0.00032
288.15	0.6	1.44188	0.00032
288.15	0.6499	1.43782	0.00032
288.15	0.6999	1.43403	0.00032
288.15	0.7499	1.43043	0.00032
288.15	0.8	1.42699	0.00032
288.15	0.8499	1.42377	0.00032
288.15	0.8998	1.4207	0.00032
288.15	0.9499	1.41779	0.00032
288.15	1	1.415	0.00032
293.15	0	1.51724	0.00031
293.15	0.0501	1.50766	0.00032
293.15	0.1	1.49885	0.00032
293.15	0.15	1.49073	0.00032
293.15	0.2004	1.48317	0.00032
293.15	0.2499	1.47631	0.00032
293.15	0.3	1.46982	0.00032
293.15	0.35	1.46384	0.00032
293.15	0.3997	1.45829	0.00032
293.15	0.4499	1.45303	0.00032
293.15	0.5001	1.44813	0.00032
293.15	0.5499	1.44358	0.00032
293.15	0.6	1.43925	0.00032
293.15	0.6499	1.43521	0.00032
293.15	0.6999	1.43139	0.00032
293.15	0.7499	1.42778	0.00032
293.15	0.8	1.42434	0.00032
293.15	0.8499	1.42112	0.00032
293.15	0.8998	1.41806	0.00032
293.15	0.9499	1.41515	0.00032
293.15	1	1.41236	0.00032
298.15	0	1.5146	0.00032
298.15	0.0501	1.50499	0.00032
298.15	0.1	1.49617	0.00032
298.15	0.15	1.48807	0.00032
298.15	0.2004	1.48051	0.00032
298.15	0.2499	1.47362	0.00032
298.15	0.3	1.46716	0.00032
298.15	0.35	1.46116	0.00032
298.15	0.3997	1.4556	0.00032
298.15	0.4499	1.45034	0.00032
298.15	0.5001	1.44544	0.00032
298.15	0.5499	1.44089	0.00032
298.15	0.6	1.43657	0.00032
298.15	0.6499	1.43252	0.00032
298.15	0.6999	1.4287	0.00032
298.15	0.7499	1.4251	0.00032
298.15	0.8	1.42166	0.00032
298.15	0.8499	1.41846	0.00032
298.15	0.8998	1.4154	0.00032
298.15	0.9499	1.41251	0.00032
298.15	1	1.4097	0.00032
303.15	0	1.51191	0.00032
303.15	0.0501	1.50234	0.00032
303.15	0.1	1.49356	0.00032
303.15	0.15	1.48543	0.00032
303.15	0.2004	1.47786	0.00032
303.15	0.2499	1.47098	0.00032
303.15	0.3	1.4645	0.00032
303.15	0.35	1.45851	0.00032
303.15	0.3997	1.45295	0.00032
303.15	0.4499	1.4477	0.00032
303.15	0.5001	1.44279	0.00032
303.15	0.5499	1.43823	0.00032
303.15	0.6	1.43393	0.00032
303.15	0.6499	1.42986	0.00032
303.15	0.6999	1.42604	0.00032
303.15	0.7499	1.42244	0.00032
303.15	0.8	1.41901	0.00032
303.15	0.8499	1.4158	0.00032
303.15	0.8998	1.41277	0.00032
303.15	0.9499	1.40987	0.00032
303.15	1	1.40707	0.00032

System: ethylbenzene + 1,3-diethenyl-1,1,3,3-tetramethyldisiloxane; phases: Liquid
Fixed: Pressure, kPa = 101
Property: Mass density, kg/m3 (Liquid); method: Vibrating tube method
Temperature, K	Mole fraction of 1,3-diethenyl-1,1,3,3-tetramethyldisiloxane	Mass density, kg/m3	uncertainty
283.15	0	875.69	1.01
283.15	0.0501	871.7	1.01
283.15	0.1001	867.93	1.01
283.15	0.1499	864.35	1.01
283.15	0.2001	860.93	1.01
283.15	0.25	857.68	1.01
283.15	0.3	854.59	1.01
283.15	0.3499	851.64	1.01
283.15	0.4	848.82	1.01
283.15	0.4501	846.13	1.01
283.15	0.5	843.56	1.01
283.15	0.5503	841.09	1.01
283.15	0.6	838.73	1.01
283.15	0.6501	836.45	1.01
283.15	0.6999	834.3	1.01
283.15	0.7502	832.18	1.01
283.15	0.8001	830.16	1.01
283.15	0.85	828.22	1.01
283.15	0.8999	826.37	1.01
283.15	0.9498	824.65	1.01
283.15	1	822.79	1.01
288.15	0	871.3	1.01
288.15	0.0501	867.28	1.01
288.15	0.1001	863.46	1.01
288.15	0.1499	859.85	1.01
288.15	0.2001	856.41	1.01
288.15	0.25	853.12	1.01
288.15	0.3	850	1.01
288.15	0.3499	847.02	1.01
288.15	0.4	844.17	1.01
288.15	0.4501	841.46	1.01
288.15	0.5	838.86	1.01
288.15	0.5503	836.39	1.01
288.15	0.6	834.01	1.01
288.15	0.6501	831.7	1.01
288.15	0.6999	829.53	1.01
288.15	0.7502	827.39	1.01
288.15	0.8001	825.33	1.01
288.15	0.85	823.42	1.01
288.15	0.8999	821.53	1.01
288.15	0.9498	819.79	1.01
288.15	1	817.88	1.01
293.15	0	866.9	1.01
293.15	0.0501	862.84	1.01
293.15	0.1001	858.98	1.01
293.15	0.1499	855.33	1.01
293.15	0.2001	851.85	1.01
293.15	0.25	848.52	1.01
293.15	0.3	845.38	1.01
293.15	0.3499	842.37	1.01
293.15	0.4	839.49	1.01
293.15	0.4501	836.76	1.01
293.15	0.5	834.13	1.01
293.15	0.5503	831.62	1.01
293.15	0.6	829.22	1.01
293.15	0.6501	826.89	1.01
293.15	0.6999	824.71	1.01
293.15	0.7502	822.55	1.01
293.15	0.8001	820.48	1.01
293.15	0.85	818.54	1.01
293.15	0.8999	816.65	1.01
293.15	0.9498	814.89	1.01
293.15	1	812.97	1.01
298.15	0	862.58	1.01
298.15	0.0501	858.47	1.01
298.15	0.1001	854.58	1.01
298.15	0.1499	850.89	1.01
298.15	0.2001	847.37	1.01
298.15	0.25	844.02	1.01
298.15	0.3	840.85	1.01
298.15	0.3499	837.8	1.01
298.15	0.4	834.91	1.01
298.15	0.4501	832.14	1.01
298.15	0.5	829.5	1.01
298.15	0.5503	826.96	1.01
298.15	0.6	824.53	1.01
298.15	0.6501	822.19	1.01
298.15	0.6999	819.97	1.01
298.15	0.7502	817.79	1.01
298.15	0.8001	815.7	1.01
298.15	0.85	813.71	1.01
298.15	0.8999	811.81	1.01
298.15	0.9498	810.02	1.01
298.15	1	808.11	1.01
303.15	0	858.16	1.01
303.15	0.0501	854.01	1.01
303.15	0.1001	850.08	1.01
303.15	0.1499	846.35	1.01
303.15	0.2001	842.8	1.01
303.15	0.25	839.42	1.01
303.15	0.3	836.21	1.01
303.15	0.3499	833.13	1.01
303.15	0.4	830.22	1.01
303.15	0.4501	827.42	1.01
303.15	0.5	824.76	1.01
303.15	0.5503	822.2	1.01
303.15	0.6	819.75	1.01
303.15	0.6501	817.38	1.01
303.15	0.6999	815.14	1.01
303.15	0.7502	812.94	1.01
303.15	0.8001	810.84	1.01
303.15	0.85	808.83	1.01
303.15	0.8999	806.91	1.01
303.15	0.9498	805.11	1.01
303.15	1	803.18	1.01

System: ethylbenzene + 1,3-diethenyl-1,1,3,3-tetramethyldisiloxane; phases: Liquid
Fixed: Pressure, kPa = 101
Property: Refractive index (Na D-line) (Liquid); method: Standard Abbe refractometry
Temperature, K	Mole fraction of 1,3-diethenyl-1,1,3,3-tetramethyldisiloxane	Refractive index (Na D-line)	uncertainty
283.15	0	1.50118	0.00032
283.15	0.0501	1.49399	0.00032
283.15	0.1001	1.48737	0.00032
283.15	0.1499	1.48124	0.00032
283.15	0.2001	1.47548	0.00032
283.15	0.25	1.47011	0.00032
283.15	0.3	1.46506	0.00032
283.15	0.3499	1.46032	0.00032
283.15	0.4	1.45589	0.00032
283.15	0.4501	1.45171	0.00032
283.15	0.5	1.44774	0.00032
283.15	0.5503	1.44396	0.00032
283.15	0.6	1.44044	0.00032
283.15	0.6501	1.43706	0.00032
283.15	0.6999	1.43392	0.00032
283.15	0.7502	1.43084	0.00032
283.15	0.8001	1.42794	0.00032
283.15	0.85	1.42518	0.00032
283.15	0.8999	1.42257	0.00032
283.15	0.9498	1.42013	0.00032
283.15	1	1.41762	0.00032
288.15	0	1.49845	0.00032
288.15	0.0501	1.49133	0.00032
288.15	0.1001	1.48473	0.00032
288.15	0.1499	1.47856	0.00032
288.15	0.2001	1.47282	0.00032
288.15	0.25	1.46746	0.00032
288.15	0.3	1.46243	0.00032
288.15	0.3499	1.45769	0.00032
288.15	0.4	1.45324	0.00032
288.15	0.4501	1.44905	0.00032
288.15	0.5	1.44509	0.00032
288.15	0.5503	1.44135	0.00032
288.15	0.6	1.43779	0.00032
288.15	0.6501	1.43444	0.00032
288.15	0.6999	1.43128	0.00032
288.15	0.7502	1.4282	0.00032
288.15	0.8001	1.42531	0.00032
288.15	0.85	1.42258	0.00032
288.15	0.8999	1.41995	0.00032
288.15	0.9498	1.41752	0.00032
288.15	1	1.41498	0.00032
293.15	0	1.49575	0.00032
293.15	0.0501	1.48864	0.00032
293.15	0.1001	1.48204	0.00032
293.15	0.1499	1.47587	0.00032
293.15	0.2001	1.47013	0.00032
293.15	0.25	1.46476	0.00032
293.15	0.3	1.45974	0.00032
293.15	0.3499	1.45502	0.00032
293.15	0.4	1.45057	0.00032
293.15	0.4501	1.44639	0.00032
293.15	0.5	1.44243	0.00032
293.15	0.5503	1.43866	0.00032
293.15	0.6	1.43514	0.00032
293.15	0.6501	1.43177	0.00032
293.15	0.6999	1.4286	0.00032
293.15	0.7502	1.42555	0.00032
293.15	0.8001	1.42264	0.00032
293.15	0.85	1.41991	0.00032
293.15	0.8999	1.41729	0.00032
293.15	0.9498	1.41486	0.00032
293.15	1	1.41232	0.00032
298.15	0	1.49301	0.00032
298.15	0.0501	1.48591	0.00032
298.15	0.1001	1.47931	0.00032
298.15	0.1499	1.47319	0.00032
298.15	0.2001	1.46745	0.00032
298.15	0.25	1.46206	0.00032
298.15	0.3	1.45705	0.00032
298.15	0.3499	1.45233	0.00032
298.15	0.4	1.44786	0.00032
298.15	0.4501	1.44368	0.00032
298.15	0.5	1.43975	0.00032
298.15	0.5503	1.43599	0.00032
298.15	0.6	1.43246	0.00032
298.15	0.6501	1.42909	0.00032
298.15	0.6999	1.42594	0.00032
298.15	0.7502	1.42288	0.00032
298.15	0.8001	1.41999	0.00032
298.15	0.85	1.41723	0.00032
298.15	0.8999	1.41464	0.00032
298.15	0.9498	1.41219	0.00032
298.15	1	1.40969	0.00032
303.15	0	1.4903	0.00032
303.15	0.0501	1.48318	0.00032
303.15	0.1001	1.4766	0.00032
303.15	0.1499	1.47044	0.00032
303.15	0.2001	1.46472	0.00032
303.15	0.25	1.45934	0.00032
303.15	0.3	1.45432	0.00032
303.15	0.3499	1.4496	0.00032
303.15	0.4	1.44516	0.00032
303.15	0.4501	1.44097	0.00032
303.15	0.5	1.43705	0.00032
303.15	0.5503	1.43331	0.00032
303.15	0.6	1.42979	0.00032
303.15	0.6501	1.42643	0.00032
303.15	0.6999	1.42325	0.00032
303.15	0.7502	1.42022	0.00032
303.15	0.8001	1.41732	0.00032
303.15	0.85	1.41458	0.00032
303.15	0.8999	1.41198	0.00032
303.15	0.9498	1.40954	0.00032
303.15	1	1.40704	0.00032

System: chlorobenzene + 1,3-diethenyl-1,1,3,3-tetramethyldisiloxane; phases: Liquid
Fixed: Pressure, kPa = 101
Property: Mass density, kg/m3 (Liquid); method: Vibrating tube method
Temperature, K	Mole fraction of 1,3-diethenyl-1,1,3,3-tetramethyldisiloxane	Mass density, kg/m3	uncertainty
283.15	0	1117.29	1.01
283.15	0.05	1088.46	1.02
283.15	0.0998	1062.49	1.01
283.15	0.15	1038.61	1.01
283.15	0.1996	1017.1	1.01
283.15	0.25	997.1	1.01
283.15	0.2999	978.91	1.01
283.15	0.35	962.04	1.01
283.15	0.3999	946.48	1.01
283.15	0.4496	932.12	1.01
283.15	0.4999	918.61	1.01
283.15	0.5499	906.09	1.01
283.15	0.6	894.37	1.01
283.15	0.6469	884.06	1.01
283.15	0.6998	873.18	1.01
283.15	0.7499	863.47	1.01
283.15	0.7997	854.39	1.01
283.15	0.8499	845.78	1.01
283.15	0.8996	837.7	1.01
283.15	0.9497	830	1.01
283.15	1	822.68	1.01
288.15	0	1111.89	1.01
288.15	0.05	1083.08	1.01
288.15	0.0998	1057.12	1.01
288.15	0.15	1033.26	1.01
288.15	0.1996	1011.78	1.01
288.15	0.25	991.8	1.01
288.15	0.2999	973.63	1.01
288.15	0.35	956.8	1.01
288.15	0.3999	941.25	1.01
288.15	0.4496	926.93	1.01
288.15	0.4999	913.45	1.01
288.15	0.5499	900.94	1.01
288.15	0.6	889.27	1.01
288.15	0.6469	878.98	1.01
288.15	0.6998	868.11	1.01
288.15	0.7499	858.44	1.01
288.15	0.7997	849.39	1.01
288.15	0.8499	840.8	1.01
288.15	0.8996	832.75	1.01
288.15	0.9497	825.08	1.01
288.15	1	817.77	1.01
293.15	0	1106.55	1.01
293.15	0.05	1077.71	1.01
293.15	0.0998	1051.77	1.01
293.15	0.15	1027.97	1.01
293.15	0.1996	1006.49	1.01
293.15	0.25	986.55	1.01
293.15	0.2999	968.41	1.01
293.15	0.35	951.57	1.01
293.15	0.3999	936.1	1.01
293.15	0.4496	921.78	1.01
293.15	0.4999	908.32	1.01
293.15	0.5499	895.84	1.01
293.15	0.6	884.19	1.01
293.15	0.6469	873.94	1.01
293.15	0.6998	863.11	1.01
293.15	0.7499	853.45	1.01
293.15	0.7997	844.44	1.01
293.15	0.8499	835.87	1.01
293.15	0.8996	827.85	1.01
293.15	0.9497	820.22	1.01
293.15	1	812.94	1.01
298.15	0	1101.16	1.01
298.15	0.05	1072.36	1.01
298.15	0.0998	1046.38	1.01
298.15	0.15	1022.56	1.01
298.15	0.1996	1001.12	1.01
298.15	0.25	981.23	1.01
298.15	0.2999	963.12	1.01
298.15	0.35	946.3	1.01
298.15	0.3999	930.87	1.01
298.15	0.4496	916.57	1.01
298.15	0.4999	903.14	1.01
298.15	0.5499	890.68	1.01
298.15	0.6	879.04	1.01
298.15	0.6469	868.82	1.01
298.15	0.6998	858.02	1.01
298.15	0.7499	848.41	1.01
298.15	0.7997	839.42	1.01
298.15	0.8499	830.88	1.01
298.15	0.8996	822.88	1.01
298.15	0.9497	815.27	1.01
298.15	1	808.01	1.01
303.15	0	1095.79	1.01
303.15	0.05	1066.76	1.01
303.15	0.0998	1040.76	1.01
303.15	0.15	1017.01	1.01
303.15	0.1996	995.49	1.01
303.15	0.25	975.62	1.01
303.15	0.2999	957.62	1.01
303.15	0.35	940.79	1.01
303.15	0.3999	925.47	1.01
303.15	0.4496	911.17	1.01
303.15	0.4999	897.77	1.01
303.15	0.5499	885.33	1.01
303.15	0.6	873.73	1.01
303.15	0.6469	863.55	1.01
303.15	0.6998	852.81	1.01
303.15	0.7499	843.25	1.01
303.15	0.7997	834.3	1.01
303.15	0.8499	825.82	1.01
303.15	0.8996	817.86	1.01
303.15	0.9497	810.3	1.01
303.15	1	803.06	1.01

System: chlorobenzene + 1,3-diethenyl-1,1,3,3-tetramethyldisiloxane; phases: Liquid
Fixed: Pressure, kPa = 101
Property: Refractive index (Na D-line) (Liquid); method: Standard Abbe refractometry
Temperature, K	Mole fraction of 1,3-diethenyl-1,1,3,3-tetramethyldisiloxane	Refractive index (Na D-line)	uncertainty
283.15	0	1.52992	0.00032
283.15	0.05	1.51909	0.00032
283.15	0.0998	1.50933	0.00032
283.15	0.15	1.50029	0.00032
283.15	0.1996	1.49216	0.00032
283.15	0.25	1.4846	0.00032
283.15	0.2999	1.47766	0.00032
283.15	0.35	1.47122	0.00032
283.15	0.3999	1.46527	0.00032
283.15	0.4496	1.45981	0.00032
283.15	0.4999	1.45464	0.00032
283.15	0.5499	1.44985	0.00032
283.15	0.6	1.44533	0.00032
283.15	0.6469	1.44138	0.00032
283.15	0.6998	1.43721	0.00032
283.15	0.7499	1.43345	0.00032
283.15	0.7997	1.42994	0.00032
283.15	0.8499	1.42661	0.00032
283.15	0.8996	1.4235	0.00032
283.15	0.9497	1.4205	0.00032
283.15	1	1.41767	0.00032
288.15	0	1.52722	0.00032
288.15	0.05	1.51642	0.00032
288.15	0.0998	1.5066	0.00032
288.15	0.15	1.49759	0.00032
288.15	0.1996	1.48946	0.00032
288.15	0.25	1.48187	0.00032
288.15	0.2999	1.47495	0.00032
288.15	0.35	1.46854	0.00032
288.15	0.3999	1.46262	0.00032
288.15	0.4496	1.45712	0.00032
288.15	0.4999	1.45197	0.00032
288.15	0.5499	1.44716	0.00032
288.15	0.6	1.44268	0.00032
288.15	0.6469	1.4387	0.00032
288.15	0.6998	1.43455	0.00032
288.15	0.7499	1.4308	0.00032
288.15	0.7997	1.42729	0.00032
288.15	0.8499	1.42395	0.00032
288.15	0.8996	1.42083	0.00032
288.15	0.9497	1.41785	0.00032
288.15	1	1.415	0.00032
293.15	0	1.52446	0.00032
293.15	0.05	1.51366	0.00032
293.15	0.0998	1.50385	0.00032
293.15	0.15	1.49487	0.00032
293.15	0.1996	1.48671	0.00032
293.15	0.25	1.47913	0.00032
293.15	0.2999	1.47223	0.00032
293.15	0.35	1.46582	0.00032
293.15	0.3999	1.4599	0.00032
293.15	0.4496	1.45441	0.00032
293.15	0.4999	1.44926	0.00032
293.15	0.5499	1.44446	0.00032
293.15	0.6	1.43999	0.00032
293.15	0.6469	1.43603	0.00032
293.15	0.6998	1.43185	0.00032
293.15	0.7499	1.42812	0.00032
293.15	0.7997	1.42463	0.00032
293.15	0.8499	1.42129	0.00032
293.15	0.8996	1.41817	0.00032
293.15	0.9497	1.4152	0.00032
293.15	1	1.41237	0.00032
298.15	0	1.52168	0.00032
298.15	0.05	1.51088	0.00032
298.15	0.0998	1.50103	0.00032
298.15	0.15	1.492	0.00032
298.15	0.1996	1.48389	0.00032
298.15	0.25	1.47637	0.00032
298.15	0.2999	1.46943	0.00032
298.15	0.35	1.46303	0.00032
298.15	0.3999	1.45712	0.00032
298.15	0.4496	1.45167	0.00032
298.15	0.4999	1.4465	0.00032
298.15	0.5499	1.4417	0.00032
298.15	0.6	1.43722	0.00032
298.15	0.6469	1.43329	0.00032
298.15	0.6998	1.42911	0.00032
298.15	0.7499	1.42542	0.00032
298.15	0.7997	1.42193	0.00032
298.15	0.8499	1.41862	0.00032
298.15	0.8996	1.4155	0.00032
298.15	0.9497	1.41257	0.00032
298.15	1	1.40973	0.00032
303.15	0	1.51893	0.00032
303.15	0.05	1.50802	0.00032
303.15	0.0998	1.49821	0.00032
303.15	0.15	1.48923	0.00032
303.15	0.1996	1.48103	0.00032
303.15	0.25	1.47349	0.00032
303.15	0.2999	1.46663	0.00032
303.15	0.35	1.46019	0.00032
303.15	0.3999	1.45432	0.00032
303.15	0.4496	1.44883	0.00032
303.15	0.4999	1.4437	0.00032
303.15	0.5499	1.43891	0.00032
303.15	0.6	1.43446	0.00032
303.15	0.6469	1.43053	0.00032
303.15	0.6998	1.42638	0.00032
303.15	0.7499	1.4227	0.00032
303.15	0.7997	1.41923	0.00032
303.15	0.8499	1.41593	0.00032
303.15	0.8996	1.41283	0.00032
303.15	0.9497	1.40991	0.00032
303.15	1	1.40708	0.00032

System: fluorobenzene + 1,3-diethenyl-1,1,3,3-tetramethyldisiloxane; phases: Liquid
Fixed: Pressure, kPa = 101
Property: Mass density, kg/m3 (Liquid); method: Vibrating tube method
Temperature, K	Mole fraction of 1,3-diethenyl-1,1,3,3-tetramethyldisiloxane	Mass density, kg/m3	uncertainty
283.15	0	1036.89	1.01
283.15	0.05	1013.6	1.01
283.15	0.1	992.96	1.01
283.15	0.15	974.59	1.01
283.15	0.1993	958.3	1.01
283.15	0.25	943.25	1.01
283.15	0.2999	929.85	1.01
283.15	0.35	917.58	1.01
283.15	0.4	906.43	1.01
283.15	0.45	896.19	1.01
283.15	0.5	886.76	1.01
283.15	0.5501	878.08	1.01
283.15	0.6	870.07	1.01
283.15	0.6501	862.6	1.01
283.15	0.7	855.69	1.01
283.15	0.7501	849.23	1.01
283.15	0.8	843.23	1.01
283.15	0.85	837.56	1.01
283.15	0.8998	832.28	1.01
283.15	0.95	827.28	1.01
283.15	1	822.56	1.01
288.15	0	1030.93	1.01
288.15	0.05	1007.66	1.01
288.15	0.1	987.08	1.01
288.15	0.15	968.74	1.01
288.15	0.1993	952.51	1.01
288.15	0.25	937.46	1.01
288.15	0.2999	924.19	1.01
288.15	0.35	911.93	1.01
288.15	0.4	900.85	1.01
288.15	0.45	890.66	1.01
288.15	0.5	881.29	1.01
288.15	0.5501	872.69	1.01
288.15	0.6	864.73	1.01
288.15	0.6501	857.33	1.01
288.15	0.7	850.46	1.01
288.15	0.7501	844.06	1.01
288.15	0.8	838.1	1.01
288.15	0.85	832.51	1.01
288.15	0.8998	827.28	1.01
288.15	0.95	822.33	1.01
288.15	1	817.66	1.01
293.15	0	1024.96	1.01
293.15	0.05	1001.73	1.01
293.15	0.1	981.21	1.01
293.15	0.15	962.94	1.01
293.15	0.1993	946.77	1.01
293.15	0.25	931.8	1.01
293.15	0.2999	918.57	1.01
293.15	0.35	906.37	1.01
293.15	0.4	895.33	1.01
293.15	0.45	885.22	1.01
293.15	0.5	875.91	1.01
293.15	0.5501	867.38	1.01
293.15	0.6	859.45	1.01
293.15	0.6501	852.11	1.01
293.15	0.7	845.29	1.01
293.15	0.7501	838.93	1.01
293.15	0.8	833.02	1.01
293.15	0.85	827.46	1.01
293.15	0.8998	822.3	1.01
293.15	0.95	817.38	1.01
293.15	1	812.74	1.01
298.15	0	1019.07	1.01
298.15	0.05	995.86	1.01
298.15	0.1	975.37	1.01
298.15	0.15	957.17	1.01
298.15	0.1993	941.03	1.01
298.15	0.25	926.13	1.01
298.15	0.2999	913	1.01
298.15	0.35	900.84	1.01
298.15	0.4	889.86	1.01
298.15	0.45	879.75	1.01
298.15	0.5	870.51	1.01
298.15	0.5501	862.04	1.01
298.15	0.6	854.19	1.01
298.15	0.6501	846.89	1.01
298.15	0.7	840.15	1.01
298.15	0.7501	833.84	1.01
298.15	0.8	827.99	1.01
298.15	0.85	822.49	1.01
298.15	0.8998	817.36	1.01
298.15	0.95	812.49	1.01
298.15	1	807.9	1.01
303.15	0	1013.03	1.01
303.15	0.05	989.74	1.01
303.15	0.1	969.31	1.01
303.15	0.15	951.1	1.01
303.15	0.1993	934.98	1.01
303.15	0.25	920.12	1.01
303.15	0.2999	907.17	1.01
303.15	0.35	895	1.01
303.15	0.4	884.09	1.01
303.15	0.45	874.12	1.01
303.15	0.5	864.97	1.01
303.15	0.5501	856.56	1.01
303.15	0.6	848.77	1.01
303.15	0.6501	841.53	1.01
303.15	0.7	834.87	1.01
303.15	0.7501	828.63	1.01
303.15	0.8	822.84	1.01
303.15	0.85	817.39	1.01
303.15	0.8998	812.32	1.01
303.15	0.95	807.52	1.01
303.15	1	802.97	1.01

System: fluorobenzene + 1,3-diethenyl-1,1,3,3-tetramethyldisiloxane; phases: Liquid
Fixed: Pressure, kPa = 101
Property: Refractive index (Na D-line) (Liquid); method: Standard Abbe refractometry
Temperature, K	Mole fraction of 1,3-diethenyl-1,1,3,3-tetramethyldisiloxane	Refractive index (Na D-line)	uncertainty
283.15	0	1.47152	0.00032
283.15	0.05	1.46591	0.00032
283.15	0.1	1.46088	0.00032
283.15	0.15	1.45637	0.00032
283.15	0.1993	1.45237	0.00032
283.15	0.25	1.44858	0.00032
283.15	0.2999	1.44521	0.00032
283.15	0.35	1.44212	0.00032
283.15	0.4	1.43929	0.00032
283.15	0.45	1.43671	0.00032
283.15	0.5	1.43427	0.00032
283.15	0.5501	1.43205	0.00032
283.15	0.6	1.42996	0.00032
283.15	0.6501	1.42804	0.00032
283.15	0.7	1.42627	0.00032
283.15	0.7501	1.42458	0.00032
283.15	0.8	1.42302	0.00032
283.15	0.85	1.42152	0.00032
283.15	0.8998	1.42015	0.00032
283.15	0.95	1.41882	0.00032
283.15	1	1.41758	0.00032
288.15	0	1.46859	0.00032
288.15	0.05	1.46302	0.00032
288.15	0.1	1.45799	0.00032
288.15	0.15	1.45349	0.00032
288.15	0.1993	1.44949	0.00032
288.15	0.25	1.44572	0.00032
288.15	0.2999	1.44238	0.00032
288.15	0.35	1.43928	0.00032
288.15	0.4	1.43648	0.00032
288.15	0.45	1.4339	0.00032
288.15	0.5	1.43147	0.00032
288.15	0.5501	1.42925	0.00032
288.15	0.6	1.42721	0.00032
288.15	0.6501	1.4253	0.00032
288.15	0.7	1.42353	0.00032
288.15	0.7501	1.42185	0.00032
288.15	0.8	1.42031	0.00032
288.15	0.85	1.41883	0.00032
288.15	0.8998	1.41747	0.00032
288.15	0.95	1.41617	0.00032
288.15	1	1.41493	0.00032
293.15	0	1.46571	0.00032
293.15	0.05	1.4601	0.00032
293.15	0.1	1.4551	0.00032
293.15	0.15	1.45063	0.00032
293.15	0.1993	1.44664	0.00032
293.15	0.25	1.44288	0.00032
293.15	0.2999	1.43954	0.00032
293.15	0.35	1.43649	0.00032
293.15	0.4	1.43368	0.00032
293.15	0.45	1.43109	0.00032
293.15	0.5	1.42871	0.00032
293.15	0.5501	1.42651	0.00032
293.15	0.6	1.42446	0.00032
293.15	0.6501	1.42257	0.00032
293.15	0.7	1.4208	0.00032
293.15	0.7501	1.41913	0.00032
293.15	0.8	1.41762	0.00032
293.15	0.85	1.41615	0.00032
293.15	0.8998	1.4148	0.00032
293.15	0.95	1.41352	0.00032
293.15	1	1.41227	0.00032
298.15	0	1.46283	0.00032
298.15	0.05	1.45724	0.00032
298.15	0.1	1.45222	0.00032
298.15	0.15	1.44775	0.00032
298.15	0.1993	1.44378	0.00032
298.15	0.25	1.44002	0.00032
298.15	0.2999	1.43671	0.00032
298.15	0.35	1.43366	0.00032
298.15	0.4	1.43086	0.00032
298.15	0.45	1.42829	0.00032
298.15	0.5	1.42592	0.00032
298.15	0.5501	1.42374	0.00032
298.15	0.6	1.42171	0.00032
298.15	0.6501	1.41982	0.00032
298.15	0.7	1.41808	0.00032
298.15	0.7501	1.41642	0.00032
298.15	0.8	1.41493	0.00032
298.15	0.85	1.41349	0.00032
298.15	0.8998	1.41213	0.00032
298.15	0.95	1.41087	0.00032
298.15	1	1.40963	0.00032
303.15	0	1.45989	0.00032
303.15	0.05	1.45427	0.00032
303.15	0.1	1.44927	0.00032
303.15	0.15	1.44482	0.00032
303.15	0.1993	1.44083	0.00032
303.15	0.25	1.43708	0.00032
303.15	0.2999	1.43382	0.00032
303.15	0.35	1.43075	0.00032
303.15	0.4	1.42798	0.00032
303.15	0.45	1.42546	0.00032
303.15	0.5	1.42309	0.00032
303.15	0.5501	1.42092	0.00032
303.15	0.6	1.41891	0.00032
303.15	0.6501	1.41705	0.00032
303.15	0.7	1.41532	0.00032
303.15	0.7501	1.41369	0.00032
303.15	0.8	1.41219	0.00032
303.15	0.85	1.4108	0.00032
303.15	0.8998	1.40945	0.00032
303.15	0.95	1.40819	0.00032
303.15	1	1.40695	0.00032

System: nitrobenzene + 1,3-diethenyl-1,1,3,3-tetramethyldisiloxane; phases: Liquid
Fixed: Pressure, kPa = 101
Property: Mass density, kg/m3 (Liquid); method: Vibrating tube method
Temperature, K	Mole fraction of 1,3-diethenyl-1,1,3,3-tetramethyldisiloxane	Mass density, kg/m3	uncertainty
283.15	0	1212.99	1.01
283.15	0.05	1176.35	1.02
283.15	0.1	1142.71	1.02
283.15	0.15	1111.83	1.02
283.15	0.2	1083.35	1.01
283.15	0.25	1057.23	1.01
283.15	0.3	1033.06	1.01
283.15	0.3508	1010.38	1.01
283.15	0.4001	989.98	1.01
283.15	0.4501	970.75	1.01
283.15	0.4999	952.93	1.01
283.15	0.55	936.17	1.01
283.15	0.6001	920.46	1.01
283.15	0.6487	906.15	1.01
283.15	0.6999	891.87	1.01
283.15	0.7499	878.8	1.01
283.15	0.7999	866.41	1.01
283.15	0.8497	854.66	1.01
283.15	0.9	843.43	1.01
283.15	0.9499	832.79	1.01
283.15	1	822.64	1.01
288.15	0	1208.01	1.01
288.15	0.05	1171.43	1.02
288.15	0.1	1137.83	1.02
288.15	0.15	1106.98	1.01
288.15	0.2	1078.52	1.01
288.15	0.25	1052.41	1.01
288.15	0.3	1028.23	1.01
288.15	0.3508	1005.54	1.01
288.15	0.4001	985.14	1.01
288.15	0.4501	965.91	1.01
288.15	0.4999	948.07	1.01
288.15	0.55	931.3	1.01
288.15	0.6001	915.57	1.01
288.15	0.6487	901.26	1.01
288.15	0.6999	887	1.01
288.15	0.7499	873.92	1.01
288.15	0.7999	861.51	1.01
288.15	0.8497	849.77	1.01
288.15	0.9	838.53	1.01
288.15	0.9499	827.88	1.01
288.15	1	817.73	1.01
293.15	0	1203.05	1.01
293.15	0.05	1166.52	1.02
293.15	0.1	1132.97	1.02
293.15	0.15	1102.13	1.01
293.15	0.2	1073.67	1.01
293.15	0.25	1047.57	1.01
293.15	0.3	1023.4	1.01
293.15	0.3508	1000.74	1.01
293.15	0.4001	980.32	1.01
293.15	0.4501	961.08	1.01
293.15	0.4999	943.22	1.01
293.15	0.55	926.44	1.01
293.15	0.6001	910.7	1.01
293.15	0.6487	896.39	1.01
293.15	0.6999	882.12	1.01
293.15	0.7499	869.03	1.01
293.15	0.7999	856.6	1.01
293.15	0.8497	844.87	1.01
293.15	0.9	833.62	1.01
293.15	0.9499	822.98	1.01
293.15	1	812.82	1.01
298.15	0	1198.2	1.01
298.15	0.05	1161.69	1.02
298.15	0.1	1128.22	1.02
298.15	0.15	1097.43	1.01
298.15	0.2	1068.96	1.01
298.15	0.25	1042.87	1.01
298.15	0.3	1018.69	1.01
298.15	0.3508	996.01	1.01
298.15	0.4001	975.57	1.01
298.15	0.4501	956.32	1.01
298.15	0.4999	938.45	1.01
298.15	0.55	921.66	1.01
298.15	0.6001	905.91	1.01
298.15	0.6487	891.58	1.01
298.15	0.6999	877.3	1.01
298.15	0.7499	864.21	1.01
298.15	0.7999	851.77	1.01
298.15	0.8497	840.06	1.01
298.15	0.9	828.8	1.01
298.15	0.9499	818.14	1.01
298.15	1	807.98	1.01
303.15	0	1193.25	1.01
303.15	0.05	1156.82	1.02
303.15	0.1	1123.45	1.01
303.15	0.15	1092.67	1.01
303.15	0.2	1064.2	1.01
303.15	0.25	1038.12	1.01
303.15	0.3	1013.92	1.01
303.15	0.3508	991.23	1.01
303.15	0.4001	970.77	1.01
303.15	0.4501	951.52	1.01
303.15	0.4999	933.61	1.01
303.15	0.55	916.81	1.01
303.15	0.6001	901.03	1.01
303.15	0.6487	886.71	1.01
303.15	0.6999	872.42	1.01
303.15	0.7499	859.31	1.01
303.15	0.7999	846.84	1.01
303.15	0.8497	835.12	1.01
303.15	0.9	823.86	1.01
303.15	0.9499	813.2	1.01
303.15	1	803.03	1.01

System: nitrobenzene + 1,3-diethenyl-1,1,3,3-tetramethyldisiloxane; phases: Liquid
Fixed: Pressure, kPa = 101
Property: Refractive index (Na D-line) (Liquid); method: Standard Abbe refractometry
Temperature, K	Mole fraction of 1,3-diethenyl-1,1,3,3-tetramethyldisiloxane	Refractive index (Na D-line)	uncertainty
283.15	0	1.55729	0.00031
283.15	0.05	1.54466	0.00032
283.15	0.1	1.53289	0.00032
283.15	0.15	1.52202	0.00032
283.15	0.2	1.51193	0.00032
283.15	0.25	1.50266	0.00032
283.15	0.3	1.49408	0.00032
283.15	0.3508	1.48595	0.00032
283.15	0.4001	1.47862	0.00032
283.15	0.4501	1.4717	0.00032
283.15	0.4999	1.46522	0.00032
283.15	0.55	1.45917	0.00032
283.15	0.6001	1.45344	0.00032
283.15	0.6487	1.44824	0.00032
283.15	0.6999	1.44306	0.00032
283.15	0.7499	1.43821	0.00032
283.15	0.7999	1.4337	0.00032
283.15	0.8497	1.42937	0.00032
283.15	0.9	1.42527	0.00032
283.15	0.9499	1.42134	0.00032
283.15	1	1.4176	0.00032
288.15	0	1.55485	0.00031
288.15	0.05	1.54219	0.00032
288.15	0.1	1.53042	0.00032
288.15	0.15	1.51955	0.00032
288.15	0.2	1.50945	0.00032
288.15	0.25	1.50017	0.00032
288.15	0.3	1.49154	0.00032
288.15	0.3508	1.48341	0.00032
288.15	0.4001	1.47608	0.00032
288.15	0.4501	1.46914	0.00032
288.15	0.4999	1.46267	0.00032
288.15	0.55	1.45661	0.00032
288.15	0.6001	1.45088	0.00032
288.15	0.6487	1.44565	0.00032
288.15	0.6999	1.44044	0.00032
288.15	0.7499	1.43565	0.00032
288.15	0.7999	1.43109	0.00032
288.15	0.8497	1.42677	0.00032
288.15	0.9	1.42262	0.00032
288.15	0.9499	1.4187	0.00032
288.15	1	1.41495	0.00032
293.15	0	1.55234	0.00031
293.15	0.05	1.5397	0.00032
293.15	0.1	1.52796	0.00032
293.15	0.15	1.51705	0.00032
293.15	0.2	1.50694	0.00032
293.15	0.25	1.49764	0.00032
293.15	0.3	1.48901	0.00032
293.15	0.3508	1.48085	0.00032
293.15	0.4001	1.47352	0.00032
293.15	0.4501	1.46659	0.00032
293.15	0.4999	1.46009	0.00032
293.15	0.55	1.45401	0.00032
293.15	0.6001	1.4483	0.00032
293.15	0.6487	1.44307	0.00032
293.15	0.6999	1.43784	0.00032
293.15	0.7499	1.43306	0.00032
293.15	0.7999	1.42845	0.00032
293.15	0.8497	1.42414	0.00032
293.15	0.9	1.41999	0.00032
293.15	0.9499	1.41606	0.00032
293.15	1	1.41227	0.00032
298.15	0	1.54992	0.00031
298.15	0.05	1.53724	0.00032
298.15	0.1	1.52547	0.00032
298.15	0.15	1.51459	0.00032
298.15	0.2	1.50445	0.00032
298.15	0.25	1.49511	0.00032
298.15	0.3	1.48643	0.00032
298.15	0.3508	1.47825	0.00032
298.15	0.4001	1.47089	0.00032
298.15	0.4501	1.46395	0.00032
298.15	0.4999	1.45748	0.00032
298.15	0.55	1.45139	0.00032
298.15	0.6001	1.44568	0.00032
298.15	0.6487	1.44043	0.00032
298.15	0.6999	1.43521	0.00032
298.15	0.7499	1.43043	0.00032
298.15	0.7999	1.42584	0.00032
298.15	0.8497	1.42152	0.00032
298.15	0.9	1.41736	0.00032
298.15	0.9499	1.41343	0.00032
298.15	1	1.40965	0.00032
303.15	0	1.54746	0.00031
303.15	0.05	1.5348	0.00032
303.15	0.1	1.52302	0.00032
303.15	0.15	1.51211	0.00032
303.15	0.2	1.50196	0.00032
303.15	0.25	1.49265	0.00032
303.15	0.3	1.48396	0.00032
303.15	0.3508	1.47577	0.00032
303.15	0.4001	1.46841	0.00032
303.15	0.4501	1.46144	0.00032
303.15	0.4999	1.45493	0.00032
303.15	0.55	1.44883	0.00032
303.15	0.6001	1.44308	0.00032
303.15	0.6487	1.43783	0.00032
303.15	0.6999	1.43261	0.00032
303.15	0.7499	1.42778	0.00032
303.15	0.7999	1.42318	0.00032
303.15	0.8497	1.41887	0.00032
303.15	0.9	1.41471	0.00032
303.15	0.9499	1.41079	0.00032
303.15	1	1.407	0.00032
