Measured thermophysical data. Thermochemistry of benzoquinones
Source: J. Chem. Thermodyn., 2004, 10.1016/j.jct.2004.03.002
Compound 1: carbon dioxide, CO2, InChI=1S/CO2/c2-1-3
Compound 2: water, H2O, InChI=1S/H2O/h1H2
Compound 3: oxygen, O2, InChI=1S/O2/c1-2
Compound 4: 1,4-benzoquinone, C6H4O2, InChI=1S/C6H4O2/c7-5-1-2-6(8)4-3-5/h1-4H, purity 99.5%
Compound 5: 1,4-benzoquinone, tetramethyl-, C10H12O2, InChI=1S/C10H12O2/c1-5-6(2)10(12)8(4)7(3)9(5)11/h1-4H3, purity 99%

System: 1,4-benzoquinone; phases: Crystal, Liquid, Gas
Property: Molar enthalpy of transition or fusion, kJ/mol (Crystal); method: DSC
Molar enthalpy of transition or fusion, kJ/mol	uncertainty
18.4	0.45

System: 1,4-benzoquinone; phases: Crystal, Liquid, Gas
Property: Molar enthalpy of transition or fusion, kJ/mol (Crystal); method: heat flux calorimetry
Molar enthalpy of transition or fusion, kJ/mol	uncertainty
18.35	0.73

System: 1,4-benzoquinone; phases: Crystal, Liquid, Gas
Property: Triple point temperature, K (Crystal); method: heat flux calorimetry
Triple point temperature, K	uncertainty
385.65	0.24

System: 1,4-benzoquinone; phases: Crystal, Liquid, Gas
Property: Triple point temperature, K (Crystal); method: DTA
Triple point temperature, K	uncertainty
385.07	0.68

System: 1,4-benzoquinone; phases: Crystal, Gas
Property: Molar enthalpy of vaporization or sublimation, kJ/mol (Crystal); method: SECLAW:UFactor:2
Temperature, K	Molar enthalpy of vaporization or sublimation, kJ/mol	uncertainty
279.2	62.41	2.52

System: 1,4-benzoquinone; phases: Crystal, Gas
Property: Molar enthalpy of vaporization or sublimation, kJ/mol (Crystal); method: SECLAW:UFactor:2
Temperature, K	Molar enthalpy of vaporization or sublimation, kJ/mol	uncertainty
277.3	64.55	2.55

System: 1,4-benzoquinone; phases: Crystal, Gas
Property: Molar enthalpy of vaporization or sublimation, kJ/mol (Crystal); method: SECLAW:UFactor:2
Temperature, K	Molar enthalpy of vaporization or sublimation, kJ/mol	uncertainty
278.2	63.36	2.53

System: 1,4-benzoquinone; phases: Crystal, Gas
Property: Molar enthalpy of vaporization or sublimation, kJ/mol (Crystal); method: DSC:UFactor:2
Temperature, K	Molar enthalpy of vaporization or sublimation, kJ/mol	uncertainty
298.15	66.68	3.66

System: 1,4-benzoquinone, tetramethyl-; phases: Crystal, Liquid, Gas
Property: Molar enthalpy of transition or fusion, kJ/mol (Crystal); method: heat flux calorimetry
Molar enthalpy of transition or fusion, kJ/mol	uncertainty
18.54	0.16

System: 1,4-benzoquinone, tetramethyl-; phases: Crystal, Liquid, Gas
Property: Molar enthalpy of transition or fusion, kJ/mol (Crystal); method: DSC
Molar enthalpy of transition or fusion, kJ/mol	uncertainty
18.39	0.44

System: 1,4-benzoquinone, tetramethyl-; phases: Crystal, Liquid, Gas
Property: Triple point temperature, K (Crystal); method: DTA
Triple point temperature, K	uncertainty
384.12	0.64

System: 1,4-benzoquinone, tetramethyl-; phases: Crystal, Liquid, Gas
Property: Triple point temperature, K (Crystal); method: heat flux calorimetry
Triple point temperature, K	uncertainty
384.84	0.09

System: 1,4-benzoquinone, tetramethyl-; phases: Crystal, Gas
Property: Molar enthalpy of vaporization or sublimation, kJ/mol (Crystal); method: DSC:UFactor:2
Temperature, K	Molar enthalpy of vaporization or sublimation, kJ/mol	uncertainty
298.15	93.15	4.44

System: 1,4-benzoquinone, tetramethyl-; phases: Crystal, Gas
Property: Molar enthalpy of vaporization or sublimation, kJ/mol (Crystal); method: SECLAW:UFactor:2
Temperature, K	Molar enthalpy of vaporization or sublimation, kJ/mol	uncertainty
297.3	93.32	3.21

System: 1,4-benzoquinone, tetramethyl-; phases: Crystal, Gas
Property: Molar enthalpy of vaporization or sublimation, kJ/mol (Crystal); method: SECLAW:UFactor:2
Temperature, K	Molar enthalpy of vaporization or sublimation, kJ/mol	uncertainty
297.4	91.8	3.19

Reaction: -1 1,4-benzoquinone + 6 carbon dioxide + 2 water + -6 oxygen
Property: Molar internal energy of reaction at constant volume, kJ/mol
-2746.7

Reaction: -1 1,4-benzoquinone, tetramethyl- + 10 carbon dioxide + 6 water + -12 oxygen
Property: Molar internal energy of reaction at constant volume, kJ/mol
-5283.53
