Measured thermophysical data. Volumetric and surface properties of pure ionic liquid n-octyl-pyridinium nitrate and its binary mixture with alcohol
Source: J. Chem. Thermodyn., 2012, 10.1016/j.jct.2011.10.013
Compound 1: 1-octylpyridinium nitrate, C13H22N2O3, InChI=1S/C13H22N.NO3/c1-2-3-4-5-6-8-11-14-12-9-7-10-13-14;2-1(3)4/h7,9-10,12-13H,2-6,8,11H2,1H3;/q+1;-1, purity 99%
Compound 2: methanol, CH4O, InChI=1S/CH4O/c1-2/h2H,1H3, purity 99.5%
Compound 3: ethanol, C2H6O, InChI=1S/C2H6O/c1-2-3/h3H,2H2,1H3, purity 99.5%
Compound 4: butan-1-ol, C4H10O, InChI=1S/C4H10O/c1-2-3-4-5/h5H,2-4H2,1H3, purity 99.9%

System: 1-octylpyridinium nitrate; phases: Liquid
Fixed: Pressure, kPa = 101.325
Property: Mass density, kg/m3 (Liquid); method: Vibrating tube method
Temperature, K	Mass density, kg/m3	uncertainty
293.15	1093.5	1
298.15	1089.5	1
303.15	1084.2	1
308.15	1078.6	1
313.15	1073.4	1
318.15	1068.6	1
323.15	1063.8	1
328.15	1059.7	1

System: 1-octylpyridinium nitrate; phases: Liquid, Air at 1 atmosphere
Property: Surface tension liquid-gas, N/m (Liquid); method: Dataphysics DCAT21 digital tensiometer
Temperature, K	Surface tension liquid-gas, N/m	uncertainty
293.15	0.03612	0.00053
298.15	0.03576	0.00053
303.15	0.0355	0.00053
308.15	0.03518	0.00053
313.15	0.03476	0.00053
318.15	0.03448	0.00053
323.15	0.03412	0.00053
328.15	0.03378	0.00053

System: methanol; phases: Liquid
Property: Mass density, kg/m3 (Liquid); method: Vibrating tube method
Temperature, K	Pressure, kPa	Mass density, kg/m3	uncertainty
298.15	101	785.3	1

System: methanol; phases: Liquid, Air at 1 atmosphere
Property: Surface tension liquid-gas, N/m (Liquid); method: Dataphysics DCAT21 digital tensiometer
Temperature, K	Surface tension liquid-gas, N/m	uncertainty
298.15	0.02209	0.0005

System: ethanol; phases: Liquid
Property: Mass density, kg/m3 (Liquid); method: Vibrating tube method
Temperature, K	Pressure, kPa	Mass density, kg/m3	uncertainty
298.15	101	784.8	1

System: ethanol; phases: Liquid, Air at 1 atmosphere
Property: Surface tension liquid-gas, N/m (Liquid); method: Dataphysics DCAT21 digital tensiometer
Temperature, K	Surface tension liquid-gas, N/m	uncertainty
298.15	0.02155	0.0005

System: butan-1-ol; phases: Liquid
Property: Mass density, kg/m3 (Liquid); method: Vibrating tube method
Temperature, K	Pressure, kPa	Mass density, kg/m3	uncertainty
298.15	101	805.6	1

System: butan-1-ol; phases: Liquid, Air at 1 atmosphere
Property: Surface tension liquid-gas, N/m (Liquid); method: Dataphysics DCAT21 digital tensiometer
Temperature, K	Surface tension liquid-gas, N/m	uncertainty
298.15	0.02367	0.0005

System: methanol + 1-octylpyridinium nitrate; phases: Liquid
Fixed: Temperature, K = 298.15
Fixed: Pressure, kPa = 101
Property: Mass density, kg/m3 (Liquid); method: Vibrating tube method
Mole fraction of 1-octylpyridinium nitrate	Mass density, kg/m3	uncertainty
0	785.3	1
0.1026	910.2	1
0.2063	974.3	1
0.3072	1011.3	1
0.4225	1038.4	1
0.5067	1052.6	1
0.6067	1065	1
0.8534	1084.4	1
0.936	1087.5	1
1	1089.5	1

System: methanol + 1-octylpyridinium nitrate; phases: Liquid, Air at 1 atmosphere
Fixed: Temperature, K = 298.15
Property: Surface tension liquid-gas, N/m (Liquid); method: Dataphysics DCAT21 digital tensiometer
Mole fraction of 1-octylpyridinium nitrate	Surface tension liquid-gas, N/m	uncertainty
0	0.02209	0.0005
0.1026	0.0274	0.00051
0.2063	0.03011	0.00051
0.3072	0.03078	0.00051
0.4225	0.032	0.00051

System: ethanol + 1-octylpyridinium nitrate; phases: Liquid
Fixed: Temperature, K = 298.15
Fixed: Pressure, kPa = 101
Property: Mass density, kg/m3 (Liquid); method: Vibrating tube method
Mole fraction of 1-octylpyridinium nitrate	Mass density, kg/m3	uncertainty
0	784.8	1
0.2	939.3	1
0.3035	981.4	1
0.4063	1011.5	1
0.5087	1034.2	1
0.5903	1048.5	1
0.7456	1069.4	1
0.791	1073.9	1
0.876	1081.5	1
1	1089.5	1

System: ethanol + 1-octylpyridinium nitrate; phases: Liquid, Air at 1 atmosphere
Fixed: Temperature, K = 298.15
Property: Surface tension liquid-gas, N/m (Liquid); method: Dataphysics DCAT21 digital tensiometer
Mole fraction of 1-octylpyridinium nitrate	Surface tension liquid-gas, N/m	uncertainty
0	0.02155	0.0005
0.2	0.02644	0.00051
0.3035	0.02783	0.00051
0.4063	0.02874	0.00051
0.5087	0.02975	0.00051

System: butan-1-ol + 1-octylpyridinium nitrate; phases: Liquid
Fixed: Temperature, K = 298.15
Fixed: Pressure, kPa = 101
Property: Mass density, kg/m3 (Liquid); method: Vibrating tube method
Mole fraction of 1-octylpyridinium nitrate	Mass density, kg/m3	uncertainty
0	805.6	1
0.1245	875.3	1
0.2008	910	1
0.3038	948.6	1
0.4019	978.1	1
0.5012	1002	1
0.6025	1023	1
0.701	1041.7	1
0.8005	1059	1
0.899	1074.9	1
1	1089.5	1

System: butan-1-ol + 1-octylpyridinium nitrate; phases: Liquid, Air at 1 atmosphere
Fixed: Temperature, K = 298.15
Property: Surface tension liquid-gas, N/m (Liquid); method: Dataphysics DCAT21 digital tensiometer
Mole fraction of 1-octylpyridinium nitrate	Surface tension liquid-gas, N/m	uncertainty
0	0.02367	0.0005
0.1245	0.02517	0.0005
0.2008	0.02584	0.0005
0.3038	0.02635	0.0005
0.4019	0.02692	0.0005
0.5012	0.02753	0.00051
