Measured thermophysical data. Synthesis and thermophysical properties of imidazolate-based ionic liquids: Influences of different cations and anions
Source: J. Chem. Thermodyn., 2014, 10.1016/j.jct.2014.01.028
Compound 1: 1-ethyl-3-methylimidazolium imidazolide, C9H14N4, InChI=1S/C6H11N2.C3H3N2/c1-3-8-5-4-7(2)6-8;1-2-5-3-4-1/h4-6H,3H2,1-2H3;1-3H/q+1;-1
Compound 2: 1-(2-hydroxyethyl)-3-methylimidazolium imidazolide, C9H14N4O, InChI=1S/C6H11N2O.C3H3N2/c1-7-2-3-8(6-7)4-5-9;1-2-5-3-4-1/h2-3,6,9H,4-5H2,1H3;1-3H/q+1;-1
Compound 3: 1-butyl-3-methylimidazolium imidazolide, C11H18N4, InChI=1S/C8H15N2.C3H3N2/c1-3-4-5-10-7-6-9(2)8-10;1-2-5-3-4-1/h6-8H,3-5H2,1-2H3;1-3H/q+1;-1
Compound 4: 1-(3-aminopropyl)-3-methylimidazolium imidazolide, C10H17N5, InChI=1S/C7H14N3.C3H3N2/c1-9-5-6-10(7-9)4-2-3-8;1-2-5-3-4-1/h5-7H,2-4,8H2,1H3;1-3H/q+1;-1
Compound 5: 1,1'-(1,2-ethanediyl)bis(3-methyl-1H-imidazolium) imidazolide, C16H22N8, InChI=1S/C10H16N4.2C3H3N2/c1-11-3-5-13(9-11)7-8-14-6-4-12(2)10-14;2*1-2-5-3-4-1/h3-6,9-10H,7-8H2,1-2H3;2*1-3H/q+2;2*-1
Compound 6: 1,1'-(1,4-butanediyl)bis(3-methyl-1H-imidazolium) imidazolide, C18H26N8, InChI=1S/C12H20N4.2C3H3N2/c1-13-7-9-15(11-13)5-3-4-6-16-10-8-14(2)12-16;2*1-2-5-3-4-1/h7-12H,3-6H2,1-2H3;2*1-3H/q+2;2*-1

System: 1-ethyl-3-methylimidazolium imidazolide; phases: Glass, Liquid, Air at 1 atmosphere
Property: Triple point temperature, K (Glass); method: DTA
Triple point temperature, K	uncertainty
213.14	2.03

System: 1-ethyl-3-methylimidazolium imidazolide; phases: Liquid
Fixed: Pressure, kPa = 101.325
Property: Mass density, kg/m3 (Liquid); method: Pycnometric method
Temperature, K	Mass density, kg/m3	uncertainty
293.15	1113.5	3.3
303.15	1106.7	3.3
313.15	1100.3	3.3
323.15	1092.5	3.3
333.15	1086.3	3.3
343.15	1079.7	3.3

System: 1-ethyl-3-methylimidazolium imidazolide; phases: Liquid
Fixed: Pressure, kPa = 101.325
Property: Viscosity, Pa*s (Liquid); method: Capillary tube (Ostwald; Ubbelohde) method
Temperature, K	Viscosity, Pa*s	uncertainty
293.15	0.1918	0.0081
303.15	0.0879	0.0035
313.15	0.0424	0.0016
323.15	0.0229	0.0009
333.15	0.0148	0.0005
343.15	0.0086	0.0003

System: 1-ethyl-3-methylimidazolium imidazolide; phases: Liquid
Fixed: Pressure, kPa = 101.325
Property: Electrical conductivity, S/m (Liquid); method: Alternating current cell with electrodes
Temperature, K	Electrical conductivity, S/m	uncertainty
293.15	0.27	0.0086
303.15	0.487	0.0155
313.15	0.804	0.0256
323.15	1.239	0.0394
333.15	1.6925	0.0539
343.15	2.112	0.0672

System: 1-(2-hydroxyethyl)-3-methylimidazolium imidazolide; phases: Glass, Liquid, Air at 1 atmosphere
Property: Triple point temperature, K (Glass); method: DTA
Triple point temperature, K	uncertainty
219.14	2.03

System: 1-(2-hydroxyethyl)-3-methylimidazolium imidazolide; phases: Liquid
Fixed: Pressure, kPa = 101.325
Property: Mass density, kg/m3 (Liquid); method: Pycnometric method
Temperature, K	Mass density, kg/m3	uncertainty
293.15	1301	4.5
303.15	1295.7	4.5
313.15	1289.8	4.5
323.15	1283.7	4.5
333.15	1278.1	4.5
343.15	1272.3	4.4

System: 1-(2-hydroxyethyl)-3-methylimidazolium imidazolide; phases: Liquid
Fixed: Pressure, kPa = 101.325
Property: Viscosity, Pa*s (Liquid); method: Capillary tube (Ostwald; Ubbelohde) method
Temperature, K	Viscosity, Pa*s	uncertainty
303.15	8.896	0.794
313.15	3.632	0.282
323.15	1.255	0.082
333.15	0.6152	0.0336
343.15	0.2904	0.0145

System: 1-(2-hydroxyethyl)-3-methylimidazolium imidazolide; phases: Liquid
Fixed: Pressure, kPa = 101.325
Property: Electrical conductivity, S/m (Liquid); method: Alternating current cell with electrodes
Temperature, K	Electrical conductivity, S/m	uncertainty
293.15	0.000168	5e-06
303.15	0.000636	2e-05
313.15	0.00229	7e-05
323.15	0.00646	0.00021
333.15	0.01735	0.00055
343.15	0.03915	0.00125

System: 1-butyl-3-methylimidazolium imidazolide; phases: Glass, Liquid, Air at 1 atmosphere
Property: Triple point temperature, K (Glass); method: DTA
Triple point temperature, K	uncertainty
217.14	2.03

System: 1-butyl-3-methylimidazolium imidazolide; phases: Liquid
Fixed: Pressure, kPa = 101.325
Property: Mass density, kg/m3 (Liquid); method: Pycnometric method
Temperature, K	Mass density, kg/m3	uncertainty
293.15	1085.3	3.2
303.15	1079.9	3.2
313.15	1073.2	3.2
323.15	1066.5	3.2
333.15	1060.4	3.2
343.15	1054.1	3.2

System: 1-butyl-3-methylimidazolium imidazolide; phases: Liquid
Fixed: Pressure, kPa = 101.325
Property: Viscosity, Pa*s (Liquid); method: Capillary tube (Ostwald; Ubbelohde) method
Temperature, K	Viscosity, Pa*s	uncertainty
293.15	0.5333	0.0275
303.15	0.2726	0.0126
313.15	0.14	0.006
323.15	0.0768	0.0029
333.15	0.0475	0.0017
343.15	0.034	0.0012

System: 1-butyl-3-methylimidazolium imidazolide; phases: Liquid
Fixed: Pressure, kPa = 101.325
Property: Electrical conductivity, S/m (Liquid); method: Alternating current cell with electrodes
Temperature, K	Electrical conductivity, S/m	uncertainty
293.15	0.0737	0.0023
303.15	0.1496	0.0048
313.15	0.284	0.009
323.15	0.4806	0.0153
333.15	0.7129	0.0227
343.15	1.0125	0.0322

System: 1-(3-aminopropyl)-3-methylimidazolium imidazolide; phases: Glass, Liquid, Air at 1 atmosphere
Property: Triple point temperature, K (Glass); method: DTA
Triple point temperature, K	uncertainty
218.13	2.03

System: 1-(3-aminopropyl)-3-methylimidazolium imidazolide; phases: Liquid
Fixed: Pressure, kPa = 101.325
Property: Mass density, kg/m3 (Liquid); method: Pycnometric method
Temperature, K	Mass density, kg/m3	uncertainty
293.15	1148.4	3.5
303.15	1143.1	3.5
313.15	1137.5	3.5
323.15	1131.8	3.5
333.15	1126.3	3.5
343.15	1120.8	3.5

System: 1-(3-aminopropyl)-3-methylimidazolium imidazolide; phases: Liquid
Fixed: Pressure, kPa = 101.325
Property: Viscosity, Pa*s (Liquid); method: Capillary tube (Ostwald; Ubbelohde) method
Temperature, K	Viscosity, Pa*s	uncertainty
293.15	0.22	0.0096
303.15	0.0984	0.004
313.15	0.0545	0.002
323.15	0.0321	0.0012
333.15	0.0199	0.0007
343.15	0.0137	0.0005

System: 1-(3-aminopropyl)-3-methylimidazolium imidazolide; phases: Liquid
Fixed: Pressure, kPa = 101.325
Property: Electrical conductivity, S/m (Liquid); method: Alternating current cell with electrodes
Temperature, K	Electrical conductivity, S/m	uncertainty
293.15	0.0842	0.0027
303.15	0.1656	0.0053
313.15	0.3045	0.0097
323.15	0.504	0.016
333.15	0.7375	0.0235
343.15	1.093	0.0348

System: 1,1'-(1,2-ethanediyl)bis(3-methyl-1H-imidazolium) imidazolide; phases: Glass, Liquid, Air at 1 atmosphere
Property: Triple point temperature, K (Glass); method: DTA
Triple point temperature, K	uncertainty
216.97	2.03

System: 1,1'-(1,2-ethanediyl)bis(3-methyl-1H-imidazolium) imidazolide; phases: Liquid
Fixed: Pressure, kPa = 101.325
Property: Mass density, kg/m3 (Liquid); method: Pycnometric method
Temperature, K	Mass density, kg/m3	uncertainty
293.15	1210.8	3.9
303.15	1206	3.9
313.15	1200	3.9
323.15	1191.5	3.9
333.15	1185.7	3.9
343.15	1178.9	3.9

System: 1,1'-(1,2-ethanediyl)bis(3-methyl-1H-imidazolium) imidazolide; phases: Liquid
Fixed: Pressure, kPa = 101.325
Property: Viscosity, Pa*s (Liquid); method: Capillary tube (Ostwald; Ubbelohde) method
Temperature, K	Viscosity, Pa*s	uncertainty
303.15	6.306	0.527
313.15	2.538	0.185
323.15	0.8547	0.0523
333.15	0.4402	0.0225
343.15	0.1451	0.0082

System: 1,1'-(1,2-ethanediyl)bis(3-methyl-1H-imidazolium) imidazolide; phases: Liquid
Fixed: Pressure, kPa = 101.325
Property: Electrical conductivity, S/m (Liquid); method: Alternating current cell with electrodes
Temperature, K	Electrical conductivity, S/m	uncertainty
293.15	0.01113	0.00035
303.15	0.03095	0.00098
313.15	0.0684	0.0022
323.15	0.1453	0.0046
333.15	0.254	0.0081
343.15	0.425	0.0135

System: 1,1'-(1,4-butanediyl)bis(3-methyl-1H-imidazolium) imidazolide; phases: Glass, Liquid, Air at 1 atmosphere
Property: Triple point temperature, K (Glass); method: DTA
Triple point temperature, K	uncertainty
218.81	2.03

System: 1,1'-(1,4-butanediyl)bis(3-methyl-1H-imidazolium) imidazolide; phases: Liquid
Fixed: Pressure, kPa = 101.325
Property: Mass density, kg/m3 (Liquid); method: Pycnometric method
Temperature, K	Mass density, kg/m3	uncertainty
293.15	1177.4	3.7
303.15	1172.8	3.7
313.15	1166.9	3.7
323.15	1158.7	3.7
333.15	1154.3	3.7
343.15	1148.9	3.7

System: 1,1'-(1,4-butanediyl)bis(3-methyl-1H-imidazolium) imidazolide; phases: Liquid
Fixed: Pressure, kPa = 101.325
Property: Viscosity, Pa*s (Liquid); method: Capillary tube (Ostwald; Ubbelohde) method
Temperature, K	Viscosity, Pa*s	uncertainty
303.15	3.058	0.225
313.15	1.003	0.064
323.15	0.4271	0.0221
333.15	0.2063	0.0091
343.15	0.1115	0.0046

System: 1,1'-(1,4-butanediyl)bis(3-methyl-1H-imidazolium) imidazolide; phases: Liquid
Fixed: Pressure, kPa = 101.325
Property: Electrical conductivity, S/m (Liquid); method: Alternating current cell with electrodes
Temperature, K	Electrical conductivity, S/m	uncertainty
293.15	0.0266	0.0008
303.15	0.0686	0.0022
313.15	0.1464	0.0047
323.15	0.2835	0.009
333.15	0.498	0.0158
343.15	0.955	0.0304
