Measured thermophysical data. Density and viscosity measurements of aqueous amines at high pressures: DEA-water, DMAE-water and TEA-water mixtures
Source: J. Chem. Thermodyn., 2017, 10.1016/j.jct.2017.05.001
Compound 1: diethanolamine, C4H11NO2, InChI=1S/C4H11NO2/c6-3-1-5-2-4-7/h5-7H,1-4H2, purity 99%
Compound 2: triethanolamine, C6H15NO3, InChI=1S/C6H15NO3/c8-4-1-7(2-5-9)3-6-10/h8-10H,1-6H2, purity 99%
Compound 3: 2-(N,N-dimethylamino)ethanol, C4H11NO, InChI=1S/C4H11NO/c1-5(2)3-4-6/h6H,3-4H2,1-2H3, purity 99.5%
Compound 4: water, H2O, InChI=1S/H2O/h1H2, purity 99.8%

System: diethanolamine + water; phases: Liquid
Property: Mass density, kg/m3 (Liquid); method: Vibrating tube method
Mass fraction of diethanolamine	Temperature, K	Pressure, kPa	Mass density, kg/m3	uncertainty
0.0993	293.15	100	1009.4	0.7
0.0993	293.15	500	1009.5	0.7
0.0993	293.15	1000	1009.7	0.7
0.0993	293.15	2000	1010.2	0.7
0.0993	293.15	5000	1011.4	0.7
0.0993	293.15	10000	1013.6	0.7
0.0993	293.15	15000	1015.6	0.7
0.0993	293.15	20000	1017.7	0.7
0.0993	293.15	30000	1021.8	0.7
0.0993	293.15	40000	1025.9	0.7
0.0993	293.15	50000	1029.7	0.7
0.0993	293.15	60000	1033.6	0.7
0.0993	293.15	70000	1037.6	0.7
0.0993	293.15	80000	1041.1	0.7
0.0993	293.15	90000	1044.8	0.7
0.0993	293.15	100000	1048.5	0.7
0.0993	293.15	110000	1051.9	0.8
0.0993	293.15	120000	1055.4	0.8
0.0993	293.15	130000	1059	0.8
0.0993	293.15	140000	1062.2	0.8
0.0993	313.15	100	1002.9	0.7
0.0993	313.15	500	1003.1	0.7
0.0993	313.15	1000	1003.4	0.7
0.0993	313.15	2000	1003.7	0.7
0.0993	313.15	5000	1005	0.7
0.0993	313.15	10000	1007	0.7
0.0993	313.15	15000	1009	0.7
0.0993	313.15	20000	1011	0.7
0.0993	313.15	30000	1015.1	0.7
0.0993	313.15	40000	1019.1	0.7
0.0993	313.15	50000	1022.8	0.7
0.0993	313.15	60000	1026.6	0.7
0.0993	313.15	70000	1030.4	0.7
0.0993	313.15	80000	1033.9	0.7
0.0993	313.15	90000	1037.3	0.7
0.0993	313.15	100000	1040.9	0.7
0.0993	313.15	110000	1044.4	0.7
0.0993	313.15	120000	1047.7	0.8
0.0993	313.15	130000	1051.1	0.8
0.0993	313.15	140000	1054.4	0.8
0.0993	333.15	100	993.4	0.7
0.0993	333.15	500	993.7	0.7
0.0993	333.15	1000	993.9	0.7
0.0993	333.15	2000	994.3	0.7
0.0993	333.15	5000	995.5	0.7
0.0993	333.15	10000	997.6	0.7
0.0993	333.15	15000	999.6	0.7
0.0993	333.15	20000	1001.6	0.7
0.0993	333.15	30000	1005.7	0.7
0.0993	333.15	40000	1009.7	0.7
0.0993	333.15	50000	1013.4	0.7
0.0993	333.15	60000	1017.2	0.7
0.0993	333.15	70000	1020.9	0.7
0.0993	333.15	80000	1024.5	0.7
0.0993	333.15	90000	1028	0.7
0.0993	333.15	100000	1031.5	0.7
0.0993	333.15	110000	1034.9	0.7
0.0993	333.15	120000	1038.4	0.7
0.0993	333.15	130000	1041.7	0.7
0.0993	333.15	140000	1045	0.8
0.0993	353.15	100	981.9	0.7
0.0993	353.15	500	982	0.7
0.0993	353.15	1000	982.2	0.7
0.0993	353.15	2000	982.6	0.7
0.0993	353.15	5000	983.9	0.7
0.0993	353.15	10000	986.1	0.7
0.0993	353.15	15000	988.2	0.7
0.0993	353.15	20000	990.3	0.7
0.0993	353.15	30000	994.4	0.7
0.0993	353.15	40000	998.5	0.7
0.0993	353.15	50000	1002.4	0.7
0.0993	353.15	60000	1006.2	0.7
0.0993	353.15	70000	1010	0.7
0.0993	353.15	80000	1013.7	0.7
0.0993	353.15	90000	1017.3	0.7
0.0993	353.15	100000	1020.9	0.7
0.0993	353.15	110000	1024.4	0.7
0.0993	353.15	120000	1027.8	0.7
0.0993	353.15	130000	1031.1	0.7
0.0993	353.15	140000	1034.4	0.7
0.0993	373.15	100	968.1	0.7
0.0993	373.15	500	968.3	0.7
0.0993	373.15	1000	968.6	0.7
0.0993	373.15	2000	969.1	0.7
0.0993	373.15	5000	970.4	0.7
0.0993	373.15	10000	972.7	0.7
0.0993	373.15	15000	974.9	0.7
0.0993	373.15	20000	977.1	0.7
0.0993	373.15	30000	981.4	0.7
0.0993	373.15	40000	985.7	0.7
0.0993	373.15	50000	989.7	0.7
0.0993	373.15	60000	993.6	0.7
0.0993	373.15	70000	997.5	0.7
0.0993	373.15	80000	1001.4	0.7
0.0993	373.15	90000	1005.1	0.7
0.0993	373.15	100000	1008.8	0.7
0.0993	373.15	110000	1012.4	0.7
0.0993	373.15	120000	1015.9	0.7
0.0993	373.15	130000	1019.4	0.7
0.0993	373.15	140000	1022.7	0.7
0.0993	393.15	100	952.6	0.7
0.0993	393.15	500	952.9	0.7
0.0993	393.15	1000	953.1	0.7
0.0993	393.15	2000	953.6	0.7
0.0993	393.15	5000	955.1	0.7
0.0993	393.15	10000	957.5	0.7
0.0993	393.15	15000	959.9	0.7
0.0993	393.15	20000	962.3	0.7
0.0993	393.15	30000	966.8	0.7
0.0993	393.15	40000	971.3	0.7
0.0993	393.15	50000	975.4	0.7
0.0993	393.15	60000	979.7	0.7
0.0993	393.15	70000	984	0.7
0.0993	393.15	80000	987.9	0.7
0.0993	393.15	90000	991.7	0.7
0.0993	393.15	100000	995.5	0.7
0.0993	393.15	110000	999.4	0.7
0.0993	393.15	120000	1003.1	0.7
0.0993	393.15	130000	1006.6	0.7
0.0993	393.15	140000	1010.1	0.7
0.2	293.15	100	1021.6	0.7
0.2	293.15	500	1021.7	0.7
0.2	293.15	1000	1021.9	0.7
0.2	293.15	2000	1022.3	0.7
0.2	293.15	5000	1023.5	0.7
0.2	293.15	10000	1025.5	0.7
0.2	293.15	15000	1027.4	0.7
0.2	293.15	20000	1029.4	0.7
0.2	293.15	30000	1033.3	0.7
0.2	293.15	40000	1037	0.7
0.2	293.15	50000	1040.7	0.7
0.2	293.15	60000	1044.4	0.7
0.2	293.15	70000	1048	0.7
0.2	293.15	80000	1051.4	0.7
0.2	293.15	90000	1054.9	0.7
0.2	293.15	100000	1058.4	0.8
0.2	293.15	110000	1061.6	0.8
0.2	293.15	120000	1064.9	0.8
0.2	293.15	130000	1068.3	0.8
0.2	293.15	140000	1071.4	0.8
0.2	313.15	100	1014.3	0.7
0.2	313.15	500	1014.4	0.7
0.2	313.15	1000	1014.6	0.7
0.2	313.15	2000	1015	0.7
0.2	313.15	5000	1016.2	0.7
0.2	313.15	10000	1018.2	0.7
0.2	313.15	15000	1020.1	0.7
0.2	313.15	20000	1022	0.7
0.2	313.15	30000	1025.8	0.7
0.2	313.15	40000	1029.7	0.7
0.2	313.15	50000	1033.2	0.7
0.2	313.15	60000	1036.9	0.7
0.2	313.15	70000	1040.4	0.7
0.2	313.15	80000	1043.8	0.7
0.2	313.15	90000	1047.1	0.7
0.2	313.15	100000	1050.6	0.7
0.2	313.15	110000	1053.9	0.8
0.2	313.15	120000	1057.1	0.8
0.2	313.15	130000	1060.3	0.8
0.2	313.15	140000	1063.5	0.8
0.2	333.15	100	1004.2	0.7
0.2	333.15	500	1004.4	0.7
0.2	333.15	1000	1004.6	0.7
0.2	333.15	2000	1005	0.7
0.2	333.15	5000	1006.2	0.7
0.2	333.15	10000	1008.2	0.7
0.2	333.15	15000	1010.2	0.7
0.2	333.15	20000	1012.1	0.7
0.2	333.15	30000	1016	0.7
0.2	333.15	40000	1020	0.7
0.2	333.15	50000	1023.6	0.7
0.2	333.15	60000	1027.1	0.7
0.2	333.15	70000	1030.8	0.7
0.2	333.15	80000	1034.2	0.7
0.2	333.15	90000	1037.5	0.7
0.2	333.15	100000	1041	0.7
0.2	333.15	110000	1044.2	0.7
0.2	333.15	120000	1047.7	0.8
0.2	333.15	130000	1050.9	0.8
0.2	333.15	140000	1054.1	0.8
0.2	353.15	100	992.4	0.7
0.2	353.15	500	992.5	0.7
0.2	353.15	1000	992.7	0.7
0.2	353.15	2000	993.1	0.7
0.2	353.15	5000	994.4	0.7
0.2	353.15	10000	996.5	0.7
0.2	353.15	15000	998.6	0.7
0.2	353.15	20000	1000.6	0.7
0.2	353.15	30000	1004.7	0.7
0.2	353.15	40000	1008.5	0.7
0.2	353.15	50000	1012.4	0.7
0.2	353.15	60000	1016.3	0.7
0.2	353.15	70000	1019.8	0.7
0.2	353.15	80000	1023.4	0.7
0.2	353.15	90000	1026.9	0.7
0.2	353.15	100000	1030.4	0.7
0.2	353.15	110000	1033.8	0.7
0.2	353.15	120000	1037.1	0.7
0.2	353.15	130000	1040.5	0.7
0.2	353.15	140000	1043.6	0.8
0.2	373.15	100	978.3	0.7
0.2	373.15	500	978.6	0.7
0.2	373.15	1000	978.8	0.7
0.2	373.15	2000	979.3	0.7
0.2	373.15	5000	980.6	0.7
0.2	373.15	10000	982.8	0.7
0.2	373.15	15000	985	0.7
0.2	373.15	20000	987.2	0.7
0.2	373.15	30000	991.5	0.7
0.2	373.15	40000	995.6	0.7
0.2	373.15	50000	999.5	0.7
0.2	373.15	60000	1003.5	0.7
0.2	373.15	70000	1007.3	0.7
0.2	373.15	80000	1011.1	0.7
0.2	373.15	90000	1014.7	0.7
0.2	373.15	100000	1018.3	0.7
0.2	373.15	110000	1021.9	0.7
0.2	373.15	120000	1025.3	0.7
0.2	373.15	130000	1028.7	0.7
0.2	373.15	140000	1032	0.7
0.2	393.15	100	962.8	0.7
0.2	393.15	500	963.2	0.7
0.2	393.15	1000	963.3	0.7
0.2	393.15	2000	963.8	0.7
0.2	393.15	5000	965.2	0.7
0.2	393.15	10000	967.7	0.7
0.2	393.15	15000	969.9	0.7
0.2	393.15	20000	972.3	0.7
0.2	393.15	30000	976.8	0.7
0.2	393.15	40000	981.3	0.7
0.2	393.15	50000	985.4	0.7
0.2	393.15	60000	989.6	0.7
0.2	393.15	70000	993.8	0.7
0.2	393.15	80000	997.6	0.7
0.2	393.15	90000	1001.5	0.7
0.2	393.15	100000	1005.2	0.7
0.2	393.15	110000	1008.9	0.7
0.2	393.15	120000	1012.6	0.7
0.2	393.15	130000	1016.1	0.7
0.2	393.15	140000	1019.5	0.7
0.3002	293.15	100	1034.5	0.7
0.3002	293.15	500	1034.7	0.7
0.3002	293.15	1000	1034.8	0.7
0.3002	293.15	2000	1035.2	0.7
0.3002	293.15	5000	1036.3	0.7
0.3002	293.15	10000	1038.2	0.7
0.3002	293.15	15000	1040	0.7
0.3002	293.15	20000	1041.8	0.7
0.3002	293.15	30000	1045.4	0.7
0.3002	293.15	40000	1049	0.7
0.3002	293.15	50000	1052.5	0.7
0.3002	293.15	60000	1055.9	0.7
0.3002	293.15	70000	1059.3	0.7
0.3002	293.15	80000	1062.5	0.8
0.3002	293.15	90000	1065.8	0.8
0.3002	293.15	100000	1069.1	0.8
0.3002	293.15	110000	1072.1	0.8
0.3002	293.15	120000	1075.3	0.8
0.3002	293.15	130000	1078.5	0.8
0.3002	293.15	140000	1081.4	0.9
0.3002	313.15	100	1026	0.7
0.3002	313.15	500	1026.2	0.7
0.3002	313.15	1000	1026.4	0.7
0.3002	313.15	2000	1026.7	0.7
0.3002	313.15	5000	1027.9	0.7
0.3002	313.15	10000	1029.7	0.7
0.3002	313.15	15000	1031.6	0.7
0.3002	313.15	20000	1033.4	0.7
0.3002	313.15	30000	1037.1	0.7
0.3002	313.15	40000	1040.7	0.7
0.3002	313.15	50000	1044.1	0.7
0.3002	313.15	60000	1047.6	0.7
0.3002	313.15	70000	1051	0.7
0.3002	313.15	80000	1054.3	0.7
0.3002	313.15	90000	1057.5	0.8
0.3002	313.15	100000	1060.8	0.8
0.3002	313.15	110000	1063.9	0.8
0.3002	313.15	120000	1067.1	0.8
0.3002	313.15	130000	1070.2	0.8
0.3002	313.15	140000	1073.3	0.8
0.3002	333.15	100	1015.4	0.7
0.3002	333.15	500	1015.5	0.7
0.3002	333.15	1000	1015.7	0.7
0.3002	333.15	2000	1016.2	0.7
0.3002	333.15	5000	1017.3	0.7
0.3002	333.15	10000	1019.3	0.7
0.3002	333.15	15000	1021.2	0.7
0.3002	333.15	20000	1023.1	0.7
0.3002	333.15	30000	1026.9	0.7
0.3002	333.15	40000	1030.6	0.7
0.3002	333.15	50000	1034.1	0.7
0.3002	333.15	60000	1037.7	0.7
0.3002	333.15	70000	1041.1	0.7
0.3002	333.15	80000	1044.4	0.7
0.3002	333.15	90000	1047.7	0.7
0.3002	333.15	100000	1051.1	0.8
0.3002	333.15	110000	1054.3	0.8
0.3002	333.15	120000	1057.5	0.8
0.3002	333.15	130000	1060.6	0.8
0.3002	333.15	140000	1063.7	0.8
0.3002	353.15	100	1003	0.7
0.3002	353.15	500	1003.1	0.7
0.3002	353.15	1000	1003.4	0.7
0.3002	353.15	2000	1003.7	0.7
0.3002	353.15	5000	1005	0.7
0.3002	353.15	10000	1007.1	0.7
0.3002	353.15	15000	1009.1	0.7
0.3002	353.15	20000	1011.1	0.7
0.3002	353.15	30000	1015.1	0.7
0.3002	353.15	40000	1018.9	0.7
0.3002	353.15	50000	1022.6	0.7
0.3002	353.15	60000	1026.4	0.7
0.3002	353.15	70000	1029.9	0.7
0.3002	353.15	80000	1033.4	0.7
0.3002	353.15	90000	1036.8	0.7
0.3002	353.15	100000	1040.1	0.7
0.3002	353.15	110000	1043.5	0.7
0.3002	353.15	120000	1046.8	0.8
0.3002	353.15	130000	1050	0.8
0.3002	353.15	140000	1053.1	0.8
0.3002	373.15	100	988.7	0.7
0.3002	373.15	500	988.9	0.7
0.3002	373.15	1000	989.2	0.7
0.3002	373.15	2000	989.6	0.7
0.3002	373.15	5000	990.9	0.7
0.3002	373.15	10000	993.2	0.7
0.3002	373.15	15000	995.3	0.7
0.3002	373.15	20000	997.4	0.7
0.3002	373.15	30000	1001.6	0.7
0.3002	373.15	40000	1005.7	0.7
0.3002	373.15	50000	1009.5	0.7
0.3002	373.15	60000	1013.4	0.7
0.3002	373.15	70000	1017.2	0.7
0.3002	373.15	80000	1020.9	0.7
0.3002	373.15	90000	1024.4	0.7
0.3002	373.15	100000	1028	0.7
0.3002	373.15	110000	1031.5	0.7
0.3002	373.15	120000	1034.9	0.7
0.3002	373.15	130000	1038.2	0.7
0.3002	373.15	140000	1041.5	0.8
0.3002	393.15	100	972.9	0.7
0.3002	393.15	500	973.2	0.7
0.3002	393.15	1000	973.4	0.7
0.3002	393.15	2000	973.9	0.7
0.3002	393.15	5000	975.3	0.7
0.3002	393.15	10000	977.7	0.7
0.3002	393.15	15000	980	0.7
0.3002	393.15	20000	982.4	0.7
0.3002	393.15	30000	986.9	0.7
0.3002	393.15	40000	991.2	0.7
0.3002	393.15	50000	995.3	0.7
0.3002	393.15	60000	999.4	0.7
0.3002	393.15	70000	1003.6	0.7
0.3002	393.15	80000	1007.3	0.7
0.3002	393.15	90000	1011.2	0.7
0.3002	393.15	100000	1014.8	0.7
0.3002	393.15	110000	1018.5	0.7
0.3002	393.15	120000	1022.1	0.7
0.3002	393.15	130000	1025.5	0.7
0.3002	393.15	140000	1029.1	0.7
0.3997	293.15	100	1047.5	0.7
0.3997	293.15	500	1047.7	0.7
0.3997	293.15	1000	1047.9	0.7
0.3997	293.15	2000	1048.2	0.7
0.3997	293.15	5000	1049.3	0.7
0.3997	293.15	10000	1051	0.7
0.3997	293.15	15000	1052.8	0.7
0.3997	293.15	20000	1054.5	0.7
0.3997	293.15	30000	1058	0.7
0.3997	293.15	40000	1061.4	0.7
0.3997	293.15	50000	1064.7	0.7
0.3997	293.15	60000	1068	0.7
0.3997	293.15	70000	1071.2	0.8
0.3997	293.15	80000	1074.3	0.8
0.3997	293.15	90000	1077.4	0.8
0.3997	293.15	100000	1080.6	0.8
0.3997	293.15	110000	1083.5	0.8
0.3997	293.15	120000	1086.5	0.9
0.3997	293.15	130000	1089.6	0.9
0.3997	293.15	140000	1092.4	0.9
0.3997	313.15	100	1038	0.7
0.3997	313.15	500	1038.2	0.7
0.3997	313.15	1000	1038.4	0.7
0.3997	313.15	2000	1038.7	0.7
0.3997	313.15	5000	1039.8	0.7
0.3997	313.15	10000	1041.7	0.7
0.3997	313.15	15000	1043.4	0.7
0.3997	313.15	20000	1045.1	0.7
0.3997	313.15	30000	1048.7	0.7
0.3997	313.15	40000	1052.3	0.7
0.3997	313.15	50000	1055.6	0.7
0.3997	313.15	60000	1059	0.7
0.3997	313.15	70000	1062.2	0.7
0.3997	313.15	80000	1065.4	0.8
0.3997	313.15	90000	1068.5	0.8
0.3997	313.15	100000	1071.6	0.8
0.3997	313.15	110000	1074.7	0.8
0.3997	313.15	120000	1077.7	0.8
0.3997	313.15	130000	1080.7	0.9
0.3997	313.15	140000	1083.6	0.9
0.3997	333.15	100	1026.6	0.7
0.3997	333.15	500	1026.8	0.7
0.3997	333.15	1000	1027	0.7
0.3997	333.15	2000	1027.4	0.7
0.3997	333.15	5000	1028.5	0.7
0.3997	333.15	10000	1030.4	0.7
0.3997	333.15	15000	1032.3	0.7
0.3997	333.15	20000	1034.2	0.7
0.3997	333.15	30000	1037.8	0.7
0.3997	333.15	40000	1041.6	0.7
0.3997	333.15	50000	1045	0.7
0.3997	333.15	60000	1048.4	0.7
0.3997	333.15	70000	1051.8	0.7
0.3997	333.15	80000	1055	0.7
0.3997	333.15	90000	1058.2	0.8
0.3997	333.15	100000	1061.5	0.8
0.3997	333.15	110000	1064.6	0.8
0.3997	333.15	120000	1067.8	0.8
0.3997	333.15	130000	1070.8	0.8
0.3997	333.15	140000	1074	0.8
0.3997	353.15	100	1013.9	0.7
0.3997	353.15	500	1014	0.7
0.3997	353.15	1000	1014.2	0.7
0.3997	353.15	2000	1014.5	0.7
0.3997	353.15	5000	1015.8	0.7
0.3997	353.15	10000	1017.8	0.7
0.3997	353.15	15000	1019.8	0.7
0.3997	353.15	20000	1021.8	0.7
0.3997	353.15	30000	1025.7	0.7
0.3997	353.15	40000	1029.4	0.7
0.3997	353.15	50000	1033	0.7
0.3997	353.15	60000	1036.7	0.7
0.3997	353.15	70000	1040.2	0.7
0.3997	353.15	80000	1043.6	0.7
0.3997	353.15	90000	1047	0.7
0.3997	353.15	100000	1050.4	0.8
0.3997	353.15	110000	1053.6	0.8
0.3997	353.15	120000	1056.8	0.8
0.3997	353.15	130000	1060	0.8
0.3997	353.15	140000	1063	0.8
0.3997	373.15	100	999.2	0.7
0.3997	373.15	500	999.4	0.7
0.3997	373.15	1000	999.6	0.7
0.3997	373.15	2000	1000.1	0.7
0.3997	373.15	5000	1001.4	0.7
0.3997	373.15	10000	1003.6	0.7
0.3997	373.15	15000	1005.7	0.7
0.3997	373.15	20000	1007.8	0.7
0.3997	373.15	30000	1012	0.7
0.3997	373.15	40000	1016	0.7
0.3997	373.15	50000	1019.8	0.7
0.3997	373.15	60000	1023.6	0.7
0.3997	373.15	70000	1027.3	0.7
0.3997	373.15	80000	1031	0.7
0.3997	373.15	90000	1034.5	0.7
0.3997	373.15	100000	1038	0.7
0.3997	373.15	110000	1041.4	0.7
0.3997	373.15	120000	1044.8	0.8
0.3997	373.15	130000	1048.1	0.8
0.3997	373.15	140000	1051.3	0.8
0.3997	393.15	100	983.2	0.7
0.3997	393.15	500	983.5	0.7
0.3997	393.15	1000	983.7	0.7
0.3997	393.15	2000	984.2	0.7
0.3997	393.15	5000	985.6	0.7
0.3997	393.15	10000	988	0.7
0.3997	393.15	15000	990.3	0.7
0.3997	393.15	20000	992.7	0.7
0.3997	393.15	30000	997.1	0.7
0.3997	393.15	40000	1001.4	0.7
0.3997	393.15	50000	1005.4	0.7
0.3997	393.15	60000	1009.6	0.7
0.3997	393.15	70000	1013.6	0.7
0.3997	393.15	80000	1017.3	0.7
0.3997	393.15	90000	1021.2	0.7
0.3997	393.15	100000	1024.8	0.7
0.3997	393.15	110000	1028.5	0.7
0.3997	393.15	120000	1032	0.7
0.3997	393.15	130000	1035.4	0.7
0.3997	393.15	140000	1038.9	0.8

System: diethanolamine + water; phases: Liquid
Property: Viscosity, Pa*s (Liquid); method: Falling or rolling sphere viscometry
Mass fraction of diethanolamine	Temperature, K	Pressure, kPa	Viscosity, Pa*s	uncertainty
0.0993	293.15	100	0.001493	4.9e-05
0.0993	293.15	5000	0.0014899	4.89e-05
0.0993	293.15	10000	0.0014858	4.88e-05
0.0993	293.15	15000	0.00149	4.89e-05
0.0993	293.15	20000	0.001487	4.88e-05
0.0993	293.15	25000	0.0014875	4.88e-05
0.0993	293.15	30000	0.0014871	4.88e-05
0.0993	293.15	40000	0.0014862	4.88e-05
0.0993	293.15	60000	0.0014873	4.88e-05
0.0993	293.15	80000	0.0014899	4.89e-05
0.0993	293.15	100000	0.0014944	4.91e-05
0.0993	313.15	100	0.0009237	3.03e-05
0.0993	313.15	5000	0.000915	3e-05
0.0993	313.15	10000	0.0009172	3.01e-05
0.0993	313.15	15000	0.0009188	3.02e-05
0.0993	313.15	20000	0.0009192	3.02e-05
0.0993	313.15	25000	0.0009215	3.03e-05
0.0993	313.15	30000	0.0009226	3.03e-05
0.0993	313.15	40000	0.0009253	3.04e-05
0.0993	313.15	60000	0.0009334	3.06e-05
0.0993	313.15	80000	0.0009414	3.09e-05
0.0993	313.15	100000	0.0009509	3.12e-05
0.0993	333.15	100	0.0006268	2.06e-05
0.0993	333.15	5000	0.0006258	2.05e-05
0.0993	333.15	10000	0.0006274	2.06e-05
0.0993	333.15	15000	0.0006269	2.06e-05
0.0993	333.15	20000	0.0006303	2.07e-05
0.0993	333.15	25000	0.0006312	2.07e-05
0.0993	333.15	30000	0.0006339	2.08e-05
0.0993	333.15	40000	0.0006383	2.1e-05
0.0993	333.15	60000	0.0006452	2.12e-05
0.0993	333.15	80000	0.0006532	2.14e-05
0.0993	333.15	100000	0.0006623	2.17e-05
0.0993	353.15	100	0.0004595	1.51e-05
0.0993	353.15	5000	0.0004583	1.51e-05
0.0993	353.15	10000	0.0004614	1.52e-05
0.0993	353.15	15000	0.0004631	1.52e-05
0.0993	353.15	20000	0.000464	1.52e-05
0.0993	353.15	25000	0.0004671	1.53e-05
0.0993	353.15	30000	0.0004692	1.54e-05
0.0993	353.15	40000	0.0004733	1.55e-05
0.0993	353.15	60000	0.0004815	1.58e-05
0.0993	353.15	80000	0.0004886	1.6e-05
0.0993	353.15	100000	0.0004971	1.63e-05
0.0993	373.15	5000	0.0003586	1.18e-05
0.0993	373.15	10000	0.0003611	1.19e-05
0.0993	373.15	15000	0.0003635	1.19e-05
0.0993	373.15	20000	0.0003652	1.2e-05
0.0993	373.15	25000	0.0003672	1.21e-05
0.0993	373.15	30000	0.0003689	1.21e-05
0.0993	373.15	40000	0.0003724	1.22e-05
0.0993	373.15	60000	0.0003807	1.25e-05
0.0993	373.15	80000	0.0003871	1.27e-05
0.0993	373.15	100000	0.0003943	1.3e-05
0.0993	393.15	5000	0.0002926	9.6e-06
0.0993	393.15	10000	0.0002943	9.7e-06
0.0993	393.15	15000	0.0002964	9.7e-06
0.0993	393.15	20000	0.0002989	9.8e-06
0.0993	393.15	25000	0.000301	9.9e-06
0.0993	393.15	30000	0.0003024	9.9e-06
0.0993	393.15	40000	0.0003047	1e-05
0.0993	393.15	60000	0.0003113	1.02e-05
0.0993	393.15	80000	0.0003178	1.04e-05
0.0993	393.15	100000	0.0003233	1.06e-05
0.2	293.15	100	0.0022185	7.29e-05
0.2	293.15	5000	0.0022149	7.27e-05
0.2	293.15	10000	0.0022135	7.27e-05
0.2	293.15	15000	0.0022172	7.28e-05
0.2	293.15	20000	0.0022169	7.28e-05
0.2	293.15	25000	0.0022178	7.28e-05
0.2	293.15	30000	0.0022199	7.29e-05
0.2	293.15	40000	0.0022212	7.3e-05
0.2	293.15	60000	0.0022424	7.37e-05
0.2	293.15	80000	0.0022596	7.42e-05
0.2	293.15	100000	0.0022773	7.48e-05
0.2	313.15	100	0.0013042	4.28e-05
0.2	313.15	5000	0.001292	4.24e-05
0.2	313.15	10000	0.001296	4.26e-05
0.2	313.15	15000	0.0013011	4.27e-05
0.2	313.15	20000	0.0013033	4.28e-05
0.2	313.15	25000	0.0013087	4.3e-05
0.2	313.15	30000	0.001312	4.31e-05
0.2	313.15	40000	0.0013178	4.33e-05
0.2	313.15	60000	0.0013346	4.38e-05
0.2	313.15	80000	0.0013525	4.44e-05
0.2	313.15	100000	0.0013707	4.5e-05
0.2	333.15	100	0.0008581	2.82e-05
0.2	333.15	5000	0.0008575	2.82e-05
0.2	333.15	10000	0.0008602	2.83e-05
0.2	333.15	15000	0.0008632	2.84e-05
0.2	333.15	20000	0.0008673	2.85e-05
0.2	333.15	25000	0.0008717	2.86e-05
0.2	333.15	30000	0.0008763	2.88e-05
0.2	333.15	40000	0.0008845	2.91e-05
0.2	333.15	60000	0.0008989	2.95e-05
0.2	333.15	80000	0.0009136	3e-05
0.2	333.15	100000	0.0009264	3.04e-05
0.2	353.15	100	0.0006088	2e-05
0.2	353.15	5000	0.0006083	2e-05
0.2	353.15	10000	0.0006136	2.02e-05
0.2	353.15	15000	0.0006167	2.03e-05
0.2	353.15	20000	0.0006198	2.04e-05
0.2	353.15	25000	0.0006239	2.05e-05
0.2	353.15	30000	0.0006271	2.06e-05
0.2	353.15	40000	0.0006333	2.08e-05
0.2	353.15	60000	0.000646	2.12e-05
0.2	353.15	80000	0.0006588	2.16e-05
0.2	353.15	100000	0.0006731	2.21e-05
0.2	373.15	5000	0.0004622	1.52e-05
0.2	373.15	10000	0.0004646	1.53e-05
0.2	373.15	15000	0.000467	1.53e-05
0.2	373.15	20000	0.0004698	1.54e-05
0.2	373.15	25000	0.0004729	1.55e-05
0.2	373.15	30000	0.0004761	1.56e-05
0.2	373.15	40000	0.000482	1.58e-05
0.2	373.15	60000	0.000492	1.62e-05
0.2	373.15	80000	0.0005046	1.66e-05
0.2	373.15	100000	0.0005153	1.69e-05
0.2	393.15	5000	0.0003644	1.2e-05
0.2	393.15	10000	0.0003676	1.21e-05
0.2	393.15	15000	0.00037	1.22e-05
0.2	393.15	20000	0.0003724	1.22e-05
0.2	393.15	25000	0.0003748	1.23e-05
0.2	393.15	30000	0.0003769	1.24e-05
0.2	393.15	40000	0.0003818	1.25e-05
0.2	393.15	60000	0.0003919	1.29e-05
0.2	393.15	80000	0.0004017	1.32e-05
0.2	393.15	100000	0.0004114	1.35e-05
0.3002	293.15	100	0.003633	0.0001194
0.3002	293.15	5000	0.0036166	0.0001189
0.3002	293.15	10000	0.0036346	0.0001195
0.3002	293.15	15000	0.0036339	0.0001195
0.3002	293.15	20000	0.0036607	0.0001203
0.3002	293.15	25000	0.0036764	0.0001209
0.3002	293.15	30000	0.0036878	0.0001212
0.3002	293.15	40000	0.0037139	0.0001221
0.3002	293.15	60000	0.0037657	0.0001238
0.3002	293.15	80000	0.0038176	0.0001255
0.3002	293.15	100000	0.0038744	0.0001274
0.3002	313.15	100	0.0019799	6.51e-05
0.3002	313.15	5000	0.001976	6.5e-05
0.3002	313.15	10000	0.0019831	6.52e-05
0.3002	313.15	15000	0.0019928	6.55e-05
0.3002	313.15	20000	0.0020039	6.59e-05
0.3002	313.15	25000	0.0020117	6.61e-05
0.3002	313.15	30000	0.0020225	6.65e-05
0.3002	313.15	40000	0.0020393	6.7e-05
0.3002	313.15	60000	0.0020801	6.84e-05
0.3002	313.15	80000	0.0021192	6.97e-05
0.3002	313.15	100000	0.0021585	7.1e-05
0.3002	333.15	100	0.001247	4.1e-05
0.3002	333.15	5000	0.0012433	4.09e-05
0.3002	333.15	10000	0.0012484	4.1e-05
0.3002	333.15	15000	0.0012539	4.12e-05
0.3002	333.15	20000	0.0012576	4.13e-05
0.3002	333.15	25000	0.0012655	4.16e-05
0.3002	333.15	30000	0.0012707	4.18e-05
0.3002	333.15	40000	0.0012827	4.22e-05
0.3002	333.15	60000	0.001312	4.31e-05
0.3002	333.15	80000	0.0013373	4.4e-05
0.3002	333.15	100000	0.001365	4.49e-05
0.3002	353.15	100	0.0008528	2.8e-05
0.3002	353.15	5000	0.0008459	2.78e-05
0.3002	353.15	10000	0.0008544	2.81e-05
0.3002	353.15	15000	0.0008578	2.82e-05
0.3002	353.15	20000	0.0008642	2.84e-05
0.3002	353.15	25000	0.0008704	2.86e-05
0.3002	353.15	30000	0.0008768	2.88e-05
0.3002	353.15	40000	0.0008887	2.92e-05
0.3002	353.15	60000	0.0009096	2.99e-05
0.3002	353.15	80000	0.0009309	3.06e-05
0.3002	353.15	100000	0.0009514	3.13e-05
0.3002	373.15	5000	0.0006145	2.02e-05
0.3002	373.15	10000	0.0006194	2.04e-05
0.3002	373.15	15000	0.0006247	2.05e-05
0.3002	373.15	20000	0.0006304	2.07e-05
0.3002	373.15	25000	0.0006353	2.09e-05
0.3002	373.15	30000	0.0006417	2.11e-05
0.3002	373.15	40000	0.0006515	2.14e-05
0.3002	373.15	60000	0.0006676	2.19e-05
0.3002	373.15	80000	0.0006851	2.25e-05
0.3002	373.15	100000	0.0007019	2.31e-05
0.3002	393.15	5000	0.0004675	1.54e-05
0.3002	393.15	10000	0.0004721	1.55e-05
0.3002	393.15	15000	0.0004778	1.57e-05
0.3002	393.15	20000	0.0004809	1.58e-05
0.3002	393.15	25000	0.0004848	1.59e-05
0.3002	393.15	30000	0.0004908	1.61e-05
0.3002	393.15	40000	0.0004967	1.63e-05
0.3002	393.15	60000	0.0005122	1.68e-05
0.3002	393.15	80000	0.000527	1.73e-05
0.3002	393.15	100000	0.0005417	1.78e-05
0.3997	293.15	100	0.0062479	0.0002055
0.3997	293.15	5000	0.0063506	0.0002089
0.3997	293.15	10000	0.0064164	0.0002111
0.3997	293.15	15000	0.0064632	0.0002126
0.3997	293.15	20000	0.0065335	0.0002149
0.3997	293.15	25000	0.0065982	0.000217
0.3997	293.15	30000	0.0065996	0.0002171
0.3997	293.15	40000	0.0066832	0.0002198
0.3997	293.15	60000	0.0068533	0.0002254
0.3997	293.15	80000	0.0069727	0.0002294
0.3997	293.15	100000	0.0071686	0.0002358
0.3997	313.15	100	0.0031677	0.0001042
0.3997	313.15	5000	0.0031745	0.0001044
0.3997	313.15	10000	0.0032222	0.000106
0.3997	313.15	15000	0.003248	0.0001069
0.3997	313.15	20000	0.0032391	0.0001066
0.3997	313.15	25000	0.0032797	0.0001079
0.3997	313.15	30000	0.0033033	0.0001087
0.3997	313.15	40000	0.0033606	0.0001106
0.3997	313.15	60000	0.0034383	0.0001131
0.3997	313.15	80000	0.0035379	0.0001164
0.3997	313.15	100000	0.0036251	0.0001193
0.3997	333.15	100	0.0018849	6.2e-05
0.3997	333.15	5000	0.0018723	6.16e-05
0.3997	333.15	10000	0.0018864	6.21e-05
0.3997	333.15	15000	0.0019001	6.25e-05
0.3997	333.15	20000	0.0019116	6.29e-05
0.3997	333.15	25000	0.0018964	6.24e-05
0.3997	333.15	30000	0.0019434	6.39e-05
0.3997	333.15	40000	0.0019733	6.49e-05
0.3997	333.15	60000	0.0020288	6.67e-05
0.3997	333.15	80000	0.0020858	6.86e-05
0.3997	333.15	100000	0.0021361	7.03e-05
0.3997	353.15	100	0.001226	4.03e-05
0.3997	353.15	5000	0.0012308	4.05e-05
0.3997	353.15	10000	0.0012388	4.08e-05
0.3997	353.15	15000	0.0012468	4.1e-05
0.3997	353.15	20000	0.0012549	4.13e-05
0.3997	353.15	25000	0.0012643	4.16e-05
0.3997	353.15	30000	0.001275	4.19e-05
0.3997	353.15	40000	0.0012925	4.25e-05
0.3997	353.15	60000	0.0013349	4.39e-05
0.3997	353.15	80000	0.0013714	4.51e-05
0.3997	353.15	100000	0.001409	4.64e-05
0.3997	373.15	5000	0.0008545	2.81e-05
0.3997	373.15	10000	0.000863	2.84e-05
0.3997	373.15	15000	0.0008727	2.87e-05
0.3997	373.15	20000	0.0008808	2.9e-05
0.3997	373.15	25000	0.000889	2.92e-05
0.3997	373.15	30000	0.0009	2.96e-05
0.3997	373.15	40000	0.0009123	3e-05
0.3997	373.15	60000	0.0009445	3.11e-05
0.3997	373.15	80000	0.0009763	3.21e-05
0.3997	373.15	100000	0.0010033	3.3e-05
0.3997	393.15	5000	0.0006194	2.04e-05
0.3997	393.15	10000	0.0006265	2.06e-05
0.3997	393.15	15000	0.0006495	2.14e-05
0.3997	393.15	20000	0.0006555	2.16e-05
0.3997	393.15	25000	0.0006626	2.18e-05
0.3997	393.15	30000	0.0006682	2.2e-05
0.3997	393.15	40000	0.000681	2.24e-05
0.3997	393.15	60000	0.0007072	2.33e-05
0.3997	393.15	80000	0.0007305	2.4e-05
0.3997	393.15	100000	0.0007538	2.48e-05

System: diethanolamine + water; phases: Liquid
Fixed: Pressure, kPa = 100
Property: Viscosity, Pa*s (Liquid); method: Concentric cylinders viscometry
Mass fraction of diethanolamine	Temperature, K	Viscosity, Pa*s	uncertainty
0.1	293.15	0.001486	3.1e-05
0.1	313.15	0.000914	1.9e-05
0.1	333.15	0.00064	1.4e-05
0.1	353.15	0.000474	1.1e-05
0.2	293.15	0.002287	4.7e-05
0.2	313.15	0.001343	2.8e-05
0.2	333.15	0.000871	1.9e-05
0.2	353.15	0.000627	1.4e-05
0.3	293.15	0.003621	7.4e-05
0.3	313.15	0.001977	4.1e-05
0.3	333.15	0.001248	2.6e-05
0.3	353.15	0.000866	1.8e-05
0.4	293.15	0.006311	0.000129
0.4	313.15	0.003197	6.6e-05
0.4	333.15	0.001864	3.9e-05
0.4	353.15	0.001244	2.6e-05

System: triethanolamine + water; phases: Liquid
Property: Mass density, kg/m3 (Liquid); method: Vibrating tube method
Mass fraction of triethanolamine	Temperature, K	Pressure, kPa	Mass density, kg/m3	uncertainty
0.0992	293.15	100	1013.3	0.7
0.0992	293.15	500	1013.5	0.7
0.0992	293.15	1000	1013.7	0.7
0.0992	293.15	2000	1014.2	0.7
0.0992	293.15	5000	1015.5	0.7
0.0992	293.15	10000	1017.6	0.7
0.0992	293.15	15000	1019.6	0.7
0.0992	293.15	20000	1021.8	0.7
0.0992	293.15	30000	1026	0.7
0.0992	293.15	40000	1030	0.7
0.0992	293.15	50000	1034	0.7
0.0992	293.15	60000	1037.9	0.7
0.0992	293.15	70000	1041.8	0.7
0.0992	293.15	80000	1045.5	0.7
0.0992	293.15	90000	1049.1	0.7
0.0992	293.15	100000	1052.9	0.7
0.0992	293.15	110000	1056.3	0.8
0.0992	293.15	120000	1059.8	0.8
0.0992	293.15	130000	1063.3	0.8
0.0992	293.15	140000	1066.5	0.8
0.0992	313.15	100	1006.9	0.7
0.0992	313.15	500	1007	0.7
0.0992	313.15	1000	1007.2	0.7
0.0992	313.15	2000	1007.6	0.7
0.0992	313.15	5000	1008.9	0.7
0.0992	313.15	10000	1010.9	0.7
0.0992	313.15	15000	1013	0.7
0.0992	313.15	20000	1015	0.7
0.0992	313.15	30000	1019.1	0.7
0.0992	313.15	40000	1023	0.7
0.0992	313.15	50000	1026.8	0.7
0.0992	313.15	60000	1030.7	0.7
0.0992	313.15	70000	1034.4	0.7
0.0992	313.15	80000	1038	0.7
0.0992	313.15	90000	1041.6	0.7
0.0992	313.15	100000	1045.2	0.7
0.0992	313.15	110000	1048.6	0.7
0.0992	313.15	120000	1052	0.8
0.0992	313.15	130000	1055.3	0.8
0.0992	313.15	140000	1058.5	0.8
0.0992	333.15	100	997.2	0.7
0.0992	333.15	500	997.5	0.7
0.0992	333.15	1000	997.7	0.7
0.0992	333.15	2000	998.1	0.7
0.0992	333.15	5000	999.3	0.7
0.0992	333.15	10000	1001.4	0.7
0.0992	333.15	15000	1003.5	0.7
0.0992	333.15	20000	1005.5	0.7
0.0992	333.15	30000	1009.6	0.7
0.0992	333.15	40000	1013.6	0.7
0.0992	333.15	50000	1017.5	0.7
0.0992	333.15	60000	1021.3	0.7
0.0992	333.15	70000	1024.8	0.7
0.0992	333.15	80000	1028.6	0.7
0.0992	333.15	90000	1032	0.7
0.0992	333.15	100000	1035.6	0.7
0.0992	333.15	110000	1039	0.7
0.0992	333.15	120000	1042.5	0.7
0.0992	333.15	130000	1045.8	0.8
0.0992	333.15	140000	1049.1	0.8
0.0992	353.15	100	985.7	0.7
0.0992	353.15	500	985.7	0.7
0.0992	353.15	1000	985.9	0.7
0.0992	353.15	2000	986.4	0.7
0.0992	353.15	5000	987.7	0.7
0.0992	353.15	10000	989.9	0.7
0.0992	353.15	15000	992.1	0.7
0.0992	353.15	20000	994.1	0.7
0.0992	353.15	30000	998.2	0.7
0.0992	353.15	40000	1002.4	0.7
0.0992	353.15	50000	1006.2	0.7
0.0992	353.15	60000	1010.2	0.7
0.0992	353.15	70000	1014	0.7
0.0992	353.15	80000	1017.6	0.7
0.0992	353.15	90000	1021.2	0.7
0.0992	353.15	100000	1024.8	0.7
0.0992	353.15	110000	1028.4	0.7
0.0992	353.15	120000	1031.8	0.7
0.0992	353.15	130000	1035.2	0.7
0.0992	353.15	140000	1038.4	0.7
0.0992	373.15	100	971.7	0.7
0.0992	373.15	500	971.9	0.7
0.0992	373.15	1000	972.2	0.7
0.0992	373.15	2000	972.6	0.7
0.0992	373.15	5000	973.9	0.7
0.0992	373.15	10000	976.3	0.7
0.0992	373.15	15000	978.5	0.7
0.0992	373.15	20000	980.6	0.7
0.0992	373.15	30000	985.1	0.7
0.0992	373.15	40000	989.4	0.7
0.0992	373.15	50000	993.4	0.7
0.0992	373.15	60000	997.4	0.7
0.0992	373.15	70000	1001.4	0.7
0.0992	373.15	80000	1005.3	0.7
0.0992	373.15	90000	1009.1	0.7
0.0992	373.15	100000	1012.7	0.7
0.0992	373.15	110000	1016.4	0.7
0.0992	373.15	120000	1019.9	0.7
0.0992	373.15	130000	1023.3	0.7
0.0992	373.15	140000	1026.8	0.7
0.0992	393.15	100	956.1	0.7
0.0992	393.15	500	956.4	0.7
0.0992	393.15	1000	956.6	0.7
0.0992	393.15	2000	957.1	0.7
0.0992	393.15	5000	958.6	0.7
0.0992	393.15	10000	961.1	0.7
0.0992	393.15	15000	963.4	0.7
0.0992	393.15	20000	965.9	0.7
0.0992	393.15	30000	970.4	0.7
0.0992	393.15	40000	974.9	0.7
0.0992	393.15	50000	979.2	0.7
0.0992	393.15	60000	983.5	0.7
0.0992	393.15	70000	987.7	0.7
0.0992	393.15	80000	991.7	0.7
0.0992	393.15	90000	995.7	0.7
0.0992	393.15	100000	999.4	0.7
0.0992	393.15	110000	1003.3	0.7
0.0992	393.15	120000	1006.9	0.7
0.0992	393.15	130000	1010.4	0.7
0.0992	393.15	140000	1014.1	0.7
0.2	293.15	100	1029.5	0.7
0.2	293.15	500	1029.5	0.7
0.2	293.15	1000	1029.7	0.7
0.2	293.15	2000	1030.2	0.7
0.2	293.15	5000	1031.4	0.7
0.2	293.15	10000	1033.4	0.7
0.2	293.15	15000	1035.4	0.7
0.2	293.15	20000	1037.4	0.7
0.2	293.15	30000	1041.4	0.7
0.2	293.15	40000	1045.2	0.7
0.2	293.15	50000	1049	0.7
0.2	293.15	60000	1052.7	0.7
0.2	293.15	70000	1056.4	0.7
0.2	293.15	80000	1059.8	0.7
0.2	293.15	90000	1063.4	0.8
0.2	293.15	100000	1066.9	0.8
0.2	293.15	110000	1070.2	0.8
0.2	293.15	120000	1073.6	0.8
0.2	293.15	130000	1077	0.8
0.2	293.15	140000	1080.1	0.9
0.2	313.15	100	1021.9	0.7
0.2	313.15	500	1022.1	0.7
0.2	313.15	1000	1022.3	0.7
0.2	313.15	2000	1022.7	0.7
0.2	313.15	5000	1023.9	0.7
0.2	313.15	10000	1025.9	0.7
0.2	313.15	15000	1027.8	0.7
0.2	313.15	20000	1029.7	0.7
0.2	313.15	30000	1033.7	0.7
0.2	313.15	40000	1037.6	0.7
0.2	313.15	50000	1041.2	0.7
0.2	313.15	60000	1044.9	0.7
0.2	313.15	70000	1048.5	0.7
0.2	313.15	80000	1051.9	0.7
0.2	313.15	90000	1055.3	0.7
0.2	313.15	100000	1058.8	0.8
0.2	313.15	110000	1062.1	0.8
0.2	313.15	120000	1065.6	0.8
0.2	313.15	130000	1068.7	0.8
0.2	313.15	140000	1071.9	0.8
0.2	333.15	100	1011.6	0.7
0.2	333.15	500	1011.8	0.7
0.2	333.15	1000	1012	0.7
0.2	333.15	2000	1012.4	0.7
0.2	333.15	5000	1013.6	0.7
0.2	333.15	10000	1015.7	0.7
0.2	333.15	15000	1017.7	0.7
0.2	333.15	20000	1019.7	0.7
0.2	333.15	30000	1023.6	0.7
0.2	333.15	40000	1027.7	0.7
0.2	333.15	50000	1031.4	0.7
0.2	333.15	60000	1035	0.7
0.2	333.15	70000	1038.6	0.7
0.2	333.15	80000	1042.1	0.7
0.2	333.15	90000	1045.6	0.7
0.2	333.15	100000	1049.1	0.7
0.2	333.15	110000	1052.3	0.8
0.2	333.15	120000	1055.8	0.8
0.2	333.15	130000	1059	0.8
0.2	333.15	140000	1062.4	0.8
0.2	353.15	100	999.5	0.7
0.2	353.15	500	999.6	0.7
0.2	353.15	1000	999.8	0.7
0.2	353.15	2000	1000.1	0.7
0.2	353.15	5000	1001.5	0.7
0.2	353.15	10000	1003.7	0.7
0.2	353.15	15000	1005.8	0.7
0.2	353.15	20000	1007.8	0.7
0.2	353.15	30000	1011.9	0.7
0.2	353.15	40000	1015.9	0.7
0.2	353.15	50000	1019.8	0.7
0.2	353.15	60000	1023.7	0.7
0.2	353.15	70000	1027.4	0.7
0.2	353.15	80000	1031.1	0.7
0.2	353.15	90000	1034.5	0.7
0.2	353.15	100000	1038.1	0.7
0.2	353.15	110000	1041.5	0.7
0.2	353.15	120000	1044.9	0.7
0.2	353.15	130000	1048.2	0.8
0.2	353.15	140000	1051.5	0.8
0.2	373.15	100	985.1	0.7
0.2	373.15	500	985.3	0.7
0.2	373.15	1000	985.5	0.7
0.2	373.15	2000	986.1	0.7
0.2	373.15	5000	987.4	0.7
0.2	373.15	10000	989.7	0.7
0.2	373.15	15000	991.9	0.7
0.2	373.15	20000	994	0.7
0.2	373.15	30000	998.4	0.7
0.2	373.15	40000	1002.6	0.7
0.2	373.15	50000	1006.7	0.7
0.2	373.15	60000	1010.6	0.7
0.2	373.15	70000	1014.5	0.7
0.2	373.15	80000	1018.5	0.7
0.2	373.15	90000	1022.1	0.7
0.2	373.15	100000	1025.7	0.7
0.2	373.15	110000	1029.4	0.7
0.2	373.15	120000	1032.9	0.7
0.2	373.15	130000	1036.2	0.7
0.2	373.15	140000	1039.7	0.8
0.2	393.15	100	969.2	0.7
0.2	393.15	500	969.5	0.7
0.2	393.15	1000	969.7	0.7
0.2	393.15	2000	970.2	0.7
0.2	393.15	5000	971.7	0.7
0.2	393.15	10000	974.2	0.7
0.2	393.15	15000	976.5	0.7
0.2	393.15	20000	978.9	0.7
0.2	393.15	30000	983.5	0.7
0.2	393.15	40000	988	0.7
0.2	393.15	50000	992.3	0.7
0.2	393.15	60000	996.5	0.7
0.2	393.15	70000	1000.7	0.7
0.2	393.15	80000	1004.6	0.7
0.2	393.15	90000	1008.6	0.7
0.2	393.15	100000	1012.3	0.7
0.2	393.15	110000	1016.1	0.7
0.2	393.15	120000	1019.8	0.7
0.2	393.15	130000	1023.4	0.7
0.2	393.15	140000	1026.9	0.7
0.2991	293.15	100	1046.1	0.7
0.2991	293.15	500	1046.2	0.7
0.2991	293.15	1000	1046.4	0.7
0.2991	293.15	2000	1046.8	0.7
0.2991	293.15	5000	1047.9	0.7
0.2991	293.15	10000	1049.8	0.7
0.2991	293.15	15000	1051.7	0.7
0.2991	293.15	20000	1053.7	0.7
0.2991	293.15	30000	1057.4	0.7
0.2991	293.15	40000	1061.1	0.7
0.2991	293.15	50000	1064.7	0.7
0.2991	293.15	60000	1068.3	0.7
0.2991	293.15	70000	1071.8	0.8
0.2991	293.15	80000	1075.1	0.8
0.2991	293.15	90000	1078.5	0.8
0.2991	293.15	100000	1081.8	0.8
0.2991	293.15	110000	1084.9	0.8
0.2991	293.15	120000	1088.2	0.8
0.2991	293.15	130000	1091.5	0.9
0.2991	293.15	140000	1094.5	0.9
0.2991	313.15	100	1037.4	0.7
0.2991	313.15	500	1037.5	0.7
0.2991	313.15	1000	1037.7	0.7
0.2991	313.15	2000	1038.1	0.7
0.2991	313.15	5000	1039.3	0.7
0.2991	313.15	10000	1041.2	0.7
0.2991	313.15	15000	1043.1	0.7
0.2991	313.15	20000	1045	0.7
0.2991	313.15	30000	1048.8	0.7
0.2991	313.15	40000	1052.6	0.7
0.2991	313.15	50000	1056.1	0.7
0.2991	313.15	60000	1059.7	0.7
0.2991	313.15	70000	1063.2	0.7
0.2991	313.15	80000	1066.6	0.8
0.2991	313.15	90000	1069.9	0.8
0.2991	313.15	100000	1073.3	0.8
0.2991	313.15	110000	1076.4	0.8
0.2991	313.15	120000	1079.6	0.8
0.2991	313.15	130000	1082.8	0.9
0.2991	313.15	140000	1085.9	0.9
0.2991	333.15	100	1026.3	0.7
0.2991	333.15	500	1026.5	0.7
0.2991	333.15	1000	1026.7	0.7
0.2991	333.15	2000	1027.2	0.7
0.2991	333.15	5000	1028.3	0.7
0.2991	333.15	10000	1030.4	0.7
0.2991	333.15	15000	1032.4	0.7
0.2991	333.15	20000	1034.3	0.7
0.2991	333.15	30000	1038.2	0.7
0.2991	333.15	40000	1042.1	0.7
0.2991	333.15	50000	1045.7	0.7
0.2991	333.15	60000	1049.4	0.7
0.2991	333.15	70000	1052.9	0.7
0.2991	333.15	80000	1056.3	0.7
0.2991	333.15	90000	1059.7	0.8
0.2991	333.15	100000	1063.2	0.8
0.2991	333.15	110000	1066.3	0.8
0.2991	333.15	120000	1069.8	0.8
0.2991	333.15	130000	1072.9	0.8
0.2991	333.15	140000	1076	0.8
0.2991	353.15	100	1013.6	0.7
0.2991	353.15	500	1013.7	0.7
0.2991	353.15	1000	1013.9	0.7
0.2991	353.15	2000	1014.3	0.7
0.2991	353.15	5000	1015.6	0.7
0.2991	353.15	10000	1017.8	0.7
0.2991	353.15	15000	1019.9	0.7
0.2991	353.15	20000	1021.9	0.7
0.2991	353.15	30000	1025.9	0.7
0.2991	353.15	40000	1029.9	0.7
0.2991	353.15	50000	1033.8	0.7
0.2991	353.15	60000	1037.6	0.7
0.2991	353.15	70000	1041.2	0.7
0.2991	353.15	80000	1044.8	0.7
0.2991	353.15	90000	1048.3	0.7
0.2991	353.15	100000	1051.8	0.8
0.2991	353.15	110000	1055.2	0.8
0.2991	353.15	120000	1058.5	0.8
0.2991	353.15	130000	1061.8	0.8
0.2991	353.15	140000	1065	0.8
0.2991	373.15	100	999.2	0.7
0.2991	373.15	500	999.3	0.7
0.2991	373.15	1000	999.6	0.7
0.2991	373.15	2000	1000.1	0.7
0.2991	373.15	5000	1001.5	0.7
0.2991	373.15	10000	1003.8	0.7
0.2991	373.15	15000	1006	0.7
0.2991	373.15	20000	1008.2	0.7
0.2991	373.15	30000	1012.5	0.7
0.2991	373.15	40000	1016.8	0.7
0.2991	373.15	50000	1020.7	0.7
0.2991	373.15	60000	1024.6	0.7
0.2991	373.15	70000	1028.4	0.7
0.2991	373.15	80000	1032.4	0.7
0.2991	373.15	90000	1036	0.7
0.2991	373.15	100000	1039.5	0.7
0.2991	373.15	110000	1043.1	0.7
0.2991	373.15	120000	1046.8	0.8
0.2991	373.15	130000	1050.1	0.8
0.2991	373.15	140000	1053.4	0.8
0.2991	393.15	100	982.9	0.7
0.2991	393.15	500	983.3	0.7
0.2991	393.15	1000	983.5	0.7
0.2991	393.15	2000	984	0.7
0.2991	393.15	5000	985.5	0.7
0.2991	393.15	10000	988	0.7
0.2991	393.15	15000	990.3	0.7
0.2991	393.15	20000	992.7	0.7
0.2991	393.15	30000	997.3	0.7
0.2991	393.15	40000	1001.8	0.7
0.2991	393.15	50000	1006	0.7
0.2991	393.15	60000	1010.2	0.7
0.2991	393.15	70000	1014.4	0.7
0.2991	393.15	80000	1018.3	0.7
0.2991	393.15	90000	1022.3	0.7
0.2991	393.15	100000	1026.1	0.7
0.2991	393.15	110000	1029.8	0.7
0.2991	393.15	120000	1033.4	0.7
0.2991	393.15	130000	1036.9	0.7
0.2991	393.15	140000	1040.5	0.8
0.4	293.15	100	1065.2	0.7
0.4	293.15	500	1065.3	0.7
0.4	293.15	1000	1065.4	0.7
0.4	293.15	2000	1065.8	0.7
0.4	293.15	5000	1066.9	0.7
0.4	293.15	10000	1068.7	0.7
0.4	293.15	15000	1070.5	0.7
0.4	293.15	20000	1072.3	0.7
0.4	293.15	30000	1075.8	0.7
0.4	293.15	40000	1079.3	0.7
0.4	293.15	50000	1082.7	0.7
0.4	293.15	60000	1086.1	0.8
0.4	293.15	70000	1089.4	0.8
0.4	293.15	80000	1092.5	0.8
0.4	293.15	90000	1095.8	0.8
0.4	293.15	100000	1098.9	0.8
0.4	293.15	110000	1101.8	0.9
0.4	293.15	120000	1104.9	0.9
0.4	293.15	130000	1107.9	0.9
0.4	293.15	140000	1110.8	1
0.4	313.15	100	1055.1	0.7
0.4	313.15	500	1055.3	0.7
0.4	313.15	1000	1055.4	0.7
0.4	313.15	2000	1055.8	0.7
0.4	313.15	5000	1056.9	0.7
0.4	313.15	10000	1058.8	0.7
0.4	313.15	15000	1060.6	0.7
0.4	313.15	20000	1062.4	0.7
0.4	313.15	30000	1066	0.7
0.4	313.15	40000	1069.7	0.7
0.4	313.15	50000	1073.2	0.7
0.4	313.15	60000	1076.6	0.8
0.4	313.15	70000	1079.9	0.8
0.4	313.15	80000	1083.1	0.8
0.4	313.15	90000	1086.3	0.8
0.4	313.15	100000	1089.5	0.8
0.4	313.15	110000	1092.7	0.9
0.4	313.15	120000	1095.7	0.9
0.4	313.15	130000	1098.7	0.9
0.4	313.15	140000	1101.7	0.9
0.4	333.15	100	1043.1	0.7
0.4	333.15	500	1043.3	0.7
0.4	333.15	1000	1043.5	0.7
0.4	333.15	2000	1043.9	0.7
0.4	333.15	5000	1045.1	0.7
0.4	333.15	10000	1047.1	0.7
0.4	333.15	15000	1049	0.7
0.4	333.15	20000	1050.9	0.7
0.4	333.15	30000	1054.7	0.7
0.4	333.15	40000	1058.4	0.7
0.4	333.15	50000	1062	0.7
0.4	333.15	60000	1065.6	0.7
0.4	333.15	70000	1069	0.8
0.4	333.15	80000	1072.3	0.8
0.4	333.15	90000	1075.5	0.8
0.4	333.15	100000	1078.9	0.8
0.4	333.15	110000	1082	0.8
0.4	333.15	120000	1085.3	0.8
0.4	333.15	130000	1088.3	0.9
0.4	333.15	140000	1091.4	0.9
0.4	353.15	100	1029.7	0.7
0.4	353.15	500	1029.8	0.7
0.4	353.15	1000	1030	0.7
0.4	353.15	2000	1030.4	0.7
0.4	353.15	5000	1031.7	0.7
0.4	353.15	10000	1033.9	0.7
0.4	353.15	15000	1035.8	0.7
0.4	353.15	20000	1037.9	0.7
0.4	353.15	30000	1041.9	0.7
0.4	353.15	40000	1045.8	0.7
0.4	353.15	50000	1049.5	0.7
0.4	353.15	60000	1053.3	0.7
0.4	353.15	70000	1056.9	0.7
0.4	353.15	80000	1060.4	0.8
0.4	353.15	90000	1063.8	0.8
0.4	353.15	100000	1067.2	0.8
0.4	353.15	110000	1070.5	0.8
0.4	353.15	120000	1073.9	0.8
0.4	353.15	130000	1077.1	0.8
0.4	353.15	140000	1080.1	0.9
0.4	373.15	100	1014.6	0.7
0.4	373.15	500	1014.8	0.7
0.4	373.15	1000	1015	0.7
0.4	373.15	2000	1015.5	0.7
0.4	373.15	5000	1016.8	0.7
0.4	373.15	10000	1019.1	0.7
0.4	373.15	15000	1021.2	0.7
0.4	373.15	20000	1023.4	0.7
0.4	373.15	30000	1027.7	0.7
0.4	373.15	40000	1032	0.7
0.4	373.15	50000	1035.7	0.7
0.4	373.15	60000	1039.7	0.7
0.4	373.15	70000	1043.5	0.7
0.4	373.15	80000	1047.3	0.7
0.4	373.15	90000	1050.8	0.8
0.4	373.15	100000	1054.3	0.8
0.4	373.15	110000	1057.9	0.8
0.4	373.15	120000	1061.3	0.8
0.4	373.15	130000	1064.6	0.8
0.4	373.15	140000	1067.8	0.8
0.4	393.15	100	998.1	0.7
0.4	393.15	500	998.5	0.7
0.4	393.15	1000	998.6	0.7
0.4	393.15	2000	999.1	0.7
0.4	393.15	5000	1000.6	0.7
0.4	393.15	10000	1003.1	0.7
0.4	393.15	15000	1005.4	0.7
0.4	393.15	20000	1007.8	0.7
0.4	393.15	30000	1012.4	0.7
0.4	393.15	40000	1016.7	0.7
0.4	393.15	50000	1021	0.7
0.4	393.15	60000	1025.2	0.7
0.4	393.15	70000	1029.3	0.7
0.4	393.15	80000	1033.1	0.7
0.4	393.15	90000	1037.1	0.7
0.4	393.15	100000	1040.7	0.7
0.4	393.15	110000	1044.5	0.8
0.4	393.15	120000	1048.1	0.8
0.4	393.15	130000	1051.5	0.8
0.4	393.15	140000	1055	0.8

System: triethanolamine + water; phases: Liquid
Fixed: Pressure, kPa = 100
Property: Viscosity, Pa*s (Liquid); method: Concentric cylinders viscometry
Mass fraction of triethanolamine	Temperature, K	Viscosity, Pa*s	uncertainty
0.1	293.15	0.00141	2.9e-05
0.1	313.15	0.000881	1.9e-05
0.1	333.15	0.000621	1.4e-05
0.1	353.15	0.000469	1.1e-05
0.2	293.15	0.002066	4.3e-05
0.2	313.15	0.001244	2.6e-05
0.2	333.15	0.000821	1.8e-05
0.2	353.15	0.000569	1.3e-05
0.3	293.15	0.003197	6.6e-05
0.3	313.15	0.001786	3.7e-05
0.3	333.15	0.001173	2.5e-05
0.3	353.15	0.00081	1.7e-05
0.4	293.15	0.00534	0.00011
0.4	313.15	0.002756	5.7e-05
0.4	333.15	0.001669	3.5e-05
0.4	353.15	0.001125	2.4e-05

System: triethanolamine + water; phases: Liquid
Property: Viscosity, Pa*s (Liquid); method: Falling or rolling sphere viscometry
Mass fraction of triethanolamine	Temperature, K	Pressure, kPa	Viscosity, Pa*s	uncertainty
0.0992	293.15	100	0.0014285	4.69e-05
0.0992	293.15	5000	0.0014588	4.79e-05
0.0992	293.15	10000	0.001455	4.78e-05
0.0992	293.15	15000	0.0014538	4.77e-05
0.0992	293.15	20000	0.0014497	4.76e-05
0.0992	293.15	25000	0.0014473	4.75e-05
0.0992	293.15	30000	0.0014458	4.75e-05
0.0992	293.15	40000	0.0014434	4.74e-05
0.0992	293.15	60000	0.0014398	4.73e-05
0.0992	293.15	80000	0.0014465	4.75e-05
0.0992	293.15	100000	0.0014477	4.75e-05
0.0992	313.15	100	0.000909	2.98e-05
0.0992	313.15	5000	0.0008937	2.93e-05
0.0992	313.15	10000	0.0008956	2.94e-05
0.0992	313.15	15000	0.0008964	2.94e-05
0.0992	313.15	20000	0.0008965	2.94e-05
0.0992	313.15	25000	0.0008977	2.95e-05
0.0992	313.15	30000	0.0008992	2.95e-05
0.0992	313.15	40000	0.0009027	2.96e-05
0.0992	313.15	60000	0.00091	2.99e-05
0.0992	313.15	80000	0.0009177	3.01e-05
0.0992	313.15	100000	0.0009261	3.04e-05
0.0992	333.15	100	0.0006124	2.01e-05
0.0992	333.15	5000	0.0006114	2.01e-05
0.0992	333.15	10000	0.0006149	2.02e-05
0.0992	333.15	15000	0.0006154	2.02e-05
0.0992	333.15	20000	0.0006178	2.03e-05
0.0992	333.15	25000	0.0006198	2.04e-05
0.0992	333.15	30000	0.0006221	2.04e-05
0.0992	333.15	40000	0.000625	2.05e-05
0.0992	333.15	60000	0.0006327	2.08e-05
0.0992	333.15	80000	0.0006418	2.11e-05
0.0992	333.15	100000	0.0006513	2.14e-05
0.0992	353.15	100	0.0004585	1.51e-05
0.0992	353.15	5000	0.000451	1.48e-05
0.0992	353.15	10000	0.0004541	1.49e-05
0.0992	353.15	15000	0.0004547	1.49e-05
0.0992	353.15	20000	0.0004578	1.5e-05
0.0992	353.15	25000	0.0004595	1.51e-05
0.0992	353.15	30000	0.0004619	1.52e-05
0.0992	353.15	40000	0.000466	1.53e-05
0.0992	353.15	60000	0.0004738	1.56e-05
0.0992	353.15	80000	0.0004813	1.58e-05
0.0992	353.15	100000	0.0004891	1.61e-05
0.0992	373.15	5000	0.0003584	1.18e-05
0.0992	373.15	10000	0.000356	1.17e-05
0.0992	373.15	15000	0.0003581	1.18e-05
0.0992	373.15	20000	0.0003595	1.18e-05
0.0992	373.15	25000	0.0003618	1.19e-05
0.0992	373.15	30000	0.0003632	1.19e-05
0.0992	373.15	40000	0.0003659	1.2e-05
0.0992	373.15	60000	0.0003738	1.23e-05
0.0992	373.15	80000	0.0003807	1.25e-05
0.0992	373.15	100000	0.0003871	1.27e-05
0.0992	393.15	5000	0.0002913	9.6e-06
0.0992	393.15	10000	0.0002912	9.6e-06
0.0992	393.15	15000	0.0002933	9.6e-06
0.0992	393.15	20000	0.000295	9.7e-06
0.0992	393.15	25000	0.0002963	9.7e-06
0.0992	393.15	30000	0.0002988	9.8e-06
0.0992	393.15	40000	0.0003022	9.9e-06
0.0992	393.15	60000	0.000308	1.01e-05
0.0992	393.15	80000	0.0003138	1.03e-05
0.0992	393.15	100000	0.00032	1.05e-05
0.2	293.15	100	0.0020375	6.69e-05
0.2	293.15	5000	0.0020357	6.69e-05
0.2	293.15	10000	0.0020351	6.68e-05
0.2	293.15	15000	0.00204	6.7e-05
0.2	293.15	20000	0.0020415	6.71e-05
0.2	293.15	25000	0.0020445	6.71e-05
0.2	293.15	30000	0.0020461	6.72e-05
0.2	293.15	40000	0.0020515	6.74e-05
0.2	293.15	60000	0.002064	6.78e-05
0.2	293.15	80000	0.0020799	6.83e-05
0.2	293.15	100000	0.0020976	6.89e-05
0.2	313.15	100	0.0012029	3.95e-05
0.2	313.15	5000	0.0012084	3.97e-05
0.2	313.15	10000	0.0012102	3.98e-05
0.2	313.15	15000	0.0012135	3.99e-05
0.2	313.15	20000	0.0012201	4.01e-05
0.2	313.15	25000	0.0012248	4.02e-05
0.2	313.15	30000	0.0012277	4.03e-05
0.2	313.15	40000	0.001231	4.04e-05
0.2	313.15	60000	0.0012507	4.11e-05
0.2	313.15	80000	0.0012763	4.19e-05
0.2	313.15	100000	0.0012819	4.21e-05
0.2	333.15	100	0.0008083	2.66e-05
0.2	333.15	5000	0.0008084	2.66e-05
0.2	333.15	10000	0.0008125	2.67e-05
0.2	333.15	15000	0.0008177	2.69e-05
0.2	333.15	20000	0.00082	2.69e-05
0.2	333.15	25000	0.0008238	2.71e-05
0.2	333.15	30000	0.0008283	2.72e-05
0.2	333.15	40000	0.0008329	2.74e-05
0.2	333.15	60000	0.0008473	2.78e-05
0.2	333.15	80000	0.0008631	2.84e-05
0.2	333.15	100000	0.0008789	2.89e-05
0.2	353.15	100	0.0005805	1.91e-05
0.2	353.15	5000	0.0005825	1.91e-05
0.2	353.15	10000	0.0005878	1.93e-05
0.2	353.15	15000	0.0005898	1.94e-05
0.2	353.15	20000	0.0005937	1.95e-05
0.2	353.15	25000	0.0005975	1.96e-05
0.2	353.15	30000	0.0006006	1.97e-05
0.2	353.15	40000	0.0006068	1.99e-05
0.2	353.15	60000	0.0006185	2.03e-05
0.2	353.15	80000	0.0006313	2.07e-05
0.2	353.15	100000	0.0006459	2.12e-05
0.2	373.15	5000	0.000444	1.46e-05
0.2	373.15	10000	0.0004475	1.47e-05
0.2	373.15	15000	0.000451	1.48e-05
0.2	373.15	20000	0.0004534	1.49e-05
0.2	373.15	25000	0.0004562	1.5e-05
0.2	373.15	30000	0.0004601	1.51e-05
0.2	373.15	40000	0.0004638	1.52e-05
0.2	373.15	60000	0.0004753	1.56e-05
0.2	373.15	80000	0.0004864	1.6e-05
0.2	373.15	100000	0.0004953	1.63e-05
0.2	393.15	5000	0.0003551	1.17e-05
0.2	393.15	10000	0.0003579	1.18e-05
0.2	393.15	15000	0.0003633	1.19e-05
0.2	393.15	20000	0.000362	1.19e-05
0.2	393.15	25000	0.0003674	1.21e-05
0.2	393.15	30000	0.0003659	1.2e-05
0.2	393.15	40000	0.0003704	1.22e-05
0.2	393.15	60000	0.0003798	1.25e-05
0.2	393.15	80000	0.0003888	1.28e-05
0.2	393.15	100000	0.0003982	1.31e-05
0.2991	293.15	100	0.0032075	0.0001054
0.2991	293.15	5000	0.0032125	0.0001056
0.2991	293.15	10000	0.0032294	0.0001061
0.2991	293.15	15000	0.00318	0.0001045
0.2991	293.15	20000	0.0032337	0.0001063
0.2991	293.15	25000	0.0032421	0.0001066
0.2991	293.15	30000	0.0032453	0.0001067
0.2991	293.15	40000	0.0032875	0.0001081
0.2991	293.15	60000	0.0033246	0.0001093
0.2991	293.15	80000	0.0033727	0.0001109
0.2991	293.15	100000	0.0034457	0.0001133
0.2991	313.15	100	0.0017864	5.87e-05
0.2991	313.15	5000	0.0017972	5.91e-05
0.2991	313.15	10000	0.0018079	5.94e-05
0.2991	313.15	15000	0.0018184	5.98e-05
0.2991	313.15	20000	0.0018321	6.02e-05
0.2991	313.15	25000	0.0018348	6.03e-05
0.2991	313.15	30000	0.0018463	6.07e-05
0.2991	313.15	40000	0.0018609	6.12e-05
0.2991	313.15	60000	0.0018927	6.22e-05
0.2991	313.15	80000	0.0019329	6.35e-05
0.2991	313.15	100000	0.0019796	6.51e-05
0.2991	333.15	100	0.0011472	3.77e-05
0.2991	333.15	5000	0.0011545	3.79e-05
0.2991	333.15	10000	0.0011644	3.83e-05
0.2991	333.15	15000	0.0011676	3.84e-05
0.2991	333.15	20000	0.0011779	3.87e-05
0.2991	333.15	25000	0.0011815	3.88e-05
0.2991	333.15	30000	0.0011888	3.91e-05
0.2991	333.15	40000	0.0012027	3.95e-05
0.2991	333.15	60000	0.0012254	4.03e-05
0.2991	333.15	80000	0.0012529	4.12e-05
0.2991	333.15	100000	0.0012929	4.25e-05
0.2991	353.15	100	0.0008052	2.65e-05
0.2991	353.15	5000	0.0007994	2.63e-05
0.2991	353.15	10000	0.0008046	2.65e-05
0.2991	353.15	15000	0.000811	2.67e-05
0.2991	353.15	20000	0.0008144	2.68e-05
0.2991	353.15	25000	0.000821	2.7e-05
0.2991	353.15	30000	0.0008266	2.72e-05
0.2991	353.15	40000	0.0008374	2.75e-05
0.2991	353.15	60000	0.0008576	2.82e-05
0.2991	353.15	80000	0.0008785	2.89e-05
0.2991	353.15	100000	0.0009019	2.96e-05
0.2991	373.15	5000	0.0005867	1.93e-05
0.2991	373.15	10000	0.0005894	1.94e-05
0.2991	373.15	15000	0.0005951	1.96e-05
0.2991	373.15	20000	0.0005996	1.97e-05
0.2991	373.15	25000	0.0006046	1.99e-05
0.2991	373.15	30000	0.0006109	2.01e-05
0.2991	373.15	40000	0.0006193	2.04e-05
0.2991	373.15	60000	0.0006379	2.1e-05
0.2991	373.15	80000	0.000655	2.15e-05
0.2991	373.15	100000	0.0006721	2.21e-05
0.2991	393.15	5000	0.0004515	1.48e-05
0.2991	393.15	10000	0.0004583	1.51e-05
0.2991	393.15	15000	0.0004629	1.52e-05
0.2991	393.15	20000	0.0004675	1.54e-05
0.2991	393.15	25000	0.0004703	1.55e-05
0.2991	393.15	30000	0.0004738	1.56e-05
0.2991	393.15	40000	0.0004822	1.59e-05
0.2991	393.15	60000	0.0004973	1.64e-05
0.2991	393.15	80000	0.0005121	1.68e-05
0.2991	393.15	100000	0.0005378	1.77e-05
0.4	293.15	100	0.0053166	0.0001749
0.4	293.15	5000	0.0053105	0.0001747
0.4	293.15	10000	0.0053312	0.0001753
0.4	293.15	15000	0.0053763	0.0001768
0.4	293.15	20000	0.0054173	0.0001782
0.4	293.15	25000	0.0054451	0.0001791
0.4	293.15	30000	0.0054997	0.0001809
0.4	293.15	40000	0.0055494	0.0001825
0.4	293.15	60000	0.0056746	0.0001866
0.4	293.15	80000	0.0057919	0.0001905
0.4	293.15	100000	0.0059875	0.0001969
0.4	313.15	100	0.0027881	9.17e-05
0.4	313.15	5000	0.0027938	9.19e-05
0.4	313.15	10000	0.002797	9.2e-05
0.4	313.15	15000	0.0028283	9.3e-05
0.4	313.15	20000	0.0028522	9.38e-05
0.4	313.15	25000	0.0028656	9.43e-05
0.4	313.15	30000	0.0028892	9.51e-05
0.4	313.15	40000	0.0029279	9.63e-05
0.4	313.15	60000	0.0030276	9.96e-05
0.4	313.15	80000	0.0031153	0.0001025
0.4	313.15	100000	0.0031926	0.000105
0.4	333.15	100	0.0016702	5.49e-05
0.4	333.15	5000	0.0016802	5.53e-05
0.4	333.15	10000	0.0016976	5.58e-05
0.4	333.15	15000	0.0017037	5.6e-05
0.4	333.15	20000	0.0017203	5.66e-05
0.4	333.15	25000	0.001738	5.72e-05
0.4	333.15	30000	0.0017477	5.75e-05
0.4	333.15	40000	0.0017714	5.83e-05
0.4	333.15	60000	0.0018255	6.01e-05
0.4	333.15	80000	0.0018777	6.18e-05
0.4	333.15	100000	0.001964	6.46e-05
0.4	353.15	100	0.0011242	3.7e-05
0.4	353.15	5000	0.0011253	3.7e-05
0.4	353.15	10000	0.0011358	3.74e-05
0.4	353.15	15000	0.0011465	3.77e-05
0.4	353.15	20000	0.0011537	3.8e-05
0.4	353.15	25000	0.0011636	3.83e-05
0.4	353.15	30000	0.0011735	3.86e-05
0.4	353.15	40000	0.0011932	3.93e-05
0.4	353.15	60000	0.0012293	4.04e-05
0.4	353.15	80000	0.0012658	4.16e-05
0.4	353.15	100000	0.0013055	4.29e-05
0.4	373.15	5000	0.0007909	2.6e-05
0.4	373.15	10000	0.0008001	2.63e-05
0.4	373.15	15000	0.000809	2.66e-05
0.4	373.15	20000	0.000819	2.69e-05
0.4	373.15	25000	0.0008242	2.71e-05
0.4	373.15	30000	0.0008363	2.75e-05
0.4	373.15	40000	0.0008525	2.8e-05
0.4	373.15	60000	0.0008789	2.89e-05
0.4	373.15	80000	0.0009114	3e-05
0.4	373.15	100000	0.0009403	3.09e-05
0.4	393.15	5000	0.0005873	1.93e-05
0.4	393.15	10000	0.0005948	1.96e-05
0.4	393.15	15000	0.0006019	1.98e-05
0.4	393.15	20000	0.000609	2e-05
0.4	393.15	25000	0.0006136	2.02e-05
0.4	393.15	30000	0.0006246	2.06e-05
0.4	393.15	40000	0.0006362	2.09e-05
0.4	393.15	60000	0.0006588	2.17e-05
0.4	393.15	80000	0.0006835	2.25e-05
0.4	393.15	100000	0.0007054	2.32e-05

System: 2-(N,N-dimethylamino)ethanol + water; phases: Liquid
Property: Mass density, kg/m3 (Liquid); method: Vibrating tube method
Mass fraction of 2-(N,N-dimethylamino)ethanol	Temperature, K	Pressure, kPa	Mass density, kg/m3	uncertainty
0.1005	293.15	100	994.5	0.7
0.1005	293.15	500	994.7	0.7
0.1005	293.15	1000	994.8	0.7
0.1005	293.15	2000	995.3	0.7
0.1005	293.15	5000	996.5	0.7
0.1005	293.15	10000	998.5	0.7
0.1005	293.15	15000	1000.5	0.7
0.1005	293.15	20000	1002.6	0.7
0.1005	293.15	30000	1006.6	0.7
0.1005	293.15	40000	1010.5	0.7
0.1005	293.15	50000	1014.3	0.7
0.1005	293.15	60000	1018.1	0.7
0.1005	293.15	70000	1021.8	0.7
0.1005	293.15	80000	1025.3	0.7
0.1005	293.15	90000	1029	0.7
0.1005	293.15	100000	1032.5	0.7
0.1005	293.15	110000	1035.9	0.7
0.1005	293.15	120000	1039.3	0.7
0.1005	293.15	130000	1042.7	0.7
0.1005	293.15	140000	1045.7	0.8
0.1005	313.15	100	987.4	0.7
0.1005	313.15	500	987.6	0.7
0.1005	313.15	1000	987.8	0.7
0.1005	313.15	2000	988.3	0.7
0.1005	313.15	5000	989.5	0.7
0.1005	313.15	10000	991.5	0.7
0.1005	313.15	15000	993.4	0.7
0.1005	313.15	20000	995.4	0.7
0.1005	313.15	30000	999.4	0.7
0.1005	313.15	40000	1003.4	0.7
0.1005	313.15	50000	1007	0.7
0.1005	313.15	60000	1010.8	0.7
0.1005	313.15	70000	1014.5	0.7
0.1005	313.15	80000	1018	0.7
0.1005	313.15	90000	1021.4	0.7
0.1005	313.15	100000	1024.9	0.7
0.1005	313.15	110000	1028.3	0.7
0.1005	313.15	120000	1031.6	0.7
0.1005	313.15	130000	1035	0.7
0.1005	313.15	140000	1038.2	0.7
0.1005	333.15	100	977.4	0.7
0.1005	333.15	500	977.6	0.7
0.1005	333.15	1000	977.8	0.7
0.1005	333.15	2000	978.2	0.7
0.1005	333.15	5000	979.5	0.7
0.1005	333.15	10000	981.5	0.7
0.1005	333.15	15000	983.6	0.7
0.1005	333.15	20000	985.6	0.7
0.1005	333.15	30000	989.7	0.7
0.1005	333.15	40000	993.7	0.7
0.1005	333.15	50000	997.3	0.7
0.1005	333.15	60000	1001.1	0.7
0.1005	333.15	70000	1004.9	0.7
0.1005	333.15	80000	1008.4	0.7
0.1005	333.15	90000	1012	0.7
0.1005	333.15	100000	1015.4	0.7
0.1005	333.15	110000	1018.9	0.7
0.1005	333.15	120000	1022.3	0.7
0.1005	333.15	130000	1025.5	0.7
0.1005	333.15	140000	1028.8	0.7
0.1005	353.15	100	965.2	0.7
0.1005	353.15	500	965.3	0.7
0.1005	353.15	1000	965.6	0.7
0.1005	353.15	2000	966	0.7
0.1005	353.15	5000	967.3	0.7
0.1005	353.15	10000	969.5	0.7
0.1005	353.15	15000	971.6	0.7
0.1005	353.15	20000	973.8	0.7
0.1005	353.15	30000	978	0.7
0.1005	353.15	40000	982	0.7
0.1005	353.15	50000	986	0.7
0.1005	353.15	60000	989.9	0.7
0.1005	353.15	70000	993.6	0.7
0.1005	353.15	80000	997.4	0.7
0.1005	353.15	90000	1000.9	0.7
0.1005	353.15	100000	1004.6	0.7
0.1005	353.15	110000	1008.1	0.7
0.1005	353.15	120000	1011.7	0.7
0.1005	353.15	130000	1014.9	0.7
0.1005	353.15	140000	1018.3	0.7
0.1005	373.15	100	950.7	0.7
0.1005	373.15	500	950.9	0.7
0.1005	373.15	1000	951.2	0.7
0.1005	373.15	2000	951.7	0.7
0.1005	373.15	5000	953	0.7
0.1005	373.15	10000	955.4	0.7
0.1005	373.15	15000	957.7	0.7
0.1005	373.15	20000	959.9	0.7
0.1005	373.15	30000	964.4	0.7
0.1005	373.15	40000	968.7	0.7
0.1005	373.15	50000	972.8	0.7
0.1005	373.15	60000	976.8	0.7
0.1005	373.15	70000	980.9	0.7
0.1005	373.15	80000	984.7	0.7
0.1005	373.15	90000	988.6	0.7
0.1005	373.15	100000	992.1	0.7
0.1005	373.15	110000	995.9	0.7
0.1005	373.15	120000	999.5	0.7
0.1005	373.15	130000	1003	0.7
0.1005	373.15	140000	1006.3	0.7
0.1005	393.15	100	934.5	0.7
0.1005	393.15	500	934.9	0.7
0.1005	393.15	1000	935.1	0.7
0.1005	393.15	2000	935.6	0.7
0.1005	393.15	5000	937.1	0.7
0.1005	393.15	10000	939.7	0.7
0.1005	393.15	15000	942.1	0.7
0.1005	393.15	20000	944.6	0.7
0.1005	393.15	30000	949.3	0.7
0.1005	393.15	40000	953.9	0.7
0.1005	393.15	50000	958.2	0.7
0.1005	393.15	60000	962.6	0.7
0.1005	393.15	70000	966.9	0.7
0.1005	393.15	80000	971	0.7
0.1005	393.15	90000	975	0.7
0.1005	393.15	100000	978.8	0.7
0.1005	393.15	110000	982.7	0.7
0.1005	393.15	120000	986.5	0.7
0.1005	393.15	130000	990	0.7
0.1005	393.15	140000	993.7	0.7
0.202	293.15	100	992.6	0.7
0.202	293.15	500	992.7	0.7
0.202	293.15	1000	992.9	0.7
0.202	293.15	2000	993.3	0.7
0.202	293.15	5000	994.4	0.7
0.202	293.15	10000	996.3	0.7
0.202	293.15	15000	998.2	0.7
0.202	293.15	20000	1000	0.7
0.202	293.15	30000	1003.7	0.7
0.202	293.15	40000	1007.4	0.7
0.202	293.15	50000	1010.8	0.7
0.202	293.15	60000	1014.3	0.7
0.202	293.15	70000	1017.9	0.7
0.202	293.15	80000	1021.1	0.7
0.202	293.15	90000	1024.4	0.7
0.202	293.15	100000	1027.7	0.7
0.202	293.15	110000	1030.8	0.7
0.202	293.15	120000	1033.9	0.7
0.202	293.15	130000	1037.2	0.7
0.202	293.15	140000	1040.1	0.7
0.202	313.15	100	983.2	0.7
0.202	313.15	500	983.4	0.7
0.202	313.15	1000	983.6	0.7
0.202	313.15	2000	984	0.7
0.202	313.15	5000	985.2	0.7
0.202	313.15	10000	987.2	0.7
0.202	313.15	15000	989.1	0.7
0.202	313.15	20000	990.9	0.7
0.202	313.15	30000	994.8	0.7
0.202	313.15	40000	998.6	0.7
0.202	313.15	50000	1002.1	0.7
0.202	313.15	60000	1005.6	0.7
0.202	313.15	70000	1009.1	0.7
0.202	313.15	80000	1012.5	0.7
0.202	313.15	90000	1015.7	0.7
0.202	313.15	100000	1019.1	0.7
0.202	313.15	110000	1022.3	0.7
0.202	313.15	120000	1025.6	0.7
0.202	313.15	130000	1028.6	0.7
0.202	313.15	140000	1031.7	0.7
0.202	333.15	100	971.5	0.7
0.202	333.15	500	971.8	0.7
0.202	333.15	1000	972	0.7
0.202	333.15	2000	972.4	0.7
0.202	333.15	5000	973.7	0.7
0.202	333.15	10000	975.7	0.7
0.202	333.15	15000	977.7	0.7
0.202	333.15	20000	979.7	0.7
0.202	333.15	30000	983.7	0.7
0.202	333.15	40000	987.7	0.7
0.202	333.15	50000	991.3	0.7
0.202	333.15	60000	995	0.7
0.202	333.15	70000	998.6	0.7
0.202	333.15	80000	1002.1	0.7
0.202	333.15	90000	1005.4	0.7
0.202	333.15	100000	1008.9	0.7
0.202	333.15	110000	1012.2	0.7
0.202	333.15	120000	1015.5	0.7
0.202	333.15	130000	1018.6	0.7
0.202	333.15	140000	1021.9	0.7
0.202	353.15	100	958.1	0.7
0.202	353.15	500	958.1	0.7
0.202	353.15	1000	958.4	0.7
0.202	353.15	2000	958.8	0.7
0.202	353.15	5000	960.1	0.7
0.202	353.15	10000	962.4	0.7
0.202	353.15	15000	964.5	0.7
0.202	353.15	20000	966.7	0.7
0.202	353.15	30000	971	0.7
0.202	353.15	40000	975	0.7
0.202	353.15	50000	978.9	0.7
0.202	353.15	60000	982.7	0.7
0.202	353.15	70000	986.6	0.7
0.202	353.15	80000	990.1	0.7
0.202	353.15	90000	993.8	0.7
0.202	353.15	100000	997.3	0.7
0.202	353.15	110000	1000.7	0.7
0.202	353.15	120000	1004.1	0.7
0.202	353.15	130000	1007.5	0.7
0.202	353.15	140000	1010.8	0.7
0.202	373.15	100	942.4	0.7
0.202	373.15	500	942.7	0.7
0.202	373.15	1000	942.9	0.7
0.202	373.15	2000	943.4	0.7
0.202	373.15	5000	944.8	0.7
0.202	373.15	10000	947.2	0.7
0.202	373.15	15000	949.5	0.7
0.202	373.15	20000	951.8	0.7
0.202	373.15	30000	956.3	0.7
0.202	373.15	40000	960.9	0.7
0.202	373.15	50000	964.9	0.7
0.202	373.15	60000	968.9	0.7
0.202	373.15	70000	973	0.7
0.202	373.15	80000	976.9	0.7
0.202	373.15	90000	980.6	0.7
0.202	373.15	100000	984.3	0.7
0.202	373.15	110000	988	0.7
0.202	373.15	120000	991.6	0.7
0.202	373.15	130000	995	0.7
0.202	373.15	140000	998.4	0.7
0.202	393.15	100	925.2	0.7
0.202	393.15	500	925.5	0.7
0.202	393.15	1000	925.7	0.7
0.202	393.15	2000	926.3	0.7
0.202	393.15	5000	927.9	0.7
0.202	393.15	10000	930.5	0.7
0.202	393.15	15000	933	0.7
0.202	393.15	20000	935.6	0.7
0.202	393.15	30000	940.5	0.7
0.202	393.15	40000	945.2	0.7
0.202	393.15	50000	949.6	0.7
0.202	393.15	60000	954.1	0.7
0.202	393.15	70000	958.5	0.7
0.202	393.15	80000	962.4	0.7
0.202	393.15	90000	966.6	0.7
0.202	393.15	100000	970.5	0.7
0.202	393.15	110000	974.3	0.7
0.202	393.15	120000	978.2	0.7
0.202	393.15	130000	981.7	0.7
0.202	393.15	140000	985.3	0.7
0.3005	293.15	100	990.6	0.7
0.3005	293.15	500	990.7	0.7
0.3005	293.15	1000	990.9	0.7
0.3005	293.15	2000	991.3	0.7
0.3005	293.15	5000	992.4	0.7
0.3005	293.15	10000	994.2	0.7
0.3005	293.15	15000	996	0.7
0.3005	293.15	20000	997.8	0.7
0.3005	293.15	30000	1001.4	0.7
0.3005	293.15	40000	1004.9	0.7
0.3005	293.15	50000	1008.2	0.7
0.3005	293.15	60000	1011.6	0.7
0.3005	293.15	70000	1014.9	0.7
0.3005	293.15	80000	1018	0.7
0.3005	293.15	90000	1021.2	0.7
0.3005	293.15	100000	1024.3	0.7
0.3005	293.15	110000	1027.2	0.7
0.3005	293.15	120000	1030.2	0.7
0.3005	293.15	130000	1033.3	0.7
0.3005	293.15	140000	1036	0.7
0.3005	313.15	100	978.8	0.7
0.3005	313.15	500	979	0.7
0.3005	313.15	1000	979.2	0.7
0.3005	313.15	2000	979.6	0.7
0.3005	313.15	5000	980.8	0.7
0.3005	313.15	10000	982.7	0.7
0.3005	313.15	15000	984.6	0.7
0.3005	313.15	20000	986.5	0.7
0.3005	313.15	30000	990.3	0.7
0.3005	313.15	40000	994	0.7
0.3005	313.15	50000	997.5	0.7
0.3005	313.15	60000	1001	0.7
0.3005	313.15	70000	1004.4	0.7
0.3005	313.15	80000	1007.6	0.7
0.3005	313.15	90000	1010.9	0.7
0.3005	313.15	100000	1014.1	0.7
0.3005	313.15	110000	1017.3	0.7
0.3005	313.15	120000	1020.4	0.7
0.3005	313.15	130000	1023.4	0.7
0.3005	313.15	140000	1026.4	0.7
0.3005	333.15	100	965.2	0.7
0.3005	333.15	500	965.4	0.7
0.3005	333.15	1000	965.6	0.7
0.3005	333.15	2000	966.1	0.7
0.3005	333.15	5000	967.3	0.7
0.3005	333.15	10000	969.5	0.7
0.3005	333.15	15000	971.5	0.7
0.3005	333.15	20000	973.5	0.7
0.3005	333.15	30000	977.5	0.7
0.3005	333.15	40000	981.5	0.7
0.3005	333.15	50000	985.2	0.7
0.3005	333.15	60000	988.9	0.7
0.3005	333.15	70000	992.5	0.7
0.3005	333.15	80000	996	0.7
0.3005	333.15	90000	999.2	0.7
0.3005	333.15	100000	1002.7	0.7
0.3005	333.15	110000	1006	0.7
0.3005	333.15	120000	1009.3	0.7
0.3005	333.15	130000	1012.4	0.7
0.3005	333.15	140000	1015.4	0.7
0.3005	353.15	100	950.2	0.7
0.3005	353.15	500	950.3	0.7
0.3005	353.15	1000	950.6	0.7
0.3005	353.15	2000	951	0.7
0.3005	353.15	5000	952.4	0.7
0.3005	353.15	10000	954.7	0.7
0.3005	353.15	15000	956.9	0.7
0.3005	353.15	20000	959.1	0.7
0.3005	353.15	30000	963.4	0.7
0.3005	353.15	40000	967.5	0.7
0.3005	353.15	50000	971.6	0.7
0.3005	353.15	60000	975.6	0.7
0.3005	353.15	70000	979.3	0.7
0.3005	353.15	80000	983	0.7
0.3005	353.15	90000	986.6	0.7
0.3005	353.15	100000	990.1	0.7
0.3005	353.15	110000	993.6	0.7
0.3005	353.15	120000	997	0.7
0.3005	353.15	130000	1000.3	0.7
0.3005	353.15	140000	1003.5	0.7
0.3005	373.15	100	933.3	0.7
0.3005	373.15	500	933.6	0.7
0.3005	373.15	1000	933.9	0.7
0.3005	373.15	2000	934.4	0.7
0.3005	373.15	5000	935.9	0.7
0.3005	373.15	10000	938.4	0.7
0.3005	373.15	15000	940.8	0.7
0.3005	373.15	20000	943.2	0.7
0.3005	373.15	30000	947.9	0.7
0.3005	373.15	40000	952.4	0.7
0.3005	373.15	50000	956.6	0.7
0.3005	373.15	60000	960.9	0.7
0.3005	373.15	70000	965	0.7
0.3005	373.15	80000	969.1	0.7
0.3005	373.15	90000	972.8	0.7
0.3005	373.15	100000	976.4	0.7
0.3005	373.15	110000	980.3	0.7
0.3005	373.15	120000	983.8	0.7
0.3005	373.15	130000	987.3	0.7
0.3005	373.15	140000	990.7	0.7
0.3005	393.15	100	915	0.7
0.3005	393.15	500	915.5	0.7
0.3005	393.15	1000	915.7	0.7
0.3005	393.15	2000	916.3	0.7
0.3005	393.15	5000	917.9	0.7
0.3005	393.15	10000	920.8	0.7
0.3005	393.15	15000	923.4	0.7
0.3005	393.15	20000	926.1	0.7
0.3005	393.15	30000	931.2	0.7
0.3005	393.15	40000	936.2	0.7
0.3005	393.15	50000	940.8	0.7
0.3005	393.15	60000	945.3	0.7
0.3005	393.15	70000	949.8	0.7
0.3005	393.15	80000	953.9	0.7
0.3005	393.15	90000	958.1	0.7
0.3005	393.15	100000	962.2	0.7
0.3005	393.15	110000	966	0.7
0.3005	393.15	120000	969.9	0.7
0.3005	393.15	130000	973.5	0.7
0.3005	393.15	140000	977.2	0.7
0.3995	293.15	100	986.6	0.7
0.3995	293.15	500	986.7	0.7
0.3995	293.15	1000	986.9	0.7
0.3995	293.15	2000	987.3	0.7
0.3995	293.15	5000	988.4	0.7
0.3995	293.15	10000	990.3	0.7
0.3995	293.15	15000	992.1	0.7
0.3995	293.15	20000	994	0.7
0.3995	293.15	30000	997.5	0.7
0.3995	293.15	40000	1001	0.7
0.3995	293.15	50000	1004.4	0.7
0.3995	293.15	60000	1007.7	0.7
0.3995	293.15	70000	1011	0.7
0.3995	293.15	80000	1014.1	0.7
0.3995	293.15	90000	1017.3	0.7
0.3995	293.15	100000	1020.4	0.7
0.3995	293.15	110000	1023.2	0.7
0.3995	293.15	120000	1026.3	0.7
0.3995	293.15	130000	1029.2	0.7
0.3995	293.15	140000	1031.9	0.7
0.3995	313.15	100	972.7	0.7
0.3995	313.15	500	972.9	0.7
0.3995	313.15	1000	973.1	0.7
0.3995	313.15	2000	973.5	0.7
0.3995	313.15	5000	974.7	0.7
0.3995	313.15	10000	976.7	0.7
0.3995	313.15	15000	978.6	0.7
0.3995	313.15	20000	980.6	0.7
0.3995	313.15	30000	984.4	0.7
0.3995	313.15	40000	988.2	0.7
0.3995	313.15	50000	991.7	0.7
0.3995	313.15	60000	995.3	0.7
0.3995	313.15	70000	998.7	0.7
0.3995	313.15	80000	1002	0.7
0.3995	313.15	90000	1005.3	0.7
0.3995	313.15	100000	1008.5	0.7
0.3995	313.15	110000	1011.7	0.7
0.3995	313.15	120000	1014.7	0.7
0.3995	313.15	130000	1017.7	0.7
0.3995	313.15	140000	1020.7	0.7
0.3995	333.15	100	957.4	0.7
0.3995	333.15	500	957.6	0.7
0.3995	333.15	1000	957.9	0.7
0.3995	333.15	2000	958.3	0.7
0.3995	333.15	5000	959.6	0.7
0.3995	333.15	10000	961.8	0.7
0.3995	333.15	15000	963.9	0.7
0.3995	333.15	20000	966	0.7
0.3995	333.15	30000	970.2	0.7
0.3995	333.15	40000	974.2	0.7
0.3995	333.15	50000	977.9	0.7
0.3995	333.15	60000	981.7	0.7
0.3995	333.15	70000	985.4	0.7
0.3995	333.15	80000	988.9	0.7
0.3995	333.15	90000	992.3	0.7
0.3995	333.15	100000	995.8	0.7
0.3995	333.15	110000	999	0.7
0.3995	333.15	120000	1002.4	0.7
0.3995	333.15	130000	1005.5	0.7
0.3995	333.15	140000	1008.7	0.7
0.3995	353.15	100	941.1	0.7
0.3995	353.15	500	941.2	0.7
0.3995	353.15	1000	941.4	0.7
0.3995	353.15	2000	941.9	0.7
0.3995	353.15	5000	943.3	0.7
0.3995	353.15	10000	945.8	0.7
0.3995	353.15	15000	948.1	0.7
0.3995	353.15	20000	950.5	0.7
0.3995	353.15	30000	954.9	0.7
0.3995	353.15	40000	959.2	0.7
0.3995	353.15	50000	963.3	0.7
0.3995	353.15	60000	967.5	0.7
0.3995	353.15	70000	971.2	0.7
0.3995	353.15	80000	975.1	0.7
0.3995	353.15	90000	978.7	0.7
0.3995	353.15	100000	982.4	0.7
0.3995	353.15	110000	985.9	0.7
0.3995	353.15	120000	989.3	0.7
0.3995	353.15	130000	992.7	0.7
0.3995	353.15	140000	996	0.7
0.3995	373.15	100	923.1	0.7
0.3995	373.15	500	923.4	0.7
0.3995	373.15	1000	923.6	0.7
0.3995	373.15	2000	924.2	0.7
0.3995	373.15	5000	925.8	0.7
0.3995	373.15	10000	928.4	0.7
0.3995	373.15	15000	931.1	0.7
0.3995	373.15	20000	933.6	0.7
0.3995	373.15	30000	938.5	0.7
0.3995	373.15	40000	943.3	0.7
0.3995	373.15	50000	947.6	0.7
0.3995	373.15	60000	952.1	0.7
0.3995	373.15	70000	956.2	0.7
0.3995	373.15	80000	960.4	0.7
0.3995	373.15	90000	964.3	0.7
0.3995	373.15	100000	968.1	0.7
0.3995	373.15	110000	971.9	0.7
0.3995	373.15	120000	975.6	0.7
0.3995	373.15	130000	979.1	0.7
0.3995	373.15	140000	982.6	0.7
0.3995	393.15	100	903.9	0.7
0.3995	393.15	500	904.3	0.7
0.3995	393.15	1000	904.6	0.7
0.3995	393.15	2000	905.2	0.7
0.3995	393.15	5000	907	0.7
0.3995	393.15	10000	910	0.7
0.3995	393.15	15000	912.8	0.7
0.3995	393.15	20000	915.7	0.7
0.3995	393.15	30000	921	0.7
0.3995	393.15	40000	926.3	0.7
0.3995	393.15	50000	931	0.7
0.3995	393.15	60000	935.9	0.7
0.3995	393.15	70000	940.5	0.7
0.3995	393.15	80000	944.8	0.7
0.3995	393.15	90000	949.2	0.7
0.3995	393.15	100000	953.2	0.7
0.3995	393.15	110000	957.3	0.7
0.3995	393.15	120000	961.2	0.7
0.3995	393.15	130000	964.9	0.7
0.3995	393.15	140000	968.9	0.7

System: 2-(N,N-dimethylamino)ethanol + water; phases: Liquid
Fixed: Pressure, kPa = 100
Property: Viscosity, Pa*s (Liquid); method: Concentric cylinders viscometry
Mass fraction of 2-(N,N-dimethylamino)ethanol	Temperature, K	Viscosity, Pa*s	uncertainty
0.1	293.15	0.001587	3.3e-05
0.1	313.15	0.000947	2e-05
0.1	333.15	0.000623	1.4e-05
0.1	353.15	0.000475	1.1e-05
0.2	293.15	0.002614	5.4e-05
0.2	313.15	0.001408	2.9e-05
0.2	333.15	0.000888	1.9e-05
0.2	353.15	0.000618	1.3e-05
0.3	293.15	0.004334	8.8e-05
0.3	313.15	0.002102	4.3e-05
0.3	333.15	0.001226	2.6e-05
0.3	353.15	0.000809	1.7e-05
0.4	293.15	0.006754	0.000138
0.4	313.15	0.003068	6.3e-05
0.4	333.15	0.001671	3.5e-05
0.4	353.15	0.001044	2.2e-05

System: 2-(N,N-dimethylamino)ethanol + water; phases: Liquid
Property: Viscosity, Pa*s (Liquid); method: Falling or rolling sphere viscometry
Mass fraction of 2-(N,N-dimethylamino)ethanol	Temperature, K	Pressure, kPa	Viscosity, Pa*s	uncertainty
0.1005	293.15	100	0.0015589	5.12e-05
0.1005	293.15	5000	0.0015639	5.13e-05
0.1005	293.15	10000	0.0015638	5.13e-05
0.1005	293.15	15000	0.0015626	5.13e-05
0.1005	293.15	20000	0.0015621	5.13e-05
0.1005	293.15	25000	0.0015615	5.13e-05
0.1005	293.15	30000	0.001564	5.13e-05
0.1005	293.15	40000	0.0015642	5.14e-05
0.1005	293.15	60000	0.0015623	5.13e-05
0.1005	293.15	80000	0.0015701	5.16e-05
0.1005	293.15	100000	0.0015767	5.18e-05
0.1005	313.15	100	0.0009401	3.09e-05
0.1005	313.15	5000	0.0009415	3.09e-05
0.1005	313.15	10000	0.0009437	3.1e-05
0.1005	313.15	15000	0.0009453	3.1e-05
0.1005	313.15	20000	0.0009476	3.11e-05
0.1005	313.15	25000	0.0009506	3.12e-05
0.1005	313.15	30000	0.0009525	3.13e-05
0.1005	313.15	40000	0.000957	3.14e-05
0.1005	313.15	60000	0.0009672	3.17e-05
0.1005	313.15	80000	0.0009775	3.21e-05
0.1005	313.15	100000	0.0009881	3.24e-05
0.1005	333.15	100	0.0006336	2.08e-05
0.1005	333.15	5000	0.0006341	2.08e-05
0.1005	333.15	10000	0.0006372	2.09e-05
0.1005	333.15	15000	0.0006403	2.1e-05
0.1005	333.15	20000	0.0006431	2.11e-05
0.1005	333.15	25000	0.0006461	2.12e-05
0.1005	333.15	30000	0.0006477	2.13e-05
0.1005	333.15	40000	0.0006532	2.14e-05
0.1005	333.15	60000	0.0006631	2.18e-05
0.1005	333.15	80000	0.0006729	2.21e-05
0.1005	333.15	100000	0.000685	2.25e-05
0.1005	353.15	100	0.0004624	1.52e-05
0.1005	353.15	5000	0.0004644	1.52e-05
0.1005	353.15	10000	0.0004671	1.53e-05
0.1005	353.15	15000	0.0004699	1.54e-05
0.1005	353.15	20000	0.000472	1.55e-05
0.1005	353.15	25000	0.0004744	1.56e-05
0.1005	353.15	30000	0.0004772	1.57e-05
0.1005	353.15	40000	0.0004824	1.58e-05
0.1005	353.15	60000	0.000491	1.61e-05
0.1005	353.15	80000	0.0004999	1.64e-05
0.1005	353.15	100000	0.0005096	1.67e-05
0.1005	373.15	5000	0.000359	1.18e-05
0.1005	373.15	10000	0.0003614	1.19e-05
0.1005	373.15	15000	0.0003638	1.19e-05
0.1005	373.15	20000	0.0003659	1.2e-05
0.1005	373.15	25000	0.0003691	1.21e-05
0.1005	373.15	30000	0.0003711	1.22e-05
0.1005	373.15	40000	0.0003746	1.23e-05
0.1005	373.15	60000	0.0003833	1.26e-05
0.1005	373.15	80000	0.0003916	1.29e-05
0.1005	373.15	100000	0.0003984	1.31e-05
0.1005	393.15	5000	0.0002917	9.6e-06
0.1005	393.15	10000	0.0002952	9.7e-06
0.1005	393.15	15000	0.0002973	9.8e-06
0.1005	393.15	20000	0.0002998	9.8e-06
0.1005	393.15	25000	0.0003019	9.9e-06
0.1005	393.15	30000	0.0003036	1e-05
0.1005	393.15	40000	0.0003078	1.01e-05
0.1005	393.15	60000	0.0003147	1.03e-05
0.1005	393.15	80000	0.000322	1.06e-05
0.1005	393.15	100000	0.0003308	1.09e-05
0.202	293.15	100	0.0025334	8.32e-05
0.202	293.15	5000	0.0025466	8.36e-05
0.202	293.15	10000	0.0025572	8.39e-05
0.202	293.15	15000	0.0025659	8.42e-05
0.202	293.15	20000	0.0025739	8.45e-05
0.202	293.15	25000	0.0025826	8.48e-05
0.202	293.15	30000	0.0025893	8.5e-05
0.202	293.15	40000	0.0026049	8.55e-05
0.202	293.15	60000	0.0026374	8.66e-05
0.202	293.15	80000	0.0026717	8.77e-05
0.202	293.15	100000	0.0027064	8.89e-05
0.202	313.15	100	0.0013682	4.49e-05
0.202	313.15	5000	0.0013743	4.51e-05
0.202	313.15	10000	0.0013819	4.54e-05
0.202	313.15	15000	0.0013921	4.57e-05
0.202	313.15	20000	0.001395	4.58e-05
0.202	313.15	25000	0.0014004	4.6e-05
0.202	313.15	30000	0.0014117	4.63e-05
0.202	313.15	40000	0.0014232	4.67e-05
0.202	313.15	60000	0.0014505	4.76e-05
0.202	313.15	80000	0.0014795	4.86e-05
0.202	313.15	100000	0.0015078	4.95e-05
0.202	333.15	100	0.0008725	2.86e-05
0.202	333.15	5000	0.000877	2.88e-05
0.202	333.15	10000	0.0008862	2.91e-05
0.202	333.15	15000	0.0008907	2.92e-05
0.202	333.15	20000	0.000897	2.94e-05
0.202	333.15	25000	0.0009026	2.96e-05
0.202	333.15	30000	0.0009063	2.97e-05
0.202	333.15	40000	0.0009178	3.01e-05
0.202	333.15	60000	0.0009397	3.08e-05
0.202	333.15	80000	0.0009613	3.16e-05
0.202	333.15	100000	0.0009835	3.23e-05
0.202	353.15	100	0.0006055	1.99e-05
0.202	353.15	5000	0.0006064	1.99e-05
0.202	353.15	10000	0.0006135	2.01e-05
0.202	353.15	15000	0.0006195	2.03e-05
0.202	353.15	20000	0.0006229	2.04e-05
0.202	353.15	25000	0.0006275	2.06e-05
0.202	353.15	30000	0.0006338	2.08e-05
0.202	353.15	40000	0.0006411	2.1e-05
0.202	353.15	60000	0.000659	2.16e-05
0.202	353.15	80000	0.0006779	2.23e-05
0.202	353.15	100000	0.0006942	2.28e-05
0.202	373.15	5000	0.0004516	1.48e-05
0.202	373.15	10000	0.0004543	1.49e-05
0.202	373.15	15000	0.0004578	1.5e-05
0.202	373.15	20000	0.0004624	1.52e-05
0.202	373.15	25000	0.0004659	1.53e-05
0.202	373.15	30000	0.0004702	1.54e-05
0.202	373.15	40000	0.0004771	1.57e-05
0.202	373.15	60000	0.0004923	1.62e-05
0.202	373.15	80000	0.0005073	1.67e-05
0.202	373.15	100000	0.0005213	1.71e-05
0.202	393.15	5000	0.0003533	1.16e-05
0.202	393.15	10000	0.0003557	1.17e-05
0.202	393.15	15000	0.0003585	1.18e-05
0.202	393.15	20000	0.0003624	1.19e-05
0.202	393.15	25000	0.000366	1.2e-05
0.202	393.15	30000	0.0003687	1.21e-05
0.202	393.15	40000	0.0003736	1.23e-05
0.202	393.15	60000	0.0003862	1.27e-05
0.202	393.15	80000	0.0003985	1.31e-05
0.202	393.15	100000	0.0004097	1.35e-05
0.3005	293.15	100	0.0042109	0.0001382
0.3005	293.15	5000	0.004223	0.0001386
0.3005	293.15	10000	0.0042582	0.0001398
0.3005	293.15	15000	0.0042946	0.000141
0.3005	293.15	20000	0.0043298	0.0001421
0.3005	293.15	25000	0.0043737	0.0001436
0.3005	293.15	30000	0.0044046	0.0001446
0.3005	293.15	40000	0.0044643	0.0001465
0.3005	293.15	60000	0.0045882	0.0001506
0.3005	293.15	80000	0.00473	0.0001553
0.3005	293.15	100000	0.0048605	0.0001595
0.3005	313.15	100	0.0020424	6.71e-05
0.3005	313.15	5000	0.0020627	6.77e-05
0.3005	313.15	10000	0.0020835	6.84e-05
0.3005	313.15	15000	0.0021028	6.9e-05
0.3005	313.15	20000	0.0021206	6.96e-05
0.3005	313.15	25000	0.002142	7.03e-05
0.3005	313.15	30000	0.0021613	7.1e-05
0.3005	313.15	40000	0.0021972	7.21e-05
0.3005	313.15	60000	0.0022735	7.46e-05
0.3005	313.15	80000	0.0023479	7.71e-05
0.3005	313.15	100000	0.0024244	7.96e-05
0.3005	333.15	100	0.0012166	3.99e-05
0.3005	333.15	5000	0.0012232	4.02e-05
0.3005	333.15	10000	0.0012391	4.07e-05
0.3005	333.15	15000	0.0012486	4.1e-05
0.3005	333.15	20000	0.0012597	4.14e-05
0.3005	333.15	25000	0.0012736	4.18e-05
0.3005	333.15	30000	0.0012832	4.21e-05
0.3005	333.15	40000	0.0013049	4.28e-05
0.3005	333.15	60000	0.0013527	4.44e-05
0.3005	333.15	80000	0.0013961	4.58e-05
0.3005	333.15	100000	0.0014424	4.74e-05
0.3005	353.15	100	0.0008063	2.65e-05
0.3005	353.15	5000	0.000812	2.67e-05
0.3005	353.15	10000	0.0008213	2.7e-05
0.3005	353.15	15000	0.0008321	2.73e-05
0.3005	353.15	20000	0.0008407	2.76e-05
0.3005	353.15	25000	0.0008485	2.79e-05
0.3005	353.15	30000	0.000856	2.81e-05
0.3005	353.15	40000	0.000875	2.87e-05
0.3005	353.15	60000	0.0009078	2.98e-05
0.3005	353.15	80000	0.0009395	3.08e-05
0.3005	353.15	100000	0.0009726	3.19e-05
0.3005	373.15	5000	0.0005788	1.9e-05
0.3005	373.15	10000	0.0005834	1.92e-05
0.3005	373.15	15000	0.0005895	1.94e-05
0.3005	373.15	20000	0.0005971	1.96e-05
0.3005	373.15	25000	0.000602	1.98e-05
0.3005	373.15	30000	0.0006099	2e-05
0.3005	373.15	40000	0.0006239	2.05e-05
0.3005	373.15	60000	0.0006493	2.13e-05
0.3005	373.15	80000	0.0006735	2.21e-05
0.3005	373.15	100000	0.0006978	2.29e-05
0.3005	393.15	5000	0.0004325	1.42e-05
0.3005	393.15	10000	0.0004367	1.43e-05
0.3005	393.15	15000	0.0004425	1.45e-05
0.3005	393.15	20000	0.0004483	1.47e-05
0.3005	393.15	25000	0.0004536	1.49e-05
0.3005	393.15	30000	0.0004597	1.51e-05
0.3005	393.15	40000	0.0004697	1.54e-05
0.3005	393.15	60000	0.000489	1.61e-05
0.3005	393.15	80000	0.0005076	1.67e-05
0.3005	393.15	100000	0.0005265	1.73e-05
0.3995	293.15	100	0.0065871	0.0002162
0.3995	293.15	5000	0.0065345	0.0002145
0.3995	293.15	10000	0.0065643	0.0002155
0.3995	293.15	15000	0.0068013	0.0002233
0.3995	293.15	20000	0.0068629	0.0002253
0.3995	293.15	25000	0.0068217	0.0002239
0.3995	293.15	30000	0.0070272	0.0002307
0.3995	293.15	40000	0.0068831	0.000226
0.3995	293.15	60000	0.0075912	0.0002492
0.3995	313.15	100	0.0029897	9.82e-05
0.3995	313.15	5000	0.0030311	9.95e-05
0.3995	313.15	10000	0.0030745	0.000101
0.3995	313.15	15000	0.0031208	0.0001025
0.3995	313.15	20000	0.0031641	0.0001039
0.3995	313.15	25000	0.0032088	0.0001054
0.3995	313.15	30000	0.0032532	0.0001068
0.3995	313.15	40000	0.0033419	0.0001097
0.3995	313.15	60000	0.0035189	0.0001156
0.3995	313.15	80000	0.0036983	0.0001214
0.3995	313.15	100000	0.003881	0.0001274
0.3995	333.15	100	0.0016512	5.42e-05
0.3995	333.15	5000	0.0016691	5.48e-05
0.3995	333.15	10000	0.0016948	5.56e-05
0.3995	333.15	15000	0.0017186	5.64e-05
0.3995	333.15	20000	0.0017425	5.72e-05
0.3995	333.15	25000	0.0017655	5.8e-05
0.3995	333.15	30000	0.0017893	5.87e-05
0.3995	333.15	40000	0.0018347	6.02e-05
0.3995	333.15	60000	0.0019265	6.33e-05
0.3995	333.15	80000	0.002019	6.63e-05
0.3995	333.15	100000	0.0021128	6.94e-05
0.3995	353.15	100	0.0010503	3.45e-05
0.3995	353.15	5000	0.0010589	3.48e-05
0.3995	353.15	10000	0.001074	3.53e-05
0.3995	353.15	15000	0.0010899	3.58e-05
0.3995	353.15	20000	0.0011054	3.63e-05
0.3995	353.15	25000	0.0011184	3.67e-05
0.3995	353.15	30000	0.0011346	3.73e-05
0.3995	353.15	40000	0.0011671	3.83e-05
0.3995	353.15	60000	0.0012254	4.02e-05
0.3995	353.15	80000	0.0012811	4.21e-05
0.3995	353.15	100000	0.0013375	4.39e-05
0.3995	373.15	5000	0.0007177	2.36e-05
0.3995	373.15	10000	0.0007267	2.39e-05
0.3995	373.15	15000	0.0007398	2.43e-05
0.3995	373.15	20000	0.0007525	2.47e-05
0.3995	373.15	25000	0.0007633	2.51e-05
0.3995	373.15	30000	0.0007742	2.54e-05
0.3995	373.15	40000	0.0007998	2.63e-05
0.3995	373.15	60000	0.0008409	2.76e-05
0.3995	373.15	80000	0.0008827	2.9e-05
0.3995	373.15	100000	0.0009306	3.06e-05
0.3995	393.15	5000	0.0005209	1.71e-05
0.3995	393.15	10000	0.0005259	1.73e-05
0.3995	393.15	15000	0.0005368	1.76e-05
0.3995	393.15	20000	0.0005458	1.79e-05
0.3995	393.15	25000	0.0005538	1.82e-05
0.3995	393.15	30000	0.0005613	1.84e-05
0.3995	393.15	40000	0.000578	1.9e-05
0.3995	393.15	60000	0.0006086	2e-05
0.3995	393.15	80000	0.0006407	2.1e-05
0.3995	393.15	100000	0.0006716	2.21e-05
