Measured thermophysical data. Thermophysical characterization of N-methyl-2-hydroxyethylammonium carboxilate ionic liquids
Source: J. Chem. Thermodyn., 2014, 10.1016/j.jct.2013.09.010
Compound 1: 2-hydroxy-N-methylethanaminium propionate, C6H15NO3, InChI=1S/C3H9NO.C3H6O2/c1-4-2-3-5;1-2-3(4)5/h4-5H,2-3H2,1H3;2H2,1H3,(H,4,5)
Compound 2: N-methyl-2-hydroxyethylammonium butanoate, C7H17NO3, InChI=1S/C4H8O2.C3H9NO/c1-2-3-4(5)6;1-4-2-3-5/h2-3H2,1H3,(H,5,6);4-5H,2-3H2,1H3
Compound 3: 2-hydroxy-N-methylethanaminium pentanoate, C8H19NO3, InChI=1S/C5H10O2.C3H9NO/c1-2-3-4-5(6)7;1-4-2-3-5/h2-4H2,1H3,(H,6,7);4-5H,2-3H2,1H3

System: 2-hydroxy-N-methylethanaminium propionate; phases: Liquid
Property: Mass density, kg/m3 (Liquid); method: Vibrating tube method
Pressure, kPa	Temperature, K	Mass density, kg/m3	uncertainty
100	298.15	1065.75	2.02
2000	298.15	1066.51	2.02
3000	298.15	1066.95	2.02
5000	298.15	1067.8	2.02
10000	298.15	1069.86	2.02
15000	298.15	1071.89	2.02
20000	298.15	1073.87	2.02
25000	298.15	1075.79	2.03
100	303.15	1062.59	2.02
2000	303.15	1063.37	2.02
3000	303.15	1063.82	2.02
5000	303.15	1064.69	2.02
10000	303.15	1066.79	2.02
15000	303.15	1068.87	2.02
20000	303.15	1070.88	2.02
25000	303.15	1072.86	2.03
100	308.15	1059.41	2.02
2000	308.15	1060.21	2.02
3000	308.15	1060.67	2.02
5000	308.15	1061.55	2.02
10000	308.15	1063.7	2.02
15000	308.15	1065.82	2.02
20000	308.15	1067.88	2.02
25000	308.15	1069.9	2.03
100	313.15	1056.21	2.02
2000	313.15	1057.03	2.02
3000	313.15	1057.51	2.02
5000	313.15	1058.4	2.02
10000	313.15	1060.6	2.02
15000	313.15	1062.76	2.02
20000	313.15	1064.86	2.02
25000	313.15	1066.92	2.03
100	318.15	1052.99	2.02
2000	318.15	1053.83	2.02
3000	318.15	1054.32	2.02
5000	318.15	1055.23	2.02
10000	318.15	1057.47	2.02
15000	318.15	1059.68	2.02
20000	318.15	1061.82	2.02
25000	318.15	1063.93	2.02
100	323.15	1049.76	2.02
2000	323.15	1050.61	2.02
3000	323.15	1051.11	2.02
5000	323.15	1052.04	2.02
10000	323.15	1054.32	2.02
15000	323.15	1056.58	2.02
20000	323.15	1058.76	2.02
25000	323.15	1060.91	2.02
100	328.15	1046.5	2.01
2000	328.15	1047.37	2.02
3000	328.15	1047.89	2.02
5000	328.15	1048.84	2.02
10000	328.15	1051.16	2.02
15000	328.15	1053.47	2.02
20000	328.15	1055.68	2.02
25000	328.15	1057.87	2.02
100	333.15	1043.23	2.01
2000	333.15	1044.11	2.02
3000	333.15	1044.64	2.02
5000	333.15	1045.61	2.02
10000	333.15	1047.97	2.02
15000	333.15	1050.33	2.02
20000	333.15	1052.59	2.02
25000	333.15	1054.82	2.02
100	338.15	1039.93	2.01
2000	338.15	1040.84	2.01
3000	338.15	1041.38	2.01
5000	338.15	1042.36	2.02
10000	338.15	1044.77	2.02
15000	338.15	1047.17	2.02
20000	338.15	1049.47	2.02
25000	338.15	1051.74	2.02
100	343.15	1036.62	2.01
2000	343.15	1037.54	2.01
3000	343.15	1038.1	2.01
5000	343.15	1039.1	2.02
10000	343.15	1041.55	2.02
15000	343.15	1043.99	2.02
20000	343.15	1046.33	2.02
25000	343.15	1048.65	2.02
100	348.15	1033.29	2.01
2000	348.15	1034.23	2.01
3000	348.15	1034.8	2.01
5000	348.15	1035.81	2.01
10000	348.15	1038.3	2.02
15000	348.15	1040.8	2.02
20000	348.15	1043.17	2.02
25000	348.15	1045.54	2.02
100	353.15	1029.94	2.01
2000	353.15	1030.9	2.01
3000	353.15	1031.48	2.01
5000	353.15	1032.51	2.01
10000	353.15	1035.04	2.02
15000	353.15	1037.58	2.02
20000	353.15	1040	2.02
25000	353.15	1042.4	2.02
100	358.15	1026.57	2.01
2000	358.15	1027.55	2.01
3000	358.15	1028.14	2.01
5000	358.15	1029.19	2.01
10000	358.15	1031.76	2.01
15000	358.15	1034.35	2.02
20000	358.15	1036.8	2.02
25000	358.15	1039.25	2.02

System: 2-hydroxy-N-methylethanaminium propionate; phases: Liquid
Fixed: Pressure, kPa = 101
Property: Molar heat capacity at constant pressure, J/K/mol (Liquid); method: Small sample (50 mg) DSC
Temperature, K	Molar heat capacity at constant pressure, J/K/mol	uncertainty
289.15	323.6	13.7
290.15	324.9	13.8
291.15	324.9	13.8
292.15	325.7	13.8
293.15	326.1	13.8
294.15	326.7	13.9
295.15	327.2	13.9
296.15	327.5	13.9
297.15	327.9	13.9
298.15	328.2	13.9
299.15	328.5	13.9
300.15	329	14
301.15	329.3	14
302.15	329.6	14
303.15	330	14
304.15	330.3	14
305.15	330.6	14
288.15	324.3	13.8
289.15	324.6	13.8
290.15	325.5	13.8
291.15	326	13.8
292.15	326.3	13.8
293.15	326.6	13.9
294.15	326.6	13.9
295.15	327	13.9
296.15	327.2	13.9
297.15	327.8	13.9
298.15	328.2	13.9
299.15	328.7	13.9
300.15	329.1	14
301.15	329.7	14
302.15	330	14
303.15	330.3	14
304.15	330.3	14
305.15	330.6	14
306.15	330.7	14
287.15	322.8	13.7
288.15	323.1	13.7
289.15	324.5	13.8
290.15	324.8	13.8
291.15	325.5	13.8
292.15	326	13.8
293.15	326.3	13.8
294.15	326.7	13.9
295.15	326.7	13.9
296.15	327.2	13.9
297.15	327.5	13.9
298.15	327.9	13.9
299.15	328.2	13.9
300.15	328.7	13.9
301.15	329.1	14
302.15	329.4	14
303.15	329.7	14
304.15	329.9	14
305.15	330	14
290.15	323.3	13.7
291.15	324.6	13.8
292.15	325.1	13.8
293.15	325.8	13.8
294.15	326.3	13.8
295.15	326.7	13.9
296.15	326.7	13.9
297.15	326.9	13.9
298.15	327.3	13.9
299.15	327.5	13.9
300.15	328.2	13.9
301.15	328.4	13.9
302.15	328.8	13.9
303.15	329.1	14
304.15	329.4	14
305.15	329.7	14
306.15	330.2	14
288.15	322.8	13.7
289.15	323.3	13.7
290.15	323.7	13.7
291.15	324.3	13.8
292.15	324.6	13.8
293.15	325.1	13.8
294.15	325.4	13.8
295.15	326	13.8
296.15	326.3	13.8
297.15	326.4	13.8
298.15	326.7	13.9
299.15	326.9	13.9
300.15	327.2	13.9
301.15	327.9	13.9
302.15	328.4	13.9
303.15	328.8	13.9
304.15	329.1	14
305.15	329.3	14
306.15	329.6	14
307.15	329.9	14
308.15	330.2	14
309.15	330.5	14
310.15	330.9	14
311.15	331.2	14.1
312.15	331.6	14.1
313.15	332.1	14.1
314.15	332.4	14.1
315.15	332.7	14.1
316.15	332.8	14.1
317.15	333	14.1
318.15	333.1	14.1
319.15	333.4	14.1
320.15	333.6	14.2
321.15	333.9	14.2
322.15	334	14.2
323.15	334.5	14.2
324.15	334.9	14.2
325.15	335.4	14.2
326.15	335.8	14.2

System: N-methyl-2-hydroxyethylammonium butanoate; phases: Liquid
Property: Mass density, kg/m3 (Liquid); method: Vibrating tube method
Pressure, kPa	Temperature, K	Mass density, kg/m3	uncertainty
100	298.15	1035.29	2.01
5000	298.15	1037.49	2.01
10000	298.15	1039.66	2.02
15000	298.15	1041.88	2.02
20000	298.15	1043.97	2.02
25000	298.15	1046.02	2.02
100	308.15	1028.57	2.01
5000	308.15	1030.87	2.01
10000	308.15	1033.14	2.02
15000	308.15	1035.43	2.02
20000	308.15	1037.61	2.02
25000	308.15	1039.73	2.02
100	318.15	1021.88	2.01
5000	318.15	1024.28	2.01
10000	318.15	1026.66	2.01
15000	318.15	1029.02	2.02
20000	318.15	1031.28	2.02
25000	318.15	1033.49	2.02
100	328.15	1015.21	2.01
5000	328.15	1017.71	2.01
10000	328.15	1020.2	2.01
15000	328.15	1022.64	2.01
20000	328.15	1024.99	2.02
25000	328.15	1027.31	2.02
100	338.15	1008.57	2.01
5000	338.15	1011.17	2.01
10000	338.15	1013.77	2.01
15000	338.15	1016.3	2.01
20000	338.15	1018.73	2.01
25000	338.15	1021.17	2.01
100	348.15	1001.95	2.01
5000	348.15	1004.66	2.01
10000	348.15	1007.36	2.01
15000	348.15	1010	2.01
20000	348.15	1012.5	2.01
25000	348.15	1015.08	2.01
100	358.15	995.35	2.01
5000	358.15	998.16	2.01
10000	358.15	1000.98	2.01
15000	358.15	1003.73	2.01
20000	358.15	1006.31	2.01
25000	358.15	1009.04	2.01

System: N-methyl-2-hydroxyethylammonium butanoate; phases: Liquid
Fixed: Pressure, kPa = 101
Property: Molar heat capacity at constant pressure, J/K/mol (Liquid); method: Small sample (50 mg) DSC
Temperature, K	Molar heat capacity at constant pressure, J/K/mol	uncertainty
286.15	357.3	15.2
287.15	358.4	15.2
288.15	357	15.1
294.15	361	15.3
295.15	358.1	15.2
296.15	357.1	15.2
297.15	358.9	15.2
298.15	359.6	15.3
299.15	360.7	15.3
300.15	361.2	15.3
301.15	361.7	15.3
302.15	362.2	15.4
303.15	362.3	15.4
304.15	362.8	15.4
305.15	363.3	15.4
306.15	363.8	15.4
307.15	364.3	15.5
308.15	364.8	15.5
309.15	364.9	15.5
310.15	365.4	15.5
311.15	365.8	15.5
312.15	366.4	15.5
313.15	367.2	15.6
314.15	368	15.6
315.15	368.7	15.6
316.15	369.2	15.7
317.15	369.5	15.7
318.15	369.7	15.7
319.15	370	15.7
320.15	370.2	15.7
321.15	370.7	15.7
322.15	371.2	15.7
323.15	371.5	15.8
324.15	372.1	15.8
325.15	372.8	15.8
326.15	373.8	15.9
327.15	374.7	15.9
328.15	375.4	15.9
329.15	375.7	15.9
330.15	375.6	15.9
331.15	375.4	15.9
332.15	375.2	15.9
333.15	374.9	15.9
334.15	375.2	15.9
335.15	375.7	15.9
336.15	377.2	16
290.15	358.9	15.2
291.15	360.7	15.3
292.15	356.8	15.1
293.15	358.6	15.2
294.15	360.1	15.3
295.15	360.9	15.3
296.15	361.7	15.3
297.15	362.7	15.4
298.15	363.2	15.4
299.15	364	15.4
300.15	364.6	15.5
301.15	365.3	15.5
302.15	365.8	15.5
303.15	366.4	15.5
304.15	367.1	15.6
305.15	367.6	15.6
306.15	368	15.6
307.15	368.5	15.6
308.15	368.9	15.7
309.15	369.4	15.7
310.15	369.7	15.7
311.15	370.3	15.7
312.15	370.8	15.7
313.15	371.5	15.8
314.15	372.1	15.8
315.15	372.8	15.8
316.15	373.6	15.9
317.15	374.3	15.9
318.15	374.7	15.9
319.15	375.4	15.9
320.15	375.7	15.9
321.15	376.2	16
322.15	376.9	16
323.15	377.5	16
324.15	378.2	16
325.15	378.7	16.1
326.15	379.3	16.1
327.15	380.1	16.1
328.15	380.6	16.1
329.15	381.3	16.2
330.15	381.8	16.2
331.15	382.1	16.2
332.15	382.9	16.2
333.15	383.1	16.3
334.15	383.9	16.3
335.15	384.7	16.3

System: 2-hydroxy-N-methylethanaminium pentanoate; phases: Liquid
Property: Mass density, kg/m3 (Liquid); method: Vibrating tube method
Pressure, kPa	Temperature, K	Mass density, kg/m3	uncertainty
100	298.15	1009.33	2.01
5000	298.15	1011.62	2.01
10000	298.15	1014.08	2.01
15000	298.15	1016.41	2.01
20000	298.15	1018.67	2.01
25000	298.15	1020.85	2.01
100	308.15	1002.78	2.01
5000	308.15	1005.23	2.01
10000	308.15	1007.73	2.01
15000	308.15	1010.14	2.01
20000	308.15	1012.49	2.01
25000	308.15	1014.74	2.01
100	318.15	996.28	2.01
5000	318.15	998.89	2.01
10000	318.15	1001.45	2.01
15000	318.15	1003.96	2.01
20000	318.15	1006.39	2.01
25000	318.15	1008.72	2.01
100	328.15	989.85	2.01
5000	328.15	992.6	2.01
10000	328.15	995.24	2.01
15000	328.15	997.85	2.01
20000	328.15	1000.37	2.01
25000	328.15	1002.79	2.01
100	338.15	983.48	2.01
5000	338.15	986.35	2.01
10000	338.15	989.11	2.01
15000	338.15	991.83	2.01
20000	338.15	994.43	2.01
25000	338.15	996.97	2.01
100	348.15	977.17	2.01
5000	348.15	980.15	2.01
10000	348.15	983.05	2.01
15000	348.15	985.88	2.01
20000	348.15	988.57	2.01
25000	348.15	991.23	2.01
100	358.15	970.92	2.01
5000	358.15	974	2.01
10000	358.15	977.05	2.01
15000	358.15	980.01	2.01
20000	358.15	982.79	2.01
25000	358.15	985.59	2.01

System: 2-hydroxy-N-methylethanaminium pentanoate; phases: Liquid
Fixed: Pressure, kPa = 101
Property: Molar heat capacity at constant pressure, J/K/mol (Liquid); method: Small sample (50 mg) DSC
Temperature, K	Molar heat capacity at constant pressure, J/K/mol	uncertainty
287.15	396.1	16.8
288.15	397	16.8
289.15	397.2	16.9
290.15	397.7	16.9
291.15	398.4	16.9
292.15	398.8	16.9
293.15	399.3	16.9
294.15	399.7	17
295.15	400.2	17
296.15	400.7	17
297.15	401.3	17
298.15	401.8	17
299.15	402.3	17.1
300.15	402.9	17.1
301.15	403.2	17.1
302.15	403.6	17.1
303.15	403.9	17.1
304.15	404.3	17.2
305.15	404.6	17.2
306.15	405	17.2
288.15	396.3	16.8
289.15	396	16.8
290.15	396.8	16.8
291.15	397.4	16.9
292.15	397.9	16.9
293.15	398.3	16.9
294.15	398.4	16.9
295.15	399	16.9
296.15	399.3	16.9
297.15	399.9	17
298.15	400.6	17
299.15	401.1	17
300.15	401.8	17
301.15	402.3	17.1
302.15	402.7	17.1
303.15	403	17.1
304.15	403.2	17.1
305.15	403.6	17.1
287.15	394.2	16.7
288.15	395.6	16.8
289.15	395.8	16.8
290.15	396.5	16.8
291.15	397	16.8
292.15	397.4	16.9
293.15	397.7	16.9
294.15	398.1	16.9
295.15	398.8	16.9
296.15	399.3	16.9
297.15	400	17
298.15	400.6	17
299.15	401.1	17
300.15	401.3	17
301.15	401.6	17
302.15	402	17.1
303.15	402.3	17.1
304.15	402.5	17.1
305.15	402.9	17.1
306.15	403	17.1
288.15	393.5	16.7
289.15	394.7	16.7
290.15	395.1	16.8
291.15	395.8	16.8
292.15	396.3	16.8
293.15	396.5	16.8
294.15	397	16.8
295.15	397.2	16.9
296.15	397.9	16.9
297.15	398.4	16.9
298.15	399	16.9
299.15	399.5	16.9
300.15	400.2	17
301.15	400.6	17
302.15	401.1	17
303.15	401.3	17
304.15	401.6	17
305.15	402	17.1
306.15	402.3	17.1
307.15	402.7	17.1
308.15	403	17.1
309.15	403.4	17.1
310.15	403.8	17.1
311.15	404.3	17.2
312.15	404.6	17.2
313.15	405.2	17.2
314.15	405.5	17.2
315.15	405.7	17.2
316.15	406.1	17.2
317.15	406.1	17.2
318.15	406.4	17.2
319.15	406.8	17.3
320.15	407.1	17.3
321.15	407.5	17.3
322.15	407.8	17.3
323.15	408.2	17.3
324.15	408.5	17.3
325.15	408.9	17.3
283.15	384.8	16.3
288.15	388.2	16.5
293.15	391.2	16.6
298.15	394.5	16.7
303.15	397.9	16.9
308.15	401.6	17
313.15	405	17.2
318.15	408.9	17.3
323.15	412.8	17.5
328.15	416.7	17.7
333.15	420.6	17.8
