Measured thermophysical data. Isobaric specific heat capacity of {xH2O + (1 x)NH3} with x = (0.0000, 0.1566, 0.1597, 0.3030, 0.3048, 0.4956, 0.7061, and 0.8489) at T = (280, 300, 320, and 360) K over the pressure range from (0.1 to 15) MPa
Source: J. Chem. Thermodyn., 2008, 10.1016/j.jct.2007.06.013
Compound 1: ammonia, H3N, InChI=1S/H3N/h1H3
Compound 2: water, H2O, InChI=1S/H2O/h1H2

System: ammonia; phases: Liquid
Property: Molar heat capacity at constant pressure, J/K/mol (Liquid); method: calorimeter with the thermal relaxation.
Pressure, kPa	Temperature, K	Molar heat capacity at constant pressure, J/K/mol	uncertainty
1000	280	76.8078256	2.0436672
5000	280	75.6156864	4.5982512
5000	300	76.8078256	3.406112
5000	320	77.8296592	2.0436672
5000	360	95.2008304	1.703056
10000	360	92.816552	1.703056
15000	360	90.261968	3.0655008

System: ammonia + water; phases: Liquid
Property: Molar heat capacity at constant pressure, J/K/mol (Liquid); method: calorimeter with the thermal relaxation.
Pressure, kPa	Mole fraction of water	Temperature, K	Molar heat capacity at constant pressure, J/K/mol	uncertainty
100	0.7061	280	68.954	1.42
100	0.8489	280	70.037	1.43
100	0.8489	300	73.253	0.54
1000	0	280	76.808	2.044
1000	0.1566	280	76.129	1.89
1000	0.1566	300	78.191	2.921
1000	0.303	280	71.915	1.733
1000	0.303	300	77.634	2.773
1000	0.4956	280	76.381	1.58
1000	0.4956	300	80.936	2.803
1000	0.4956	320	79.71	2.102
1000	0.7061	280	69.485	1.6
1000	0.7061	300	75.335	2.659
1000	0.7061	320	75.512	1.95
1000	0.7061	360	79.766	1.06
1000	0.8489	280	70.93	1.43
1000	0.8489	300	74.861	2.501
1000	0.8489	320	73.967	1.965
1000	0.8489	360	76.111	0.89
5000	0	280	75.616	4.598
5000	0	300	76.808	3.406
5000	0	320	77.83	2.044
5000	0	360	95.201	1.703
5000	0.1566	280	74.582	4.296
5000	0.1566	300	76.129	3.265
5000	0.1566	320	77.847	1.89
5000	0.1597	360	85.939	1.38
5000	0.303	280	74.168	3.986
5000	0.303	300	77.287	3.119
5000	0.303	320	80.926	1.733
5000	0.3048	360	84.92	1.21
5000	0.4956	280	76.031	3.854
5000	0.4956	300	78.834	2.978
5000	0.4956	320	82.863	1.752
5000	0.4956	360	83.213	1.23
5000	0.7061	280	72.676	3.722
5000	0.7061	300	76.576	2.836
5000	0.7061	320	79.412	1.6
5000	0.7061	360	81.716	1.06
5000	0.8489	280	72.895	3.573
5000	0.8489	300	74.861	2.68
5000	0.8489	320	77.183	1.61
5000	0.8489	360	77.541	1.07
10000	0	360	92.817	1.703
10000	0.1597	360	86.97	1.38
10000	0.3048	360	88.213	1.39
10000	0.4956	360	85.316	1.05
10000	0.7061	360	84.552	1.06
10000	0.8489	360	80.042	1.07
15000	0	360	90.262	3.066
15000	0.1597	360	86.111	2.578
15000	0.3048	360	86.654	2.426
15000	0.4956	360	85.841	2.277
15000	0.7061	360	84.73	2.127
15000	0.8489	360	79.685	2.144
