Measured thermophysical data. Investigations on molecular interaction of some amino acids with the drug levofloxacin in aqueous solution by volumetric and acoustic methods at different temperatures
Source: J. Chem. Thermodyn., 2017, 10.1016/j.jct.2016.09.027
Compound 1: 2-aminoacetic acid, C2H5NO2, InChI=1S/C2H5NO2/c3-1-2(4)5/h1,3H2,(H,4,5), purity 99%
Compound 2: (S)-2-aminopropanoic acid, C3H7NO2, InChI=1S/C3H7NO2/c1-2(4)3(5)6/h2H,4H2,1H3,(H,5,6)/t2-/m0/s1, purity 99%
Compound 3: L-valine, C5H11NO2, InChI=1S/C5H11NO2/c1-3(2)4(6)5(7)8/h3-4H,6H2,1-2H3,(H,7,8)/t4-/m0/s1, purity 99%
Compound 4: levofloxacin, C18H20FN3O4, InChI=1S/C18H20FN3O4/c1-10-9-26-17-14-11(16(23)12(18(24)25)8-22(10)14)7-13(19)15(17)21-5-3-20(2)4-6-21/h7-8,10H,3-6,9H2,1-2H3,(H,24,25)/t10-/m0/s1, purity 98%
Compound 5: water, H2O, InChI=1S/H2O/h1H2

System: 2-aminoacetic acid + water + levofloxacin; phases: Liquid
Fixed: Pressure, kPa = 100
Property: Mass density, kg/m3 (Liquid); method: Vibrating tube method
Solvent: Molality, mol/kg of levofloxacin	Molality, mol/kg of 2-aminoacetic acid	Temperature, K	Mass density, kg/m3	uncertainty
0.005	0	288.15	1001.503	2.014
0.005	0.02007	288.15	1002.167	2.014
0.005	0.06027	288.15	1003.484	2.014
0.005	0.10024	288.15	1004.775	2.014
0.005	0.13996	288.15	1006.05	2.015
0.005	0.17017	288.15	1007.01	2.015
0.005	0.1997	288.15	1007.94	2.015
0.005	0	293.15	1000.608	2.014
0.005	0.02007	293.15	1001.262	2.014
0.005	0.06027	293.15	1002.561	2.014
0.005	0.10024	293.15	1003.839	2.014
0.005	0.13996	293.15	1005.096	2.014
0.005	0.17017	293.15	1006.045	2.015
0.005	0.1997	293.15	1006.96	2.015
0.005	0	298.15	999.444	2.014
0.005	0.02007	298.15	1000.092	2.014
0.005	0.06027	298.15	1001.377	2.014
0.005	0.10024	298.15	1002.637	2.014
0.005	0.13996	298.15	1003.868	2.014
0.005	0.17017	298.15	1004.795	2.014
0.005	0.1997	298.15	1005.691	2.015
0.005	0	303.15	998.037	2.014
0.005	0.02007	303.15	998.681	2.014
0.005	0.06027	303.15	999.956	2.014
0.005	0.10024	303.15	1001.204	2.014
0.005	0.13996	303.15	1002.423	2.014
0.005	0.17017	303.15	1003.342	2.014
0.005	0.1997	303.15	1004.227	2.015
0.005	0	308.15	996.415	2.014
0.005	0.02007	308.15	997.054	2.014
0.005	0.06027	308.15	998.319	2.014
0.005	0.10024	308.15	999.559	2.014
0.005	0.13996	308.15	1000.766	2.014
0.005	0.17017	308.15	1001.675	2.014
0.005	0.1997	308.15	1002.549	2.014
0.01	0	288.15	1002.041	2.014
0.01	0.02001	288.15	1002.714	2.014
0.01	0.05993	288.15	1004.042	2.014
0.01	0.09997	288.15	1005.349	2.014
0.01	0.13975	288.15	1006.634	2.015
0.01	0.16978	288.15	1007.598	2.015
0.01	0.19992	288.15	1008.547	2.015
0.01	0	293.15	1001.136	2.014
0.01	0.02001	293.15	1001.802	2.014
0.01	0.05993	293.15	1003.113	2.014
0.01	0.09997	293.15	1004.403	2.014
0.01	0.13975	293.15	1005.676	2.014
0.01	0.16978	293.15	1006.624	2.015
0.01	0.19992	293.15	1007.561	2.015
0.01	0	298.15	999.956	2.014
0.01	0.02001	298.15	1000.617	2.014
0.01	0.05993	298.15	1001.92	2.014
0.01	0.09997	298.15	1003.195	2.014
0.01	0.13975	298.15	1004.451	2.014
0.01	0.16978	298.15	1005.392	2.015
0.01	0.19992	298.15	1006.32	2.015
0.01	0	303.15	998.556	2.014
0.01	0.02001	303.15	999.208	2.014
0.01	0.05993	303.15	1000.493	2.014
0.01	0.09997	303.15	1001.755	2.014
0.01	0.13975	303.15	1003	2.014
0.01	0.16978	303.15	1003.931	2.014
0.01	0.19992	303.15	1004.844	2.015
0.01	0	308.15	996.926	2.014
0.01	0.02001	308.15	997.573	2.014
0.01	0.05993	308.15	998.849	2.014
0.01	0.09997	308.15	1000.105	2.014
0.01	0.13975	308.15	1001.339	2.014
0.01	0.16978	308.15	1002.264	2.014
0.01	0.19992	308.15	1003.175	2.014
0.03	0	288.15	1004.525	2.014
0.03	0.0201	288.15	1005.185	2.014
0.03	0.05906	288.15	1006.453	2.014
0.03	0.10004	288.15	1007.77	2.015
0.03	0.13816	288.15	1008.98	2.015
0.03	0.16975	288.15	1009.973	2.015
0.03	0.19935	288.15	1010.893	2.015
0.03	0	293.15	1003.592	2.014
0.03	0.0201	293.15	1004.244	2.014
0.03	0.05906	293.15	1005.494	2.014
0.03	0.10004	293.15	1006.786	2.014
0.03	0.13816	293.15	1007.981	2.015
0.03	0.16975	293.15	1008.959	2.015
0.03	0.19935	293.15	1009.867	2.015
0.03	0	298.15	1002.394	2.014
0.03	0.0201	298.15	1003.039	2.014
0.03	0.05906	298.15	1004.273	2.014
0.03	0.10004	298.15	1005.558	2.014
0.03	0.13816	298.15	1006.741	2.015
0.03	0.16975	298.15	1007.711	2.015
0.03	0.19935	298.15	1008.61	2.015
0.03	0	303.15	1000.958	2.014
0.03	0.0201	303.15	1001.596	2.014
0.03	0.05906	303.15	1002.821	2.014
0.03	0.10004	303.15	1004.095	2.014
0.03	0.13816	303.15	1005.266	2.014
0.03	0.16975	303.15	1006.228	2.015
0.03	0.19935	303.15	1007.12	2.015
0.03	0	308.15	999.305	2.014
0.03	0.0201	308.15	999.939	2.014
0.03	0.05906	308.15	1001.155	2.014
0.03	0.10004	308.15	1002.42	2.014
0.03	0.13816	308.15	1003.586	2.014
0.03	0.16975	308.15	1004.536	2.014
0.03	0.19935	308.15	1005.423	2.015

System: 2-aminoacetic acid + water + levofloxacin; phases: Liquid
Fixed: Pressure, kPa = 100
Fixed: Frequency, MHz = 3
Property: Speed of sound, m/s (Liquid); method: Sing-around technique in a fixed-path interferometer
Solvent: Molality, mol/kg of levofloxacin	Molality, mol/kg of 2-aminoacetic acid	Temperature, K	Speed of sound, m/s	uncertainty
0.005	0	288.15	1467.44	1.61
0.005	0.02007	288.15	1468.61	1.61
0.005	0.06027	288.15	1471.08	1.61
0.005	0.10024	288.15	1473.18	1.61
0.005	0.13996	288.15	1475.28	1.61
0.005	0.17017	288.15	1477.07	1.61
0.005	0.1997	288.15	1478.56	1.61
0.005	0	293.15	1483.22	1.61
0.005	0.02007	293.15	1484.3	1.61
0.005	0.06027	293.15	1486.74	1.61
0.005	0.10024	293.15	1488.64	1.61
0.005	0.13996	293.15	1490.75	1.61
0.005	0.17017	293.15	1492.47	1.61
0.005	0.1997	293.15	1493.94	1.61
0.005	0	298.15	1497.34	1.61
0.005	0.02007	298.15	1498.4	1.62
0.005	0.06027	298.15	1500.75	1.62
0.005	0.10024	298.15	1502.62	1.62
0.005	0.13996	298.15	1504.65	1.62
0.005	0.17017	298.15	1506.33	1.62
0.005	0.1997	298.15	1507.74	1.62
0.005	0	303.15	1509.67	1.62
0.005	0.02007	303.15	1510.7	1.62
0.005	0.06027	303.15	1512.99	1.62
0.005	0.10024	303.15	1514.79	1.62
0.005	0.13996	303.15	1516.77	1.62
0.005	0.17017	303.15	1518.41	1.62
0.005	0.1997	303.15	1519.76	1.62
0.005	0	308.15	1520.29	1.62
0.005	0.02007	308.15	1521.28	1.62
0.005	0.06027	308.15	1523.51	1.62
0.005	0.10024	308.15	1525.26	1.62
0.005	0.13996	308.15	1527.2	1.62
0.005	0.17017	308.15	1528.8	1.62
0.005	0.1997	308.15	1530.12	1.62
0.01	0	288.15	1468.27	1.61
0.01	0.02001	288.15	1469.31	1.61
0.01	0.05993	288.15	1471.64	1.61
0.01	0.09997	288.15	1474.01	1.61
0.01	0.13975	288.15	1476.04	1.61
0.01	0.16978	288.15	1477.75	1.61
0.01	0.19992	288.15	1479.43	1.61
0.01	0	293.15	1484	1.61
0.01	0.02001	293.15	1484.97	1.61
0.01	0.05993	293.15	1487.22	1.61
0.01	0.09997	293.15	1489.53	1.61
0.01	0.13975	293.15	1491.48	1.61
0.01	0.16978	293.15	1493.1	1.61
0.01	0.19992	293.15	1494.67	1.61
0.01	0	298.15	1498.08	1.61
0.01	0.02001	298.15	1499.01	1.62
0.01	0.05993	298.15	1501.01	1.62
0.01	0.09997	298.15	1503.33	1.62
0.01	0.13975	298.15	1505.33	1.62
0.01	0.16978	298.15	1506.92	1.62
0.01	0.19992	298.15	1508.44	1.62
0.01	0	303.15	1510.39	1.62
0.01	0.02001	303.15	1511.27	1.62
0.01	0.05993	303.15	1513.39	1.62
0.01	0.09997	303.15	1515.59	1.62
0.01	0.13975	303.15	1517.4	1.62
0.01	0.16978	303.15	1518.99	1.62
0.01	0.19992	303.15	1520.43	1.62
0.01	0	308.15	1520.97	1.62
0.01	0.02001	308.15	1521.82	1.62
0.01	0.05993	308.15	1523.88	1.62
0.01	0.09997	308.15	1526.03	1.62
0.01	0.13975	308.15	1527.79	1.62
0.01	0.16978	308.15	1529.33	1.62
0.01	0.19992	308.15	1530.74	1.62
0.03	0	288.15	1471.44	1.61
0.03	0.0201	288.15	1472.52	1.61
0.03	0.05906	288.15	1474.71	1.61
0.03	0.10004	288.15	1476.98	1.61
0.03	0.13816	288.15	1479.06	1.61
0.03	0.16975	288.15	1480.9	1.61
0.03	0.19935	288.15	1482.53	1.61
0.03	0	293.15	1487.21	1.61
0.03	0.0201	293.15	1488	1.61
0.03	0.05906	293.15	1490.12	1.61
0.03	0.10004	293.15	1492.76	1.61
0.03	0.13816	293.15	1494.27	1.61
0.03	0.16975	293.15	1496.04	1.61
0.03	0.19935	293.15	1497.73	1.61
0.03	0	298.15	1500.91	1.62
0.03	0.0201	298.15	1501.9	1.62
0.03	0.05906	298.15	1503.97	1.62
0.03	0.10004	298.15	1506.22	1.62
0.03	0.13816	298.15	1507.97	1.62
0.03	0.16975	298.15	1509.74	1.62
0.03	0.19935	298.15	1511.33	1.62
0.03	0	303.15	1513.02	1.62
0.03	0.0201	303.15	1514.01	1.62
0.03	0.05906	303.15	1516	1.62
0.03	0.10004	303.15	1518.13	1.62
0.03	0.13816	303.15	1519.89	1.62
0.03	0.16975	303.15	1521.59	1.62
0.03	0.19935	303.15	1523.12	1.62
0.03	0	308.15	1523.41	1.62
0.03	0.0201	308.15	1524.4	1.62
0.03	0.05906	308.15	1526.34	1.62
0.03	0.10004	308.15	1528.39	1.62
0.03	0.13816	308.15	1530.15	1.62
0.03	0.16975	308.15	1531.79	1.62
0.03	0.19935	308.15	1533.25	1.62

System: (S)-2-aminopropanoic acid + water + levofloxacin; phases: Liquid
Fixed: Pressure, kPa = 100
Property: Mass density, kg/m3 (Liquid); method: Vibrating tube method
Solvent: Molality, mol/kg of levofloxacin	Molality, mol/kg of (S)-2-aminopropanoic acid	Temperature, K	Mass density, kg/m3	uncertainty
0.005	0	288.15	1001.503	2.014
0.005	0.0203	288.15	1002.098	2.014
0.005	0.05993	288.15	1003.25	2.014
0.005	0.1003	288.15	1004.408	2.014
0.005	0.14039	288.15	1005.542	2.014
0.005	0.16994	288.15	1006.368	2.015
0.005	0.1997	288.15	1007.193	2.015
0.005	0	293.15	1000.608	2.014
0.005	0.0203	293.15	1001.196	2.014
0.005	0.05993	293.15	1002.334	2.014
0.005	0.1003	293.15	1003.48	2.014
0.005	0.14039	293.15	1004.603	2.014
0.005	0.16994	293.15	1005.419	2.015
0.005	0.1997	293.15	1006.238	2.015
0.005	0	298.15	999.444	2.014
0.005	0.0203	298.15	1000.027	2.014
0.005	0.05993	298.15	1001.155	2.014
0.005	0.1003	298.15	1002.289	2.014
0.005	0.14039	298.15	1003.402	2.014
0.005	0.16994	298.15	1004.211	2.014
0.005	0.1997	298.15	1005.021	2.015
0.005	0	303.15	998.037	2.014
0.005	0.0203	303.15	998.618	2.014
0.005	0.05993	303.15	999.739	2.014
0.005	0.1003	303.15	1000.863	2.014
0.005	0.14039	303.15	1001.965	2.014
0.005	0.16994	303.15	1002.77	2.014
0.005	0.1997	303.15	1003.57	2.014
0.005	0	308.15	996.415	2.014
0.005	0.0203	308.15	996.992	2.014
0.005	0.05993	308.15	998.107	2.014
0.005	0.1003	308.15	999.224	2.014
0.005	0.14039	308.15	1000.322	2.014
0.005	0.16994	308.15	1001.118	2.014
0.005	0.1997	308.15	1001.914	2.014
0.01	0	288.15	1002.041	2.014
0.01	0.02002	288.15	1002.643	2.014
0.01	0.06002	288.15	1003.833	2.014
0.01	0.10012	288.15	1005.015	2.014
0.01	0.13968	288.15	1006.156	2.015
0.01	0.16969	288.15	1007.01	2.015
0.01	0.20021	288.15	1007.87	2.015
0.01	0	293.15	1001.136	2.014
0.01	0.02002	293.15	1001.733	2.014
0.01	0.06002	293.15	1002.91	2.014
0.01	0.10012	293.15	1004.079	2.014
0.01	0.13968	293.15	1005.208	2.014
0.01	0.16969	293.15	1006.053	2.015
0.01	0.20021	293.15	1006.903	2.015
0.01	0	298.15	999.956	2.014
0.01	0.02002	298.15	1000.551	2.014
0.01	0.06002	298.15	1001.724	2.014
0.01	0.10012	298.15	1002.882	2.014
0.01	0.13968	298.15	1004.006	2.014
0.01	0.16969	298.15	1004.839	2.014
0.01	0.20021	298.15	1005.68	2.015
0.01	0	303.15	998.556	2.014
0.01	0.02002	303.15	999.143	2.014
0.01	0.06002	303.15	1000.301	2.014
0.01	0.10012	303.15	1001.449	2.014
0.01	0.13968	303.15	1002.561	2.014
0.01	0.16969	303.15	1003.392	2.014
0.01	0.20021	303.15	1004.228	2.015
0.01	0	308.15	996.926	2.014
0.01	0.02002	308.15	997.51	2.014
0.01	0.06002	308.15	998.662	2.014
0.01	0.10012	308.15	999.804	2.014
0.01	0.13968	308.15	1000.909	2.014
0.01	0.16969	308.15	1001.736	2.014
0.01	0.20021	308.15	1002.566	2.014
0.03	0	288.15	1004.525	2.014
0.03	0.02	288.15	1005.113	2.014
0.03	0.0599	288.15	1006.275	2.014
0.03	0.10021	288.15	1007.434	2.015
0.03	0.14015	288.15	1008.567	2.015
0.03	0.1697	288.15	1009.394	2.015
0.03	0.19932	288.15	1010.214	2.015
0.03	0	293.15	1003.592	2.014
0.03	0.02	293.15	1004.174	2.014
0.03	0.0599	293.15	1005.323	2.014
0.03	0.10021	293.15	1006.47	2.014
0.03	0.14015	293.15	1007.589	2.015
0.03	0.1697	293.15	1008.407	2.015
0.03	0.19932	293.15	1009.219	2.015
0.03	0	298.15	1002.394	2.014
0.03	0.02	298.15	1002.97	2.014
0.03	0.0599	298.15	1004.108	2.014
0.03	0.10021	298.15	1005.244	2.014
0.03	0.14015	298.15	1006.355	2.015
0.03	0.1697	298.15	1007.166	2.015
0.03	0.19932	298.15	1007.971	2.015
0.03	0	303.15	1000.958	2.014
0.03	0.02	303.15	1001.53	2.014
0.03	0.0599	303.15	1002.659	2.014
0.03	0.10021	303.15	1003.786	2.014
0.03	0.14015	303.15	1004.891	2.014
0.03	0.1697	303.15	1005.699	2.015
0.03	0.19932	303.15	1006.499	2.015
0.03	0	308.15	999.305	2.014
0.03	0.02	308.15	999.875	2.014
0.03	0.0599	308.15	1000.998	2.014
0.03	0.10021	308.15	1002.119	2.014
0.03	0.14015	308.15	1003.216	2.014
0.03	0.1697	308.15	1004.019	2.014
0.03	0.19932	308.15	1004.816	2.015

System: (S)-2-aminopropanoic acid + water + levofloxacin; phases: Liquid
Fixed: Pressure, kPa = 100
Fixed: Frequency, MHz = 3
Property: Speed of sound, m/s (Liquid); method: Sing-around technique in a fixed-path interferometer
Solvent: Molality, mol/kg of levofloxacin	Molality, mol/kg of (S)-2-aminopropanoic acid	Temperature, K	Speed of sound, m/s	uncertainty
0.005	0	288.15	1467.44	1.61
0.005	0.0203	288.15	1469.01	1.61
0.005	0.05993	288.15	1471.75	1.61
0.005	0.1003	288.15	1474.44	1.61
0.005	0.14039	288.15	1477.26	1.61
0.005	0.16994	288.15	1479.16	1.61
0.005	0.1997	288.15	1481.37	1.61
0.005	0	293.15	1483.22	1.61
0.005	0.0203	293.15	1484.65	1.61
0.005	0.05993	293.15	1487.39	1.61
0.005	0.1003	293.15	1489.93	1.61
0.005	0.14039	293.15	1492.64	1.61
0.005	0.16994	293.15	1494.46	1.61
0.005	0.1997	293.15	1496.6	1.61
0.005	0	298.15	1497.34	1.61
0.005	0.0203	298.15	1498.74	1.62
0.005	0.05993	298.15	1501.38	1.62
0.005	0.1003	298.15	1503.83	1.62
0.005	0.14039	298.15	1506.45	1.62
0.005	0.16994	298.15	1508.2	1.62
0.005	0.1997	298.15	1510.25	1.62
0.005	0	303.15	1509.67	1.62
0.005	0.0203	303.15	1511.04	1.62
0.005	0.05993	303.15	1513.55	1.62
0.005	0.1003	303.15	1515.95	1.62
0.005	0.14039	303.15	1518.47	1.62
0.005	0.16994	303.15	1520.15	1.62
0.005	0.1997	303.15	1522.14	1.62
0.005	0	308.15	1520.29	1.62
0.005	0.0203	308.15	1521.62	1.62
0.005	0.05993	308.15	1524.02	1.62
0.005	0.1003	308.15	1526.35	1.62
0.005	0.14039	308.15	1528.78	1.62
0.005	0.16994	308.15	1530.43	1.62
0.005	0.1997	308.15	1532.35	1.62
0.01	0	288.15	1468.27	1.61
0.01	0.02002	288.15	1469.62	1.61
0.01	0.06002	288.15	1472.45	1.61
0.01	0.10012	288.15	1475.3	1.61
0.01	0.13968	288.15	1478.06	1.61
0.01	0.16969	288.15	1480	1.61
0.01	0.20021	288.15	1482.25	1.61
0.01	0	293.15	1484	1.61
0.01	0.02002	293.15	1485.29	1.61
0.01	0.06002	293.15	1487.99	1.61
0.01	0.10012	293.15	1490.73	1.61
0.01	0.13968	293.15	1493.38	1.61
0.01	0.16969	293.15	1495.26	1.61
0.01	0.20021	293.15	1497.48	1.61
0.01	0	298.15	1498.08	1.61
0.01	0.02002	298.15	1499.32	1.62
0.01	0.06002	298.15	1501.92	1.62
0.01	0.10012	298.15	1504.59	1.62
0.01	0.13968	298.15	1507.19	1.62
0.01	0.16969	298.15	1508.95	1.62
0.01	0.20021	298.15	1511.08	1.62
0.01	0	303.15	1510.39	1.62
0.01	0.02002	303.15	1511.59	1.62
0.01	0.06002	303.15	1514.09	1.62
0.01	0.10012	303.15	1516.65	1.62
0.01	0.13968	303.15	1519.1	1.62
0.01	0.16969	303.15	1520.86	1.62
0.01	0.20021	303.15	1522.91	1.62
0.01	0	308.15	1520.97	1.62
0.01	0.02002	308.15	1522.1	1.62
0.01	0.06002	308.15	1524.53	1.62
0.01	0.10012	308.15	1527.01	1.62
0.01	0.13968	308.15	1529.38	1.62
0.01	0.16969	308.15	1531.1	1.62
0.01	0.20021	308.15	1533.08	1.62
0.03	0	288.15	1471.44	1.61
0.03	0.02	288.15	1472.77	1.61
0.03	0.0599	288.15	1475.62	1.61
0.03	0.10021	288.15	1478.62	1.61
0.03	0.14015	288.15	1481.3	1.61
0.03	0.1697	288.15	1483.33	1.61
0.03	0.19932	288.15	1485.32	1.61
0.03	0	293.15	1487.21	1.61
0.03	0.02	293.15	1488.28	1.61
0.03	0.0599	293.15	1490.98	1.61
0.03	0.10021	293.15	1493.78	1.61
0.03	0.14015	293.15	1496.43	1.61
0.03	0.1697	293.15	1498.4	1.62
0.03	0.19932	293.15	1500.32	1.62
0.03	0	298.15	1500.91	1.62
0.03	0.02	298.15	1502.17	1.62
0.03	0.0599	298.15	1504.76	1.62
0.03	0.10021	298.15	1507.46	1.62
0.03	0.14015	298.15	1510.02	1.62
0.03	0.1697	298.15	1511.9	1.62
0.03	0.19932	298.15	1513.75	1.62
0.03	0	303.15	1513.02	1.62
0.03	0.02	303.15	1514.26	1.62
0.03	0.0599	303.15	1516.75	1.62
0.03	0.10021	303.15	1519.38	1.62
0.03	0.14015	303.15	1521.81	1.62
0.03	0.1697	303.15	1523.64	1.62
0.03	0.19932	303.15	1525.42	1.62
0.03	0	308.15	1523.41	1.62
0.03	0.02	308.15	1524.64	1.62
0.03	0.0599	308.15	1527.04	1.62
0.03	0.10021	308.15	1529.64	1.62
0.03	0.14015	308.15	1531.94	1.62
0.03	0.1697	308.15	1533.71	1.62
0.03	0.19932	308.15	1535.43	1.62

System: L-valine + water + levofloxacin; phases: Liquid
Fixed: Pressure, kPa = 100
Property: Mass density, kg/m3 (Liquid); method: Vibrating tube method
Solvent: Molality, mol/kg of levofloxacin	Molality, mol/kg of L-valine	Temperature, K	Mass density, kg/m3	uncertainty
0.005	0	288.15	1001.503	2.014
0.005	0.02002	288.15	1002.054	2.014
0.005	0.05985	288.15	1003.135	2.014
0.005	0.09986	288.15	1004.202	2.014
0.005	0.14017	288.15	1005.263	2.014
0.005	0.17004	288.15	1006.031	2.015
0.005	0.19923	288.15	1006.775	2.015
0.005	0	293.15	1000.608	2.014
0.005	0.02002	293.15	1001.152	2.014
0.005	0.05985	293.15	1002.221	2.014
0.005	0.09986	293.15	1003.276	2.014
0.005	0.14017	293.15	1004.32	2.014
0.005	0.17004	293.15	1005.081	2.015
0.005	0.19923	293.15	1005.816	2.015
0.005	0	298.15	999.444	2.014
0.005	0.02002	298.15	999.982	2.014
0.005	0.05985	298.15	1001.039	2.014
0.005	0.09986	298.15	1002.083	2.014
0.005	0.14017	298.15	1003.116	2.014
0.005	0.17004	298.15	1003.869	2.014
0.005	0.19923	298.15	1004.595	2.015
0.005	0	303.15	998.037	2.014
0.005	0.02002	303.15	998.571	2.014
0.005	0.05985	303.15	999.619	2.014
0.005	0.09986	303.15	1000.654	2.014
0.005	0.14017	303.15	1001.679	2.014
0.005	0.17004	303.15	1002.425	2.014
0.005	0.19923	303.15	1003.145	2.014
0.005	0	308.15	996.415	2.014
0.005	0.02002	308.15	996.945	2.014
0.005	0.05985	308.15	997.984	2.014
0.005	0.09986	308.15	999.01	2.014
0.005	0.14017	308.15	1000.027	2.014
0.005	0.17004	308.15	1000.766	2.014
0.005	0.19923	308.15	1001.48	2.014
0.01	0	288.15	1002.041	2.014
0.01	0.01999	288.15	1002.598	2.014
0.01	0.06013	288.15	1003.704	2.014
0.01	0.09979	288.15	1004.779	2.014
0.01	0.13946	288.15	1005.837	2.014
0.01	0.16991	288.15	1006.639	2.015
0.01	0.19761	288.15	1007.357	2.015
0.01	0	293.15	1001.136	2.014
0.01	0.01999	293.15	1001.687	2.014
0.01	0.06013	293.15	1002.78	2.014
0.01	0.09979	293.15	1003.844	2.014
0.01	0.13946	293.15	1004.888	2.014
0.01	0.16991	293.15	1005.68	2.015
0.01	0.19761	293.15	1006.389	2.015
0.01	0	298.15	999.956	2.014
0.01	0.01999	298.15	1000.503	2.014
0.01	0.06013	298.15	1001.588	2.014
0.01	0.09979	298.15	1002.643	2.014
0.01	0.13946	298.15	1003.678	2.014
0.01	0.16991	298.15	1004.461	2.014
0.01	0.19761	298.15	1005.162	2.015
0.01	0	303.15	998.556	2.014
0.01	0.01999	303.15	999.096	2.014
0.01	0.06013	303.15	1000.167	2.014
0.01	0.09979	303.15	1001.21	2.014
0.01	0.13946	303.15	1002.233	2.014
0.01	0.16991	303.15	1003.008	2.014
0.01	0.19761	303.15	1003.704	2.014
0.01	0	308.15	996.926	2.014
0.01	0.01999	308.15	997.462	2.014
0.01	0.06013	308.15	998.525	2.014
0.01	0.09979	308.15	999.561	2.014
0.01	0.13946	308.15	1000.577	2.014
0.01	0.16991	308.15	1001.345	2.014
0.01	0.19761	308.15	1002.035	2.014
0.03	0	288.15	1004.525	2.014
0.03	0.0191	288.15	1005.049	2.014
0.03	0.06037	288.15	1006.166	2.014
0.03	0.0997	288.15	1007.216	2.015
0.03	0.14015	288.15	1008.276	2.015
0.03	0.17019	288.15	1009.049	2.015
0.03	0.19932	288.15	1009.796	2.015
0.03	0	293.15	1003.592	2.014
0.03	0.0191	293.15	1004.11	2.014
0.03	0.06037	293.15	1005.214	2.014
0.03	0.0997	293.15	1006.249	2.014
0.03	0.14015	293.15	1007.297	2.015
0.03	0.17019	293.15	1008.06	2.015
0.03	0.19932	293.15	1008.798	2.015
0.03	0	298.15	1002.394	2.014
0.03	0.0191	298.15	1002.906	2.014
0.03	0.06037	298.15	1003.998	2.014
0.03	0.0997	298.15	1005.023	2.014
0.03	0.14015	298.15	1006.059	2.015
0.03	0.17019	298.15	1006.814	2.015
0.03	0.19932	298.15	1007.544	2.015
0.03	0	303.15	1000.958	2.014
0.03	0.0191	303.15	1001.465	2.014
0.03	0.06037	303.15	1002.548	2.014
0.03	0.0997	303.15	1003.563	2.014
0.03	0.14015	303.15	1004.588	2.014
0.03	0.17019	303.15	1005.337	2.015
0.03	0.19932	303.15	1006.061	2.015
0.03	0	308.15	999.305	2.014
0.03	0.0191	308.15	999.808	2.014
0.03	0.06037	308.15	1000.883	2.014
0.03	0.0997	308.15	1001.891	2.014
0.03	0.14015	308.15	1002.91	2.014
0.03	0.17019	308.15	1003.657	2.014
0.03	0.19932	308.15	1004.369	2.015

System: L-valine + water + levofloxacin; phases: Liquid
Fixed: Pressure, kPa = 100
Fixed: Frequency, MHz = 3
Property: Speed of sound, m/s (Liquid); method: Sing-around technique in a fixed-path interferometer
Solvent: Molality, mol/kg of levofloxacin	Molality, mol/kg of L-valine	Temperature, K	Speed of sound, m/s	uncertainty
0.005	0	288.15	1467.44	1.61
0.005	0.02002	288.15	1469.61	1.61
0.005	0.05985	288.15	1473.85	1.61
0.005	0.09986	288.15	1478.28	1.61
0.005	0.14017	288.15	1482.26	1.61
0.005	0.17004	288.15	1485.5	1.61
0.005	0.19923	288.15	1488.32	1.61
0.005	0	293.15	1483.22	1.61
0.005	0.02002	293.15	1485.26	1.61
0.005	0.05985	293.15	1489.31	1.61
0.005	0.09986	293.15	1493.4	1.61
0.005	0.14017	293.15	1497.31	1.61
0.005	0.17004	293.15	1500.6	1.61
0.005	0.19923	293.15	1503.09	1.61
0.005	0	298.15	1497.34	1.61
0.005	0.02002	298.15	1499.29	1.61
0.005	0.05985	298.15	1503.17	1.61
0.005	0.09986	298.15	1507.04	1.61
0.005	0.14017	298.15	1510.79	1.61
0.005	0.17004	298.15	1513.71	1.61
0.005	0.19923	298.15	1516.31	1.61
0.005	0	303.15	1509.67	1.61
0.005	0.02002	303.15	1511.54	1.61
0.005	0.05985	303.15	1515.24	1.61
0.005	0.09986	303.15	1518.94	1.61
0.005	0.14017	303.15	1522.51	1.62
0.005	0.17004	303.15	1525.29	1.62
0.005	0.19923	303.15	1527.81	1.62
0.005	0	308.15	1520.29	1.62
0.005	0.02002	308.15	1522.06	1.62
0.005	0.05985	308.15	1525.61	1.62
0.005	0.09986	308.15	1529.14	1.62
0.005	0.14017	308.15	1532.57	1.62
0.005	0.17004	308.15	1535.22	1.62
0.005	0.19923	308.15	1537.65	1.62
0.01	0	288.15	1468.27	1.61
0.01	0.01999	288.15	1470.4	1.61
0.01	0.06013	288.15	1474.65	1.61
0.01	0.09979	288.15	1479.09	1.61
0.01	0.13946	288.15	1483.2	1.61
0.01	0.16991	288.15	1486.14	1.61
0.01	0.19761	288.15	1489.07	1.61
0.01	0	293.15	1484	1.61
0.01	0.01999	293.15	1486	1.61
0.01	0.06013	293.15	1490.04	1.61
0.01	0.09979	293.15	1494.27	1.61
0.01	0.13946	293.15	1498.13	1.61
0.01	0.16991	293.15	1501.06	1.61
0.01	0.19761	293.15	1503.82	1.61
0.01	0	298.15	1498.08	1.61
0.01	0.01999	298.15	1499.99	1.61
0.01	0.06013	298.15	1503.85	1.61
0.01	0.09979	298.15	1507.88	1.61
0.01	0.13946	298.15	1511.59	1.61
0.01	0.16991	298.15	1514.36	1.61
0.01	0.19761	298.15	1516.97	1.61
0.01	0	303.15	1510.39	1.61
0.01	0.01999	303.15	1512.21	1.61
0.01	0.06013	303.15	1515.88	1.61
0.01	0.09979	303.15	1519.72	1.62
0.01	0.13946	303.15	1523.25	1.62
0.01	0.16991	303.15	1525.91	1.62
0.01	0.19761	303.15	1528.44	1.62
0.01	0	308.15	1520.97	1.62
0.01	0.01999	308.15	1522.7	1.62
0.01	0.06013	308.15	1526.2	1.62
0.01	0.09979	308.15	1529.89	1.62
0.01	0.13946	308.15	1533.25	1.62
0.01	0.16991	308.15	1535.81	1.62
0.01	0.19761	308.15	1538.21	1.62
0.03	0	288.15	1471.44	1.61
0.03	0.0191	288.15	1473.51	1.61
0.03	0.06037	288.15	1478.03	1.61
0.03	0.0997	288.15	1481.97	1.61
0.03	0.14015	288.15	1486.22	1.61
0.03	0.17019	288.15	1489.32	1.61
0.03	0.19932	288.15	1492.36	1.61
0.03	0	293.15	1487.21	1.61
0.03	0.0191	293.15	1488.92	1.61
0.03	0.06037	293.15	1493.22	1.61
0.03	0.0997	293.15	1497.03	1.61
0.03	0.14015	293.15	1501.06	1.61
0.03	0.17019	293.15	1504.04	1.61
0.03	0.19932	293.15	1506.94	1.61
0.03	0	298.15	1500.91	1.61
0.03	0.0191	298.15	1502.75	1.61
0.03	0.06037	298.15	1506.86	1.61
0.03	0.0997	298.15	1510.49	1.61
0.03	0.14015	298.15	1514.31	1.61
0.03	0.17019	298.15	1517.16	1.61
0.03	0.19932	298.15	1519.93	1.62
0.03	0	303.15	1513.02	1.61
0.03	0.0191	303.15	1514.79	1.61
0.03	0.06037	303.15	1518.71	1.61
0.03	0.0997	303.15	1522.18	1.62
0.03	0.14015	303.15	1525.82	1.62
0.03	0.17019	303.15	1528.55	1.62
0.03	0.19932	303.15	1531.19	1.62
0.03	0	308.15	1523.41	1.62
0.03	0.0191	308.15	1525.11	1.62
0.03	0.06037	308.15	1528.87	1.62
0.03	0.0997	308.15	1532.19	1.62
0.03	0.14015	308.15	1535.68	1.62
0.03	0.17019	308.15	1538.25	1.62
0.03	0.19932	308.15	1540.83	1.62

System: water + levofloxacin; phases: Liquid
Fixed: Pressure, kPa = 100
Property: Mass density, kg/m3 (Liquid); method: Vibrating tube method
Molality, mol/kg of levofloxacin	Temperature, K	Mass density, kg/m3	uncertainty
0.005	288.15	1001.503	2.014
0.005	293.15	1000.608	2.014
0.005	298.15	999.444	2.014
0.005	303.15	998.037	2.014
0.005	308.15	996.415	2.014
0.01	288.15	1002.041	2.014
0.01	293.15	1001.136	2.014
0.01	298.15	999.956	2.014
0.01	303.15	998.556	2.014
0.01	308.15	996.926	2.014
0.03	288.15	1004.525	2.014
0.03	293.15	1003.592	2.014
0.03	298.15	1002.394	2.014
0.03	303.15	1000.958	2.014
0.03	308.15	999.305	2.014

System: water + levofloxacin; phases: Liquid
Fixed: Pressure, kPa = 100
Fixed: Frequency, MHz = 3
Property: Speed of sound, m/s (Liquid); method: Sing-around technique in a fixed-path interferometer
Molality, mol/kg of levofloxacin	Temperature, K	Speed of sound, m/s	uncertainty
0.005	288.15	1467.44	1.61
0.005	293.15	1483.22	1.61
0.005	298.15	1497.34	1.61
0.005	303.15	1509.67	1.62
0.005	308.15	1520.29	1.62
0.01	288.15	1468.27	1.61
0.01	293.15	1484	1.61
0.01	298.15	1498.08	1.61
0.01	303.15	1510.39	1.62
0.01	308.15	1520.97	1.62
0.03	288.15	1471.44	1.61
0.03	293.15	1487.21	1.61
0.03	298.15	1500.91	1.62
0.03	303.15	1513.02	1.62
0.03	308.15	1523.41	1.62
