Measured thermophysical data. Densities and volumetric properties of (acetonitrile + an amide) binary mixtures at temperatures between 293.15 K and 318.15 K
Source: J. Chem. Thermodyn., 2006, 10.1016/j.jct.2006.01.015
Compound 1: acetonitrile, C2H3N, InChI=1S/C2H3N/c1-2-3/h1H3
Compound 2: formamide, CH3NO, InChI=1S/CH3NO/c2-1-3/h1H,(H2,2,3)
Compound 3: dimethylformamide, C3H7NO, InChI=1S/C3H7NO/c1-4(2)3-5/h3H,1-2H3
Compound 4: N-methylacetamide, C3H7NO, InChI=1S/C3H7NO/c1-3(5)4-2/h1-2H3,(H,4,5)
Compound 5: N,N-dimethylethanamide, C4H9NO, InChI=1S/C4H9NO/c1-4(6)5(2)3/h1-3H3

System: acetonitrile; phases: Liquid
Fixed: Pressure, kPa = 101
Property: Mass density, kg/m3 (Liquid); method: PYCNOM:UFactor:4
Temperature, K	Mass density, kg/m3	uncertainty
293.15	782.1	0.7
298.15	776.8	0.7
303.15	771.5	0.8
308.15	766.3	0.8
313.15	761	0.8
318.15	755.7	0.9

System: formamide; phases: Liquid
Fixed: Pressure, kPa = 101
Property: Mass density, kg/m3 (Liquid); method: PYCNOM::UFactor:4
Temperature, K	Mass density, kg/m3	uncertainty
293.15	1133	1.2
298.15	1129	1.2
303.15	1125	1.2
308.15	1121	1.3
313.15	1117	1.3
318.15	1113	1.4

System: dimethylformamide; phases: Liquid
Fixed: Pressure, kPa = 101
Property: Mass density, kg/m3 (Liquid); method: PYCNOM::UFactor:4
Temperature, K	Mass density, kg/m3	uncertainty
293.15	949.1	0.9
298.15	944.6	0.9
303.15	940.1	1
308.15	935.7	1
313.15	931.2	1
318.15	926.7	1.1

System: N-methylacetamide; phases: Liquid
Fixed: Pressure, kPa = 101
Property: Mass density, kg/m3 (Liquid); method: PYCNOM::UFactor:4
Temperature, K	Mass density, kg/m3	uncertainty
293.15	958.4	0.9
298.15	954.2	1
303.15	950.1	1
308.15	945.9	1
313.15	941.7	1.1
318.15	937.6	1.1

System: N,N-dimethylethanamide; phases: Liquid
Fixed: Pressure, kPa = 101
Property: Mass density, kg/m3 (Liquid); method: PYCNOM::UFactor:4
Temperature, K	Mass density, kg/m3	uncertainty
293.15	941	0.9
298.15	936.5	0.9
303.15	932	1
308.15	927.6	1
313.15	923.1	1
318.15	918.6	1.1

System: acetonitrile + formamide; phases: Liquid
Fixed: Pressure, kPa = 101
Property: Mass density, kg/m3 (Liquid); method: PYCNOM:UFactor:4
Temperature, K	Mole fraction of acetonitrile	Mass density, kg/m3	uncertainty
293.15	0	1133	1.2
293.15	0.0764	1104.3	1.1
293.15	0.161	1073.2	1.1
293.15	0.2485	1041.1	1
293.15	0.2976	1022.9	1
293.15	0.3444	1005.4	1
293.15	0.412	980.1	1
293.15	0.4728	957.8	0.9
293.15	0.5336	935.9	0.9
293.15	0.5862	917.2	0.9
293.15	0.6388	898.9	0.8
293.15	0.6994	878	0.8
293.15	0.7554	859.1	0.8
293.15	0.8143	839.6	0.8
293.15	0.8754	820	0.7
293.15	0.9398	800.1	0.7
293.15	1	782.1	0.7
298.15	0	1129	1.2
298.15	0.0764	1099.7	1.2
298.15	0.161	1068.1	1.1
298.15	0.2485	1035.7	1.1
298.15	0.2976	1017.3	1
298.15	0.3444	999.7	1
298.15	0.412	974.3	1
298.15	0.4728	951.9	1
298.15	0.5336	930	0.9
298.15	0.5862	911.3	0.9
298.15	0.6388	893	0.9
298.15	0.6994	872.2	0.9
298.15	0.7554	853.4	0.8
298.15	0.8143	834	0.8
298.15	0.8754	814.5	0.8
298.15	0.9398	794.7	0.8
298.15	1	776.8	0.7
303.15	0	1125	1.2
303.15	0.0764	1095.1	1.2
303.15	0.161	1063	1.2
303.15	0.2485	1030.3	1.1
303.15	0.2976	1011.7	1.1
303.15	0.3444	994	1.1
303.15	0.412	968.5	1
303.15	0.4728	946	1
303.15	0.5336	924.1	1
303.15	0.5862	905.4	0.9
303.15	0.6388	887.1	0.9
303.15	0.6994	866.4	0.9
303.15	0.7554	847.7	0.9
303.15	0.8143	828.1	0.8
303.15	0.8754	809	0.8
303.15	0.9398	789.2	0.8
303.15	1	771.5	0.8
308.15	0	1121	1.3
308.15	0.0764	1090.5	1.2
308.15	0.161	1057.9	1.2
308.15	0.2485	1024.7	1.2
308.15	0.2976	1006.1	1.1
308.15	0.3444	988.3	1.1
308.15	0.412	962.7	1.1
308.15	0.4728	940.2	1
308.15	0.5336	918.2	1
308.15	0.5862	899.6	1
308.15	0.6388	881.3	1
308.15	0.6994	860.6	0.9
308.15	0.7554	842	0.9
308.15	0.8143	822.6	0.9
308.15	0.8754	803.5	0.9
308.15	0.9398	783.8	0.8
308.15	1	766.3	0.8
313.15	0	1117	1.3
313.15	0.0764	1085.9	1.3
313.15	0.161	1052.8	1.2
313.15	0.2485	1019.3	1.2
313.15	0.2976	1000.5	1.2
313.15	0.3444	982.6	1.1
313.15	0.412	956.9	1.1
313.15	0.4728	934.3	1.1
313.15	0.5336	912.3	1
313.15	0.5862	893.7	1
313.15	0.6388	875.4	1
313.15	0.6994	854.8	1
313.15	0.7554	836.3	0.9
313.15	0.8143	817	0.9
313.15	0.8754	798	0.9
313.15	0.9398	778.4	0.9
313.15	1	761	0.8
318.15	0	1113	1.4
318.15	0.0764	1081.3	1.3
318.15	0.161	1047.7	1.3
318.15	0.2485	1013.9	1.2
318.15	0.2976	994.9	1.2
318.15	0.3444	976.9	1.2
318.15	0.412	951.1	1.1
318.15	0.4728	928.3	1.1
318.15	0.5336	906.4	1.1
318.15	0.5862	887.8	1.1
318.15	0.6388	869.5	1
318.15	0.6994	849	1
318.15	0.7554	830.4	1
318.15	0.8143	811.4	1
318.15	0.8754	792.5	0.9
318.15	0.9398	773	0.9
318.15	1	755.7	0.9

System: dimethylformamide + acetonitrile; phases: Liquid
Fixed: Pressure, kPa = 101
Property: Mass density, kg/m3 (Liquid); method: PYCNOM:UFactor:4
Temperature, K	Mole fraction of acetonitrile	Mass density, kg/m3	uncertainty
293.15	0	949.1	0.9
293.15	0.0654	942	0.9
293.15	0.1303	934.6	0.9
293.15	0.1912	927.4	0.9
293.15	0.2586	919	0.9
293.15	0.3204	910.9	0.8
293.15	0.3851	902	0.8
293.15	0.4596	891.2	0.8
293.15	0.5125	883.1	0.8
293.15	0.5925	870	0.8
293.15	0.6402	861.7	0.8
293.15	0.6899	852.6	0.8
293.15	0.731	844.7	0.8
293.15	0.7736	836.1	0.8
293.15	0.8522	818.9	0.7
293.15	0.9359	798.9	0.7
293.15	1	782.1	0.7
298.15	0	944.6	0.9
298.15	0.0654	937.5	0.9
298.15	0.1303	930.1	0.9
298.15	0.1912	922.9	0.9
298.15	0.2586	914.5	0.9
298.15	0.3204	906.3	0.9
298.15	0.3851	897.4	0.9
298.15	0.4596	886.5	0.9
298.15	0.5125	878.4	0.8
298.15	0.5925	865.2	0.8
298.15	0.6402	856.9	0.8
298.15	0.6899	847.8	0.8
298.15	0.731	839.8	0.8
298.15	0.7736	831.1	0.8
298.15	0.8522	813.9	0.8
298.15	0.9359	793.8	0.7
298.15	1	776.8	0.7
303.15	0	940.1	1
303.15	0.0654	933	1
303.15	0.1303	925.6	1
303.15	0.1912	918.4	0.9
303.15	0.2586	909.9	0.9
303.15	0.3204	901.7	0.9
303.15	0.3851	892.7	0.9
303.15	0.4596	881.8	0.9
303.15	0.5125	873.6	0.9
303.15	0.5925	860.4	0.9
303.15	0.6402	852	0.9
303.15	0.6899	842.9	0.9
303.15	0.731	834.9	0.8
303.15	0.7736	826.1	0.8
303.15	0.8522	808.9	0.8
303.15	0.9359	788.7	0.8
303.15	1	771.5	0.8
308.15	0	935.7	1
308.15	0.0654	928.6	1
308.15	0.1303	921.2	1
308.15	0.1912	914	1
308.15	0.2586	905.5	1
308.15	0.3204	897.2	1
308.15	0.3851	888.2	1
308.15	0.4596	877.2	0.9
308.15	0.5125	869	0.9
308.15	0.5925	855.7	0.9
308.15	0.6402	847.3	0.9
308.15	0.6899	838.1	0.9
308.15	0.731	830	0.9
308.15	0.7736	821.2	0.9
308.15	0.8522	803.9	0.9
308.15	0.9359	783.6	0.8
308.15	1	766.3	0.8
313.15	0	931.2	1
313.15	0.0654	924.1	1
313.15	0.1303	916.7	1
313.15	0.1912	909.4	1
313.15	0.2586	900.9	1
313.15	0.3204	892.6	1
313.15	0.3851	883.6	1
313.15	0.4596	872.5	1
313.15	0.5125	864.2	1
313.15	0.5925	850.9	1
313.15	0.6402	842.5	0.9
313.15	0.6899	833.2	0.9
313.15	0.731	825.1	0.9
313.15	0.7736	816.3	0.9
313.15	0.8522	798.9	0.9
313.15	0.9359	778.5	0.9
313.15	1	761	0.8
318.15	0	926.7	1.1
318.15	0.0654	919.6	1.1
318.15	0.1303	912.2	1.1
318.15	0.1912	904.9	1.1
318.15	0.2586	896.4	1.1
318.15	0.3204	888.1	1
318.15	0.3851	879	1
318.15	0.4596	867.9	1
318.15	0.5125	859.5	1
318.15	0.5925	846.1	1
318.15	0.6402	837.6	1
318.15	0.6899	828.3	1
318.15	0.731	820.2	1
318.15	0.7736	811.4	1
318.15	0.8522	793.9	0.9
318.15	0.9359	773.4	0.9
318.15	1	755.7	0.9

System: acetonitrile + N-methylacetamide; phases: Liquid
Fixed: Pressure, kPa = 101
Property: Mass density, kg/m3 (Liquid); method: PYCNOM:UFactor:4
Temperature, K	Mole fraction of acetonitrile	Mass density, kg/m3	uncertainty
293.15	0	958.4	0.9
293.15	0.0637	951.5	0.9
293.15	0.1232	944.8	0.9
293.15	0.1926	936.5	0.9
293.15	0.2665	927.2	0.9
293.15	0.3244	919.5	0.9
293.15	0.3702	913.2	0.9
293.15	0.4365	903.5	0.8
293.15	0.4925	894.7	0.8
293.15	0.5412	886.6	0.8
293.15	0.58	879.8	0.8
293.15	0.6301	870.6	0.8
293.15	0.6766	861.6	0.8
293.15	0.7613	843.8	0.8
293.15	0.8305	827.8	0.7
293.15	0.9203	804.8	0.7
293.15	1	782.1	0.7
298.15	0	954.2	1
298.15	0.0637	947.2	1
298.15	0.1232	940.3	0.9
298.15	0.1926	931.9	0.9
298.15	0.2665	922.5	0.9
298.15	0.3244	914.7	0.9
298.15	0.3702	908.3	0.9
298.15	0.4365	898.5	0.9
298.15	0.4925	889.6	0.9
298.15	0.5412	881.4	0.9
298.15	0.58	874.6	0.9
298.15	0.6301	865.3	0.8
298.15	0.6766	856.3	0.8
298.15	0.7613	838.4	0.8
298.15	0.8305	822.4	0.8
298.15	0.9203	799.5	0.8
298.15	1	776.8	0.7
303.15	0	950.1	1
303.15	0.0637	942.9	1
303.15	0.1232	935.9	1
303.15	0.1926	927.3	1
303.15	0.2665	917.8	1
303.15	0.3244	909.9	1
303.15	0.3702	903.4	0.9
303.15	0.4365	893.5	0.9
303.15	0.4925	884.5	0.9
303.15	0.5412	876.2	0.9
303.15	0.58	869.4	0.9
303.15	0.6301	860.1	0.9
303.15	0.6766	851	0.9
303.15	0.7613	833	0.8
303.15	0.8305	817	0.8
303.15	0.9203	794.2	0.8
303.15	1	771.5	0.8
308.15	0	945.9	1
308.15	0.0637	938.6	1
308.15	0.1232	931.4	1
308.15	0.1926	922.8	1
308.15	0.2665	913.1	1
308.15	0.3244	905.1	1
308.15	0.3702	898.5	1
308.15	0.4365	888.5	1
308.15	0.4925	879.4	1
308.15	0.5412	871.1	0.9
308.15	0.58	864.2	0.9
308.15	0.6301	854.9	0.9
308.15	0.6766	845.7	0.9
308.15	0.7613	827.7	0.9
308.15	0.8305	811.6	0.9
308.15	0.9203	788.8	0.8
308.15	1	766.3	0.8
313.15	0	941.7	1.1
313.15	0.0637	934.3	1.1
313.15	0.1232	927	1.1
313.15	0.1926	918.2	1.1
313.15	0.2665	908.4	1
313.15	0.3244	900.3	1
313.15	0.3702	893.6	1
313.15	0.4365	883.5	1
313.15	0.4925	874.3	1
313.15	0.5412	865.9	1
313.15	0.58	859	1
313.15	0.6301	849.6	1
313.15	0.6766	840.4	0.9
313.15	0.7613	822.3	0.9
313.15	0.8305	806.2	0.9
313.15	0.9203	783.4	0.9
313.15	1	761	0.8
318.15	0	937.6	1.1
318.15	0.0637	930	1.1
318.15	0.1232	922.6	1.1
318.15	0.1926	913.7	1.1
318.15	0.2665	903.7	1.1
318.15	0.3244	895.5	1.1
318.15	0.3702	888.7	1.1
318.15	0.4365	878.5	1
318.15	0.4925	869.3	1
318.15	0.5412	860.8	1
318.15	0.58	853.8	1
318.15	0.6301	844.4	1
318.15	0.6766	835.1	1
318.15	0.7613	816.9	1
318.15	0.8305	800.8	0.9
318.15	0.9203	778	0.9
318.15	1	755.7	0.9

System: acetonitrile + N,N-dimethylethanamide; phases: Liquid
Fixed: Pressure, kPa = 101
Property: Mass density, kg/m3 (Liquid); method: PYCNOM:UFactor:4
Temperature, K	Mole fraction of acetonitrile	Mass density, kg/m3	uncertainty
293.15	0	941	0.9
293.15	0.0815	934.2	0.9
293.15	0.1674	926.3	0.9
293.15	0.2386	919.2	0.9
293.15	0.3133	911.2	0.8
293.15	0.3689	904.8	0.8
293.15	0.4223	898.3	0.8
293.15	0.4722	891.8	0.8
293.15	0.5387	882.5	0.8
293.15	0.581	876.1	0.8
293.15	0.6379	866.9	0.8
293.15	0.6794	859.7	0.8
293.15	0.7236	851.5	0.8
293.15	0.8071	833.9	0.7
293.15	0.8776	817	0.7
293.15	0.9424	799.4	0.7
293.15	1	782.1	0.7
298.15	0	936.5	0.9
298.15	0.0815	929.7	0.9
298.15	0.1674	921.8	0.9
298.15	0.2386	914.7	0.9
298.15	0.3133	906.7	0.9
298.15	0.3689	900.3	0.9
298.15	0.4223	893.8	0.9
298.15	0.4722	887.3	0.9
298.15	0.5387	877.9	0.8
298.15	0.581	871.5	0.8
298.15	0.6379	862.2	0.8
298.15	0.6794	855	0.8
298.15	0.7236	846.7	0.8
298.15	0.8071	829	0.8
298.15	0.8776	812	0.8
298.15	0.9424	794.3	0.7
298.15	1	776.8	0.7
303.15	0	932	1
303.15	0.0815	925.2	1
303.15	0.1674	917.3	0.9
303.15	0.2386	910.2	0.9
303.15	0.3133	902.2	0.9
303.15	0.3689	895.8	0.9
303.15	0.4223	889.3	0.9
303.15	0.4722	882.7	0.9
303.15	0.5387	873.3	0.9
303.15	0.581	866.9	0.9
303.15	0.6379	857.6	0.9
303.15	0.6794	850.2	0.9
303.15	0.7236	841.9	0.9
303.15	0.8071	824.1	0.8
303.15	0.8776	807	0.8
303.15	0.9424	789.2	0.8
303.15	1	771.5	0.8
308.15	0	927.6	1
308.15	0.0815	920.7	1
308.15	0.1674	912.8	1
308.15	0.2386	905.7	1
308.15	0.3133	897.7	1
308.15	0.3689	891.3	1
308.15	0.4223	884.8	0.9
308.15	0.4722	878.2	0.9
308.15	0.5387	868.8	0.9
308.15	0.581	862.3	0.9
308.15	0.6379	852.9	0.9
308.15	0.6794	845.5	0.9
308.15	0.7236	837.1	0.9
308.15	0.8071	819.2	0.9
308.15	0.8776	802	0.8
308.15	0.9424	784.1	0.8
308.15	1	766.3	0.8
313.15	0	923.1	1
313.15	0.0815	916.2	1
313.15	0.1674	908.3	1
313.15	0.2386	901.2	1
313.15	0.3133	893.2	1
313.15	0.3689	886.8	1
313.15	0.4223	880.3	1
313.15	0.4722	873.7	1
313.15	0.5387	864.2	1
313.15	0.581	857.7	1
313.15	0.6379	848.3	1
313.15	0.6794	840.8	0.9
313.15	0.7236	832.3	0.9
313.15	0.8071	814.3	0.9
313.15	0.8776	797	0.9
313.15	0.9424	779	0.9
313.15	1	761	0.8
318.15	0	918.6	1.1
318.15	0.0815	911.7	1.1
318.15	0.1674	903.9	1.1
318.15	0.2386	896.8	1.1
318.15	0.3133	888.8	1
318.15	0.3689	882.4	1
318.15	0.4223	875.8	1
318.15	0.4722	869.2	1
318.15	0.5387	859.7	1
318.15	0.581	853.1	1
318.15	0.6379	843.6	1
318.15	0.6794	836.1	1
318.15	0.7236	827.5	1
318.15	0.8071	809.4	1
318.15	0.8776	792	0.9
318.15	0.9424	773.9	0.9
318.15	1	755.7	0.9
