Measured thermophysical data. Temperature and composition dependence of the volumetric and acoustic properties of ionic liquid [emim][HSO4] with polar protic and aprotic co-solvents
Source: J. Chem. Thermodyn., 2018, 10.1016/j.jct.2018.03.007
Compound 1: 1-ethyl-3-methylimidazolium hydrogen sulfate, C6H12N2O4S, InChI=1S/C6H11N2.H2O4S/c1-3-8-5-4-7(2)6-8;1-5(2,3)4/h4-6H,3H2,1-2H3;(H2,1,2,3,4)/q+1;/p-1, purity 98%
Compound 2: dimethyl sulfoxide, C2H6OS, InChI=1S/C2H6OS/c1-4(2)3/h1-2H3, purity 99.9%
Compound 3: ethanol, C2H6O, InChI=1S/C2H6O/c1-2-3/h3H,2H2,1H3, purity 99.9%
Compound 4: propan-1-ol, C3H8O, InChI=1S/C3H8O/c1-2-3-4/h4H,2-3H2,1H3, purity 99.7%

System: 1-ethyl-3-methylimidazolium hydrogen sulfate; phases: Liquid
Fixed: Pressure, kPa = 100
Property: Mass density, kg/m3 (Liquid); method: Vibrating tube method
Temperature, K	Mass density, kg/m3	uncertainty
298.15	1365.75	2.52
303.15	1362.62	2.52
308.15	1359.53	2.51
313.15	1356.41	2.51

System: 1-ethyl-3-methylimidazolium hydrogen sulfate; phases: Liquid
Fixed: Pressure, kPa = 100
Fixed: Frequency, MHz = 2
Property: Speed of sound, m/s (Liquid); method: Linear variable-path acoustic interferometer
Temperature, K	Speed of sound, m/s	uncertainty
298.15	1982.8	2.8
303.15	1962.9	2.8
308.15	1943.1	2.8
313.15	1923.2	2.8

System: dimethyl sulfoxide; phases: Liquid
Fixed: Pressure, kPa = 100
Property: Mass density, kg/m3 (Liquid); method: Vibrating tube method
Temperature, K	Mass density, kg/m3	uncertainty
298.15	1095.33	2
303.15	1090.32	2
308.15	1085.31	2
313.15	1080.29	2

System: dimethyl sulfoxide; phases: Liquid
Fixed: Pressure, kPa = 100
Fixed: Frequency, MHz = 2
Property: Speed of sound, m/s (Liquid); method: Linear variable-path acoustic interferometer
Temperature, K	Speed of sound, m/s	uncertainty
298.15	1485	1.7
303.15	1468.3	1.7
308.15	1451.1	1.7
313.15	1434.2	1.7

System: ethanol; phases: Liquid
Fixed: Pressure, kPa = 100
Property: Mass density, kg/m3 (Liquid); method: Vibrating tube method
Temperature, K	Mass density, kg/m3	uncertainty
298.15	785.26	2
303.15	780.98	2
308.15	776.66	2
313.15	772.28	2

System: ethanol; phases: Liquid
Fixed: Pressure, kPa = 100
Fixed: Frequency, MHz = 3
Property: Speed of sound, m/s (Liquid); method: Linear variable-path acoustic interferometer
Temperature, K	Speed of sound, m/s	uncertainty
298.15	1142.7	1.5
303.15	1125.3	1.5
308.15	1108.8	1.5
313.15	1091.5	1.5

System: propan-1-ol; phases: Liquid
Fixed: Pressure, kPa = 100
Property: Mass density, kg/m3 (Liquid); method: Vibrating tube method
Temperature, K	Mass density, kg/m3	uncertainty
298.15	799.96	2
303.15	795.92	2
308.15	791.82	2
313.15	787.73	2

System: propan-1-ol; phases: Liquid
Fixed: Pressure, kPa = 100
Fixed: Frequency, MHz = 2
Property: Speed of sound, m/s (Liquid); method: Linear variable-path acoustic interferometer
Temperature, K	Speed of sound, m/s	uncertainty
298.15	1206.1	1.6
303.15	1189.1	1.6
308.15	1172.2	1.6
313.15	1155.4	1.6

System: 1-ethyl-3-methylimidazolium hydrogen sulfate + dimethyl sulfoxide; phases: Liquid
Fixed: Pressure, kPa = 100
Property: Mass density, kg/m3 (Liquid); method: Vibrating tube method
Temperature, K	Mole fraction of 1-ethyl-3-methylimidazolium hydrogen sulfate	Mass density, kg/m3	uncertainty
298.15	0	1095.33	2
298.15	0.0494	1128.82	2.42
298.15	0.1349	1175.73	2.45
298.15	0.2377	1219.12	2.49
298.15	0.3638	1259.43	2.53
298.15	0.5219	1297.19	2.58
298.15	0.6517	1320.97	2.65
298.15	0.7261	1332.42	2.7
298.15	0.8081	1343.71	2.77
298.15	0.9182	1357.03	2.89
298.15	1	1365.75	2.52
303.15	0	1090.32	2
303.15	0.0494	1124.11	2.41
303.15	0.1349	1171.37	2.45
303.15	0.2377	1214.91	2.48
303.15	0.3638	1255.51	2.52
303.15	0.5219	1293.61	2.58
303.15	0.6517	1317.58	2.65
303.15	0.7261	1329.14	2.7
303.15	0.8081	1340.51	2.77
303.15	0.9182	1353.89	2.89
303.15	1	1362.62	2.52
308.15	0	1085.31	2
308.15	0.0494	1119.4	2.41
308.15	0.1349	1166.99	2.45
308.15	0.2377	1210.85	2.48
308.15	0.3638	1251.66	2.52
308.15	0.5219	1290.03	2.58
308.15	0.6517	1314.21	2.64
308.15	0.7261	1325.9	2.69
308.15	0.8081	1337.32	2.76
308.15	0.9182	1350.73	2.88
308.15	1	1359.53	2.51
313.15	0	1080.29	2
313.15	0.0494	1114.68	2.41
313.15	0.1349	1162.54	2.44
313.15	0.2377	1206.72	2.48
313.15	0.3638	1247.85	2.52
313.15	0.5219	1286.51	2.57
313.15	0.6517	1310.9	2.64
313.15	0.7261	1322.64	2.69
313.15	0.8081	1334.1	2.76
313.15	0.9182	1347.61	2.88
313.15	1	1356.41	2.51

System: 1-ethyl-3-methylimidazolium hydrogen sulfate + dimethyl sulfoxide; phases: Liquid
Fixed: Pressure, kPa = 100
Fixed: Frequency, MHz = 2
Property: Speed of sound, m/s (Liquid); method: Linear variable-path acoustic interferometer
Temperature, K	Mole fraction of 1-ethyl-3-methylimidazolium hydrogen sulfate	Speed of sound, m/s	uncertainty
298.15	0	1485	1.7
298.15	0.0494	1530.5	1.8
298.15	0.1349	1600.5	1.8
298.15	0.2377	1672.7	1.9
298.15	0.3638	1746.9	2
298.15	0.5219	1823.3	2.2
298.15	0.6517	1875.5	2.4
298.15	0.7261	1902	2.5
298.15	0.8081	1928.7	2.6
298.15	0.9182	1961	2.7
298.15	1	1982.8	2.9
303.15	0	1468.3	1.7
303.15	0.0494	1513.4	1.8
303.15	0.1349	1582.9	1.8
303.15	0.2377	1654.4	1.9
303.15	0.3638	1728.2	2
303.15	0.5219	1804.2	2.2
303.15	0.6517	1856.1	2.4
303.15	0.7261	1882.4	2.5
303.15	0.8081	1909	2.6
303.15	0.9182	1941.2	2.7
303.15	1	1962.9	2.8
308.15	0	1451.1	1.7
308.15	0.0494	1495.9	1.8
308.15	0.1349	1564.8	1.8
308.15	0.2377	1635.9	1.9
308.15	0.3638	1709.3	2
308.15	0.5219	1784.9	2.2
308.15	0.6517	1836.6	2.4
308.15	0.7261	1862.8	2.5
308.15	0.8081	1889.3	2.6
308.15	0.9182	1921.5	2.7
308.15	1	1943.1	2.8
313.15	0	1434.2	1.7
313.15	0.0494	1478.6	1.7
313.15	0.1349	1547	1.8
313.15	0.2377	1617.6	1.9
313.15	0.3638	1690.5	2
313.15	0.5219	1765.7	2.2
313.15	0.6517	1817.1	2.3
313.15	0.7261	1843.2	2.4
313.15	0.8081	1869.6	2.6
313.15	0.9182	1901.6	2.7
313.15	1	1923.2	2.8

System: 1-ethyl-3-methylimidazolium hydrogen sulfate + ethanol; phases: Liquid
Fixed: Pressure, kPa = 100
Property: Mass density, kg/m3 (Liquid); method: Vibrating tube method
Temperature, K	Mole fraction of 1-ethyl-3-methylimidazolium hydrogen sulfate	Mass density, kg/m3	uncertainty
298.15	0	785.26	2
298.15	0.0281	829.67	2.24
298.15	0.0878	910.66	2.28
298.15	0.1779	1007.45	2.34
298.15	0.3378	1129.95	2.43
298.15	0.4731	1203.92	2.49
298.15	0.577	1248.74	2.55
298.15	0.6689	1281.87	2.62
298.15	0.7759	1314.38	2.71
298.15	0.8797	1340.71	2.83
298.15	1	1365.75	2.52
303.15	0	780.98	2
303.15	0.0281	825.5	2.23
303.15	0.0878	906.7	2.28
303.15	0.1779	1003.74	2.34
303.15	0.3378	1126.52	2.42
303.15	0.4731	1200.65	2.49
303.15	0.577	1245.56	2.55
303.15	0.6689	1278.69	2.61
303.15	0.7759	1311.18	2.71
303.15	0.8797	1337.51	2.82
303.15	1	1362.62	2.52
308.15	0	776.66	2
308.15	0.0281	821.28	2.23
308.15	0.0878	902.7	2.28
308.15	0.1779	999.98	2.33
308.15	0.3378	1123.06	2.42
308.15	0.4731	1197.38	2.49
308.15	0.577	1242.38	2.55
308.15	0.6689	1275.52	2.61
308.15	0.7759	1308	2.7
308.15	0.8797	1334.34	2.82
308.15	1	1359.53	2.51
313.15	0	772.28	2
313.15	0.0281	817	2.23
313.15	0.0878	898.63	2.27
313.15	0.1779	996.14	2.33
313.15	0.3378	1119.54	2.42
313.15	0.4731	1194.05	2.49
313.15	0.577	1239.13	2.54
313.15	0.6689	1272.31	2.61
313.15	0.7759	1304.78	2.7
313.15	0.8797	1331.14	2.81
313.15	1	1356.41	2.51

System: 1-ethyl-3-methylimidazolium hydrogen sulfate + ethanol; phases: Liquid
Fixed: Pressure, kPa = 100
Fixed: Frequency, MHz = 3
Property: Speed of sound, m/s (Liquid); method: Linear variable-path acoustic interferometer
Temperature, K	Mole fraction of 1-ethyl-3-methylimidazolium hydrogen sulfate	Speed of sound, m/s	uncertainty
298.15	0	1142.7	1.5
298.15	0.0281	1190.1	1.6
298.15	0.0878	1289.8	1.6
298.15	0.1779	1416.2	1.8
298.15	0.3378	1577.8	1.9
298.15	0.4731	1698.6	2.1
298.15	0.577	1780.2	2.3
298.15	0.6689	1836.4	2.4
298.15	0.7759	1893.6	2.5
298.15	0.8797	1943.4	2.7
298.15	1	1982.8	2.9
303.15	0	1125.3	1.5
303.15	0.0281	1170.6	1.6
303.15	0.0878	1267.3	1.6
303.15	0.1779	1393.3	1.7
303.15	0.3378	1558.4	1.9
303.15	0.4731	1675.8	2.1
303.15	0.577	1755.7	2.2
303.15	0.6689	1816.2	2.4
303.15	0.7759	1871.9	2.5
303.15	0.8797	1922.1	2.7
303.15	1	1962.9	2.8
308.15	0	1108.8	1.5
308.15	0.0281	1152.1	1.6
308.15	0.0878	1245.3	1.6
308.15	0.1779	1370.9	1.7
308.15	0.3378	1538.6	1.9
308.15	0.4731	1653	2.1
308.15	0.577	1731.4	2.2
308.15	0.6689	1796	2.4
308.15	0.7759	1850.2	2.5
308.15	0.8797	1900.8	2.7
308.15	1	1943.1	2.8
313.15	0	1091.5	1.5
313.15	0.0281	1132.9	1.5
313.15	0.0878	1222.8	1.6
313.15	0.1779	1348	1.7
313.15	0.3378	1516.6	1.9
313.15	0.4731	1630.3	2.1
313.15	0.577	1707.9	2.2
313.15	0.6689	1773.8	2.3
313.15	0.7759	1828.5	2.5
313.15	0.8797	1879.5	2.6
313.15	1	1923.2	2.8

System: 1-ethyl-3-methylimidazolium hydrogen sulfate + propan-1-ol; phases: Liquid
Fixed: Pressure, kPa = 100
Property: Mass density, kg/m3 (Liquid); method: Vibrating tube method
Temperature, K	Mole fraction of 1-ethyl-3-methylimidazolium hydrogen sulfate	Mass density, kg/m3	uncertainty
298.15	0	799.96	2
298.15	0.0519	859.54	2.25
298.15	0.1097	918.5	2.29
298.15	0.2473	1034.63	2.36
298.15	0.3301	1091.59	2.4
298.15	0.425	1147.59	2.45
298.15	0.5348	1202.62	2.51
298.15	0.6634	1256.73	2.6
298.15	0.816	1310.71	2.75
298.15	0.9035	1338.05	2.86
298.15	1	1365.75	2.52
303.15	0	795.92	2
303.15	0.0519	855.59	2.25
303.15	0.1097	914.64	2.28
303.15	0.2473	1030.95	2.36
303.15	0.3301	1088.01	2.4
303.15	0.425	1144.15	2.45
303.15	0.5348	1199.35	2.51
303.15	0.6634	1253.6	2.6
303.15	0.816	1307.54	2.74
303.15	0.9035	1334.87	2.85
303.15	1	1362.62	2.52
308.15	0	791.82	2
308.15	0.0519	851.62	2.25
308.15	0.1097	910.8	2.28
308.15	0.2473	1027.23	2.35
308.15	0.3301	1084.39	2.4
308.15	0.425	1140.69	2.45
308.15	0.5348	1196.07	2.51
308.15	0.6634	1250.5	2.6
308.15	0.816	1304.42	2.74
308.15	0.9035	1331.73	2.85
308.15	1	1359.53	2.51
313.15	0	787.73	2
313.15	0.0519	847.65	2.25
313.15	0.1097	906.93	2.28
313.15	0.2473	1023.51	2.35
313.15	0.3301	1080.78	2.39
313.15	0.425	1137.24	2.44
313.15	0.5348	1192.77	2.51
313.15	0.6634	1247.33	2.59
313.15	0.816	1301.31	2.73
313.15	0.9035	1328.62	2.84
313.15	1	1356.41	2.51

System: 1-ethyl-3-methylimidazolium hydrogen sulfate + propan-1-ol; phases: Liquid
Fixed: Pressure, kPa = 100
Fixed: Frequency, MHz = 2
Property: Speed of sound, m/s (Liquid); method: Linear variable-path acoustic interferometer
Temperature, K	Mole fraction of 1-ethyl-3-methylimidazolium hydrogen sulfate	Speed of sound, m/s	uncertainty
298.15	0	1206.1	1.6
298.15	0.0519	1272.3	1.7
298.15	0.1097	1342.3	1.7
298.15	0.2473	1486.2	1.9
298.15	0.3301	1561.1	2
298.15	0.425	1640.8	2.1
298.15	0.5348	1724.4	2.2
298.15	0.6634	1808.4	2.4
298.15	0.816	1892	2.6
298.15	0.9035	1937.7	2.7
298.15	1	1982.8	2.9
303.15	0	1189.1	1.6
303.15	0.0519	1254.7	1.7
303.15	0.1097	1324	1.7
303.15	0.2473	1467.1	1.9
303.15	0.3301	1542	2
303.15	0.425	1621.3	2.1
303.15	0.5348	1704.9	2.2
303.15	0.6634	1788.3	2.4
303.15	0.816	1871.6	2.6
303.15	0.9035	1917.9	2.7
303.15	1	1962.9	2.8
308.15	0	1172.2	1.6
308.15	0.0519	1237.1	1.6
308.15	0.1097	1305.9	1.7
308.15	0.2473	1448.3	1.9
308.15	0.3301	1522.1	2
308.15	0.425	1601.4	2.1
308.15	0.5348	1684.2	2.2
308.15	0.6634	1767.3	2.4
308.15	0.816	1850.6	2.6
308.15	0.9035	1898.1	2.7
308.15	1	1943.1	2.8
313.15	0	1155.4	1.6
313.15	0.0519	1219.7	1.6
313.15	0.1097	1288.1	1.7
313.15	0.2473	1429.1	1.9
313.15	0.3301	1502.6	1.9
313.15	0.425	1581.7	2.1
313.15	0.5348	1664.9	2.2
313.15	0.6634	1747.8	2.4
313.15	0.816	1830.1	2.6
313.15	0.9035	1878.1	2.7
313.15	1	1923.2	2.8
