Measured thermophysical data. Quantitative NMR spectroscopy of binary liquid mixtures (aldehyde + alcohol). Part II: (Propanal or butanal or heptanal) + (methanol or ethanol or 1-propanol)
Source: J. Chem. Thermodyn., 2013, 10.1016/j.jct.2013.06.002
Compound 1: methanol, CH4O, InChI=1S/CH4O/c1-2/h2H,1H3, purity 0.99%
Compound 2: propanal, C3H6O, InChI=1S/C3H6O/c1-2-3-4/h3H,2H2,1H3, purity 0.97%
Compound 3: propionaldehyde methyl hemiacetal, C4H10O2, InChI=1S/C4H10O2/c1-3-4(5)6-2/h4-5H,3H2,1-2H3
Compound 4: ethanol, C2H6O, InChI=1S/C2H6O/c1-2-3/h3H,2H2,1H3, purity 0.98%
Compound 5: propionaldehyde ethyl hemiacetal, C5H12O2, InChI=1S/C5H12O2/c1-3-5(6)7-4-2/h5-6H,3-4H2,1-2H3
Compound 6: propan-1-ol, C3H8O, InChI=1S/C3H8O/c1-2-3-4/h4H,2-3H2,1H3, purity 0.97%
Compound 7: propionaldehyde propyl hemiacetal, C6H14O2, InChI=1S/C6H14O2/c1-3-5-8-6(7)4-2/h6-7H,3-5H2,1-2H3
Compound 8: 1-(1-methoxypropoxy)propan-1-ol, C7H16O3, InChI=1S/C7H16O3/c1-4-6(8)10-7(5-2)9-3/h6-8H,4-5H2,1-3H3
Compound 9: 1-(1-ethoxypropoxy)propan-1-ol, C8H18O3, InChI=1S/C8H18O3/c1-4-7(9)11-8(5-2)10-6-3/h7-9H,4-6H2,1-3H3
Compound 10: 1-(1-propoxypropoxy)propan-1-ol, C9H20O3, InChI=1S/C9H20O3/c1-4-7-11-9(6-3)12-8(10)5-2/h8-10H,4-7H2,1-3H3
Compound 11: 1-(1-(1-methoxypropoxy)propoxy)propan-1-ol, C10H22O4, InChI=1S/C10H22O4/c1-5-8(11)13-10(7-3)14-9(6-2)12-4/h8-11H,5-7H2,1-4H3
Compound 12: 1-(1-(1-ethoxypropoxy)propoxy)propan-1-ol, C11H24O4, InChI=1S/C11H24O4/c1-5-9(12)14-11(7-3)15-10(6-2)13-8-4/h9-12H,5-8H2,1-4H3
Compound 13: 1-(1-(1-propoxypropoxy)propoxy)propan-1-ol, C12H26O4, InChI=1S/C12H26O4/c1-5-9-14-11(7-3)16-12(8-4)15-10(13)6-2/h10-13H,5-9H2,1-4H3
Compound 14: butanal, C4H8O, InChI=1S/C4H8O/c1-2-3-4-5/h4H,2-3H2,1H3, purity 0.99%
Compound 15: butyraldehyde methyl hemiacetal, C5H12O2, InChI=1S/C5H12O2/c1-3-4-5(6)7-2/h5-6H,3-4H2,1-2H3
Compound 16: butyraldehyde ethyl hemiacetal, C6H14O2, InChI=1S/C6H14O2/c1-3-5-6(7)8-4-2/h6-7H,3-5H2,1-2H3
Compound 17: butyraldehyde propyl hemiacetal, C7H16O2, InChI=1S/C7H16O2/c1-3-5-7(8)9-6-4-2/h7-8H,3-6H2,1-2H3
Compound 18: 1-(1-methoxybutoxy)butan-1-ol, C9H20O3, InChI=1S/C9H20O3/c1-4-6-8(10)12-9(11-3)7-5-2/h8-10H,4-7H2,1-3H3
Compound 19: 1-(1-ethoxybutoxy)butan-1-ol, C10H22O3, InChI=1S/C10H22O3/c1-4-7-9(11)13-10(8-5-2)12-6-3/h9-11H,4-8H2,1-3H3
Compound 20: 1-(1-propoxybutoxy)butan-1-ol, C11H24O3, InChI=1S/C11H24O3/c1-4-7-10(12)14-11(8-5-2)13-9-6-3/h10-12H,4-9H2,1-3H3
Compound 21: 1-(1-(1-methoxybutoxy)butoxy)butan-1-ol, C13H28O4, InChI=1S/C13H28O4/c1-5-8-11(14)16-13(10-7-3)17-12(15-4)9-6-2/h11-14H,5-10H2,1-4H3
Compound 22: 1-(1-(1-ethoxybutoxy)butoxy)butan-1-ol, C14H30O4, InChI=1S/C14H30O4/c1-5-9-12(15)17-14(11-7-3)18-13(10-6-2)16-8-4/h12-15H,5-11H2,1-4H3
Compound 23: 1-(1-(1-propoxybutoxy)butoxy)butan-1-ol, C15H32O4, InChI=1S/C15H32O4/c1-5-9-13(16)18-15(11-7-3)19-14(10-6-2)17-12-8-4/h13-16H,5-12H2,1-4H3
Compound 24: heptanal, C7H14O, InChI=1S/C7H14O/c1-2-3-4-5-6-7-8/h7H,2-6H2,1H3, purity 0.97%
Compound 25: heptaldehyde methyl hemiacetal, C8H18O2, InChI=1S/C8H18O2/c1-3-4-5-6-7-8(9)10-2/h8-9H,3-7H2,1-2H3
Compound 26: heptaldehyde ethyl hemiacetal, C9H20O2, InChI=1S/C9H20O2/c1-3-5-6-7-8-9(10)11-4-2/h9-10H,3-8H2,1-2H3
Compound 27: heptaldehyde propyl hemiacetal, C10H22O2, InChI=1S/C10H22O2/c1-3-5-6-7-8-10(11)12-9-4-2/h10-11H,3-9H2,1-2H3
Compound 28: 1-((1-methoxyheptyl)oxy)heptan-1-ol, C15H32O3, InChI=1S/C15H32O3/c1-4-6-8-10-12-14(16)18-15(17-3)13-11-9-7-5-2/h14-16H,4-13H2,1-3H3
Compound 29: 1-((1-ethoxyheptyl)oxy)heptan-1-ol, C16H34O3, InChI=1S/C16H34O3/c1-4-7-9-11-13-15(17)19-16(18-6-3)14-12-10-8-5-2/h15-17H,4-14H2,1-3H3
Compound 30: 1-((1-propoxyheptyl)oxy)heptan-1-ol, C17H36O3, InChI=1S/C17H36O3/c1-4-7-9-11-13-16(18)20-17(19-15-6-3)14-12-10-8-5-2/h16-18H,4-15H2,1-3H3
Compound 31: 1-((1-((1-methoxyheptyl)oxy)heptyl)oxy)heptan-1-ol, C22H46O4, InChI=1S/C22H46O4/c1-5-8-11-14-17-20(23)25-22(19-16-13-10-7-3)26-21(24-4)18-15-12-9-6-2/h20-23H,5-19H2,1-4H3
Compound 32: 1-((1-((1-ethoxyheptyl)oxy)heptyl)oxy)heptan-1-ol, C23H48O4, InChI=1S/C23H48O4/c1-5-9-12-15-18-21(24)26-23(20-17-14-11-7-3)27-22(25-8-4)19-16-13-10-6-2/h21-24H,5-20H2,1-4H3
Compound 33: 1-((1-((1-propoxyheptyl)oxy)heptyl)oxy)heptan-1-ol, C24H50O4, InChI=1S/C24H50O4/c1-5-9-12-15-18-22(25)27-24(20-17-14-11-7-3)28-23(26-21-8-4)19-16-13-10-6-2/h22-25H,5-21H2,1-4H3

Reaction: -1 methanol + -1 propanal + 1 propionaldehyde methyl hemiacetal
Property: Thermodynamic equilibrium constant
17
58
132

Reaction: -1 ethanol + -1 propanal + 1 propionaldehyde ethyl hemiacetal
Property: Thermodynamic equilibrium constant
4
13
31

Reaction: -1 propan-1-ol + -1 propanal + 1 propionaldehyde propyl hemiacetal
Property: Thermodynamic equilibrium constant
4.1
14

Reaction: 1 1-(1-methoxypropoxy)propan-1-ol + 1 methanol + -2 propionaldehyde methyl hemiacetal
Property: Thermodynamic equilibrium constant
0.006
0.007
0.0034

Reaction: 1 1-(1-ethoxypropoxy)propan-1-ol + 1 ethanol + -2 propionaldehyde ethyl hemiacetal
Property: Thermodynamic equilibrium constant
0.036
0.024
0.013

Reaction: 1 1-(1-propoxypropoxy)propan-1-ol + 1 propan-1-ol + -2 propionaldehyde propyl hemiacetal
Property: Thermodynamic equilibrium constant
0.035
0.028

Reaction: -1 1-(1-methoxypropoxy)propan-1-ol + 1 1-(1-(1-methoxypropoxy)propoxy)propan-1-ol + 1 methanol + -1 propionaldehyde methyl hemiacetal
Property: Thermodynamic equilibrium constant
0.076
0.051
0.061

Reaction: -1 1-(1-ethoxypropoxy)propan-1-ol + 1 1-(1-(1-ethoxypropoxy)propoxy)propan-1-ol + 1 ethanol + -1 propionaldehyde ethyl hemiacetal
Property: Thermodynamic equilibrium constant
0.29
0.23
0.15

Reaction: -1 1-(1-propoxypropoxy)propan-1-ol + 1 1-(1-(1-propoxypropoxy)propoxy)propan-1-ol + 1 propan-1-ol + -1 propionaldehyde propyl hemiacetal
Property: Thermodynamic equilibrium constant
0.31
0.203

Reaction: -1 methanol + -1 butanal + 1 butyraldehyde methyl hemiacetal
Property: Thermodynamic equilibrium constant
11
46
134

Reaction: -1 ethanol + -1 butanal + 1 butyraldehyde ethyl hemiacetal
Property: Thermodynamic equilibrium constant
2.6
10
34

Reaction: -1 propan-1-ol + -1 butanal + 1 butyraldehyde propyl hemiacetal
Property: Thermodynamic equilibrium constant
2.8
11
38

Reaction: 1 1-(1-methoxybutoxy)butan-1-ol + 1 methanol + -2 butyraldehyde methyl hemiacetal
Property: Thermodynamic equilibrium constant
0.011
0.007
0.0039

Reaction: 1 1-(1-ethoxybutoxy)butan-1-ol + 1 ethanol + -2 butyraldehyde ethyl hemiacetal
Property: Thermodynamic equilibrium constant
0.035
0.024
0.011

Reaction: 1 1-(1-propoxybutoxy)butan-1-ol + 1 propan-1-ol + -2 butyraldehyde propyl hemiacetal
Property: Thermodynamic equilibrium constant
0.034
0.025
0.012

Reaction: -1 1-(1-methoxybutoxy)butan-1-ol + 1 1-(1-(1-methoxybutoxy)butoxy)butan-1-ol + 1 methanol + -1 butyraldehyde methyl hemiacetal
Property: Thermodynamic equilibrium constant
0.28
0.14
0.055

Reaction: -1 1-(1-ethoxybutoxy)butan-1-ol + 1 1-(1-(1-ethoxybutoxy)butoxy)butan-1-ol + 1 ethanol + -1 butyraldehyde ethyl hemiacetal
Property: Thermodynamic equilibrium constant
0.39
0.19
0.15

Reaction: -1 1-(1-propoxybutoxy)butan-1-ol + 1 1-(1-(1-propoxybutoxy)butoxy)butan-1-ol + 1 propan-1-ol + -1 butyraldehyde propyl hemiacetal
Property: Thermodynamic equilibrium constant
0.32
0.15
0.1

Reaction: -1 methanol + -1 heptanal + 1 heptaldehyde methyl hemiacetal
Property: Thermodynamic equilibrium constant
14
41

Reaction: 1 heptaldehyde ethyl hemiacetal + -1 ethanol + -1 heptanal
Property: Thermodynamic equilibrium constant
2.5
10
23

Reaction: -1 propan-1-ol + -1 heptanal + 1 heptaldehyde propyl hemiacetal
Property: Thermodynamic equilibrium constant
2.5
11
40

Reaction: 1 1-((1-methoxyheptyl)oxy)heptan-1-ol + 1 methanol + -2 heptaldehyde methyl hemiacetal
Property: Thermodynamic equilibrium constant
0.006
0.005

Reaction: -2 heptaldehyde ethyl hemiacetal + 1 1-((1-ethoxyheptyl)oxy)heptan-1-ol + 1 ethanol
Property: Thermodynamic equilibrium constant
0.03
0.021

Reaction: 1 1-((1-propoxyheptyl)oxy)heptan-1-ol + 1 propan-1-ol + -2 heptaldehyde propyl hemiacetal
Property: Thermodynamic equilibrium constant
0.034
0.021

Reaction: -1 1-((1-methoxyheptyl)oxy)heptan-1-ol + 1 1-((1-((1-methoxyheptyl)oxy)heptyl)oxy)heptan-1-ol + 1 methanol + -1 heptaldehyde methyl hemiacetal
Property: Thermodynamic equilibrium constant
0.14

Reaction: -1 heptaldehyde ethyl hemiacetal + -1 1-((1-ethoxyheptyl)oxy)heptan-1-ol + 1 1-((1-((1-ethoxyheptyl)oxy)heptyl)oxy)heptan-1-ol + 1 ethanol
Property: Thermodynamic equilibrium constant
0.23
0.23

Reaction: -1 1-((1-propoxyheptyl)oxy)heptan-1-ol + 1 1-((1-((1-propoxyheptyl)oxy)heptyl)oxy)heptan-1-ol + 1 propan-1-ol + -1 heptaldehyde propyl hemiacetal
Property: Thermodynamic equilibrium constant
0.23
0.14
