Measured thermophysical data. Thermochemical and thermophysical study of 2-thiophenecarboxylic acid hydrazide and 2-furancarboxylic acid hydrazide
Source: J. Chem. Thermodyn., 2008, 10.1016/j.jct.2008.06.011
Compound 1: sulfuric acid, H2O4S, InChI=1S/H2O4S/c1-5(2,3)4/h(H2,1,2,3,4)
Compound 2: carbon dioxide, CO2, InChI=1S/CO2/c2-1-3
Compound 3: nitrogen, N2, InChI=1S/N2/c1-2
Compound 4: water, H2O, InChI=1S/H2O/h1H2
Compound 5: oxygen, O2, InChI=1S/O2/c1-2
Compound 6: 2-thiophenecarboxylic acid hydrazide, C5H6N2OS, InChI=1S/C5H6N2OS/c6-7-5(8)4-2-1-3-9-4/h1-3H,6H2,(H,7,8), purity 98%
Compound 7: 2-furoic acid hydrazide, C5H6N2O2, InChI=1S/C5H6N2O2/c6-7-5(8)4-2-1-3-9-4/h1-3H,6H2,(H,7,8), purity 98%

System: 2-thiophenecarboxylic acid hydrazide; phases: Crystal, Gas
Property: Vapor or sublimation pressure, kPa (Crystal); method: Calculated from knudsen effusion weight loss
Temperature, K	Vapor or sublimation pressure, kPa	uncertainty
339.13	0.000108	5e-06
339.13	0.000108	5e-06
339.13	0.000109	5e-06
341.18	0.000134	7e-06
341.18	0.000135	7e-06
341.18	0.000134	7e-06
343.2	0.000171	9e-06
343.2	0.000169	8e-06
343.2	0.000164	8e-06
345.13	0.000219	1.1e-05
345.13	0.000218	1.1e-05
345.13	0.000213	1.1e-05
347.18	0.000273	1.4e-05
347.18	0.000274	1.4e-05
347.18	0.000262	1.3e-05
349.19	0.00033	1.7e-05
349.19	0.00034	1.7e-05
349.19	0.000323	1.6e-05
351.13	0.000414	2.1e-05
351.13	0.000423	2.1e-05
351.13	0.000404	2e-05
353.18	0.000519	2.6e-05
353.18	0.00052	2.6e-05
353.18	0.000497	2.5e-05
355.19	0.000637	3.2e-05
355.19	0.000628	3.1e-05
355.19	0.000622	3.1e-05
357.12	0.000786	3.9e-05
357.12	0.000787	3.9e-05
357.12	0.000763	3.8e-05
359.15	0.000977	4.9e-05
359.15	0.000971	4.9e-05
359.15	0.000942	4.7e-05
361.18	0.001194	0.000124
361.18	0.001173	0.000121
361.18	0.001154	0.000119

System: 2-furoic acid hydrazide; phases: Crystal, Gas
Property: Vapor or sublimation pressure, kPa (Crystal); method: Calculated from knudsen effusion weight loss
Temperature, K	Vapor or sublimation pressure, kPa	uncertainty
309.148	0.0001487	7.5e-06
309.148	0.0001459	7.3e-06
309.148	0.0001436	7.2e-06
311.148	0.0001928	9.7e-06
311.148	0.0001919	9.6e-06
311.148	0.0001872	9.4e-06
313.142	0.0002436	1.22e-05
313.142	0.0002335	1.17e-05
313.142	0.0002348	1.18e-05
315.141	0.0003114	1.56e-05
315.141	0.0003144	1.58e-05
315.141	0.0003082	1.55e-05
317.13	0.0003943	1.98e-05
317.13	0.0003803	1.91e-05
317.13	0.0003744	1.88e-05
319.151	0.0005068	2.54e-05
319.151	0.0004916	2.46e-05
319.151	0.0004795	2.4e-05
321.145	0.0006091	3.05e-05
321.145	0.0006111	3.06e-05
321.145	0.0005851	2.93e-05
323.16	0.0007862	3.94e-05
323.16	0.0007814	3.92e-05
323.16	0.0007812	3.91e-05
325.148	0.0009687	4.85e-05
325.148	0.0009579	4.8e-05
325.148	0.0009504	4.76e-05

Reaction: -1 2-thiophenecarboxylic acid hydrazide + 1 sulfuric acid + 5 carbon dioxide + 1 nitrogen + 2 water + -7.5 oxygen
Property: Specific internal energy of reaction at constant volume, J/g
-23628

Reaction: -1 2-furoic acid hydrazide + 5 carbon dioxide + 1 nitrogen + 3 water + -5.5 oxygen
Property: Specific internal energy of reaction at constant volume, J/g
-20780.8
