Measured thermophysical data. Vapour pressure of diethyl phthalate
Source: J. Chem. Thermodyn., 2004, 10.1016/j.jct.2004.07.025
Compound 1: diethyl phthalate, C12H14O4, InChI=1S/C12H14O4/c1-3-15-11(13)9-7-5-6-8-10(9)12(14)16-4-2/h5-8H,3-4H2,1-2H3, purity 99%

System: diethyl phthalate; phases: Liquid, Gas
Property: Vapor or sublimation pressure, kPa (Liquid); method: Calculated from knudsen effusion weight loss
Temperature, K	Vapor or sublimation pressure, kPa	uncertainty
303.19	0.000165	1e-05
307.62	0.00026	1.6e-05
308.1	0.000271	1.7e-05
313.34	0.000456	2.8e-05
318.54	0.000769	4.7e-05
323.04	0.00116	0.000103
323.33	0.001179	0.000105
328.33	0.001842	0.000174
333.55	0.002839	0.000284
333.58	0.002895	0.000291
333.68	0.00286	0.000287
337.65	0.003873	0.000404
338.68	0.004379	0.000464
343.7	0.006569	0.000732

System: diethyl phthalate; phases: Liquid, Gas
Property: Vapor or sublimation pressure, kPa (Liquid); method: Closed cell (Static) method
Temperature, K	Vapor or sublimation pressure, kPa	uncertainty
335.05	0.0037	0.00019
335.07	0.0037	0.00019
344.41	0.0076	0.00033
344.43	0.0077	0.00034
354.01	0.0158	0.0006
354.03	0.0159	0.0006
363.15	0.0304	0.0009
363.16	0.0305	0.0009
365.75	0.036	0.0011
365.75	0.0359	0.0011
365.77	0.0363	0.0011
375.29	0.0671	0.0018
375.31	0.0671	0.0018
384.96	0.121	0.003
394.42	0.21	0.005
394.42	0.209	0.005
394.42	0.207	0.005
394.43	0.208	0.005
394.47	0.207	0.005
403.73	0.346	0.008
403.77	0.347	0.008
404.25	0.352	0.008
404.27	0.352	0.008
413.4	0.568	0.012
413.43	0.569	0.012
414.26	0.585	0.013
414.27	0.586	0.013
424.06	0.94	0.02
424.09	0.94	0.02

System: diethyl phthalate; phases: Liquid, Gas
Property: Vapor or sublimation pressure, kPa (Liquid); method: Ebulliometric method (Recirculating still)
Temperature, K	Vapor or sublimation pressure, kPa	uncertainty
479.25	8.318	0.012
487.77	11.06	0.014
494.93	13.9	0.017
501	16.77	0.019
507.32	20.26	0.023
513.93	24.53	0.027
520.32	29.35	0.032
