Measured thermophysical data. Solubility determination and thermodynamic modeling of 5-nitro-8- hydroxyquinoline in ten organic solvents from T = (278.15 to 313.15) K and mixing properties of solutions
Source: J. Chem. Thermodyn., 2016, 10.1016/j.jct.2016.04.018
Compound 1: 5-nitro-8-quinolinol, C9H6N2O3, InChI=1S/C9H6N2O3/c12-8-4-3-7(11(13)14)6-2-1-5-10-9(6)8/h1-5,12H, purity 98.2%
Compound 2: methanol, CH4O, InChI=1S/CH4O/c1-2/h2H,1H3, purity 99.5%
Compound 3: ethanol, C2H6O, InChI=1S/C2H6O/c1-2-3/h3H,2H2,1H3, purity 99.7%
Compound 4: propan-1-ol, C3H8O, InChI=1S/C3H8O/c1-2-3-4/h4H,2-3H2,1H3, purity 99.5%
Compound 5: propan-2-ol, C3H8O, InChI=1S/C3H8O/c1-3(2)4/h3-4H,1-2H3, purity 99.7%
Compound 6: ethyl acetate, C4H8O2, InChI=1S/C4H8O2/c1-3-6-4(2)5/h3H2,1-2H3, purity 99.5%
Compound 7: acetone, C3H6O, InChI=1S/C3H6O/c1-3(2)4/h1-2H3, purity 99.5%
Compound 8: acetonitrile, C2H3N, InChI=1S/C2H3N/c1-2-3/h1H3, purity 99%
Compound 9: toluene, C7H8, InChI=1S/C7H8/c1-7-5-3-2-4-6-7/h2-6H,1H3, purity 99.5%
Compound 10: acetic acid, C2H4O2, InChI=1S/C2H4O2/c1-2(3)4/h1H3,(H,3,4), purity 99.5%
Compound 11: butan-1-ol, C4H10O, InChI=1S/C4H10O/c1-2-3-4-5/h5H,2-4H2,1H3, purity 99.5%
Compound 12: tetrachloromethane, CCl4, InChI=1S/CCl4/c2-1(3,4)5, purity 99.5%

System: 5-nitro-8-quinolinol; phases: Crystal
Property: Mass density, kg/m3 (Crystal); method: flotation method
Temperature, K	Pressure, kPa	Mass density, kg/m3	uncertainty
298.15	101.3	1489.7	2.5

System: methanol + 5-nitro-8-quinolinol; phases: Liquid, Crystal
Fixed: Pressure, kPa = 101.3
Property: Mole fraction of 5-nitro-8-quinolinol (Liquid); method: Chromatography
Temperature, K	Mole fraction of 5-nitro-8-quinolinol	uncertainty
278.15	0.0004428	1.95e-05
280.65	0.0004856	2.14e-05
283.15	0.000531	2.34e-05
285.65	0.0005856	2.58e-05
288.15	0.0006429	2.83e-05
290.65	0.0007015	3.09e-05
293.15	0.0007632	3.36e-05
295.65	0.0008305	3.66e-05
298.15	0.0009036	3.98e-05
300.65	0.0009815	4.33e-05
303.15	0.001066	4.7e-05
305.65	0.001161	5.1e-05
308.15	0.001271	5.6e-05
310.65	0.001379	6.1e-05
313.15	0.001493	6.6e-05

System: ethanol + 5-nitro-8-quinolinol; phases: Liquid, Crystal
Fixed: Pressure, kPa = 101.3
Property: Mole fraction of 5-nitro-8-quinolinol (Liquid); method: Chromatography
Temperature, K	Mole fraction of 5-nitro-8-quinolinol	uncertainty
278.15	0.0005747	2.53e-05
280.65	0.0006246	2.75e-05
283.15	0.0006816	3e-05
285.65	0.0007499	3.31e-05
288.15	0.00082	3.61e-05
290.65	0.0009008	3.97e-05
293.15	0.0009875	4.35e-05
295.65	0.001077	4.7e-05
298.15	0.00118	5.2e-05
300.65	0.00128	5.6e-05
303.15	0.001394	6.1e-05
305.65	0.001518	6.7e-05
308.15	0.001656	7.3e-05
310.65	0.001817	8e-05
313.15	0.00199	8.8e-05

System: propan-1-ol + 5-nitro-8-quinolinol; phases: Liquid, Crystal
Fixed: Pressure, kPa = 101.3
Property: Mole fraction of 5-nitro-8-quinolinol (Liquid); method: Chromatography
Temperature, K	Mole fraction of 5-nitro-8-quinolinol	uncertainty
278.15	0.0005617	2.48e-05
280.65	0.0006082	2.68e-05
283.15	0.0006749	2.98e-05
285.65	0.0007477	3.3e-05
288.15	0.0008139	3.59e-05
290.65	0.0008988	3.96e-05
293.15	0.0009902	4.36e-05
295.65	0.001086	4.8e-05
298.15	0.001192	5.3e-05
300.65	0.001307	5.8e-05
303.15	0.001434	6.3e-05
305.65	0.001566	6.9e-05
308.15	0.001703	7.5e-05
310.65	0.001865	8.2e-05
313.15	0.002039	9e-05

System: propan-2-ol + 5-nitro-8-quinolinol; phases: Liquid, Crystal
Fixed: Pressure, kPa = 101.3
Property: Mole fraction of 5-nitro-8-quinolinol (Liquid); method: Chromatography
Temperature, K	Mole fraction of 5-nitro-8-quinolinol	uncertainty
278.15	0.0005002	2.2e-05
280.65	0.0005482	2.42e-05
283.15	0.0006051	2.67e-05
285.65	0.0006716	2.96e-05
288.15	0.0007407	3.26e-05
290.65	0.0008165	3.6e-05
293.15	0.0008965	3.95e-05
295.65	0.0009736	4.29e-05
298.15	0.001067	4.7e-05
300.65	0.001177	5.2e-05
303.15	0.001287	5.7e-05
305.65	0.001409	6.2e-05
308.15	0.001537	6.8e-05
310.65	0.001675	7.4e-05
313.15	0.001829	8.1e-05

System: ethyl acetate + 5-nitro-8-quinolinol; phases: Liquid, Crystal
Fixed: Pressure, kPa = 101.3
Property: Mole fraction of 5-nitro-8-quinolinol (Liquid); method: Chromatography
Temperature, K	Mole fraction of 5-nitro-8-quinolinol	uncertainty
278.15	0.003392	0.000149
280.65	0.003692	0.000163
283.15	0.004003	0.000176
285.65	0.004372	0.000193
288.15	0.004756	0.00021
290.65	0.00517	0.000228
293.15	0.005643	0.000249
295.65	0.0061	0.000269
298.15	0.006671	0.000294
300.65	0.007235	0.000319
303.15	0.007864	0.000347
305.65	0.008569	0.000378
308.15	0.009286	0.000409
310.65	0.01004	0.00044
313.15	0.01087	0.00048

System: acetone + 5-nitro-8-quinolinol; phases: Liquid, Crystal
Fixed: Pressure, kPa = 101.3
Property: Mole fraction of 5-nitro-8-quinolinol (Liquid); method: Chromatography
Temperature, K	Mole fraction of 5-nitro-8-quinolinol	uncertainty
278.15	0.003976	0.000175
280.65	0.00429	0.000189
283.15	0.00461	0.000203
285.65	0.00498	0.000219
288.15	0.005378	0.000237
290.65	0.005803	0.000256
293.15	0.006239	0.000275
295.65	0.006681	0.000294
298.15	0.007214	0.000318
300.65	0.007728	0.000341
303.15	0.008309	0.000366
305.65	0.008884	0.000391
308.15	0.009556	0.000421
310.65	0.01027	0.00045
313.15	0.01105	0.00049

System: acetonitrile + 5-nitro-8-quinolinol; phases: Liquid, Crystal
Fixed: Pressure, kPa = 101.3
Property: Mole fraction of 5-nitro-8-quinolinol (Liquid); method: Chromatography
Temperature, K	Mole fraction of 5-nitro-8-quinolinol	uncertainty
278.15	0.001128	5e-05
280.65	0.001244	5.5e-05
283.15	0.001372	6e-05
285.65	0.001511	6.7e-05
288.15	0.001649	7.3e-05
290.65	0.001805	8e-05
293.15	0.001968	8.7e-05
295.65	0.002141	9.4e-05
298.15	0.002331	0.000103
300.65	0.00256	0.000113
303.15	0.002792	0.000123
305.65	0.003041	0.000134
308.15	0.003338	0.000147
310.65	0.003659	0.000161
313.15	0.004032	0.000178

System: toluene + 5-nitro-8-quinolinol; phases: Liquid, Crystal
Fixed: Pressure, kPa = 101.3
Property: Mole fraction of 5-nitro-8-quinolinol (Liquid); method: Chromatography
Temperature, K	Mole fraction of 5-nitro-8-quinolinol	uncertainty
278.15	0.002286	0.000101
280.65	0.002471	0.000109
283.15	0.002692	0.000119
285.65	0.002929	0.000129
288.15	0.003173	0.00014
290.65	0.003453	0.000152
293.15	0.003766	0.000166
295.65	0.004082	0.00018
298.15	0.004443	0.000196
300.65	0.004805	0.000212
303.15	0.005184	0.000228
305.65	0.005624	0.000248
308.15	0.006089	0.000268
310.65	0.0066	0.000291
313.15	0.007155	0.000315

System: acetic acid + 5-nitro-8-quinolinol; phases: Liquid, Crystal
Fixed: Pressure, kPa = 101.3
Property: Mole fraction of 5-nitro-8-quinolinol (Liquid); method: Chromatography
Temperature, K	Mole fraction of 5-nitro-8-quinolinol	uncertainty
278.15	0.002236	9.9e-05
280.65	0.00239	0.000105
283.15	0.002591	0.000114
285.65	0.002802	0.000123
288.15	0.003033	0.000134
290.65	0.003278	0.000144
293.15	0.003551	0.000156
295.65	0.003834	0.000169
298.15	0.004159	0.000183
300.65	0.004491	0.000198
303.15	0.004839	0.000213
305.65	0.005199	0.000229
308.15	0.005589	0.000246
310.65	0.00601	0.000265
313.15	0.006492	0.000286

System: butan-1-ol + 5-nitro-8-quinolinol; phases: Liquid, Crystal
Fixed: Pressure, kPa = 101.3
Property: Mole fraction of 5-nitro-8-quinolinol (Liquid); method: Chromatography
Temperature, K	Mole fraction of 5-nitro-8-quinolinol	uncertainty
278.15	0.0006061	2.67e-05
280.65	0.0006632	2.92e-05
283.15	0.0007262	3.2e-05
285.65	0.0007966	3.51e-05
288.15	0.000867	3.82e-05
290.65	0.0009609	4.24e-05
293.15	0.001052	4.6e-05
295.65	0.001161	5.1e-05
298.15	0.001276	5.6e-05
300.65	0.001391	6.1e-05
303.15	0.001525	6.7e-05
305.65	0.001655	7.3e-05
308.15	0.001805	8e-05
310.65	0.00197	8.7e-05
313.15	0.002169	9.6e-05

System: tetrachloromethane + 5-nitro-8-quinolinol; phases: Liquid, Crystal
Property: Mole fraction of 5-nitro-8-quinolinol (Liquid); method: Chromatography
Temperature, K	Pressure, kPa	Mole fraction of 5-nitro-8-quinolinol	uncertainty
298.15	101.3	9.281e-05	4.09e-06
