Measured thermophysical data. P,[rho], T and heat capacity measurements of ([alpha]-pinene + [beta]-pinene) mixtures over  the temperature range 283.15 K to 358.15 K and pressures up to 40 MPa: Experiments and modelling
Source: J. Chem. Thermodyn., 2013, 10.1016/j.jct.2012.09.012
Compound 1: (S)-2-pinene, C10H16, InChI=1S/C10H16/c1-7-4-5-8-6-9(7)10(8,2)3/h4,8-9H,5-6H2,1-3H3/t8-,9-/m0/s1, purity 98%
Compound 2: .beta.-pinene, C10H16, InChI=1S/C10H16/c1-7-4-5-8-6-9(7)10(8,2)3/h8-9H,1,4-6H2,2-3H3, purity 99%

System: (S)-2-pinene; phases: Liquid
Property: Mass density, kg/m3 (Liquid); method: Vibrating tube method
Temperature, K	Pressure, kPa	Mass density, kg/m3	uncertainty
283.15	20000	880	1.2
283.15	25000	883.2	1.2
283.15	30000	886.3	1.3
283.15	35000	889.4	1.3
283.15	40000	892.5	1.3
298.15	20000	868.8	1.2
298.15	25000	872.1	1.2
298.15	30000	875.3	1.3
298.15	35000	878.6	1.3
298.15	40000	881.9	1.3
313.15	20000	858	1.2
313.15	25000	861.3	1.2
313.15	30000	864.7	1.3
313.15	35000	867.9	1.3
313.15	40000	871.3	1.3
328.15	20000	846.7	1.2
328.15	25000	850.4	1.2
328.15	30000	854	1.3
328.15	35000	857.5	1.3
328.15	40000	861.1	1.3
343.15	20000	835.9	1.2
343.15	25000	839.7	1.2
343.15	30000	843.8	1.3
343.15	35000	847.7	1.3
343.15	40000	851.4	1.3
358.15	20000	825	1.2
358.15	25000	829.2	1.2
358.15	30000	833.3	1.3
358.15	35000	837.4	1.3
358.15	40000	841.5	1.3

System: (S)-2-pinene; phases: Liquid
Fixed: Pressure, kPa = 101
Property: Molar heat capacity at constant pressure, J/K/mol (Liquid); method: Small sample (50 mg) DSC
Temperature, K	Molar heat capacity at constant pressure, J/K/mol	uncertainty
313.16	250.6706336	8.1740424
318.16	252.032974	8.1740424
323.16	256.1199952	8.1740424
328.22	257.4823356	8.1740424
333.22	260.2070164	8.1740424
338.19	264.2940376	8.1740424
343.18	267.0187184	9.5363828
348.15	269.7433992	9.5363828
353.18	272.46808	9.5363828
358.15	275.1927608	9.5363828
363.18	277.9174416	9.5363828
368.17	279.279782	9.5363828
373.21	282.0044628	9.5363828
378.2	284.7291436	9.5363828
383.17	287.4538244	9.5363828
388.2	291.5408456	9.5363828
393.17	292.903186	9.5363828
398.2	294.2655264	9.5363828
403.19	296.9902072	9.5363828
408.16	299.714888	9.5363828
413.19	301.0772284	9.5363828
418.19	303.8019092	9.5363828

System: .beta.-pinene; phases: Liquid
Property: Mass density, kg/m3 (Liquid); method: Vibrating tube method
Temperature, K	Pressure, kPa	Mass density, kg/m3	uncertainty
283.15	20000	891.3	1
283.15	25000	894.2	1
283.15	30000	897	1.1
283.15	35000	899.9	1.1
283.15	40000	902.6	1.1
298.15	20000	880.2	1
298.15	25000	883.3	1
298.15	30000	886.3	1.1
298.15	35000	889.3	1.1
298.15	40000	892.2	1.1
313.15	20000	869.3	1
313.15	25000	872.6	1.1
313.15	30000	875.7	1.1
313.15	35000	878.8	1.1
313.15	40000	882	1.1
328.15	20000	858.2	1
328.15	25000	861.7	1.1
328.15	30000	865.2	1.1
328.15	35000	868.7	1.1
328.15	40000	872.2	1.1
343.15	20000	847.7	1.1
343.15	25000	851.4	1.1
343.15	30000	855	1.1
343.15	35000	858.6	1.1
343.15	40000	862.1	1.1
358.15	20000	837	1.1
358.15	25000	840.9	1.1
358.15	30000	844.8	1.1
358.15	35000	848.7	1.1
358.15	40000	852.6	1.1

System: .beta.-pinene; phases: Liquid
Fixed: Pressure, kPa = 101
Property: Molar heat capacity at constant pressure, J/K/mol (Liquid); method: Small sample (50 mg) DSC
Temperature, K	Molar heat capacity at constant pressure, J/K/mol	uncertainty
313.16	249.3082932	8.1740424
318.16	252.032974	8.1740424
323.16	254.7576548	8.1740424
328.22	257.4823356	8.1740424
333.22	260.2070164	8.1740424
338.19	262.9316972	8.1740424
343.18	265.656378	8.1740424
348.15	268.3810588	9.5363828
353.18	271.1057396	9.5363828
358.15	273.8304204	9.5363828
363.18	277.9174416	9.5363828
368.17	280.6421224	9.5363828
373.21	283.3668032	9.5363828
378.2	284.7291436	9.5363828
383.17	287.4538244	9.5363828
388.2	290.1785052	9.5363828
393.17	292.903186	9.5363828
398.2	295.6278668	9.5363828
403.19	299.714888	9.5363828
408.16	302.4395688	9.5363828
413.19	303.8019092	9.5363828
418.19	306.52659	9.5363828

System: .beta.-pinene + (S)-2-pinene; phases: Liquid
Property: Mass density, kg/m3 (Liquid); method: Vibrating tube method
Temperature, K	Pressure, kPa	Mole fraction of (S)-2-pinene	Mass density, kg/m3	uncertainty
283.15	20000	0	891.3	1
283.15	20000	0.1044	890.1	1.1
283.15	20000	0.1926	889	1.1
283.15	20000	0.3036	887.9	1.1
283.15	20000	0.3949	886.9	1.1
283.15	20000	0.502	885.7	1.1
283.15	20000	0.6052	884.7	1.1
283.15	20000	0.7022	883.4	1.2
283.15	20000	0.7983	882.3	1.2
283.15	20000	0.9028	881.1	1.2
283.15	20000	1	880	1.2
283.15	25000	0	894.2	1
283.15	25000	0.1044	893.1	1.1
283.15	25000	0.1926	891.9	1.1
283.15	25000	0.3036	890.9	1.1
283.15	25000	0.3949	889.9	1.1
283.15	25000	0.502	888.7	1.1
283.15	25000	0.6052	887.8	1.1
283.15	25000	0.7022	886.6	1.2
283.15	25000	0.7983	885.4	1.2
283.15	25000	0.9028	884.3	1.2
283.15	25000	1	883.2	1.2
283.15	30000	0	897	1.1
283.15	30000	0.1044	896	1.1
283.15	30000	0.1926	894.8	1.1
283.15	30000	0.3036	893.7	1.1
283.15	30000	0.3949	892.9	1.1
283.15	30000	0.502	891.6	1.1
283.15	30000	0.6052	890.7	1.1
283.15	30000	0.7022	889.3	1.2
283.15	30000	0.7983	888.5	1.2
283.15	30000	0.9028	887.4	1.2
283.15	30000	1	886.3	1.3
283.15	35000	0	899.9	1.1
283.15	35000	0.1044	898.9	1.1
283.15	35000	0.1926	897.7	1.1
283.15	35000	0.3036	896.7	1.1
283.15	35000	0.3949	895.8	1.1
283.15	35000	0.502	894.7	1.1
283.15	35000	0.6052	893.7	1.2
283.15	35000	0.7022	892.5	1.2
283.15	35000	0.7983	891.6	1.2
283.15	35000	0.9028	890.3	1.2
283.15	35000	1	889.4	1.3
283.15	40000	0	902.6	1.1
283.15	40000	0.1044	901.7	1.1
283.15	40000	0.1926	900.6	1.1
283.15	40000	0.3036	899.4	1.1
283.15	40000	0.3949	898.6	1.1
283.15	40000	0.502	897.5	1.1
283.15	40000	0.6052	896.6	1.2
283.15	40000	0.7022	895.3	1.2
283.15	40000	0.7983	894.6	1.2
283.15	40000	0.9028	893.5	1.3
283.15	40000	1	892.5	1.3
298.15	20000	0	880.2	1
298.15	20000	0.1044	879.6	1.1
298.15	20000	0.1926	878.2	1.1
298.15	20000	0.3036	876.9	1.1
298.15	20000	0.3949	875.8	1.1
298.15	20000	0.502	874.6	1.1
298.15	20000	0.6052	873.4	1.1
298.15	20000	0.7022	872.3	1.2
298.15	20000	0.7983	871.2	1.2
298.15	20000	0.9028	870	1.2
298.15	20000	1	868.8	1.2
298.15	25000	0	883.3	1
298.15	25000	0.1044	882.5	1.1
298.15	25000	0.1926	881.3	1.1
298.15	25000	0.3036	880	1.1
298.15	25000	0.3949	879	1.1
298.15	25000	0.502	877.8	1.1
298.15	25000	0.6052	876.7	1.1
298.15	25000	0.7022	875.6	1.2
298.15	25000	0.7983	874.5	1.2
298.15	25000	0.9028	873.3	1.2
298.15	25000	1	872.1	1.2
298.15	30000	0	886.3	1.1
298.15	30000	0.1044	885.3	1.1
298.15	30000	0.1926	884.2	1.1
298.15	30000	0.3036	883	1.1
298.15	30000	0.3949	882	1.1
298.15	30000	0.502	880.8	1.1
298.15	30000	0.6052	879.7	1.1
298.15	30000	0.7022	878.8	1.2
298.15	30000	0.7983	877.6	1.2
298.15	30000	0.9028	876.4	1.2
298.15	30000	1	875.3	1.3
298.15	35000	0	889.3	1.1
298.15	35000	0.1044	888.3	1.1
298.15	35000	0.1926	887.3	1.1
298.15	35000	0.3036	886.1	1.1
298.15	35000	0.3949	885.1	1.1
298.15	35000	0.502	884	1.1
298.15	35000	0.6052	882.9	1.2
298.15	35000	0.7022	882	1.2
298.15	35000	0.7983	880.8	1.2
298.15	35000	0.9028	879.7	1.2
298.15	35000	1	878.6	1.3
298.15	40000	0	892.2	1.1
298.15	40000	0.1044	891.1	1.1
298.15	40000	0.1926	890.2	1.1
298.15	40000	0.3036	889.1	1.1
298.15	40000	0.3949	888	1.1
298.15	40000	0.502	887.1	1.1
298.15	40000	0.6052	886	1.2
298.15	40000	0.7022	885.1	1.2
298.15	40000	0.7983	884	1.2
298.15	40000	0.9028	882.9	1.3
298.15	40000	1	881.9	1.3
313.15	20000	0	869.3	1
313.15	20000	0.1044	868	1.1
313.15	20000	0.1926	867	1.1
313.15	20000	0.3036	865.9	1.1
313.15	20000	0.3949	864.9	1.1
313.15	20000	0.502	863.6	1.1
313.15	20000	0.6052	862.6	1.1
313.15	20000	0.7022	861.4	1.2
313.15	20000	0.7983	860.3	1.2
313.15	20000	0.9028	859	1.2
313.15	20000	1	858	1.2
313.15	25000	0	872.6	1.1
313.15	25000	0.1044	871.4	1.1
313.15	25000	0.1926	870.3	1.1
313.15	25000	0.3036	869.2	1.1
313.15	25000	0.3949	868.2	1.1
313.15	25000	0.502	867	1.1
313.15	25000	0.6052	865.8	1.1
313.15	25000	0.7022	864.7	1.2
313.15	25000	0.7983	863.6	1.2
313.15	25000	0.9028	862.4	1.2
313.15	25000	1	861.3	1.2
313.15	30000	0	875.7	1.1
313.15	30000	0.1044	874.6	1.1
313.15	30000	0.1926	873.5	1.1
313.15	30000	0.3036	872.4	1.1
313.15	30000	0.3949	871.4	1.1
313.15	30000	0.502	870.2	1.1
313.15	30000	0.6052	869.1	1.2
313.15	30000	0.7022	868	1.2
313.15	30000	0.7983	866.9	1.2
313.15	30000	0.9028	865.7	1.2
313.15	30000	1	864.7	1.3
313.15	35000	0	878.8	1.1
313.15	35000	0.1044	877.8	1.1
313.15	35000	0.1926	876.7	1.1
313.15	35000	0.3036	875.5	1.1
313.15	35000	0.3949	874.6	1.1
313.15	35000	0.502	873.4	1.1
313.15	35000	0.6052	872.3	1.2
313.15	35000	0.7022	871.2	1.2
313.15	35000	0.7983	870.2	1.2
313.15	35000	0.9028	869.1	1.2
313.15	35000	1	867.9	1.3
313.15	40000	0	882	1.1
313.15	40000	0.1044	881.1	1.1
313.15	40000	0.1926	879.9	1.1
313.15	40000	0.3036	878.7	1.1
313.15	40000	0.3949	877.8	1.1
313.15	40000	0.502	876.6	1.1
313.15	40000	0.6052	875.5	1.2
313.15	40000	0.7022	874.5	1.2
313.15	40000	0.7983	873.5	1.2
313.15	40000	0.9028	872.4	1.3
313.15	40000	1	871.3	1.3
328.15	20000	0	858.2	1
328.15	20000	0.1044	857.2	1.1
328.15	20000	0.1926	855.9	1.1
328.15	20000	0.3036	855	1.1
328.15	20000	0.3949	853.7	1.1
328.15	20000	0.502	852.5	1.1
328.15	20000	0.6052	851.3	1.1
328.15	20000	0.7022	850.2	1.2
328.15	20000	0.7983	849.1	1.2
328.15	20000	0.9028	847.9	1.2
328.15	20000	1	846.7	1.2
328.15	25000	0	861.7	1.1
328.15	25000	0.1044	860.6	1.1
328.15	25000	0.1926	859.5	1.1
328.15	25000	0.3036	858.3	1.1
328.15	25000	0.3949	857.2	1.1
328.15	25000	0.502	856.1	1.1
328.15	25000	0.6052	854.9	1.1
328.15	25000	0.7022	853.8	1.2
328.15	25000	0.7983	852.7	1.2
328.15	25000	0.9028	851.5	1.2
328.15	25000	1	850.4	1.2
328.15	30000	0	865.2	1.1
328.15	30000	0.1044	864.1	1.1
328.15	30000	0.1926	863.1	1.1
328.15	30000	0.3036	862	1.1
328.15	30000	0.3949	860.8	1.1
328.15	30000	0.502	859.6	1.1
328.15	30000	0.6052	858.5	1.2
328.15	30000	0.7022	857.4	1.2
328.15	30000	0.7983	856.3	1.2
328.15	30000	0.9028	855.1	1.2
328.15	30000	1	854	1.3
328.15	35000	0	868.7	1.1
328.15	35000	0.1044	867.5	1.1
328.15	35000	0.1926	866.6	1.1
328.15	35000	0.3036	865.4	1.1
328.15	35000	0.3949	864.3	1.1
328.15	35000	0.502	863.1	1.1
328.15	35000	0.6052	861.9	1.2
328.15	35000	0.7022	860.9	1.2
328.15	35000	0.7983	859.8	1.2
328.15	35000	0.9028	858.6	1.2
328.15	35000	1	857.5	1.3
328.15	40000	0	872.2	1.1
328.15	40000	0.1044	870.8	1.1
328.15	40000	0.1926	870	1.1
328.15	40000	0.3036	868.9	1.1
328.15	40000	0.3949	867.7	1.1
328.15	40000	0.502	866.6	1.2
328.15	40000	0.6052	865.5	1.2
328.15	40000	0.7022	864.3	1.2
328.15	40000	0.7983	863.4	1.2
328.15	40000	0.9028	862.1	1.3
328.15	40000	1	861.1	1.3
343.15	20000	0	847.7	1.1
343.15	20000	0.1044	846.7	1.1
343.15	20000	0.1926	845.5	1.1
343.15	20000	0.3036	844.3	1.1
343.15	20000	0.3949	843.2	1.1
343.15	20000	0.502	841.9	1.1
343.15	20000	0.6052	840.7	1.1
343.15	20000	0.7022	839.4	1.2
343.15	20000	0.7983	838.3	1.2
343.15	20000	0.9028	837	1.2
343.15	20000	1	835.9	1.2
343.15	25000	0	851.4	1.1
343.15	25000	0.1044	850.5	1.1
343.15	25000	0.1926	849.3	1.1
343.15	25000	0.3036	848.1	1.1
343.15	25000	0.3949	847	1.1
343.15	25000	0.502	845.7	1.1
343.15	25000	0.6052	844.6	1.1
343.15	25000	0.7022	843.3	1.2
343.15	25000	0.7983	842.1	1.2
343.15	25000	0.9028	840.9	1.2
343.15	25000	1	839.7	1.2
343.15	30000	0	855	1.1
343.15	30000	0.1044	854.2	1.1
343.15	30000	0.1926	853	1.1
343.15	30000	0.3036	851.9	1.1
343.15	30000	0.3949	850.9	1.1
343.15	30000	0.502	849.6	1.1
343.15	30000	0.6052	848.5	1.2
343.15	30000	0.7022	847.2	1.2
343.15	30000	0.7983	846.2	1.2
343.15	30000	0.9028	844.9	1.2
343.15	30000	1	843.8	1.3
343.15	35000	0	858.6	1.1
343.15	35000	0.1044	857.7	1.1
343.15	35000	0.1926	856.6	1.1
343.15	35000	0.3036	855.5	1.1
343.15	35000	0.3949	854.5	1.1
343.15	35000	0.502	853.3	1.1
343.15	35000	0.6052	852.2	1.2
343.15	35000	0.7022	851	1
343.15	35000	0.7983	850	1
343.15	35000	0.9028	848.7	1.3
343.15	35000	1	847.7	1.3
343.15	40000	0	862.1	1.1
343.15	40000	0.1044	861.3	1.1
343.15	40000	0.1926	860.2	1.1
343.15	40000	0.3036	859.1	1.1
343.15	40000	0.3949	858.1	1.1
343.15	40000	0.502	857	1.2
343.15	40000	0.6052	855.9	1.2
343.15	40000	0.7022	854.7	1.2
343.15	40000	0.7983	853.7	1.2
343.15	40000	0.9028	852.4	1.3
343.15	40000	1	851.4	1.3
358.15	20000	0	837	1.1
358.15	20000	0.1044	835.9	1.1
358.15	20000	0.1926	834.6	1.1
358.15	20000	0.3036	833.3	1.1
358.15	20000	0.3949	832.2	1.1
358.15	20000	0.502	831	1.1
358.15	20000	0.6052	829.8	1.1
358.15	20000	0.7022	828.5	1.2
358.15	20000	0.7983	827.3	1.2
358.15	20000	0.9028	826.1	1.2
358.15	20000	1	825	1.2
358.15	25000	0	840.9	1.1
358.15	25000	0.1044	839.8	1.1
358.15	25000	0.1926	838.6	1.1
358.15	25000	0.3036	837.4	1.1
358.15	25000	0.3949	836.3	1.1
358.15	25000	0.502	835	1.1
358.15	25000	0.6052	833.9	1.1
358.15	25000	0.7022	832.7	1.2
358.15	25000	0.7983	831.5	1.2
358.15	25000	0.9028	830.3	1.2
358.15	25000	1	829.2	1.2
358.15	30000	0	844.8	1.1
358.15	30000	0.1044	843.7	1.1
358.15	30000	0.1926	842.5	1.1
358.15	30000	0.3036	841.3	1.1
358.15	30000	0.3949	840.3	1.1
358.15	30000	0.502	839	1.1
358.15	30000	0.6052	838	1.2
358.15	30000	0.7022	836.7	1.2
358.15	30000	0.7983	835.6	1.2
358.15	30000	0.9028	834.4	1.2
358.15	30000	1	833.3	1.3
358.15	35000	0	848.7	1.1
358.15	35000	0.1044	847.6	1.1
358.15	35000	0.1926	846.4	1.1
358.15	35000	0.3036	845.2	1.1
358.15	35000	0.3949	844.2	1.1
358.15	35000	0.502	843	1.2
358.15	35000	0.6052	841.8	1.2
358.15	35000	0.7022	840.7	1.2
358.15	35000	0.7983	839.6	1.2
358.15	35000	0.9028	838.4	1.3
358.15	35000	1	837.4	1.3
358.15	40000	0	852.6	1.1
358.15	40000	0.1044	851.5	1.1
358.15	40000	0.1926	850.4	1.1
358.15	40000	0.3036	849.1	1.1
358.15	40000	0.3949	848.2	1.1
358.15	40000	0.502	847.1	1.2
358.15	40000	0.6052	846	1.2
358.15	40000	0.7022	844.8	1.2
358.15	40000	0.7983	843.8	1.2
358.15	40000	0.9028	842.6	1.3
358.15	40000	1	841.5	1.3

System: .beta.-pinene + (S)-2-pinene; phases: Liquid
Fixed: Pressure, kPa = 101
Property: Molar heat capacity at constant pressure, J/K/mol (Liquid); method: Small sample (50 mg) DSC
Temperature, K	Mole fraction of (S)-2-pinene	Molar heat capacity at constant pressure, J/K/mol	uncertainty
313.16	1	250.6706336	8.1740424
318.16	1	252.032974	8.1740424
323.16	1	256.1199952	8.1740424
328.22	1	257.4823356	8.1740424
333.22	1	260.2070164	8.1740424
338.19	1	264.2940376	8.1740424
343.18	1	267.0187184	9.5363828
348.15	1	269.7433992	9.5363828
353.18	1	272.46808	9.5363828
358.15	1	275.1927608	9.5363828
363.18	1	277.9174416	9.5363828
368.17	1	279.279782	9.5363828
373.21	1	282.0044628	9.5363828
378.2	1	284.7291436	9.5363828
383.17	1	287.4538244	9.5363828
388.2	1	291.5408456	9.5363828
393.17	1	292.903186	9.5363828
398.2	1	294.2655264	9.5363828
403.19	1	296.9902072	9.5363828
408.16	1	299.714888	9.5363828
413.19	1	301.0772284	9.5363828
418.19	1	303.8019092	9.5363828
313.16	0.9002	253.3953144	8.1740424
318.16	0.9002	254.7576548	8.1740424
323.16	0.9002	256.1199952	8.1740424
328.22	0.9002	258.844676	8.1740424
333.22	0.9002	260.2070164	8.1740424
338.19	0.9002	262.9316972	8.1740424
343.18	0.9002	265.656378	8.1740424
348.15	0.9002	268.3810588	9.5363828
353.18	0.9002	269.7433992	9.5363828
358.15	0.9002	272.46808	9.5363828
363.18	0.9002	275.1927608	9.5363828
368.17	0.9002	277.9174416	9.5363828
373.21	0.9002	279.279782	9.5363828
378.2	0.9002	282.0044628	9.5363828
383.17	0.9002	284.7291436	9.5363828
388.2	0.9002	287.4538244	9.5363828
393.17	0.9002	288.8161648	9.5363828
398.2	0.9002	292.903186	9.5363828
403.19	0.9002	294.2655264	9.5363828
408.16	0.9002	296.9902072	9.5363828
413.19	0.9002	299.714888	9.5363828
418.19	0.9002	302.4395688	9.5363828
313.16	0.7987	252.032974	8.1740424
318.16	0.7987	253.3953144	8.1740424
323.16	0.7987	254.7576548	8.1740424
328.22	0.7987	256.1199952	8.1740424
333.22	0.7987	257.4823356	8.1740424
338.19	0.7987	261.5693568	8.1740424
343.18	0.7987	264.2940376	8.1740424
348.15	0.7987	267.0187184	9.5363828
353.18	0.7987	269.7433992	9.5363828
358.15	0.7987	271.1057396	9.5363828
363.18	0.7987	275.1927608	9.5363828
368.17	0.7987	276.5551012	9.5363828
373.21	0.7987	280.6421224	9.5363828
378.2	0.7987	282.0044628	9.5363828
383.17	0.7987	283.3668032	9.5363828
388.2	0.7987	286.091484	9.5363828
393.17	0.7987	288.8161648	9.5363828
398.2	0.7987	292.903186	9.5363828
403.19	0.7987	295.6278668	9.5363828
408.16	0.7987	298.3525476	9.5363828
413.19	0.7987	299.714888	9.5363828
418.19	0.7987	303.8019092	9.5363828
313.16	0.7026	250.6706336	8.1740424
318.16	0.7026	253.3953144	8.1740424
323.16	0.7026	256.1199952	8.1740424
328.22	0.7026	258.844676	8.1740424
333.22	0.7026	260.2070164	8.1740424
338.19	0.7026	262.9316972	8.1740424
343.18	0.7026	264.2940376	8.1740424
348.15	0.7026	267.0187184	9.5363828
353.18	0.7026	269.7433992	9.5363828
358.15	0.7026	272.46808	9.5363828
363.18	0.7026	273.8304204	9.5363828
368.17	0.7026	276.5551012	9.5363828
373.21	0.7026	279.279782	9.5363828
378.2	0.7026	280.6421224	9.5363828
383.17	0.7026	284.7291436	9.5363828
388.2	0.7026	288.8161648	9.5363828
393.17	0.7026	291.5408456	9.5363828
398.2	0.7026	294.2655264	9.5363828
403.19	0.7026	295.6278668	9.5363828
408.16	0.7026	299.714888	9.5363828
413.19	0.7026	301.0772284	9.5363828
418.19	0.7026	303.8019092	9.5363828
313.16	0.5907	249.3082932	8.1740424
318.16	0.5907	252.032974	8.1740424
323.16	0.5907	254.7576548	8.1740424
328.22	0.5907	257.4823356	8.1740424
333.22	0.5907	261.5693568	8.1740424
338.19	0.5907	262.9316972	8.1740424
343.18	0.5907	267.0187184	9.5363828
348.15	0.5907	268.3810588	9.5363828
353.18	0.5907	272.46808	9.5363828
358.15	0.5907	275.1927608	9.5363828
363.18	0.5907	277.9174416	9.5363828
368.17	0.5907	280.6421224	9.5363828
373.21	0.5907	282.0044628	9.5363828
378.2	0.5907	284.7291436	9.5363828
383.17	0.5907	287.4538244	9.5363828
388.2	0.5907	290.1785052	9.5363828
393.17	0.5907	291.5408456	9.5363828
398.2	0.5907	294.2655264	9.5363828
403.19	0.5907	296.9902072	9.5363828
408.16	0.5907	299.714888	9.5363828
413.19	0.5907	301.0772284	9.5363828
418.19	0.5907	302.4395688	9.5363828
313.16	0.5012	250.6706336	8.1740424
318.16	0.5012	253.3953144	8.1740424
323.16	0.5012	254.7576548	8.1740424
328.22	0.5012	256.1199952	8.1740424
333.22	0.5012	258.844676	8.1740424
338.19	0.5012	262.9316972	8.1740424
343.18	0.5012	265.656378	8.1740424
348.15	0.5012	269.7433992	9.5363828
353.18	0.5012	272.46808	9.5363828
358.15	0.5012	275.1927608	9.5363828
363.18	0.5012	277.9174416	9.5363828
368.17	0.5012	280.6421224	9.5363828
373.21	0.5012	282.0044628	9.5363828
378.2	0.5012	284.7291436	9.5363828
383.17	0.5012	286.091484	9.5363828
388.2	0.5012	290.1785052	9.5363828
393.17	0.5012	292.903186	9.5363828
398.2	0.5012	295.6278668	9.5363828
403.19	0.5012	298.3525476	9.5363828
408.16	0.5012	302.4395688	9.5363828
413.19	0.5012	305.1642496	9.5363828
418.19	0.5012	306.52659	9.5363828
313.16	0.3922	252.032974	8.1740424
318.16	0.3922	253.3953144	8.1740424
323.16	0.3922	256.1199952	8.1740424
328.22	0.3922	258.844676	8.1740424
333.22	0.3922	260.2070164	8.1740424
338.19	0.3922	262.9316972	8.1740424
343.18	0.3922	265.656378	8.1740424
348.15	0.3922	268.3810588	9.5363828
353.18	0.3922	271.1057396	9.5363828
358.15	0.3922	273.8304204	9.5363828
363.18	0.3922	276.5551012	9.5363828
368.17	0.3922	279.279782	9.5363828
373.21	0.3922	282.0044628	9.5363828
378.2	0.3922	284.7291436	9.5363828
383.17	0.3922	287.4538244	9.5363828
388.2	0.3922	291.5408456	9.5363828
393.17	0.3922	294.2655264	9.5363828
398.2	0.3922	296.9902072	9.5363828
403.19	0.3922	299.714888	9.5363828
408.16	0.3922	303.8019092	9.5363828
413.19	0.3922	305.1642496	9.5363828
418.19	0.3922	306.52659	9.5363828
313.16	0.2997	250.6706336	8.1740424
318.16	0.2997	252.032974	8.1740424
323.16	0.2997	256.1199952	8.1740424
328.22	0.2997	257.4823356	8.1740424
333.22	0.2997	258.844676	8.1740424
338.19	0.2997	262.9316972	8.1740424
343.18	0.2997	267.0187184	9.5363828
348.15	0.2997	269.7433992	9.5363828
353.18	0.2997	272.46808	9.5363828
358.15	0.2997	273.8304204	9.5363828
363.18	0.2997	276.5551012	9.5363828
368.17	0.2997	279.279782	9.5363828
373.21	0.2997	282.0044628	9.5363828
378.2	0.2997	284.7291436	9.5363828
383.17	0.2997	287.4538244	9.5363828
388.2	0.2997	290.1785052	9.5363828
393.17	0.2997	292.903186	9.5363828
398.2	0.2997	294.2655264	9.5363828
403.19	0.2997	296.9902072	9.5363828
408.16	0.2997	299.714888	9.5363828
413.19	0.2997	301.0772284	9.5363828
418.19	0.2997	303.8019092	9.5363828
313.16	0.2041	250.6706336	8.1740424
318.16	0.2041	252.032974	8.1740424
323.16	0.2041	254.7576548	8.1740424
328.22	0.2041	256.1199952	8.1740424
333.22	0.2041	258.844676	8.1740424
338.19	0.2041	261.5693568	8.1740424
343.18	0.2041	265.656378	8.1740424
348.15	0.2041	268.3810588	9.5363828
353.18	0.2041	272.46808	9.5363828
358.15	0.2041	273.8304204	9.5363828
363.18	0.2041	276.5551012	9.5363828
368.17	0.2041	279.279782	9.5363828
373.21	0.2041	282.0044628	9.5363828
378.2	0.2041	283.3668032	9.5363828
383.17	0.2041	286.091484	9.5363828
388.2	0.2041	288.8161648	9.5363828
393.17	0.2041	291.5408456	9.5363828
398.2	0.2041	295.6278668	9.5363828
403.19	0.2041	298.3525476	9.5363828
408.16	0.2041	301.0772284	9.5363828
413.19	0.2041	302.4395688	9.5363828
418.19	0.2041	305.1642496	9.5363828
313.16	0.1002	249.3082932	8.1740424
318.16	0.1002	252.032974	8.1740424
323.16	0.1002	256.1199952	8.1740424
328.22	0.1002	257.4823356	8.1740424
333.22	0.1002	260.2070164	8.1740424
338.19	0.1002	264.2940376	8.1740424
343.18	0.1002	267.0187184	9.5363828
348.15	0.1002	269.7433992	9.5363828
353.18	0.1002	273.8304204	9.5363828
358.15	0.1002	275.1927608	9.5363828
363.18	0.1002	277.9174416	9.5363828
368.17	0.1002	279.279782	9.5363828
373.21	0.1002	283.3668032	9.5363828
378.2	0.1002	284.7291436	9.5363828
383.17	0.1002	287.4538244	9.5363828
388.2	0.1002	291.5408456	9.5363828
393.17	0.1002	292.903186	9.5363828
398.2	0.1002	294.2655264	9.5363828
403.19	0.1002	296.9902072	9.5363828
408.16	0.1002	299.714888	9.5363828
413.19	0.1002	301.0772284	9.5363828
418.19	0.1002	303.8019092	9.5363828
313.16	0	249.3082932	8.1740424
318.16	0	252.032974	8.1740424
323.16	0	254.7576548	8.1740424
328.22	0	257.4823356	8.1740424
333.22	0	260.2070164	8.1740424
338.19	0	262.9316972	8.1740424
343.18	0	265.656378	8.1740424
348.15	0	268.3810588	9.5363828
353.18	0	271.1057396	9.5363828
358.15	0	273.8304204	9.5363828
363.18	0	277.9174416	9.5363828
368.17	0	280.6421224	9.5363828
373.21	0	283.3668032	9.5363828
378.2	0	284.7291436	9.5363828
383.17	0	287.4538244	9.5363828
388.2	0	290.1785052	9.5363828
393.17	0	292.903186	9.5363828
398.2	0	295.6278668	9.5363828
403.19	0	299.714888	9.5363828
408.16	0	302.4395688	9.5363828
413.19	0	303.8019092	9.5363828
418.19	0	306.52659	9.5363828
