Measured thermophysical data. Experimental determination of the (vapor + liquid) equilibrium data of binary mixtures of fatty acids by differential scanning calorimetry
Source: J. Chem. Thermodyn., 2010, 10.1016/j.jct.2009.07.008
Compound 1: octadecanoic acid, C18H36O2, InChI=1S/C18H36O2/c1-2-3-4-5-6-7-8-9-10-11-12-13-14-15-16-17-18(19)20/h2-17H2,1H3,(H,19,20)
Compound 2: hexadecanoic acid, C16H32O2, InChI=1S/C16H32O2/c1-2-3-4-5-6-7-8-9-10-11-12-13-14-15-16(17)18/h2-15H2,1H3,(H,17,18)
Compound 3: tetradecanoic acid, C14H28O2, InChI=1S/C14H28O2/c1-2-3-4-5-6-7-8-9-10-11-12-13-14(15)16/h2-13H2,1H3,(H,15,16)

System: hexadecanoic acid + tetradecanoic acid; phases: Liquid, Gas
Fixed: Pressure, kPa = 6.666
Property: Boiling temperature at pressure P, K (Liquid); method: DSC
Mole fraction of tetradecanoic acid	Boiling temperature at pressure P, K	uncertainty
0	523.71	1.08
0.1002	521.35	1.08
0.1997	518.39	1.08
0.3002	516.65	1.08
0.4002	513.9	1.08
0.5002	511.93	1.08
0.6002	509.46	1.08
0.6999	508.21	1.08
0.8	505.9	1.08
0.8999	505.06	1.08
1	503.4	1.08

System: hexadecanoic acid + tetradecanoic acid; phases: Gas, Liquid
Fixed: Pressure, kPa = 6.666
Property: Mole fraction of tetradecanoic acid (Gas); method: Synthetic method
Mole fraction of tetradecanoic acid	Mole fraction of tetradecanoic acid	uncertainty
0	0	
0.1002	0.1839	0.0011
0.1997	0.3358	0.0041
0.3002	0.4647	0.0096
0.4002	0.5822	0.0126
0.5002	0.6873	0.0125
0.6002	0.7741	0.0111
0.6999	0.8413	0.009
0.8	0.8968	0.0066
0.8999	0.9495	0.0036
1	1	

System: octadecanoic acid + tetradecanoic acid; phases: Liquid, Gas
Fixed: Pressure, kPa = 6.666
Property: Boiling temperature at pressure P, K (Liquid); method: DSC
Mole fraction of tetradecanoic acid	Boiling temperature at pressure P, K	uncertainty
0	545.63	1.08
0.1002	542.15	1.08
0.1998	538.57	1.08
0.2999	533.72	1.08
0.3998	526.43	1.08
0.4998	522.34	1.08
0.5998	518.19	1.08
0.7002	511.62	1.08
0.7996	507.99	1.08
0.9	506.29	1.08
1	503.4	1.08

System: octadecanoic acid + tetradecanoic acid; phases: Gas, Liquid
Fixed: Pressure, kPa = 6.666
Property: Mole fraction of tetradecanoic acid (Gas); method: Synthetic method
Mole fraction of tetradecanoic acid	Mole fraction of tetradecanoic acid	uncertainty
0	0	
0.1002	0.1884	0.001
0.1998	0.3778	0.0023
0.2999	0.5803	0.0038
0.3998	0.7317	0.0031
0.4998	0.828	0.0022
0.5998	0.8947	0.0015
0.7002	0.9437	0.0009
0.7996	0.9735	0.0006
0.9	0.9888	0.0004
1	1	

System: hexadecanoic acid + octadecanoic acid; phases: Liquid, Gas
Fixed: Pressure, kPa = 6.666
Property: Boiling temperature at pressure P, K (Liquid); method: DSC
Mole fraction of hexadecanoic acid	Boiling temperature at pressure P, K	uncertainty
0	545.63	1.08
0.1002	542.9	1.08
0.2001	541.34	1.08
0.3001	539.06	1.08
0.4001	536.68	1.08
0.5001	533.77	1.08
0.5998	532.16	1.08
0.7999	528.09	1.08
0.9	525.91	1.08
1	523.71	1.08

System: hexadecanoic acid + octadecanoic acid; phases: Gas, Liquid
Fixed: Pressure, kPa = 6.666
Property: Mole fraction of hexadecanoic acid (Gas); method: Synthetic method
Mole fraction of hexadecanoic acid	Mole fraction of hexadecanoic acid	uncertainty
0	0	
0.1002	0.1601	0.0008
0.2001	0.2869	0.0014
0.3001	0.4394	0.003
0.4001	0.58	0.0038
0.5001	0.6858	0.0034
0.5998	0.7642	0.0028
0.7999	0.9016	0.0014
0.9	0.9607	0.0007
1	1	
