Measured thermophysical data. Densities and viscosities for ionic liquids mixtures containing [eOHmim][BF4], [bmim][BF4] and [bpy][BF4]
Source: J. Chem. Thermodyn., 2014, 10.1016/j.jct.2014.05.016
Compound 1: 1-(2-hydroxyethyl)-3-methylimidazolium tetrafluoroborate, C6H11BF4N2O, InChI=1S/C6H11N2O.BF4/c1-7-2-3-8(6-7)4-5-9;2-1(3,4)5/h2-3,6,9H,4-5H2,1H3;/q+1;-1
Compound 2: 1-butyl-3-methylimidazolium tetrafluoroborate, C8H15BF4N2, InChI=1S/C8H15N2.BF4/c1-3-4-5-10-7-6-9(2)8-10;2-1(3,4)5/h6-8H,3-5H2,1-2H3;/q+1;-1
Compound 3: 1-butylpyridinium tetrafluoroborate, C9H14BF4N, InChI=1S/C9H14N.BF4/c1-2-3-7-10-8-5-4-6-9-10;2-1(3,4)5/h4-6,8-9H,2-3,7H2,1H3;/q+1;-1

System: 1-(2-hydroxyethyl)-3-methylimidazolium tetrafluoroborate; phases: Liquid
Fixed: Pressure, kPa = 100
Property: Mass density, kg/m3 (Liquid); method: Vibrating tube method
Temperature, K	Mass density, kg/m3	uncertainty
293.15	1362.4	1.1
298.15	1358.7	1.1
303.15	1354.8	1.1
308.15	1351.2	1.1
313.15	1347.4	1.1
318.15	1343.7	1.1
323.15	1340.1	1.1
328.15	1336.4	1.1
333.15	1332.8	1.1
338.15	1329.2	1.1
343.15	1325.5	1.1

System: 1-(2-hydroxyethyl)-3-methylimidazolium tetrafluoroborate; phases: Liquid
Fixed: Pressure, kPa = 100
Property: Viscosity, Pa*s (Liquid); method: Concentric cylinders viscometry
Temperature, K	Viscosity, Pa*s	uncertainty
293.15	0.1536	0.0125
298.15	0.1151	0.0093
303.15	0.08798	0.00708
308.15	0.06859	0.00551
313.15	0.05481	0.00439
318.15	0.04444	0.00357
323.15	0.0365	0.00293
328.15	0.03046	0.00244
333.15	0.02573	0.00206
338.15	0.02198	0.00176
343.15	0.01895	0.00152

System: 1-butyl-3-methylimidazolium tetrafluoroborate; phases: Liquid
Fixed: Pressure, kPa = 100
Property: Mass density, kg/m3 (Liquid); method: Vibrating tube method
Temperature, K	Mass density, kg/m3	uncertainty
293.15	1204	1.1
298.15	1200.5	1.1
303.15	1197	1.1
308.15	1193.4	1.1
313.15	1189.9	1.1
318.15	1186.3	1.1
323.15	1182.8	1.1
328.15	1179.3	1.1
333.15	1175.8	1.1
338.15	1172.3	1.1
343.15	1168.9	1.1

System: 1-butyl-3-methylimidazolium tetrafluoroborate; phases: Liquid
Fixed: Pressure, kPa = 100
Property: Viscosity, Pa*s (Liquid); method: Concentric cylinders viscometry
Temperature, K	Viscosity, Pa*s	uncertainty
293.15	0.1411	0.0115
298.15	0.1075	0.0087
303.15	0.08348	0.00671
308.15	0.06597	0.00529
313.15	0.053	0.00425
318.15	0.04321	0.00347
323.15	0.0357	0.00286
328.15	0.02986	0.0024
333.15	0.02526	0.00203
338.15	0.02159	0.00173
343.15	0.01862	0.00149

System: 1-butylpyridinium tetrafluoroborate; phases: Liquid
Fixed: Pressure, kPa = 100
Property: Mass density, kg/m3 (Liquid); method: Vibrating tube method
Temperature, K	Mass density, kg/m3	uncertainty
293.15	1216.6	1.1
298.15	1213.1	1.1
303.15	1209.6	1.1
308.15	1206.2	1.1
313.15	1202.8	1.1
318.15	1199.4	1.1
323.15	1196	1.1
328.15	1192.6	1.1
333.15	1189.2	1.1
338.15	1185.8	1.1
343.15	1182.5	1.1

System: 1-butylpyridinium tetrafluoroborate; phases: Liquid
Fixed: Pressure, kPa = 100
Property: Viscosity, Pa*s (Liquid); method: Concentric cylinders viscometry
Temperature, K	Viscosity, Pa*s	uncertainty
293.15	0.2289	0.0189
298.15	0.1669	0.0136
303.15	0.1245	0.0101
308.15	0.09497	0.00765
313.15	0.07394	0.00594
318.15	0.05864	0.0047
323.15	0.04729	0.00379
328.15	0.03871	0.00311
333.15	0.03212	0.00258
338.15	0.02698	0.00216
343.15	0.02297	0.00184

System: 1-butyl-3-methylimidazolium tetrafluoroborate + 1-(2-hydroxyethyl)-3-methylimidazolium tetrafluoroborate; phases: Liquid
Fixed: Pressure, kPa = 100
Property: Mass density, kg/m3 (Liquid); method: Vibrating tube method
Temperature, K	Mole fraction of 1-(2-hydroxyethyl)-3-methylimidazolium tetrafluoroborate	Mass density, kg/m3	uncertainty
293.15	0	1204	1.1
293.15	0.101	1217.5	1.1
293.15	0.201	1230.9	1.1
293.15	0.3002	1245.7	1.1
293.15	0.4006	1261.4	1.1
293.15	0.5009	1276.1	1.1
293.15	0.5991	1292.3	1.1
293.15	0.7001	1310.8	1.1
293.15	0.8	1326.3	1.1
293.15	0.8995	1344.4	1.1
293.15	1	1362.4	1.1
298.15	0	1200.5	1.1
298.15	0.101	1214	1.1
298.15	0.201	1227.4	1.1
298.15	0.3002	1242	1.1
298.15	0.4006	1257.9	1.1
298.15	0.5009	1272.5	1.1
298.15	0.5991	1288.6	1.1
298.15	0.7001	1307.6	1.1
298.15	0.8	1322.5	1.1
298.15	0.8995	1340.6	1.1
298.15	1	1358.7	1.1
303.15	0	1197	1.1
303.15	0.101	1210.4	1.1
303.15	0.201	1223.9	1.1
303.15	0.3002	1238.5	1.1
303.15	0.4006	1254.3	1.1
303.15	0.5009	1268.9	1.1
303.15	0.5991	1284.9	1.1
303.15	0.7001	1304.2	1.1
303.15	0.8	1318.9	1.1
303.15	0.8995	1336.9	1.1
303.15	1	1354.8	1.1
308.15	0	1193.4	1.1
308.15	0.101	1206.9	1.1
308.15	0.201	1220.5	1.1
308.15	0.3002	1234.9	1.1
308.15	0.4006	1250.7	1.1
308.15	0.5009	1265.2	1.1
308.15	0.5991	1281.3	1.1
308.15	0.7001	1300.8	1.1
308.15	0.8	1315.2	1.1
308.15	0.8995	1333.1	1.1
308.15	1	1351.2	1.1
313.15	0	1189.9	1.1
313.15	0.101	1203.3	1.1
313.15	0.201	1216.9	1.1
313.15	0.3002	1231.3	1.1
313.15	0.4006	1247.1	1.1
313.15	0.5009	1261.6	1.1
313.15	0.5991	1277.7	1.1
313.15	0.7001	1297.3	1.1
313.15	0.8	1311.5	1.1
313.15	0.8995	1329.4	1.1
313.15	1	1347.4	1.1
318.15	0	1186.3	1.1
318.15	0.101	1199.8	1.1
318.15	0.201	1213.5	1.1
318.15	0.3002	1227.8	1.1
318.15	0.4006	1243.6	1.1
318.15	0.5009	1258.1	1.1
318.15	0.5991	1274.1	1.1
318.15	0.7001	1293.8	1.1
318.15	0.8	1307.8	1.1
318.15	0.8995	1325.7	1.1
318.15	1	1343.7	1.1
323.15	0	1182.8	1.1
323.15	0.101	1196.3	1.1
323.15	0.201	1209.9	1.1
323.15	0.3002	1224.2	1.1
323.15	0.4006	1240	1.1
323.15	0.5009	1254.5	1.1
323.15	0.5991	1270.4	1.1
323.15	0.7001	1290.3	1.1
323.15	0.8	1304.1	1.1
323.15	0.8995	1322	1.1
323.15	1	1340.1	1.1
328.15	0	1179.3	1.1
328.15	0.101	1192.8	1.1
328.15	0.201	1206.5	1.1
328.15	0.3002	1220.7	1.1
328.15	0.4006	1236.4	1.1
328.15	0.5009	1250.9	1.1
328.15	0.5991	1266.8	1.1
328.15	0.7001	1286.7	1.1
328.15	0.8	1300.5	1.1
328.15	0.8995	1318.3	1.1
328.15	1	1336.4	1.1
333.15	0	1175.8	1.1
333.15	0.101	1189.3	1.1
333.15	0.201	1203	1.1
333.15	0.3002	1217.2	1.1
333.15	0.4006	1232.9	1.1
333.15	0.5009	1247.6	1.1
333.15	0.5991	1263.2	1.1
333.15	0.7001	1283.1	1.1
333.15	0.8	1296.8	1.1
333.15	0.8995	1314.7	1.1
333.15	1	1332.8	1.1
338.15	0	1172.3	1.1
338.15	0.101	1185.9	1.1
338.15	0.201	1199.5	1.1
338.15	0.3002	1213.7	1.1
338.15	0.4006	1229.4	1.1
338.15	0.5009	1244.1	1.1
338.15	0.5991	1259.7	1.1
338.15	0.7001	1279.5	1.1
338.15	0.8	1293.2	1.1
338.15	0.8995	1311.1	1.1
338.15	1	1329.2	1.1
343.15	0	1168.9	1.1
343.15	0.101	1182.4	1.1
343.15	0.201	1196	1.1
343.15	0.3002	1210.3	1.1
343.15	0.4006	1225.9	1.1
343.15	0.5009	1240.6	1.1
343.15	0.5991	1256.2	1.1
343.15	0.7001	1276	1.1
343.15	0.8	1289.7	1.1
343.15	0.8995	1307.5	1.1
343.15	1	1325.5	1.1

System: 1-butyl-3-methylimidazolium tetrafluoroborate + 1-(2-hydroxyethyl)-3-methylimidazolium tetrafluoroborate; phases: Liquid
Fixed: Pressure, kPa = 100
Property: Viscosity, Pa*s (Liquid); method: Concentric cylinders viscometry
Temperature, K	Mole fraction of 1-(2-hydroxyethyl)-3-methylimidazolium tetrafluoroborate	Viscosity, Pa*s	uncertainty
293.15	0	0.1411	0.0115
293.15	0.1003	0.1415	0.0115
293.15	0.2001	0.1381	0.0112
293.15	0.2997	0.1396	0.0113
293.15	0.3999	0.1406	0.0114
293.15	0.4996	0.1387	0.0113
293.15	0.5991	0.1431	0.0116
293.15	0.6997	0.1447	0.0118
293.15	0.7999	0.1471	0.012
293.15	0.8998	0.1523	0.0124
293.15	1	0.1536	0.0125
298.15	0	0.1075	0.0087
298.15	0.1003	0.1078	0.0087
298.15	0.2001	0.1053	0.0085
298.15	0.2997	0.1066	0.0086
298.15	0.3999	0.1074	0.0087
298.15	0.4996	0.1054	0.0085
298.15	0.5991	0.1083	0.0087
298.15	0.6997	0.1093	0.0088
298.15	0.7999	0.1114	0.009
298.15	0.8998	0.1141	0.0092
298.15	1	0.1151	0.0093
303.15	0	0.08348	0.00671
303.15	0.1003	0.08364	0.00673
303.15	0.2001	0.08183	0.00658
303.15	0.2997	0.08264	0.00665
303.15	0.3999	0.0832	0.00669
303.15	0.4996	0.08176	0.00657
303.15	0.5991	0.08378	0.00674
303.15	0.6997	0.08442	0.00679
303.15	0.7999	0.08538	0.00687
303.15	0.8998	0.08751	0.00704
303.15	1	0.08798	0.00708
308.15	0	0.06597	0.00529
308.15	0.1003	0.0661	0.0053
308.15	0.2001	0.06477	0.0052
308.15	0.2997	0.06541	0.00525
308.15	0.3999	0.06573	0.00527
308.15	0.4996	0.06471	0.00519
308.15	0.5991	0.06604	0.0053
308.15	0.6997	0.06638	0.00533
308.15	0.7999	0.06714	0.00539
308.15	0.8998	0.06851	0.0055
308.15	1	0.06859	0.00551
313.15	0	0.053	0.00425
313.15	0.1003	0.05311	0.00426
313.15	0.2001	0.05217	0.00418
313.15	0.2997	0.05258	0.00422
313.15	0.3999	0.05283	0.00424
313.15	0.4996	0.05196	0.00417
313.15	0.5991	0.05299	0.00425
313.15	0.6997	0.05319	0.00426
313.15	0.7999	0.05369	0.0043
313.15	0.8998	0.05468	0.00438
313.15	1	0.05481	0.00439
318.15	0	0.04321	0.00347
318.15	0.1003	0.04344	0.00348
318.15	0.2001	0.04258	0.00342
318.15	0.2997	0.04292	0.00344
318.15	0.3999	0.04311	0.00346
318.15	0.4996	0.04241	0.0034
318.15	0.5991	0.04322	0.00347
318.15	0.6997	0.04331	0.00347
318.15	0.7999	0.04366	0.0035
318.15	0.8998	0.04439	0.00356
318.15	1	0.04444	0.00357
323.15	0	0.0357	0.00286
323.15	0.1003	0.03584	0.00288
323.15	0.2001	0.03527	0.00283
323.15	0.2997	0.03551	0.00285
323.15	0.3999	0.03568	0.00286
323.15	0.4996	0.03508	0.00281
323.15	0.5991	0.03569	0.00286
323.15	0.6997	0.03578	0.00287
323.15	0.7999	0.03602	0.00289
323.15	0.8998	0.03655	0.00293
323.15	1	0.0365	0.00293
328.15	0	0.02986	0.0024
328.15	0.1003	0.02996	0.0024
328.15	0.2001	0.02952	0.00237
328.15	0.2997	0.02975	0.00239
328.15	0.3999	0.0299	0.0024
328.15	0.4996	0.02942	0.00236
328.15	0.5991	0.02991	0.0024
328.15	0.6997	0.02995	0.0024
328.15	0.7999	0.03013	0.00242
328.15	0.8998	0.03058	0.00245
328.15	1	0.03046	0.00244
333.15	0	0.02526	0.00203
333.15	0.1003	0.02535	0.00203
333.15	0.2001	0.02503	0.00201
333.15	0.2997	0.0252	0.00202
333.15	0.3999	0.02527	0.00203
333.15	0.4996	0.02496	0.002
333.15	0.5991	0.02536	0.00203
333.15	0.6997	0.02541	0.00204
333.15	0.7999	0.02555	0.00205
333.15	0.8998	0.02583	0.00207
333.15	1	0.02573	0.00206
338.15	0	0.02159	0.00173
338.15	0.1003	0.02168	0.00174
338.15	0.2001	0.02142	0.00172
338.15	0.2997	0.02157	0.00173
338.15	0.3999	0.02163	0.00174
338.15	0.4996	0.02139	0.00172
338.15	0.5991	0.02168	0.00174
338.15	0.6997	0.02172	0.00174
338.15	0.7999	0.02181	0.00175
338.15	0.8998	0.02208	0.00177
338.15	1	0.02198	0.00176
343.15	0	0.01862	0.00149
343.15	0.1003	0.01871	0.0015
343.15	0.2001	0.01851	0.00148
343.15	0.2997	0.01864	0.0015
343.15	0.3999	0.01868	0.0015
343.15	0.4996	0.0185	0.00148
343.15	0.5991	0.01874	0.0015
343.15	0.6997	0.01878	0.00151
343.15	0.7999	0.01884	0.00151
343.15	0.8998	0.01906	0.00153
343.15	1	0.01895	0.00152

System: 1-butylpyridinium tetrafluoroborate + 1-(2-hydroxyethyl)-3-methylimidazolium tetrafluoroborate; phases: Liquid
Fixed: Pressure, kPa = 100
Property: Mass density, kg/m3 (Liquid); method: Vibrating tube method
Temperature, K	Mole fraction of 1-(2-hydroxyethyl)-3-methylimidazolium tetrafluoroborate	Mass density, kg/m3	uncertainty
293.15	0	1216.6	1.1
293.15	0.1003	1229	1.1
293.15	0.2004	1242.4	1.1
293.15	0.3003	1255.9	1.1
293.15	0.3999	1269.7	1.1
293.15	0.5007	1284.2	1.1
293.15	0.5991	1298.7	1.1
293.15	0.6954	1313.4	1.1
293.15	0.7997	1329.9	1.1
293.15	0.8996	1346.1	1.1
293.15	1	1362.4	1.1
298.15	0	1213.1	1.1
298.15	0.1003	1225.5	1.1
298.15	0.2004	1238.9	1.1
298.15	0.3003	1252.3	1.1
298.15	0.3999	1266.1	1.1
298.15	0.5007	1280.6	1.1
298.15	0.5991	1295.1	1.1
298.15	0.6954	1309.8	1.1
298.15	0.7997	1326.1	1.1
298.15	0.8996	1342.3	1.1
298.15	1	1358.7	1.1
303.15	0	1209.6	1.1
303.15	0.1003	1222	1.1
303.15	0.2004	1235.4	1.1
303.15	0.3003	1248.8	1.1
303.15	0.3999	1262.5	1.1
303.15	0.5007	1277	1.1
303.15	0.5991	1291.4	1.1
303.15	0.6954	1306.1	1.1
303.15	0.7997	1322.4	1.1
303.15	0.8996	1338.6	1.1
303.15	1	1354.8	1.1
308.15	0	1206.2	1.1
308.15	0.1003	1218.7	1.1
308.15	0.2004	1231.9	1.1
308.15	0.3003	1245.3	1.1
308.15	0.3999	1259	1.1
308.15	0.5007	1273.4	1.1
308.15	0.5991	1287.9	1.1
308.15	0.6954	1302.4	1.1
308.15	0.7997	1318.8	1.1
308.15	0.8996	1334.9	1.1
308.15	1	1351.2	1.1
313.15	0	1202.8	1.1
313.15	0.1003	1215.2	1.1
313.15	0.2004	1228.4	1.1
313.15	0.3003	1241.8	1.1
313.15	0.3999	1255.5	1.1
313.15	0.5007	1269.9	1.1
313.15	0.5991	1284.4	1.1
313.15	0.6954	1298.8	1.1
313.15	0.7997	1315.1	1.1
313.15	0.8996	1331.2	1.1
313.15	1	1347.4	1.1
318.15	0	1199.4	1.1
318.15	0.1003	1211.8	1.1
318.15	0.2004	1225	1.1
318.15	0.3003	1238.3	1.1
318.15	0.3999	1252	1.1
318.15	0.5007	1266.3	1.1
318.15	0.5991	1280.7	1.1
318.15	0.6954	1295.2	1.1
318.15	0.7997	1311.4	1.1
318.15	0.8996	1327.5	1.1
318.15	1	1343.7	1.1
323.15	0	1196	1.1
323.15	0.1003	1208.4	1.1
323.15	0.2004	1221.5	1.1
323.15	0.3003	1234.8	1.1
323.15	0.3999	1248.5	1.1
323.15	0.5007	1262.7	1.1
323.15	0.5991	1277.1	1.1
323.15	0.6954	1291.8	1.1
323.15	0.7997	1307.8	1.1
323.15	0.8996	1323.8	1.1
323.15	1	1340.1	1.1
328.15	0	1192.6	1.1
328.15	0.1003	1205.1	1.1
328.15	0.2004	1218.1	1.1
328.15	0.3003	1231.3	1.1
328.15	0.3999	1245	1.1
328.15	0.5007	1259.2	1.1
328.15	0.5991	1273.5	1.1
328.15	0.6954	1288	1.1
328.15	0.7997	1304.1	1.1
328.15	0.8996	1320.2	1.1
328.15	1	1336.4	1.1
333.15	0	1189.2	1.1
333.15	0.1003	1201.7	1.1
333.15	0.2004	1214.6	1.1
333.15	0.3003	1227.9	1.1
333.15	0.3999	1241.5	1.1
333.15	0.5007	1255.7	1.1
333.15	0.5991	1270	1.1
333.15	0.6954	1284.4	1.1
333.15	0.7997	1300.5	1.1
333.15	0.8996	1316.6	1.1
333.15	1	1332.8	1.1
338.15	0	1185.8	1.1
338.15	0.1003	1198.3	1.1
338.15	0.2004	1211.2	1.1
338.15	0.3003	1224.4	1.1
338.15	0.3999	1238	1.1
338.15	0.5007	1252.2	1.1
338.15	0.5991	1266.5	1.1
338.15	0.6954	1280.9	1.1
338.15	0.7997	1297	1.1
338.15	0.8996	1312.9	1.1
338.15	1	1329.2	1.1
343.15	0	1182.5	1.1
343.15	0.1003	1194.9	1.1
343.15	0.2004	1207.8	1.1
343.15	0.3003	1221	1.1
343.15	0.3999	1234.6	1.1
343.15	0.5007	1248.7	1.1
343.15	0.5991	1263	1.1
343.15	0.6954	1277.3	1.1
343.15	0.7997	1293.4	1.1
343.15	0.8996	1309.3	1.1
343.15	1	1325.5	1.1

System: 1-butylpyridinium tetrafluoroborate + 1-(2-hydroxyethyl)-3-methylimidazolium tetrafluoroborate; phases: Liquid
Fixed: Pressure, kPa = 100
Property: Viscosity, Pa*s (Liquid); method: Concentric cylinders viscometry
Temperature, K	Mole fraction of 1-(2-hydroxyethyl)-3-methylimidazolium tetrafluoroborate	Viscosity, Pa*s	uncertainty
293.15	0	0.2289	0.0189
293.15	0.1003	0.2187	0.018
293.15	0.2001	0.2059	0.0169
293.15	0.2997	0.1939	0.0159
293.15	0.3999	0.1842	0.0151
293.15	0.4996	0.1761	0.0144
293.15	0.5991	0.1695	0.0138
293.15	0.6997	0.1642	0.0134
293.15	0.7999	0.1599	0.013
293.15	0.8998	0.1554	0.0127
293.15	1	0.1536	0.0125
298.15	0	0.1669	0.0136
298.15	0.1003	0.1604	0.0131
298.15	0.2001	0.1515	0.0123
298.15	0.2997	0.1434	0.0117
298.15	0.3999	0.1367	0.0111
298.15	0.4996	0.1311	0.0106
298.15	0.5991	0.1264	0.0102
298.15	0.6997	0.1227	0.0099
298.15	0.7999	0.1195	0.0097
298.15	0.8998	0.116	0.0094
298.15	1	0.1151	0.0093
303.15	0	0.1245	0.0101
303.15	0.1003	0.1203	0.0097
303.15	0.2001	0.1142	0.0092
303.15	0.2997	0.1085	0.0088
303.15	0.3999	0.104	0.0084
303.15	0.4996	0.09988	0.00805
303.15	0.5991	0.09668	0.00779
303.15	0.6997	0.09402	0.00758
303.15	0.7999	0.09138	0.00736
303.15	0.8998	0.08875	0.00714
303.15	1	0.08798	0.00708
308.15	0	0.09497	0.00765
308.15	0.1003	0.09207	0.00742
308.15	0.2001	0.08789	0.00707
308.15	0.2997	0.08389	0.00675
308.15	0.3999	0.08056	0.00648
308.15	0.4996	0.07778	0.00625
308.15	0.5991	0.07521	0.00604
308.15	0.6997	0.07336	0.00589
308.15	0.7999	0.07146	0.00574
308.15	0.8998	0.06932	0.00557
308.15	1	0.06859	0.00551
313.15	0	0.07394	0.00594
313.15	0.1003	0.07196	0.00578
313.15	0.2001	0.06999	0.00562
313.15	0.2997	0.0661	0.0053
313.15	0.3999	0.06368	0.00511
313.15	0.4996	0.06156	0.00494
313.15	0.5991	0.05969	0.00479
313.15	0.6997	0.05834	0.00468
313.15	0.7999	0.0568	0.00455
313.15	0.8998	0.05518	0.00442
313.15	1	0.05481	0.00439
318.15	0	0.05864	0.0047
318.15	0.1003	0.05727	0.00459
318.15	0.2001	0.05512	0.00442
318.15	0.2997	0.05299	0.00425
318.15	0.3999	0.05121	0.00411
318.15	0.4996	0.04963	0.00398
318.15	0.5991	0.04825	0.00387
318.15	0.6997	0.04711	0.00378
318.15	0.7999	0.04599	0.00369
318.15	0.8998	0.04469	0.00359
318.15	1	0.04444	0.00357
323.15	0	0.04729	0.00379
323.15	0.1003	0.04631	0.00372
323.15	0.2001	0.04475	0.00359
323.15	0.2997	0.04316	0.00346
323.15	0.3999	0.04183	0.00336
323.15	0.4996	0.04075	0.00327
323.15	0.5991	0.03957	0.00317
323.15	0.6997	0.03863	0.0031
323.15	0.7999	0.0379	0.00304
323.15	0.8998	0.03675	0.00295
323.15	1	0.0365	0.00293
328.15	0	0.03871	0.00311
328.15	0.1003	0.03801	0.00305
328.15	0.2001	0.03685	0.00296
328.15	0.2997	0.0357	0.00286
328.15	0.3999	0.03464	0.00278
328.15	0.4996	0.03374	0.00271
328.15	0.5991	0.0329	0.00264
328.15	0.6997	0.03219	0.00258
328.15	0.7999	0.03158	0.00253
328.15	0.8998	0.03065	0.00246
328.15	1	0.03046	0.00244
333.15	0	0.03212	0.00258
333.15	0.1003	0.03161	0.00254
333.15	0.2001	0.03075	0.00247
333.15	0.2997	0.02988	0.0024
333.15	0.3999	0.02905	0.00233
333.15	0.4996	0.02835	0.00227
333.15	0.5991	0.0277	0.00222
333.15	0.6997	0.02713	0.00218
333.15	0.7999	0.02661	0.00213
333.15	0.8998	0.02587	0.00208
333.15	1	0.02573	0.00206
338.15	0	0.02698	0.00216
338.15	0.1003	0.0266	0.00213
338.15	0.2001	0.02596	0.00208
338.15	0.2997	0.02528	0.00203
338.15	0.3999	0.02464	0.00198
338.15	0.4996	0.02409	0.00193
338.15	0.5991	0.02358	0.00189
338.15	0.6997	0.02311	0.00185
338.15	0.7999	0.02269	0.00182
338.15	0.8998	0.02208	0.00177
338.15	1	0.02198	0.00176
343.15	0	0.02297	0.00184
343.15	0.1003	0.02264	0.00182
343.15	0.2001	0.02215	0.00178
343.15	0.2997	0.0216	0.00173
343.15	0.3999	0.02112	0.00169
343.15	0.4996	0.02068	0.00166
343.15	0.5991	0.02028	0.00163
343.15	0.6997	0.0199	0.0016
343.15	0.7999	0.01956	0.00157
343.15	0.8998	0.01905	0.00153
343.15	1	0.01895	0.00152

System: 1-butyl-3-methylimidazolium tetrafluoroborate + 1-butylpyridinium tetrafluoroborate; phases: Liquid
Fixed: Pressure, kPa = 100
Property: Mass density, kg/m3 (Liquid); method: Vibrating tube method
Temperature, K	Mole fraction of 1-butyl-3-methylimidazolium tetrafluoroborate	Mass density, kg/m3	uncertainty
293.15	0	1216.6	1.1
293.15	0.1007	1215.4	1.1
293.15	0.2004	1214.3	1.1
293.15	0.3001	1213.1	1.1
293.15	0.4004	1211.7	1.1
293.15	0.5009	1210.6	1.1
293.15	0.6004	1209.4	1.1
293.15	0.7013	1208.1	1.1
293.15	0.8007	1206.7	1.1
293.15	0.8987	1205.5	1.1
293.15	1	1204	1.1
298.15	0	1213.1	1.1
298.15	0.1007	1211.9	1.1
298.15	0.2004	1210.8	1.1
298.15	0.3001	1209.6	1.1
298.15	0.4004	1208.2	1.1
298.15	0.5009	1207.1	1.1
298.15	0.6004	1205.8	1.1
298.15	0.7013	1204.5	1.1
298.15	0.8007	1203.1	1.1
298.15	0.8987	1202	1.1
298.15	1	1200.5	1.1
303.15	0	1209.6	1.1
303.15	0.1007	1208.4	1.1
303.15	0.2004	1207.3	1.1
303.15	0.3001	1206.1	1.1
303.15	0.4004	1204.7	1.1
303.15	0.5009	1203.6	1.1
303.15	0.6004	1202.3	1.1
303.15	0.7013	1201	1.1
303.15	0.8007	1199.6	1.1
303.15	0.8987	1198.4	1.1
303.15	1	1197	1.1
308.15	0	1206.2	1.1
308.15	0.1007	1204.9	1.1
308.15	0.2004	1203.8	1.1
308.15	0.3001	1202.6	1.1
308.15	0.4004	1201.2	1.1
308.15	0.5009	1200.1	1.1
308.15	0.6004	1198.8	1.1
308.15	0.7013	1197.5	1.1
308.15	0.8007	1196.1	1.1
308.15	0.8987	1194.9	1.1
308.15	1	1193.4	1.1
313.15	0	1202.8	1.1
313.15	0.1007	1201.5	1.1
313.15	0.2004	1200.4	1.1
313.15	0.3001	1199.2	1.1
313.15	0.4004	1197.8	1.1
313.15	0.5009	1196.6	1.1
313.15	0.6004	1195.3	1.1
313.15	0.7013	1193.9	1.1
313.15	0.8007	1192.6	1.1
313.15	0.8987	1191.4	1.1
313.15	1	1189.9	1.1
318.15	0	1199.4	1.1
318.15	0.1007	1198.1	1.1
318.15	0.2004	1197	1.1
318.15	0.3001	1195.7	1.1
318.15	0.4004	1194.4	1.1
318.15	0.5009	1193.1	1.1
318.15	0.6004	1191.8	1.1
318.15	0.7013	1190.6	1.1
318.15	0.8007	1189.1	1.1
318.15	0.8987	1187.8	1.1
318.15	1	1186.3	1.1
323.15	0	1196	1.1
323.15	0.1007	1194.7	1.1
323.15	0.2004	1193.5	1.1
323.15	0.3001	1192.3	1.1
323.15	0.4004	1190.9	1.1
323.15	0.5009	1189.6	1.1
323.15	0.6004	1188.3	1.1
323.15	0.7013	1187	1.1
323.15	0.8007	1185.6	1.1
323.15	0.8987	1184.3	1.1
323.15	1	1182.8	1.1
328.15	0	1192.6	1.1
328.15	0.1007	1191.3	1.1
328.15	0.2004	1190.1	1.1
328.15	0.3001	1188.8	1.1
328.15	0.4004	1187.5	1.1
328.15	0.5009	1186.2	1.1
328.15	0.6004	1184.9	1.1
328.15	0.7013	1183.5	1.1
328.15	0.8007	1182.1	1.1
328.15	0.8987	1180.8	1.1
328.15	1	1179.3	1.1
333.15	0	1189.2	1.1
333.15	0.1007	1188	1.1
333.15	0.2004	1186.7	1.1
333.15	0.3001	1185.4	1.1
333.15	0.4004	1184	1.1
333.15	0.5009	1182.7	1.1
333.15	0.6004	1181.4	1.1
333.15	0.7013	1180	1.1
333.15	0.8007	1178.6	1.1
333.15	0.8987	1177.3	1.1
333.15	1	1175.8	1.1
338.15	0	1185.8	1.1
338.15	0.1007	1184.6	1.1
338.15	0.2004	1183.3	1.1
338.15	0.3001	1182	1.1
338.15	0.4004	1180.6	1.1
338.15	0.5009	1179.3	1.1
338.15	0.6004	1178	1.1
338.15	0.7013	1176.6	1.1
338.15	0.8007	1175.2	1.1
338.15	0.8987	1173.9	1.1
338.15	1	1172.3	1.1
343.15	0	1182.5	1.1
343.15	0.1007	1181.2	1.1
343.15	0.2004	1179.9	1.1
343.15	0.3001	1178.6	1.1
343.15	0.4004	1177.3	1.1
343.15	0.5009	1175.9	1.1
343.15	0.6004	1174.5	1.1
343.15	0.7013	1173.2	1.1
343.15	0.8007	1171.8	1.1
343.15	0.8987	1170.4	1.1
343.15	1	1168.9	1.1

System: 1-butyl-3-methylimidazolium tetrafluoroborate + 1-butylpyridinium tetrafluoroborate; phases: Liquid
Fixed: Pressure, kPa = 100
Property: Viscosity, Pa*s (Liquid); method: Concentric cylinders viscometry
Temperature, K	Mole fraction of 1-butyl-3-methylimidazolium tetrafluoroborate	Viscosity, Pa*s	uncertainty
293.15	0	0.2289	0.0189
293.15	0.1009	0.2194	0.018
293.15	0.2005	0.2093	0.0172
293.15	0.3003	0.1995	0.0164
293.15	0.4001	0.19	0.0156
293.15	0.4999	0.1809	0.0148
293.15	0.6007	0.1725	0.0141
293.15	0.7004	0.1639	0.0134
293.15	0.8001	0.1569	0.0128
293.15	0.8998	0.1487	0.0121
293.15	1	0.1411	0.0115
298.15	0	0.1669	0.0136
298.15	0.1009	0.1608	0.0131
298.15	0.2005	0.1537	0.0125
298.15	0.3003	0.1471	0.012
298.15	0.4001	0.1408	0.0114
298.15	0.4999	0.1346	0.0109
298.15	0.6007	0.1288	0.0104
298.15	0.7004	0.1231	0.01
298.15	0.8001	0.1179	0.0095
298.15	0.8998	0.1127	0.0091
298.15	1	0.1075	0.0087
303.15	0	0.1245	0.0101
303.15	0.1009	0.1204	0.0097
303.15	0.2005	0.1156	0.0093
303.15	0.3003	0.1111	0.009
303.15	0.4001	0.1069	0.0086
303.15	0.4999	0.1025	0.0083
303.15	0.6007	0.09869	0.00796
303.15	0.7004	0.09464	0.00763
303.15	0.8001	0.09099	0.00733
303.15	0.8998	0.08726	0.00702
303.15	1	0.08348	0.00671
308.15	0	0.09497	0.00765
308.15	0.1009	0.09211	0.00742
308.15	0.2005	0.08899	0.00716
308.15	0.3003	0.08573	0.0069
308.15	0.4001	0.08259	0.00664
308.15	0.4999	0.07965	0.0064
308.15	0.6007	0.07679	0.00617
308.15	0.7004	0.07392	0.00594
308.15	0.8001	0.0713	0.00573
308.15	0.8998	0.06874	0.00552
308.15	1	0.06597	0.00529
313.15	0	0.07394	0.00594
313.15	0.1009	0.07192	0.00578
313.15	0.2005	0.06959	0.00559
313.15	0.3003	0.0673	0.0054
313.15	0.4001	0.06509	0.00522
313.15	0.4999	0.06292	0.00505
313.15	0.6007	0.061	0.00489
313.15	0.7004	0.05891	0.00472
313.15	0.8001	0.05691	0.00456
313.15	0.8998	0.05499	0.00441
313.15	1	0.053	0.00425
318.15	0	0.05864	0.0047
318.15	0.1009	0.05719	0.00459
318.15	0.2005	0.05549	0.00445
318.15	0.3003	0.05381	0.00431
318.15	0.4001	0.05219	0.00418
318.15	0.4999	0.05059	0.00406
318.15	0.6007	0.04912	0.00394
318.15	0.7004	0.04751	0.00381
318.15	0.8001	0.04614	0.0037
318.15	0.8998	0.04472	0.00359
318.15	1	0.04321	0.00347
323.15	0	0.04729	0.00379
323.15	0.1009	0.04621	0.00371
323.15	0.2005	0.04495	0.00361
323.15	0.3003	0.0437	0.00351
323.15	0.4001	0.04246	0.00341
323.15	0.4999	0.04132	0.00331
323.15	0.6007	0.04018	0.00322
323.15	0.7004	0.03901	0.00313
323.15	0.8001	0.03796	0.00305
323.15	0.8998	0.03687	0.00296
323.15	1	0.0357	0.00286
328.15	0	0.03871	0.00311
328.15	0.1009	0.03789	0.00304
328.15	0.2005	0.03694	0.00296
328.15	0.3003	0.036	0.00289
328.15	0.4001	0.03504	0.00281
328.15	0.4999	0.03416	0.00274
328.15	0.6007	0.03329	0.00267
328.15	0.7004	0.03242	0.0026
328.15	0.8001	0.0316	0.00254
328.15	0.8998	0.03076	0.00247
328.15	1	0.02986	0.0024
333.15	0	0.03212	0.00258
333.15	0.1009	0.03148	0.00253
333.15	0.2005	0.03081	0.00247
333.15	0.3003	0.03005	0.00241
333.15	0.4001	0.0293	0.00235
333.15	0.4999	0.02866	0.0023
333.15	0.6007	0.02794	0.00224
333.15	0.7004	0.02727	0.00219
333.15	0.8001	0.02668	0.00214
333.15	0.8998	0.02605	0.00209
333.15	1	0.02526	0.00203
338.15	0	0.02698	0.00216
338.15	0.1009	0.02647	0.00212
338.15	0.2005	0.02593	0.00208
338.15	0.3003	0.02537	0.00204
338.15	0.4001	0.02483	0.00199
338.15	0.4999	0.02425	0.00195
338.15	0.6007	0.0237	0.0019
338.15	0.7004	0.02318	0.00186
338.15	0.8001	0.02268	0.00182
338.15	0.8998	0.02223	0.00178
338.15	1	0.02159	0.00173
343.15	0	0.02297	0.00184
343.15	0.1009	0.02254	0.00181
343.15	0.2005	0.02207	0.00177
343.15	0.3003	0.02164	0.00174
343.15	0.4001	0.02116	0.0017
343.15	0.4999	0.02075	0.00166
343.15	0.6007	0.02032	0.00163
343.15	0.7004	0.0199	0.0016
343.15	0.8001	0.01949	0.00156
343.15	0.8998	0.01909	0.00153
343.15	1	0.01862	0.00149
