Measured thermophysical data. Thermodynamic aspects of solubility, solvation and partitioning processes of some sulfonamides
Source: J. Chem. Thermodyn., 2011, 10.1016/j.jct.2010.12.007
Compound 1: N-(4-nitrophenyl)benzenesulfonamide, C12H10N2O4S, InChI=1S/C12H10N2O4S/c15-14(16)11-8-6-10(7-9-11)13-19(17,18)12-4-2-1-3-5-12/h1-9,13H
Compound 2: 4-amino-N-(4-nitrophenyl)benzenesulfonamide, C12H11N3O4S, InChI=1S/C12H11N3O4S/c13-9-1-7-12(8-2-9)20(18,19)14-10-3-5-11(6-4-10)15(16)17/h1-8,14H,13H2
Compound 3: 4-amino-N-(4-cyanophenyl)benzenesulfonamide, C13H11N3O2S, InChI=1S/C13H11N3O2S/c14-9-10-1-5-12(6-2-10)16-19(17,18)13-7-3-11(15)4-8-13/h1-8,16H,15H2
Compound 4: octan-1-ol, C8H18O, InChI=1S/C8H18O/c1-2-3-4-5-6-7-8-9/h9H,2-8H2,1H3, purity 99%
Compound 5: water, H2O, InChI=1S/H2O/h1H2

System: N-(4-nitrophenyl)benzenesulfonamide; phases: Crystal, Liquid, Air at 1 atmosphere
Property: Normal melting temperature, K (Crystal); method: DTA
Normal melting temperature, K	uncertainty
411.3	0.5

System: N-(4-nitrophenyl)benzenesulfonamide; phases: Crystal, Liquid, Air at 1 atmosphere
Property: Molar enthalpy of transition or fusion, kJ/mol (Crystal); method: DSC
Molar enthalpy of transition or fusion, kJ/mol	uncertainty
28.7	1.2

System: N-(4-nitrophenyl)benzenesulfonamide; phases: Crystal, Gas
Property: Vapor or sublimation pressure, kPa (Crystal); method: Transpiration method
Temperature, K	Vapor or sublimation pressure, kPa	uncertainty
380.15	9.47e-06	1.94e-06
384.15	1.55e-05	3.2e-06
385.15	1.72e-05	3.5e-06
387.15	2.09e-05	4.3e-06
390.15	2.84e-05	5.8e-06
391.15	3.17e-05	6.5e-06
392.15	3.47e-05	7.1e-06
393.15	3.88e-05	7.9e-06
394.15	4.04e-05	8.2e-06
395.15	4.64e-05	9.4e-06
396.65	5.13e-05	1.04e-05
401.15	8.37e-05	1.7e-05
401.65	8.63e-05	1.75e-05

System: 4-amino-N-(4-nitrophenyl)benzenesulfonamide; phases: Crystal, Liquid, Air at 1 atmosphere
Property: Normal melting temperature, K (Crystal); method: DTA
Normal melting temperature, K	uncertainty
438.9	0.5

System: 4-amino-N-(4-nitrophenyl)benzenesulfonamide; phases: Crystal, Liquid, Air at 1 atmosphere
Property: Molar enthalpy of transition or fusion, kJ/mol (Crystal); method: DSC
Molar enthalpy of transition or fusion, kJ/mol	uncertainty
27.9	1.2

System: 4-amino-N-(4-nitrophenyl)benzenesulfonamide; phases: Crystal, Gas
Property: Vapor or sublimation pressure, kPa (Crystal); method: Transpiration method
Temperature, K	Vapor or sublimation pressure, kPa	uncertainty
405.55	1.5e-06	3.2e-07
409.45	2.18e-06	4.6e-07
412.85	2.3e-06	4.8e-07
415.15	3.41e-06	7.1e-07
417.25	4.01e-06	8.3e-07
418.75	4.34e-06	9e-07
420.05	5.46e-06	1.12e-06
421.55	5.63e-06	1.16e-06
423.25	6.16e-06	1.27e-06
424.65	7.3e-06	1.5e-06
426.25	8.92e-06	1.83e-06
428.75	1.05e-05	2.1e-06
431.35	1.28e-05	2.6e-06
432.05	1.41e-05	2.9e-06
435.15	1.81e-05	3.7e-06
438.25	2.28e-05	4.6e-06

System: 4-amino-N-(4-cyanophenyl)benzenesulfonamide; phases: Crystal, Liquid, Air at 1 atmosphere
Property: Normal melting temperature, K (Crystal); method: DTA
Normal melting temperature, K	uncertainty
451.5	0.5

System: 4-amino-N-(4-cyanophenyl)benzenesulfonamide; phases: Crystal, Liquid, Air at 1 atmosphere
Property: Molar enthalpy of transition or fusion, kJ/mol (Crystal); method: DSC
Molar enthalpy of transition or fusion, kJ/mol	uncertainty
30.9	1.2

System: 4-amino-N-(4-cyanophenyl)benzenesulfonamide; phases: Crystal, Gas
Property: Vapor or sublimation pressure, kPa (Crystal); method: Transpiration method
Temperature, K	Vapor or sublimation pressure, kPa	uncertainty
420.15	6.74e-06	1.38e-06
420.95	7.23e-06	1.48e-06
421.35	7.91e-06	1.62e-06
424.75	1.13e-05	2.3e-06
426.55	1.36e-05	2.8e-06
428.35	1.66e-05	3.4e-06
429.65	1.94e-05	4e-06
431.35	2.11e-05	4.3e-06
431.75	2.28e-05	4.6e-06
432.35	2.33e-05	4.7e-06
433.05	2.63e-05	5.4e-06
434.75	3.17e-05	6.5e-06
435.75	3.58e-05	7.3e-06
437.15	4.24e-05	8.6e-06
437.55	4.37e-05	8.9e-06

System: N-(4-nitrophenyl)benzenesulfonamide + water; phases: Liquid, Crystal
Fixed: Pressure, kPa = 101
Property: Mole fraction of N-(4-nitrophenyl)benzenesulfonamide (Liquid); method: Spectrophotometry
Temperature, K	Mole fraction of N-(4-nitrophenyl)benzenesulfonamide	uncertainty
293.15	1.45e-06	1.5e-07
298.15	1.85e-06	1.9e-07
303.15	2.32e-06	2.3e-07
310.15	3.19e-06	3.2e-07
315.15	3.71e-06	3.7e-07

System: octan-1-ol + N-(4-nitrophenyl)benzenesulfonamide; phases: Liquid, Crystal
Fixed: Pressure, kPa = 101
Property: Mole fraction of N-(4-nitrophenyl)benzenesulfonamide (Liquid); method: Spectrophotometry
Temperature, K	Mole fraction of N-(4-nitrophenyl)benzenesulfonamide	uncertainty
293.15	0.00958	0.00096
298.15	0.0116	0.0012
303.15	0.0139	0.0014
310.15	0.018	0.0018
315.15	0.0222	0.0022

System: 4-amino-N-(4-nitrophenyl)benzenesulfonamide + water; phases: Liquid, Crystal
Fixed: Pressure, kPa = 101
Property: Mole fraction of 4-amino-N-(4-nitrophenyl)benzenesulfonamide (Liquid); method: Spectrophotometry
Temperature, K	Mole fraction of 4-amino-N-(4-nitrophenyl)benzenesulfonamide	uncertainty
293.15	2.72e-06	2.7e-07
298.15	3.64e-06	3.7e-07
303.15	4.88e-06	4.9e-07
310.15	7.63e-06	7.7e-07
315.15	8.29e-06	8.3e-07

System: octan-1-ol + 4-amino-N-(4-nitrophenyl)benzenesulfonamide; phases: Liquid, Crystal
Fixed: Pressure, kPa = 101
Property: Mole fraction of 4-amino-N-(4-nitrophenyl)benzenesulfonamide (Liquid); method: Spectrophotometry
Temperature, K	Mole fraction of 4-amino-N-(4-nitrophenyl)benzenesulfonamide	uncertainty
293.15	0.0026	0.00026
298.15	0.003	0.0003
303.15	0.00361	0.00036
310.15	0.00465	0.00047
315.15	0.00562	0.00056

System: water + 4-amino-N-(4-cyanophenyl)benzenesulfonamide; phases: Liquid, Crystal
Fixed: Pressure, kPa = 101
Property: Mole fraction of 4-amino-N-(4-cyanophenyl)benzenesulfonamide (Liquid); method: Spectrophotometry
Temperature, K	Mole fraction of 4-amino-N-(4-cyanophenyl)benzenesulfonamide	uncertainty
293.15	4.11e-06	4.1e-07
298.15	5.47e-06	5.5e-07
303.15	7.58e-06	7.7e-07
310.15	1.16e-05	1.2e-06
315.15	1.45e-05	1.5e-06

System: octan-1-ol + 4-amino-N-(4-cyanophenyl)benzenesulfonamide; phases: Liquid, Crystal
Fixed: Pressure, kPa = 101
Property: Mole fraction of 4-amino-N-(4-cyanophenyl)benzenesulfonamide (Liquid); method: Spectrophotometry
Temperature, K	Mole fraction of 4-amino-N-(4-cyanophenyl)benzenesulfonamide	uncertainty
293.15	0.00112	0.00011
298.15	0.00129	0.00013
303.15	0.00158	0.00016
310.15	0.00197	0.0002
315.15	0.00234	0.00023
