Measured thermophysical data. Apparent molar volumes and apparent molar heat capacities of aqueous lead nitrate at temperatures from 278.15 K to 393.15 K and at the pressure 0.35 MPa
Source: J. Chem. Thermodyn., 2004, 10.1016/j.jct.2003.09.013
Compound 1: water, H2O, InChI=1S/H2O/h1H2
Compound 2: lead(II) nitrate, N2O6Pb, InChI=1S/2NO3.Pb/c2*2-1(3)4;/q2*-1;+2
Compound 3: nitric acid, HNO3, InChI=1S/HNO3/c2-1(3)4/h(H,2,3,4)

System: water + lead(II) nitrate; phases: Liquid
Fixed: Pressure, kPa = 350
Property: Apparent molar heat capacity, J/K/mol (Liquid); method: Extra sensitive DSC
Temperature, K	Molality, mol/kg of lead(II) nitrate	Apparent molar heat capacity, J/K/mol	uncertainty
278.15	0.01983	-224	50
278.15	0.02999	-217	33
278.15	0.04862	-200.9	20
278.15	0.10042	-158.3	9.5
278.15	0.24349	-81.8	3.9
278.15	0.39202	-32.2	2.5
278.15	0.48853	-8	2
283.15	0.01983	-186	50
283.15	0.02999	-181	33
283.15	0.04862	-168	20.1
283.15	0.10042	-131.4	9.6
283.15	0.24349	-63.3	3.9
283.15	0.39202	-17.9	2.5
283.15	0.48853	4.5	2.1
288.15	0.01983	-158	50
288.15	0.02999	-155	33
288.15	0.04862	-144	20.1
288.15	0.10042	-112	9.6
288.15	0.24349	-50.6	4
288.15	0.39202	-8.3	2.5
288.15	0.48853	12.8	2.1
293.15	0.01983	-137	50
293.15	0.02999	-135	33
293.15	0.04862	-125.9	20.2
293.15	0.10042	-97.4	9.7
293.15	0.24349	-41.1	4
293.15	0.39202	-1.5	2.6
293.15	0.48853	18.6	2.1
298.15	0.01983	-122	50
298.15	0.02999	-120	33
298.15	0.04862	-112.4	20.2
298.15	0.10042	-86.5	9.7
298.15	0.24349	-34.4	4
298.15	0.39202	2.9	2.6
298.15	0.48853	22.3	2.1
303.15	0.01983	-109	50
303.15	0.02999	-108	33
303.15	0.04862	-101.9	20.3
303.15	0.10042	-78.2	9.7
303.15	0.24349	-29.5	4
303.15	0.39202	6	2.6
303.15	0.48853	24.9	2.1
308.15	0.01983	-100	50
308.15	0.02999	-100	33
308.15	0.04862	-101.9	20.3
308.15	0.10042	-71.9	9.8
308.15	0.24349	-26	4
308.15	0.39202	8.2	2.6
308.15	0.48853	26.6	2.1
313.15	0.01983	-92	50
313.15	0.02999	-93	33
313.15	0.04862	-87.6	20.3
313.15	0.10042	-67	9.8
313.15	0.24349	-23.5	4
313.15	0.39202	9.6	2.6
313.15	0.48853	27.7	2.1
318.15	0.01983	-87	50
318.15	0.02999	-88	33
318.15	0.04862	-83.3	20.3
318.15	0.10042	-64	9.8
318.15	0.24349	-22.1	4.1
318.15	0.39202	10.3	2.6
318.15	0.48853	27.8	2.1
323.15	0.01983	-84	50
323.15	0.02999	-84	33
323.15	0.04862	-79.8	20.3
323.15	0.10042	-61.5	9.8
323.15	0.24349	-21.2	4.1
323.15	0.39202	10.5	2.6
323.15	0.48853	27.8	2.1
328.15	0.01983	-81	50
328.15	0.02999	-82	33
328.15	0.04862	-78	20.3
328.15	0.10042	-60.2	9.8
328.15	0.24349	-20.9	4.1
328.15	0.39202	10.3	2.6
328.15	0.48853	27.3	2.1
333.15	0.01983	-79	50
333.15	0.02999	-80	33
333.15	0.04862	-76.5	20.3
333.15	0.10042	-59.3	9.8
333.15	0.24349	-20.8	4.1
333.15	0.39202	10	2.6
333.15	0.48853	26.8	2.1
338.15	0.01983	-78	50
338.15	0.02999	-80	33
338.15	0.04862	-76.3	20.3
338.15	0.10042	-59.2	9.8
338.15	0.24349	-20.8	4.1
338.15	0.39202	9.1	2.6
338.15	0.48853	25.9	2.1
343.15	0.01983	-79	50
343.15	0.02999	-80	33
343.15	0.04862	-76.8	20.3
343.15	0.10042	-59.7	9.8
343.15	0.24349	-22.2	4.1
343.15	0.39202	8	2.6
343.15	0.48853	24.7	2.1
348.15	0.01983	-80	50
348.15	0.02999	-81	33
348.15	0.04862	-77.8	20.3
348.15	0.10042	-60.7	9.8
348.15	0.24349	-23.4	4
348.15	0.39202	6.7	2.6
348.15	0.48853	23.3	2.1
353.15	0.01983	-81	50
353.15	0.02999	-82	33
353.15	0.04862	-78.9	20.3
353.15	0.10042	-62	9.8
353.15	0.24349	-24.7	4
353.15	0.39202	5.2	2.6
353.15	0.48853	22	2.1
358.15	0.01983	-82	50
358.15	0.02999	-84	33
358.15	0.04862	-80.7	20.3
358.15	0.10042	-63.7	9.8
358.15	0.24349	-26.2	4
358.15	0.39202	3.8	2.6
358.15	0.48853	20.5	2.1
363.15	0.01983	-85	50
363.15	0.02999	-87	33
363.15	0.04862	-83.1	20.3
363.15	0.10042	-65.8	9.8
363.15	0.24349	-28.1	4
363.15	0.39202	2.1	2.6
363.15	0.48853	18.8	2.1
368.15	0.01983	-89	50
368.15	0.02999	-90	33
368.15	0.04862	-86.1	20.3
368.15	0.10042	-68.4	9.8
368.15	0.24349	-30.3	4
368.15	0.39202	0	2.6
368.15	0.48853	16.9	2.1
373.15	0.01983	-93	50
373.15	0.02999	-94	33
373.15	0.04862	-89.3	20.3
373.15	0.10042	-71.2	9.8
373.15	0.24349	-32.7	4
373.15	0.39202	-2.1	2.6
373.15	0.48853	14.8	2.1
378.15	0.01983	-97	50
378.15	0.02999	-99	33
378.15	0.04862	-94	20
378.15	0.10042	-74.7	9.7
378.15	0.24349	-35.6	4
378.15	0.39202	-4.7	2.5
378.15	0.48853	12.1	2.1
383.15	0.01983	-102	50
383.15	0.02999	-103	33
383.15	0.04862	-98	20
383.15	0.10042	-78.3	9.7
383.15	0.24349	-38.4	4
383.15	0.39202	-7.1	2.5
383.15	0.48853	9.5	2.1
388.15	0.01983	-108	50
388.15	0.02999	-108	33
388.15	0.04862	-102	20
388.15	0.10042	-82.4	9.7
388.15	0.24349	-41.5	4
388.15	0.39202	-9.7	2.5
388.15	0.48853	6.8	2.1
393.15	0.01983	-115	50
393.15	0.02999	-114	33
393.15	0.04862	-107	20
393.15	0.10042	-87.2	9.7
393.15	0.24349	-44.9	4
393.15	0.39202	-12.8	2.5
393.15	0.48853	3.2	2.1

System: water + lead(II) nitrate; phases: Liquid
Fixed: Pressure, kPa = 350
Property: Apparent molar volume, m3/mol (Liquid); method: SAME:UFactor:16
Temperature, K	Molality, mol/kg of lead(II) nitrate	Apparent molar volume, m3/mol	uncertainty
278.15	0.01959	3.11e-05	7.8e-06
278.15	0.01983	3.8e-05	9e-06
278.15	0.02999	3.7e-05	6e-06
278.15	0.04862	3.8e-05	4e-06
278.15	0.05035	3.73e-05	3.7e-06
278.15	0.10042	4.01e-05	2e-06
278.15	0.24349	3.781e-05	8.2e-07
278.15	0.39202	3.95e-05	5.6e-07
278.15	0.48853	4.08e-05	4.7e-07
278.15	0.02999	3.36e-05	5.5e-06
278.15	0.10042	3.52e-05	1.8e-06
283.15	0.01959	3.4e-05	8.5e-06
283.15	0.01983	3.8e-05	9e-06
283.15	0.02999	3.9e-05	6e-06
283.15	0.04862	3.9e-05	4e-06
283.15	0.05035	3.93e-05	3.9e-06
283.15	0.10042	4.14e-05	2.1e-06
283.15	0.24349	3.976e-05	8.6e-07
283.15	0.39202	4.126e-05	5.8e-07
283.15	0.48853	4.243e-05	4.9e-07
283.15	0.02999	3.62e-05	6e-06
283.15	0.10042	3.73e-05	1.9e-06
288.15	0.01959	3.508e-05	8.8e-06
288.15	0.01983	3.8e-05	9e-06
288.15	0.02999	3.9e-05	6e-06
288.15	0.04862	3.96e-05	4e-06
288.15	0.05035	4.05e-05	4e-06
288.15	0.10042	4.12e-05	2.1e-06
288.15	0.24349	4.073e-05	8.8e-07
288.15	0.39202	4.246e-05	6e-07
288.15	0.48853	4.323e-05	5e-07
288.15	0.02999	3.71e-05	6.1e-06
288.15	0.10042	3.851e-05	1.94e-06
298.15	0.01959	3.86e-05	9.69e-06
298.15	0.01983	4.1e-05	1e-05
298.15	0.02999	4.19e-05	6.9e-06
298.15	0.04862	4.22e-05	4.3e-06
298.15	0.05035	4.377e-05	4.33e-06
298.15	0.10042	4.33e-05	2.2e-06
298.15	0.24349	4.368e-05	9.5e-07
298.15	0.39202	4.54e-05	6.4e-07
298.15	0.48853	4.567e-05	5.3e-07
298.15	0.02999	3.835e-05	6.31e-06
298.15	0.10042	4.134e-05	2.08e-06
308.15	0.01959	4.027e-05	1.012e-05
308.15	0.01983	4.04e-05	1e-05
308.15	0.02999	4.2e-05	6.9e-06
308.15	0.04862	4.27e-05	4.4e-06
308.15	0.05035	4.631e-05	4.58e-06
308.15	0.10042	4.39e-05	2.2e-06
308.15	0.24349	4.56e-05	9.9e-07
308.15	0.39202	4.698e-05	6.6e-07
308.15	0.48853	4.739e-05	5.5e-07
308.15	0.02999	3.7e-05	6.1e-06
308.15	0.10042	4.262e-05	2.15e-06
318.15	0.01959	4.413e-05	1.11e-05
318.15	0.01983	4.13e-05	1.03e-05
318.15	0.02999	4.23e-05	7e-06
318.15	0.04862	4.32e-05	4.4e-06
318.15	0.05035	4.763e-05	4.71e-06
318.15	0.10042	4.49e-05	2.26e-06
318.15	0.24349	4.709e-05	1.02e-06
318.15	0.39202	4.824e-05	6.8e-07
318.15	0.48853	4.881e-05	5.7e-07
318.15	0.02999	3.71e-05	6.1e-06
318.15	0.10042	4.36e-05	2.2e-06
328.15	0.01959	4.522e-05	1.138e-05
328.15	0.01983	4.163e-05	1.034e-05
328.15	0.02999	4.215e-05	6.94e-06
328.15	0.04862	4.365e-05	4.46e-06
328.15	0.05035	4.871e-05	4.82e-06
328.15	0.10042	4.523e-05	2.28e-06
328.15	0.24349	4.806e-05	1.05e-06
328.15	0.39202	4.911e-05	6.9e-07
328.15	0.48853	4.978e-05	5.8e-07
328.15	0.02999	3.58e-05	5.9e-06
328.15	0.10042	4.39e-05	2.2e-06
338.15	0.01959	4.5e-05	1.132e-05
338.15	0.01983	4.114e-05	1.021e-05
338.15	0.02999	4.265e-05	7.03e-06
338.15	0.04862	4.42e-05	4.52e-06
338.15	0.05035	4.942e-05	4.89e-06
338.15	0.10042	4.599e-05	2.32e-06
338.15	0.24349	4.89e-05	1.06e-06
338.15	0.39202	4.981e-05	7e-07
338.15	0.48853	5.059e-05	5.9e-07
338.15	0.02999	3.58e-05	5.9e-06
338.15	0.10042	4.45e-05	2.2e-06
348.15	0.01959	4.33e-05	1.089e-05
348.15	0.02999	3.57e-05	5.9e-06
348.15	0.05035	4.93e-05	4.88e-06
348.15	0.10042	4.662e-05	2.35e-06
348.15	0.24349	4.92e-05	1.07e-06
348.15	0.39202	5.034e-05	7.1e-07
348.15	0.48853	5.112e-05	6e-07
348.15	0.10042	4.47e-05	2.3e-06
358.15	0.01959	4.397e-05	1.106e-05
358.15	0.02999	3.55e-05	5.8e-06
358.15	0.05035	4.866e-05	4.82e-06
358.15	0.10042	4.513e-05	2.27e-06
358.15	0.24349	4.929e-05	1.07e-06
358.15	0.39202	5.016e-05	7.1e-07
358.15	0.48853	5.11e-05	6e-07
358.15	0.10042	4.48e-05	2.3e-06
368.15	0.01959	4.451e-05	1.12e-05
368.15	0.02999	3.49e-05	5.7e-06
368.15	0.05035	4.751e-05	4.7e-06
368.15	0.10042	4.02e-05	2e-06
368.15	0.24349	4.902e-05	1.07e-06
368.15	0.39202	4.883e-05	6.9e-07
368.15	0.48853	5.055e-05	5.9e-07
368.15	0.10042	4.44e-05	2.2e-06

System: water + lead(II) nitrate; phases: Liquid
Fixed: Pressure, kPa = 350
Property: Molar volume, m3/mol (Liquid); method: Vibrating tube method
Temperature, K	Molality, mol/kg of lead(II) nitrate	Molar volume, m3/mol	uncertainty
278.15	0.01959	3.11e-05	1e-07
278.15	0.01983	3.8e-05	1e-06
278.15	0.02999	3.7e-05	1e-06
278.15	0.02999	3.36e-05	1e-07
278.15	0.04862	3.8e-05	1e-06
278.15	0.05035	3.73e-05	1e-07
278.15	0.10042	4.01e-05	1e-07
278.15	0.10042	3.52e-05	1e-07
278.15	0.24349	3.781e-05	3e-08
278.15	0.39202	3.95e-05	3e-08
278.15	0.48853	4.08e-05	3e-08
283.15	0.01959	3.4e-05	1e-07
283.15	0.01983	3.8e-05	1e-06
283.15	0.02999	3.9e-05	1e-06
283.15	0.02999	3.62e-05	1e-07
283.15	0.04862	3.9e-05	1e-06
283.15	0.05035	3.93e-05	1e-07
283.15	0.10042	4.14e-05	1e-07
283.15	0.10042	3.73e-05	1e-07
283.15	0.24349	3.976e-05	3e-08
283.15	0.39202	4.126e-05	3e-08
283.15	0.48853	4.243e-05	4e-08
288.15	0.01959	3.508e-05	3e-08
288.15	0.01983	3.8e-05	1e-06
288.15	0.02999	3.9e-05	1e-06
288.15	0.02999	3.71e-05	1e-07
288.15	0.04862	3.96e-05	1e-07
288.15	0.05035	4.05e-05	1e-07
288.15	0.10042	4.12e-05	1e-07
288.15	0.10042	3.851e-05	3e-08
288.15	0.24349	4.073e-05	3e-08
288.15	0.39202	4.246e-05	4e-08
288.15	0.48853	4.323e-05	4e-08
298.15	0.01959	3.86e-05	3e-08
298.15	0.01983	4.1e-05	1e-06
298.15	0.02999	4.19e-05	1e-07
298.15	0.02999	3.835e-05	3e-08
298.15	0.04862	4.22e-05	1e-07
298.15	0.05035	4.377e-05	4e-08
298.15	0.10042	4.33e-05	1e-07
298.15	0.10042	4.134e-05	3e-08
298.15	0.24349	4.368e-05	4e-08
298.15	0.39202	4.54e-05	4e-08
298.15	0.48853	4.567e-05	4e-08
308.15	0.01959	4.027e-05	3e-08
308.15	0.01983	4.04e-05	1e-07
308.15	0.02999	4.2e-05	1e-07
308.15	0.02999	3.7e-05	1e-07
308.15	0.04862	4.27e-05	1e-07
308.15	0.05035	4.631e-05	4e-08
308.15	0.10042	4.39e-05	1e-07
308.15	0.10042	4.262e-05	3e-08
308.15	0.24349	4.56e-05	4e-08
308.15	0.39202	4.698e-05	4e-08
308.15	0.48853	4.739e-05	4e-08
318.15	0.01959	4.413e-05	4e-08
318.15	0.01983	4.13e-05	1e-07
318.15	0.02999	4.23e-05	1e-07
318.15	0.02999	3.71e-05	1e-07
318.15	0.04862	4.32e-05	1e-07
318.15	0.05035	4.763e-05	4e-08
318.15	0.10042	4.49e-05	4e-08
318.15	0.10042	4.36e-05	1e-07
318.15	0.24349	4.709e-05	4e-08
318.15	0.39202	4.824e-05	4e-08
318.15	0.48853	4.881e-05	4e-08
328.15	0.01959	4.522e-05	4e-08
328.15	0.01983	4.163e-05	3e-08
328.15	0.02999	4.215e-05	3e-08
328.15	0.02999	3.58e-05	1e-07
328.15	0.04862	4.365e-05	4e-08
328.15	0.05035	4.871e-05	4e-08
328.15	0.10042	4.523e-05	4e-08
328.15	0.10042	4.39e-05	1e-07
328.15	0.24349	4.806e-05	4e-08
328.15	0.39202	4.911e-05	4e-08
328.15	0.48853	4.978e-05	4e-08
338.15	0.01959	4.5e-05	4e-08
338.15	0.01983	4.114e-05	3e-08
338.15	0.02999	4.265e-05	3e-08
338.15	0.02999	3.58e-05	1e-07
338.15	0.04862	4.42e-05	4e-08
338.15	0.05035	4.942e-05	4e-08
338.15	0.10042	4.599e-05	4e-08
338.15	0.10042	4.45e-05	1e-07
338.15	0.24349	4.89e-05	4e-08
338.15	0.39202	4.981e-05	4e-08
338.15	0.48853	5.059e-05	4e-08
348.15	0.01959	4.33e-05	3e-08
348.15	0.02999	3.57e-05	1e-07
348.15	0.05035	4.93e-05	4e-08
348.15	0.10042	4.662e-05	4e-08
348.15	0.10042	4.47e-05	1e-07
348.15	0.24349	4.92e-05	4e-08
348.15	0.39202	5.034e-05	4e-08
348.15	0.48853	5.112e-05	4e-08
358.15	0.01959	4.397e-05	4e-08
358.15	0.02999	3.55e-05	1e-07
358.15	0.05035	4.866e-05	4e-08
358.15	0.10042	4.513e-05	4e-08
358.15	0.10042	4.48e-05	1e-07
358.15	0.24349	4.929e-05	4e-08
358.15	0.39202	5.016e-05	4e-08
358.15	0.48853	5.11e-05	4e-08
368.15	0.01959	4.451e-05	4e-08
368.15	0.02999	3.49e-05	1e-07
368.15	0.05035	4.751e-05	4e-08
368.15	0.10042	4.02e-05	1e-07
368.15	0.10042	4.44e-05	1e-07
368.15	0.24349	4.902e-05	4e-08
368.15	0.39202	4.883e-05	4e-08
368.15	0.48853	5.055e-05	4e-08

System: nitric acid + water + lead(II) nitrate; phases: Liquid
Fixed: Pressure, kPa = 350
Fixed: Solvent: Molality, mol/kg of nitric acid = 0.00501
Property: Apparent molar heat capacity, J/K/mol (Liquid); method: Extra sensitive DSC
Temperature, K	Molality, mol/kg of lead(II) nitrate	Apparent molar heat capacity, J/K/mol	uncertainty
278.15	0.01983	-202	50
278.15	0.02999	-202	33
278.15	0.04862	-192.9	20
278.15	0.10042	-156.2	9.5
278.15	0.24349	-82.4	3.9
278.15	0.39202	-33.2	2.5
278.15	0.48853	-9.1	2
283.15	0.01983	-168	50
283.15	0.02999	-169	33
283.15	0.04862	-161.7	20.1
283.15	0.10042	-129.9	9.6
283.15	0.24349	-64.1	3.9
283.15	0.39202	-19	2.5
283.15	0.48853	3.5	2.1
288.15	0.01983	-144	50
288.15	0.02999	-145	33
288.15	0.04862	-138.7	20.2
288.15	0.10042	-110.8	9.6
288.15	0.24349	-51.3	4
288.15	0.39202	-9.3	2.5
288.15	0.48853	11.8	2.1
293.15	0.01983	-125	50
293.15	0.02999	-126	33
293.15	0.04862	-121.3	20.2
293.15	0.10042	-96.4	9.7
293.15	0.24349	-41.8	4
293.15	0.39202	-2.5	2.6
293.15	0.48853	17.6	2.1
298.15	0.01983	-111	50
298.15	0.02999	-113	33
298.15	0.04862	-108.4	20.3
298.15	0.10042	-85.7	9.7
298.15	0.24349	-35.1	4
298.15	0.39202	2	2.6
298.15	0.48853	21.4	2.1
303.15	0.01983	-100	50
303.15	0.02999	-102	33
303.15	0.04862	-98.1	20.3
303.15	0.10042	-77.4	9.7
303.15	0.24349	-30.2	4
303.15	0.39202	5.2	2.6
303.15	0.48853	24.1	2.1
308.15	0.01983	-91	50
308.15	0.02999	-94	33
308.15	0.04862	-90.3	20.3
308.15	0.10042	-71.2	9.8
308.15	0.24349	-26.6	4
308.15	0.39202	7.4	2.6
308.15	0.48853	25.8	2.1
313.15	0.01983	-84	50
313.15	0.02999	-87	33
313.15	0.04862	-84.4	20.3
313.15	0.10042	-66.3	9.8
313.15	0.24349	-24.1	4
313.15	0.39202	8.9	2.6
313.15	0.48853	26.8	2.1
318.15	0.01983	-80	50
318.15	0.02999	-82	33
318.15	0.04862	-80.2	20.3
318.15	0.10042	-63.3	9.8
318.15	0.24349	-22.7	4
318.15	0.39202	9.5	2.6
318.15	0.48853	27	2.1
323.15	0.01983	-77	50
323.15	0.02999	-79	33
323.15	0.04862	-76.8	20.3
323.15	0.10042	-60.8	9.8
323.15	0.24349	-21.7	4.1
323.15	0.39202	9.7	2.6
323.15	0.48853	27	2.1
328.15	0.01983	-74	50
328.15	0.02999	-77	33
328.15	0.04862	-75.1	20.4
328.15	0.10042	-59.5	9.8
328.15	0.24349	-21.4	4.1
328.15	0.39202	9.6	2.6
328.15	0.48853	26.5	2.1
333.15	0.01983	-72	50
333.15	0.02999	-75	33
333.15	0.04862	-73.8	20.4
333.15	0.10042	-58.7	9.8
333.15	0.24349	-21.3	4.1
333.15	0.39202	9.2	2.6
333.15	0.48853	26	2.1
338.15	0.01983	-72	50
338.15	0.02999	-75	33
338.15	0.04862	-73.6	20.4
338.15	0.10042	-58.6	9.8
338.15	0.24349	-21.8	4.1
338.15	0.39202	8.4	2.6
338.15	0.48853	25.2	2.1
343.15	0.01983	-73	50
343.15	0.02999	-76	33
343.15	0.04862	-74.1	20.4
343.15	0.10042	-59.1	9.8
343.15	0.24349	-22.7	4
343.15	0.39202	7.3	2.6
343.15	0.48853	23.9	2.1
348.15	0.01983	-74	50
348.15	0.02999	-77	33
348.15	0.04862	-75	20.4
348.15	0.10042	-60.1	9.8
348.15	0.24349	-23.9	4
348.15	0.39202	6	2.6
348.15	0.48853	22.6	2.1
353.15	0.01983	-75	50
353.15	0.02999	-78	33
353.15	0.04862	-76.2	20.3
353.15	0.10042	-61.4	9.8
353.15	0.24349	-25.2	4
353.15	0.39202	4.5	2.6
353.15	0.48853	21.3	2.1
358.15	0.01983	-76	50
358.15	0.02999	-80	33
358.15	0.04862	-78	20.3
358.15	0.10042	-63.1	9.8
358.15	0.24349	-26.7	4
358.15	0.39202	3.1	2.6
358.15	0.48853	19.8	2.1
363.15	0.01983	-78	50
363.15	0.02999	-82	33
363.15	0.04862	-80.3	20.3
363.15	0.10042	-65.2	9.8
363.15	0.24349	-28.7	4
363.15	0.39202	1.4	2.6
363.15	0.48853	18	2.1
368.15	0.01983	-82	50
368.15	0.02999	-85	33
368.15	0.04862	-83.3	20.3
368.15	0.10042	-67.8	9.8
368.15	0.24349	-30.9	4
368.15	0.39202	-0.7	2.6
368.15	0.48853	16.1	2.1
373.15	0.01983	-86	50
373.15	0.02999	-89	33
373.15	0.04862	-86.4	20.3
373.15	0.10042	-70.5	9.8
373.15	0.24349	-33.2	4
373.15	0.39202	-2.8	2.6
373.15	0.48853	14	2.1
378.15	0.01983	-90	50
378.15	0.02999	-93	33
378.15	0.04862	-90	20
378.15	0.10042	-74.1	9.7
378.15	0.24349	-36.1	4
378.15	0.39202	-5.4	2.5
378.15	0.48853	11.4	2.1
383.15	0.01983	-94	50
383.15	0.02999	-98	33
383.15	0.04862	-94	20
383.15	0.10042	-77.7	9.7
383.15	0.24349	-38.9	4
383.15	0.39202	-7.8	2.5
383.15	0.48853	8.7	2.1
388.15	0.01983	-100	50
388.15	0.02999	-102	33
388.15	0.04862	-99	20
388.15	0.10042	-81.7	9.7
388.15	0.24349	-42.1	4
388.15	0.39202	-10.4	2.5
388.15	0.48853	6	2.1
393.15	0.01983	-100	50
393.15	0.02999	-108	33
393.15	0.04862	-104	20
393.15	0.10042	-86.5	9.7
393.15	0.24349	-45.5	4
393.15	0.39202	-13.5	2.5
393.15	0.48853	2.4	2.1

System: nitric acid + water + lead(II) nitrate; phases: Liquid
Fixed: Pressure, kPa = 350
Property: Apparent molar volume, m3/mol (Liquid); method: SAME:UFactor:16
Temperature, K	Solvent: Molality, mol/kg of nitric acid	Molality, mol/kg of lead(II) nitrate	Apparent molar volume, m3/mol	uncertainty
278.15	0.00501	0.01983	3.5e-05	9e-06
278.15	0.00501	0.02999	3.5e-05	6e-06
278.15	0.00501	0.04862	3.6e-05	4e-06
278.15	0.00501	0.10042	3.42e-05	1.7e-06
278.15	0.00501	0.24349	3.691e-05	8e-07
278.15	0.00501	0.39202	3.859e-05	5.4e-07
278.15	0.00501	0.48853	3.986e-05	4.6e-07
278.15	0.00517	0.01959	2.98e-05	7.5e-06
278.15	0.00517	0.05035	3.63e-05	3.6e-06
278.15	0.00501	0.02999	3.22e-05	5.3e-06
278.15	0.00501	0.10042	3.88e-05	2e-06
283.15	0.00501	0.01983	3.5e-05	9e-06
283.15	0.00501	0.02999	3.6e-05	6e-06
283.15	0.00501	0.04862	3.8e-05	4e-06
283.15	0.00501	0.10042	3.62e-05	1.8e-06
283.15	0.00501	0.24349	3.88e-05	8.4e-07
283.15	0.00501	0.39202	4.03e-05	5.7e-07
283.15	0.00501	0.48853	4.145e-05	4.8e-07
283.15	0.00517	0.01959	3.23e-05	8.1e-06
283.15	0.00517	0.05035	3.83e-05	3.8e-06
283.15	0.00501	0.02999	3.45e-05	5.7e-06
283.15	0.00501	0.10042	4.01e-05	2e-06
288.15	0.00501	0.01983	3.6e-05	9e-06
288.15	0.00501	0.02999	3.7e-05	6e-06
288.15	0.00501	0.04862	3.79e-05	3.9e-06
288.15	0.00501	0.10042	3.74e-05	1.9e-06
288.15	0.00501	0.24349	3.975e-05	8.6e-07
288.15	0.00501	0.39202	4.147e-05	5.8e-07
288.15	0.00501	0.48853	4.224e-05	4.9e-07
288.15	0.00517	0.01959	3.326e-05	8.34e-06
288.15	0.00517	0.05035	3.94e-05	3.9e-06
288.15	0.00501	0.02999	3.53e-05	5.8e-06
288.15	0.00501	0.10042	3.99e-05	2e-06
298.15	0.00501	0.01983	3.8e-05	9e-06
298.15	0.00501	0.02999	3.95e-05	6.5e-06
298.15	0.00501	0.04862	4.03e-05	4.1e-06
298.15	0.00501	0.10042	4.009e-05	2.02e-06
298.15	0.00501	0.24349	4.261e-05	9.3e-07
298.15	0.00501	0.39202	4.434e-05	6.3e-07
298.15	0.00501	0.48853	4.462e-05	5.2e-07
298.15	0.00517	0.01959	3.625e-05	9.1e-06
298.15	0.00517	0.05035	4.243e-05	4.19e-06
298.15	0.00501	0.02999	3.653e-05	6.01e-06
298.15	0.00501	0.10042	4.19e-05	2.1e-06
308.15	0.00501	0.01983	3.78e-05	9.4e-06
308.15	0.00501	0.02999	3.97e-05	6.5e-06
308.15	0.00501	0.04862	4.09e-05	4.2e-06
308.15	0.00501	0.10042	4.132e-05	2.08e-06
308.15	0.00501	0.24349	4.447e-05	9.7e-07
308.15	0.00501	0.39202	4.588e-05	6.5e-07
308.15	0.00501	0.48853	4.629e-05	5.4e-07
308.15	0.00517	0.01959	3.772e-05	9.47e-06
308.15	0.00517	0.05035	4.482e-05	4.43e-06
308.15	0.00501	0.02999	3.55e-05	5.8e-06
308.15	0.00501	0.10042	4.26e-05	2.1e-06
318.15	0.00501	0.01983	3.87e-05	9.6e-06
318.15	0.00501	0.02999	4.01e-05	6.6e-06
318.15	0.00501	0.04862	4.14e-05	4.2e-06
318.15	0.00501	0.10042	4.23e-05	2.1e-06
318.15	0.00501	0.24349	4.592e-05	1e-06
318.15	0.00501	0.39202	4.711e-05	6.7e-07
318.15	0.00501	0.48853	4.768e-05	5.6e-07
318.15	0.00517	0.01959	4.088e-05	1.027e-05
318.15	0.00517	0.05035	4.607e-05	4.56e-06
318.15	0.00501	0.02999	3.56e-05	5.9e-06
318.15	0.00501	0.10042	4.349e-05	2.19e-06
328.15	0.00501	0.01983	3.899e-05	9.67e-06
328.15	0.00501	0.02999	3.999e-05	6.58e-06
328.15	0.00501	0.04862	4.182e-05	4.28e-06
328.15	0.00501	0.10042	4.26e-05	2.1e-06
328.15	0.00501	0.24349	4.686e-05	1.02e-06
328.15	0.00501	0.39202	4.795e-05	6.8e-07
328.15	0.00501	0.48853	4.862e-05	5.7e-07
328.15	0.00517	0.01959	4.181e-05	1.051e-05
328.15	0.00517	0.05035	4.708e-05	4.66e-06
328.15	0.00501	0.02999	3.46e-05	5.7e-06
328.15	0.00501	0.10042	4.382e-05	2.21e-06
338.15	0.00501	0.01983	3.864e-05	9.59e-06
338.15	0.00501	0.02999	4.043e-05	6.66e-06
338.15	0.00501	0.04862	4.233e-05	4.33e-06
338.15	0.00501	0.10042	4.32e-05	2.2e-06
338.15	0.00501	0.24349	4.767e-05	1.04e-06
338.15	0.00501	0.39202	4.863e-05	6.9e-07
338.15	0.00501	0.48853	4.941e-05	5.8e-07
338.15	0.00517	0.01959	4.168e-05	1.047e-05
338.15	0.00517	0.05035	4.775e-05	4.72e-06
338.15	0.00501	0.02999	3.47e-05	5.7e-06
338.15	0.00501	0.10042	4.454e-05	2.24e-06
348.15	0.00501	0.02999	3.46e-05	5.7e-06
348.15	0.00501	0.10042	4.34e-05	2.2e-06
348.15	0.00501	0.24349	4.796e-05	1.04e-06
348.15	0.00501	0.39202	4.915e-05	6.9e-07
348.15	0.00501	0.48853	4.993e-05	5.8e-07
348.15	0.00517	0.01959	4.034e-05	1.013e-05
348.15	0.00517	0.05035	4.763e-05	4.71e-06
348.15	0.00501	0.10042	4.513e-05	2.27e-06
358.15	0.00501	0.02999	3.44e-05	5.7e-06
358.15	0.00501	0.10042	4.35e-05	2.2e-06
358.15	0.00501	0.24349	4.804e-05	1.04e-06
358.15	0.00501	0.39202	4.898e-05	6.9e-07
358.15	0.00501	0.48853	4.99e-05	5.8e-07
358.15	0.00517	0.01959	4.085e-05	1.026e-05
358.15	0.00517	0.05035	4.704e-05	4.65e-06
358.15	0.00501	0.10042	4.372e-05	2.2e-06
368.15	0.00501	0.02999	3.38e-05	5.6e-06
368.15	0.00501	0.10042	4.31e-05	2.2e-06
368.15	0.00501	0.24349	4.778e-05	1.04e-06
368.15	0.00501	0.39202	4.768e-05	6.7e-07
368.15	0.00501	0.48853	4.936e-05	5.8e-07
368.15	0.00517	0.01959	4.121e-05	1.036e-05
368.15	0.00517	0.05035	4.597e-05	4.55e-06
368.15	0.00501	0.10042	3.91e-05	2e-06

System: nitric acid + water + lead(II) nitrate; phases: Liquid
Fixed: Pressure, kPa = 350
Property: Molar volume, m3/mol (Liquid); method: Vibrating tube method
Temperature, K	Solvent: Molality, mol/kg of nitric acid	Molality, mol/kg of lead(II) nitrate	Molar volume, m3/mol	uncertainty
278.15	0.00517	0.01959	2.98e-05	1e-07
278.15	0.00501	0.01983	3.5e-05	1e-06
278.15	0.00501	0.02999	3.5e-05	1e-06
278.15	0.00501	0.02999	3.22e-05	1e-07
278.15	0.00501	0.04862	3.6e-05	1e-06
278.15	0.00517	0.05035	3.63e-05	1e-07
278.15	0.00501	0.10042	3.42e-05	1e-07
278.15	0.00501	0.10042	3.88e-05	1e-07
278.15	0.00501	0.24349	3.691e-05	3e-08
278.15	0.00501	0.39202	3.859e-05	4e-08
278.15	0.00501	0.48853	3.986e-05	4e-08
283.15	0.00517	0.01959	3.23e-05	1e-07
283.15	0.00501	0.01983	3.5e-05	1e-06
283.15	0.00501	0.02999	3.6e-05	1e-06
283.15	0.00501	0.02999	3.45e-05	1e-07
283.15	0.00501	0.04862	3.8e-05	1e-06
283.15	0.00517	0.05035	3.83e-05	1e-07
283.15	0.00501	0.10042	3.62e-05	1e-07
283.15	0.00501	0.10042	4.01e-05	1e-07
283.15	0.00501	0.24349	3.88e-05	4e-08
283.15	0.00501	0.39202	4.03e-05	4e-08
283.15	0.00501	0.48853	4.145e-05	4e-08
288.15	0.00517	0.01959	3.326e-05	3e-08
288.15	0.00501	0.01983	3.6e-05	1e-06
288.15	0.00501	0.02999	3.7e-05	1e-06
288.15	0.00501	0.02999	3.53e-05	1e-07
288.15	0.00501	0.04862	3.79e-05	1e-07
288.15	0.00517	0.05035	3.94e-05	1e-07
288.15	0.00501	0.10042	3.74e-05	1e-07
288.15	0.00501	0.10042	3.99e-05	1e-07
288.15	0.00501	0.24349	3.975e-05	4e-08
288.15	0.00501	0.39202	4.147e-05	4e-08
288.15	0.00501	0.48853	4.224e-05	4e-08
298.15	0.00517	0.01959	3.625e-05	3e-08
298.15	0.00501	0.01983	3.8e-05	1e-06
298.15	0.00501	0.02999	3.95e-05	1e-07
298.15	0.00501	0.02999	3.653e-05	3e-08
298.15	0.00501	0.04862	4.03e-05	1e-07
298.15	0.00517	0.05035	4.243e-05	4e-08
298.15	0.00501	0.10042	4.009e-05	4e-08
298.15	0.00501	0.10042	4.19e-05	1e-07
298.15	0.00501	0.24349	4.261e-05	4e-08
298.15	0.00501	0.39202	4.434e-05	4e-08
298.15	0.00501	0.48853	4.462e-05	4e-08
308.15	0.00517	0.01959	3.772e-05	3e-08
308.15	0.00501	0.01983	3.78e-05	1e-07
308.15	0.00501	0.02999	3.97e-05	1e-07
308.15	0.00501	0.02999	3.55e-05	1e-07
308.15	0.00501	0.04862	4.09e-05	1e-07
308.15	0.00517	0.05035	4.482e-05	4e-08
308.15	0.00501	0.10042	4.132e-05	4e-08
308.15	0.00501	0.10042	4.26e-05	1e-07
308.15	0.00501	0.24349	4.447e-05	4e-08
308.15	0.00501	0.39202	4.588e-05	4e-08
308.15	0.00501	0.48853	4.629e-05	4e-08
318.15	0.00517	0.01959	4.088e-05	4e-08
318.15	0.00501	0.01983	3.87e-05	1e-07
318.15	0.00501	0.02999	4.01e-05	1e-07
318.15	0.00501	0.02999	3.56e-05	1e-07
318.15	0.00501	0.04862	4.14e-05	1e-07
318.15	0.00517	0.05035	4.607e-05	4e-08
318.15	0.00501	0.10042	4.23e-05	1e-07
318.15	0.00501	0.10042	4.349e-05	4e-08
318.15	0.00501	0.24349	4.592e-05	4e-08
318.15	0.00501	0.39202	4.711e-05	4e-08
318.15	0.00501	0.48853	4.768e-05	4e-08
328.15	0.00517	0.01959	4.181e-05	4e-08
328.15	0.00501	0.01983	3.899e-05	4e-08
328.15	0.00501	0.02999	3.999e-05	4e-08
328.15	0.00501	0.02999	3.46e-05	1e-07
328.15	0.00501	0.04862	4.182e-05	4e-08
328.15	0.00517	0.05035	4.708e-05	4e-08
328.15	0.00501	0.10042	4.26e-05	1e-07
328.15	0.00501	0.10042	4.382e-05	4e-08
328.15	0.00501	0.24349	4.686e-05	4e-08
328.15	0.00501	0.39202	4.795e-05	4e-08
328.15	0.00501	0.48853	4.862e-05	4e-08
338.15	0.00517	0.01959	4.168e-05	4e-08
338.15	0.00501	0.01983	3.864e-05	4e-08
338.15	0.00501	0.02999	4.043e-05	4e-08
338.15	0.00501	0.02999	3.47e-05	1e-07
338.15	0.00501	0.04862	4.233e-05	4e-08
338.15	0.00517	0.05035	4.775e-05	4e-08
338.15	0.00501	0.10042	4.32e-05	1e-07
338.15	0.00501	0.10042	4.454e-05	4e-08
338.15	0.00501	0.24349	4.767e-05	4e-08
338.15	0.00501	0.39202	4.863e-05	4e-08
338.15	0.00501	0.48853	4.941e-05	4e-08
348.15	0.00517	0.01959	4.034e-05	4e-08
348.15	0.00501	0.02999	3.46e-05	1e-07
348.15	0.00517	0.05035	4.763e-05	4e-08
348.15	0.00501	0.10042	4.34e-05	1e-07
348.15	0.00501	0.10042	4.513e-05	4e-08
348.15	0.00501	0.24349	4.796e-05	4e-08
348.15	0.00501	0.39202	4.915e-05	4e-08
348.15	0.00501	0.48853	4.993e-05	4e-08
358.15	0.00517	0.01959	4.085e-05	4e-08
358.15	0.00501	0.02999	3.44e-05	1e-07
358.15	0.00517	0.05035	4.704e-05	4e-08
358.15	0.00501	0.10042	4.35e-05	1e-07
358.15	0.00501	0.10042	4.372e-05	4e-08
358.15	0.00501	0.24349	4.804e-05	4e-08
358.15	0.00501	0.39202	4.898e-05	4e-08
358.15	0.00501	0.48853	4.99e-05	4e-08
368.15	0.00517	0.01959	4.121e-05	4e-08
368.15	0.00501	0.02999	3.38e-05	1e-07
368.15	0.00517	0.05035	4.597e-05	4e-08
368.15	0.00501	0.10042	4.31e-05	1e-07
368.15	0.00501	0.10042	3.91e-05	1e-07
368.15	0.00501	0.24349	4.778e-05	4e-08
368.15	0.00501	0.39202	4.768e-05	4e-08
368.15	0.00501	0.48853	4.936e-05	4e-08
