Measured thermophysical data. (Liquid + liquid) extraction of phenols from aqueous solutions with cineole
Source: J. Chem. Thermodyn., 2017, 10.1016/j.jct.2016.12.018
Compound 1: 1,3,3-trimethyl-2-oxabicyclo[2.2.2]octane, C10H18O, InChI=1S/C10H18O/c1-9(2)8-4-6-10(3,11-9)7-5-8/h8H,4-7H2,1-3H3, purity 99%
Compound 2: phenol, C6H6O, InChI=1S/C6H6O/c7-6-4-2-1-3-5-6/h1-5,7H, purity 99.5%
Compound 3: 4-methylphenol, C7H8O, InChI=1S/C7H8O/c1-6-2-4-7(8)5-3-6/h2-5,8H,1H3, purity 99%
Compound 4: water, H2O, InChI=1S/H2O/h1H2

System: 1,3,3-trimethyl-2-oxabicyclo[2.2.2]octane; phases: Liquid
Property: Mass density, kg/m3 (Liquid); method: Vibrating tube method
Pressure, kPa	Temperature, K	Mass density, kg/m3	uncertainty
100	293.15	924.84	2.02

System: 1,3,3-trimethyl-2-oxabicyclo[2.2.2]octane; phases: Liquid
Property: Refractive index (Na D-line) (Liquid); method: Standard Abbe refractometry
Pressure, kPa	Temperature, K	Refractive index (Na D-line)	uncertainty
100	293.15	1.45756	0.00107

System: water; phases: Liquid
Property: Mass density, kg/m3 (Liquid); method: Vibrating tube method
Pressure, kPa	Temperature, K	Mass density, kg/m3	uncertainty
100	293.15	998.15	2.01

System: water; phases: Liquid
Property: Refractive index (Na D-line) (Liquid); method: Standard Abbe refractometry
Pressure, kPa	Temperature, K	Refractive index (Na D-line)	uncertainty
100	293.15	1.33299	0.00105

System: phenol + water; phases: Liquid mixture 1, Liquid mixture 2
Fixed: Pressure, kPa = 100
Property: Mole fraction of phenol (Liquid mixture 1); method: Chromatography
Temperature, K	Mole fraction of phenol	uncertainty
283.15	0.0156	0.0008
298.15	0.0174	0.0008
313.15	0.0214	0.0008

System: phenol + water; phases: Liquid mixture 2, Liquid mixture 1
Fixed: Pressure, kPa = 100
Property: Mole fraction of water (Liquid mixture 2); method: Chromatography
Temperature, K	Mole fraction of water	uncertainty
283.15	0.6301	0.0066
298.15	0.6731	0.0065
313.15	0.7244	0.0063

System: 4-methylphenol + water; phases: Liquid mixture 1, Liquid mixture 2
Fixed: Pressure, kPa = 100
Property: Mole fraction of 4-methylphenol (Liquid mixture 1); method: Chromatography
Temperature, K	Mole fraction of 4-methylphenol	uncertainty
283.15	0.00348	0.0001
298.15	0.00365	0.0001
313.15	0.00403	0.0001

System: 4-methylphenol + water; phases: Liquid mixture 2, Liquid mixture 1
Fixed: Pressure, kPa = 100
Property: Mole fraction of water (Liquid mixture 2); method: Chromatography
Temperature, K	Mole fraction of water	uncertainty
283.15	0.482	0.0069
298.15	0.5202	0.0069
313.15	0.5562	0.0068

System: 1,3,3-trimethyl-2-oxabicyclo[2.2.2]octane + water; phases: Liquid mixture 1, Liquid mixture 2
Fixed: Pressure, kPa = 100
Property: Mole fraction of 1,3,3-trimethyl-2-oxabicyclo[2.2.2]octane (Liquid mixture 1); method: Chromatography
Temperature, K	Mole fraction of 1,3,3-trimethyl-2-oxabicyclo[2.2.2]octane	uncertainty
283.15	0.00053	1e-05
298.15	0.00037	1e-05
313.15	0.00024	1e-05

System: 1,3,3-trimethyl-2-oxabicyclo[2.2.2]octane + water; phases: Liquid mixture 2, Liquid mixture 1
Fixed: Pressure, kPa = 100
Property: Mole fraction of water (Liquid mixture 2); method: Chromatography
Temperature, K	Mole fraction of water	uncertainty
283.15	0.0605	0.006
298.15	0.0648	0.006
313.15	0.0685	0.006

System: phenol + 1,3,3-trimethyl-2-oxabicyclo[2.2.2]octane + water; phases: Liquid mixture 2, Liquid mixture 1
Fixed: Pressure, kPa = 100
Property: Mole fraction of phenol (Liquid mixture 2); method: Chromatography
Property: Mole fraction of 1,3,3-trimethyl-2-oxabicyclo[2.2.2]octane (Liquid mixture 1); method: Chromatography
Property: Mole fraction of phenol (Liquid mixture 1); method: Chromatography
Temperature, K	Mole fraction of water	Mole fraction of phenol	uncertainty	Mole fraction of 1,3,3-trimethyl-2-oxabicyclo[2.2.2]octane	uncertainty	Mole fraction of phenol	uncertainty
283.15	0.0615	0.00057	0.00057	0.0005033	1.66e-05	1.28e-06	
283.15	0.0605	0		0.00053	2e-05	0	
283.15	0.0625	0.00235	0.00235	0.0005014	1.66e-05	5.18e-06	
283.15	0.0658	0.00943	0.00943	0.0005003	1.68e-05	2.01e-05	
283.15	0.0715	0.0189	0.0128	0.0004979	1.84e-05	4.04e-05	
283.15	0.0803	0.0359	0.0152	0.0004899	1.67e-05	8.06e-05	
283.15	0.0937	0.0703	0.0138	0.0004814	1.66e-05	0.0001709	
283.15	0.1118	0.1019	0.0119	0.0004708	1.73e-05	0.0002652	
283.15	0.12614	0.1256	0.0116	0.0004256	1.87e-05	0.0003451	
283.15	0.6301	0.3699	0.0072	0		0.0156	
298.15	0.6731	0.3269	0.0069	0		0.0174	
298.15	0.0667	0.00226	0.00226	0.0003147	1.67e-05	6.65e-06	
298.15	0.0648	0		0.00037	2e-05	0	
298.15	0.0696	0.00924	0.00924	0.0003043	1.96e-05	2.61e-05	
298.15	0.0769	0.0183	0.0116	0.0002978	2.09e-05	5.12e-05	
298.15	0.0853	0.035	0.016	0.0002942	1.63e-05	0.000103	
298.15	0.0951	0.0628	0.0135	0.0002937	1.64e-05	0.0002036	
298.15	0.1139	0.095	0.012	0.0002911	1.64e-05	0.0003385	
298.15	0.1297	0.1223	0.0121	0.0002606	1.63e-05	0.0004702	
298.15	0.0646	0.00054	0.00054	0.0003401	1.64e-05	1.61e-06	
313.15	0.1169	0.093	0.0118	0.0002019	1.61e-05	0.0004969	
313.15	0.7244	0.2756	0.0066	0		0.0214	
313.15	0.1338	0.1203	0.0114	0.0001888	1.61e-05	0.0007063	
313.15	0.0685	0		0.00024	2e-05	0	
313.15	0.0697	0.00223	0.00223	0.000226	1.62e-05	9.83e-06	
313.15	0.0739	0.00885	0.00885	0.0002233	1.63e-05	3.72e-05	
313.15	0.0676	0.00053	0.00053	0.0002263	1.61e-05	2.36e-06	
313.15	0.081	0.0161	0.0107	0.00022	1.64e-05	6.62e-05	
313.15	0.0892	0.0313	0.0164	0.0002142	1.61e-05	0.0001351	
313.15	0.0989	0.0612	0.0143	0.0002039	1.61e-05	0.0002896	

System: 4-methylphenol + 1,3,3-trimethyl-2-oxabicyclo[2.2.2]octane + water; phases: Liquid mixture 2, Liquid mixture 1
Fixed: Pressure, kPa = 100
Property: Mole fraction of water (Liquid mixture 2); method: Chromatography
Property: Mole fraction of 1,3,3-trimethyl-2-oxabicyclo[2.2.2]octane (Liquid mixture 1); method: Chromatography
Property: Mole fraction of 4-methylphenol (Liquid mixture 1); method: Chromatography
Temperature, K	Mole fraction of 4-methylphenol	Mole fraction of water	uncertainty	Mole fraction of 1,3,3-trimethyl-2-oxabicyclo[2.2.2]octane	uncertainty	Mole fraction of 4-methylphenol	uncertainty
283.15	0.0004	0.0614	0.006	0.0005345	1.66e-05	4.27e-07	
283.15	0.00082	0.0617	0.006	0.0005306	1.66e-05	8.37e-07	
283.15	0.00156	0.0621	0.006	0.0005252	1.66e-05	1.53e-06	
283.15	0.00332	0.0626	0.0061	0.0005222	1.67e-05	3.24e-06	
283.15	0.00641	0.0639	0.0064	0.0005116	1.66e-05	6.47e-06	
283.15	0.0144	0.0666	0.0062	0.0005082	1.71e-05	1.592e-05	
283.15	0.0275	0.0696	0.0062	0.0005034	1.71e-05	3.391e-05	
283.15	0	0.0605	0.006	0.00053	2e-05	0	
283.15	0.518	0.482	0.0086	0		0.00348	
298.15	0.4798	0.5202	0.0091	0		0.00365	
298.15	0.00042	0.0649	0.006	0.000365	1.63e-05	4.68e-07	
298.15	0.00083	0.065	0.006	0.0003547	1.64e-05	9.09e-07	
298.15	0.00156	0.0652	0.006	0.0003523	1.65e-05	1.69e-06	
298.15	0.00309	0.0661	0.0063	0.00035	1.72e-05	3.28e-06	
298.15	0.00605	0.0675	0.0064	0.0003419	2e-05	6.59e-06	
298.15	0.0137	0.0699	0.0061	0.0003306	2.77e-05	1.604e-05	
298.15	0.0268	0.0719	0.0061	0.0003217	2.08e-05	3.436e-05	
298.15	0	0.0648	0.006	0.00037	2e-05	0	
313.15	0	0.0685	0.006	0.00024	2e-05	0	
313.15	0.4438	0.5562	0.0097	0		0.00403	
313.15	0.0004	0.0696	0.006	0.0002351	1.62e-05	4.82e-07	
313.15	0.00077	0.0697	0.006	0.0002319	1.62e-05	9.15e-07	
313.15	0.00148	0.0702	0.006	0.000231	1.62e-05	1.7e-06	
313.15	0.00299	0.0709	0.0061	0.0002253	1.63e-05	3.45e-06	
313.15	0.00581	0.0718	0.0061	0.000222	1.65e-05	6.84e-06	
313.15	0.0134	0.0732	0.0061	0.0002115	1.97e-05	1.673e-05	
313.15	0.0265	0.0745	0.0061	0.0002094	1.62e-05	3.59e-05	
