Measured thermophysical data. (p, Vm, T, x) measurements for aqueous LiNO3 solutions
Source: J. Chem. Thermodyn., 2004, 10.1016/j.jct.2003.09.006
Compound 1: water, H2O, InChI=1S/H2O/h1H2
Compound 2: lithium nitrate, LiNO3, InChI=1S/Li.NO3/c;2-1(3)4/q+1;-1

System: water + lithium nitrate; phases: Liquid
Property: Mass density, kg/m3 (Liquid); method: PIESOM
Temperature, K	Pressure, kPa	Molality, mol/kg of lithium nitrate	Mass density, kg/m3	uncertainty
291.83	2310	0.526	1020.4	0.6
291.83	11120	0.526	1024.2	0.6
291.83	20950	0.526	1028.5	0.7
291.83	30850	0.526	1032.7	0.7
291.83	39420	0.526	1036.2	0.7
302.48	2450	0.181	1003.7	0.6
302.48	10910	0.181	1007.3	0.6
302.48	21010	0.181	1011.5	0.7
302.48	29500	0.181	1015.1	0.7
302.48	38560	0.181	1018.8	0.7
302.81	2350	0.963	1033	0.7
302.81	11240	0.963	1036.8	0.7
302.81	21040	0.963	1040.8	0.7
302.81	30220	0.963	1044.6	0.7
302.81	38850	0.963	1047.9	0.8
309.48	2490	1.728	1057.3	0.7
309.48	11320	1.728	1061.1	0.7
309.48	21080	1.728	1065	0.8
309.48	30070	1.728	1068.6	0.8
309.48	39050	1.728	1072.1	0.8
323.15	2070	0.963	1023.7	0.7
323.15	2240	1.728	1050.4	0.7
323.15	2490	0.181	995.4	0.6
323.15	2560	0.526	1008	0.6
323.15	10450	0.963	1027.3	0.7
323.15	10450	1.728	1053.9	0.7
323.15	10840	0.526	1011.5	0.6
323.15	11120	0.181	999.1	0.6
323.15	20350	0.526	1015.5	0.7
323.15	20760	0.181	1003	1
323.15	20980	0.963	1031.6	0.7
323.15	21080	1.728	1058.2	0.8
323.15	30510	0.181	1007	1
323.15	30510	0.963	1035.4	0.7
323.15	30580	1.728	1061.9	0.8
323.15	30620	0.526	1019.7	0.7
323.15	38540	0.526	1023	0.7
323.15	38760	0.963	1038.7	0.8
323.15	38860	1.728	1065	0.8
323.15	39460	0.181	1010.5	0.7
348.15	2810	1.728	1036.6	0.7
348.15	3060	0.963	1010.9	0.7
348.15	3220	0.181	983.2	0.6
348.15	3220	0.526	995.5	0.63
348.15	10900	0.181	986.4	0.6
348.15	11140	0.526	998.9	0.64
348.15	11140	0.963	1014.3	0.7
348.15	11140	1.728	1040.3	0.7
348.15	20790	0.963	1018.4	0.7
348.15	20830	0.181	990.6	0.7
348.15	20910	0.526	1003	0.7
348.15	20950	1.728	1044.2	0.8
348.15	30360	0.963	1022.3	0.7
348.15	30400	1.728	1048	0.8
348.15	30420	0.526	1007	0.7
348.15	30500	0.181	994.6	0.7
348.15	36680	0.963	1024.8	0.8
348.15	37720	0.526	1010	0.7
348.15	38210	1.728	1050.8	0.8
348.15	38360	0.181	997.6	0.7
373.15	2040	1.728	1019.9	0.7
373.15	2080	0.181	966.3	0.6
373.15	2610	0.526	979	0.6
373.15	2650	0.963	994.4	0.7
373.15	10450	0.526	982.4	0.6
373.15	10680	0.181	970.2	0.6
373.15	10680	1.728	1023.8	0.7
373.15	11080	0.963	998.1	0.7
373.15	20090	1.728	1027.8	0.8
373.15	20640	0.526	986.9	0.7
373.15	20640	0.963	1002.3	0.7
373.15	21050	0.181	974.7	0.7
373.15	30320	0.181	978.7	0.7
373.15	30510	0.963	1006.6	0.7
373.15	30760	0.526	991.4	0.7
373.15	31040	1.728	1032.3	0.8
373.15	38070	0.526	994.6	0.7
373.15	38910	0.181	982.4	0.7
373.15	39010	0.963	1010.1	0.8
373.15	39580	1.728	1035.7	0.8
398.15	5260	0.181	948.5	0.6
398.15	5430	0.526	961.3	0.6
398.15	5430	0.963	977	0.7
398.15	5430	1.728	1003.2	0.7
398.15	11320	1.728	1005.8	0.7
398.15	11360	0.181	951.5	0.6
398.15	11470	0.526	964.1	0.6
398.15	11510	0.963	979.7	0.7
398.15	20990	1.728	1010.3	0.8
398.15	21160	0.963	984.5	0.7
398.15	21320	0.181	956.3	0.7
398.15	21420	0.526	968.9	0.7
398.15	30360	0.963	988.6	0.7
398.15	30600	1.728	1014.6	0.8
398.15	30670	0.181	960.6	0.7
398.15	30910	0.526	973.3	0.7
398.15	36740	1.728	1017.2	0.8
398.15	37300	0.181	963.8	0.7
398.15	37380	0.526	976.4	0.7
398.15	37500	0.963	991.8	0.8
423.15	2000	0.963	954.9	0.6
423.15	2250	0.526	938.6	0.6
423.15	2410	0.181	925.6	0.6
423.15	2610	1.728	981.4	0.7
423.15	10350	0.181	930	0.6
423.15	10840	0.526	943.2	0.6
423.15	10850	0.963	959.5	0.7
423.15	10920	1.728	985.7	0.7
423.15	20650	0.963	964.2	0.7
423.15	20840	0.181	935.5	0.7
423.15	20960	0.526	948.5	0.7
423.15	21080	1.728	990.7	0.8
423.15	30150	0.181	940.3	0.7
423.15	30450	1.728	995.3	0.8
423.15	30520	0.526	953.4	0.7
423.15	31050	0.963	969.4	0.7
423.15	38160	0.963	972.9	0.8
423.15	38590	1.728	999.2	0.8
423.15	39010	0.181	944.8	0.7
423.15	39210	0.526	957.7	0.7
448.15	5550	0.526	916.4	0.6
448.15	5590	0.963	933.2	0.6
448.15	5590	1.728	960.6	0.7
448.15	5920	0.181	903.1	0.6
448.15	11590	0.526	920.2	0.6
448.15	11710	0.963	936.8	0.7
448.15	11890	1.728	964.2	0.7
448.15	12220	0.181	907	0.6
448.15	21280	1.728	969.4	0.8
448.15	21320	0.963	942.3	0.7
448.15	21440	0.526	926	0.7
448.15	21530	0.181	912.5	0.7
448.15	30750	1.728	974.4	0.8
448.15	31010	0.526	931.2	0.7
448.15	31050	0.181	918	0.7
448.15	31050	0.963	947.7	0.7
448.15	36110	0.963	950.4	0.8
448.15	36440	1.728	977.6	0.8
448.15	37050	0.526	934.6	0.7
448.15	37720	0.181	921.7	0.7
473.15	5630	0.963	907.7	0.6
473.15	5750	0.526	890.2	0.6
473.15	5750	1.728	936.2	0.7
473.15	6240	0.181	875.8	0.6
473.15	12080	0.963	912.1	0.7
473.15	12080	1.728	940.2	0.7
473.15	12120	0.526	894.5	0.6
473.15	12750	0.181	880.5	0.6
473.15	21440	0.963	918.1	0.7
473.15	21440	1.728	946.3	0.7
473.15	21730	0.181	886.8	0.6
473.15	21830	0.526	900.9	0.7
473.15	29730	0.181	892.1	0.7
473.15	30070	0.963	923.4	0.7
473.15	30480	0.526	906.5	0.7
473.15	30890	1.728	951.6	0.8
473.15	33580	0.963	925.5	0.7
473.15	33990	0.181	894.9	0.7
473.15	35540	1.728	954.5	0.8
473.15	36360	0.526	910.3	0.7
523.15	5670	0.181	809.9	0.6
523.15	5750	0.526	827.1	0.6
523.15	5840	0.963	847.3	0.6
523.15	5880	1.728	880	0.7
523.15	11940	0.181	816.6	0.6
523.15	12160	1.728	885.7	0.7
523.15	12420	0.526	833.5	0.6
523.15	12450	0.963	853.8	0.6
523.15	21690	1.728	893.7	0.7
523.15	22220	0.181	826.9	0.6
523.15	22420	0.526	843	0.7
523.15	22460	0.963	862.8	0.7
523.15	31170	1.728	900.9	0.8
523.15	31240	0.963	870.1	0.7
523.15	31830	0.526	851.6	0.7
523.15	31950	0.181	835.9	0.7
523.15	37460	0.963	875.1	0.7
523.15	37580	1.728	905.7	0.8
523.15	37990	0.181	841	0.7
523.15	39270	0.526	857.8	0.7
573.15	11670	1.728	816.5	0.7
573.15	12160	0.963	778.4	0.6
573.15	12450	0.181	732.4	0.6
573.15	12530	0.526	754.5	0.6
573.15	21650	0.181	748.5	0.6
573.15	21890	0.963	792.9	0.6
573.15	22750	1.728	830.6	0.7
573.15	22910	0.526	770.8	0.6
573.15	26600	0.963	798.9	0.7
573.15	31130	1.728	840.1	0.8
573.15	31690	0.526	783.1	0.7
573.15	32540	0.181	764.9	0.7
573.15	37720	0.526	790.3	0.7
573.15	38010	0.963	812.5	0.7
573.15	39640	0.181	774	0.7
