Measured thermophysical data. High pressure density and speed-of-sound measurements in n-undecane and  evidence of the effects of near-field diffraction
Source: J. Chem. Thermodyn., 2013, 10.1016/j.jct.2012.10.025
Compound 1: undecane, C11H24, InChI=1S/C11H24/c1-3-5-7-9-11-10-8-6-4-2/h3-11H2,1-2H3, purity 99%

System: undecane; phases: Liquid
Property: Mass density, kg/m3 (Liquid); method: Vibrating tube method
Pressure, kPa	Temperature, K	Mass density, kg/m3	uncertainty
1000	278	752.64	1.23
20000	278	764.19	1.28
40000	278	775.36	1.35
60000	278	785.14	1.43
1000	288	745.18	1.21
20000	288	757.29	1.27
40000	288	768.82	1.35
60000	288	778.9	1.43
1000	298	737.58	1.2
20000	298	750.5	1.26
40000	298	762.53	1.34
60000	298	773.01	1.43
1000	308	729.86	1.19
20000	308	743.8	1.26
40000	308	756.47	1.34
60000	308	767.47	1.43
1000	318	722.02	1.18
20000	318	737.19	1.25
40000	318	750.63	1.33
60000	318	762.26	1.42

System: undecane; phases: Liquid
Property: Speed of sound, m/s (Liquid); method: Pulse-echo method
Temperature, K	Pressure, kPa	Speed of sound, m/s	uncertainty
278	1000	1355.25	5.56
288	1000	1314.95	5.4
298	1000	1275.23	5.25
308	1000	1236.28	5.09
318	1000	1197.86	4.94
278	20000	1455.42	5.95
288	20000	1419.08	5.81
298	20000	1383.17	5.67
308	20000	1348.62	5.53
318	20000	1314.13	5.4
278	40000	1547.75	6.32
288	40000	1514.4	6.19
298	40000	1481.27	6.06
308	40000	1449.77	5.93
318	40000	1418.36	5.81
278	60000	1629.27	6.64
288	60000	1598.05	6.52
298	60000	1566.86	6.4
308	60000	1537.28	6.28
318	60000	1508.13	6.17
278	80000	1702.63	6.93
288	80000	1673.05	6.82
298	80000	1643.4	6.7
308	80000	1615.1	6.59
318	80000	1587.72	6.48
278	100000	1770.51	7.21
288	100000	1742.42	7.1
298	100000	1714.36	6.98
308	100000	1687.19	6.88
318	100000	1661.37	6.77
