Measured thermophysical data. Thermochemical studies of 3-methylpyrazole and 1,3,5-trimethylpyrazole
Source: J. Chem. Thermodyn., 2008, 10.1016/j.jct.2007.09.001
Compound 1: carbon dioxide, CO2, InChI=1S/CO2/c2-1-3
Compound 2: nitrogen, N2, InChI=1S/N2/c1-2
Compound 3: water, H2O, InChI=1S/H2O/h1H2
Compound 4: oxygen, O2, InChI=1S/O2/c1-2
Compound 5: 3-methylpyrazole, C4H6N2, InChI=1S/C4H6N2/c1-4-2-3-5-6-4/h2-3H,1H3,(H,5,6), purity 0.97%
Compound 6: 1,3,5-trimethylpyrazole, C6H10N2, InChI=1S/C6H10N2/c1-5-4-6(2)8(3)7-5/h4H,1-3H3, purity 0.97%

System: 3-methylpyrazole; phases: Liquid, Gas
Property: Molar enthalpy of transition or fusion, kJ/mol (Liquid); method: Calvet calorimetry with correction to 298 K for gas heat capacity
Temperature, K	Molar enthalpy of transition or fusion, kJ/mol	uncertainty
298.15	65.9	4

System: 1,3,5-trimethylpyrazole; phases: Crystal, Gas
Property: Molar enthalpy of transition or fusion, kJ/mol (Crystal); method: Calvet calorimetry with correction to 298 K for gas heat capacity
Temperature, K	Molar enthalpy of transition or fusion, kJ/mol	uncertainty
298.15	61.7	3.2

Reaction: -1 3-methylpyrazole + 4 carbon dioxide + 1 nitrogen + 3 water + -5.5 oxygen
Property: Specific internal energy of reaction at constant volume, J/g
-30504.1

Reaction: -1 1,3,5-trimethylpyrazole + 6 carbon dioxide + 1 nitrogen + 5 water + -8.5 oxygen
Property: Specific internal energy of reaction at constant volume, J/g
-34554.8
