Measured thermophysical data. Thermodynamics of dilute aqueous solutions of imidazolium based ionic liquids
Source: J. Chem. Thermodyn., 2011, 10.1016/j.jct.2011.01.013
Compound 1: 1-methyl-3-octylimidazolium tetrafluoroborate, C12H23BF4N2, InChI=1S/C12H23N2.BF4/c1-3-4-5-6-7-8-9-14-11-10-13(2)12-14;2-1(3,4)5/h10-12H,3-9H2,1-2H3;/q+1;-1, purity 98%
Compound 2: 1-butyl-3-methylimidazolium chloride, C8H15ClN2, InChI=1S/C8H15N2.ClH/c1-3-4-5-10-7-6-9(2)8-10;/h6-8H,3-5H2,1-2H3;1H/q+1;/p-1, purity 98%
Compound 3: 1-methyl-3-octylimidazolium chloride, C12H23ClN2, InChI=1S/C12H23N2.ClH/c1-3-4-5-6-7-8-9-14-11-10-13(2)12-14;/h10-12H,3-9H2,1-2H3;1H/q+1;/p-1, purity 98%
Compound 4: 1-butyl-3-methylimidazolium methyl sulfate, C9H18N2O4S, InChI=1S/C8H15N2.CH4O4S/c1-3-4-5-10-7-6-9(2)8-10;1-5-6(2,3)4/h6-8H,3-5H2,1-2H3;1H3,(H,2,3,4)/q+1;/p-1, purity 98%
Compound 5: 1-butyl-3-methylimidazolium tetrafluoroborate, C8H15BF4N2, InChI=1S/C8H15N2.BF4/c1-3-4-5-10-7-6-9(2)8-10;2-1(3,4)5/h6-8H,3-5H2,1-2H3;/q+1;-1, purity 98%
Compound 6: 1-butyl-3-methylimidazolium octyl sulfate, C16H32N2O4S, InChI=1S/C8H15N2.C8H18O4S/c1-3-4-5-10-7-6-9(2)8-10;1-2-3-4-5-6-7-8-12-13(9,10)11/h6-8H,3-5H2,1-2H3;2-8H2,1H3,(H,9,10,11)/q+1;/p-1, purity 98%
Compound 7: water, H2O, InChI=1S/H2O/h1H2

System: water + 1-butyl-3-methylimidazolium tetrafluoroborate; phases: Liquid
Fixed: Temperature, K = 298.15
Fixed: Pressure, kPa = 101
Property: Viscosity, Pa*s (Liquid); method: Capillary tube (Ostwald; Ubbelohde) method
Molality, mol/kg of 1-butyl-3-methylimidazolium tetrafluoroborate	Viscosity, Pa*s	uncertainty
0.00382	0.0008922	7.9e-06
0.01067	0.0008943	8e-06
0.02196	0.0008986	8e-06
0.03489	0.0009024	8e-06
0.04696	0.0009053	8e-06
0.05635	0.0009095	8e-06
0.0662	0.0009133	8e-06
0.07543	0.0009162	8e-06
0.08767	0.0009198	8.1e-06
0.09802	0.0009239	8.1e-06

System: water + 1-butyl-3-methylimidazolium tetrafluoroborate; phases: Liquid
Fixed: Temperature, K = 298.15
Fixed: Pressure, kPa = 101
Property: Speed of sound, m/s (Liquid); method: Sing-around technique in a fixed-path interferometer
Molality, mol/kg of 1-butyl-3-methylimidazolium tetrafluoroborate	Speed of sound, m/s	uncertainty
0.0151	1497.7	0.9
0.0355	1499.1	0.9
0.0764	1502	1
0.1052	1504	1
0.1284	1505.5	1
0.1538	1507.3	1
0.1803	1509.1	1
0.2059	1510.9	1
0.2269	1512.3	1
0.2505	1513.9	1

System: water + 1-butyl-3-methylimidazolium tetrafluoroborate; phases: Liquid
Fixed: Temperature, K = 298.15
Fixed: Pressure, kPa = 101
Property: Mass density, kg/m3 (Liquid); method: Vibrating tube method
Molality, mol/kg of 1-butyl-3-methylimidazolium tetrafluoroborate	Mass density, kg/m3	uncertainty
0.0151	997.61	0.4
0.0355	998.36	0.4
0.0764	999.85	0.4
0.1052	1000.89	0.41
0.1284	1001.72	0.41
0.1538	1002.64	0.41
0.1803	1003.58	0.41
0.2059	1004.49	0.41
0.2269	1005.22	0.41
0.2505	1006.06	0.41

System: water + 1-methyl-3-octylimidazolium tetrafluoroborate; phases: Liquid
Fixed: Temperature, K = 298.15
Fixed: Pressure, kPa = 101
Property: Viscosity, Pa*s (Liquid); method: Capillary tube (Ostwald; Ubbelohde) method
Molality, mol/kg of 1-methyl-3-octylimidazolium tetrafluoroborate	Viscosity, Pa*s	uncertainty
0.00225	0.0008929	7.9e-06
0.00773	0.0008974	8e-06
0.01093	0.0008997	8e-06
0.01518	0.0009029	8e-06
0.01948	0.0009059	8e-06
0.02476	0.0009094	8e-06
0.0311	0.000914	8e-06
0.03923	0.0009201	8e-06
0.04705	0.0009255	8.1e-06

System: water + 1-methyl-3-octylimidazolium tetrafluoroborate; phases: Liquid
Fixed: Temperature, K = 298.15
Fixed: Pressure, kPa = 101
Property: Speed of sound, m/s (Liquid); method: Sing-around technique in a fixed-path interferometer
Molality, mol/kg of 1-methyl-3-octylimidazolium tetrafluoroborate	Speed of sound, m/s	uncertainty
0.0045	1497.4	0.9
0.0058	1497.5	0.9
0.0077	1497.8	0.9
0.0112	1498.3	0.9
0.017	1499	0.9
0.0196	1499.4	0.9
0.0235	1499.9	0.9
0.0264	1500.3	0.9
0.0369	1501.7	1
0.0428	1502.5	1
0.0454	1502.9	1

System: water + 1-methyl-3-octylimidazolium tetrafluoroborate; phases: Liquid
Fixed: Temperature, K = 298.15
Fixed: Pressure, kPa = 101
Property: Mass density, kg/m3 (Liquid); method: Vibrating tube method
Molality, mol/kg of 1-methyl-3-octylimidazolium tetrafluoroborate	Mass density, kg/m3	uncertainty
0.0045	997.19	0.4
0.0058	997.23	0.4
0.0077	997.29	0.4
0.0112	997.4	0.4
0.017	997.58	0.4
0.0196	997.66	0.4
0.0235	997.78	0.4
0.0264	997.87	0.4
0.0369	998.19	0.4
0.0428	998.37	0.4
0.0454	998.45	0.4

System: water + 1-butyl-3-methylimidazolium chloride; phases: Liquid
Fixed: Temperature, K = 298.15
Fixed: Pressure, kPa = 101
Property: Viscosity, Pa*s (Liquid); method: Capillary tube (Ostwald; Ubbelohde) method
Molality, mol/kg of 1-butyl-3-methylimidazolium chloride	Viscosity, Pa*s	uncertainty
0.01554	0.0008981	8e-06
0.01952	0.0009005	8e-06
0.0252	0.0009024	8e-06
0.03495	0.0009062	8e-06
0.04454	0.0009101	8e-06
0.05402	0.0009143	8e-06
0.06772	0.0009197	8e-06
0.08128	0.0009258	8.1e-06
0.09508	0.0009323	8.1e-06
0.1132	0.0009412	8.1e-06

System: water + 1-butyl-3-methylimidazolium chloride; phases: Liquid
Fixed: Temperature, K = 298.15
Fixed: Pressure, kPa = 101
Property: Speed of sound, m/s (Liquid); method: Sing-around technique in a fixed-path interferometer
Molality, mol/kg of 1-butyl-3-methylimidazolium chloride	Speed of sound, m/s	uncertainty
0.0123	1498.3	0.9
0.02	1499.3	0.9
0.0279	1500.3	0.9
0.0349	1501.2	0.9
0.0404	1501.9	0.9
0.0624	1504.8	1
0.107	1510.6	1
0.1175	1512	1
0.1296	1513.5	1
0.1521	1516.5	1
0.1677	1518.6	1
0.1852	1520.9	1
0.2113	1524.3	1
0.236	1527.6	1
0.2591	1530.7	1
0.2718	1532.4	1

System: water + 1-butyl-3-methylimidazolium chloride; phases: Liquid
Fixed: Temperature, K = 298.15
Fixed: Pressure, kPa = 101
Property: Mass density, kg/m3 (Liquid); method: Vibrating tube method
Molality, mol/kg of 1-butyl-3-methylimidazolium chloride	Mass density, kg/m3	uncertainty
0.0123	997.21	0.4
0.02	997.31	0.4
0.0279	997.41	0.4
0.0349	997.5	0.4
0.0404	997.57	0.4
0.0624	997.85	0.4
0.107	998.41	0.4
0.1175	998.54	0.4
0.1296	998.69	0.4
0.1521	998.97	0.4
0.1677	999.16	0.4
0.1852	999.38	0.4
0.2113	999.7	0.4
0.236	1000.01	0.41
0.2591	1000.29	0.41
0.2718	1000.45	0.41

System: water + 1-methyl-3-octylimidazolium chloride; phases: Liquid
Fixed: Temperature, K = 298.15
Fixed: Pressure, kPa = 101
Property: Viscosity, Pa*s (Liquid); method: Capillary tube (Ostwald; Ubbelohde) method
Molality, mol/kg of 1-methyl-3-octylimidazolium chloride	Viscosity, Pa*s	uncertainty
0.0074	0.0008986	8e-06
0.01484	0.0009052	8e-06
0.02425	0.0009131	8e-06
0.04255	0.0009281	8.1e-06
0.05607	0.0009387	8.1e-06
0.06607	0.000946	8.1e-06
0.07893	0.000956	8.2e-06
0.0928	0.000968	8.2e-06
0.10611	0.0009779	8.3e-06

System: water + 1-methyl-3-octylimidazolium chloride; phases: Liquid
Fixed: Temperature, K = 298.15
Fixed: Pressure, kPa = 101
Property: Speed of sound, m/s (Liquid); method: Sing-around technique in a fixed-path interferometer
Molality, mol/kg of 1-methyl-3-octylimidazolium chloride	Speed of sound, m/s	uncertainty
0.0127	1499.2	0.9
0.017	1500	0.9
0.0272	1502	0.9
0.039	1504.4	1
0.0555	1507.5	1
0.0693	1510.1	1
0.0892	1513.8	1
0.1002	1515.7	1
0.1179	1518.5	1
0.1353	1521.5	1
0.1679	1526.8	1
0.183	1529.5	1
0.1948	1531.3	1

System: water + 1-methyl-3-octylimidazolium chloride; phases: Liquid
Fixed: Temperature, K = 298.15
Fixed: Pressure, kPa = 101
Property: Mass density, kg/m3 (Liquid); method: Vibrating tube method
Molality, mol/kg of 1-methyl-3-octylimidazolium chloride	Mass density, kg/m3	uncertainty
0.0127	997.14	0.4
0.017	997.17	0.4
0.0272	997.24	0.4
0.039	997.32	0.4
0.0555	997.43	0.4
0.0693	997.52	0.4
0.0892	997.65	0.4
0.1002	997.72	0.4
0.1179	997.83	0.4
0.1353	997.94	0.4
0.1679	998.14	0.4
0.183	998.23	0.4
0.1948	998.3	0.4

System: water + 1-butyl-3-methylimidazolium methyl sulfate; phases: Liquid
Fixed: Temperature, K = 298.15
Fixed: Pressure, kPa = 101
Property: Viscosity, Pa*s (Liquid); method: Capillary tube (Ostwald; Ubbelohde) method
Molality, mol/kg of 1-butyl-3-methylimidazolium methyl sulfate	Viscosity, Pa*s	uncertainty
0.00791	0.0008954	8e-06
0.01626	0.0008999	8e-06
0.02449	0.0009046	8e-06
0.0329	0.0009095	8e-06
0.04142	0.0009133	8e-06
0.0522	0.0009182	8e-06
0.06083	0.0009236	8.1e-06
0.07206	0.0009287	8.1e-06
0.08297	0.0009354	8.1e-06
0.09627	0.0009428	8.1e-06

System: water + 1-butyl-3-methylimidazolium methyl sulfate; phases: Liquid
Fixed: Temperature, K = 298.15
Fixed: Pressure, kPa = 101
Property: Speed of sound, m/s (Liquid); method: Sing-around technique in a fixed-path interferometer
Molality, mol/kg of 1-butyl-3-methylimidazolium methyl sulfate	Speed of sound, m/s	uncertainty
0.0096	1497.95	0.94
0.0289	1500.45	0.95
0.0411	1502.02	0.95
0.0584	1504.25	0.95
0.0828	1507.24	0.96
0.1188	1511.96	0.96
0.1481	1515.7	1
0.1736	1518.98	0.97
0.2021	1522.61	0.98
0.2252	1525.56	0.98

System: water + 1-butyl-3-methylimidazolium methyl sulfate; phases: Liquid
Fixed: Temperature, K = 298.15
Fixed: Pressure, kPa = 101
Property: Mass density, kg/m3 (Liquid); method: Vibrating tube method
Molality, mol/kg of 1-butyl-3-methylimidazolium methyl sulfate	Mass density, kg/m3	uncertainty
0.0096	997.41	0.4
0.0289	998.13	0.4
0.0411	998.59	0.4
0.0584	999.23	0.4
0.0828	1000.11	0.4
0.1188	1001.49	0.41
0.1481	1002.58	0.41
0.1736	1003.51	0.41
0.2021	1004.58	0.41
0.2252	1005.44	0.41

System: water + 1-butyl-3-methylimidazolium octyl sulfate; phases: Liquid
Fixed: Temperature, K = 298.15
Fixed: Pressure, kPa = 101
Property: Viscosity, Pa*s (Liquid); method: Capillary tube (Ostwald; Ubbelohde) method
Molality, mol/kg of 1-butyl-3-methylimidazolium octyl sulfate	Viscosity, Pa*s	uncertainty
0.00921	0.0009054	8e-06
0.01899	0.0009173	8e-06
0.02803	0.0009278	8.1e-06
0.03646	0.0009388	8.1e-06
0.04596	0.0009507	8.2e-06
0.05551	0.0009615	8.2e-06
0.06482	0.0009748	8.2e-06
0.07522	0.0009873	8.3e-06
0.08499	0.0009986	8.3e-06
0.0981	0.0010151	8.4e-06

System: water + 1-butyl-3-methylimidazolium octyl sulfate; phases: Liquid
Fixed: Temperature, K = 298.15
Fixed: Pressure, kPa = 101
Property: Speed of sound, m/s (Liquid); method: Sing-around technique in a fixed-path interferometer
Molality, mol/kg of 1-butyl-3-methylimidazolium octyl sulfate	Speed of sound, m/s	uncertainty
0.008	1498.5	0.9
0.0148	1500.1	0.9
0.0215	1501.6	1
0.0301	1503.6	1
0.035	1504.7	1
0.0423	1506.2	1
0.0492	1506.9	1
0.0668	1507.5	1
0.0888	1508.1	1
0.1542	1509.5	1
0.2466	1511.6	1
0.3369	1513.9	1

System: water + 1-butyl-3-methylimidazolium octyl sulfate; phases: Liquid
Fixed: Temperature, K = 298.15
Fixed: Pressure, kPa = 101
Property: Mass density, kg/m3 (Liquid); method: Vibrating tube method
Molality, mol/kg of 1-butyl-3-methylimidazolium octyl sulfate	Mass density, kg/m3	uncertainty
0.008	997.23	0.4
0.0148	997.38	0.4
0.0215	997.53	0.4
0.0301	997.72	0.4
0.035	997.83	0.4
0.0423	997.99	0.4
0.0492	998.14	0.4
0.0668	998.52	0.4
0.0888	998.99	0.4
0.1542	1000.35	0.41
0.2466	1002.19	0.41
0.3369	1003.92	0.41
