Measured thermophysical data. (Liquid + liquid) equilibria of (water + butyric acid + esters) ternary systems
Source: J. Chem. Thermodyn., 2007, 10.1016/j.jct.2007.01.013
Compound 1: water, H2O, InChI=1S/H2O/h1H2
Compound 2: butanoic acid, C4H8O2, InChI=1S/C4H8O2/c1-2-3-4(5)6/h2-3H2,1H3,(H,5,6), purity 99%
Compound 3: ethyl propanoate, C5H10O2, InChI=1S/C5H10O2/c1-3-5(6)7-4-2/h3-4H2,1-2H3, purity 99%
Compound 4: dimethyl 1,2-benzenedicarboxylate, C10H10O4, InChI=1S/C10H10O4/c1-13-9(11)7-5-3-4-6-8(7)10(12)14-2/h3-6H,1-2H3, purity 99%
Compound 5: dibutyl phthalate, C16H22O4, InChI=1S/C16H22O4/c1-3-5-11-19-15(17)13-9-7-8-10-14(13)16(18)20-12-6-4-2/h7-10H,3-6,11-12H2,1-2H3, purity 99%

System: butanoic acid; phases: Liquid, Gas
Property: Normal boiling temperature, K (Liquid); method: Distillation
Normal boiling temperature, K	uncertainty
436.7	0.2

System: butanoic acid; phases: Liquid
Property: Refractive index (Na D-line) (Liquid); method: Standard Abbe refractometry
Temperature, K	Pressure, kPa	Refractive index (Na D-line)	uncertainty
293.15	101.325	1.3975	0.0007

System: butanoic acid; phases: Liquid
Property: Mass density, kg/m3 (Liquid); method: VIBTUB:UFactor:8
Temperature, K	Pressure, kPa	Mass density, kg/m3	uncertainty
293.15	101.325	952.8	0.75

System: ethyl propanoate; phases: Liquid, Gas
Property: Normal boiling temperature, K (Liquid); method: Distillation
Normal boiling temperature, K	uncertainty
372.2	0.2

System: ethyl propanoate; phases: Liquid
Property: Refractive index (Na D-line) (Liquid); method: Standard Abbe refractometry
Temperature, K	Pressure, kPa	Refractive index (Na D-line)	uncertainty
293.15	101.325	1.38394	0.0007

System: ethyl propanoate; phases: Liquid
Property: Mass density, kg/m3 (Liquid); method: VIBTUB:UFactor:8
Temperature, K	Pressure, kPa	Mass density, kg/m3	uncertainty
298	101.325	884.35	1

System: dimethyl 1,2-benzenedicarboxylate; phases: Liquid, Gas
Property: Normal boiling temperature, K (Liquid); method: Distillation
Normal boiling temperature, K	uncertainty
556.8	0.2

System: dimethyl 1,2-benzenedicarboxylate; phases: Liquid
Property: Refractive index (Na D-line) (Liquid); method: Standard Abbe refractometry
Temperature, K	Pressure, kPa	Refractive index (Na D-line)	uncertainty
293.15	101.325	1.51384	0.0007

System: dimethyl 1,2-benzenedicarboxylate; phases: Liquid
Property: Mass density, kg/m3 (Liquid); method: VIBTUB:UFactor:8
Temperature, K	Pressure, kPa	Mass density, kg/m3	uncertainty
293.15	101.325	1190.53	1.47

System: dibutyl phthalate; phases: Liquid, Gas
Property: Normal boiling temperature, K (Liquid); method: Distillation
Normal boiling temperature, K	uncertainty
613.3	0.2

System: dibutyl phthalate; phases: Liquid
Property: Refractive index (Na D-line) (Liquid); method: Standard Abbe refractometry
Temperature, K	Pressure, kPa	Refractive index (Na D-line)	uncertainty
293.15	101.325	1.49114	0.0007

System: dibutyl phthalate; phases: Liquid
Property: Mass density, kg/m3 (Liquid); method: VIBTUB:UFactor:8
Temperature, K	Pressure, kPa	Mass density, kg/m3	uncertainty
293.15	101.325	1046.54	0.79

System: ethyl propanoate + butanoic acid + water; phases: Liquid mixture 1, Liquid mixture 2
Fixed: Pressure, kPa = 101.325
Fixed: Temperature, K = 298.15
Property: Mass fraction of butanoic acid (Liquid mixture 1); method: CHROM:UFactor:4
Property: Mass fraction of water (Liquid mixture 2); method: CHROM:UFactor:4
Property: Mass fraction of butanoic acid (Liquid mixture 2); method: CHROM:UFactor:4
Mass fraction of water	Mass fraction of butanoic acid	uncertainty	Mass fraction of water	uncertainty	Mass fraction of butanoic acid	uncertainty
0.9666	0.0241	0.001	0.0421	0.0034	0.1437	
0.9494	0.0414	0.0017	0.0583	0.0047	0.2523	
0.9407	0.0502	0.002	0.0885	0.0071	0.3521	
0.9282	0.0628	0.0025	0.1051	0.0084	0.4308	
0.9149	0.0762	0.003	0.1355	0.0108	0.5119	
0.8987	0.0925	0.0037	0.1802	0.0144	0.5765	

System: ethyl propanoate + butanoic acid + water; phases: Liquid mixture 1, Liquid mixture 2
Fixed: Temperature, K = 298.15
Fixed: Pressure, kPa = 101.325
Property: Mass fraction of butanoic acid (Liquid mixture 1); method: Titration method
Mass fraction of water	Mass fraction of butanoic acid	uncertainty
0.0152	0	0.0001
0.0242	0.0458	0.02
0.0381	0.1173	0.0203
0.0469	0.1701	0.0206
0.0552	0.2311	0.021
0.0753	0.2978	0.0217
0.097	0.3948	0.0229
0.1038	0.4207	0.0233
0.1165	0.4637	0.0239
0.1437	0.5272	0.0241
0.1836	0.5838	0.0232
0.253	0.5925	0.0231
0.373	0.5529	0.0237
0.5031	0.4565	0.0238
0.5791	0.3909	0.0229
0.6573	0.3211	0.022
0.737	0.2487	0.0212
0.813	0.1773	0.0206
0.871	0.1197	0.0203
0.943	0.0481	0.02
0.9913	0	0.0001

System: butanoic acid + dimethyl 1,2-benzenedicarboxylate + water; phases: Liquid mixture 1, Liquid mixture 2
Fixed: Pressure, kPa = 101.325
Fixed: Temperature, K = 298.15
Property: Mass fraction of butanoic acid (Liquid mixture 1); method: CHROM:UFactor:4
Property: Mass fraction of water (Liquid mixture 2); method: CHROM:UFactor:4
Property: Mass fraction of butanoic acid (Liquid mixture 2); method: CHROM:UFactor:4
Mass fraction of water	Mass fraction of butanoic acid	uncertainty	Mass fraction of water	uncertainty	Mass fraction of butanoic acid	uncertainty
0.9634	0.0312	0.0012	0.0411	0.0016	0.1024	
0.9403	0.0538	0.0022	0.0698	0.0028	0.2127	
0.9202	0.0738	0.003	0.0923	0.0037	0.2915	
0.9146	0.0793	0.0032	0.1302	0.0052	0.3795	
0.9038	0.09	0.0036	0.1597	0.0064	0.4266	
0.8886	0.1051	0.0042	0.2061	0.0082	0.4887	

System: butanoic acid + dimethyl 1,2-benzenedicarboxylate + water; phases: Liquid mixture 1, Liquid mixture 2
Fixed: Temperature, K = 298.15
Fixed: Pressure, kPa = 101.325
Property: Mass fraction of butanoic acid (Liquid mixture 1); method: Titration method
Mass fraction of water	Mass fraction of butanoic acid	uncertainty
0.0145	0	0.0001
0.021	0.0489	0.02
0.0447	0.122	0.0203
0.0624	0.1756	0.0206
0.0743	0.2339	0.0211
0.0989	0.301	0.0217
0.1398	0.3967	0.0229
0.1795	0.4536	0.0238
0.2052	0.4829	0.0242
0.2262	0.5107	0.0243
0.3489	0.5203	0.0242
0.4946	0.4425	0.0236
0.5737	0.3805	0.0227
0.6528	0.3153	0.0219
0.7409	0.2404	0.0211
0.8106	0.1785	0.0206
0.8727	0.121	0.0203
0.9422	0.052	0.0201
0.9952	0	0.0001

System: dibutyl phthalate + butanoic acid + water; phases: Liquid mixture 1, Liquid mixture 2
Fixed: Pressure, kPa = 101.325
Fixed: Temperature, K = 298.15
Property: Mass fraction of butanoic acid (Liquid mixture 1); method: CHROM:UFactor:4
Property: Mass fraction of water (Liquid mixture 2); method: CHROM:UFactor:4
Property: Mass fraction of butanoic acid (Liquid mixture 2); method: CHROM:UFactor:4
Mass fraction of water	Mass fraction of butanoic acid	uncertainty	Mass fraction of water	uncertainty	Mass fraction of butanoic acid	uncertainty
0.9515	0.0473	0.0019	0.0072	0.0006	0.1151	
0.9206	0.0782	0.0031	0.0231	0.0018	0.2325	
0.9037	0.095	0.0038	0.0413	0.0033	0.3275	
0.8863	0.1124	0.0045	0.0664	0.0053	0.4463	
0.8771	0.1215	0.0049	0.0881	0.007	0.503	
0.8663	0.1322	0.0053	0.1352	0.0108	0.5734	

System: dibutyl phthalate + butanoic acid + water; phases: Liquid mixture 1, Liquid mixture 2
Fixed: Temperature, K = 298.15
Fixed: Pressure, kPa = 101.325
Property: Mass fraction of butanoic acid (Liquid mixture 1); method: Titration method
Mass fraction of water	Mass fraction of butanoic acid	uncertainty
0.0013	0	0.0001
0.0026	0.05	0.0201
0.0074	0.124	0.0203
0.0173	0.1823	0.0207
0.0258	0.2496	0.0212
0.0401	0.3178	0.0219
0.0646	0.4295	0.0234
0.0668	0.4483	0.0237
0.0881	0.5034	0.0244
0.1102	0.5367	0.0239
0.1571	0.5902	0.0231
0.2668	0.6054	0.0229
0.3765	0.5579	0.0236
0.5122	0.4561	0.0238
0.5843	0.3942	0.0229
0.6663	0.3215	0.022
0.7458	0.249	0.0212
0.8181	0.18	0.0206
0.8763	0.1224	0.0203
0.9518	0.047	0.02
0.9994	0	0.0001

System: ethyl propanoate + water; phases: Liquid mixture 1, Liquid mixture 2
Fixed: Temperature, K = 298.15
Fixed: Pressure, kPa = 101.325
Property: Mass fraction of water (Liquid mixture 1); method: Titration method
Mass fraction of water	uncertainty
0.0152	
0.9913	

System: dimethyl 1,2-benzenedicarboxylate + water; phases: Liquid mixture 1, Liquid mixture 2
Fixed: Temperature, K = 298.15
Fixed: Pressure, kPa = 101.325
Property: Mass fraction of water (Liquid mixture 1); method: Titration method
Mass fraction of water	uncertainty
0.0145	
0.9952	

System: dibutyl phthalate + water; phases: Liquid mixture 1, Liquid mixture 2
Fixed: Temperature, K = 298.15
Fixed: Pressure, kPa = 101.325
Property: Mass fraction of water (Liquid mixture 1); method: Titration method
Mass fraction of water	uncertainty
0.0013	
0.9994	
