Measured thermophysical data. Volumetric properties of aqueous solutions of malonic acid
Source: J. Chem. Thermodyn., 2016, 10.1016/j.jct.2016.06.023
Compound 1: propanedioic acid, C3H4O4, InChI=1S/C3H4O4/c4-2(5)1-3(6)7/h1H2,(H,4,5)(H,6,7), purity 99%
Compound 2: water, H2O, InChI=1S/H2O/h1H2

System: water; phases: Liquid
Fixed: Pressure, kPa = 101.3
Property: Mass density, kg/m3 (Liquid); method: Vibrating tube method
Temperature, K	Mass density, kg/m3	uncertainty
278.15	999.99	0.4
283.15	999.73	0.41
288.15	999.13	0.41
293.15	998.23	0.41
298.15	997.05	0.41
303.15	995.68	0.41
308.15	994.06	0.41
313.15	992.24	0.4
318.15	990.24	0.4
323.15	988.07	0.4
328.15	985.73	0.4
333.15	983.24	0.4
338.15	980.59	0.4
343.15	977.81	0.4

System: propanedioic acid + water; phases: Liquid
Fixed: Pressure, kPa = 101.3
Property: Mass density, kg/m3 (Liquid); method: Vibrating tube method
Temperature, K	Molality, mol/kg of propanedioic acid	Mass density, kg/m3	uncertainty
278.15	0	999.99	0.4
278.15	0.01001	1000.48	0.4
278.15	0.02001	1000.91	0.4
278.15	0.03	1001.31	0.4
278.15	0.03962	1001.73	0.4
278.15	0.04998	1002.16	0.4
278.15	0.05936	1002.53	0.4
278.15	0.06926	1002.93	0.4
278.15	0.07949	1003.34	0.4
278.15	0.08906	1003.73	0.4
278.15	0.09935	1004.11	0.4
278.15	0.1984	1008.06	0.4
278.15	0.2977	1011.96	0.4
278.15	0.404	1016	0.4
278.15	0.5055	1019.85	0.4
278.15	0.6055	1023.51	0.4
278.15	0.6936	1026.73	0.4
278.15	0.7926	1030.29	0.41
278.15	0.891	1033.82	0.41
278.15	0.9895	1037.16	0.41
283.15	0	999.73	0.41
283.15	0.01001	1000.21	0.4
283.15	0.02001	1000.62	0.4
283.15	0.03	1001	0.4
283.15	0.03962	1001.4	0.4
283.15	0.04998	1001.83	0.4
283.15	0.05936	1002.19	0.4
283.15	0.06926	1002.58	0.4
283.15	0.07949	1002.98	0.4
283.15	0.08906	1003.36	0.4
283.15	0.09935	1003.73	0.4
283.15	0.1984	1007.6	0.4
283.15	0.2977	1011.4	0.4
283.15	0.404	1015.36	0.4
283.15	0.5055	1019.12	0.4
283.15	0.6055	1022.71	0.4
283.15	0.6936	1025.86	0.4
283.15	0.7926	1029.35	0.4
283.15	0.891	1032.8	0.41
283.15	0.9895	1036.1	0.41
288.15	0	999.13	0.41
288.15	0.01001	999.61	0.4
288.15	0.02001	1000.03	0.4
288.15	0.03	1000.4	0.4
288.15	0.03962	1000.79	0.4
288.15	0.04998	1001.21	0.4
288.15	0.05936	1001.57	0.4
288.15	0.06926	1001.95	0.4
288.15	0.07949	1002.34	0.4
288.15	0.08906	1002.71	0.4
288.15	0.09935	1003.07	0.4
288.15	0.1984	1006.87	0.4
288.15	0.2977	1010.6	0.4
288.15	0.404	1014.47	0.4
288.15	0.5055	1018.15	0.4
288.15	0.6055	1021.67	0.4
288.15	0.6936	1024.77	0.4
288.15	0.7926	1028.19	0.4
288.15	0.891	1031.58	0.4
288.15	0.9895	1034.82	0.41
293.15	0	998.23	0.41
293.15	0.01001	998.7	0.4
293.15	0.02001	999.1	0.4
293.15	0.03	999.47	0.4
293.15	0.03962	999.85	0.4
293.15	0.04998	1000.27	0.4
293.15	0.05936	1000.61	0.4
293.15	0.06926	1000.99	0.4
293.15	0.07949	1001.37	0.4
293.15	0.08906	1001.73	0.4
293.15	0.09935	1002.12	0.4
293.15	0.1984	1005.8	0.4
293.15	0.2977	1009.46	0.4
293.15	0.404	1013.26	0.4
293.15	0.5055	1016.89	0.4
293.15	0.6055	1020.35	0.4
293.15	0.6936	1023.39	0.4
293.15	0.7926	1026.76	0.4
293.15	0.891	1030.1	0.4
293.15	0.9895	1033.27	0.41
298.15	0	997.05	0.41
298.15	0.01001	997.52	0.4
298.15	0.02001	997.93	0.4
298.15	0.03	998.3	0.4
298.15	0.03962	998.66	0.4
298.15	0.04998	999.07	0.4
298.15	0.05936	999.4	0.4
298.15	0.06926	999.78	0.4
298.15	0.07949	1000.15	0.4
298.15	0.08906	1000.52	0.4
298.15	0.09935	1000.89	0.4
298.15	0.1984	1004.55	0.4
298.15	0.2977	1008.15	0.4
298.15	0.404	1011.88	0.4
298.15	0.5055	1015.45	0.4
298.15	0.6055	1018.85	0.4
298.15	0.6936	1021.85	0.4
298.15	0.7926	1025.16	0.4
298.15	0.891	1028.44	0.4
298.15	0.9895	1031.58	0.4
303.15	0	995.68	0.41
303.15	0.01001	996.14	0.4
303.15	0.02001	996.53	0.4
303.15	0.03	996.9	0.4
303.15	0.03962	997.28	0.4
303.15	0.04998	997.66	0.4
303.15	0.05936	997.99	0.4
303.15	0.06926	998.37	0.4
303.15	0.07949	998.72	0.4
303.15	0.08906	999.08	0.4
303.15	0.09935	999.45	0.4
303.15	0.1984	1003.05	0.4
303.15	0.2977	1006.6	0.4
303.15	0.404	1010.27	0.4
303.15	0.5055	1013.79	0.4
303.15	0.6055	1017.14	0.4
303.15	0.6936	1020.08	0.4
303.15	0.7926	1023.35	0.4
303.15	0.891	1026.58	0.4
303.15	0.9895	1029.66	0.4
308.15	0	994.06	0.41
308.15	0.01001	994.51	0.4
308.15	0.02001	994.89	0.4
308.15	0.03	995.23	0.4
308.15	0.03962	995.6	0.4
308.15	0.04998	996	0.4
308.15	0.05936	996.33	0.4
308.15	0.06926	996.69	0.4
308.15	0.07949	997.06	0.4
308.15	0.08906	997.4	0.4
308.15	0.09935	997.74	0.4
308.15	0.1984	1001.28	0.4
308.15	0.2977	1004.77	0.4
308.15	0.404	1008.39	0.4
308.15	0.5055	1011.84	0.4
308.15	0.6055	1015.15	0.4
308.15	0.6936	1018.07	0.4
308.15	0.7926	1021.29	0.4
308.15	0.891	1024.47	0.4
308.15	0.9895	1027.51	0.4
313.15	0	992.24	0.4
313.15	0.01001	992.67	0.4
313.15	0.02001	993.03	0.4
313.15	0.03	993.37	0.4
313.15	0.03962	993.74	0.4
313.15	0.04998	994.12	0.4
313.15	0.05936	994.45	0.4
313.15	0.06926	994.8	0.4
313.15	0.07949	995.16	0.4
313.15	0.08906	995.51	0.4
313.15	0.09935	995.86	0.4
313.15	0.1984	999.32	0.4
313.15	0.2977	1002.76	0.4
313.15	0.404	1006.4	0.4
313.15	0.5055	1009.9	0.4
313.15	0.6055	1013.17	0.4
313.15	0.6936	1016.02	0.4
313.15	0.7926	1019.25	0.4
313.15	0.891	1022.41	0.4
313.15	0.9895	1025.39	0.4
318.15	0	990.24	0.4
318.15	0.01001	990.67	0.4
318.15	0.02001	991.04	0.4
318.15	0.03	991.39	0.4
318.15	0.03962	991.75	0.4
318.15	0.04998	992.09	0.4
318.15	0.05936	992.44	0.4
318.15	0.06926	992.8	0.4
318.15	0.07949	993.16	0.4
318.15	0.08906	993.49	0.4
318.15	0.09935	993.83	0.4
318.15	0.1984	997.27	0.4
318.15	0.2977	1000.66	0.4
318.15	0.404	1004.17	0.4
318.15	0.5055	1007.57	0.4
318.15	0.6055	1010.78	0.4
318.15	0.6936	1013.61	0.4
318.15	0.7926	1016.73	0.4
318.15	0.891	1019.67	0.4
318.15	0.9895	1022.8	0.4
323.15	0	988.07	0.4
323.15	0.01001	988.48	0.4
323.15	0.02001	988.85	0.4
323.15	0.03	989.19	0.4
323.15	0.03962	989.54	0.4
323.15	0.04998	989.92	0.4
323.15	0.05936	990.24	0.4
323.15	0.06926	990.58	0.4
323.15	0.07949	990.94	0.4
323.15	0.08906	991.26	0.4
323.15	0.09935	991.63	0.4
323.15	0.1984	995	0.4
323.15	0.2977	998.36	0.4
323.15	0.404	1001.82	0.4
323.15	0.5055	1005.17	0.4
323.15	0.6055	1008.36	0.4
323.15	0.6936	1011.15	0.4
323.15	0.7926	1014.23	0.4
323.15	0.891	1017.35	0.4
323.15	0.9895	1020.22	0.4
328.15	0	985.73	0.4
328.15	0.01001	986.12	0.4
328.15	0.02001	986.5	0.4
328.15	0.03	986.83	0.4
328.15	0.03962	987.17	0.4
328.15	0.04998	987.55	0.4
328.15	0.05936	987.86	0.4
328.15	0.06926	988.21	0.4
328.15	0.07949	988.56	0.4
328.15	0.08906	988.89	0.4
328.15	0.09935	989.26	0.4
328.15	0.1984	992.58	0.4
328.15	0.2977	995.89	0.4
328.15	0.404	999.32	0.4
328.15	0.5055	1002.63	0.4
328.15	0.6055	1005.78	0.4
328.15	0.6936	1008.54	0.4
328.15	0.7926	1011.64	0.4
328.15	0.891	1014.68	0.4
328.15	0.9895	1017.49	0.4
333.15	0	983.24	0.4
333.15	0.01001	983.63	0.4
333.15	0.02001	984.01	0.4
333.15	0.03	984.34	0.4
333.15	0.03962	984.68	0.4
333.15	0.04998	985.05	0.4
333.15	0.05936	985.36	0.4
333.15	0.06926	985.69	0.4
333.15	0.07949	986.05	0.4
333.15	0.08906	986.37	0.4
333.15	0.09935	986.72	0.4
333.15	0.1984	990.02	0.4
333.15	0.2977	993.31	0.4
333.15	0.404	996.78	0.4
333.15	0.5055	999.91	0.4
333.15	0.6055	1003.1	0.4
333.15	0.6936	1005.81	0.4
333.15	0.7926	1008.99	0.4
333.15	0.891	1011.89	0.4
333.15	0.9895	1014.63	0.4
338.15	0	980.59	0.4
338.15	0.01001	980.99	0.4
338.15	0.02001	981.37	0.4
338.15	0.03	981.69	0.4
338.15	0.03962	982.03	0.4
338.15	0.04998	982.41	0.4
338.15	0.05936	982.72	0.4
338.15	0.06926	983	0.4
338.15	0.07949	983.39	0.4
338.15	0.08906	983.68	0.4
338.15	0.09935	984.02	0.4
338.15	0.1984	987.31	0.4
338.15	0.2977	990.55	0.4
338.15	0.404	993.95	0.4
338.15	0.5055	997.16	0.4
338.15	0.6055	1000.24	0.4
338.15	0.6936	1002.93	0.4
338.15	0.7926	1006	0.4
338.15	0.891	1008.94	0.4
338.15	0.9895	1011.16	0.4
343.15	0	977.81	0.4
343.15	0.01001	978.22	0.4
343.15	0.02001	978.59	0.4
343.15	0.03	978.9	0.4
343.15	0.03962	979.24	0.4
343.15	0.04998	979.6	0.4
343.15	0.05936	979.92	0.4
343.15	0.06926	980.22	0.4
343.15	0.07949	980.58	0.4
343.15	0.08906	980.9	0.4
343.15	0.09935	981.18	0.4
343.15	0.1984	984.49	0.4
343.15	0.2977	987.71	0.4
343.15	0.404	991.05	0.4
343.15	0.5055	994.29	0.4
343.15	0.6055	997.39	0.4
343.15	0.6936	1000.21	0.4
343.15	0.7926	1002.97	0.4
343.15	0.891	1005.93	0.4
343.15	0.9895	1008.49	0.4
