Measured thermophysical data. Enthalpies of dissolution of long chain-length alkyltrimethylammonium bromide salts in water at temperatures from 278.15 to 308.15 K
Source: J. Chem. Thermodyn., 2015, 10.1016/j.jct.2014.09.018
Compound 1: N,N,N-trimethyl-1-decanaminium bromide, C13H30BrN, InChI=1S/C13H30N.BrH/c1-5-6-7-8-9-10-11-12-13-14(2,3)4;/h5-13H2,1-4H3;1H/q+1;/p-1
Compound 2: dodecyltrimethylammonium bromide, C15H34BrN, InChI=1S/C15H34N.BrH/c1-5-6-7-8-9-10-11-12-13-14-15-16(2,3)4;/h5-15H2,1-4H3;1H/q+1;/p-1
Compound 3: tetradecyltrimethylammonium bromide, C17H38BrN, InChI=1S/C17H38N.BrH/c1-5-6-7-8-9-10-11-12-13-14-15-16-17-18(2,3)4;/h5-17H2,1-4H3;1H/q+1;/p-1
Compound 4: N,N,N-trimethyl-1-hexadecanaminium bromide, C19H42BrN, InChI=1S/C19H42N.BrH/c1-5-6-7-8-9-10-11-12-13-14-15-16-17-18-19-20(2,3)4;/h5-19H2,1-4H3;1H/q+1;/p-1
Compound 5: water, H2O, InChI=1S/H2O/h1H2

System: N,N,N-trimethyl-1-decanaminium bromide + water; phases: Liquid
Fixed: Pressure, kPa = 74.66
Property: Molar enthalpy of solution, kJ/mol (Liquid); method: ISOPERIBOL
Temperature, K	Molality, mol/kg of N,N,N-trimethyl-1-decanaminium bromide	Molar enthalpy of solution, kJ/mol	uncertainty
278.15	0.00094	-16.3	0.2
278.15	0.001868	-16.6	0.2
278.15	0.003346	-17	0.2
278.15	0.004044	-17.2	0.2
278.15	0.004873	-17.7	0.2
278.15	0.005756	-17.9	0.2
278.15	0.006452	-18.2	0.2
278.15	0.007839	-18.3	0.2
278.15	0.001105	-16.4	0.2
278.15	0.00199	-16.5	0.2
278.15	0.003784	-17	0.2
278.15	0.005531	-17.9	0.2
278.15	0.007436	-18.3	0.2
278.15	0.008357	-18.7	0.2
288.15	0.001105	7.9	0.1
288.15	0.002099	8	0.1
288.15	0.003209	8	0.1
288.15	0.004428	8.1	0.1
288.15	0.005182	8.1	0.1
288.15	0.006115	8.1	0.1
288.15	0.00746	8.3	0.1
288.15	0.008123	8.4	0.1
288.15	0.009415	8.4	0.1
298.15	0.001105	33.9	0.4
298.15	0.00199	34	0.4
298.15	0.00299	34	0.4
298.15	0.003784	34.1	0.4
298.15	0.004754	34.5	0.4
298.15	0.005531	34.5	0.4
298.15	0.006846	34.6	0.4
298.15	0.008357	35.1	0.4
308.15	0.001349	47.2	0.6
308.15	0.002539	47.2	0.6
308.15	0.005178	47.4	0.6
308.15	0.006424	47.5	0.6
308.15	0.007278	47.6	0.6
308.15	0.007407	47.6	0.6
308.15	0.010041	47.6	0.6
308.15	0.011117	48	0.6

System: dodecyltrimethylammonium bromide + water; phases: Liquid
Fixed: Pressure, kPa = 74.66
Property: Molar enthalpy of solution, kJ/mol (Liquid); method: ISOPERIBOL
Temperature, K	Molality, mol/kg of dodecyltrimethylammonium bromide	Molar enthalpy of solution, kJ/mol	uncertainty
278.15	0.001265	-17.6	0.5
278.15	0.002346	-18.2	0.6
278.15	0.003038	-18.6	0.6
278.15	0.00407	-18.7	0.6
278.15	0.006241	-19.1	0.6
278.15	0.006991	-19.8	0.6
278.15	0.007941	-19.8	0.6
278.15	0.00511	-18.6	0.6
278.15	0.001344	-17.5	0.5
278.15	0.002109	-18.1	0.6
278.15	0.003215	-18.3	0.6
278.15	0.004355	-18.5	0.6
278.15	0.006999	-18.9	0.6
278.15	0.008216	-19	0.6
288.15	0.001619	12.1	0.2
288.15	0.001889	12.2	0.2
288.15	0.003035	12.3	0.2
288.15	0.003784	12.2	0.2
288.15	0.004572	12.3	0.2
288.15	0.005798	12.8	0.2
288.15	0.006614	12.8	0.2
288.15	0.007333	13	0.2
288.15	0.008681	13.4	0.2
298.15	0.001376	37.3	0.5
298.15	0.001979	37.4	0.5
298.15	0.002793	37.4	0.5
298.15	0.003721	37.8	0.5
298.15	0.004808	38.3	0.5
298.15	0.006041	38.4	0.5
298.15	0.006809	38.5	0.5
298.15	0.007937	38.7	0.5
298.15	0.00818	38.8	0.5
308.15	0.00135	56.1	0.7
308.15	0.002317	56.4	0.7
308.15	0.002988	56.6	0.7
308.15	0.00358	56.6	0.7
308.15	0.004781	56.7	0.7
308.15	0.005846	56.7	0.7
308.15	0.006791	57.9	0.7
308.15	0.00755	58	0.7
308.15	0.008543	58.3	0.7

System: tetradecyltrimethylammonium bromide + water; phases: Liquid
Fixed: Pressure, kPa = 74.66
Property: Molar enthalpy of solution, kJ/mol (Liquid); method: ISOPERIBOL
Temperature, K	Molality, mol/kg of tetradecyltrimethylammonium bromide	Molar enthalpy of solution, kJ/mol	uncertainty
278.15	0.001122	-26.8	0.3
278.15	0.00201	-27	0.3
278.15	0.002792	-27.5	0.4
278.15	0.003903	-27.5	0.4
278.15	0.004431	-28.1	0.4
278.15	0.005073	-28.7	0.4
278.15	0.006201	-29.1	0.4
278.15	0.007033	-29.5	0.4
278.15	0.007619	-29.9	0.4
278.15	0.000868	-26.8	0.3
278.15	0.001899	-27	0.3
278.15	0.003458	-27.5	0.4
278.15	0.00508	-28.7	0.4
278.15	0.006819	-29.5	0.4
278.15	0.008001	-29.9	0.4
288.15	0.000875	17.4	0.2
288.15	0.001967	17.4	0.2
288.15	0.002637	17.5	0.2
288.15	0.003535	17.6	0.2
288.15	0.004565	17.6	0.2
288.15	0.005242	17.7	0.2
288.15	0.005914	18	0.2
288.15	0.006899	18.1	0.2
288.15	0.008002	18.3	0.3
298.15	0.001262	41.4	0.5
298.15	0.001995	41.5	0.5
298.15	0.002704	41.8	0.5
298.15	0.003818	42.2	0.5
298.15	0.004245	42.7	0.5
298.15	0.005084	43	0.5
298.15	0.006068	43.6	0.5
298.15	0.0067	43.8	0.5
298.15	0.007474	44.3	0.5
308.15	0.000885	58	0.7
308.15	0.001602	58.2	0.7
308.15	0.002884	58.3	0.7
308.15	0.003589	58.3	0.7
308.15	0.004783	58.4	0.7
308.15	0.005064	58.7	0.7
308.15	0.005739	58.7	0.7
308.15	0.00657	58.6	0.7
308.15	0.00759	59	0.7

System: N,N,N-trimethyl-1-hexadecanaminium bromide + water; phases: Liquid
Fixed: Pressure, kPa = 74.66
Property: Molar enthalpy of solution, kJ/mol (Liquid); method: ISOPERIBOL
Temperature, K	Molality, mol/kg of N,N,N-trimethyl-1-hexadecanaminium bromide	Molar enthalpy of solution, kJ/mol	uncertainty
278.15	0.001054	-39.2	0.5
278.15	0.001679	-39.6	0.5
278.15	0.00259	-39.5	0.5
278.15	0.003199	-39.7	0.5
278.15	0.004198	-39.7	0.5
278.15	0.00492	-39.7	0.5
278.15	0.006542	-39.8	0.5
278.15	0.007055	-40.4	0.5
278.15	0.001167	-39.1	0.5
278.15	0.001558	-39.5	0.5
278.15	0.003197	-39.6	0.5
278.15	0.004901	-39.7	0.5
278.15	0.006208	-40.4	0.5
278.15	0.008325	-40.6	0.5
288.15	0.001166	20.7	0.4
288.15	0.001615	20.8	0.3
288.15	0.002484	20.8	0.3
288.15	0.003221	21	0.3
288.15	0.004104	21.1	0.3
288.15	0.004886	21.2	0.3
288.15	0.005474	21.2	0.3
288.15	0.006263	21.6	0.3
298.15	0.000787	48.2	0.6
298.15	0.001563	48.5	0.6
298.15	0.002464	48.3	0.6
298.15	0.003073	48.2	0.6
298.15	0.003853	48.8	0.6
298.15	0.004805	49.2	0.6
298.15	0.005149	49.3	0.6
298.15	0.005714	49.8	0.6
308.15	0.00082	64.9	0.8
308.15	0.001816	65.3	0.8
308.15	0.003362	65.6	0.8
308.15	0.004317	66.1	0.8
308.15	0.005036	66.1	0.8
308.15	0.005767	66.5	0.8
308.15	0.006342	66.6	0.8
308.15	0.007653	66.8	0.8
