Measured thermophysical data. Improving the solubility of temozolomide by cosolvent and its correlation with the Jouyban-Acree and CNIBS/R-K models
Source: J. Chem. Thermodyn., 2019, 10.1016/j.jct.2019.07.017
Compound 1: Temozolomide, C6H6N6O2, InChI=1S/C6H6N6O2/c1-11-6(14)12-2-8-3(4(7)13)5(12)9-10-11/h2H,1H3,(H2,7,13), purity 99.3%
Compound 2: methanol, CH4O, InChI=1S/CH4O/c1-2/h2H,1H3, purity 99.5%
Compound 3: ethanol, C2H6O, InChI=1S/C2H6O/c1-2-3/h3H,2H2,1H3, purity 99.6%
Compound 4: propan-2-ol, C3H8O, InChI=1S/C3H8O/c1-3(2)4/h3-4H,1-2H3, purity 99.5%
Compound 5: propan-1-ol, C3H8O, InChI=1S/C3H8O/c1-2-3-4/h4H,2-3H2,1H3, purity 99.5%
Compound 6: ethyl acetate, C4H8O2, InChI=1S/C4H8O2/c1-3-6-4(2)5/h3H2,1-2H3, purity 99.6%

System: Temozolomide + ethyl acetate + methanol; phases: Liquid, Crystal
Fixed: Pressure, kPa = 101
Property: Mole fraction of Temozolomide (Liquid); method: Chromatography
Solvent: Mass fraction of ethyl acetate	Temperature, K	Mole fraction of Temozolomide	uncertainty
0	273.15	0.0001742	1.64e-05
0	278.15	0.0002169	2.04e-05
0	283.15	0.00027	2.54e-05
0	288.15	0.0003271	3.08e-05
0	293.15	0.0003904	3.67e-05
0	298.15	0.0004592	4.32e-05
0	303.15	0.0005358	5.04e-05
0	308.15	0.000621	5.84e-05
0	313.15	0.00072	6.77e-05
0	318.15	0.0008376	7.88e-05
0.2	273.15	0.0003119	2.94e-05
0.2	278.15	0.0003785	3.57e-05
0.2	283.15	0.0004586	4.32e-05
0.2	288.15	0.0005484	5.17e-05
0.2	293.15	0.0006374	6.01e-05
0.2	298.15	0.0007304	6.88e-05
0.2	303.15	0.0008322	7.84e-05
0.2	308.15	0.0009395	8.85e-05
0.2	313.15	0.001055	9.9e-05
0.2	318.15	0.0011867	0.0001118
0.4	273.15	0.0004104	3.87e-05
0.4	278.15	0.0004959	4.68e-05
0.4	283.15	0.0005823	5.49e-05
0.4	288.15	0.0006916	6.52e-05
0.4	293.15	0.0008004	7.54e-05
0.4	298.15	0.0009143	8.61e-05
0.4	303.15	0.0010351	9.76e-05
0.4	308.15	0.001186	0.0001118
0.4	313.15	0.0013404	0.0001263
0.4	318.15	0.00148	0.0001399
0.6	273.15	0.0004564	4.3e-05
0.6	278.15	0.0005495	5.17e-05
0.6	283.15	0.0006579	6.19e-05
0.6	288.15	0.0007611	7.16e-05
0.6	293.15	0.0008778	8.26e-05
0.6	298.15	0.0010067	9.47e-05
0.6	303.15	0.00116	0.0001091
0.6	308.15	0.0013145	0.0001237
0.6	313.15	0.0014769	0.0001389
0.6	318.15	0.0016415	0.0001544
0.8	273.15	0.0003487	3.32e-05
0.8	278.15	0.0004163	3.94e-05
0.8	283.15	0.0004902	4.64e-05
0.8	288.15	0.0005686	5.38e-05
0.8	293.15	0.0006629	6.27e-05
0.8	298.15	0.0007587	7.18e-05
0.8	303.15	0.0008824	8.35e-05
0.8	308.15	0.0010036	9.49e-05
0.8	313.15	0.0011248	0.0001064
0.8	318.15	0.00125	0.0001182
1	273.15	8.03e-05	7.6e-06
1	278.15	9.96e-05	9.4e-06
1	283.15	0.0001201	1.13e-05
1	288.15	0.0001444	1.36e-05
1	293.15	0.0001733	1.63e-05
1	298.15	0.0002055	1.93e-05
1	303.15	0.0002375	2.23e-05
1	308.15	0.0002766	2.6e-05
1	313.15	0.0003192	3e-05
1	318.15	0.0003711	3.49e-05

System: Temozolomide + ethyl acetate + ethanol; phases: Liquid, Crystal
Fixed: Pressure, kPa = 101
Property: Mole fraction of Temozolomide (Liquid); method: Chromatography
Solvent: Mass fraction of ethyl acetate	Temperature, K	Mole fraction of Temozolomide	uncertainty
0	273.15	6.58e-05	6.2e-06
0	278.15	7.89e-05	7.4e-06
0	283.15	9.48e-05	8.9e-06
0	288.15	0.0001145	1.08e-05
0	293.15	0.0001356	1.28e-05
0	298.15	0.0001597	1.5e-05
0	303.15	0.0001884	1.77e-05
0	308.15	0.0002246	2.11e-05
0	313.15	0.0002686	2.53e-05
0	318.15	0.0003125	2.94e-05
0.2	273.15	0.0001195	1.13e-05
0.2	278.15	0.0001477	1.39e-05
0.2	283.15	0.0001822	1.72e-05
0.2	288.15	0.0002193	2.07e-05
0.2	293.15	0.0002762	2.61e-05
0.2	298.15	0.0003287	3.1e-05
0.2	303.15	0.0003832	3.62e-05
0.2	308.15	0.0004464	4.21e-05
0.2	313.15	0.0005119	4.83e-05
0.2	318.15	0.0005816	5.49e-05
0.4	273.15	0.0001636	1.54e-05
0.4	278.15	0.000204	1.94e-05
0.4	283.15	0.0002518	2.39e-05
0.4	288.15	0.000314	2.98e-05
0.4	293.15	0.000374	3.54e-05
0.4	298.15	0.0004462	4.23e-05
0.4	303.15	0.0005261	4.98e-05
0.4	308.15	0.000605	5.73e-05
0.4	313.15	0.0006909	6.54e-05
0.4	318.15	0.0007908	7.49e-05
0.6	273.15	0.0002196	2.08e-05
0.6	278.15	0.0002826	2.66e-05
0.6	283.15	0.0003462	3.26e-05
0.6	288.15	0.0004199	3.95e-05
0.6	293.15	0.0004977	4.68e-05
0.6	298.15	0.0005874	5.53e-05
0.6	303.15	0.0006861	6.45e-05
0.6	308.15	0.0007935	7.46e-05
0.6	313.15	0.0009038	8.5e-05
0.6	318.15	0.00103	9.69e-05
0.8	273.15	0.0001897	1.79e-05
0.8	278.15	0.0002359	2.23e-05
0.8	283.15	0.0002881	2.72e-05
0.8	288.15	0.0003506	3.31e-05
0.8	293.15	0.0004253	4.01e-05
0.8	298.15	0.0005122	4.83e-05
0.8	303.15	0.0006054	5.71e-05
0.8	308.15	0.0006988	6.59e-05
0.8	313.15	0.0008065	7.61e-05
0.8	318.15	0.0009206	8.68e-05
1	273.15	8.03e-05	7.6e-06
1	278.15	9.96e-05	9.4e-06
1	283.15	0.0001201	1.13e-05
1	288.15	0.0001444	1.36e-05
1	293.15	0.0001733	1.63e-05
1	298.15	0.0002055	1.93e-05
1	303.15	0.0002375	2.23e-05
1	308.15	0.0002766	2.6e-05
1	313.15	0.0003192	3e-05
1	318.15	0.0003711	3.49e-05

System: Temozolomide + ethyl acetate + propan-2-ol; phases: Liquid, Crystal
Fixed: Pressure, kPa = 101
Property: Mole fraction of Temozolomide (Liquid); method: Chromatography
Solvent: Mass fraction of ethyl acetate	Temperature, K	Mole fraction of Temozolomide	uncertainty
0	273.15	2.2e-05	2.1e-06
0	278.15	2.69e-05	2.5e-06
0	283.15	3.4e-05	3.2e-06
0	288.15	4.26e-05	4e-06
0	293.15	5.17e-05	4.9e-06
0	298.15	6.38e-05	6e-06
0	303.15	7.8e-05	7.3e-06
0	308.15	9.41e-05	8.8e-06
0	313.15	0.0001164	1.09e-05
0	318.15	0.0001426	1.34e-05
0.2	273.15	5.85e-05	5.6e-06
0.2	278.15	6.99e-05	6.6e-06
0.2	283.15	8.46e-05	8e-06
0.2	288.15	0.0001024	9.7e-06
0.2	293.15	0.0001235	1.17e-05
0.2	298.15	0.0001505	1.43e-05
0.2	303.15	0.0001807	1.72e-05
0.2	308.15	0.0002163	2.05e-05
0.2	313.15	0.0002507	2.38e-05
0.2	318.15	0.0002861	2.71e-05
0.4	273.15	9.89e-05	9.4e-06
0.4	278.15	0.000122	1.17e-05
0.4	283.15	0.0001525	1.46e-05
0.4	288.15	0.0001827	1.75e-05
0.4	293.15	0.000224	2.14e-05
0.4	298.15	0.000268	2.56e-05
0.4	303.15	0.00032	3.05e-05
0.4	308.15	0.0003763	3.59e-05
0.4	313.15	0.0004343	4.13e-05
0.4	318.15	0.0005023	4.83e-05
0.6	273.15	0.0001391	1.32e-05
0.6	278.15	0.0001721	1.63e-05
0.6	283.15	0.0002123	2.01e-05
0.6	288.15	0.0002593	2.45e-05
0.6	293.15	0.0003102	2.93e-05
0.6	298.15	0.0003745	3.54e-05
0.6	303.15	0.0004379	4.13e-05
0.6	308.15	0.0005057	4.77e-05
0.6	313.15	0.0005749	5.42e-05
0.6	318.15	0.0006566	6.19e-05
0.8	273.15	0.0001819	1.72e-05
0.8	278.15	0.0002205	2.07e-05
0.8	283.15	0.0002674	2.52e-05
0.8	288.15	0.0003174	2.99e-05
0.8	293.15	0.0003776	3.55e-05
0.8	298.15	0.0004395	4.14e-05
0.8	303.15	0.0005068	4.77e-05
0.8	308.15	0.0005763	5.42e-05
0.8	313.15	0.0006527	6.14e-05
0.8	318.15	0.0007362	6.93e-05
1	273.15	8.03e-05	7.6e-06
1	278.15	9.96e-05	9.4e-06
1	283.15	0.0001201	1.13e-05
1	288.15	0.0001444	1.36e-05
1	293.15	0.0001733	1.63e-05
1	298.15	0.0002055	1.93e-05
1	303.15	0.0002375	2.23e-05
1	308.15	0.0002766	2.6e-05
1	313.15	0.0003192	3e-05
1	318.15	0.0003711	3.49e-05

System: Temozolomide + ethyl acetate + propan-1-ol; phases: Liquid, Crystal
Fixed: Pressure, kPa = 101
Property: Mole fraction of Temozolomide (Liquid); method: Chromatography
Solvent: Mass fraction of ethyl acetate	Temperature, K	Mole fraction of Temozolomide	uncertainty
0	273.15	4.28e-05	4e-06
0	278.15	5.53e-05	5.2e-06
0	283.15	6.99e-05	6.6e-06
0	288.15	8.65e-05	8.1e-06
0	293.15	0.0001065	1e-05
0	298.15	0.0001304	1.23e-05
0	303.15	0.0001566	1.47e-05
0	308.15	0.0001875	1.76e-05
0	313.15	0.0002263	2.13e-05
0	318.15	0.0002706	2.54e-05
0.2	273.15	9.54e-05	9e-06
0.2	278.15	0.0001167	1.1e-05
0.2	283.15	0.0001407	1.33e-05
0.2	288.15	0.0001702	1.61e-05
0.2	293.15	0.0002054	1.94e-05
0.2	298.15	0.0002427	2.29e-05
0.2	303.15	0.0002846	2.69e-05
0.2	308.15	0.0003276	3.09e-05
0.2	313.15	0.0003819	3.6e-05
0.2	318.15	0.0004402	4.15e-05
0.4	273.15	0.0001332	1.25e-05
0.4	278.15	0.0001672	1.58e-05
0.4	283.15	0.0002025	1.92e-05
0.4	288.15	0.0002404	2.28e-05
0.4	293.15	0.0002953	2.8e-05
0.4	298.15	0.0003511	3.32e-05
0.4	303.15	0.000413	3.91e-05
0.4	308.15	0.0004755	4.5e-05
0.4	313.15	0.0005428	5.13e-05
0.4	318.15	0.0006049	5.74e-05
0.6	273.15	0.0001719	1.62e-05
0.6	278.15	0.000215	2.03e-05
0.6	283.15	0.0002621	2.47e-05
0.6	288.15	0.0003168	2.99e-05
0.6	293.15	0.0003721	3.51e-05
0.6	298.15	0.0004361	4.11e-05
0.6	303.15	0.0005015	4.73e-05
0.6	308.15	0.0005694	5.36e-05
0.6	313.15	0.0006454	6.08e-05
0.6	318.15	0.0007163	6.75e-05
0.8	273.15	0.000225	2.12e-05
0.8	278.15	0.0002679	2.52e-05
0.8	283.15	0.0003148	2.96e-05
0.8	288.15	0.0003723	3.51e-05
0.8	293.15	0.0004306	4.05e-05
0.8	298.15	0.0004966	4.68e-05
0.8	303.15	0.0005647	5.32e-05
0.8	308.15	0.0006375	6e-05
0.8	313.15	0.0007173	6.75e-05
0.8	318.15	0.0008016	7.55e-05
1	273.15	8.03e-05	7.6e-06
1	278.15	9.96e-05	9.4e-06
1	283.15	0.0001201	1.13e-05
1	288.15	0.0001444	1.36e-05
1	293.15	0.0001733	1.63e-05
1	298.15	0.0002055	1.93e-05
1	303.15	0.0002375	2.23e-05
1	308.15	0.0002766	2.6e-05
1	313.15	0.0003192	3e-05
1	318.15	0.0003711	3.49e-05

System: Temozolomide + methanol; phases: Liquid, Crystal
Fixed: Pressure, kPa = 101
Property: Mole fraction of Temozolomide (Liquid); method: Chromatography
Temperature, K	Mole fraction of Temozolomide	uncertainty
273.15	0.0001742	1.64e-05
278.15	0.0002169	2.04e-05
283.15	0.00027	2.54e-05
288.15	0.0003271	3.08e-05
293.15	0.0003904	3.67e-05
298.15	0.0004592	4.32e-05
303.15	0.0005358	5.04e-05
308.15	0.000621	5.84e-05
313.15	0.00072	6.77e-05
318.15	0.0008376	7.88e-05

System: Temozolomide + ethyl acetate; phases: Liquid, Crystal
Fixed: Pressure, kPa = 101
Property: Mole fraction of Temozolomide (Liquid); method: Chromatography
Temperature, K	Mole fraction of Temozolomide	uncertainty
273.15	8.03e-05	7.6e-06
278.15	9.96e-05	9.4e-06
283.15	0.0001201	1.13e-05
288.15	0.0001444	1.36e-05
293.15	0.0001733	1.63e-05
298.15	0.0002055	1.93e-05
303.15	0.0002375	2.23e-05
308.15	0.0002766	2.6e-05
313.15	0.0003192	3e-05
318.15	0.0003711	3.49e-05

System: Temozolomide + ethanol; phases: Liquid, Crystal
Fixed: Pressure, kPa = 101
Property: Mole fraction of Temozolomide (Liquid); method: Chromatography
Temperature, K	Mole fraction of Temozolomide	uncertainty
273.15	6.58e-05	6.2e-06
278.15	7.89e-05	7.4e-06
283.15	9.48e-05	8.9e-06
288.15	0.0001145	1.08e-05
293.15	0.0001356	1.28e-05
298.15	0.0001597	1.5e-05
303.15	0.0001884	1.77e-05
308.15	0.0002246	2.11e-05
313.15	0.0002686	2.53e-05
318.15	0.0003125	2.94e-05

System: Temozolomide + propan-2-ol; phases: Liquid, Crystal
Fixed: Pressure, kPa = 101
Property: Mole fraction of Temozolomide (Liquid); method: Chromatography
Temperature, K	Mole fraction of Temozolomide	uncertainty
273.15	2.2e-05	2.1e-06
278.15	2.69e-05	2.5e-06
283.15	3.4e-05	3.2e-06
288.15	4.26e-05	4e-06
293.15	5.17e-05	4.9e-06
298.15	6.38e-05	6e-06
303.15	7.8e-05	7.3e-06
308.15	9.41e-05	8.8e-06
313.15	0.0001164	1.09e-05
318.15	0.0001426	1.34e-05

System: Temozolomide + propan-1-ol; phases: Liquid, Crystal
Fixed: Pressure, kPa = 101
Property: Mole fraction of Temozolomide (Liquid); method: Chromatography
Temperature, K	Mole fraction of Temozolomide	uncertainty
273.15	4.28e-05	4e-06
278.15	5.53e-05	5.2e-06
283.15	6.99e-05	6.6e-06
288.15	8.65e-05	8.1e-06
293.15	0.0001065	1e-05
298.15	0.0001304	1.23e-05
303.15	0.0001566	1.47e-05
308.15	0.0001875	1.76e-05
313.15	0.0002263	2.13e-05
318.15	0.0002706	2.54e-05
