Measured thermophysical data. Thermodynamic properties of S-(-)-nicotine
Source: J. Chem. Thermodyn., 2018, 10.1016/j.jct.2018.01.014
Compound 1: carbon dioxide, CO2, InChI=1S/CO2/c2-1-3
Compound 2: nitrogen, N2, InChI=1S/N2/c1-2
Compound 3: water, H2O, InChI=1S/H2O/h1H2
Compound 4: oxygen, O2, InChI=1S/O2/c1-2
Compound 5: (-)-3-(N-methylpyrrolidino)pyridine, C10H14N2, InChI=1S/C10H14N2/c1-12-7-3-5-10(12)9-4-2-6-11-8-9/h2,4,6,8,10H,3,5,7H2,1H3/t10-/m0/s1

System: (-)-3-(N-methylpyrrolidino)pyridine; phases: Liquid, Gas
Property: Vapor or sublimation pressure, kPa (Liquid); method: Transpiration method
Temperature, K	Vapor or sublimation pressure, kPa	uncertainty
288.7	0.002398	0.000153
293.8	0.003508	0.000228
298.5	0.005519	0.000388
303.3	0.008212	0.000562
308.2	0.01232	0.00082
308.2	0.01187	0.00079
313.1	0.01822	0.00119
318.1	0.02642	0.00171
323	0.03648	0.00234
327.9	0.05164	0.00329
333.2	0.07337	0.00461
335.7	0.08301	0.00524
338.2	0.1012	0.0063
340.7	0.1124	0.0071
343.1	0.1387	0.0088
345.6	0.1639	0.0104
348.2	0.2061	0.0129
350.6	0.222	0.0139
353.2	0.2733	0.0173
358.1	0.3726	0.0233
363.2	0.5077	0.0317
368.1	0.6692	0.0417
373.1	0.8635	0.0535

Reaction: -1 (-)-3-(N-methylpyrrolidino)pyridine + 10 carbon dioxide + 1 nitrogen + 7 water + -13.5 oxygen
Property: Specific internal energy of reaction at constant volume, J/g
-36968.3
