Measured thermophysical data. Molar heat capacities for (2-methyl-2-butanol + heptane) mixtures and cyclopentanol at temperatures from (284 to 353) K
Source: J. Chem. Thermodyn., 2009, 10.1016/j.jct.2008.10.010
Compound 1: cyclopentanol, C5H10O, InChI=1S/C5H10O/c6-5-3-1-2-4-5/h5-6H,1-4H2, purity 99%
Compound 2: heptane, C7H16, InChI=1S/C7H16/c1-3-5-7-6-4-2/h3-7H2,1-2H3, purity 99%
Compound 3: 2-methylbutan-2-ol, C5H12O, InChI=1S/C5H12O/c1-4-5(2,3)6/h6H,4H2,1-3H3, purity 99%

System: cyclopentanol; phases: Liquid
Property: Refractive index (Na D-line) (Liquid); method: Standard Abbe refractometry
Temperature, K	Pressure, kPa	Refractive index (Na D-line)	uncertainty
298.15	101.325	1.4512	0.0008

System: cyclopentanol; phases: Liquid
Property: Mass density, kg/m3 (Liquid); method: Pycnometric method
Temperature, K	Pressure, kPa	Mass density, kg/m3	uncertainty
298.15	101.325	942.86	0.95

System: cyclopentanol; phases: Liquid
Fixed: Pressure, kPa = 101.325
Property: Molar heat capacity at constant pressure, J/K/mol (Liquid); method: Small sample (50 mg) DSC
Temperature, K	Molar heat capacity at constant pressure, J/K/mol	uncertainty
284.16	170.24	2.64
285.15	170.99	2.65
286.16	171.81	2.66
287.14	172.53	2.67
288.15	173.41	2.69
289.16	174.28	2.7
290.14	175.01	2.71
291.15	175.87	2.72
292.16	176.75	2.74
293.14	177.58	2.75
294.15	178.43	2.76
295.16	179.3	2.78
296.14	180.09	2.79
297.15	180.97	2.8
298.14	181.8	2.82
298.15	181.82	2.82
298.16	181.83	2.82
299.14	182.68	2.83
300.15	183.51	2.84
301.16	184.44	2.86
302.14	185.33	2.87
303.15	186.22	2.88
304.16	187.09	2.9
305.14	188.03	2.91
306.15	188.94	2.93
307.16	189.83	2.94
308.14	190.71	2.95
309.15	191.61	2.97
310.16	192.53	2.98
311.14	193.42	3
312.15	194.35	3.01
313.16	195.28	3.03
314.14	196.15	3.04
315.15	197.1	3.05
316.16	198.01	3.07
317.14	198.91	3.08
318.15	199.88	3.1
319.15	200.81	3.11
320.14	201.63	3.12
321.15	202.63	3.14
322.15	203.57	3.15
323.14	204.44	3.17
324.15	205.36	3.18
325.15	206.28	3.2
326.16	207.24	3.21
327.15	208.09	3.22
328.15	209.05	3.24
329.14	209.96	3.25
330.14	210.87	3.27
331.15	211.73	3.28
332.14	212.64	3.29
333.14	213.55	3.31
334.15	214.51	3.32
335.16	215.32	3.34
336.14	216.18	3.35
337.15	217.08	3.36
338.16	218.05	3.38
339.14	218.88	3.39
340.15	219.81	3.41
341.16	220.6	3.42
342.14	221.48	3.43
343.15	222.33	3.44
344.16	223.27	3.46
345.14	224.05	3.47
346.15	224.85	3.48
347.16	225.68	3.5
348.14	226.51	3.51
349.15	227.32	3.52
350.15	228.13	3.53
351.14	228.9	3.55
352.15	229.66	3.56
353.15	230.44	3.57

System: heptane; phases: Liquid
Property: Refractive index (Na D-line) (Liquid); method: Standard Abbe refractometry
Temperature, K	Pressure, kPa	Refractive index (Na D-line)	uncertainty
298.15	101.325	1.3852	0.0008

System: heptane; phases: Liquid
Property: Mass density, kg/m3 (Liquid); method: Pycnometric method
Temperature, K	Pressure, kPa	Mass density, kg/m3	uncertainty
298.15	101.325	679.53	0.65

System: 2-methylbutan-2-ol; phases: Liquid
Property: Refractive index (Na D-line) (Liquid); method: Standard Abbe refractometry
Temperature, K	Pressure, kPa	Refractive index (Na D-line)	uncertainty
298.15	101.325	1.4025	0.0008

System: 2-methylbutan-2-ol; phases: Liquid
Property: Mass density, kg/m3 (Liquid); method: Pycnometric method
Temperature, K	Pressure, kPa	Mass density, kg/m3	uncertainty
298.15	101.325	804.32	0.79

System: 2-methylbutan-2-ol; phases: Liquid
Fixed: Pressure, kPa = 101.325
Property: Molar heat capacity at constant pressure, J/K/mol (Liquid); method: Small sample (50 mg) DSC
Temperature, K	Molar heat capacity at constant pressure, J/K/mol	uncertainty
284.14	233.4	3.62
285.15	234.44	3.63
286.16	235.36	3.65
287.14	236.15	3.66
288.15	237.23	3.68
289.14	238.19	3.69
290.14	239.11	3.7
291.15	240.18	3.72
292.14	241.19	3.74
293.14	242.22	3.75
294.15	243.25	3.77
295.14	244.25	3.78
296.14	245.3	3.8
297.15	246.36	3.82
298.14	247.43	3.83
298.15	247.44	3.83
298.16	247.45	3.83
299.14	248.43	3.85
300.15	249.45	3.86
301.14	250.56	3.88
302.14	251.71	3.9
303.15	252.8	3.92
304.14	253.86	3.93
305.14	255.01	3.95
306.15	256.09	3.97
307.16	257.16	3.98
308.14	258.22	4
309.15	259.29	4.02
310.16	260.36	4.03
311.14	261.32	4.05
312.15	262.41	4.07
313.16	263.51	4.08
314.14	264.5	4.1
315.15	265.53	4.11
316.16	266.49	4.13
317.14	267.5	4.14
318.15	268.57	4.16
319.15	269.56	4.18
320.14	270.43	4.19
321.15	271.49	4.21
322.15	272.37	4.22
323.14	273.32	4.23
324.15	274.25	4.25
325.15	275.15	4.26
326.14	276.09	4.28
327.15	276.89	4.29
328.15	277.86	4.3
329.14	278.7	4.32
330.14	279.59	4.33
331.15	280.35	4.34
332.14	281.18	4.36
333.14	282.05	4.37
334.15	283	4.38
335.14	283.68	4.39
336.14	284.35	4.41
337.15	285.19	4.42
338.14	285.94	4.43
339.14	286.59	4.44
340.15	287.37	4.45
341.13	287.88	4.46
342.14	288.59	4.47
343.15	289.15	4.48
344.16	289.83	4.49
345.14	290.42	4.5
346.15	290.94	4.51
347.16	291.42	4.51
348.14	292.03	4.52
349.15	292.61	4.53
350.16	293.03	4.54
351.14	293.51	4.55
352.15	293.87	4.55
353.15	294.39	4.56
354.15	294.87	4.57
355.13	295.24	4.57
356.14	295.66	4.58
357.15	296.1	4.59
358.15	296.36	4.59
359.14	296.72	4.6
360.15	296.98	4.6
361.15	297.18	4.6
362.15	297.48	4.61
363.14	297.69	4.61
364.15	297.95	4.62
365.15	298.16	4.62
366.14	298.39	4.62
367.15	298.46	4.62
368.15	298.75	4.63
368.76	298.79	4.63

System: 2-methylbutan-2-ol + heptane; phases: Liquid
Fixed: Pressure, kPa = 101.3
Property: Molar heat capacity at constant pressure, J/K/mol (Liquid); method: Small sample (50 mg) DSC
Mole fraction of 2-methylbutan-2-ol	Temperature, K	Molar heat capacity at constant pressure, J/K/mol	uncertainty
0.0061	284.14	220.41	3.41
0.0061	285.15	220.65	3.42
0.0061	286.16	220.9	3.42
0.0061	287.14	221.16	3.43
0.0061	288.15	221.55	3.43
0.0061	289.14	221.82	3.44
0.0061	290.14	222.02	3.44
0.0061	291.15	222.4	3.45
0.0061	292.14	222.7	3.45
0.0061	293.14	223.05	3.46
0.0061	294.15	223.39	3.46
0.0061	295.14	223.7	3.47
0.0061	296.14	223.96	3.47
0.0061	297.15	224.33	3.48
0.0061	298.14	224.65	3.48
0.0061	298.16	224.66	3.48
0.0061	299.14	224.99	3.49
0.0061	300.15	225.26	3.49
0.0061	301.14	225.7	3.5
0.0061	302.14	226.13	3.5
0.0061	303.15	226.42	3.51
0.0061	304.14	226.83	3.51
0.0061	305.14	227.18	3.52
0.0061	306.15	227.53	3.52
0.0061	307.14	227.97	3.53
0.0061	308.14	228.36	3.54
0.0061	309.15	228.7	3.54
0.0061	310.16	229.11	3.55
0.0061	311.14	229.41	3.55
0.0061	312.15	229.87	3.56
0.0061	313.16	230.16	3.57
0.0061	314.14	230.54	3.57
0.0061	315.15	231.04	3.58
0.0061	316.16	231.41	3.58
0.0061	317.14	231.74	3.59
0.0061	318.15	232.22	3.6
0.0061	319.15	232.58	3.6
0.0061	320.14	232.92	3.61
0.0061	321.15	233.36	3.62
0.0061	322.15	233.83	3.62
0.0061	323.14	234.21	3.63
0.0061	324.15	234.52	3.63
0.0061	325.15	234.92	3.64
0.0061	326.14	235.39	3.65
0.0061	327.15	235.69	3.65
0.0061	328.15	236.22	3.66
0.0061	329.14	236.63	3.67
0.0061	330.14	237.14	3.67
0.0061	331.15	237.49	3.68
0.0061	332.14	237.91	3.69
0.0061	333.14	238.38	3.69
0.0061	334.15	238.94	3.7
0.0061	335.14	239.28	3.71
0.0061	336.14	239.67	3.71
0.0061	337.15	240.08	3.72
0.0061	338.14	240.6	3.73
0.0061	339.14	241	3.73
0.0061	340.15	241.53	3.74
0.0061	341.16	241.89	3.75
0.0061	342.14	242.38	3.75
0.0061	343.15	242.71	3.76
0.0061	344.16	243.26	3.77
0.0061	345.14	243.73	3.78
0.0061	346.15	244.11	3.78
0.0061	347.16	244.48	3.79
0.0061	348.14	244.95	3.79
0.0061	349.15	245.31	3.8
0.0061	350.15	245.7	3.81
0.0061	351.14	246.16	3.81
0.0061	352.15	246.53	3.82
0.0061	353.15	246.79	3.82
0.0249	284.14	226.02	3.5
0.0249	285.15	226.27	3.51
0.0249	286.16	226.64	3.51
0.0249	287.14	226.92	3.52
0.0249	288.15	227.34	3.52
0.0249	289.14	227.63	3.53
0.0249	290.14	227.88	3.53
0.0249	291.15	228.24	3.54
0.0249	292.16	228.51	3.54
0.0249	293.14	228.85	3.55
0.0249	294.15	229.18	3.55
0.0249	295.14	229.37	3.55
0.0249	296.14	229.63	3.56
0.0249	297.15	229.81	3.56
0.0249	298.14	230.08	3.56
0.0249	298.16	230.09	3.56
0.0249	299.14	230.35	3.57
0.0249	300.15	230.51	3.57
0.0249	301.16	230.74	3.57
0.0249	302.14	231.02	3.58
0.0249	303.15	231.23	3.58
0.0249	304.16	231.5	3.59
0.0249	305.14	231.73	3.59
0.0249	306.15	231.92	3.59
0.0249	307.16	232.13	3.6
0.0249	308.14	232.33	3.6
0.0249	309.15	232.53	3.6
0.0249	310.16	232.84	3.61
0.0249	311.14	233.01	3.61
0.0249	312.15	233.27	3.61
0.0249	313.16	233.44	3.62
0.0249	314.14	233.76	3.62
0.0249	315.15	234.1	3.63
0.0249	316.16	234.24	3.63
0.0249	317.14	234.45	3.63
0.0249	318.15	234.79	3.64
0.0249	319.16	235.12	3.64
0.0249	320.14	235.28	3.64
0.0249	321.15	235.64	3.65
0.0249	322.15	235.95	3.66
0.0249	323.14	236.15	3.66
0.0249	324.15	236.43	3.66
0.0249	325.15	236.8	3.67
0.0249	326.14	237.1	3.67
0.0249	327.15	237.39	3.68
0.0249	328.15	237.72	3.68
0.0249	329.14	238.11	3.69
0.0249	330.15	238.44	3.69
0.0249	331.15	238.7	3.7
0.0249	332.14	239.06	3.7
0.0249	333.14	239.45	3.71
0.0249	334.04	239.87	3.72
0.0249	334.33	239.98	3.72
0.0249	335.14	240.2	3.72
0.0249	336.14	240.6	3.73
0.0249	337.15	241	3.73
0.0249	338.14	241.26	3.74
0.0249	339.14	241.65	3.74
0.0249	340.15	242.15	3.75
0.0249	341.14	242.51	3.76
0.0249	342.14	242.91	3.76
0.0249	343.15	243.18	3.77
0.0249	344.16	243.63	3.77
0.0249	345.14	244.12	3.78
0.0249	346.15	244.51	3.79
0.0249	347.16	244.81	3.79
0.0249	348.14	245.23	3.8
0.0249	349.15	245.69	3.81
0.0249	350.16	245.9	3.81
0.0249	351.14	246.29	3.82
0.0249	352.15	246.7	3.82
0.0249	353.15	247.03	3.83
0.0494	284.14	229.4	3.55
0.0494	285.15	229.86	3.56
0.0494	286.16	230.34	3.57
0.0494	287.14	230.72	3.57
0.0494	288.15	231.29	3.58
0.0494	289.14	231.74	3.59
0.0494	290.14	232.1	3.6
0.0494	291.15	232.63	3.6
0.0494	292.14	233.02	3.61
0.0494	293.14	233.49	3.62
0.0494	294.15	233.86	3.62
0.0494	295.14	234.25	3.63
0.0494	296.14	234.59	3.63
0.0494	297.15	235.01	3.64
0.0494	298.14	235.35	3.65
0.0494	298.16	235.36	3.65
0.0494	299.14	235.67	3.65
0.0494	300.15	236	3.66
0.0494	301.14	236.34	3.66
0.0494	302.14	236.64	3.67
0.0494	303.15	236.93	3.67
0.0494	304.14	237.28	3.68
0.0494	305.14	237.51	3.68
0.0494	306.15	237.81	3.68
0.0494	307.16	238.05	3.69
0.0494	308.14	238.3	3.69
0.0494	309.15	238.53	3.7
0.0494	310.16	238.76	3.7
0.0494	311.14	238.96	3.7
0.0494	312.15	239.19	3.71
0.0494	313.16	239.44	3.71
0.0494	314.14	239.64	3.71
0.0494	315.15	239.85	3.72
0.0494	316.16	240.04	3.72
0.0494	317.14	240.17	3.72
0.0494	318.15	240.39	3.72
0.0494	319.15	240.63	3.73
0.0494	320.14	240.72	3.73
0.0494	321.15	240.94	3.73
0.0494	322.15	241.13	3.74
0.0494	323.14	241.26	3.74
0.0494	324.15	241.45	3.74
0.0494	325.15	241.6	3.74
0.0494	326.14	241.8	3.75
0.0494	327.15	241.94	3.75
0.0494	328.15	242.15	3.75
0.0494	329.14	242.34	3.75
0.0494	330.15	242.58	3.76
0.0494	331.15	242.66	3.76
0.0494	332.14	242.88	3.76
0.0494	333.14	243.08	3.77
0.0494	334.15	243.42	3.77
0.0494	335.14	243.54	3.77
0.0494	336.14	243.78	3.78
0.0494	337.15	244	3.78
0.0494	338.14	244.22	3.78
0.0494	339.14	244.45	3.79
0.0494	340.15	244.83	3.79
0.0494	341.16	245.03	3.8
0.0494	342.14	245.35	3.8
0.0494	343.15	245.62	3.81
0.0494	344.16	245.97	3.81
0.0494	345.14	246.22	3.81
0.0494	346.15	246.51	3.82
0.0494	347.13	246.82	3.82
0.0494	348.14	247.05	3.83
0.0494	349.15	247.42	3.83
0.0494	350.15	247.73	3.84
0.0494	351.14	247.89	3.84
0.0494	352.15	248.24	3.85
0.0494	353.15	248.53	3.85
0.1	284.16	232.58	3.6
0.1	285.15	233.16	3.61
0.1	286.16	233.84	3.62
0.1	287.14	234.39	3.63
0.1	288.15	235.13	3.64
0.1	289.14	235.73	3.65
0.1	290.14	236.25	3.66
0.1	291.15	236.91	3.67
0.1	292.14	237.52	3.68
0.1	293.14	238.13	3.69
0.1	294.15	238.71	3.7
0.1	295.14	239.22	3.71
0.1	296.14	239.76	3.71
0.1	297.15	240.36	3.72
0.1	298.14	240.89	3.73
0.1	298.16	240.91	3.73
0.1	299.14	241.48	3.74
0.1	300.15	241.9	3.75
0.1	301.14	242.42	3.76
0.1	302.14	243.03	3.77
0.1	303.15	243.44	3.77
0.1	304.14	243.93	3.78
0.1	305.14	244.44	3.79
0.1	306.15	244.85	3.79
0.1	307.16	245.3	3.8
0.1	308.14	245.7	3.81
0.1	309.15	246.14	3.81
0.1	310.16	246.57	3.82
0.1	311.14	246.82	3.82
0.1	312.15	247.28	3.83
0.1	313.16	247.62	3.84
0.1	314.14	247.94	3.84
0.1	315.15	248.26	3.85
0.1	316.16	248.61	3.85
0.1	317.14	248.85	3.86
0.1	318.15	249.22	3.86
0.1	319.15	249.49	3.87
0.1	320.14	249.68	3.87
0.1	321.15	249.94	3.87
0.1	322.15	250.19	3.88
0.1	323.14	250.37	3.88
0.1	324.15	250.6	3.88
0.1	325.15	250.76	3.88
0.1	326.14	250.96	3.89
0.1	327.15	251.07	3.89
0.1	328.15	251.24	3.89
0.1	329.14	251.42	3.89
0.1	330.14	251.61	3.9
0.1	331.15	251.73	3.9
0.1	332.14	251.74	3.9
0.1	333.14	251.95	3.9
0.1	334.15	252.08	3.91
0.1	335.14	252.23	3.91
0.1	336.14	252.29	3.91
0.1	337.15	252.41	3.91
0.1	338.14	252.49	3.91
0.1	339.14	252.62	3.91
0.1	340.15	252.82	3.92
0.1	341.16	252.79	3.92
0.1	342.14	253	3.92
0.1	343.15	253.03	3.92
0.1	344.16	253.15	3.92
0.1	345.14	253.28	3.92
0.1	346.15	253.41	3.93
0.1	347.16	253.4	3.93
0.1	348.14	253.5	3.93
0.1	349.15	253.6	3.93
0.1	350.16	253.7	3.93
0.1	351.14	253.68	3.93
0.1	352.15	253.93	3.93
0.1	353.15	253.91	3.93
0.1547	284.16	234.25	3.63
0.1547	285.15	234.99	3.64
0.1547	286.16	235.78	3.65
0.1547	287.14	236.4	3.66
0.1547	288.15	237.25	3.68
0.1547	289.14	237.99	3.69
0.1547	290.14	238.66	3.7
0.1547	291.15	239.46	3.71
0.1547	292.14	240.13	3.72
0.1547	293.14	240.82	3.73
0.1547	294.15	241.58	3.74
0.1547	295.14	242.31	3.75
0.1547	296.14	242.94	3.76
0.1547	297.15	243.63	3.77
0.1547	298.14	244.27	3.78
0.1547	298.16	244.3	3.78
0.1547	299.14	244.98	3.8
0.1547	300.15	245.57	3.8
0.1547	301.58	246.46	3.82
0.1547	302.14	246.89	3.82
0.1547	303.15	247.5	3.83
0.1547	304.14	248.12	3.84
0.1547	305.14	248.76	3.85
0.1547	306.15	249.34	3.86
0.1547	307.16	249.89	3.87
0.1547	308.16	250.43	3.88
0.1547	309.15	250.99	3.89
0.1547	310.16	251.57	3.9
0.1547	311.14	252.06	3.9
0.1547	312.15	252.56	3.91
0.1547	313.16	253.04	3.92
0.1547	314.14	253.52	3.93
0.1547	315.15	254.01	3.94
0.1547	316.16	254.44	3.94
0.1547	317.14	254.85	3.95
0.1547	318.15	255.3	3.96
0.1547	319.15	255.72	3.96
0.1547	320.14	255.93	3.96
0.1547	321.15	256.42	3.97
0.1547	322.15	256.8	3.98
0.1547	323.14	257.15	3.98
0.1547	324.15	257.46	3.99
0.1547	325.15	257.7	3.99
0.1547	326.14	258.02	4
0.1547	327.15	258.26	4
0.1547	328.15	258.56	4.01
0.1547	329.14	258.8	4.01
0.1547	330.14	259.04	4.01
0.1547	331.15	259.17	4.02
0.1547	332.14	259.34	4.02
0.1547	333.14	259.59	4.02
0.1547	334.15	259.81	4.02
0.1547	335.14	259.88	4.03
0.1547	336.14	260.02	4.03
0.1547	337.15	260.16	4.03
0.1547	338.16	260.35	4.03
0.1547	339.14	260.43	4.03
0.1547	340.15	260.57	4.04
0.1547	341.16	260.64	4.04
0.1547	342.14	260.67	4.04
0.1547	343.15	260.73	4.04
0.1547	344.16	260.83	4.04
0.1547	345.14	260.94	4.04
0.1547	346.15	261	4.04
0.1547	347.16	261.01	4.04
0.1547	348.16	261.02	4.04
0.1547	349.15	261.07	4.04
0.1547	350.16	261.07	4.04
0.1547	351.14	261.02	4.04
0.1547	352.15	261.06	4.04
0.1547	353.15	260.99	4.04
0.1999	284.14	234.97	3.64
0.1999	285.15	235.77	3.65
0.1999	286.16	236.66	3.67
0.1999	287.14	237.42	3.68
0.1999	288.15	238.28	3.69
0.1999	289.14	239.11	3.7
0.1999	290.14	239.89	3.72
0.1999	291.15	240.73	3.73
0.1999	292.14	241.49	3.74
0.1999	293.14	242.32	3.75
0.1999	294.15	243.15	3.77
0.1999	295.14	243.96	3.78
0.1999	296.14	244.6	3.79
0.1999	297.15	245.46	3.8
0.1999	298.14	246.18	3.81
0.1999	298.16	246.2	3.81
0.1999	299.14	246.99	3.83
0.1999	300.15	247.7	3.84
0.1999	301.14	248.44	3.85
0.1999	302.14	249.24	3.86
0.1999	303.15	249.92	3.87
0.1999	304.14	250.66	3.88
0.1999	305.14	251.35	3.89
0.1999	306.15	252.03	3.9
0.1999	307.16	252.7	3.91
0.1999	308.16	253.31	3.92
0.1999	309.15	253.95	3.93
0.1999	310.16	254.63	3.94
0.1999	311.14	255.2	3.95
0.1999	312.15	255.82	3.96
0.1999	313.16	256.43	3.97
0.1999	314.14	257.01	3.98
0.1999	315.15	257.6	3.99
0.1999	316.16	258.06	4
0.1999	317.14	258.58	4.01
0.1999	318.15	259.15	4.01
0.1999	319.15	259.62	4.02
0.1999	320.14	260.03	4.03
0.1999	321.15	260.55	4.04
0.1999	322.15	261.03	4.04
0.1999	323.14	261.38	4.05
0.1999	324.15	261.78	4.06
0.1999	325.15	262.12	4.06
0.1999	326.14	262.54	4.07
0.1999	327.14	262.84	4.07
0.1999	328.15	263.19	4.08
0.1999	329.14	263.54	4.08
0.1999	330.15	263.87	4.09
0.1999	331.15	264.08	4.09
0.1999	332.14	264.36	4.1
0.1999	333.14	264.68	4.1
0.1999	334.15	264.99	4.11
0.1999	335.14	265.1	4.11
0.1999	336.14	265.26	4.11
0.1999	337.15	265.46	4.11
0.1999	338.16	265.67	4.12
0.1999	339.14	265.8	4.12
0.1999	340.15	266.02	4.12
0.1999	341.16	266.06	4.12
0.1999	342.14	266.17	4.12
0.1999	343.15	266.34	4.13
0.1999	344.16	266.48	4.13
0.1999	345.14	266.5	4.13
0.1999	346.15	266.61	4.13
0.1999	347.16	266.57	4.13
0.1999	348.16	266.63	4.13
0.1999	349.15	266.66	4.13
0.1999	350.15	266.71	4.13
0.1999	351.14	266.6	4.13
0.1999	352.15	266.66	4.13
0.1999	353.15	266.57	4.13
0.2993	284.16	235.98	3.66
0.2993	285.15	236.86	3.67
0.2993	286.16	237.91	3.69
0.2993	287.14	238.78	3.7
0.2993	288.15	239.83	3.72
0.2993	289.14	240.71	3.73
0.2993	290.14	241.62	3.74
0.2993	291.15	242.6	3.76
0.2993	292.14	243.55	3.77
0.2993	293.14	244.48	3.79
0.2993	294.15	245.43	3.8
0.2993	295.14	246.32	3.82
0.2993	296.14	247.2	3.83
0.2993	297.15	248.18	3.84
0.2993	298.14	249.05	3.86
0.2993	298.16	249.07	3.86
0.2993	299.14	249.97	3.87
0.2993	300.15	250.81	3.89
0.2993	301.14	251.7	3.9
0.2993	302.14	252.65	3.91
0.2993	303.15	253.53	3.93
0.2993	304.16	254.39	3.94
0.2993	305.14	255.22	3.95
0.2993	306.15	256.04	3.97
0.2993	307.16	256.85	3.98
0.2993	308.14	257.61	3.99
0.2993	309.15	258.43	4
0.2993	310.16	259.26	4.02
0.2993	311.14	259.96	4.03
0.2993	312.15	260.68	4.04
0.2993	313.16	261.51	4.05
0.2993	314.14	262.2	4.06
0.2993	315.15	262.9	4.07
0.2993	316.16	263.57	4.08
0.2993	317.14	264.25	4.09
0.2993	318.15	264.95	4.1
0.2993	319.15	265.58	4.11
0.2993	320.14	266.13	4.12
0.2993	321.15	266.78	4.13
0.2993	322.15	267.36	4.14
0.2993	323.14	267.94	4.15
0.2993	324.15	268.5	4.16
0.2993	325.15	269.04	4.17
0.2993	326.14	269.54	4.18
0.2993	327.15	269.94	4.18
0.2993	328.15	270.46	4.19
0.2993	329.14	270.92	4.2
0.2993	330.14	271.42	4.2
0.2993	331.15	271.78	4.21
0.2993	332.14	272.13	4.22
0.2993	333.14	272.54	4.22
0.2993	334.15	272.99	4.23
0.2993	335.14	273.19	4.23
0.2993	336.14	273.56	4.24
0.2993	337.15	273.86	4.24
0.2993	338.14	274.14	4.25
0.2993	339.14	274.34	4.25
0.2993	340.15	274.71	4.26
0.2993	341.16	274.84	4.26
0.2993	342.14	275.1	4.26
0.2993	343.15	275.23	4.26
0.2993	344.16	275.42	4.27
0.2993	345.14	275.63	4.27
0.2993	346.15	275.72	4.27
0.2993	347.16	275.89	4.27
0.2993	348.14	275.95	4.28
0.2993	349.15	276.06	4.28
0.2993	350.16	276.06	4.28
0.2993	351.16	276.1	4.28
0.2993	352.15	276.22	4.28
0.2993	353.15	276.2	4.28
0.4051	284.14	235.79	3.65
0.4051	285.15	236.78	3.67
0.4051	286.16	237.9	3.69
0.4051	287.14	238.87	3.7
0.4051	288.15	240.03	3.72
0.4051	289.14	241.03	3.73
0.4051	290.14	242.04	3.75
0.4051	291.15	243.13	3.77
0.4051	292.14	244.19	3.78
0.4051	293.14	245.2	3.8
0.4051	294.15	246.27	3.82
0.4051	295.14	247.28	3.83
0.4051	296.14	248.27	3.85
0.4051	297.15	249.33	3.86
0.4051	298.14	250.35	3.88
0.4051	298.16	250.39	3.88
0.4051	299.14	251.31	3.89
0.4051	300.15	252.27	3.91
0.4051	301.14	253.31	3.92
0.4051	302.14	254.36	3.94
0.4051	303.15	255.32	3.96
0.4051	304.16	256.27	3.97
0.4051	305.14	257.25	3.99
0.4051	306.15	258.23	4
0.4051	307.16	259.16	4.01
0.4051	308.14	260.05	4.03
0.4051	309.15	260.95	4.04
0.4051	310.16	261.91	4.06
0.4051	311.14	262.71	4.07
0.4051	312.15	263.58	4.08
0.4051	313.16	264.53	4.1
0.4051	314.14	265.3	4.11
0.4051	315.15	266.17	4.12
0.4051	316.16	266.93	4.14
0.4051	317.14	267.74	4.15
0.4051	318.15	268.55	4.16
0.4051	319.15	269.3	4.17
0.4051	320.14	269.96	4.18
0.4051	321.15	270.74	4.19
0.4051	322.15	271.46	4.21
0.4051	323.14	272.09	4.22
0.4051	324.15	272.8	4.23
0.4051	325.15	273.4	4.24
0.4051	326.14	274.06	4.25
0.4051	327.15	274.66	4.26
0.4051	328.15	275.23	4.26
0.4051	329.14	275.78	4.27
0.4051	330.15	276.4	4.28
0.4051	331.15	276.82	4.29
0.4051	332.11	277.29	4.3
0.4051	333.14	277.88	4.3
0.4051	334.15	278.43	4.31
0.4051	335.14	278.76	4.32
0.4051	336.14	279.11	4.32
0.4051	337.15	279.59	4.33
0.4051	338.14	280.08	4.34
0.4051	339.14	280.35	4.34
0.4051	340.15	280.76	4.35
0.4051	341.16	281	4.35
0.4051	342.14	281.32	4.36
0.4051	343.15	281.6	4.36
0.4051	344.16	281.89	4.37
0.4051	345.14	282.19	4.37
0.4051	346.15	282.35	4.37
0.4051	347.16	282.48	4.38
0.4051	348.14	282.77	4.38
0.4051	349.15	282.91	4.38
0.4051	350.16	283.01	4.38
0.4051	351.14	283	4.38
0.4051	352.15	283.15	4.39
0.4051	353.15	283.18	4.39
0.4986	284.16	235.43	3.65
0.4986	285.15	236.52	3.66
0.4986	286.16	237.63	3.68
0.4986	287.14	238.65	3.7
0.4986	288.15	239.84	3.72
0.4986	289.14	240.91	3.73
0.4986	290.14	241.98	3.75
0.4986	291.15	243.16	3.77
0.4986	292.14	244.28	3.78
0.4986	293.14	245.35	3.8
0.4986	294.15	246.46	3.82
0.4986	295.14	247.54	3.83
0.4986	296.14	248.61	3.85
0.4986	297.15	249.76	3.87
0.4986	298.14	250.83	3.89
0.4986	298.16	250.87	3.89
0.4986	299.14	251.91	3.9
0.4986	300.15	252.92	3.92
0.4986	301.14	253.99	3.93
0.4986	302.14	255.15	3.95
0.4986	303.15	256.2	3.97
0.4986	304.14	257.22	3.98
0.4986	305.14	258.3	4
0.4986	306.15	259.33	4.02
0.4986	307.16	260.39	4.03
0.4986	308.14	261.33	4.05
0.4986	309.15	262.32	4.06
0.4986	310.16	263.33	4.08
0.4986	311.14	264.23	4.09
0.4986	312.15	265.2	4.11
0.4986	313.16	266.22	4.12
0.4986	314.14	267.11	4.14
0.4986	315.15	268.03	4.15
0.4986	316.16	268.88	4.17
0.4986	317.14	269.71	4.18
0.4986	318.15	270.68	4.19
0.4986	319.15	271.51	4.21
0.4986	320.14	272.22	4.22
0.4986	321.15	273.12	4.23
0.4986	322.15	273.9	4.24
0.4986	323.14	274.67	4.26
0.4986	324.15	275.41	4.27
0.4986	325.15	276.1	4.28
0.4986	326.14	276.85	4.29
0.4986	327.15	277.47	4.3
0.4986	328.15	278.16	4.31
0.4986	329.14	278.83	4.32
0.4986	330.14	279.45	4.33
0.4986	331.15	280.03	4.34
0.4986	332.14	280.59	4.35
0.4986	333.14	281.17	4.36
0.4986	334.15	281.83	4.37
0.4986	335.14	282.26	4.37
0.4986	336.14	282.65	4.38
0.4986	337.15	283.2	4.39
0.4986	338.14	283.63	4.39
0.4986	339.14	284.12	4.4
0.4986	340.15	284.68	4.41
0.4986	341.16	284.87	4.41
0.4986	342.14	285.37	4.42
0.4986	343.15	285.7	4.43
0.4986	344.16	286.07	4.43
0.4986	345.14	286.41	4.44
0.4986	346.15	286.63	4.44
0.4986	347.16	286.83	4.44
0.4986	348.14	287.07	4.45
0.4986	349.15	287.38	4.45
0.4986	350.15	287.48	4.45
0.4986	351.14	287.61	4.46
0.4986	352.15	287.82	4.46
0.4986	353.15	287.86	4.46
0.5981	284.14	234.72	3.64
0.5981	285.15	235.88	3.65
0.5981	286.16	237.03	3.67
0.5981	287.14	238.11	3.69
0.5981	288.15	239.38	3.71
0.5981	289.14	240.51	3.73
0.5981	290.14	241.64	3.74
0.5981	291.15	242.84	3.76
0.5981	292.14	243.93	3.78
0.5981	293.14	245.12	3.8
0.5981	294.15	246.23	3.81
0.5981	295.14	247.38	3.83
0.5981	296.14	248.5	3.85
0.5981	297.15	249.72	3.87
0.5981	298.14	250.81	3.89
0.5981	298.16	250.84	3.89
0.5981	299.14	251.9	3.9
0.5981	300.15	253	3.92
0.5981	301.14	254.13	3.94
0.5981	302.14	255.29	3.96
0.5981	303.15	256.41	3.97
0.5981	304.16	257.54	3.99
0.5981	305.14	258.63	4.01
0.5981	306.15	259.69	4.02
0.5981	307.16	260.8	4.04
0.5981	308.14	261.79	4.06
0.5981	309.15	262.83	4.07
0.5981	310.16	263.88	4.09
0.5981	311.14	264.84	4.1
0.5981	312.15	265.84	4.12
0.5981	313.16	266.9	4.13
0.5981	314.14	267.83	4.15
0.5981	315.15	268.84	4.16
0.5981	316.16	269.72	4.18
0.5981	317.14	270.72	4.19
0.5981	318.15	271.65	4.21
0.5981	319.15	272.56	4.22
0.5981	320.14	273.33	4.23
0.5981	321.15	274.26	4.25
0.5981	322.15	275.18	4.26
0.5981	323.14	275.95	4.28
0.5981	324.15	276.79	4.29
0.5981	325.15	277.56	4.3
0.5981	326.14	278.41	4.31
0.5981	327.15	279.08	4.32
0.5981	328.15	279.9	4.34
0.5981	329.14	280.59	4.35
0.5981	330.14	281.32	4.36
0.5981	331.15	282	4.37
0.5981	332.14	282.58	4.38
0.5981	333.15	283.29	4.39
0.5981	334.15	284.02	4.4
0.5981	335.14	284.55	4.41
0.5981	336.14	285.05	4.42
0.5981	337.15	285.63	4.42
0.5981	338.14	286.18	4.43
0.5981	339.14	286.77	4.44
0.5981	340.15	287.28	4.45
0.5981	341.16	287.66	4.46
0.5981	342.14	288.22	4.47
0.5981	343.15	288.61	4.47
0.5981	344.16	289.06	4.48
0.5981	345.14	289.46	4.48
0.5981	346.15	289.78	4.49
0.5981	347.16	290.05	4.49
0.5981	348.14	290.42	4.5
0.5981	349.15	290.79	4.5
0.5981	350.15	290.98	4.51
0.5981	351.14	291.23	4.51
0.5981	352.15	291.44	4.51
0.5981	353.15	291.63	4.52
0.7015	284.14	233.37	3.62
0.7015	285.15	234.58	3.63
0.7015	286.16	235.81	3.65
0.7015	287.14	236.94	3.67
0.7015	288.15	238.26	3.69
0.7015	289.14	239.53	3.71
0.7015	290.14	240.72	3.73
0.7015	291.15	241.97	3.75
0.7015	292.14	243.17	3.77
0.7015	293.14	244.38	3.79
0.7015	294.15	245.52	3.8
0.7015	295.14	246.7	3.82
0.7015	296.14	247.88	3.84
0.7015	297.15	249.04	3.86
0.7015	298.14	250.24	3.88
0.7015	298.16	250.29	3.88
0.7015	299.14	251.35	3.89
0.7015	300.15	252.48	3.91
0.7015	301.14	253.67	3.93
0.7015	302.14	254.9	3.95
0.7015	303.15	256.05	3.97
0.7015	304.16	257.2	3.98
0.7015	305.14	258.36	4
0.7015	306.15	259.47	4.02
0.7015	307.16	260.58	4.04
0.7015	308.14	261.67	4.05
0.7015	309.15	262.76	4.07
0.7015	310.16	263.9	4.09
0.7015	311.14	264.89	4.1
0.7015	312.15	265.94	4.12
0.7015	313.16	267.08	4.14
0.7015	314.14	268.09	4.15
0.7015	315.15	269.07	4.17
0.7015	316.16	270.07	4.18
0.7015	317.14	271.01	4.2
0.7015	318.15	272.08	4.22
0.7015	319.15	273.04	4.23
0.7015	320.14	273.87	4.24
0.7015	321.15	274.94	4.26
0.7015	322.15	275.82	4.27
0.7015	323.14	276.7	4.29
0.7015	324.15	277.57	4.3
0.7015	325.15	278.38	4.31
0.7015	326.14	279.29	4.33
0.7015	327.15	280.02	4.34
0.7015	328.15	280.91	4.35
0.7015	329.14	281.67	4.36
0.7015	330.14	282.46	4.38
0.7015	331.15	283.13	4.39
0.7015	332.14	283.9	4.4
0.7015	333.14	284.62	4.41
0.7015	334.15	285.36	4.42
0.7015	335.14	286	4.43
0.7015	336.14	286.5	4.44
0.7015	337.15	287.22	4.45
0.7015	338.14	287.86	4.46
0.7015	339.14	288.43	4.47
0.7015	340.15	289.07	4.48
0.7015	341.16	289.5	4.48
0.7015	342.14	290.08	4.49
0.7015	343.15	290.51	4.5
0.7015	344.16	291.07	4.51
0.7015	345.14	291.51	4.52
0.7015	346.15	291.88	4.52
0.7015	347.16	292.26	4.53
0.7015	348.14	292.68	4.53
0.7015	349.15	293.13	4.54
0.7015	350.15	293.35	4.54
0.7015	351.14	293.67	4.55
0.7015	352.15	293.88	4.55
0.7015	353.15	294.17	4.56
0.8023	284.18	232.34	3.6
0.8023	285.15	233.57	3.62
0.8023	286.16	234.67	3.64
0.8023	287.14	235.73	3.65
0.8023	288.15	237.01	3.67
0.8023	289.14	238.27	3.69
0.8023	290.14	239.53	3.71
0.8023	291.15	240.74	3.73
0.8023	292.14	241.93	3.75
0.8023	293.14	243.13	3.77
0.8023	294.15	244.34	3.79
0.8023	295.14	245.54	3.8
0.8023	296.14	246.68	3.82
0.8023	297.15	247.89	3.84
0.8023	298.14	249.08	3.86
0.8023	298.16	249.11	3.86
0.8023	299.14	250.25	3.88
0.8023	300.15	251.41	3.89
0.8023	301.14	252.61	3.91
0.8023	302.14	253.83	3.93
0.8023	303.15	255	3.95
0.8023	304.14	256.13	3.97
0.8023	305.14	257.38	3.99
0.8023	306.15	258.63	4.01
0.8023	307.16	259.83	4.03
0.8023	308.14	260.9	4.04
0.8023	309.15	261.98	4.06
0.8023	310.16	263.1	4.08
0.8023	311.14	264.11	4.09
0.8023	312.15	265.15	4.11
0.8023	313.16	266.27	4.13
0.8023	314.14	267.27	4.14
0.8023	315.15	268.34	4.16
0.8023	316.16	269.26	4.17
0.8023	317.14	270.34	4.19
0.8023	318.15	271.36	4.2
0.8023	319.15	272.38	4.22
0.8023	320.14	273.27	4.23
0.8023	321.15	274.3	4.25
0.8023	322.15	275.19	4.26
0.8023	323.14	276.15	4.28
0.8023	324.15	277.05	4.29
0.8023	325.15	277.92	4.31
0.8023	326.14	278.83	4.32
0.8023	327.15	279.59	4.33
0.8023	328.15	280.5	4.35
0.8023	329.14	281.37	4.36
0.8023	330.14	282.14	4.37
0.8023	331.15	282.9	4.38
0.8023	332.14	283.62	4.39
0.8023	333.14	284.48	4.41
0.8023	334.15	285.27	4.42
0.8023	335.14	285.89	4.43
0.8023	336.14	286.51	4.44
0.8023	337.15	287.25	4.45
0.8023	338.14	287.94	4.46
0.8023	339.14	288.55	4.47
0.8023	340.15	289.24	4.48
0.8023	341.16	289.74	4.49
0.8023	342.14	290.39	4.5
0.8023	343.15	290.89	4.51
0.8023	344.16	291.49	4.52
0.8023	345.14	291.94	4.52
0.8023	346.15	292.49	4.53
0.8023	347.16	292.88	4.54
0.8023	348.14	293.3	4.54
0.8023	349.15	293.78	4.55
0.8023	350.15	294.18	4.56
0.8023	351.14	294.44	4.56
0.8023	352.15	294.82	4.57
0.8023	353.15	295.16	4.57
0.9139	284.14	231.9	3.59
0.9139	285.51	233.61	3.62
0.9139	286.16	234.27	3.63
0.9139	287.14	235.37	3.65
0.9139	288.15	236.54	3.66
0.9139	289.14	237.62	3.68
0.9139	290.14	238.75	3.7
0.9139	291.15	239.92	3.72
0.9139	292.14	241.07	3.73
0.9139	293.14	242.22	3.75
0.9139	294.15	243.38	3.77
0.9139	295.14	244.5	3.79
0.9139	296.14	245.64	3.81
0.9139	297.15	246.86	3.82
0.9139	298.14	247.97	3.84
0.9139	298.16	248	3.84
0.9139	299.14	249.1	3.86
0.9139	300.15	250.21	3.88
0.9139	301.14	251.4	3.89
0.9139	302.14	252.62	3.91
0.9139	303.15	254.11	3.94
0.9139	304.14	254.91	3.95
0.9139	305.14	256.1	3.97
0.9139	306.15	257.22	3.98
0.9139	307.16	258.36	4
0.9139	308.14	259.4	4.02
0.9139	309.15	260.52	4.04
0.9139	310.16	261.67	4.05
0.9139	311.14	262.65	4.07
0.9139	312.15	263.76	4.09
0.9139	313.16	264.91	4.1
0.9139	314.14	265.99	4.12
0.9139	315.15	267.02	4.14
0.9139	316.16	268	4.15
0.9139	317.14	269.05	4.17
0.9139	318.15	270.14	4.19
0.9139	319.16	271.16	4.2
0.9139	320.14	272.09	4.22
0.9139	321.15	273.21	4.23
0.9139	322.15	274.13	4.25
0.9139	323.14	275.08	4.26
0.9139	324.15	275.96	4.28
0.9139	325.15	276.88	4.29
0.9139	326.14	277.8	4.3
0.9139	327.15	278.56	4.32
0.9139	328.15	279.46	4.33
0.9139	329.14	280.33	4.34
0.9139	330.14	281.17	4.36
0.9139	331.15	281.93	4.37
0.9139	332.14	282.68	4.38
0.9139	333.14	283.56	4.39
0.9139	334.15	284.32	4.4
0.9139	335.14	285.08	4.42
0.9139	336.14	285.7	4.43
0.9139	337.15	286.44	4.44
0.9139	338.14	287.19	4.45
0.9139	339.14	287.89	4.46
0.9139	340.15	288.58	4.47
0.9139	341.14	289.17	4.48
0.9139	342.14	289.86	4.49
0.9139	343.15	290.38	4.5
0.9139	344.16	291.02	4.51
0.9139	345.14	291.66	4.52
0.9139	346.15	292.09	4.53
0.9139	347.15	292.63	4.53
0.9139	348.14	293.11	4.54
0.9139	349.15	293.7	4.55
0.9139	350.15	294.04	4.56
0.9139	351.14	294.48	4.56
0.9139	352.15	294.82	4.57
0.9139	353.15	295.27	4.57
0.9609	284.14	232.4	3.6
0.9609	285.15	233.54	3.62
0.9609	286.16	234.56	3.63
0.9609	287.14	235.45	3.65
0.9609	288.15	236.62	3.67
0.9609	289.14	237.61	3.68
0.9609	290.14	238.68	3.7
0.9609	291.15	239.8	3.72
0.9609	292.14	240.86	3.73
0.9609	293.14	241.95	3.75
0.9609	294.15	243.11	3.77
0.9609	295.14	244.22	3.78
0.9609	296.14	245.31	3.8
0.9609	297.15	246.4	3.82
0.9609	298.14	247.48	3.83
0.9609	298.16	247.52	3.83
0.9609	299.14	248.6	3.85
0.9609	300.15	249.66	3.87
0.9609	301.14	250.8	3.89
0.9609	302.14	251.98	3.9
0.9609	303.15	253.07	3.92
0.9609	304.14	254.18	3.94
0.9609	305.14	255.35	3.96
0.9609	306.15	256.43	3.97
0.9609	307.16	257.53	3.99
0.9609	308.14	258.61	4.01
0.9609	309.15	259.67	4.02
0.9609	310.16	260.83	4.04
0.9609	311.14	261.81	4.06
0.9609	312.15	262.89	4.07
0.9609	313.16	264	4.09
0.9609	314.14	265.01	4.11
0.9609	315.15	266.09	4.12
0.9609	316.16	267.03	4.14
0.9609	317.14	268.07	4.15
0.9609	318.15	269.17	4.17
0.9609	319.15	270.15	4.19
0.9609	320.14	270.99	4.2
0.9609	321.15	272.08	4.22
0.9609	322.15	272.97	4.23
0.9609	323.14	273.92	4.24
0.9609	324.15	274.86	4.26
0.9609	325.15	275.71	4.27
0.9609	326.14	276.69	4.29
0.9609	327.15	277.44	4.3
0.9609	328.15	278.39	4.31
0.9609	329.14	279.29	4.33
0.9609	330.14	280.09	4.34
0.9609	331.15	280.9	4.35
0.9609	332.14	281.66	4.36
0.9609	333.14	282.52	4.38
0.9609	334.15	283.36	4.39
0.9609	335.14	284.15	4.4
0.9609	336.14	284.91	4.41
0.9609	337.15	285.69	4.43
0.9609	338.16	286.41	4.44
0.9609	339.14	287.02	4.45
0.9609	340.15	287.73	4.46
0.9609	341.16	288.3	4.47
0.9609	342.14	288.96	4.48
0.9609	343.15	289.53	4.49
0.9609	344.16	290.18	4.5
0.9609	345.14	290.76	4.5
0.9609	346.15	291.29	4.51
0.9609	347.16	291.82	4.52
0.9609	348.14	292.28	4.53
0.9609	349.15	292.9	4.54
0.9609	350.15	293.31	4.54
0.9609	351.14	293.76	4.55
0.9609	352.15	294.14	4.56
0.9609	353.15	294.55	4.56
