Measured thermophysical data. Thermodynamic and spectroscopic studies on binary mixtures of imidazolium ionic liquids in ethylene glycol
Source: J. Chem. Thermodyn., 2012, 10.1016/j.jct.2011.08.008
Compound 1: 1-butyl-3-methylimidazolium chloride, C8H15ClN2, InChI=1S/C8H15N2.ClH/c1-3-4-5-10-7-6-9(2)8-10;/h6-8H,3-5H2,1-2H3;1H/q+1;/p-1, purity 98%
Compound 2: 1-methyl-3-octylimidazolium chloride, C12H23ClN2, InChI=1S/C12H23N2.ClH/c1-3-4-5-6-7-8-9-14-11-10-13(2)12-14;/h10-12H,3-9H2,1-2H3;1H/q+1;/p-1, purity 98%
Compound 3: 1-butyl-3-methylimidazolium methyl sulfate, C9H18N2O4S, InChI=1S/C8H15N2.CH4O4S/c1-3-4-5-10-7-6-9(2)8-10;1-5-6(2,3)4/h6-8H,3-5H2,1-2H3;1H3,(H,2,3,4)/q+1;/p-1, purity 98%
Compound 4: 1,2-ethanediol, C2H6O2, InChI=1S/C2H6O2/c3-1-2-4/h3-4H,1-2H2, purity 99%

System: 1,2-ethanediol + 1-butyl-3-methylimidazolium chloride; phases: Liquid
Fixed: Pressure, kPa = 101
Property: Mass density, kg/m3 (Liquid); method: Vibrating tube method
Temperature, K	Mole fraction of 1-butyl-3-methylimidazolium chloride	Mass density, kg/m3	uncertainty
298.15	0	1109.8	0.53
298.15	0.0132	1108.21	0.53
298.15	0.0294	1106.1	0.54
298.15	0.0484	1104.02	0.54
298.15	0.1028	1098.95	0.55
298.15	0.2101	1092.39	0.58
298.15	0.3094	1088.58	0.61
298.15	0.4202	1085.81	0.66
298.15	0.4947	1084.46	0.69
298.15	0.5992	1083.24	0.75
298.15	0.7117	1082.47	0.81
298.15	0.8143	1082.35	0.88
298.15	0.9126	1082.27	0.95
298.15	1	1082.01	1.02
308.15	0	1102.7	0.53
308.15	0.0132	1101.08	0.53
308.15	0.0294	1099.21	0.53
308.15	0.0484	1097.19	0.53
308.15	0.1028	1092.29	0.54
308.15	0.2101	1085.44	0.57
308.15	0.3094	1081.93	0.6
308.15	0.4202	1079.23	0.65
308.15	0.4947	1078.12	0.68
308.15	0.5992	1077.18	0.74
308.15	0.7117	1076.69	0.8
308.15	0.8143	1076.51	0.87
308.15	0.9126	1076.49	0.94
308.15	1	1076.51	1.01
318.15	0	1095.5	0.52
318.15	0.0132	1093.97	0.52
318.15	0.0294	1092.21	0.53
318.15	0.0484	1090.29	0.53
318.15	0.1028	1085.61	0.54
318.15	0.2101	1079.22	0.57
318.15	0.3094	1075.58	0.6
318.15	0.4202	1072.98	0.64
318.15	0.4947	1072	0.68
318.15	0.5992	1071.11	0.73
318.15	0.7117	1070.76	0.79
318.15	0.8143	1070.75	0.86
318.15	0.9126	1070.88	0.93
318.15	1	1071.04	1

System: 1,2-ethanediol + 1-methyl-3-octylimidazolium chloride; phases: Liquid
Fixed: Pressure, kPa = 101
Property: Mass density, kg/m3 (Liquid); method: Vibrating tube method
Temperature, K	Mole fraction of 1-methyl-3-octylimidazolium chloride	Mass density, kg/m3	uncertainty
298.15	0	1109.8	0.53
298.15	0.0077	1106.07	0.54
298.15	0.0589	1085.93	0.53
298.15	0.119	1068.7	0.53
298.15	0.2112	1050.79	0.54
298.15	0.2985	1039.53	0.56
298.15	0.4021	1030.4	0.59
298.15	0.5118	1023.63	0.63
298.15	0.6041	1019.49	0.66
298.15	0.6999	1016.21	0.71
298.15	0.7837	1013.92	0.75
298.15	0.8328	1012.75	0.78
298.15	0.9583	1010.27	0.85
298.15	1	1009.56	0.88
308.15	0	1102.7	0.53
308.15	0.0077	1098.89	0.53
308.15	0.0589	1078.94	0.53
308.15	0.119	1061.98	0.53
308.15	0.2112	1044.34	0.54
308.15	0.2985	1033.27	0.55
308.15	0.4021	1024.26	0.58
308.15	0.5118	1017.52	0.62
308.15	0.6041	1013.41	0.66
308.15	0.6999	1010.14	0.7
308.15	0.7837	1007.87	0.74
308.15	0.8328	1006.75	0.77
308.15	0.9583	1004.34	0.84
308.15	1	1003.74	0.87
318.15	0	1095.5	0.52
318.15	0.0077	1091.83	0.53
318.15	0.0589	1072.21	0.52
318.15	0.119	1055.33	0.52
318.15	0.2112	1037.95	0.53
318.15	0.2985	1026.92	0.55
318.15	0.4021	1017.91	0.57
318.15	0.5118	1011.2	0.61
318.15	0.6041	1007.18	0.65
318.15	0.6999	1003.94	0.69
318.15	0.7837	1001.74	0.73
318.15	0.8328	1000.65	0.76
318.15	0.9583	998.43	0.83
318.15	1	997.92	0.86

System: 1,2-ethanediol + 1-butyl-3-methylimidazolium methyl sulfate; phases: Liquid
Fixed: Pressure, kPa = 101
Property: Mass density, kg/m3 (Liquid); method: Vibrating tube method
Temperature, K	Mole fraction of 1-butyl-3-methylimidazolium methyl sulfate	Mass density, kg/m3	uncertainty
298.15	0	1109.8	0.53
298.15	0.0052	1110.66	0.53
298.15	0.0512	1119.06	0.55
298.15	0.1106	1128.96	0.58
298.15	0.2135	1145.36	0.63
298.15	0.3018	1156.55	0.68
298.15	0.4059	1167.63	0.74
298.15	0.5066	1176.9	0.81
298.15	0.6163	1185.67	0.9
298.15	0.7	1191.66	0.97
298.15	0.8408	1199.42	1.1
298.15	0.9244	1202.97	1.19
298.15	1	1205.84	1.28
308.15	0	1102.7	0.53
308.15	0.0052	1103.5	0.53
308.15	0.0512	1111.91	0.55
308.15	0.1106	1121.84	0.57
308.15	0.2135	1138.27	0.62
308.15	0.3018	1149.5	0.67
308.15	0.4059	1160.69	0.74
308.15	0.5066	1170.01	0.81
308.15	0.6163	1178.75	0.89
308.15	0.7	1184.71	0.96
308.15	0.8408	1192.62	1.09
308.15	0.9244	1196.25	1.18
308.15	1	1199.25	1.27
318.15	0	1095.5	0.52
318.15	0.0052	1096.12	0.52
318.15	0.0512	1104.2	0.54
318.15	0.1106	1114.04	0.57
318.15	0.2135	1130.75	0.62
318.15	0.3018	1142.35	0.66
318.15	0.4059	1153.59	0.73
318.15	0.5066	1162.97	0.8
318.15	0.6163	1171.77	0.88
318.15	0.7	1177.89	0.95
318.15	0.8408	1185.85	1.08
318.15	0.9244	1189.52	1.16
318.15	1	1192.7	1.25
