Measured thermophysical data. Surface study of mixtures containing cyclic ethers and isomeric chlorobutanes
Source: J. Chem. Thermodyn., 2007, 10.1016/j.jct.2006.10.003
Compound 1: 1,3-dioxolane, C3H6O2, InChI=1S/C3H6O2/c1-2-5-3-4-1/h1-3H2
Compound 2: 1,4-dioxane, C4H8O2, InChI=1S/C4H8O2/c1-2-6-4-3-5-1/h1-4H2
Compound 3: 1-chlorobutane, C4H9Cl, InChI=1S/C4H9Cl/c1-2-3-4-5/h2-4H2,1H3
Compound 4: 2-chlorobutane, C4H9Cl, InChI=1S/C4H9Cl/c1-3-4(2)5/h4H,3H2,1-2H3
Compound 5: 1-chloro-2-methylpropane, C4H9Cl, InChI=1S/C4H9Cl/c1-4(2)3-5/h4H,3H2,1-2H3
Compound 6: 2-chloro-2-methylpropane, C4H9Cl, InChI=1S/C4H9Cl/c1-4(2,3)5/h1-3H3

System: 1,3-dioxolane; phases: Liquid
Property: Mass density, kg/m3 (Liquid); method: VIBTUB:UFactor:6
Temperature, K	Pressure, kPa	Mass density, kg/m3	uncertainty
298.15	101.325	1058.62	0.71

System: 1,3-dioxolane; phases: Liquid, Gas
Property: Surface tension liquid-gas, N/m (Liquid); method: Drop volume
Temperature, K	Surface tension liquid-gas, N/m	uncertainty
298.15	0.03271	0.00023
313.15	0.03066	0.00022

System: 1,4-dioxane; phases: Liquid
Property: Mass density, kg/m3 (Liquid); method: VIBTUB:UFactor:2
Temperature, K	Pressure, kPa	Mass density, kg/m3	uncertainty
298.15	101.325	1027.87	0.12

System: 1,4-dioxane; phases: Liquid, Gas
Property: Surface tension liquid-gas, N/m (Liquid); method: Drop volume
Temperature, K	Surface tension liquid-gas, N/m	uncertainty
298.15	0.03283	0.00017
313.15	0.03073	0.00016

System: 1-chlorobutane; phases: Liquid
Property: Mass density, kg/m3 (Liquid); method: VIBTUB:UFactor:6
Temperature, K	Pressure, kPa	Mass density, kg/m3	uncertainty
298.15	101.325	880.69	0.81

System: 1-chlorobutane; phases: Liquid, Gas
Property: Surface tension liquid-gas, N/m (Liquid); method: Drop volume
Temperature, K	Surface tension liquid-gas, N/m	uncertainty
298.15	0.02329	0.00018
313.15	0.02158	0.00017

System: 2-chlorobutane; phases: Liquid
Property: Mass density, kg/m3 (Liquid); method: VIBTUB:UFactor:6
Temperature, K	Pressure, kPa	Mass density, kg/m3	uncertainty
298.15	101.325	867.37	0.84

System: 2-chlorobutane; phases: Liquid, Gas
Property: Surface tension liquid-gas, N/m (Liquid); method: Drop volume
Temperature, K	Surface tension liquid-gas, N/m	uncertainty
298.15	0.02183	0.00018
313.15	0.01933	0.00016

System: 1-chloro-2-methylpropane; phases: Liquid
Property: Mass density, kg/m3 (Liquid); method: VIBTUB:UFactor:8
Temperature, K	Pressure, kPa	Mass density, kg/m3	uncertainty
298.15	101.325	871.13	1.05

System: 1-chloro-2-methylpropane; phases: Liquid, Gas
Property: Surface tension liquid-gas, N/m (Liquid); method: Drop volume
Temperature, K	Surface tension liquid-gas, N/m	uncertainty
298.15	0.0218	0.00017
313.15	0.01918	0.00016

System: 2-chloro-2-methylpropane; phases: Liquid
Property: Mass density, kg/m3 (Liquid); method: VIBTUB:UFactor:8
Temperature, K	Pressure, kPa	Mass density, kg/m3	uncertainty
298.15	101.325	836.45	1.17

System: 2-chloro-2-methylpropane; phases: Liquid, Gas
Property: Surface tension liquid-gas, N/m (Liquid); method: Drop volume
Temperature, K	Surface tension liquid-gas, N/m	uncertainty
298.15	0.0189	0.00016
313.15	0.01698	0.00015

System: 1-chlorobutane + 1,3-dioxolane; phases: Liquid, Gas
Property: Surface tension liquid-gas, N/m (Liquid); method: Drop volume
Temperature, K	Mole fraction of 1,3-dioxolane	Surface tension liquid-gas, N/m	uncertainty
298.15	0.0523	0.02353	0.00018
298.15	0.1009	0.02371	0.00018
298.15	0.2558	0.02434	0.00019
298.15	0.3924	0.02506	0.00019
298.15	0.4876	0.02565	0.0002
298.15	0.5908	0.0264	0.0002
298.15	0.6848	0.02724	0.0002
298.15	0.7751	0.02823	0.00021
298.15	0.8411	0.02914	0.00021
298.15	0.9217	0.03061	0.00022
298.15	0.9643	0.03163	0.00023
313.15	0.0411	0.02174	0.00017
313.15	0.1407	0.02213	0.00018
313.15	0.2605	0.02267	0.00018
313.15	0.3986	0.0234	0.00018
313.15	0.4863	0.02396	0.00019
313.15	0.5887	0.02471	0.00019
313.15	0.7122	0.02583	0.0002
313.15	0.7628	0.02638	0.0002
313.15	0.8409	0.02739	0.0002
313.15	0.9247	0.0288	0.00021
313.15	0.9829	0.03017	0.00022

System: 2-chlorobutane + 1,3-dioxolane; phases: Liquid, Gas
Property: Surface tension liquid-gas, N/m (Liquid); method: Drop volume
Temperature, K	Mole fraction of 1,3-dioxolane	Surface tension liquid-gas, N/m	uncertainty
298.15	0.018	0.02193	0.00018
298.15	0.1593	0.02269	0.00018
298.15	0.2781	0.02339	0.00018
298.15	0.3908	0.02414	0.00019
298.15	0.4277	0.02437	0.00019
298.15	0.5959	0.02566	0.0002
298.15	0.6381	0.02605	0.0002
298.15	0.7786	0.02769	0.00021
298.15	0.8491	0.02883	0.00021
298.15	0.9323	0.03061	0.00022
298.15	0.9807	0.03202	0.00023
313.15	0.034	0.01956	0.00016
313.15	0.1659	0.02045	0.00017
313.15	0.2828	0.02128	0.00017
313.15	0.3977	0.02216	0.00018
313.15	0.4819	0.02287	0.00018
313.15	0.6046	0.02399	0.00019
313.15	0.6969	0.02496	0.00019
313.15	0.7757	0.02595	0.0002
313.15	0.8806	0.02765	0.00021
313.15	0.9461	0.02907	0.00021
313.15	0.9629	0.02952	0.00022

System: 1-chloro-2-methylpropane + 1,3-dioxolane; phases: Liquid, Gas
Property: Surface tension liquid-gas, N/m (Liquid); method: Drop volume
Temperature, K	Mole fraction of 1,3-dioxolane	Surface tension liquid-gas, N/m	uncertainty
298.15	0.0633	0.02238	0.00018
298.15	0.1416	0.02291	0.00018
298.15	0.2787	0.02362	0.00018
298.15	0.3828	0.02418	0.00019
298.15	0.5071	0.02495	0.00019
298.15	0.6012	0.02571	0.0002
298.15	0.6902	0.02657	0.0002
298.15	0.7747	0.02765	0.00021
298.15	0.8538	0.02892	0.00021
298.15	0.9211	0.03033	0.00022
298.15	0.9878	0.03227	0.00023
313.15	0.0434	0.01943	0.00016
313.15	0.1352	0.02004	0.00017
313.15	0.2801	0.0211	0.00017
313.15	0.3889	0.02199	0.00018
313.15	0.4824	0.02278	0.00018
313.15	0.5596	0.02352	0.00018
313.15	0.6975	0.0249	0.00019
313.15	0.7752	0.02587	0.0002
313.15	0.854	0.02708	0.0002
313.15	0.932	0.02869	0.00021
313.15	0.9918	0.03039	0.00022

System: 2-chloro-2-methylpropane + 1,3-dioxolane; phases: Liquid, Gas
Property: Surface tension liquid-gas, N/m (Liquid); method: Drop volume
Temperature, K	Mole fraction of 1,3-dioxolane	Surface tension liquid-gas, N/m	uncertainty
298.15	0.0666	0.01932	0.00016
298.15	0.1356	0.01973	0.00016
298.15	0.2863	0.02064	0.00017
298.15	0.4059	0.02159	0.00017
298.15	0.5111	0.02261	0.00018
298.15	0.5996	0.02363	0.00018
298.15	0.6892	0.02491	0.00019
298.15	0.7839	0.0265	0.0002
298.15	0.859	0.02809	0.00021
298.15	0.9287	0.02997	0.00022
298.15	0.9681	0.03138	0.00023
313.15	0.038	0.0172	0.00015
313.15	0.0907	0.0174	0.00015
313.15	0.2316	0.01839	0.00016
313.15	0.3052	0.01894	0.00016
313.15	0.3897	0.01976	0.00016
313.15	0.5028	0.02091	0.00017
313.15	0.6025	0.02205	0.00018
313.15	0.7055	0.02343	0.00018
313.15	0.7918	0.02486	0.00019
313.15	0.899	0.02724	0.0002
313.15	0.9563	0.02897	0.00021

System: 1-chlorobutane + 1,4-dioxane; phases: Liquid, Gas
Property: Surface tension liquid-gas, N/m (Liquid); method: Drop volume
Temperature, K	Mole fraction of 1,4-dioxane	Surface tension liquid-gas, N/m	uncertainty
298.15	0.0418	0.02355	0.00018
298.15	0.1141	0.02399	0.00018
298.15	0.2426	0.02471	0.00017
298.15	0.3358	0.02526	0.00017
298.15	0.4518	0.02603	0.00017
298.15	0.5509	0.02681	0.00016
298.15	0.5914	0.02718	0.00016
298.15	0.738	0.02869	0.00016
298.15	0.8235	0.02981	0.00016
298.15	0.9104	0.03116	0.00016
298.15	0.987	0.03256	0.00017
313.15	0.0344	0.02173	0.00017
313.15	0.117	0.02215	0.00017
313.15	0.2279	0.02281	0.00017
313.15	0.3499	0.02357	0.00016
313.15	0.4442	0.02421	0.00016
313.15	0.55	0.025	0.00016
313.15	0.645	0.02582	0.00016
313.15	0.7456	0.02687	0.00016
313.15	0.8238	0.02787	0.00016
313.15	0.9143	0.02926	0.00016
313.15	0.9636	0.0301	0.00016

System: 2-chlorobutane + 1,4-dioxane; phases: Liquid, Gas
Property: Surface tension liquid-gas, N/m (Liquid); method: Drop volume
Temperature, K	Mole fraction of 1,4-dioxane	Surface tension liquid-gas, N/m	uncertainty
298.15	0.0417	0.02211	0.00017
298.15	0.1061	0.02253	0.00017
298.15	0.2514	0.0235	0.00017
298.15	0.3493	0.02416	0.00017
298.15	0.4771	0.02515	0.00016
298.15	0.5563	0.02585	0.00016
298.15	0.6462	0.02679	0.00016
298.15	0.7343	0.02788	0.00016
298.15	0.8244	0.02925	0.00016
298.15	0.9112	0.03088	0.00016
298.15	0.9891	0.03257	0.00017
313.15	0.0475	0.01972	0.00016
313.15	0.1318	0.02042	0.00016
313.15	0.239	0.02133	0.00016
313.15	0.3414	0.0222	0.00016
313.15	0.4574	0.0232	0.00016
313.15	0.5546	0.02407	0.00016
313.15	0.6429	0.02495	0.00015
313.15	0.7326	0.026	0.00015
313.15	0.8209	0.02725	0.00016
313.15	0.9121	0.02886	0.00016
313.15	0.9525	0.0297	0.00016

System: 1,4-dioxane + 1-chloro-2-methylpropane; phases: Liquid, Gas
Property: Surface tension liquid-gas, N/m (Liquid); method: Drop volume
Temperature, K	Mole fraction of 1,4-dioxane	Surface tension liquid-gas, N/m	uncertainty
298.15	0.045	0.02223	0.00017
298.15	0.1196	0.02285	0.00017
298.15	0.2433	0.02368	0.00017
298.15	0.3412	0.02431	0.00017
298.15	0.4407	0.02502	0.00016
298.15	0.5447	0.02588	0.00016
298.15	0.6429	0.02686	0.00016
298.15	0.737	0.02797	0.00016
298.15	0.8305	0.02929	0.00016
298.15	0.9157	0.03079	0.00016
298.15	0.9515	0.03156	0.00016
313.15	0.0474	0.0195	0.00016
313.15	0.1492	0.02029	0.00016
313.15	0.2654	0.0213	0.00016
313.15	0.3687	0.02222	0.00016
313.15	0.4565	0.02304	0.00016
313.15	0.5541	0.02398	0.00015
313.15	0.6426	0.0249	0.00015
313.15	0.7423	0.02612	0.00015
313.15	0.8326	0.02743	0.00016
313.15	0.9112	0.02885	0.00016
313.15	0.9606	0.02985	0.00016

System: 1,4-dioxane + 2-chloro-2-methylpropane; phases: Liquid, Gas
Property: Surface tension liquid-gas, N/m (Liquid); method: Drop volume
Temperature, K	Mole fraction of 1,4-dioxane	Surface tension liquid-gas, N/m	uncertainty
298.15	0.0458	0.01918	0.00016
298.15	0.1594	0.02004	0.00016
298.15	0.2576	0.02091	0.00016
298.15	0.3925	0.0222	0.00016
298.15	0.4632	0.023	0.00016
298.15	0.5569	0.02405	0.00015
298.15	0.6611	0.02535	0.00016
298.15	0.7458	0.02662	0.00016
298.15	0.8395	0.02841	0.00016
298.15	0.9222	0.03044	0.00016
298.15	0.9639	0.03166	0.00016
313.15	0.054	0.01736	0.00015
313.15	0.1156	0.0178	0.00015
313.15	0.2043	0.0185	0.00015
313.15	0.2967	0.0194	0.00015
313.15	0.4027	0.02049	0.00015
313.15	0.5036	0.02153	0.00015
313.15	0.6118	0.02281	0.00015
313.15	0.7079	0.02417	0.00015
313.15	0.786	0.02545	0.00015
313.15	0.8957	0.02779	0.00016
313.15	0.963	0.02956	0.00016
