Measured thermophysical data. Solubility of carbon monoxide in bio-oil compounds
Source: J. Chem. Thermodyn., 2017, 10.1016/j.jct.2016.10.030
Compound 1: furan, C4H4O, InChI=1S/C4H4O/c1-2-4-5-3-1/h1-4H, purity 99%
Compound 2: 2-methylfuran, C5H6O, InChI=1S/C5H6O/c1-5-3-2-4-6-5/h2-4H,1H3, purity 99%
Compound 3: (E)-2-butenal, C4H6O, InChI=1S/C4H6O/c1-2-3-4-5/h2-4H,1H3/b3-2+, purity 99%
Compound 4: 2,3-butanedione, C4H6O2, InChI=1S/C4H6O2/c1-3(5)4(2)6/h1-2H3, purity 99%
Compound 5: methanol, CH4O, InChI=1S/CH4O/c1-2/h2H,1H3, purity 99.8%
Compound 6: carbon monoxide, CO, InChI=1S/CO/c1-2
Compound 7: carbon dioxide, CO2, InChI=1S/CO2/c2-1-3

System: methanol + carbon dioxide; phases: Liquid, Gas
Fixed: Temperature, K = 298.15
Property: Vapor or sublimation pressure, kPa (Liquid); method: Closed cell (Static) method
Mole fraction of carbon dioxide	Vapor or sublimation pressure, kPa	uncertainty
0.2401	2970	540
0.3036	3850	260
0.401	4470	450
0.4448	5010	230
0.5174	5340	170
0.5411	5510	160
0.6017	5640	110

System: methanol + carbon dioxide; phases: Gas, Liquid
Fixed: Temperature, K = 298.15
Property: Mole fraction of carbon dioxide (Gas); method: Chromatography
Mole fraction of carbon dioxide	Mole fraction of carbon dioxide	uncertainty
0.2401	0.9914	0.0086
0.401	0.9928	0.0072
0.4448	0.9922	0.0078
0.5174	0.9929	0.0071
0.5411	0.9929	0.0071
0.6017	0.9924	0.0076

System: (E)-2-butenal + carbon monoxide; phases: Liquid, Gas
Property: Vapor or sublimation pressure, kPa (Liquid); method: Closed cell (Static) method
Temperature, K	Mole fraction of carbon monoxide	Vapor or sublimation pressure, kPa	uncertainty
298.15	0.0062	1280	480
298.15	0.0097	2040	490
298.15	0.0125	2690	480
298.15	0.0146	3210	400
298.15	0.0177	3740	370
298.15	0.0199	4190	440
298.15	0.023	4900	390
298.15	0.0255	5400	430
298.15	0.0287	6110	360
323.15	0.0091	1740	620
323.15	0.0113	2310	460
323.15	0.0155	3110	370
323.15	0.019	3740	450
323.15	0.0209	4230	390
323.15	0.0253	5000	330
323.15	0.0279	5500	360
323.15	0.0315	6130	350

System: 2-methylfuran + carbon monoxide; phases: Liquid, Gas
Property: Vapor or sublimation pressure, kPa (Liquid); method: Closed cell (Static) method
Temperature, K	Mole fraction of carbon monoxide	Vapor or sublimation pressure, kPa	uncertainty
273.15	0.0067	1170	130
273.15	0.0128	2450	150
273.15	0.0226	4220	220
273.15	0.0259	4790	160
273.15	0.0306	5470	220
273.15	0.0331	6120	410
273.15	0.0345	6350	170
298.15	0.0052	880	110
298.15	0.0115	2020	110
298.15	0.0159	2780	180
298.15	0.0203	3580	240
298.15	0.0286	4940	150
298.15	0.0333	5490	180
298.15	0.0358	6000	390
298.15	0.037	6420	510
323.15	0.0203	3010	260
323.15	0.026	4060	260
323.15	0.0303	4620	290
323.15	0.0334	5130	360
323.15	0.0362	5570	760
323.15	0.0388	6210	450
323.15	0.042	6750	470

System: furan + carbon monoxide; phases: Liquid, Gas
Property: Vapor or sublimation pressure, kPa (Liquid); method: Closed cell (Static) method
Temperature, K	Mole fraction of carbon monoxide	Vapor or sublimation pressure, kPa	uncertainty
283.15	0.0086	1220	190
283.15	0.0122	1780	150
283.15	0.0143	2090	170
283.15	0.0194	2800	200
283.15	0.0228	3330	210
283.15	0.0275	3990	230
283.15	0.0292	4230	250
283.15	0.0331	4770	280
283.15	0.0381	5460	300
298.15	0.0099	1380	170
298.15	0.0136	1900	150
298.15	0.0173	2320	160
298.15	0.0203	2770	190
298.15	0.0235	3140	180
298.15	0.0262	3550	230
298.15	0.0306	4170	240
298.15	0.0345	4640	250
298.15	0.0382	5100	270
298.15	0.0426	5610	290
323.15	0.0259	2870	190
323.15	0.0303	3390	240
323.15	0.033	3820	230
323.15	0.0371	4170	210
323.15	0.0427	4730	310
323.15	0.0457	5140	300
323.15	0.0494	5510	310
323.15	0.0544	6110	360
323.15	0.0593	6700	390

System: 2,3-butanedione + carbon monoxide; phases: Liquid, Gas
Property: Vapor or sublimation pressure, kPa (Liquid); method: Closed cell (Static) method
Temperature, K	Mole fraction of carbon monoxide	Vapor or sublimation pressure, kPa	uncertainty
273.15	0.0076	1740	740
273.15	0.0095	2130	830
273.15	0.0124	2790	900
273.15	0.0155	3630	1010
273.15	0.0184	4380	930
273.15	0.0203	4950	910
273.15	0.0228	5500	900
273.15	0.0242	5940	990
273.15	0.0262	6490	760
273.15	0.0296	7170	680
298.15	0.0067	1460	670
298.15	0.009	1990	540
298.15	0.0111	2460	610
298.15	0.014	3180	600
298.15	0.0165	3780	690
298.15	0.0179	4210	630
298.15	0.0221	5030	590
298.15	0.0248	5790	800
298.15	0.0278	6440	680
298.15	0.0312	7120	370
323.15	0.0063	1220	540
323.15	0.0106	2000	600
323.15	0.0135	2480	700
323.15	0.0166	3160	750
323.15	0.021	3900	760
323.15	0.0227	4430	780
323.15	0.0275	5350	690
323.15	0.0326	6240	680
323.15	0.0364	6950	750
323.15	0.0401	7640	750
