Measured thermophysical data. Thermodynamic, transport and excess properties of 2-butoxy ethanol +1-alkanol (C6,C8,C10) at different temperatures
Source: J. Chem. Thermodyn., 2013, 10.1016/j.jct.2013.04.021
Compound 1: 2-butoxyethan-1-ol, C6H14O2, InChI=1S/C6H14O2/c1-2-3-5-8-6-4-7/h7H,2-6H2,1H3, purity 99%
Compound 2: hexan-1-ol, C6H14O, InChI=1S/C6H14O/c1-2-3-4-5-6-7/h7H,2-6H2,1H3, purity 99%
Compound 3: octan-1-ol, C8H18O, InChI=1S/C8H18O/c1-2-3-4-5-6-7-8-9/h9H,2-8H2,1H3, purity 99%
Compound 4: decan-1-ol, C10H22O, InChI=1S/C10H22O/c1-2-3-4-5-6-7-8-9-10-11/h11H,2-10H2,1H3, purity 99%

System: 2-butoxyethan-1-ol; phases: Liquid
Property: Mass density, kg/m3 (Liquid); method: Vibrating tube method
Temperature, K	Pressure, kPa	Mass density, kg/m3	uncertainty
298.15	101.325	896.312	0.237

System: 2-butoxyethan-1-ol; phases: Liquid
Property: Viscosity, Pa*s (Liquid); method: Capillary tube (Ostwald; Ubbelohde) method
Temperature, K	Pressure, kPa	Viscosity, Pa*s	uncertainty
298.15	101.325	0.002885	6.3e-05

System: 2-butoxyethan-1-ol; phases: Liquid
Property: Speed of sound, m/s (Liquid); method: Sing-around technique in a fixed-path interferometer
Temperature, K	Pressure, kPa	Speed of sound, m/s	uncertainty
298.15	101.325	1306.04	1.55

System: hexan-1-ol; phases: Liquid
Property: Mass density, kg/m3 (Liquid); method: Vibrating tube method
Temperature, K	Pressure, kPa	Mass density, kg/m3	uncertainty
298.15	101.325	815.652	0.241

System: hexan-1-ol; phases: Liquid
Property: Viscosity, Pa*s (Liquid); method: Capillary tube (Ostwald; Ubbelohde) method
Temperature, K	Pressure, kPa	Viscosity, Pa*s	uncertainty
298.15	101.325	0.004623	0.000102

System: hexan-1-ol; phases: Liquid
Property: Speed of sound, m/s (Liquid); method: Sing-around technique in a fixed-path interferometer
Temperature, K	Pressure, kPa	Speed of sound, m/s	uncertainty
298.15	101.325	1303.54	1.55

System: octan-1-ol; phases: Liquid
Property: Mass density, kg/m3 (Liquid); method: Vibrating tube method
Temperature, K	Pressure, kPa	Mass density, kg/m3	uncertainty
298.15	101.325	821.877	0.24

System: octan-1-ol; phases: Liquid
Property: Viscosity, Pa*s (Liquid); method: Capillary tube (Ostwald; Ubbelohde) method
Temperature, K	Pressure, kPa	Viscosity, Pa*s	uncertainty
298.15	101.325	0.00768	0.000173

System: octan-1-ol; phases: Liquid
Property: Speed of sound, m/s (Liquid); method: Sing-around technique in a fixed-path interferometer
Temperature, K	Pressure, kPa	Speed of sound, m/s	uncertainty
298.15	101.325	1347.32	1.56

System: decan-1-ol; phases: Liquid
Property: Mass density, kg/m3 (Liquid); method: Vibrating tube method
Temperature, K	Pressure, kPa	Mass density, kg/m3	uncertainty
298.15	101.325	826.489	0.24

System: decan-1-ol; phases: Liquid
Property: Viscosity, Pa*s (Liquid); method: Capillary tube (Ostwald; Ubbelohde) method
Temperature, K	Pressure, kPa	Viscosity, Pa*s	uncertainty
298.15	101.325	0.011809	0.000275

System: decan-1-ol; phases: Liquid
Property: Speed of sound, m/s (Liquid); method: Sing-around technique in a fixed-path interferometer
Temperature, K	Pressure, kPa	Speed of sound, m/s	uncertainty
298.15	101.325	1379.43	1.56

System: hexan-1-ol + 2-butoxyethan-1-ol; phases: Liquid
Fixed: Pressure, kPa = 101
Property: Mass density, kg/m3 (Liquid); method: Vibrating tube method
Temperature, K	Mole fraction of 2-butoxyethan-1-ol	Mass density, kg/m3	uncertainty
293.15	0.0535	823.637	0.238
293.15	0.1046	827.82	0.238
293.15	0.1546	831.917	0.238
293.15	0.2054	836.077	0.238
293.15	0.253	839.982	0.238
293.15	0.2999	843.819	0.237
293.15	0.4044	852.353	0.237
293.15	0.5039	860.457	0.237
293.15	0.5932	867.724	0.236
293.15	0.7003	876.414	0.236
293.15	0.8019	884.63	0.236
293.15	0.8545	888.867	0.236
293.15	0.8987	892.418	0.236
293.15	0.9522	896.698	0.236
298.15	0.0535	820.01	0.238
298.15	0.1046	824.093	0.238
298.15	0.1546	828.161	0.238
298.15	0.2054	832.312	0.238
298.15	0.253	836.221	0.238
298.15	0.2999	840.066	0.237
298.15	0.4044	848.606	0.237
298.15	0.5039	856.686	0.237
298.15	0.5932	863.892	0.237
298.15	0.7003	872.492	0.236
298.15	0.8019	880.623	0.236
298.15	0.8545	884.811	0.236
298.15	0.8987	888.334	0.236
298.15	0.9522	892.569	0.236
303.15	0.0535	816.368	0.239
303.15	0.1046	820.503	0.238
303.15	0.1546	824.557	0.238
303.15	0.2054	828.676	0.238
303.15	0.253	832.536	0.238
303.15	0.2999	836.324	0.238
303.15	0.4044	844.739	0.237
303.15	0.5039	852.713	0.237
303.15	0.5932	859.852	0.237
303.15	0.7003	868.399	0.237
303.15	0.8019	876.485	0.236
303.15	0.8545	880.662	0.236
303.15	0.8987	884.162	0.236
303.15	0.9522	888.376	0.236
308.15	0.0535	812.694	0.239
308.15	0.1046	816.794	0.239
308.15	0.1546	820.816	0.238
308.15	0.2054	824.902	0.238
308.15	0.253	828.737	0.238
308.15	0.2999	832.499	0.238
308.15	0.4044	840.855	0.238
308.15	0.5039	848.772	0.237
308.15	0.5932	855.859	0.237
308.15	0.7003	864.345	0.237
308.15	0.8019	872.393	0.236
308.15	0.8545	876.541	0.236
308.15	0.8987	880.024	0.236
308.15	0.9522	884.199	0.236
313.15	0.0535	809.018	0.239
313.15	0.1046	813.092	0.239
313.15	0.1546	817.077	0.239
313.15	0.2054	821.127	0.238
313.15	0.253	824.921	0.238
313.15	0.2999	828.653	0.238
313.15	0.4044	836.942	0.238
313.15	0.5039	844.805	0.237
313.15	0.5932	851.852	0.237
313.15	0.7003	860.279	0.237
313.15	0.8019	868.245	0.237
313.15	0.8545	872.354	0.237
313.15	0.8987	875.803	0.236
313.15	0.9522	879.956	0.236

System: hexan-1-ol + 2-butoxyethan-1-ol; phases: Liquid
Fixed: Pressure, kPa = 101
Property: Speed of sound, m/s (Liquid); method: FPINT:WF = 
Temperature, K	Mole fraction of 2-butoxyethan-1-ol	Speed of sound, m/s	uncertainty
293.15	0.0535	1319.98	1.55
293.15	0.1046	1319.4	1.55
293.15	0.1546	1319.1	1.55
293.15	0.2054	1318.77	1.55
293.15	0.253	1318.51	1.55
293.15	0.2999	1318.32	1.55
293.15	0.4044	1318.28	1.55
293.15	0.5039	1318.48	1.55
293.15	0.5932	1318.86	1.55
293.15	0.7003	1319.64	1.55
293.15	0.8019	1320.73	1.55
293.15	0.8545	1321.36	1.55
293.15	0.8987	1322.01	1.55
293.15	0.9522	1322.76	1.55
298.15	0.0535	1303.1	1.54
298.15	0.1046	1302.58	1.54
298.15	0.1546	1302.16	1.54
298.15	0.2054	1301.85	1.54
298.15	0.253	1301.6	1.54
298.15	0.2999	1301.37	1.54
298.15	0.4044	1301.28	1.54
298.15	0.5039	1301.46	1.54
298.15	0.5932	1301.85	1.54
298.15	0.7003	1302.56	1.54
298.15	0.8019	1303.62	1.54
298.15	0.8545	1304.35	1.54
298.15	0.8987	1304.96	1.54
298.15	0.9522	1305.67	1.54
303.15	0.0535	1286.31	1.54
303.15	0.1046	1285.77	1.54
303.15	0.1546	1285.49	1.54
303.15	0.2054	1285.16	1.54
303.15	0.253	1284.91	1.54
303.15	0.2999	1284.77	1.54
303.15	0.4044	1284.65	1.54
303.15	0.5039	1284.82	1.54
303.15	0.5932	1285.17	1.54
303.15	0.7003	1285.86	1.54
303.15	0.8019	1286.81	1.54
303.15	0.8545	1287.39	1.54
303.15	0.8987	1287.98	1.54
303.15	0.9522	1288.67	1.54
308.15	0.0535	1269.64	1.54
308.15	0.1046	1269.19	1.54
308.15	0.1546	1268.85	1.54
308.15	0.2054	1268.56	1.54
308.15	0.253	1268.3	1.54
308.15	0.2999	1268.18	1.54
308.15	0.4044	1268.06	1.54
308.15	0.5039	1268.21	1.54
308.15	0.5932	1268.59	1.54
308.15	0.7003	1269.25	1.54
308.15	0.8019	1270.1	1.54
308.15	0.8545	1270.59	1.54
308.15	0.8987	1271.1	1.54
308.15	0.9522	1271.77	1.54
313.15	0.0535	1253.04	1.54
313.15	0.1046	1252.67	1.54
313.15	0.1546	1252.41	1.54
313.15	0.2054	1252.17	1.54
313.15	0.253	1252	1.54
313.15	0.2999	1251.88	1.54
313.15	0.4044	1251.77	1.54
313.15	0.5039	1251.89	1.54
313.15	0.5932	1252.17	1.54
313.15	0.7003	1252.72	1.54
313.15	0.8019	1253.41	1.54
313.15	0.8545	1253.89	1.54
313.15	0.8987	1254.28	1.54
313.15	0.9522	1254.87	1.54

System: hexan-1-ol + 2-butoxyethan-1-ol; phases: Liquid
Fixed: Pressure, kPa = 101
Property: Viscosity, Pa*s (Liquid); method: Capillary tube (Ostwald; Ubbelohde) method
Temperature, K	Mole fraction of 2-butoxyethan-1-ol	Viscosity, Pa*s	uncertainty
298.15	0.0535	0.0043594	9.61e-05
298.15	0.1046	0.0041331	9.1e-05
298.15	0.1546	0.004004	8.79e-05
298.15	0.2054	0.0038205	8.38e-05
298.15	0.253	0.0036905	8.1e-05
298.15	0.2999	0.003616	7.95e-05
298.15	0.4044	0.0034643	7.67e-05
298.15	0.5039	0.0033051	7.31e-05
298.15	0.5932	0.003139	6.93e-05
298.15	0.7003	0.0030463	6.69e-05
298.15	0.8019	0.0029963	6.55e-05
298.15	0.8545	0.0029079	6.34e-05
298.15	0.8987	0.0028972	6.27e-05
298.15	0.9522	0.0028712	6.19e-05
303.15	0.0535	0.0037063	8.18e-05
303.15	0.1046	0.0035597	7.82e-05
303.15	0.1546	0.0034212	7.53e-05
303.15	0.2054	0.0033	7.25e-05
303.15	0.253	0.0031897	7e-05
303.15	0.2999	0.0031003	6.81e-05
303.15	0.4044	0.0029156	6.43e-05
303.15	0.5039	0.0027812	6.12e-05
303.15	0.5932	0.0026936	5.9e-05
303.15	0.7003	0.0026305	5.75e-05
303.15	0.8019	0.0025833	5.66e-05
303.15	0.8545	0.0025727	5.61e-05
303.15	0.8987	0.0025954	5.65e-05
303.15	0.9522	0.0026129	5.69e-05
308.15	0.0535	0.0032431	7.13e-05
308.15	0.1046	0.0031198	6.85e-05
308.15	0.1546	0.0030063	6.6e-05
308.15	0.2054	0.0028958	6.35e-05
308.15	0.253	0.0028068	6.15e-05
308.15	0.2999	0.0027356	5.99e-05
308.15	0.4044	0.0025969	5.65e-05
308.15	0.5039	0.0024992	5.42e-05
308.15	0.5932	0.0024296	5.27e-05
308.15	0.7003	0.0023665	5.14e-05
308.15	0.8019	0.0023108	5.03e-05
308.15	0.8545	0.0022836	4.99e-05
308.15	0.8987	0.0022749	5.01e-05
308.15	0.9522	0.0022418	4.99e-05

System: 2-butoxyethan-1-ol + octan-1-ol; phases: Liquid
Fixed: Pressure, kPa = 101
Property: Mass density, kg/m3 (Liquid); method: Vibrating tube method
Temperature, K	Mole fraction of 2-butoxyethan-1-ol	Mass density, kg/m3	uncertainty
293.15	0.053	828.488	0.238
293.15	0.105	831.623	0.237
293.15	0.167	835.443	0.237
293.15	0.2004	837.529	0.237
293.15	0.2561	841.092	0.237
293.15	0.3039	844.242	0.237
293.15	0.4046	851.133	0.237
293.15	0.5013	858.109	0.237
293.15	0.6004	865.629	0.237
293.15	0.7009	873.666	0.236
293.15	0.8027	882.262	0.236
293.15	0.852	886.596	0.236
293.15	0.9007	891.001	0.236
293.15	0.9512	895.736	0.236
298.15	0.053	825.018	0.238
298.15	0.105	828.108	0.238
298.15	0.167	831.899	0.237
298.15	0.2004	833.978	0.237
298.15	0.2561	837.535	0.237
298.15	0.3039	840.656	0.237
298.15	0.4046	847.482	0.237
298.15	0.5013	854.363	0.237
298.15	0.6004	861.773	0.237
298.15	0.7009	869.705	0.236
298.15	0.8027	878.21	0.236
298.15	0.852	882.514	0.236
298.15	0.9007	886.89	0.236
298.15	0.9512	891.594	0.236
303.15	0.053	821.521	0.238
303.15	0.105	824.6	0.238
303.15	0.167	828.337	0.238
303.15	0.2004	830.387	0.238
303.15	0.2561	833.89	0.237
303.15	0.3039	836.962	0.237
303.15	0.4046	843.721	0.237
303.15	0.5013	850.582	0.237
303.15	0.6004	857.95	0.237
303.15	0.7009	865.804	0.237
303.15	0.8027	874.181	0.236
303.15	0.852	878.409	0.236
303.15	0.9007	882.718	0.236
303.15	0.9512	887.379	0.236
308.15	0.053	818.004	0.238
308.15	0.105	821.021	0.238
308.15	0.167	824.71	0.238
308.15	0.2004	826.746	0.238
308.15	0.2561	830.229	0.238
308.15	0.3039	833.292	0.238
308.15	0.4046	839.998	0.237
308.15	0.5013	846.771	0.237
308.15	0.6004	854.07	0.237
308.15	0.7009	861.87	0.237
308.15	0.8027	870.213	0.236
308.15	0.852	874.403	0.236
308.15	0.9007	878.687	0.236
308.15	0.9512	883.226	0.236
313.15	0.053	814.437	0.238
313.15	0.105	817.45	0.238
313.15	0.167	821.134	0.238
313.15	0.2004	823.153	0.238
313.15	0.2561	826.589	0.238
313.15	0.3039	829.618	0.238
313.15	0.4046	836.231	0.237
313.15	0.5013	842.934	0.237
313.15	0.6004	850.161	0.237
313.15	0.7009	857.881	0.237
313.15	0.8027	866.131	0.237
313.15	0.852	870.301	0.237
313.15	0.9007	874.538	0.236
313.15	0.9512	879.067	0.236

System: 2-butoxyethan-1-ol + octan-1-ol; phases: Liquid
Fixed: Pressure, kPa = 101
Property: Speed of sound, m/s (Liquid); method: FPINT:WF = 
Temperature, K	Mole fraction of 2-butoxyethan-1-ol	Speed of sound, m/s	uncertainty
293.15	0.053	1361.76	1.55
293.15	0.105	1358.98	1.55
293.15	0.167	1355.44	1.55
293.15	0.2004	1353.18	1.55
293.15	0.2561	1350.32	1.55
293.15	0.3039	1347.85	1.55
293.15	0.4046	1342.66	1.55
293.15	0.5013	1338.24	1.55
293.15	0.6004	1333.95	1.55
293.15	0.7009	1330.28	1.55
293.15	0.8027	1327.04	1.55
293.15	0.852	1325.56	1.55
293.15	0.9007	1324.42	1.55
293.15	0.9512	1323.43	1.55
298.15	0.053	1344.82	1.55
298.15	0.105	1342.07	1.55
298.15	0.167	1338.44	1.55
298.15	0.2004	1336.4	1.55
298.15	0.2561	1333.43	1.55
298.15	0.3039	1330.91	1.55
298.15	0.4046	1325.87	1.55
298.15	0.5013	1321.34	1.55
298.15	0.6004	1316.94	1.54
298.15	0.7009	1313.23	1.54
298.15	0.8027	1310.04	1.54
298.15	0.852	1308.52	1.54
298.15	0.9007	1307.52	1.54
298.15	0.9512	1306.49	1.54
303.15	0.053	1328.08	1.55
303.15	0.105	1325.41	1.55
303.15	0.167	1321.72	1.55
303.15	0.2004	1319.66	1.55
303.15	0.2561	1316.65	1.54
303.15	0.3039	1314.16	1.54
303.15	0.4046	1309.12	1.54
303.15	0.5013	1304.55	1.54
303.15	0.6004	1300.35	1.54
303.15	0.7009	1296.49	1.54
303.15	0.8027	1293.3	1.54
303.15	0.852	1291.97	1.54
303.15	0.9007	1290.78	1.54
303.15	0.9512	1289.79	1.54
308.15	0.053	1311.33	1.54
308.15	0.105	1308.75	1.54
308.15	0.167	1305.49	1.54
308.15	0.2004	1303.34	1.54
308.15	0.2561	1300.47	1.54
308.15	0.3039	1298.17	1.54
308.15	0.4046	1293.12	1.54
308.15	0.5013	1288.66	1.54
308.15	0.6004	1284.45	1.54
308.15	0.7009	1280.48	1.54
308.15	0.8027	1276.97	1.54
308.15	0.852	1275.42	1.54
308.15	0.9007	1274.12	1.54
308.15	0.9512	1273	1.54
313.15	0.053	1294.88	1.54
313.15	0.105	1292.29	1.54
313.15	0.167	1289.17	1.54
313.15	0.2004	1287.29	1.54
313.15	0.2561	1284.53	1.54
313.15	0.3039	1282.25	1.54
313.15	0.4046	1277.41	1.54
313.15	0.5013	1273.04	1.54
313.15	0.6004	1268.79	1.54
313.15	0.7009	1264.73	1.54
313.15	0.8027	1261.06	1.54
313.15	0.852	1259.47	1.54
313.15	0.9007	1257.99	1.54
313.15	0.9512	1256.61	1.54

System: 2-butoxyethan-1-ol + octan-1-ol; phases: Liquid
Fixed: Pressure, kPa = 101
Property: Viscosity, Pa*s (Liquid); method: Capillary tube (Ostwald; Ubbelohde) method
Temperature, K	Mole fraction of 2-butoxyethan-1-ol	Viscosity, Pa*s	uncertainty
298.15	0.053	0.0069699	0.0001545
298.15	0.1049	0.0066362	0.0001468
298.15	0.167	0.0060763	0.0001345
298.15	0.2004	0.0058819	0.0001297
298.15	0.2561	0.0054708	0.0001209
298.15	0.3039	0.0052543	0.0001157
298.15	0.4046	0.0046784	0.0001034
298.15	0.5013	0.0042859	9.44e-05
298.15	0.6004	0.0038853	8.6e-05
298.15	0.7009	0.0035877	7.92e-05
298.15	0.8027	0.0032871	7.23e-05
298.15	0.852	0.0031648	6.94e-05
298.15	0.9007	0.0030395	6.63e-05
298.15	0.9512	0.0029011	6.25e-05
303.15	0.053	0.0057892	0.0001284
303.15	0.1049	0.0054988	0.0001222
303.15	0.167	0.0051279	0.0001135
303.15	0.2004	0.0049464	0.0001096
303.15	0.2561	0.0046556	0.0001027
303.15	0.3039	0.0044397	9.81e-05
303.15	0.4046	0.0040008	8.8e-05
303.15	0.5013	0.0036472	8.02e-05
303.15	0.6004	0.0033102	7.26e-05
303.15	0.7009	0.0030447	6.68e-05
303.15	0.8027	0.0028252	6.18e-05
303.15	0.852	0.0027344	5.98e-05
303.15	0.9007	0.0026615	5.81e-05
303.15	0.9512	0.0026365	5.74e-05
308.15	0.053	0.0050479	0.000111
308.15	0.1049	0.0047802	0.0001054
308.15	0.167	0.0044422	9.8e-05
308.15	0.2004	0.0042977	9.48e-05
308.15	0.2561	0.0040487	8.91e-05
308.15	0.3039	0.0038778	8.53e-05
308.15	0.4046	0.0035189	7.7e-05
308.15	0.5013	0.0032287	7.05e-05
308.15	0.6004	0.0029649	6.43e-05
308.15	0.7009	0.002753	5.96e-05
308.15	0.8027	0.0025454	5.52e-05
308.15	0.852	0.0024571	5.34e-05
308.15	0.9007	0.0023687	5.17e-05
308.15	0.9512	0.0022812	5.05e-05

System: 2-butoxyethan-1-ol + decan-1-ol; phases: Liquid
Fixed: Pressure, kPa = 101
Property: Mass density, kg/m3 (Liquid); method: Vibrating tube method
Temperature, K	Mole fraction of 2-butoxyethan-1-ol	Mass density, kg/m3	uncertainty
293.15	0.0563	832.457	0.237
293.15	0.1024	834.521	0.237
293.15	0.1544	836.95	0.237
293.15	0.2049	839.424	0.237
293.15	0.2531	841.903	0.237
293.15	0.3066	844.775	0.236
293.15	0.4028	850.363	0.236
293.15	0.5033	856.773	0.236
293.15	0.6031	863.803	0.236
293.15	0.7009	871.448	0.236
293.15	0.8043	880.396	0.236
293.15	0.8532	884.962	0.236
293.15	0.8996	889.528	0.236
293.15	0.9447	894.239	0.236
298.15	0.0563	829	0.237
298.15	0.1024	831.148	0.237
298.15	0.1544	833.643	0.237
298.15	0.2049	836.177	0.237
298.15	0.2531	838.694	0.237
298.15	0.3066	841.628	0.237
298.15	0.4028	847.26	0.237
298.15	0.5033	853.675	0.236
298.15	0.6031	860.637	0.236
298.15	0.7009	868.128	0.236
298.15	0.8043	876.828	0.236
298.15	0.8532	881.288	0.236
298.15	0.8996	885.737	0.236
298.15	0.9447	890.317	0.236
303.15	0.0563	825.535	0.238
303.15	0.1024	827.625	0.238
303.15	0.1544	830.09	0.237
303.15	0.2049	832.6	0.237
303.15	0.2531	835.09	0.237
303.15	0.3066	837.986	0.237
303.15	0.4028	843.566	0.237
303.15	0.5033	849.927	0.237
303.15	0.6031	856.84	0.237
303.15	0.7009	864.279	0.237
303.15	0.8043	872.98	0.236
303.15	0.8532	877.42	0.236
303.15	0.8996	881.86	0.236
303.15	0.9447	886.371	0.236
308.15	0.0563	822.068	0.238
308.15	0.1024	824.141	0.238
308.15	0.1544	826.569	0.238
308.15	0.2049	829.044	0.238
308.15	0.2531	831.491	0.237
308.15	0.3066	834.361	0.237
308.15	0.4028	839.86	0.24
308.15	0.5033	846.141	0.237
308.15	0.6031	852.988	0.237
308.15	0.7009	860.384	0.237
308.15	0.8043	869.011	0.237
308.15	0.8532	873.415	0.237
308.15	0.8996	877.785	0.236
308.15	0.9447	882.225	0.236
313.15	0.0563	818.532	0.238
313.15	0.1024	820.551	0.238
313.15	0.1544	822.945	0.238
313.15	0.2049	825.399	0.238
313.15	0.2531	827.825	0.238
313.15	0.3066	830.657	0.238
313.15	0.4028	836.098	0.237
313.15	0.5033	842.307	0.237
313.15	0.6031	849.078	0.237
313.15	0.7009	856.416	0.237
313.15	0.8043	864.959	0.237
313.15	0.8532	869.328	0.237
313.15	0.8996	873.661	0.237
313.15	0.9447	878.012	0.237

System: 2-butoxyethan-1-ol + decan-1-ol; phases: Liquid
Fixed: Pressure, kPa = 101
Property: Speed of sound, m/s (Liquid); method: FPINT:WF = 
Temperature, K	Mole fraction of 2-butoxyethan-1-ol	Speed of sound, m/s	uncertainty
293.15	0.0563	1392.03	1.56
293.15	0.1024	1388.25	1.56
293.15	0.1544	1383.84	1.55
293.15	0.2049	1379.48	1.55
293.15	0.2531	1374.77	1.55
293.15	0.3066	1369.89	1.55
293.15	0.4028	1360.68	1.55
293.15	0.5033	1351.49	1.55
293.15	0.6031	1343.55	1.55
293.15	0.7009	1337.1	1.55
293.15	0.8043	1331.25	1.55
293.15	0.8532	1328.72	1.55
293.15	0.8996	1326.28	1.55
293.15	0.9447	1324.55	1.55
298.15	0.0563	1374.93	1.55
298.15	0.1024	1371.09	1.55
298.15	0.1544	1366.78	1.55
298.15	0.2049	1362.57	1.55
298.15	0.2531	1358.27	1.55
298.15	0.3066	1353.7	1.55
298.15	0.4028	1344.87	1.55
298.15	0.5033	1336.13	1.55
298.15	0.6031	1328.17	1.55
298.15	0.7009	1321.14	1.54
298.15	0.8043	1314.94	1.54
298.15	0.8532	1312.58	1.54
298.15	0.8996	1310.23	1.54
298.15	0.9447	1308.28	1.54
303.15	0.0563	1358.14	1.55
303.15	0.1024	1354.44	1.55
303.15	0.1544	1350.14	1.55
303.15	0.2049	1345.9	1.55
303.15	0.2531	1341.74	1.55
303.15	0.3066	1337.13	1.55
303.15	0.4028	1328.92	1.55
303.15	0.5033	1320.76	1.54
303.15	0.6031	1313.18	1.54
303.15	0.7009	1306.3	1.54
303.15	0.8043	1299.73	1.54
303.15	0.8532	1296.73	1.54
303.15	0.8996	1294.15	1.54
303.15	0.9447	1291.73	1.54
308.15	0.0563	1341.47	1.55
308.15	0.1024	1337.83	1.55
308.15	0.1544	1333.88	1.55
308.15	0.2049	1330	1.55
308.15	0.2531	1326.06	1.55
308.15	0.3066	1321.83	1.54
308.15	0.4028	1314.1	1.54
308.15	0.5033	1306.02	1.54
308.15	0.6031	1298.24	1.54
308.15	0.7009	1290.93	1.54
308.15	0.8043	1283.72	1.54
308.15	0.8532	1280.58	1.54
308.15	0.8996	1277.72	1.54
308.15	0.9447	1275.26	1.54
313.15	0.0563	1324.75	1.55
313.15	0.1024	1321.54	1.55
313.15	0.1544	1317.78	1.54
313.15	0.2049	1314.16	1.54
313.15	0.2531	1310.59	1.54
313.15	0.3066	1306.57	1.54
313.15	0.4028	1299.41	1.54
313.15	0.5033	1291.98	1.54
313.15	0.6031	1284.48	1.54
313.15	0.7009	1277.02	1.54
313.15	0.8043	1269.37	1.54
313.15	0.8532	1266.15	1.54
313.15	0.8996	1262.74	1.54
313.15	0.9447	1259.73	1.54

System: 2-butoxyethan-1-ol + decan-1-ol; phases: Liquid
Fixed: Pressure, kPa = 101
Property: Viscosity, Pa*s (Liquid); method: Capillary tube (Ostwald; Ubbelohde) method
Temperature, K	Mole fraction of 2-butoxyethan-1-ol	Viscosity, Pa*s	uncertainty
298.15	0.0563	0.010702	0.000238
298.15	0.1024	0.0098845	0.0002199
298.15	0.1544	0.0091249	0.0002024
298.15	0.2049	0.0084251	0.0001865
298.15	0.2531	0.0078398	0.0001732
298.15	0.3066	0.0072895	0.000161
298.15	0.4028	0.0063513	0.0001408
298.15	0.5033	0.0054911	0.0001215
298.15	0.6031	0.0048519	0.0001075
298.15	0.7009	0.0042595	9.39e-05
298.15	0.8043	0.0036799	8.1e-05
298.15	0.8532	0.0034456	7.56e-05
298.15	0.8996	0.0032614	7.16e-05
298.15	0.9447	0.0031071	6.83e-05
303.15	0.0563	0.0087654	0.0001956
303.15	0.1024	0.0081545	0.0001817
303.15	0.1544	0.0075539	0.0001681
303.15	0.2049	0.0070258	0.0001562
303.15	0.2531	0.0065773	0.0001459
303.15	0.3066	0.0061141	0.0001358
303.15	0.4028	0.0053305	0.0001181
303.15	0.5033	0.0046832	0.0001032
303.15	0.6031	0.0040886	9.03e-05
303.15	0.7009	0.0036376	8.01e-05
303.15	0.8043	0.0031619	6.94e-05
303.15	0.8532	0.002979	6.5e-05
303.15	0.8996	0.0028143	6.19e-05
303.15	0.9447	0.0026707	5.9e-05
308.15	0.0563	0.0074762	0.000166
308.15	0.1024	0.0069499	0.0001541
308.15	0.1544	0.0064486	0.0001432
308.15	0.2049	0.0059814	0.0001329
308.15	0.2531	0.0056194	0.000125
308.15	0.3066	0.0052151	0.0001158
308.15	0.4028	0.004618	0.000102
308.15	0.5033	0.0040882	8.98e-05
308.15	0.6031	0.0036014	7.87e-05
308.15	0.7009	0.0031952	7e-05
308.15	0.8043	0.0028081	6.14e-05
308.15	0.8532	0.0026087	5.73e-05
308.15	0.8996	0.0024527	5.41e-05
308.15	0.9447	0.002295	5.1e-05
