Measured thermophysical data. Liquid-liquid equilibria for (2-hydroxy benzaldehyde + n-alkane) mixtures. Intermolecular and proximity effects in systems containing hydroxyl and aldehyde groups
Source: J. Chem. Thermodyn., 2019, 10.1016/j.jct.2019.04.002
Compound 1: 2-hydroxybenzaldehyde, C7H6O2, InChI=1S/C7H6O2/c8-5-6-3-1-2-4-7(6)9/h1-5,9H, purity 99.4%
Compound 2: heptane, C7H16, InChI=1S/C7H16/c1-3-5-7-6-4-2/h3-7H2,1-2H3, purity 99.5%
Compound 3: octane, C8H18, InChI=1S/C8H18/c1-3-5-7-8-6-4-2/h3-8H2,1-2H3, purity 99.4%
Compound 4: nonane, C9H20, InChI=1S/C9H20/c1-3-5-7-9-8-6-4-2/h3-9H2,1-2H3, purity 99%
Compound 5: decane, C10H22, InChI=1S/C10H22/c1-3-5-7-9-10-8-6-4-2/h3-10H2,1-2H3, purity 99.8%
Compound 6: undecane, C11H24, InChI=1S/C11H24/c1-3-5-7-9-11-10-8-6-4-2/h3-11H2,1-2H3, purity 99.5%

System: 2-hydroxybenzaldehyde; phases: Liquid
Property: Mass density, kg/m3 (Liquid); method: Vibrating tube method
Temperature, K	Pressure, kPa	Mass density, kg/m3	uncertainty
298.15	101.325	1162.5	4.7

System: heptane; phases: Liquid
Property: Mass density, kg/m3 (Liquid); method: Vibrating tube method
Temperature, K	Pressure, kPa	Mass density, kg/m3	uncertainty
298.15	101.325	679.71	2.72

System: octane; phases: Liquid
Property: Mass density, kg/m3 (Liquid); method: Vibrating tube method
Temperature, K	Pressure, kPa	Mass density, kg/m3	uncertainty
298.15	101.325	698.84	2.8

System: nonane; phases: Liquid
Property: Mass density, kg/m3 (Liquid); method: Vibrating tube method
Temperature, K	Pressure, kPa	Mass density, kg/m3	uncertainty
298.15	101.325	714.05	2.87

System: decane; phases: Liquid
Property: Mass density, kg/m3 (Liquid); method: Vibrating tube method
Temperature, K	Pressure, kPa	Mass density, kg/m3	uncertainty
298.15	101.325	726.42	2.91

System: undecane; phases: Liquid
Property: Mass density, kg/m3 (Liquid); method: Vibrating tube method
Temperature, K	Pressure, kPa	Mass density, kg/m3	uncertainty
298.15	101.325	736.72	2.95

System: 2-hydroxybenzaldehyde + heptane; phases: Liquid mixture 1, Liquid mixture 2
Fixed: Pressure, kPa = 100
Property: Liquid-liquid equilibrium temperature, K (Liquid mixture 1); method: VISOBS
Mole fraction of 2-hydroxybenzaldehyde	Liquid-liquid equilibrium temperature, K	uncertainty
0.1871	276.6	0.4
0.2218	281	0.4
0.2609	284.9	0.4
0.3066	287.9	0.4
0.3434	289.4	0.4
0.3746	290.3	0.4
0.4153	291.1	0.4
0.4521	291.5	0.4
0.4892	291.6	0.4
0.5157	291.5	0.4
0.5386	291.5	0.4
0.5654	291.3	0.4
0.5815	291.2	0.4
0.5862	291.1	0.4
0.5868	291.1	0.4
0.5911	291.1	0.4
0.6242	290.8	0.4
0.6576	290	0.4
0.6764	289.3	0.4
0.697	288.6	0.4
0.7301	286.2	0.4
0.7578	283.9	0.4
0.7879	280	0.4
0.8179	275.6	0.5

System: 2-hydroxybenzaldehyde + octane; phases: Liquid mixture 1, Liquid mixture 2
Fixed: Pressure, kPa = 100
Property: Liquid-liquid equilibrium temperature, K (Liquid mixture 1); method: VISOBS
Mole fraction of 2-hydroxybenzaldehyde	Liquid-liquid equilibrium temperature, K	uncertainty
0.2498	282.4	0.4
0.2783	285.1	0.4
0.3025	286.7	0.4
0.323	288.2	0.4
0.3458	289.7	0.4
0.3604	290.2	0.4
0.3825	291	0.4
0.4026	291.8	0.4
0.444	292.8	0.4
0.4762	293	0.4
0.5176	293.1	0.4
0.5517	293.1	0.4
0.5737	293	0.4
0.5968	293.1	0.4
0.6381	293	0.4
0.6662	292.6	0.4
0.7002	291.6	0.4
0.7204	290.7	0.4
0.7511	288.8	0.4
0.7794	286.4	0.4
0.8084	282.7	0.4

System: 2-hydroxybenzaldehyde + nonane; phases: Liquid mixture 1, Liquid mixture 2
Fixed: Pressure, kPa = 100
Property: Liquid-liquid equilibrium temperature, K (Liquid mixture 1); method: VISOBS
Mole fraction of 2-hydroxybenzaldehyde	Liquid-liquid equilibrium temperature, K	uncertainty
0.225	280.9	0.4
0.2458	282.9	0.4
0.2613	284.3	0.4
0.2847	286.2	0.4
0.3093	288.6	0.4
0.33	289.8	0.4
0.3577	291.1	0.4
0.3917	292.7	0.4
0.4302	294.2	0.4
0.4625	295.1	0.4
0.4978	295.6	0.4
0.5393	295.8	0.4
0.5668	295.9	0.4
0.5968	295.9	0.4
0.6002	295.9	0.4
0.6284	295.9	0.4
0.66	295.8	0.4
0.6874	295.6	0.4
0.7191	295.3	0.4
0.7488	294.5	0.4
0.7727	293	0.4
0.7987	291.2	0.4
0.8125	290	0.4
0.8251	288.7	0.4
0.8448	286.5	0.4

System: 2-hydroxybenzaldehyde + decane; phases: Liquid mixture 1, Liquid mixture 2
Fixed: Pressure, kPa = 100
Property: Liquid-liquid equilibrium temperature, K (Liquid mixture 1); method: VISOBS
Mole fraction of 2-hydroxybenzaldehyde	Liquid-liquid equilibrium temperature, K	uncertainty
0.2369	281.9	0.4
0.2593	283.8	0.4
0.2942	286.9	0.4
0.3185	289	0.4
0.3325	289.9	0.4
0.3694	292.9	0.4
0.4043	294.4	0.4
0.4471	296.3	0.4
0.4826	297.1	0.4
0.5185	297.6	0.4
0.557	297.9	0.4
0.5919	298.1	0.4
0.6159	298.1	0.4
0.6468	298	0.4
0.6482	298.1	0.4
0.6841	297.7	0.4
0.706	297.6	0.4
0.7356	297.1	0.4
0.7589	296.4	0.4
0.7825	295.1	0.4
0.8097	292.9	0.4
0.8338	289.9	0.4
0.8568	286.7	0.5
0.8804	281.1	0.5

System: 2-hydroxybenzaldehyde + undecane; phases: Liquid mixture 1, Liquid mixture 2
Fixed: Pressure, kPa = 100
Property: Liquid-liquid equilibrium temperature, K (Liquid mixture 1); method: VISOBS
Mole fraction of 2-hydroxybenzaldehyde	Liquid-liquid equilibrium temperature, K	uncertainty
0.299	287.6	0.4
0.3374	290.4	0.5
0.3462	291.7	0.4
0.3808	294.3	0.4
0.4028	295.7	0.4
0.4307	297.1	0.4
0.4527	298.3	0.4
0.4824	299.3	0.4
0.5131	299.9	0.4
0.5436	300.5	0.4
0.5747	300.7	0.4
0.5859	300.9	0.4
0.6103	301.1	0.4
0.645	301	0.4
0.6705	301	0.4
0.7027	301	0.4
0.728	300.7	0.4
0.7548	300.2	0.4
0.7774	299.5	0.4
0.7979	298.5	0.4
0.8222	296.8	0.4
0.8357	295.5	0.4
0.855	293	0.4
0.866	291.5	0.5
0.8893	287	0.5
