Measured thermophysical data. Apparent heat capacity measurements and thermodynamic functions of d(-)-fructose by standard and temperature-modulated calorimetry
Source: J. Chem. Thermodyn., 2013, 10.1016/j.jct.2012.07.003
Compound 1: D-fructose, C6H12O6, InChI=1S/C6H12O6/c7-1-3(9)5(11)6(12)4(10)2-8/h3,5-9,11-12H,1-2H2/t3-,5-,6-/m1/s1, purity 99%

System: D-fructose; phases: Crystal
Fixed: Pressure, kPa = 101.325
Property: Molar heat capacity at constant pressure, J/K/mol (Crystal); method: Small sample (50 mg) DSC
Temperature, K	Molar heat capacity at constant pressure, J/K/mol	uncertainty
1	0.01	0.01
2	0.02	0.01
3	0.07	0.01
4	0.17	0.01
5	0.33	0.01
6	0.57	0.01
7	0.89	0.02
8	1.32	0.03
9	1.85	0.04
10	2.46	0.05
15	6.23	0.13
20	9.95	0.2
25	13.13	0.26
30	15.91	0.32
35	18.49	0.37
40	20.98	0.42
45	23.44	0.47
50	25.91	0.52
100	54.01	1.08
150	92.31	1.85
200	134.39	2.69
250	175.41	3.51
300	214.57	4.29
350	251.78	5.04
370	265.8	5.32

System: D-fructose; phases: Liquid
Fixed: Pressure, kPa = 101.325
Property: Molar heat capacity at constant pressure, J/K/mol (Liquid); method: Small sample (50 mg) DSC
Temperature, K	Molar heat capacity at constant pressure, J/K/mol	uncertainty
200	315.13	6.3
250	356.54	7.13
300	397.15	7.94
350	437.76	8.76
370	454.48	9.09
400	478.37	9.57
450	518.98	10.38
500	559.55	11.19
550	600.3	12.01
600	641.05	12.82

System: D-fructose; phases: Crystal
Fixed: Pressure, kPa = 101.325
Property: Molar heat capacity at constant pressure, J/K/mol (Crystal); method: Small sample (50 mg) DSC
Temperature, K	Molar heat capacity at constant pressure, J/K/mol	uncertainty
233.15	156.57	6.64
238.15	160.15	6.79
243.15	163.78	6.95
248.15	167.41	7.1
253.15	171.05	7.26
258.15	174.85	7.42
263.15	178.69	7.58
268.15	182.46	7.74
273.15	186.42	7.91
278.15	190.38	8.08
283.15	194.35	8.25
287	197.59	8.38
288.15	198.31	8.41
293.15	202.46	8.59
298.15	206.6	8.77
303.15	210.56	8.93
308.15	214.71	9.11
313.15	218.85	9.29
318.15	223	9.46
323.15	226.78	9.62
328.15	230.56	9.78
333.15	234.34	9.94
338.15	238.49	10.12
343.15	242.45	10.29
348.15	246.41	10.45
353.15	250.56	10.63
358.15	255.06	10.82
363.15	260.11	11.04
368.15	266.77	11.32
370	270.56	11.48
373.15	279.74	11.87

System: D-fructose; phases: Crystal
Fixed: Pressure, kPa = 101.325
Property: Molar enthalpy, kJ/mol (Crystal); method: Small sample (50 mg) DSC
Temperature, K	Molar enthalpy, kJ/mol	uncertainty
1	0	0.01
2	0	0.01
3	0	0.01
4	0	0.01
5	0	0.01
6	0	0.01
7	0	0.01
8	0	0.01
9	0	0.01
10	0	0.01
15	0.03	0.01
20	0.07	0.01
25	0.13	0.01
30	0.2	0.01
35	0.28	0.01
40	0.38	0.01
45	0.49	0.01
50	0.62	0.01
100	2.59	0.05
150	6.22	0.12
200	11.88	0.24
250	19.61	0.39
300	29.32	0.59
350	40.9	0.82
370	46.04	0.92

System: D-fructose; phases: Liquid
Fixed: Pressure, kPa = 101.325
Property: Molar enthalpy, kJ/mol (Liquid); method: Small sample (50 mg) DSC
Temperature, K	Molar enthalpy, kJ/mol	uncertainty
370	76.87	1.54
400	90.52	1.81
450	115.54	2.31
500	146.45	2.93
550	147.8	2.96
600	218.77	4.38

System: D-fructose; phases: Crystal
Fixed: Pressure, kPa = 101.325
Property: Molar entropy, J/K/mol (Crystal); method: Small sample (50 mg) DSC
Temperature, K	Molar entropy, J/K/mol	uncertainty
6	0.16	0.01
7	0.27	0.01
8	0.42	0.01
9	0.58	0.02
10	0.82	0.03
15	2.48	0.08
20	4.77	0.14
25	7.33	0.22
30	9.97	0.3
35	12.62	0.38
40	15.26	0.46
45	17.87	0.54
50	20.48	0.61
100	46.67	1.4
150	75.64	2.27
200	107.89	3.24
250	142.22	4.27
300	177.52	5.33
350	213.16	6.39
370	226.72	6.8

System: D-fructose; phases: Liquid
Fixed: Pressure, kPa = 101.325
Property: Molar entropy, J/K/mol (Liquid); method: Small sample (50 mg) DSC
Temperature, K	Molar entropy, J/K/mol	uncertainty
370	310	9.3
400	346.52	10.4
450	405.11	12.15
500	461.83	13.85
550	517.04	15.51
600	568.86	17.07
