Measured thermophysical data. Isothermal (vapour + liquid) equilibrium (VLE) for binary mixtures containing diethyl carbonate, phenyl acetate, diphenyl carbonate, or ethyl acetate
Source: J. Chem. Thermodyn., 2015, 10.1016/j.jct.2015.07.024
Compound 1: ethyl acetate, C4H8O2, InChI=1S/C4H8O2/c1-3-6-4(2)5/h3H2,1-2H3, purity 99%
Compound 2: diethyl carbonate, C5H10O3, InChI=1S/C5H10O3/c1-3-7-5(6)8-4-2/h3-4H2,1-2H3, purity 99%
Compound 3: phenyl ethanoate, C8H8O2, InChI=1S/C8H8O2/c1-7(9)10-8-5-3-2-4-6-8/h2-6H,1H3, purity 99%
Compound 4: diphenyl carbonate, C13H10O3, InChI=1S/C13H10O3/c14-13(15-11-7-3-1-4-8-11)16-12-9-5-2-6-10-12/h1-10H, purity 99%

System: ethyl acetate; phases: Liquid, Gas
Property: Vapor or sublimation pressure, kPa (Liquid); method: Closed cell (Static) method
Temperature, K	Vapor or sublimation pressure, kPa	uncertainty
373	205.7	9
412.8	557.1	22.9
452.3	1222.7	49.4

System: diethyl carbonate; phases: Liquid, Gas
Property: Vapor or sublimation pressure, kPa (Liquid); method: Closed cell (Static) method
Temperature, K	Vapor or sublimation pressure, kPa	uncertainty
373	45.1	2.1
412.5	143	5.9
452.2	361	14.6

System: phenyl ethanoate; phases: Liquid, Gas
Property: Vapor or sublimation pressure, kPa (Liquid); method: Closed cell (Static) method
Temperature, K	Vapor or sublimation pressure, kPa	uncertainty
373.2	3.5	0.2
413.2	18.2	0.8
453.2	66.1	2.7

System: diethyl carbonate + ethyl acetate; phases: Liquid, Gas
Property: Vapor or sublimation pressure, kPa (Liquid); method: Closed cell (Static) method
Mole fraction of ethyl acetate	Temperature, K	Vapor or sublimation pressure, kPa	uncertainty
0.077	373.2	53.9	2.6
0.157	373.2	65.9	3.2
0.258	373.2	80.5	4
0.409	373.2	104.7	5.4
0.554	373.2	130.6	7
0.682	373.2	155.2	8.4
0.825	373.2	179.4	9.4
0.888	373.2	188	9.4
0.1	413.2	193.1	8.2
0.156	413.2	220	9.2
0.285	413.2	252.9	11
0.365	413.2	288.7	15.9
0.44	413.2	314.2	13.2
0.551	413.2	362.8	17.2
0.683	413.2	418.9	19.7
0.826	413.2	473.4	38.9
0.098	453.2	461.7	19
0.17	453.2	518.6	21.4
0.268	453.2	568.9	24.3
0.399	453.2	680.5	30.8
0.542	453.2	803.2	37.9
0.662	453.2	915.9	45
0.803	453.2	1052.9	52.9

System: diethyl carbonate + ethyl acetate; phases: Gas, Liquid
Property: Mole fraction of ethyl acetate (Gas); method: Chromatography
Mole fraction of ethyl acetate	Temperature, K	Mole fraction of ethyl acetate	uncertainty
0.077	373.2	0.251	0.012
0.157	373.2	0.4	0.02
0.258	373.2	0.591	0.028
0.409	373.2	0.766	0.034
0.554	373.2	0.859	0.036
0.682	373.2	0.913	0.038
0.825	373.2	0.953	0.039
0.888	373.2	0.97	0.03
0.1	413.2	0.286	0.016
0.156	413.2	0.439	0.02
0.285	413.2	0.533	0.024
0.365	413.2	0.632	0.031
0.44	413.2	0.71	0.032
0.551	413.2	0.789	0.035
0.683	413.2	0.878	0.038
0.826	413.2	0.942	0.04
0.098	453.2	0.245	0.012
0.17	453.2	0.363	0.018
0.268	453.2	0.485	0.023
0.399	453.2	0.609	0.029
0.542	453.2	0.732	0.036
0.662	453.2	0.86	0.039
0.803	453.2	0.918	0.039

System: phenyl ethanoate + ethyl acetate; phases: Liquid, Gas
Fixed: Temperature, K = 373.2
Property: Vapor or sublimation pressure, kPa (Liquid); method: Closed cell (Static) method
Mole fraction of ethyl acetate	Vapor or sublimation pressure, kPa	uncertainty
0.161	36	2.1
0.294	63.8	3.8
0.43	92.4	5.5
0.548	117.8	7
0.679	144	8.4
0.801	168.3	9.8
0.901	187.7	10.9

System: phenyl ethanoate + ethyl acetate; phases: Gas, Liquid
Fixed: Temperature, K = 373.2
Property: Mole fraction of ethyl acetate (Gas); method: Chromatography
Mole fraction of ethyl acetate	Mole fraction of ethyl acetate	uncertainty
0.161	0.917	0.037
0.294	0.96	0.038
0.43	0.976	0.024
0.548	0.986	0.014
0.679	0.991	0.009
0.801	0.995	0.005
0.901	0.997	0.003

System: diethyl carbonate + phenyl ethanoate; phases: Liquid, Gas
Fixed: Temperature, K = 373.2
Property: Vapor or sublimation pressure, kPa (Liquid); method: Closed cell (Static) method
Mole fraction of diethyl carbonate	Vapor or sublimation pressure, kPa	uncertainty
0.064	6.4	0.3
0.165	11	0.6
0.268	15.4	0.8
0.413	21.1	1.1
0.548	26.3	1.5
0.674	31.2	1.7
0.77	34.9	2
0.921	41.3	2.4

System: diethyl carbonate + phenyl ethanoate; phases: Gas, Liquid
Fixed: Temperature, K = 373.2
Property: Mole fraction of diethyl carbonate (Gas); method: Chromatography
Mole fraction of diethyl carbonate	Mole fraction of diethyl carbonate	uncertainty
0.064	0.493	0.021
0.165	0.729	0.031
0.268	0.837	0.034
0.413	0.898	0.036
0.548	0.938	0.038
0.674	0.962	0.038
0.77	0.973	0.027
0.921	0.992	0.008

System: diphenyl carbonate + ethyl acetate; phases: Liquid, Gas
Property: Vapor or sublimation pressure, kPa (Liquid); method: Closed cell (Static) method
Temperature, K	Mole fraction of ethyl acetate	Vapor or sublimation pressure, kPa	uncertainty
373.2	0.113	23.8	1.6
373.2	0.237	46.4	3.2
373.2	0.335	63.2	5
373.2	0.485	97.8	7.3
373.2	0.641	125.9	8.9
373.2	0.75	145.7	11.2
373.2	0.905	179.3	14.2
413.2	0.113	54	4.9
413.2	0.198	113.2	8.8
413.2	0.287	165.2	11.9
413.2	0.44	251.3	17.6
413.2	0.641	359.1	27.3
413.2	0.75	417.4	27.7
413.2	0.905	502.6	48.6
413.2	0.95	529.3	36.8
453.2	0.113	97.3	8.4
453.2	0.198	190.2	15.6
453.2	0.287	295.6	24.5
453.2	0.392	430.6	36.8
453.2	0.584	703.3	55
453.2	0.641	757.6	60.4
453.2	0.75	923.7	68.8
453.2	0.905	1099.1	76
453.2	0.95	1150.6	73.8

System: diphenyl carbonate + diethyl carbonate; phases: Liquid, Gas
Property: Vapor or sublimation pressure, kPa (Liquid); method: Closed cell (Static) method
Temperature, K	Mole fraction of diethyl carbonate	Vapor or sublimation pressure, kPa	uncertainty
373.2	0.128	5.4	0.5
373.2	0.22	10.1	0.8
373.2	0.337	15.9	1.2
373.2	0.475	21.4	1.5
373.2	0.609	26.7	2
373.2	0.716	31.9	2.6
373.2	0.819	37.3	2.7
373.2	0.916	40.5	2.6
413.2	0.128	20.4	1.3
413.2	0.22	34.7	2.5
413.2	0.337	53.7	4.1
413.2	0.428	67.7	5.5
413.2	0.524	82.6	4.3
413.2	0.609	92.5	5.6
413.2	0.716	107	7.6
413.2	0.818	121.6	8.9
413.2	0.916	135.6	27.6
453.2	0.128	43.4	3.2
453.2	0.22	75.7	6.2
453.2	0.337	127.5	9.8
453.2	0.428	160.7	11.4
453.2	0.511	191.1	12.7
453.2	0.609	220.5	15.4
453.2	0.716	261.6	18.7
453.2	0.819	295.7	23
453.2	0.904	336.9	29.6

System: diphenyl carbonate + phenyl ethanoate; phases: Liquid, Gas
Property: Vapor or sublimation pressure, kPa (Liquid); method: Closed cell (Static) method
Temperature, K	Mole fraction of phenyl ethanoate	Vapor or sublimation pressure, kPa	uncertainty
373.2	0.111	0.5	0.1
373.2	0.214	0.8	0.1
373.2	0.306	1.1	0.1
373.2	0.416	1.5	0.1
373.2	0.509	1.8	0.2
373.2	0.612	2.2	0.2
373.2	0.705	2.4	0.2
373.2	0.811	2.8	0.2
373.2	0.905	3.1	0.3
413.2	0.111	2.5	0.1
413.2	0.214	4.3	0.3
413.2	0.306	6	0.4
413.2	0.416	7.9	0.6
413.2	0.509	9.5	0.6
413.2	0.612	11.4	0.9
413.2	0.705	12.8	0.8
413.2	0.811	14.8	1.3
413.2	0.905	16.6	6.8
453.2	0.111	9.5	0.6
453.2	0.214	15.9	1.1
453.2	0.306	22.2	1.5
453.2	0.416	28.8	2
453.2	0.509	34.9	2.4
453.2	0.612	41.5	2.9
453.2	0.705	47.6	3.3
453.2	0.811	54.3	3.7
453.2	0.905	60	4.1
