Measured thermophysical data. Solubilities and diffusivities of R227ea, R236fa and R245fa in 1-hexyl-3-methylimidazolium bis(trifluoromethylsulfonyl)imide
Source: J. Chem. Thermodyn., 2018, 10.1016/j.jct.2018.04.004
Compound 1: 1,1,1,3,3-pentafluoropropane, C3H3F5, InChI=1S/C3H3F5/c4-2(5)1-3(6,7)8/h2H,1H2, purity 99.9%
Compound 2: 1,1,1,2,3,3,3-heptafluoropropane, C3HF7, InChI=1S/C3HF7/c4-1(2(5,6)7)3(8,9)10/h1H, purity 99.9%
Compound 3: 1,1,1,3,3,3-hexafluoropropane, C3H2F6, InChI=1S/C3H2F6/c4-2(5,6)1-3(7,8)9/h1H2, purity 99.9%
Compound 4: 1-hexyl-3-methylimidazolium bis[(trifluoromethyl)sulfonyl]imide, C12H19F6N3O4S2, InChI=1S/C10H19N2.C2F6NO4S2/c1-3-4-5-6-7-12-9-8-11(2)10-12;3-1(4,5)14(10,11)9-15(12,13)2(6,7)8/h8-10H,3-7H2,1-2H3;/q+1;-1, purity 99%

System: 1,1,1,3,3-pentafluoropropane + 1-hexyl-3-methylimidazolium bis[(trifluoromethyl)sulfonyl]imide; phases: Liquid, Gas
Property: Mole fraction of 1,1,1,3,3-pentafluoropropane (Liquid); method: volumetric method
Temperature, K	Pressure, kPa	Mole fraction of 1,1,1,3,3-pentafluoropropane	uncertainty
303.15	16	0.061	0.003
303.15	31	0.097	0.004
303.15	44	0.126	0.005
303.15	53	0.154	0.006
303.15	64	0.177	0.007
303.15	71	0.196	0.008
313.15	20	0.058	0.002
313.15	38	0.093	0.004
313.15	52	0.122	0.005
313.15	64	0.149	0.006
313.15	76	0.172	0.007
313.15	86	0.191	0.008
323.15	25	0.056	0.002
323.15	46	0.089	0.004
323.15	63	0.117	0.005
323.15	77	0.143	0.006
323.15	91	0.166	0.007
323.15	102	0.184	0.007
333.15	31	0.053	0.002
333.15	55	0.085	0.004
333.15	75	0.111	0.005
333.15	92	0.136	0.006
333.15	109	0.158	0.006
333.15	122	0.176	0.007
343.15	37	0.049	0.002
343.15	65	0.08	0.003
343.15	89	0.105	0.004
343.15	109	0.129	0.005
343.15	129	0.15	0.006
343.15	144	0.167	0.007

System: 1,1,1,3,3-pentafluoropropane + 1-hexyl-3-methylimidazolium bis[(trifluoromethyl)sulfonyl]imide; phases: Liquid
Fixed: Mole fraction of 1,1,1,3,3-pentafluoropropane = 0
Property: Binary diffusion coefficient, m2/s (Liquid); method: pressure decay method
Pressure, kPa	Temperature, K	Binary diffusion coefficient, m2/s	uncertainty
50.4	303.15	8.4e-11	0.008
63.9	313.15	1.22e-10	0.011
69.8	323.15	2.06e-10	0.019
74.9	333.15	2.75e-10	0.025
84.6	343.15	3.47e-10	0.031

System: 1,1,1,2,3,3,3-heptafluoropropane + 1-hexyl-3-methylimidazolium bis[(trifluoromethyl)sulfonyl]imide; phases: Liquid, Gas
Property: Mole fraction of 1,1,1,2,3,3,3-heptafluoropropane (Liquid); method: volumetric method
Temperature, K	Pressure, kPa	Mole fraction of 1,1,1,2,3,3,3-heptafluoropropane	uncertainty
303.15	58	0.069	0.003
303.15	105	0.124	0.005
303.15	141	0.167	0.007
303.15	177	0.211	0.009
303.15	210	0.25	0.01
303.15	238	0.284	0.012
313.15	70	0.062	0.003
313.15	128	0.112	0.005
313.15	174	0.152	0.006
313.15	219	0.192	0.008
313.15	262	0.23	0.009
313.15	298	0.262	0.011
323.15	83	0.055	0.002
323.15	152	0.1	0.004
323.15	207	0.136	0.006
323.15	263	0.174	0.007
323.15	315	0.208	0.008
323.15	361	0.238	0.01
333.15	96	0.048	0.002
333.15	176	0.089	0.004
333.15	240	0.122	0.005
333.15	306	0.155	0.006
333.15	369	0.187	0.008
333.15	424	0.214	0.009
343.15	109	0.042	0.002
343.15	199	0.079	0.003
343.15	273	0.108	0.004
343.15	348	0.138	0.006
343.15	421	0.167	0.007
343.15	485	0.191	0.008

System: 1,1,1,2,3,3,3-heptafluoropropane + 1-hexyl-3-methylimidazolium bis[(trifluoromethyl)sulfonyl]imide; phases: Liquid
Fixed: Mole fraction of 1,1,1,2,3,3,3-heptafluoropropane = 0
Property: Binary diffusion coefficient, m2/s (Liquid); method: pressure decay method
Pressure, kPa	Temperature, K	Binary diffusion coefficient, m2/s	uncertainty
99.7	303.15	2.72e-10	0.024
99.6	313.15	3.5e-10	0.032
97.1	323.15	5.28e-10	0.048
105	333.15	9.6e-10	0.086
104.6	343.15	1.26e-09	0.11

System: 1,1,1,3,3,3-hexafluoropropane + 1-hexyl-3-methylimidazolium bis[(trifluoromethyl)sulfonyl]imide; phases: Liquid, Gas
Property: Mole fraction of 1,1,1,3,3,3-hexafluoropropane (Liquid); method: volumetric method
Temperature, K	Pressure, kPa	Mole fraction of 1,1,1,3,3,3-hexafluoropropane	uncertainty
303.15	30	0.064	0.003
303.15	56	0.116	0.005
303.15	79	0.163	0.007
303.15	100	0.204	0.008
303.15	121	0.244	0.01
303.15	139	0.279	0.011
313.15	37	0.059	0.002
313.15	70	0.109	0.004
313.15	100	0.153	0.006
313.15	126	0.192	0.008
313.15	154	0.231	0.009
313.15	177	0.265	0.011
323.15	45	0.055	0.002
323.15	86	0.101	0.004
323.15	124	0.142	0.006
323.15	156	0.179	0.007
323.15	190	0.216	0.009
323.15	220	0.249	0.01
333.15	54	0.05	0.002
333.15	103	0.093	0.004
333.15	148	0.131	0.005
333.15	188	0.166	0.007
333.15	230	0.201	0.008
333.15	267	0.232	0.009
343.15	63	0.046	0.002
343.15	120	0.085	0.003
343.15	173	0.12	0.005
343.15	220	0.152	0.006
343.15	271	0.185	0.008
343.15	315	0.214	0.009

System: 1,1,1,3,3,3-hexafluoropropane + 1-hexyl-3-methylimidazolium bis[(trifluoromethyl)sulfonyl]imide; phases: Liquid
Fixed: Mole fraction of 1,1,1,3,3,3-hexafluoropropane = 0
Property: Binary diffusion coefficient, m2/s (Liquid); method: pressure decay method
Pressure, kPa	Temperature, K	Binary diffusion coefficient, m2/s	uncertainty
86	303.15	1.55e-10	0.014
85.5	313.15	2.4e-10	0.022
95.7	323.15	4.09e-10	0.037
90.1	333.15	5.96e-10	0.054
90.7	343.15	8.42e-10	0.076
