Measured thermophysical data. (Vapor + liquid) equilibria for the binary mixtures (1-propanol + dibromomethane, or + bromochloromethane, or + 1,2-dichloroethane or +1-bromo-2-chloroethane) at T = 313.15 K.
Source: J. Chem. Thermodyn., 2005, 10.1016/j.jct.2004.07.012
Compound 1: propan-1-ol, C3H8O, InChI=1S/C3H8O/c1-2-3-4/h4H,2-3H2,1H3, purity 99.5%
Compound 2: dibromomethane, CH2Br2, InChI=1S/CH2Br2/c2-1-3/h1H2, purity 98.5%
Compound 3: bromochloromethane, CH2BrCl, InChI=1S/CH2BrCl/c2-1-3/h1H2, purity 99%
Compound 4: 1,2-dichloroethane, C2H4Cl2, InChI=1S/C2H4Cl2/c3-1-2-4/h1-2H2, purity 99.5%
Compound 5: 1-bromo-2-chloroethane, C2H4BrCl, InChI=1S/C2H4BrCl/c3-1-2-4/h1-2H2, purity 98%

System: propan-1-ol; phases: Liquid
Property: Mass density, kg/m3 (Liquid); method: VIBTUB:UFactor:4
Temperature, K	Pressure, kPa	Mass density, kg/m3	uncertainty
298.15	101.325	799.74	0.49

System: dibromomethane; phases: Liquid
Property: Mass density, kg/m3 (Liquid); method: VIBTUB:UFactor:4
Temperature, K	Pressure, kPa	Mass density, kg/m3	uncertainty
298.15	101.325	2478.36	3.12

System: bromochloromethane; phases: Liquid
Property: Mass density, kg/m3 (Liquid); method: VIBTUB:UFactor:4
Temperature, K	Pressure, kPa	Mass density, kg/m3	uncertainty
298.15	101.325	1924.55	1.87

System: 1,2-dichloroethane; phases: Liquid
Property: Mass density, kg/m3 (Liquid); method: VIBTUB:UFactor:4
Temperature, K	Pressure, kPa	Mass density, kg/m3	uncertainty
298.15	101.325	1246.34	0.6

System: 1-bromo-2-chloroethane; phases: Liquid
Property: Mass density, kg/m3 (Liquid); method: VIBTUB:UFactor:4
Temperature, K	Pressure, kPa	Mass density, kg/m3	uncertainty
298.15	101.325	1727.01	2.18

System: propan-1-ol + dibromomethane; phases: Gas, Liquid
Fixed: Temperature, K = 313.15
Property: Vapor or sublimation pressure, kPa (Gas); method: EBULLIO:UFactor:2
Mole fraction of dibromomethane	Vapor or sublimation pressure, kPa	uncertainty
0	7.182	0.167
0.1077	10.61	0.173
0.1461	11.616	0.175
0.1718	12.295	0.176
0.1915	12.652	0.177
0.2776	13.92	0.179
0.5914	15.52	0.182
0.6351	15.549	0.182
0.7226	15.59	0.182
0.76	15.611	0.182
0.7865	15.6	0.182
0.8522	15.505	0.182
0.9285	14.669	0.181
1	13.012	0.177

System: propan-1-ol + dibromomethane; phases: Gas, Liquid
Fixed: Temperature, K = 313.15
Property: Mole fraction of dibromomethane (Gas); method: RIXVDN
Mole fraction of dibromomethane	Mole fraction of dibromomethane	uncertainty
0	0	0.0001
0.1077	0.3731	0.0201
0.1461	0.4409	0.0202
0.1718	0.4808	0.0203
0.1915	0.4993	0.0203
0.2776	0.577	0.0203
0.5914	0.6912	0.0203
0.6351	0.7003	0.0203
0.7226	0.7097	0.0203
0.76	0.7234	0.0203
0.7865	0.7375	0.0203
0.8522	0.7815	0.0202
0.9285	0.8294	0.0202
1	1	0.0001

System: propan-1-ol + bromochloromethane; phases: Gas, Liquid
Fixed: Temperature, K = 313.15
Property: Vapor or sublimation pressure, kPa (Gas); method: EBULLIO:UFactor:2
Mole fraction of bromochloromethane	Vapor or sublimation pressure, kPa	uncertainty
0	7.182	0.167
0.1274	16.663	0.183
0.1371	17.323	0.185
0.264	24.248	0.197
0.4274	30.631	0.21
0.4675	31.843	0.212
0.4803	32.069	0.213
0.5095	32.77	0.214
0.525	33.132	0.215
0.5497	33.54	0.216
0.708	35.54	0.22
0.7658	36.096	0.221
0.8195	36.531	0.222
0.9604	37.438	0.223
1	37.285	0.223

System: propan-1-ol + bromochloromethane; phases: Gas, Liquid
Fixed: Temperature, K = 313.15
Property: Mole fraction of bromochloromethane (Gas); method: RIXVDN
Mole fraction of bromochloromethane	Mole fraction of bromochloromethane	uncertainty
0	0	0.0001
0.1274	0.626	0.0202
0.1371	0.6411	0.0202
0.264	0.7628	0.0201
0.4274	0.8341	0.0201
0.4675	0.8526	0.0201
0.4803	0.857	0.0201
0.5095	0.8637	0.0201
0.525	0.862	0.0201
0.5497	0.869	0.0201
0.708	0.8941	0.02
0.7658	0.8989	0.02
0.8195	0.9125	0.02
0.9604	0.9618	0.02
1	1	0.0001

System: propan-1-ol + 1,2-dichloroethane; phases: Gas, Liquid
Fixed: Temperature, K = 313.15
Property: Vapor or sublimation pressure, kPa (Gas); method: EBULLIO:UFactor:2
Mole fraction of 1,2-dichloroethane	Vapor or sublimation pressure, kPa	uncertainty
0	7.182	0.166
0.0992	12.619	0.175
0.1477	14.503	0.179
0.177	15.512	0.18
0.2514	17.657	0.184
0.303	18.749	0.186
0.5214	21.363	0.19
0.5622	21.628	0.191
0.6494	21.927	0.191
0.671	21.994	0.192
0.759	22.279	0.192
0.8289	22.304	0.192
1	21.047	0.19

System: propan-1-ol + 1,2-dichloroethane; phases: Gas, Liquid
Fixed: Temperature, K = 313.15
Property: Mole fraction of 1,2-dichloroethane (Gas); method: RIXVDN
Mole fraction of 1,2-dichloroethane	Mole fraction of 1,2-dichloroethane	uncertainty
0	0	0.0001
0.0992	0.495	0.0201
0.1477	0.5739	0.0201
0.177	0.6017	0.0201
0.2514	0.6747	0.0201
0.303	0.6888	0.0201
0.5214	0.774	0.02
0.5622	0.7813	0.02
0.6494	0.7991	0.02
0.671	0.7979	0.02
0.759	0.822	0.02
0.8289	0.8429	0.02
1	1	0.0001

System: propan-1-ol + 1-bromo-2-chloroethane; phases: Gas, Liquid
Fixed: Temperature, K = 313.15
Property: Vapor or sublimation pressure, kPa (Gas); method: EBULLIO:UFactor:2
Mole fraction of 1-bromo-2-chloroethane	Vapor or sublimation pressure, kPa	uncertainty
0	7.182	0.167
0.0407	8.227	0.169
0.0814	9.172	0.171
0.1261	9.956	0.172
0.1716	10.61	0.174
0.2123	11.024	0.175
0.2461	11.298	0.175
0.3476	11.891	0.176
0.5382	12.179	0.177
0.5586	12.195	0.177
0.572	12.226	0.177
0.6086	12.249	0.177
0.6464	12.246	0.177
0.6852	12.225	0.177
0.7112	12.181	0.177
0.7497	12.126	0.177
0.9118	11.25	0.175
1	8.91	0.17

System: propan-1-ol + 1-bromo-2-chloroethane; phases: Gas, Liquid
Fixed: Temperature, K = 313.15
Property: Mole fraction of 1-bromo-2-chloroethane (Gas); method: RIXVDN
Mole fraction of 1-bromo-2-chloroethane	Mole fraction of 1-bromo-2-chloroethane	uncertainty
0	0	0.0001
0.0407	0.1675	0.02
0.0814	0.2749	0.02
0.1261	0.3601	0.0201
0.1716	0.4199	0.0202
0.2123	0.4623	0.0203
0.2461	0.4862	0.0204
0.3476	0.5353	0.0205
0.5382	0.5926	0.0206
0.5586	0.5965	0.0206
0.572	0.5989	0.0206
0.6086	0.6093	0.0206
0.6464	0.6181	0.0206
0.6852	0.6274	0.0206
0.7112	0.6345	0.0206
0.7497	0.6462	0.0206
0.9118	0.7434	0.0205
1	1	0.0001
