Measured thermophysical data. (Vapour + liquid) equilibria of (1-butanol + benzene, or toluene, or o-, or m-, or p-xylene) at T = 308.15 K
Source: J. Chem. Thermodyn., 2004, 10.1016/j.jct.2004.01.001
Compound 1: butan-1-ol, C4H10O, InChI=1S/C4H10O/c1-2-3-4-5/h5H,2-4H2,1H3
Compound 2: benzene, C6H6, InChI=1S/C6H6/c1-2-4-6-5-3-1/h1-6H
Compound 3: toluene, C7H8, InChI=1S/C7H8/c1-7-5-3-2-4-6-7/h2-6H,1H3
Compound 4: 1,2-dimethylbenzene, C8H10, InChI=1S/C8H10/c1-7-5-3-4-6-8(7)2/h3-6H,1-2H3
Compound 5: 1,3-dimethylbenzene, C8H10, InChI=1S/C8H10/c1-7-4-3-5-8(2)6-7/h3-6H,1-2H3
Compound 6: 1,4-dimethylbenzene, C8H10, InChI=1S/C8H10/c1-7-3-5-8(2)6-4-7/h3-6H,1-2H3

System: butan-1-ol; phases: Liquid, Gas
Property: Vapor or sublimation pressure, kPa (Liquid); method: MANOM:UFactor:2
Temperature, K	Vapor or sublimation pressure, kPa	uncertainty
308.15	1.79	0.163

System: butan-1-ol; phases: Liquid
Property: Refractive index (Na D-line) (Liquid); method: Standard Abbe refractometry
Temperature, K	Pressure, kPa	Refractive index (Na D-line)	uncertainty
308.15	101.325	1.3925	0.0004

System: butan-1-ol; phases: Liquid
Property: Mass density, kg/m3 (Liquid); method: BUOYAN
Temperature, K	Pressure, kPa	Mass density, kg/m3	uncertainty
308.15	101.325	798.05	0.42

System: benzene; phases: Liquid, Gas
Property: Vapor or sublimation pressure, kPa (Liquid); method: MANOM:UFactor:2
Temperature, K	Vapor or sublimation pressure, kPa	uncertainty
298.15	12.706	0.215

System: benzene; phases: Liquid
Property: Refractive index (Na D-line) (Liquid); method: Standard Abbe refractometry
Temperature, K	Pressure, kPa	Refractive index (Na D-line)	uncertainty
308.15	101.325	1.492	0.0004

System: benzene; phases: Liquid
Property: Mass density, kg/m3 (Liquid); method: BUOYAN
Temperature, K	Pressure, kPa	Mass density, kg/m3	uncertainty
308.15	101.325	862.96	0.45

System: toluene; phases: Liquid, Gas
Property: Vapor or sublimation pressure, kPa (Liquid); method: MANOM:UFactor:2
Temperature, K	Vapor or sublimation pressure, kPa	uncertainty
298.15	3.801	0.173

System: toluene; phases: Liquid
Property: Refractive index (Na D-line) (Liquid); method: Standard Abbe refractometry
Temperature, K	Pressure, kPa	Refractive index (Na D-line)	uncertainty
308.15	101.325	1.4884	0.0004

System: toluene; phases: Liquid
Property: Mass density, kg/m3 (Liquid); method: BUOYAN
Temperature, K	Pressure, kPa	Mass density, kg/m3	uncertainty
308.15	101.325	892.9	0.46

System: 1,2-dimethylbenzene; phases: Liquid, Gas
Property: Vapor or sublimation pressure, kPa (Liquid); method: MANOM:UFactor:2
Temperature, K	Vapor or sublimation pressure, kPa	uncertainty
298.15	0.882	0.159

System: 1,2-dimethylbenzene; phases: Liquid
Property: Refractive index (Na D-line) (Liquid); method: Standard Abbe refractometry
Temperature, K	Pressure, kPa	Refractive index (Na D-line)	uncertainty
308.15	101.325	1.503	0.0005

System: 1,2-dimethylbenzene; phases: Liquid
Property: Mass density, kg/m3 (Liquid); method: BUOYAN
Temperature, K	Pressure, kPa	Mass density, kg/m3	uncertainty
308.15	101.325	867.42	0.89

System: 1,3-dimethylbenzene; phases: Liquid, Gas
Property: Vapor or sublimation pressure, kPa (Liquid); method: MANOM:UFactor:2
Temperature, K	Vapor or sublimation pressure, kPa	uncertainty
298.15	1.104	0.16

System: 1,3-dimethylbenzene; phases: Liquid
Property: Refractive index (Na D-line) (Liquid); method: Standard Abbe refractometry
Temperature, K	Pressure, kPa	Refractive index (Na D-line)	uncertainty
308.15	101.325	1.4945	0.0005

System: 1,3-dimethylbenzene; phases: Liquid
Property: Mass density, kg/m3 (Liquid); method: BUOYAN
Temperature, K	Pressure, kPa	Mass density, kg/m3	uncertainty
308.15	101.325	851.55	0.87

System: 1,4-dimethylbenzene; phases: Liquid, Gas
Property: Vapor or sublimation pressure, kPa (Liquid); method: MANOM:UFactor:2
Temperature, K	Vapor or sublimation pressure, kPa	uncertainty
298.15	1.117	0.16

System: 1,4-dimethylbenzene; phases: Liquid
Property: Refractive index (Na D-line) (Liquid); method: Standard Abbe refractometry
Temperature, K	Pressure, kPa	Refractive index (Na D-line)	uncertainty
308.15	101.325	1.4883	0.0005

System: 1,4-dimethylbenzene; phases: Liquid
Property: Mass density, kg/m3 (Liquid); method: BUOYAN
Temperature, K	Pressure, kPa	Mass density, kg/m3	uncertainty
308.15	101.325	857.9	0.88

System: butan-1-ol + benzene; phases: Liquid, Gas
Fixed: Temperature, K = 308.15
Property: Vapor or sublimation pressure, kPa (Liquid); method: MANOM:UFactor:4
Mole fraction of butan-1-ol	Vapor or sublimation pressure, kPa	uncertainty
0.0802	20.17	0.5
0.169	20.28	0.5
0.2561	20.11	0.5
0.315	19.84	0.5
0.3896	19.35	0.49
0.4603	18.61	0.48
0.5294	17.43	0.47
0.6035	16.49	0.46
0.6755	15.09	0.45
0.7565	13.29	0.43
0.8052	12.25	0.42
0.8465	10.72	0.41
0.9238	7.41	0.38
0.9789	4.03	0.35

System: butan-1-ol + toluene; phases: Liquid, Gas
Fixed: Temperature, K = 308.15
Property: Vapor or sublimation pressure, kPa (Liquid); method: MANOM:UFactor:2
Mole fraction of butan-1-ol	Vapor or sublimation pressure, kPa	uncertainty
0.043	6.39	0.19
0.112	6.37	0.19
0.205	6.33	0.18
0.3115	6.25	0.18
0.398	6.15	0.18
0.4815	6.07	0.18
0.5561	5.95	0.18
0.6305	5.68	0.18
0.696	5.36	0.18
0.7485	5.04	0.18
0.7965	4.63	0.18
0.8501	4.03	0.17
0.9045	3.31	0.17
0.957	2.49	0.17

System: butan-1-ol + 1,2-dimethylbenzene; phases: Liquid, Gas
Fixed: Temperature, K = 308.15
Property: Vapor or sublimation pressure, kPa (Liquid); method: MANOM:UFactor:2
Mole fraction of butan-1-ol	Vapor or sublimation pressure, kPa	uncertainty
0.0498	2.03	0.21
0.1285	2.41	0.21
0.194	2.58	0.22
0.246	2.68	0.22
0.3165	2.83	0.22
0.3875	2.85	0.22
0.4526	2.89	0.22
0.5498	2.88	0.22
0.6307	2.84	0.22
0.7015	2.75	0.22
0.7765	2.59	0.22
0.8395	2.39	0.21
0.896	2.18	0.21
0.943	2.01	0.21

System: butan-1-ol + 1,3-dimethylbenzene; phases: Liquid, Gas
Fixed: Temperature, K = 308.15
Property: Vapor or sublimation pressure, kPa (Liquid); method: MANOM:UFactor:2
Mole fraction of butan-1-ol	Vapor or sublimation pressure, kPa	uncertainty
0.053	2.2	0.17
0.111	2.45	0.17
0.1715	2.69	0.17
0.2505	2.95	0.17
0.319	3.08	0.17
0.3925	3.2	0.17
0.4425	3.23	0.17
0.509	3.27	0.17
0.5925	3.31	0.17
0.6495	3.27	0.17
0.726	3.21	0.17
0.8315	2.91	0.17
0.8945	2.57	0.17
0.946	2.16	0.17

System: butan-1-ol + 1,4-dimethylbenzene; phases: Liquid, Gas
Fixed: Temperature, K = 308.15
Property: Vapor or sublimation pressure, kPa (Liquid); method: MANOM:UFactor:2
Mole fraction of butan-1-ol	Vapor or sublimation pressure, kPa	uncertainty
0.0889	2.37	0.17
0.175	2.63	0.17
0.257	2.83	0.17
0.339	3.03	0.17
0.4005	3.13	0.17
0.469	3.21	0.17
0.5455	3.32	0.17
0.616	3.33	0.17
0.6765	3.35	0.17
0.7412	3.17	0.17
0.801	2.95	0.17
0.8475	2.68	0.17
0.8995	2.37	0.17
0.949	2.01	0.16
