Measured thermophysical data. Heat capacities of aqueous polar aromatic compounds over a wide range of conditions. Part I: phenol, cresols, aniline, and toluidines
Source: J. Chem. Thermodyn., 2005, 10.1016/j.jct.2004.09.004
Compound 1: phenol, C6H6O, InChI=1S/C6H6O/c7-6-4-2-1-3-5-6/h1-5,7H, purity 99.5%
Compound 2: water, H2O, InChI=1S/H2O/h1H2
Compound 3: 2-methylphenol, C7H8O, InChI=1S/C7H8O/c1-6-4-2-3-5-7(6)8/h2-5,8H,1H3, purity 99.5%
Compound 4: 3-methylphenol, C7H8O, InChI=1S/C7H8O/c1-6-3-2-4-7(8)5-6/h2-5,8H,1H3, purity 99%
Compound 5: 4-methylphenol, C7H8O, InChI=1S/C7H8O/c1-6-2-4-7(8)5-3-6/h2-5,8H,1H3, purity 99%
Compound 6: aniline, C6H7N, InChI=1S/C6H7N/c7-6-4-2-1-3-5-6/h1-5H,7H2, purity 99%
Compound 7: 2-methylaniline, C7H9N, InChI=1S/C7H9N/c1-6-4-2-3-5-7(6)8/h2-5H,8H2,1H3, purity 99.5%
Compound 8: 3-methylaniline, C7H9N, InChI=1S/C7H9N/c1-6-3-2-4-7(8)5-6/h2-5H,8H2,1H3, purity 99%
Compound 9: 4-methylaniline, C7H9N, InChI=1S/C7H9N/c1-6-2-4-7(8)5-3-6/h2-5H,8H2,1H3, purity 99%

System: phenol + water; phases: Liquid
Property: Specific heat capacity at constant pressure, J/K/kg (Liquid); method: FLOW:UFactor:4
Temperature, K	Pressure, kPa	Molality, mol/kg of phenol	Specific heat capacity at constant pressure, J/K/kg	uncertainty
303.55	100	0.1942	0.9966	0.00054
303.55	100	0.4104	0.99244	0.00071
303.55	100	0.6112	0.98827	0.00088
303.55	100	0.81	0.98345	0.00108
303.55	100	0.1942	0.99664	0.00054
303.55	100	0.4104	0.99249	0.00071
303.55	100	0.6112	0.98827	0.00088
303.55	100	0.81	0.98354	0.00108
372.23	2200	0.1942	0.99605	0.00064
372.23	2200	0.4104	0.9915	0.00092
372.23	2200	0.6112	0.98703	0.0012
372.23	2200	0.81	0.98258	0.00147
372.23	2200	0.1942	0.99607	0.00064
372.23	2200	0.4104	0.99159	0.00092
372.23	2200	0.6112	0.98715	0.00119
372.23	2200	0.81	0.98276	0.00146
372.23	2200	0.6112	0.98726	0.00118
422.61	2100	0.1942	0.99587	0.00073
422.61	2100	0.4104	0.99117	0.0011
422.61	2100	0.6112	0.98683	0.00145
422.61	2100	0.81	0.98216	0.00182
422.61	2100	0.1942	0.99587	0.00073
422.61	2100	0.4104	0.99125	0.00109
422.61	2100	0.6112	0.98695	0.00144
422.61	2100	0.81	0.98237	0.0018
422.61	2100	0.81	0.98241	0.0018
473.54	2100	0.1942	0.99593	0.00081
473.54	2100	0.4104	0.99137	0.00126
473.54	2100	0.6112	0.98725	0.00167
473.54	2100	0.81	0.98319	0.00208
473.54	2100	0.1942	0.99598	0.0008
473.54	2100	0.4104	0.99141	0.00126
473.54	2100	0.6112	0.98727	0.00167
473.54	2100	0.81	0.98327	0.00207
474.89	30300	0.1942	0.99564	0.00084
474.89	30300	0.4104	0.99079	0.00132
474.89	30300	0.6112	0.98641	0.00176
474.89	30300	0.81	0.98214	0.00219
474.89	30300	0.1942	0.99565	0.00084
474.89	30300	0.4104	0.99085	0.00132
474.89	30300	0.6112	0.98646	0.00176
474.89	30300	0.81	0.98218	0.00219
523.52	5000	0.1942	0.99633	0.00085
523.52	5000	0.4104	0.99223	0.00135
523.52	5000	0.6112	0.98836	0.00182
523.52	5000	0.81	0.98469	0.00226
523.52	5000	0.1942	0.99637	0.00084
523.52	5000	0.4104	0.99224	0.00135
523.52	5000	0.6112	0.98841	0.00181
523.52	5000	0.81	0.98473	0.00226
523.59	30100	0.1942	0.99549	0.00095
523.59	30100	0.4104	0.99061	0.00154
523.59	30100	0.6112	0.98615	0.00209
523.59	30100	0.81	0.98204	0.00259
523.59	30100	0.1942	0.99554	0.00094
523.59	30100	0.4104	0.99064	0.00154
523.59	30100	0.6112	0.98628	0.00207
523.59	30100	0.81	0.98218	0.00257
524.37	10100	0.1516	0.9969	0.00078
524.37	10100	0.2791	0.99436	0.00109
524.37	10100	0.4609	0.99075	0.00153
524.37	10100	0.6434	0.98719	0.00197
524.37	10100	0.7621	0.98485	0.00225
524.37	10100	0.1516	0.99699	0.00077
524.37	10100	0.2791	0.99449	0.00107
524.37	10100	0.4609	0.99078	0.00153
524.37	10100	0.6434	0.9872	0.00196
524.37	10100	0.7621	0.98487	0.00225
524.37	10100	0.1516	0.99701	0.00077
524.37	10100	0.7621	0.98488	0.00225
573.22	30000	0.1516	0.99678	0.00087
573.22	30000	0.2791	0.99298	0.00143
573.22	30000	0.4609	0.98848	0.00208
573.22	30000	0.6434	0.98439	0.00268
573.22	30000	0.7621	0.98171	0.00307
573.22	30000	0.1516	0.99678	0.00087
573.22	30000	0.2791	0.9933	0.00138
573.22	30000	0.4609	0.9886	0.00206
573.22	30000	0.6434	0.98465	0.00264
573.22	30000	0.7621	0.98283	0.00291
573.22	30000	0.2791	0.99343	0.00136
573.3	20200	0.1516	0.99665	0.00089
573.3	20200	0.2791	0.99393	0.00129
573.3	20200	0.4609	0.99005	0.00185
573.3	20200	0.6434	0.9863	0.0024
573.3	20200	0.7621	0.98377	0.00277
573.3	20200	0.1516	0.99668	0.00089
573.3	20200	0.2791	0.99396	0.00128
573.3	20200	0.4609	0.99014	0.00184
573.3	20200	0.6434	0.98642	0.00238
573.3	20200	0.7621	0.98398	0.00274
573.38	10000	0.1516	0.99811	0.00068
573.38	10000	0.2791	0.99638	0.00093
573.38	10000	0.4609	0.99408	0.00127
573.38	10000	0.6434	0.99174	0.00161
573.38	10000	0.7621	0.99025	0.00183
573.38	10000	0.1516	0.99823	0.00066
573.38	10000	0.2791	0.99651	0.00091
573.38	10000	0.4609	0.99412	0.00126
573.38	10000	0.6434	0.99188	0.00159
573.38	10000	0.7621	0.9903	0.00182
573.38	10000	0.1516	0.99824	0.00066
573.38	10000	0.2791	0.99657	0.0009
573.38	10000	0.7621	0.99062	0.00177
573.95	30000	0.1942	0.99518	0.00111
573.95	30000	0.4104	0.98979	0.00189
573.95	30000	0.6112	0.98495	0.0026
573.95	30000	0.81	0.98022	0.0033
573.95	30000	0.1942	0.99526	0.00109
573.95	30000	0.4104	0.9898	0.00189
573.95	30000	0.6112	0.98513	0.00258
573.95	30000	0.81	0.98028	0.00329
574.58	10200	0.1942	0.99772	0.00073
574.58	10200	0.4104	0.99483	0.00116
574.58	10200	0.6112	0.99207	0.00156
574.58	10200	0.81	0.98907	0.002
574.58	10200	0.1942	0.99772	0.00073
574.58	10200	0.4104	0.99486	0.00115
574.58	10200	0.6112	0.99215	0.00155
574.58	10200	0.81	0.98942	0.00195
574.58	10200	0.1942	0.99786	0.00071
574.58	10200	0.81	0.98942	0.00195
574.58	10200	0.81	0.98965	0.00192
598.17	20200	0.1516	0.99756	0.00079
598.17	20200	0.2791	0.99498	0.0012
598.17	20200	0.4609	0.9914	0.00177
598.17	20200	0.6434	0.98783	0.00234
598.17	20200	0.7621	0.98548	0.00271
598.17	20200	0.1516	0.99758	0.00079
598.17	20200	0.2791	0.99501	0.00119
598.17	20200	0.4609	0.99155	0.00174
598.17	20200	0.6434	0.98793	0.00232
598.17	20200	0.7621	0.98548	0.00271
598.2	30400	0.1516	0.99599	0.00104
598.2	30400	0.2791	0.99266	0.00157
598.2	30400	0.4609	0.98794	0.00232
598.2	30400	0.6434	0.98335	0.00305
598.2	30400	0.7621	0.98038	0.00352
598.2	30400	0.1516	0.99631	0.00099
598.2	30400	0.2791	0.9929	0.00153
598.2	30400	0.4609	0.98805	0.0023
598.2	30400	0.6434	0.98342	0.00304
598.2	30400	0.7621	0.98044	0.00351
598.2	30400	0.4609	0.98811	0.00229
598.22	13300	0.1516	0.99986	0.00042
598.22	13300	0.2791	0.99962	0.00047
598.22	13300	0.4609	0.99916	0.00055
598.22	13300	0.6434	0.99831	0.00069
598.22	13300	0.7621	0.99779	0.00077
598.22	13300	0.1516	1.00003	0.00041
598.22	13300	0.2791	0.99979	0.00044
598.22	13300	0.4609	0.99929	0.00053
598.22	13300	0.6434	0.99839	0.00067
598.22	13300	0.7621	0.99785	0.00076
598.22	13300	0.1516	1.00028	0.00045
623.2	30200	0.1516	0.9961	0.00107
623.2	30200	0.2791	0.99297	0.00161
623.2	30200	0.4609	0.98748	0.00256
623.2	30200	0.6434	0.98245	0.00343
623.2	30200	0.7621	0.97916	0.004
623.2	30200	0.1516	0.99635	0.00103
623.2	30200	0.2791	0.99298	0.00161
623.2	30200	0.4609	0.98805	0.00246
623.2	30200	0.6434	0.98247	0.00343
623.2	30200	0.7621	0.97922	0.00399

System: 2-methylphenol + water; phases: Liquid
Property: Specific heat capacity at constant pressure, J/K/kg (Liquid); method: FLOW:UFactor:4
Temperature, K	Pressure, kPa	Molality, mol/kg of 2-methylphenol	Specific heat capacity at constant pressure, J/K/kg	uncertainty
303.55	100	0.0971	0.99881	0.00045
303.55	100	0.2124	0.99704	0.00052
303.55	100	0.0971	0.99883	0.00045
303.55	100	0.2124	0.99709	0.00052
372.23	2200	0.0971	0.99829	0.00051
372.23	2200	0.2124	0.99609	0.00064
372.23	2200	0.0971	0.99825	0.00051
372.23	2200	0.2124	0.99599	0.00065
422.61	2100	0.0971	0.99826	0.00054
422.61	2100	0.2124	0.99616	0.0007
422.61	2100	0.0971	0.99828	0.00054
422.61	2100	0.2124	0.99619	0.0007
422.61	2100	0.0971	0.99829	0.00054
422.61	2100	0.2124	0.9962	0.0007
473.53	2100	0.0971	0.99839	0.00056
473.53	2100	0.2124	0.99621	0.00078
473.53	2100	0.0971	0.99841	0.00056
473.53	2100	0.2124	0.99622	0.00078
474.89	30300	0.0971	0.99795	0.00061
474.89	30300	0.2124	0.99542	0.00086
474.89	30300	0.0971	0.99801	0.0006
474.89	30300	0.2124	0.99547	0.00085
493.59	30300	0.0971	0.99784	0.00063
493.59	30300	0.2124	0.99538	0.0009
493.59	30300	0.0971	0.99791	0.00063
493.59	30300	0.2124	0.99527	0.00091
523.51	5000	0.0971	0.99862	0.00057
523.51	5000	0.2124	0.9967	0.0008
523.51	5000	0.0971	0.99863	0.00057
523.51	5000	0.2124	0.99672	0.0008
524.37	10100	0.1014	0.99825	0.00061
524.37	10100	0.2001	0.99654	0.00082
524.37	10100	0.1014	0.99829	0.00061
524.37	10100	0.2001	0.99658	0.00082
524.37	10100	0.1014	0.99835	0.0006
573.3	20200	0.1014	0.99855	0.00061
573.3	20200	0.2001	0.99668	0.00089
573.3	20200	0.1014	0.9986	0.0006
573.3	20200	0.2001	0.99672	0.00088
573.39	10100	0.1014	0.99974	0.00044
573.39	10100	0.2001	0.9994	0.00049
573.39	10100	0.1014	0.99995	0.00041
573.39	10100	0.2001	0.99971	0.00044
573.39	10100	0.1014	1	0.0004
573.95	30100	0.1014	0.9975	0.00077
573.95	30100	0.2001	0.9955	0.00106
573.95	30100	0.1014	0.99753	0.00076
573.95	30100	0.2001	0.99566	0.00104
573.95	30100	0.1014	0.99747	0.00077
574.03	30000	0.0971	0.99775	0.00073
574.03	30000	0.2124	0.99504	0.00113
574.03	30000	0.0971	0.9978	0.00072
574.03	30000	0.2124	0.99497	0.00114
574.28	10100	0.0971	0.99978	0.00043
574.28	10100	0.2124	0.99889	0.00056
574.28	10100	0.0971	0.99979	0.00043
574.28	10100	0.2124	0.9991	0.00053
598.17	20300	0.1014	0.99971	0.00045
598.17	20300	0.2001	0.99885	0.00058
598.17	20300	0.1014	0.9999	0.00042
598.17	20300	0.2001	0.99888	0.00058
598.17	20300	0.1014	1.00005	0.00041
598.2	30400	0.1014	0.99884	0.00058
598.2	30400	0.2001	0.99677	0.00091
598.2	30400	0.1014	0.99882	0.00059
598.2	30400	0.2001	0.99684	0.0009
598.22	13300	0.1014	1.00272	0.00083
598.22	13300	0.2001	1.00417	0.00107
598.22	13300	0.1014	1.00274	0.00084
598.22	13300	0.2001	1.00424	0.00108
623.2	30100	0.1014	1.00025	0.00044
623.2	30100	0.2001	0.99909	0.00056
623.2	30100	0.1014	1.00062	0.00051
623.2	30100	0.2001	0.99966	0.00046

System: 3-methylphenol + water; phases: Liquid
Property: Specific heat capacity at constant pressure, J/K/kg (Liquid); method: FLOW:UFactor:4
Temperature, K	Pressure, kPa	Molality, mol/kg of 3-methylphenol	Specific heat capacity at constant pressure, J/K/kg	uncertainty
303.55	100	0.1059	0.99848	0.00046
303.55	100	0.1961	0.99703	0.00052
303.55	100	0.1059	0.99852	0.00046
303.55	100	0.1961	0.99703	0.00052
372.24	2200	0.1059	0.99772	0.00054
372.24	2200	0.1961	0.99584	0.00066
372.24	2200	0.1059	0.99805	0.00052
372.24	2200	0.1961	0.99589	0.00065
372.24	2200	0.1961	0.99634	0.00063
422.62	2100	0.1059	0.99742	0.0006
422.62	2100	0.1961	0.9959	0.00073
422.62	2100	0.1059	0.99769	0.00058
422.62	2100	0.1961	0.99606	0.00071
422.62	2100	0.1059	0.99793	0.00056
422.62	2100	0.1059	0.99797	0.00056
422.62	2100	0.1059	0.99799	0.00056
473.53	2100	0.1059	0.99791	0.00061
473.53	2100	0.1961	0.99606	0.00079
473.53	2100	0.1059	0.99793	0.00061
473.53	2100	0.1961	0.99608	0.00079
474.89	30400	0.1059	0.99761	0.00064
474.89	30400	0.1961	0.99546	0.00086
474.89	30400	0.1059	0.99762	0.00064
474.89	30400	0.1961	0.99565	0.00084
523.51	5000	0.1059	0.99826	0.00061
523.51	5000	0.1961	0.9965	0.00083
523.51	5000	0.1059	0.99828	0.00061
523.51	5000	0.1961	0.99655	0.00082
523.6	30300	0.1059	0.99747	0.00071
523.6	30300	0.1961	0.99534	0.00097
523.6	30300	0.1059	0.99749	0.00071
523.6	30300	0.1961	0.99536	0.00097
524.38	10100	0.0977	0.99815	0.00063
524.38	10100	0.1986	0.9962	0.00086
524.38	10100	0.0977	0.99821	0.00062
524.38	10100	0.1986	0.99622	0.00086
573.23	30100	0.0977	0.99754	0.00076
573.23	30100	0.1986	0.99472	0.00117
573.23	30100	0.0977	0.9976	0.00075
573.23	30100	0.1986	0.9948	0.00116
573.3	20200	0.0977	0.99795	0.0007
573.3	20200	0.1986	0.99532	0.00108
573.3	20200	0.0977	0.99796	0.0007
573.3	20200	0.1986	0.99589	0.001
573.38	10000	0.0977	0.99927	0.00051
573.38	10000	0.1986	0.99829	0.00065
573.38	10000	0.0977	0.99937	0.00049
573.38	10000	0.1986	0.99847	0.00062
573.38	10000	0.0977	0.9994	0.00049
573.75	29800	0.1059	0.99736	0.00079
573.75	29800	0.1961	0.995	0.00113
573.75	29800	0.1059	0.99746	0.00077
573.75	29800	0.1961	0.99503	0.00113
574.48	10200	0.1059	0.99927	0.00051
574.48	10200	0.1961	0.9984	0.00064
574.48	10200	0.1059	0.99934	0.0005
574.48	10200	0.1961	0.99851	0.00062
598.17	20300	0.0977	0.99892	0.00057
598.17	20300	0.1986	0.99707	0.00087
598.17	20300	0.0977	0.99899	0.00056
598.17	20300	0.1986	0.99717	0.00085
598.2	30200	0.0977	0.99774	0.00076
598.2	30200	0.1986	0.99495	0.0012
598.2	30200	0.0977	0.99786	0.00074
598.2	30200	0.1986	0.99498	0.0012
598.22	13300	0.0977	1.00115	0.00058
598.22	13300	0.1986	1.00147	0.00064
598.22	13300	0.0977	1.00123	0.0006
598.22	13300	0.1986	1.00151	0.00064
623.17	30200	0.0977	0.9988	0.00061
623.17	30200	0.1986	0.99646	0.00101
623.17	30200	0.0977	0.99917	0.00054
623.17	30200	0.1986	0.99656	0.00099

System: 4-methylphenol + water; phases: Liquid
Property: Specific heat capacity at constant pressure, J/K/kg (Liquid); method: FLOW:UFactor:4
Temperature, K	Pressure, kPa	Molality, mol/kg of 4-methylphenol	Specific heat capacity at constant pressure, J/K/kg	uncertainty
303.55	100	0.0956	0.99867	0.00046
303.55	100	0.1776	0.99741	0.00051
303.55	100	0.0956	0.99876	0.00045
303.55	100	0.1776	0.99745	0.00051
372.24	2200	0.0956	0.99809	0.00052
372.24	2200	0.1776	0.99653	0.00061
372.24	2200	0.0956	0.99813	0.00052
372.24	2200	0.1776	0.99655	0.00061
422.63	2100	0.0956	0.99807	0.00055
422.63	2100	0.1776	0.9965	0.00068
422.63	2100	0.0956	0.99809	0.00055
422.63	2100	0.1776	0.99652	0.00068
473.53	2100	0.0956	0.99809	0.00059
473.53	2100	0.1776	0.99643	0.00076
473.53	2100	0.0956	0.99812	0.00059
473.53	2100	0.1776	0.99647	0.00075
474.89	30400	0.0956	0.99773	0.00063
474.89	30400	0.1776	0.99604	0.0008
474.89	30400	0.0956	0.99784	0.00062
474.89	30400	0.1776	0.99609	0.00079
523.51	5000	0.0956	0.99841	0.00059
523.51	5000	0.1776	0.99688	0.00078
523.51	5000	0.0956	0.99848	0.00059
523.51	5000	0.1776	0.99697	0.00077
523.6	30300	0.0956	0.99768	0.00068
523.6	30300	0.1776	0.99577	0.00092
523.6	30300	0.0956	0.99769	0.00068
523.6	30300	0.1776	0.99579	0.00091
524.38	10100	0.0999	0.99815	0.00063
524.38	10100	0.1776	0.99669	0.0008
524.38	10100	0.1792	0.99669	0.0008
524.38	10100	0.0999	0.9982	0.00062
524.38	10100	0.1792	0.99669	0.0008
573.23	30300	0.0999	0.99747	0.00077
573.23	30300	0.1792	0.99535	0.00108
573.23	30300	0.1792	0.99538	0.00107
573.3	20200	0.0999	0.99787	0.00071
573.3	20200	0.1792	0.9962	0.00096
573.3	20200	0.0999	0.99787	0.00071
573.3	20200	0.1792	0.99623	0.00095
573.38	10000	0.0999	0.99925	0.00051
573.38	10000	0.1792	0.99854	0.00061
573.38	10000	0.0999	0.9993	0.0005
573.38	10000	0.1792	0.99864	0.0006
573.38	10000	0.1792	0.9989	0.00056
573.78	29900	0.0956	0.99752	0.00076
573.78	29900	0.1776	0.99544	0.00107
573.78	29900	0.0956	0.99758	0.00075
573.78	29900	0.1776	0.99546	0.00106
574.1	10100	0.0956	0.99926	0.00051
574.1	10100	0.1776	0.99862	0.0006
574.1	10100	0.0956	0.99931	0.0005
574.1	10100	0.1776	0.99875	0.00058
598.18	20400	0.0999	0.99873	0.0006
598.18	20400	0.1792	0.99729	0.00083
598.18	20400	0.0999	0.99882	0.00059
598.18	20400	0.1792	0.99745	0.00081
598.2	30400	0.0999	0.99771	0.00076
598.2	30400	0.1792	0.99539	0.00113
598.2	30400	0.0999	0.99771	0.00076
598.2	30400	0.1792	0.99551	0.00111
598.22	13300	0.0999	1.00107	0.00057
598.22	13300	0.1792	1.00151	0.00064
598.22	13300	0.0999	1.00108	0.00057
598.22	13300	0.1792	1.00159	0.00066
623.17	29900	0.0999	0.99835	0.00068
623.17	29900	0.1792	0.99621	0.00105
623.17	29900	0.0999	0.99838	0.00068
623.17	29900	0.1792	0.99639	0.00102

System: aniline + water; phases: Liquid
Property: Specific heat capacity at constant pressure, J/K/kg (Liquid); method: FLOW:UFactor:4
Temperature, K	Pressure, kPa	Molality, mol/kg of aniline	Specific heat capacity at constant pressure, J/K/kg	uncertainty
303.55	100	0.1527	0.99795	0.00048
303.55	100	0.2897	0.99592	0.00057
303.55	100	0.1527	0.99798	0.00048
303.55	100	0.2897	0.99597	0.00057
372.24	2200	0.1527	0.99765	0.00054
372.24	2200	0.2897	0.99551	0.00068
372.24	2200	0.1527	0.99766	0.00054
372.24	2200	0.2897	0.9956	0.00067
422.61	2100	0.1527	0.9976	0.00059
422.61	2100	0.1537	0.99736	0.00061
422.61	2100	0.2897	0.99535	0.00078
422.61	2100	0.2962	0.99512	0.00079
422.61	2100	0.1527	0.99772	0.00058
422.61	2100	0.1537	0.99746	0.0006
422.61	2100	0.2897	0.99547	0.00079
422.61	2100	0.2962	0.99521	0.00078
422.61	2100	0.1537	0.9976	0.00059
473.53	2100	0.1537	0.99756	0.00064
473.53	2100	0.2962	0.99538	0.00086
473.53	2100	0.1537	0.9976	0.00064
473.53	2100	0.2962	0.99541	0.00086
473.53	2100	0.1537	0.9976	0.00064
473.53	2100	0.2962	0.99541	0.00086
523.52	5000	0.1527	0.99799	0.00064
523.52	5000	0.1537	0.99802	0.00064
523.52	5000	0.2962	0.99606	0.00088
523.52	5000	0.1527	0.99806	0.00064
523.52	5000	0.1537	0.99805	0.00064
523.52	5000	0.2962	0.99606	0.00088
523.59	30200	0.1537	0.99728	0.00073
523.59	30200	0.2962	0.99468	0.00105
523.59	30200	0.1537	0.99729	0.00073
523.59	30200	0.2962	0.99468	0.00105
573.58	29900	0.1527	0.99721	0.00081
573.58	29900	0.1537	0.9971	0.00082
573.58	29900	0.2962	0.99431	0.00123
573.58	29900	0.1537	0.99721	0.00081
573.58	29900	0.2962	0.99435	0.00123
573.58	29900	0.1537	0.9973	0.00079
574.26	10100	0.1537	0.99944	0.00048
574.26	10100	0.2962	0.99878	0.00058
574.26	10100	0.1537	0.99949	0.00047
574.26	10100	0.2962	0.9988	0.00058
574.26	10100	0.1537	0.99961	0.00046

System: 2-methylaniline + water; phases: Liquid
Property: Specific heat capacity at constant pressure, J/K/kg (Liquid); method: FLOW:UFactor:4
Temperature, K	Pressure, kPa	Molality, mol/kg of 2-methylaniline	Specific heat capacity at constant pressure, J/K/kg	uncertainty
303.55	100	0.1392	0.9986	0.00046
303.55	100	0.1392	0.99891	0.00044
372.23	2200	0.1392	0.9984	0.0005
372.23	2200	0.1392	0.99853	0.00049
422.61	2100	0.1188	0.99842	0.00053
422.61	2100	0.1392	0.99797	0.00056
422.61	2100	0.1188	0.99844	0.00053
473.53	2100	0.1188	0.99868	0.00053
473.53	2100	0.1188	0.99869	0.00053
523.53	5000	0.1188	0.99904	0.00052
523.53	5000	0.1214	0.99905	0.00052
523.53	5000	0.1188	0.99907	0.00051
523.53	5000	0.1214	0.99905	0.00052
573.69	10100	0.1214	1.00054	0.00048
573.69	10100	0.1214	1.00068	0.0005
573.73	29800	0.1188	0.99827	0.00076
573.73	29800	0.1214	0.99828	0.00065
573.73	29800	0.1188	0.99829	0.00076
573.73	29800	0.1188	0.99832	0.00077
573.95	30000	0.1188	0.99759	0.00085
573.95	30000	0.1214	0.99817	0.00067
573.95	30000	0.1188	0.99814	0.00068
573.95	30000	0.1188	0.99814	0.00068

System: 3-methylaniline + water; phases: Liquid
Fixed: Molality, mol/kg of 3-methylaniline = 0.097
Property: Specific heat capacity at constant pressure, J/K/kg (Liquid); method: FLOW:UFactor:4
Temperature, K	Pressure, kPa	Specific heat capacity at constant pressure, J/K/kg	uncertainty
303.55	100	0.99904	0.00044
303.55	100	0.99904	0.00044
372.2	2100	0.99825	0.00051
372.2	2100	0.99883	0.00047
372.2	2100	0.99905	0.00046
422.61	2100	0.99847	0.00052
422.61	2100	0.9985	0.00052
473.53	2100	0.99845	0.00055
473.53	2100	0.99866	0.00053
523.53	5000	0.999	0.00052
523.53	5000	0.99904	0.00052
523.53	5000	0.99907	0.00051
523.59	30000	0.99836	0.0006
523.59	30000	0.99832	0.0006
573.73	29800	0.99831	0.00065
573.73	29800	0.99825	0.00066
574.22	10100	1.00024	0.00044
574.22	10100	1.0003	0.00044
574.22	10100	1.00034	0.00045

System: 4-methylaniline + water; phases: Liquid
Fixed: Molality, mol/kg of 4-methylaniline = 0.0653
Property: Specific heat capacity at constant pressure, J/K/kg (Liquid); method: FLOW:UFactor:4
Temperature, K	Pressure, kPa	Specific heat capacity at constant pressure, J/K/kg	uncertainty
303.55	100	0.99914	0.00044
303.55	100	0.99938	0.00043
372.24	2200	0.99917	0.00045
372.24	2200	0.9992	0.00045
422.61	2100	0.99894	0.00048
422.61	2100	0.99896	0.00048
422.61	2100	0.999	0.00048
422.61	2100	0.99913	0.00047
473.53	2100	0.99918	0.00048
473.53	2100	0.99923	0.00048
523.53	5000	0.99939	0.00047
523.53	5000	0.9994	0.00047
523.53	5000	0.99945	0.00047
523.58	30000	0.99885	0.00054
523.58	30000	0.99885	0.00054
523.58	30000	0.99889	0.00054
573.71	10100	1.00032	0.00045
573.71	10100	1.00033	0.00045
573.71	10100	1.00039	0.00046
573.75	29900	0.99889	0.00056
573.75	29900	0.99897	0.00055
