Measured thermophysical data. Liquid density of biofuel mixtures: (Dibutyl ether + 1-butanol) system at pressures up to 140 MPa and temperatures from (293.15 to 393.15) K
Source: J. Chem. Thermodyn., 2011, 10.1016/j.jct.2011.06.006
Compound 1: dibutyl ether, C8H18O, InChI=1S/C8H18O/c1-3-5-7-9-8-6-4-2/h3-8H2,1-2H3, purity 99.3%
Compound 2: butan-1-ol, C4H10O, InChI=1S/C4H10O/c1-2-3-4-5/h5H,2-4H2,1H3, purity 99.9%

System: butan-1-ol + dibutyl ether; phases: Liquid
Property: Mass density, kg/m3 (Liquid); method: Vibrating tube method
Pressure, kPa	Temperature, K	Mole fraction of dibutyl ether	Mass density, kg/m3	uncertainty
100	293.15	0.1553	800	1
100	293.15	0.3249	791.5	1
100	293.15	0.4979	784.1	1
100	293.15	0.6748	777.8	1
100	293.15	0.8501	772.4	1
100	313.15	0.1553	783.9	1
100	313.15	0.3249	775	1
100	313.15	0.4979	767.1	1
100	313.15	0.6748	760.6	1
100	313.15	0.8501	755	1
100	333.15	0.1553	767.7	1
100	333.15	0.3249	758.2	1
100	333.15	0.4979	749.9	1
100	333.15	0.6748	743.2	1
100	333.15	0.8501	737.4	1
100	353.15	0.1553	749.5	1
100	353.15	0.3249	739.7	1
100	353.15	0.4979	731.2	1
100	353.15	0.6748	724.5	1
100	353.15	0.8501	718.7	1
100	373.15	0.1553	730.5	1
100	373.15	0.3249	720.4	1
100	373.15	0.4979	711.9	1
100	373.15	0.6748	704.9	1
100	373.15	0.8501	699.6	1
10000	293.15	0.1553	807.6	1
10000	293.15	0.3249	799	1
10000	293.15	0.4979	791.9	1
10000	293.15	0.6748	785.8	1
10000	293.15	0.8501	780.6	1
10000	313.15	0.1553	792	1
10000	313.15	0.3249	783.2	1
10000	313.15	0.4979	775.8	1
10000	313.15	0.6748	769.5	1
10000	313.15	0.8501	764.2	1
10000	333.15	0.1553	776.6	1
10000	333.15	0.3249	767.6	1
10000	333.15	0.4979	759.8	1
10000	333.15	0.6748	753.4	1
10000	333.15	0.8501	747.8	1
10000	353.15	0.1553	758.7	1
10000	353.15	0.3249	750.5	1
10000	353.15	0.4979	742.4	1
10000	353.15	0.6748	736.1	1
10000	353.15	0.8501	730.5	1
10000	373.15	0.1553	742.1	1
10000	373.15	0.3249	732.7	1
10000	373.15	0.4979	725	1
10000	373.15	0.6748	718.4	1
10000	373.15	0.8501	713.4	1
10000	393.15	0.1553	724.2	1
10000	393.15	0.3249	714.5	1
10000	393.15	0.4979	706.9	1
10000	393.15	0.6748	700.7	1
10000	393.15	0.8501	696.2	1
20000	293.15	0.1553	814.4	1
20000	293.15	0.3249	805.8	1
20000	293.15	0.4979	799.1	1
20000	293.15	0.6748	793.1	1
20000	293.15	0.8501	788	1
20000	313.15	0.1553	799.3	1
20000	313.15	0.3249	790.8	1
20000	313.15	0.4979	783.7	1
20000	313.15	0.6748	777.5	1
20000	313.15	0.8501	772.4	1.1
20000	333.15	0.1553	784.7	1
20000	333.15	0.3249	776.1	1
20000	333.15	0.4979	768.5	1
20000	333.15	0.6748	762.5	1.1
20000	333.15	0.8501	757.1	1.1
20000	353.15	0.1553	768.9	1
20000	353.15	0.3249	760.1	1
20000	353.15	0.4979	752.4	1.1
20000	353.15	0.6748	746.3	1.1
20000	353.15	0.8501	741	1.1
20000	373.15	0.1553	752.6	1
20000	373.15	0.3249	743.7	1.1
20000	373.15	0.4979	736.3	1.1
20000	373.15	0.6748	730.1	1.1
20000	373.15	0.8501	725.3	1.1
20000	393.15	0.1553	735.9	1.1
20000	393.15	0.3249	726.8	1.1
20000	393.15	0.4979	719.7	1.1
20000	393.15	0.6748	713.8	1.1
20000	393.15	0.8501	709.5	1.1
30000	293.15	0.1553	820.6	1
30000	293.15	0.3249	812.6	1
30000	293.15	0.4979	805.5	1.1
30000	293.15	0.6748	799.7	1.1
30000	293.15	0.8501	794.8	1.1
30000	313.15	0.1553	806.3	1
30000	313.15	0.3249	797.9	1.1
30000	313.15	0.4979	791	1.1
30000	313.15	0.6748	785	1.1
30000	313.15	0.8501	780	1.1
30000	333.15	0.1553	792.2	1.1
30000	333.15	0.3249	783.8	1.1
30000	333.15	0.4979	776.5	1.1
30000	333.15	0.6748	770.6	1.1
30000	333.15	0.8501	765.4	1.1
30000	353.15	0.1553	777.1	1.1
30000	353.15	0.3249	768.7	1.1
30000	353.15	0.4979	761.2	1.1
30000	353.15	0.6748	755.3	1.1
30000	353.15	0.8501	750.2	1.1
30000	373.15	0.1553	762	1.1
30000	373.15	0.3249	753.4	1.1
30000	373.15	0.4979	746.1	1.1
30000	373.15	0.6748	740.3	1.1
30000	373.15	0.8501	735.7	1.1
30000	393.15	0.1553	745.8	1.1
30000	393.15	0.3249	737.1	1.1
30000	393.15	0.4979	730.3	1.1
30000	393.15	0.6748	724.7	1.1
30000	393.15	0.8501	720.6	1.1
40000	293.15	0.1553	826.4	1.1
40000	293.15	0.3249	818.2	1.1
40000	293.15	0.4979	811.7	1.1
40000	293.15	0.6748	806	1.1
40000	293.15	0.8501	801.1	1.1
40000	313.15	0.1553	812.5	1.1
40000	313.15	0.3249	804.3	1.1
40000	313.15	0.4979	797.6	1.1
40000	313.15	0.6748	791.8	1.1
40000	313.15	0.8501	786.9	1.1
40000	333.15	0.1553	799	1.1
40000	333.15	0.3249	790.9	1.1
40000	333.15	0.4979	783.8	1.1
40000	333.15	0.6748	778	1.1
40000	333.15	0.8501	773	1.1
40000	353.15	0.1553	784.6	1.1
40000	353.15	0.3249	776.5	1.1
40000	353.15	0.4979	769.2	1.1
40000	353.15	0.6748	763.5	1.1
40000	353.15	0.8501	758.5	1.1
40000	373.15	0.1553	770	1.1
40000	373.15	0.3249	761.8	1.1
40000	373.15	0.4979	754.6	1.1
40000	373.15	0.6748	749.1	1.1
40000	373.15	0.8501	744.6	1.1
40000	393.15	0.1553	755.2	1.1
40000	393.15	0.3249	746.9	1.1
40000	393.15	0.4979	740.3	1.1
40000	393.15	0.6748	734.9	1.1
40000	393.15	0.8501	730.9	1.1
50000	293.15	0.1553	831.9	1.1
50000	293.15	0.3249	823.8	1.1
50000	293.15	0.4979	817.4	1.1
50000	293.15	0.6748	811.7	1.1
50000	293.15	0.8501	807	1.1
50000	313.15	0.1553	818.5	1.1
50000	313.15	0.3249	810.4	1.1
50000	313.15	0.4979	803.9	1.1
50000	313.15	0.6748	798.2	1.1
50000	313.15	0.8501	793.4	1.1
50000	333.15	0.1553	805.4	1.1
50000	333.15	0.3249	797.5	1.1
50000	333.15	0.4979	790.5	1.1
50000	333.15	0.6748	784.9	1.1
50000	333.15	0.8501	780	1.1
50000	353.15	0.1553	791.6	1.1
50000	353.15	0.3249	783.6	1.1
50000	353.15	0.4979	776.6	1.1
50000	353.15	0.6748	771	1.1
50000	353.15	0.8501	766.1	1.2
50000	373.15	0.1553	777.5	1.1
50000	373.15	0.3249	769.5	1.1
50000	373.15	0.4979	762.6	1.1
50000	373.15	0.6748	757.2	1.2
50000	373.15	0.8501	752.8	1.2
50000	393.15	0.1553	763	1.1
50000	393.15	0.3249	754.9	1.1
50000	393.15	0.4979	748.6	1.2
50000	393.15	0.6748	743.3	1.2
50000	393.15	0.8501	739.3	1.2
60000	293.15	0.1553	837	1.1
60000	293.15	0.3249	829	1.1
60000	293.15	0.4979	822.6	1.1
60000	293.15	0.6748	817.2	1.1
60000	293.15	0.8501	812.4	1.1
60000	313.15	0.1553	824	1.1
60000	313.15	0.3249	816.1	1.1
60000	313.15	0.4979	809.7	1.1
60000	313.15	0.6748	804.1	1.1
60000	313.15	0.8501	799.4	1.2
60000	333.15	0.1553	811.3	1.1
60000	333.15	0.3249	803.6	1.1
60000	333.15	0.4979	796.7	1.1
60000	333.15	0.6748	791.3	1.2
60000	333.15	0.8501	786.4	1.2
60000	353.15	0.1553	797.9	1.1
60000	353.15	0.3249	790.2	1.1
60000	353.15	0.4979	783.2	1.2
60000	353.15	0.6748	777.8	1.2
60000	353.15	0.8501	773	1.2
60000	373.15	0.1553	784.5	1.2
60000	373.15	0.3249	776.7	1.2
60000	373.15	0.4979	769.9	1.2
60000	373.15	0.6748	764.7	1.2
60000	373.15	0.8501	760.4	1.2
60000	393.15	0.1553	770.6	1.2
60000	393.15	0.3249	762.6	1.2
60000	393.15	0.4979	756.6	1.2
60000	393.15	0.6748	751.3	1.2
60000	393.15	0.8501	747.5	1.2
70000	293.15	0.1553	841.9	1.1
70000	293.15	0.3249	833.9	1.1
70000	293.15	0.4979	827.8	1.1
70000	293.15	0.6748	822.3	1.1
70000	293.15	0.8501	817.7	1.2
70000	313.15	0.1553	829.4	1.1
70000	313.15	0.3249	821.6	1.1
70000	313.15	0.4979	815.4	1.2
70000	313.15	0.6748	809.8	1.2
70000	313.15	0.8501	805.2	1.2
70000	333.15	0.1553	816.8	1.1
70000	333.15	0.3249	809.2	1.2
70000	333.15	0.4979	802.5	1.2
70000	333.15	0.6748	797.2	1.2
70000	333.15	0.8501	792.4	1.2
70000	353.15	0.1553	803.9	1.2
70000	353.15	0.3249	796.3	1.2
70000	353.15	0.4979	789.5	1.2
70000	353.15	0.6748	784.2	1.2
70000	353.15	0.8501	779.5	1.2
70000	373.15	0.1553	790.9	1.2
70000	373.15	0.3249	783.4	1.2
70000	373.15	0.4979	776.7	1.2
70000	373.15	0.6748	771.6	1.2
70000	373.15	0.8501	767.4	1.2
70000	393.15	0.1553	777.6	1.2
70000	393.15	0.3249	769.8	1.2
70000	393.15	0.4979	763.8	1.2
70000	393.15	0.6748	758.7	1.2
70000	393.15	0.8501	754.9	1.3
80000	293.15	0.1553	846.7	1.1
80000	293.15	0.3249	838.8	1.1
80000	293.15	0.4979	832.6	1.2
80000	293.15	0.6748	827.3	1.2
80000	293.15	0.8501	822.7	1.2
80000	313.15	0.1553	834.3	1.1
80000	313.15	0.3249	826.6	1.2
80000	313.15	0.4979	820.5	1.2
80000	313.15	0.6748	815	1.2
80000	313.15	0.8501	810.5	1.2
80000	333.15	0.1553	822.2	1.2
80000	333.15	0.3249	814.7	1.2
80000	333.15	0.4979	808.2	1.2
80000	333.15	0.6748	802.9	1.2
80000	333.15	0.8501	798.2	1.2
80000	353.15	0.1553	809.7	1.2
80000	353.15	0.3249	802	1.2
80000	353.15	0.4979	795.6	1.2
80000	353.15	0.6748	790.4	1.2
80000	353.15	0.8501	785.7	1.3
80000	373.15	0.1553	796.9	1.2
80000	373.15	0.3249	789.5	1.2
80000	373.15	0.4979	783	1.2
80000	373.15	0.6748	777.9	1.3
80000	373.15	0.8501	773.8	1.3
80000	393.15	0.1553	784.2	1.2
80000	393.15	0.3249	776.6	1.3
80000	393.15	0.4979	770.7	1.3
80000	393.15	0.6748	765.7	1.3
80000	393.15	0.8501	762	1.3
90000	293.15	0.1553	851	1.1
90000	293.15	0.3249	843.2	1.2
90000	293.15	0.4979	837.1	1.2
90000	293.15	0.6748	831.9	1.2
90000	293.15	0.8501	827.4	1.2
90000	313.15	0.1553	839	1.2
90000	313.15	0.3249	831.5	1.2
90000	313.15	0.4979	825.4	1.2
90000	313.15	0.6748	820	1.2
90000	313.15	0.8501	815.6	1.2
90000	333.15	0.1553	827.5	1.2
90000	333.15	0.3249	820.1	1.2
90000	333.15	0.4979	813.7	1.2
90000	333.15	0.6748	808.5	1.2
90000	333.15	0.8501	803.8	1.3
90000	353.15	0.1553	815	1.2
90000	353.15	0.3249	807.5	1.2
90000	353.15	0.4979	801.2	1.3
90000	353.15	0.6748	796.1	1.3
90000	353.15	0.8501	791.5	1.3
90000	373.15	0.1553	802.7	1.2
90000	373.15	0.3249	795.4	1.3
90000	373.15	0.4979	789	1.3
90000	373.15	0.6748	784.1	1.3
90000	373.15	0.8501	780	1.3
90000	393.15	0.1553	790.1	1.3
90000	393.15	0.3249	782.7	1.3
90000	393.15	0.4979	776.9	1.3
90000	393.15	0.6748	772	1.3
90000	393.15	0.8501	768.3	1.3
100000	293.15	0.1553	855.5	1.2
100000	293.15	0.3249	847.8	1.2
100000	293.15	0.4979	841.8	1.2
100000	293.15	0.6748	836.6	1.2
100000	293.15	0.8501	832.1	1.2
100000	313.15	0.1553	843.4	1.2
100000	313.15	0.3249	836	1.2
100000	313.15	0.4979	830	1.2
100000	313.15	0.6748	824.7	1.2
100000	313.15	0.8501	820.3	1.3
100000	333.15	0.1553	832.2	1.2
100000	333.15	0.3249	824.9	1.2
100000	333.15	0.4979	818.6	1.3
100000	333.15	0.6748	813.5	1.3
100000	333.15	0.8501	808.9	1.3
100000	353.15	0.1553	820	1.2
100000	353.15	0.3249	812.5	1.3
100000	353.15	0.4979	806.4	1.3
100000	353.15	0.6748	801.3	1.3
100000	353.15	0.8501	796.8	1.3
100000	373.15	0.1553	808.1	1.3
100000	373.15	0.3249	801	1.3
100000	373.15	0.4979	794.6	1.3
100000	373.15	0.6748	789.7	1.3
100000	373.15	0.8501	785.7	1.3
100000	393.15	0.1553	795.8	1.3
100000	393.15	0.3249	788.6	1.3
100000	393.15	0.4979	782.5	1.3
100000	393.15	0.6748	778	1.4
100000	393.15	0.8501	774.3	1.4
110000	293.15	0.1553	859.4	1.2
110000	293.15	0.3249	851.8	1.2
110000	293.15	0.4979	845.9	1.2
110000	293.15	0.6748	840.7	1.2
110000	293.15	0.8501	836.3	1.3
110000	313.15	0.1553	847.8	1.2
110000	313.15	0.3249	840.5	1.2
110000	313.15	0.4979	834.5	1.3
110000	313.15	0.6748	829.3	1.3
110000	313.15	0.8501	824.9	1.3
110000	333.15	0.1553	836.7	1.2
110000	333.15	0.3249	829.5	1.3
110000	333.15	0.4979	823.1	1.3
110000	333.15	0.6748	818.1	1.3
110000	333.15	0.8501	813.7	1.3
110000	353.15	0.1553	824.8	1.3
110000	353.15	0.3249	817.5	1.3
110000	353.15	0.4979	811.4	1.3
110000	353.15	0.6748	806.4	1.3
110000	353.15	0.8501	801.9	1.4
110000	373.15	0.1553	813.3	1.3
110000	373.15	0.3249	806.4	1.3
110000	373.15	0.4979	800	1.3
110000	373.15	0.6748	795.3	1.4
110000	373.15	0.8501	791.3	1.4
110000	393.15	0.1553	801.4	1.3
110000	393.15	0.3249	794.3	1.4
110000	393.15	0.4979	788.3	1.4
110000	393.15	0.6748	783.8	1.4
110000	393.15	0.8501	780.2	1.4
120000	293.15	0.1553	863.4	1.2
120000	293.15	0.3249	855.8	1.2
120000	293.15	0.4979	850	1.2
120000	293.15	0.6748	844.8	1.3
120000	293.15	0.8501	840.5	1.3
120000	313.15	0.1553	852	1.2
120000	313.15	0.3249	844.8	1.3
120000	313.15	0.4979	839	1.3
120000	313.15	0.6748	833.7	1.3
120000	313.15	0.8501	829.4	1.3
120000	333.15	0.1553	840.6	1.3
120000	333.15	0.3249	833.4	1.3
120000	333.15	0.4979	827.2	1.3
120000	333.15	0.6748	822.2	1.3
120000	333.15	0.8501	817.8	1.4
120000	353.15	0.1553	829.5	1.3
120000	353.15	0.3249	822.3	1.3
120000	353.15	0.4979	816.2	1.3
120000	353.15	0.6748	811.3	1.4
120000	353.15	0.8501	806.9	1.4
120000	373.15	0.1553	817.9	1.3
120000	373.15	0.3249	811	1.4
120000	373.15	0.4979	804.8	1.4
120000	373.15	0.6748	800.1	1.4
120000	373.15	0.8501	796.1	1.4
120000	393.15	0.1553	806.5	1.4
120000	393.15	0.3249	799.4	1.4
120000	393.15	0.4979	793.5	1.4
120000	393.15	0.6748	789.1	1.4
120000	393.15	0.8501	785.4	1.5
130000	293.15	0.1553	867.2	1.2
130000	293.15	0.3249	859.7	1.2
130000	293.15	0.4979	854	1.3
130000	293.15	0.6748	848.8	1.3
130000	293.15	0.8501	844.5	1.3
130000	313.15	0.1553	856	1.2
130000	313.15	0.3249	848.8	1.3
130000	313.15	0.4979	843	1.3
130000	313.15	0.6748	837.9	1.3
130000	313.15	0.8501	833.6	1.3
130000	333.15	0.1553	845.1	1.3
130000	333.15	0.3249	838	1.3
130000	333.15	0.4979	831.8	1.3
130000	333.15	0.6748	826.8	1.4
130000	333.15	0.8501	822.5	1.4
130000	353.15	0.1553	833.9	1.3
130000	353.15	0.3249	826.8	1.3
130000	353.15	0.4979	819.3	1.4
130000	353.15	0.6748	815.9	1.4
130000	353.15	0.8501	811.5	1.4
130000	373.15	0.1553	822.6	1.4
130000	373.15	0.3249	815.8	1.4
130000	373.15	0.4979	809.7	1.4
130000	373.15	0.6748	805.1	1.4
130000	373.15	0.8501	801.1	1.5
130000	393.15	0.1553	811.4	1.4
130000	393.15	0.3249	804.4	1.4
130000	393.15	0.4979	798.6	1.4
130000	393.15	0.6748	794.2	1.5
130000	393.15	0.8501	790.6	1.5
140000	293.15	0.1553	870.9	1.2
140000	293.15	0.3249	863.4	1.3
140000	293.15	0.4979	857.7	1.3
140000	293.15	0.6748	852.6	1.3
140000	293.15	0.8501	848.3	1.3
140000	313.15	0.1553	859.9	1.3
140000	313.15	0.3249	852.9	1.3
140000	313.15	0.4979	847.1	1.3
140000	313.15	0.6748	842	1.3
140000	313.15	0.8501	837.8	1.4
140000	333.15	0.1553	849	1.3
140000	333.15	0.3249	842	1.3
140000	333.15	0.4979	835.9	1.4
140000	333.15	0.6748	831	1.4
140000	333.15	0.8501	826.7	1.4
140000	353.15	0.1553	838.2	1.3
140000	353.15	0.3249	831.1	1.4
140000	353.15	0.4979	825.2	1.4
140000	353.15	0.6748	820.4	1.4
140000	353.15	0.8501	816	1.5
140000	373.15	0.1553	827	1.4
140000	373.15	0.3249	820.2	1.4
140000	373.15	0.4979	814.3	1.4
140000	373.15	0.6748	809.6	1.5
140000	373.15	0.8501	805.7	1.5
140000	393.15	0.1553	816.2	1.4
140000	393.15	0.3249	809.2	1.5
140000	393.15	0.4979	803.5	1.5
140000	393.15	0.6748	799.1	1.5
140000	393.15	0.8501	795.6	1.5
