Measured thermophysical data. Liquid phase behaviour of 1-hexyloxymethyl-3-methyl-imidazolium-based ionic liquids with hydrocarbons: The influence of anion
Source: J. Chem. Thermodyn., 2005, 10.1016/j.jct.2005.02.012
Compound 1: hexane, C6H14, InChI=1S/C6H14/c1-3-5-6-4-2/h3-6H2,1-2H3, purity 0.99%
Compound 2: 1-(hexyloxymethyl)-3-methylimidazolium bis((trifluoromethyl)sulfonyl)amide, C13H21F6N3O5S2, InChI=1S/C11H21N2O.C2F6NO4S2/c1-3-4-5-6-9-14-11-13-8-7-12(2)10-13;3-1(4,5)14(10,11)9-15(12,13)2(6,7)8/h7-8,10H,3-6,9,11H2,1-2H3;/q+1;-1
Compound 3: heptane, C7H16, InChI=1S/C7H16/c1-3-5-7-6-4-2/h3-7H2,1-2H3, purity 0.99%
Compound 4: benzene, C6H6, InChI=1S/C6H6/c1-2-4-6-5-3-1/h1-6H, purity 0.999%
Compound 5: toluene, C7H8, InChI=1S/C7H8/c1-7-5-3-2-4-6-7/h2-6H,1H3, purity 0.997%
Compound 6: ethylbenzene, C8H10, InChI=1S/C8H10/c1-2-8-6-4-3-5-7-8/h3-7H,2H2,1H3, purity 0.99%
Compound 7: 1,2-dimethylbenzene, C8H10, InChI=1S/C8H10/c1-7-5-3-4-6-8(7)2/h3-6H,1-2H3, purity 0.99%
Compound 8: 1,3-dimethylbenzene, C8H10, InChI=1S/C8H10/c1-7-4-3-5-8(2)6-7/h3-6H,1-2H3, purity 0.99%
Compound 9: 1,4-dimethylbenzene, C8H10, InChI=1S/C8H10/c1-7-3-5-8(2)6-4-7/h3-6H,1-2H3, purity 0.99%
Compound 10: pentane, C5H12, InChI=1S/C5H12/c1-3-5-4-2/h3-5H2,1-2H3, purity 0.99%
Compound 11: 1-hexyloxymethyl-3-methylimidazolium tetrafluoroborate, C11H21BF4N2O, InChI=1S/C11H21N2O.BF4/c1-3-4-5-6-9-14-11-13-8-7-12(2)10-13;2-1(3,4)5/h7-8,10H,3-6,9,11H2,1-2H3;/q+1;-1
Compound 12: octane, C8H18, InChI=1S/C8H18/c1-3-5-7-8-6-4-2/h3-8H2,1-2H3, purity 0.99%

System: hexane + 1-(hexyloxymethyl)-3-methylimidazolium bis((trifluoromethyl)sulfonyl)amide; phases: Liquid mixture 1, Liquid mixture 2
Fixed: Pressure, kPa = 101.325
Property: Liquid-liquid equilibrium temperature, K (Liquid mixture 1); method: VISOBS:UFactor:16
Mole fraction of 1-(hexyloxymethyl)-3-methylimidazolium bis((trifluoromethyl)sulfonyl)amide	Liquid-liquid equilibrium temperature, K	uncertainty
0.6823	341.45	3.21
0.7095	328.49	3.2
0.7299	320.65	3.2
0.7357	318.45	3.2
0.7505	312.95	3.2
0.7605	308.28	3.21
0.7722	303.1	3.2
0.7819	299.95	3.2

System: heptane + 1-(hexyloxymethyl)-3-methylimidazolium bis((trifluoromethyl)sulfonyl)amide; phases: Liquid mixture 1, Liquid mixture 2
Fixed: Pressure, kPa = 101.325
Property: Liquid-liquid equilibrium temperature, K (Liquid mixture 1); method: VISOBS:UFactor:16
Mole fraction of 1-(hexyloxymethyl)-3-methylimidazolium bis((trifluoromethyl)sulfonyl)amide	Liquid-liquid equilibrium temperature, K	uncertainty
0.7368	368.95	3.21
0.752	357.95	3.21
0.7647	347.95	3.21
0.7749	340.85	3.21
0.7912	328.27	3.21
0.8002	322.05	3.21
0.8096	315.1	3.21
0.8185	309.38	3.21
0.8274	303.25	3.21

System: benzene + 1-(hexyloxymethyl)-3-methylimidazolium bis((trifluoromethyl)sulfonyl)amide; phases: Liquid mixture 1, Liquid mixture 2
Fixed: Pressure, kPa = 101.325
Property: Liquid-liquid equilibrium temperature, K (Liquid mixture 1); method: VISOBS:UFactor:8
Mole fraction of 1-(hexyloxymethyl)-3-methylimidazolium bis((trifluoromethyl)sulfonyl)amide	Liquid-liquid equilibrium temperature, K	uncertainty
0.0201	351.7	1.6
0.0253	351.55	1.6
0.0269	351.37	1.6
0.0314	350.59	1.6
0.0386	348.7	1.6
0.039	348.61	1.6
0.0437	345.77	1.62
0.046	344.25	1.64
0.0525	338.35	1.65
0.0564	333.58	1.67
0.0604	328.65	1.68
0.0637	324.05	1.71
0.0663	319.75	1.72
0.0693	315.1	1.73
0.073	308.93	1.7
0.0734	308.35	1.7
0.0766	303.29	1.71
0.0775	302.25	1.7
0.08	298.45	1.71

System: benzene + 1-(hexyloxymethyl)-3-methylimidazolium bis((trifluoromethyl)sulfonyl)amide; phases: Liquid mixture 2, Liquid mixture 1
Fixed: Pressure, kPa = 101.325
Property: Liquid-liquid equilibrium temperature, K (Liquid mixture 2); method: VISOBS:UFactor:8
Mole fraction of 1-(hexyloxymethyl)-3-methylimidazolium bis((trifluoromethyl)sulfonyl)amide	Liquid-liquid equilibrium temperature, K	uncertainty
0.0019	298.45	4.19
0.0024	303.29	4.49
0.0024	302.25	4.49
0.0029	308.93	3.67
0.003	308.35	3.73
0.0038	315.1	3.63
0.0044	319.75	3.62
0.0049	324.05	3.35
0.0056	328.65	3.16
0.0063	333.58	3.2
0.007	338.35	2.73
0.0082	344.25	2.47
0.0086	345.77	2.21
0.0104	348.61	1.66
0.0105	348.7	1.66
0.013	350.59	1.62
0.0149	351.37	1.6
0.0165	351.55	1.6
0.0189	351.7	1.6

System: toluene + 1-(hexyloxymethyl)-3-methylimidazolium bis((trifluoromethyl)sulfonyl)amide; phases: Liquid mixture 2, Liquid mixture 1
Fixed: Pressure, kPa = 101.325
Property: Liquid-liquid equilibrium temperature, K (Liquid mixture 2); method: VISOBS:UFactor:8
Mole fraction of 1-(hexyloxymethyl)-3-methylimidazolium bis((trifluoromethyl)sulfonyl)amide	Liquid-liquid equilibrium temperature, K	uncertainty
0.0016	298.13	6.33
0.0019	304.56	5.15
0.0025	311.9	5.25
0.0026	313.1	5.24
0.0031	319.56	4.77
0.0035	323.15	5.02
0.0041	331.3	5.49
0.0044	334.1	5.43
0.0048	340.23	5.32
0.0052	344.25	3.55
0.0059	349.1	3.31
0.0067	355.1	3.82
0.0074	362.14	3.79
0.0078	364.33	3.04
0.0086	369.8	3
0.0097	376.4	2.61
0.0105	379.5	2.18
0.0116	383.42	2.14

System: toluene + 1-(hexyloxymethyl)-3-methylimidazolium bis((trifluoromethyl)sulfonyl)amide; phases: Liquid mixture 1, Liquid mixture 2
Fixed: Pressure, kPa = 101.325
Property: Liquid-liquid equilibrium temperature, K (Liquid mixture 1); method: VISOBS:UFactor:8
Mole fraction of 1-(hexyloxymethyl)-3-methylimidazolium bis((trifluoromethyl)sulfonyl)amide	Liquid-liquid equilibrium temperature, K	uncertainty
0.0835	383.42	1.63
0.0885	379.5	1.64
0.0912	376.4	1.69
0.0959	369.8	1.7
0.0997	364.33	1.69
0.1017	362.14	1.72
0.1056	355.1	1.76
0.1089	349.1	1.76
0.1116	344.25	1.74
0.1141	340.23	1.73
0.1177	334.1	1.74
0.1193	331.3	1.73
0.1243	323.15	1.73
0.1266	319.56	1.75
0.1301	313.1	1.74
0.1312	311.9	1.76
0.1349	304.56	1.83
0.1374	298.13	1.9

System: ethylbenzene + 1-(hexyloxymethyl)-3-methylimidazolium bis((trifluoromethyl)sulfonyl)amide; phases: Liquid mixture 1, Liquid mixture 2
Fixed: Pressure, kPa = 101.325
Property: Liquid-liquid equilibrium temperature, K (Liquid mixture 1); method: VISOBS:UFactor:16
Mole fraction of 1-(hexyloxymethyl)-3-methylimidazolium bis((trifluoromethyl)sulfonyl)amide	Liquid-liquid equilibrium temperature, K	uncertainty
0.1136	407.35	3.21
0.1165	405.45	3.21
0.1232	400.45	3.22
0.1336	391.65	3.22
0.1409	384.55	3.22
0.1509	375.45	3.22
0.1538	373.25	3.22
0.1594	367.95	3.23
0.1682	356.75	3.3
0.1699	353.35	3.27
0.1749	345.35	3.27
0.179	337.45	3.3
0.1802	334.25	3.37
0.1853	324.25	3.29
0.1877	319.65	3.36
0.1897	312.95	3.35
0.1943	302.85	3.6
0.195	299.95	3.6

System: ethylbenzene + 1-(hexyloxymethyl)-3-methylimidazolium bis((trifluoromethyl)sulfonyl)amide; phases: Liquid mixture 2, Liquid mixture 1
Fixed: Pressure, kPa = 101.325
Property: Liquid-liquid equilibrium temperature, K (Liquid mixture 2); method: VISOBS:UFactor:8
Mole fraction of 1-(hexyloxymethyl)-3-methylimidazolium bis((trifluoromethyl)sulfonyl)amide	Liquid-liquid equilibrium temperature, K	uncertainty
0.0013	299.95	10.52
0.0014	302.85	10.23
0.0018	312.95	9.63
0.0021	319.65	9.11
0.0023	324.25	8.67
0.0028	334.25	7.83
0.0029	337.45	7.87
0.0034	345.35	6.56
0.0039	353.35	5.82
0.0042	356.75	5.87
0.005	367.95	5.02
0.0056	373.25	4.24
0.0058	375.45	4.22
0.0067	384.55	4.14
0.0075	391.65	3.54
0.0087	400.45	3.44
0.0093	405.45	3.7
0.0095	407.35	3.8

System: 1,2-dimethylbenzene + 1-(hexyloxymethyl)-3-methylimidazolium bis((trifluoromethyl)sulfonyl)amide; phases: Liquid mixture 2, Liquid mixture 1
Fixed: Pressure, kPa = 101.325
Property: Liquid-liquid equilibrium temperature, K (Liquid mixture 2); method: VISOBS:UFactor:8
Mole fraction of 1-(hexyloxymethyl)-3-methylimidazolium bis((trifluoromethyl)sulfonyl)amide	Liquid-liquid equilibrium temperature, K	uncertainty
0.0018	298.58	6.94
0.0019	304.38	4.32
0.0025	310.4	7.1
0.0026	316.98	7.12
0.0031	325.14	9.66
0.0032	329.76	9.58
0.0034	336.9	9.57
0.0036	340.8	10.01
0.0043	357.12	8.65
0.0047	363.9	7.21
0.0055	378.17	5.36
0.0067	390	4.39
0.0072	395.7	4
0.0078	400.15	3.86
0.0083	405.4	3.77
0.0089	409.6	3.29
0.0092	412.9	3.31
0.0099	416.89	2.79

System: 1,2-dimethylbenzene + 1-(hexyloxymethyl)-3-methylimidazolium bis((trifluoromethyl)sulfonyl)amide; phases: Liquid mixture 1, Liquid mixture 2
Fixed: Pressure, kPa = 101.325
Property: Liquid-liquid equilibrium temperature, K (Liquid mixture 1); method: VISOBS:UFactor:16
Mole fraction of 1-(hexyloxymethyl)-3-methylimidazolium bis((trifluoromethyl)sulfonyl)amide	Liquid-liquid equilibrium temperature, K	uncertainty
0.1435	416.89	3.22
0.1485	412.9	3.21
0.1543	409.6	3.22
0.1576	405.4	3.23
0.1628	400.15	3.23
0.1658	395.7	3.27
0.169	390	3.33
0.1735	378.17	3.34
0.1799	363.9	3.33
0.1826	357.12	3.37
0.1886	340.8	3.36
0.1906	336.9	3.36
0.193	329.76	3.46
0.1941	325.14	3.43
0.197	316.98	3.42
0.1989	310.4	3.49
0.2006	304.38	3.58
0.2018	298.58	3.74

System: 1,3-dimethylbenzene + 1-(hexyloxymethyl)-3-methylimidazolium bis((trifluoromethyl)sulfonyl)amide; phases: Liquid mixture 2, Liquid mixture 1
Fixed: Pressure, kPa = 101.325
Property: Liquid-liquid equilibrium temperature, K (Liquid mixture 2); method: VISOBS:UFactor:8
Mole fraction of 1-(hexyloxymethyl)-3-methylimidazolium bis((trifluoromethyl)sulfonyl)amide	Liquid-liquid equilibrium temperature, K	uncertainty
0.0021	301.95	11.47
0.0023	308.95	9.8
0.0026	316.15	11.72
0.0029	323.45	10.69
0.0032	333.85	10.39
0.0035	340.65	10.31
0.0038	346.95	9.23
0.0042	356.65	7.34
0.0043	357.55	7.45
0.0043	357.95	7.44
0.005	368.95	7.07
0.0051	370.25	7.03
0.0056	379.95	7.07
0.006	385.65	5.47
0.0062	388.35	5.5
0.0068	395.75	4.34
0.0072	398.25	3.28
0.0075	402.45	3.2
0.0088	409.95	2.49
0.0094	411.15	1.79

System: 1,3-dimethylbenzene + 1-(hexyloxymethyl)-3-methylimidazolium bis((trifluoromethyl)sulfonyl)amide; phases: Liquid mixture 1, Liquid mixture 2
Fixed: Pressure, kPa = 101.325
Property: Liquid-liquid equilibrium temperature, K (Liquid mixture 1); method: VISOBS:UFactor:16
Mole fraction of 1-(hexyloxymethyl)-3-methylimidazolium bis((trifluoromethyl)sulfonyl)amide	Liquid-liquid equilibrium temperature, K	uncertainty
0.15	411.15	3.2
0.1542	409.95	3.21
0.1637	402.45	3.28
0.166	398.25	3.26
0.1681	395.75	3.25
0.1731	388.35	3.25
0.1755	385.65	3.25
0.1788	379.95	3.28
0.184	370.25	3.33
0.1841	368.95	3.33
0.1886	357.55	3.22
0.1886	357.95	3.25
0.1895	356.65	3.42
0.1923	346.95	3.51
0.1939	340.65	3.53
0.1958	333.85	3.8
0.1972	323.45	4.14
0.1985	316.15	4.4
0.199	308.95	3.97
0.2007	301.95	3.6

System: 1,4-dimethylbenzene + 1-(hexyloxymethyl)-3-methylimidazolium bis((trifluoromethyl)sulfonyl)amide; phases: Liquid mixture 1, Liquid mixture 2
Fixed: Pressure, kPa = 101.325
Property: Liquid-liquid equilibrium temperature, K (Liquid mixture 1); method: VISOBS:UFactor:8
Mole fraction of 1-(hexyloxymethyl)-3-methylimidazolium bis((trifluoromethyl)sulfonyl)amide	Liquid-liquid equilibrium temperature, K	uncertainty
0.1613	411.55	1.72
0.162	410.45	1.72
0.1686	397.15	1.72
0.1693	396.05	1.72
0.1744	384.65	1.84
0.1793	373.55	1.84
0.1809	369.95	1.82
0.1837	364.05	1.88
0.1874	354.05	1.93
0.1891	349.55	1.97
0.1913	342.95	1.99
0.1921	340.65	2.14
0.195	329.95	2.17
0.1971	322.35	2.23
0.1987	315.55	2.64
0.2022	295.9	2.76
0.2023	295.25	2.77

System: 1,4-dimethylbenzene + 1-(hexyloxymethyl)-3-methylimidazolium bis((trifluoromethyl)sulfonyl)amide; phases: Liquid mixture 2, Liquid mixture 1
Fixed: Pressure, kPa = 101.325
Property: Liquid-liquid equilibrium temperature, K (Liquid mixture 2); method: VISOBS:UFactor:8
Mole fraction of 1-(hexyloxymethyl)-3-methylimidazolium bis((trifluoromethyl)sulfonyl)amide	Liquid-liquid equilibrium temperature, K	uncertainty
0.0014	295.9	13.2
0.0014	295.25	13.63
0.002	315.55	12.51
0.0022	322.35	11.87
0.0025	329.95	11.08
0.003	342.95	9.77
0.003	340.65	9.77
0.0033	349.55	9.25
0.0035	354.05	8.59
0.004	364.05	7.96
0.0043	369.95	7.82
0.0045	373.55	7.66
0.0051	384.65	6.59
0.0059	396.05	5.65
0.006	397.15	5.66
0.007	410.45	5.56
0.0071	411.55	5.48

System: pentane + 1-hexyloxymethyl-3-methylimidazolium tetrafluoroborate; phases: Liquid mixture 1, Liquid mixture 2
Fixed: Pressure, kPa = 101.325
Property: Liquid-liquid equilibrium temperature, K (Liquid mixture 1); method: VISOBS:UFactor:8
Mole fraction of 1-hexyloxymethyl-3-methylimidazolium tetrafluoroborate	Liquid-liquid equilibrium temperature, K	uncertainty
0.7427	309.05	1.6
0.7627	306.34	1.6
0.7798	303.95	1.6
0.8009	301.24	1.6
0.8153	299.05	1.6

System: hexane + 1-hexyloxymethyl-3-methylimidazolium tetrafluoroborate; phases: Liquid mixture 1, Liquid mixture 2
Fixed: Pressure, kPa = 101.325
Property: Liquid-liquid equilibrium temperature, K (Liquid mixture 1); method: VISOBS:UFactor:8
Mole fraction of 1-hexyloxymethyl-3-methylimidazolium tetrafluoroborate	Liquid-liquid equilibrium temperature, K	uncertainty
0.7862	341.32	1.6
0.7955	339.05	1.61
0.805	334.68	1.61
0.808	333.46	1.61
0.8233	322.98	1.63
0.8443	307.65	1.63

System: heptane + 1-hexyloxymethyl-3-methylimidazolium tetrafluoroborate; phases: Liquid mixture 1, Liquid mixture 2
Fixed: Pressure, kPa = 101.325
Property: Liquid-liquid equilibrium temperature, K (Liquid mixture 1); method: VISOBS:UFactor:8
Mole fraction of 1-hexyloxymethyl-3-methylimidazolium tetrafluoroborate	Liquid-liquid equilibrium temperature, K	uncertainty
0.8387	366.55	1.66
0.8425	362.45	1.66
0.85	354.05	1.65
0.8609	343.85	1.65
0.8735	330.35	1.66
0.8834	319.85	1.66
0.8945	306.75	1.67

System: octane + 1-hexyloxymethyl-3-methylimidazolium tetrafluoroborate; phases: Liquid mixture 1, Liquid mixture 2
Fixed: Pressure, kPa = 101.325
Property: Liquid-liquid equilibrium temperature, K (Liquid mixture 1); method: VISOBS:UFactor:16
Mole fraction of 1-hexyloxymethyl-3-methylimidazolium tetrafluoroborate	Liquid-liquid equilibrium temperature, K	uncertainty
0.8508	396.95	3.21
0.8634	388.95	3.22
0.8759	377.35	3.22
0.8933	363.95	3.22
0.8968	360.85	3.22
0.9171	338.45	3.25
0.9319	308.95	3.3

System: benzene + 1-hexyloxymethyl-3-methylimidazolium tetrafluoroborate; phases: Liquid mixture 2, Liquid mixture 1
Fixed: Pressure, kPa = 101.325
Property: Liquid-liquid equilibrium temperature, K (Liquid mixture 2); method: VISOBS:UFactor:16
Mole fraction of 1-hexyloxymethyl-3-methylimidazolium tetrafluoroborate	Liquid-liquid equilibrium temperature, K	uncertainty
0.001	297	3.2
0.001	292.65	3.2
0.0012	305.35	3.2
0.0013	312.65	3.2
0.0014	320.42	3.2
0.0017	332.85	3.2
0.0017	332.21	3.2
0.0022	348	3.2
0.0023	351.25	3.2

System: benzene + 1-hexyloxymethyl-3-methylimidazolium tetrafluoroborate; phases: Liquid mixture 1, Liquid mixture 2
Fixed: Pressure, kPa = 101.325
Property: Liquid-liquid equilibrium temperature, K (Liquid mixture 1); method: VISOBS:UFactor:8
Mole fraction of 1-hexyloxymethyl-3-methylimidazolium tetrafluoroborate	Liquid-liquid equilibrium temperature, K	uncertainty
0.187	351.25	3.62
0.1874	348	3.62
0.1895	332.85	3.08
0.1898	332.21	3.08
0.1916	320.42	2.7
0.1934	312.65	2.35
0.1951	305.35	2.21
0.1975	297	2.05
0.1991	292.65	1.93

System: toluene + 1-hexyloxymethyl-3-methylimidazolium tetrafluoroborate; phases: Liquid mixture 1, Liquid mixture 2
Fixed: Pressure, kPa = 101.325
Property: Liquid-liquid equilibrium temperature, K (Liquid mixture 1); method: VISOBS:UFactor:8
Mole fraction of 1-hexyloxymethyl-3-methylimidazolium tetrafluoroborate	Liquid-liquid equilibrium temperature, K	uncertainty
0.3137	382.95	1.79
0.3191	372.25	1.8
0.326	357.95	1.83
0.3338	339.55	1.89
0.3403	321.65	1.96
0.3436	311.65	1.91
0.353	288.15	1.89

System: ethylbenzene + 1-hexyloxymethyl-3-methylimidazolium tetrafluoroborate; phases: Liquid mixture 1, Liquid mixture 2
Fixed: Pressure, kPa = 101.325
Property: Liquid-liquid equilibrium temperature, K (Liquid mixture 1); method: VISOBS:UFactor:8
Mole fraction of 1-hexyloxymethyl-3-methylimidazolium tetrafluoroborate	Liquid-liquid equilibrium temperature, K	uncertainty
0.4348	408.35	1.62
0.4432	402.55	1.65
0.4538	389.45	1.7
0.4651	371.95	1.77
0.4756	348.35	1.84
0.4847	327.85	1.84
0.4937	306.85	1.85

System: 1,2-dimethylbenzene + 1-hexyloxymethyl-3-methylimidazolium tetrafluoroborate; phases: Liquid mixture 1, Liquid mixture 2
Fixed: Pressure, kPa = 101.325
Property: Liquid-liquid equilibrium temperature, K (Liquid mixture 1); method: VISOBS:UFactor:16
Mole fraction of 1-hexyloxymethyl-3-methylimidazolium tetrafluoroborate	Liquid-liquid equilibrium temperature, K	uncertainty
0.3785	416.05	3.22
0.3919	403.55	3.22
0.4049	389.95	3.22
0.4189	378.45	3.22
0.434	364.35	3.23
0.4431	351.95	3.25
0.4499	342.85	3.25
0.4577	330.75	3.26
0.4631	322.85	3.23
0.4804	304.95	3.23
0.4895	294.75	3.23

System: 1,3-dimethylbenzene + 1-hexyloxymethyl-3-methylimidazolium tetrafluoroborate; phases: Liquid mixture 1, Liquid mixture 2
Fixed: Pressure, kPa = 101.325
Property: Liquid-liquid equilibrium temperature, K (Liquid mixture 1); method: VISOBS:UFactor:16
Mole fraction of 1-hexyloxymethyl-3-methylimidazolium tetrafluoroborate	Liquid-liquid equilibrium temperature, K	uncertainty
0.4496	408.35	3.22
0.4692	390.45	3.22
0.4802	377.95	3.24
0.4874	367.25	3.25
0.489	365.05	3.26
0.4902	363.05	3.27
0.5032	341.45	3.31
0.5148	310.85	3.37

System: 1,4-dimethylbenzene + 1-hexyloxymethyl-3-methylimidazolium tetrafluoroborate; phases: Liquid mixture 1, Liquid mixture 2
Fixed: Pressure, kPa = 101.325
Property: Liquid-liquid equilibrium temperature, K (Liquid mixture 1); method: VISOBS:UFactor:16
Mole fraction of 1-hexyloxymethyl-3-methylimidazolium tetrafluoroborate	Liquid-liquid equilibrium temperature, K	uncertainty
0.4335	410.95	3.21
0.4471	402.05	3.21
0.4618	390.45	3.23
0.4786	369.75	3.23
0.4817	366.55	3.23
0.4949	345.65	3.32
0.497	340.95	3.32
0.5084	298.55	3.53
