Measured thermophysical data. Acoustic and volumetric properties of betaine hydrochloride drug in aqueous D(+)-glucose and sucrose solutions
Source: J. Chem. Thermodyn., 2014, 10.1016/j.jct.2014.05.015
Compound 1: betaine hydrochloride, C5H12ClNO2, InChI=1S/C5H11NO2.ClH/c1-6(2,3)4-5(7)8;/h4H2,1-3H3;1H, purity 99%
Compound 2: D-glucose, C6H12O6, InChI=1S/C6H12O6/c7-1-3(9)5(11)6(12)4(10)2-8/h1,3-6,8-12H,2H2/t3-,4+,5+,6+/m0/s1, purity 98%
Compound 3: D-sucrose, C12H22O11, InChI=1S/C12H22O11/c13-1-4-6(16)8(18)9(19)11(21-4)23-12(3-15)10(20)7(17)5(2-14)22-12/h4-11,13-20H,1-3H2/t4-,5-,6-,7-,8+,9-,10+,11-,12+/m1/s1, purity 99.5%
Compound 4: water, H2O, InChI=1S/H2O/h1H2

System: water; phases: Liquid
Fixed: Pressure, kPa = 100
Property: Mass density, kg/m3 (Liquid); method: Vibrating tube method
Temperature, K	Mass density, kg/m3	uncertainty
293.15	998.224	0.256
298.15	997.074	0.256
303.15	995.676	0.256
308.15	994.061	0.256
313.15	992.245	0.256

System: water; phases: Liquid
Fixed: Pressure, kPa = 100
Fixed: Frequency, MHz = 3
Property: Speed of sound, m/s (Liquid); method: Sing-around technique in a fixed-path interferometer
Temperature, K	Speed of sound, m/s	uncertainty
293.15	1482.77	1.61
298.15	1496.69	1.61
303.15	1509.05	1.61
308.15	1519.73	1.62
313.15	1528.78	1.62

System: D-glucose + betaine hydrochloride + water; phases: Liquid
Fixed: Pressure, kPa = 100
Property: Mass density, kg/m3 (Liquid); method: Vibrating tube method
Temperature, K	Solvent: Molality, mol/kg of D-glucose	Molality, mol/kg of betaine hydrochloride	Mass density, kg/m3	uncertainty
293.15	0.1	0	1005.068	0.26
293.15	0.1	0.00974	1005.425	0.261
293.15	0.1	0.01935	1005.772	0.261
293.15	0.1	0.02962	1006.139	0.261
293.15	0.1	0.04056	1006.521	0.262
293.15	0.1	0.04945	1006.835	0.262
293.15	0.1	0.05791	1007.114	0.262
298.15	0.1	0	1003.872	0.259
298.15	0.1	0.00974	1004.222	0.26
298.15	0.1	0.01935	1004.567	0.26
298.15	0.1	0.02962	1004.927	0.26
298.15	0.1	0.04056	1005.307	0.261
298.15	0.1	0.04945	1005.611	0.261
298.15	0.1	0.05791	1005.885	0.261
303.15	0.1	0	1002.438	0.258
303.15	0.1	0.00974	1002.782	0.259
303.15	0.1	0.01935	1003.119	0.259
303.15	0.1	0.02962	1003.472	0.259
303.15	0.1	0.04056	1003.845	0.259
303.15	0.1	0.04945	1004.142	0.26
303.15	0.1	0.05791	1004.421	0.26
308.15	0.1	0	1000.793	0.257
308.15	0.1	0.00974	1001.132	0.257
308.15	0.1	0.01935	1001.46	0.257
308.15	0.1	0.02962	1001.808	0.258
308.15	0.1	0.04056	1002.168	0.258
308.15	0.1	0.04945	1002.453	0.258
308.15	0.1	0.05791	1002.719	0.259
313.15	0.1	0	998.945	0.256
313.15	0.1	0.00974	999.278	0.256
313.15	0.1	0.01935	999.601	0.256
313.15	0.1	0.02962	999.942	0.256
313.15	0.1	0.04056	1000.3	0.256
313.15	0.1	0.04945	1000.587	0.257
313.15	0.1	0.05791	1000.85	0.257
293.15	0.2	0	1012.079	0.266
293.15	0.2	0.01009	1012.44	0.267
293.15	0.2	0.01939	1012.768	0.267
293.15	0.2	0.02952	1013.119	0.267
293.15	0.2	0.0388	1013.433	0.268
293.15	0.2	0.04766	1013.728	0.268
293.15	0.2	0.05939	1014.116	0.268
298.15	0.2	0	1010.894	0.265
298.15	0.2	0.01009	1011.25	0.266
298.15	0.2	0.01939	1011.575	0.266
298.15	0.2	0.02952	1011.922	0.266
298.15	0.2	0.0388	1012.234	0.267
298.15	0.2	0.04766	1012.527	0.267
298.15	0.2	0.05939	1012.907	0.267
303.15	0.2	0	1009.419	0.264
303.15	0.2	0.01009	1009.766	0.264
303.15	0.2	0.01939	1010.089	0.265
303.15	0.2	0.02952	1010.434	0.265
303.15	0.2	0.0388	1010.742	0.265
303.15	0.2	0.04766	1011.032	0.266
303.15	0.2	0.05939	1011.407	0.266
308.15	0.2	0	1007.724	0.263
308.15	0.2	0.01009	1008.067	0.263
308.15	0.2	0.01939	1008.387	0.263
308.15	0.2	0.02952	1008.728	0.264
308.15	0.2	0.0388	1009.034	0.264
308.15	0.2	0.04766	1009.321	0.264
308.15	0.2	0.05939	1009.689	0.264
313.15	0.2	0	1005.861	0.261
313.15	0.2	0.01009	1006.2	0.261
313.15	0.2	0.01939	1006.511	0.262
313.15	0.2	0.02952	1006.845	0.262
313.15	0.2	0.0388	1007.15	0.262
313.15	0.2	0.04766	1007.44	0.263
313.15	0.2	0.05939	1007.811	0.263
293.15	0.3	0	1018.812	0.272
293.15	0.3	0.0097	1019.151	0.272
293.15	0.3	0.01937	1019.482	0.273
293.15	0.3	0.02952	1019.826	0.273
293.15	0.3	0.03905	1020.139	0.273
293.15	0.3	0.04766	1020.418	0.273
293.15	0.3	0.05939	1020.799	0.274
298.15	0.3	0	1017.521	0.271
298.15	0.3	0.0097	1017.853	0.271
298.15	0.3	0.01937	1018.183	0.272
298.15	0.3	0.02952	1018.522	0.272
298.15	0.3	0.03905	1018.833	0.272
298.15	0.3	0.04766	1019.099	0.272
298.15	0.3	0.05939	1019.469	0.273
303.15	0.3	0	1016.008	0.27
303.15	0.3	0.0097	1016.336	0.27
303.15	0.3	0.01937	1016.658	0.27
303.15	0.3	0.02952	1016.99	0.271
303.15	0.3	0.03905	1017.293	0.271
303.15	0.3	0.04766	1017.567	0.271
303.15	0.3	0.05939	1017.937	0.271
308.15	0.3	0	1014.294	0.268
308.15	0.3	0.0097	1014.617	0.269
308.15	0.3	0.01937	1014.937	0.269
308.15	0.3	0.02952	1015.266	0.269
308.15	0.3	0.03905	1015.566	0.269
308.15	0.3	0.04766	1015.834	0.27
308.15	0.3	0.05939	1016.192	0.27
313.15	0.3	0	1012.363	0.267
313.15	0.3	0.0097	1012.681	0.267
313.15	0.3	0.01937	1012.992	0.267
313.15	0.3	0.02952	1013.311	0.267
313.15	0.3	0.03905	1013.61	0.268
313.15	0.3	0.04766	1013.866	0.268
313.15	0.3	0.05939	1014.225	0.268
293.15	0	0	998.224	0.256
293.15	0	0.00988	998.597	0.256
293.15	0	0.02034	998.988	0.256
293.15	0	0.03199	999.418	0.256
293.15	0	0.03929	999.672	0.256
293.15	0	0.04992	1000.047	0.256
293.15	0	0.05925	1000.367	0.256
298.15	0	0	997.074	0.256
298.15	0	0.00988	997.445	0.256
298.15	0	0.02034	997.829	0.256
298.15	0	0.03199	998.253	0.256
298.15	0	0.03929	998.509	0.256
298.15	0	0.04992	998.883	0.256
298.15	0	0.05925	999.196	0.256
303.15	0	0	995.676	0.256
303.15	0	0.00988	996.042	0.256
303.15	0	0.02034	996.428	0.256
303.15	0	0.03199	996.847	0.256
303.15	0	0.03929	997.099	0.256
303.15	0	0.04992	997.471	0.256
303.15	0	0.05925	997.795	0.256
308.15	0	0	994.061	0.256
308.15	0	0.00988	994.425	0.256
308.15	0	0.02034	994.806	0.256
308.15	0	0.03199	995.225	0.256
308.15	0	0.03929	995.477	0.256
308.15	0	0.04992	995.846	0.256
308.15	0	0.05925	996.165	0.256
313.15	0	0	992.245	0.256
313.15	0	0.00988	992.605	0.256
313.15	0	0.02034	992.98	0.256
313.15	0	0.03199	993.389	0.256
313.15	0	0.03929	993.638	0.256
313.15	0	0.04992	993.998	0.256
313.15	0	0.05925	994.316	0.256

System: D-glucose + betaine hydrochloride + water; phases: Liquid
Fixed: Pressure, kPa = 100
Fixed: Frequency, MHz = 3
Property: Speed of sound, m/s (Liquid); method: Sing-around technique in a fixed-path interferometer
Temperature, K	Solvent: Molality, mol/kg of D-glucose	Molality, mol/kg of betaine hydrochloride	Speed of sound, m/s	uncertainty
293.15	0.1	0	1489.2	1.61
293.15	0.1	0.00974	1490.23	1.61
293.15	0.1	0.01935	1491.21	1.61
293.15	0.1	0.02962	1492.18	1.61
293.15	0.1	0.04056	1493.22	1.61
293.15	0.1	0.04945	1493.98	1.61
293.15	0.1	0.05791	1494.8	1.61
298.15	0.1	0	1502.86	1.61
298.15	0.1	0.00974	1503.88	1.61
298.15	0.1	0.01935	1504.83	1.61
298.15	0.1	0.02962	1505.86	1.61
298.15	0.1	0.04056	1506.91	1.61
298.15	0.1	0.04945	1507.76	1.61
298.15	0.1	0.05791	1508.49	1.61
303.15	0.1	0	1514.8	1.61
303.15	0.1	0.00974	1515.82	1.62
303.15	0.1	0.01935	1516.79	1.62
303.15	0.1	0.02962	1517.77	1.62
303.15	0.1	0.04056	1518.83	1.62
303.15	0.1	0.04945	1519.67	1.62
303.15	0.1	0.05791	1520.41	1.62
308.15	0.1	0	1525.31	1.62
308.15	0.1	0.00974	1526.31	1.62
308.15	0.1	0.01935	1527.25	1.62
308.15	0.1	0.02962	1528.26	1.62
308.15	0.1	0.04056	1529.29	1.62
308.15	0.1	0.04945	1530.12	1.62
308.15	0.1	0.05791	1530.87	1.62
313.15	0.1	0	1534.12	1.62
313.15	0.1	0.00974	1535.1	1.62
313.15	0.1	0.01935	1536.05	1.62
313.15	0.1	0.02962	1537.03	1.62
313.15	0.1	0.04056	1538.04	1.62
313.15	0.1	0.04945	1538.81	1.62
313.15	0.1	0.05791	1539.5	1.62
293.15	0.2	0	1495.98	1.61
293.15	0.2	0.01009	1497.08	1.61
293.15	0.2	0.01939	1498.05	1.61
293.15	0.2	0.02952	1499.09	1.61
293.15	0.2	0.0388	1500.01	1.61
293.15	0.2	0.04766	1500.88	1.61
293.15	0.2	0.05939	1501.98	1.61
298.15	0.2	0	1509.43	1.61
298.15	0.2	0.01009	1510.5	1.61
298.15	0.2	0.01939	1511.46	1.61
298.15	0.2	0.02952	1512.5	1.61
298.15	0.2	0.0388	1513.39	1.61
298.15	0.2	0.04766	1514.25	1.62
298.15	0.2	0.05939	1515.34	1.62
303.15	0.2	0	1521.18	1.62
303.15	0.2	0.01009	1522.26	1.62
303.15	0.2	0.01939	1523.19	1.62
303.15	0.2	0.02952	1524.18	1.62
303.15	0.2	0.0388	1525.06	1.62
303.15	0.2	0.04766	1525.88	1.62
303.15	0.2	0.05939	1526.95	1.62
308.15	0.2	0	1531.25	1.62
308.15	0.2	0.01009	1532.3	1.62
308.15	0.2	0.01939	1533.21	1.62
308.15	0.2	0.02952	1534.19	1.62
308.15	0.2	0.0388	1535.02	1.62
308.15	0.2	0.04766	1535.89	1.62
308.15	0.2	0.05939	1536.89	1.62
313.15	0.2	0	1539.82	1.62
313.15	0.2	0.01009	1540.85	1.62
313.15	0.2	0.01939	1541.75	1.62
313.15	0.2	0.02952	1542.73	1.62
313.15	0.2	0.0388	1543.54	1.62
313.15	0.2	0.04766	1544.28	1.62
313.15	0.2	0.05939	1545.35	1.62
293.15	0.3	0	1502.51	1.61
293.15	0.3	0.0097	1503.59	1.61
293.15	0.3	0.01937	1504.65	1.61
293.15	0.3	0.02952	1505.72	1.61
293.15	0.3	0.03905	1506.71	1.61
293.15	0.3	0.04766	1507.57	1.61
293.15	0.3	0.05939	1508.73	1.61
298.15	0.3	0	1515.8	1.62
298.15	0.3	0.0097	1516.86	1.62
298.15	0.3	0.01937	1517.88	1.62
298.15	0.3	0.02952	1518.89	1.62
298.15	0.3	0.03905	1519.85	1.62
298.15	0.3	0.04766	1520.7	1.62
298.15	0.3	0.05939	1521.82	1.62
303.15	0.3	0	1527.35	1.62
303.15	0.3	0.0097	1528.41	1.62
303.15	0.3	0.01937	1529.42	1.62
303.15	0.3	0.02952	1530.4	1.62
303.15	0.3	0.03905	1531.32	1.62
303.15	0.3	0.04766	1532.18	1.62
303.15	0.3	0.05939	1533.28	1.62
308.15	0.3	0	1537.18	1.62
308.15	0.3	0.0097	1538.21	1.62
308.15	0.3	0.01937	1539.18	1.62
308.15	0.3	0.02952	1540.2	1.62
308.15	0.3	0.03905	1541.1	1.62
308.15	0.3	0.04766	1541.87	1.62
308.15	0.3	0.05939	1542.97	1.62
313.15	0.3	0	1545.67	1.62
313.15	0.3	0.0097	1546.68	1.62
313.15	0.3	0.01937	1547.66	1.62
313.15	0.3	0.02952	1548.67	1.62
313.15	0.3	0.03905	1549.55	1.62
313.15	0.3	0.04766	1550.33	1.62
313.15	0.3	0.05939	1551.35	1.62
293.15	0	0	1482.77	1.61
293.15	0	0.00988	1483.79	1.61
293.15	0	0.02034	1484.85	1.61
293.15	0	0.03199	1485.96	1.61
293.15	0	0.03929	1486.62	1.61
293.15	0	0.04992	1487.58	1.61
293.15	0	0.05925	1488.42	1.61
298.15	0	0	1496.69	1.61
298.15	0	0.00988	1497.7	1.61
298.15	0	0.02034	1498.74	1.61
298.15	0	0.03199	1499.78	1.61
298.15	0	0.03929	1500.47	1.61
298.15	0	0.04992	1501.34	1.61
298.15	0	0.05925	1502.35	1.61
303.15	0	0	1509.05	1.61
303.15	0	0.00988	1510.05	1.61
303.15	0	0.02034	1511.03	1.61
303.15	0	0.03199	1512.12	1.61
303.15	0	0.03929	1512.76	1.61
303.15	0	0.04992	1513.57	1.61
303.15	0	0.05925	1514.23	1.61
308.15	0	0	1519.73	1.62
308.15	0	0.00988	1520.72	1.62
308.15	0	0.02034	1521.71	1.62
308.15	0	0.03199	1522.82	1.62
308.15	0	0.03929	1523.45	1.62
308.15	0	0.04992	1524.42	1.62
308.15	0	0.05925	1525.12	1.62
313.15	0	0	1528.78	1.62
313.15	0	0.00988	1529.76	1.62
313.15	0	0.02034	1530.74	1.62
313.15	0	0.03199	1531.76	1.62
313.15	0	0.03929	1532.41	1.62
313.15	0	0.04992	1533.27	1.62
313.15	0	0.05925	1534.06	1.62

System: D-sucrose + betaine hydrochloride + water; phases: Liquid
Fixed: Pressure, kPa = 100
Property: Mass density, kg/m3 (Liquid); method: Vibrating tube method
Temperature, K	Solvent: Molality, mol/kg of D-sucrose	Molality, mol/kg of betaine hydrochloride	Mass density, kg/m3	uncertainty
293.15	0.1	0	1011.49	0.136
293.15	0.1	0.0104	1011.864	0.136
293.15	0.1	0.01898	1012.166	0.136
293.15	0.1	0.03002	1012.548	0.136
293.15	0.1	0.04019	1012.901	0.136
293.15	0.1	0.04916	1013.201	0.136
293.15	0.1	0.05922	1013.545	0.136
298.15	0.1	0	1010.264	0.135
298.15	0.1	0.0104	1010.632	0.135
298.15	0.1	0.01898	1010.929	0.135
298.15	0.1	0.03002	1011.307	0.136
298.15	0.1	0.04019	1011.657	0.136
298.15	0.1	0.04916	1011.952	0.136
298.15	0.1	0.05922	1012.286	0.136
303.15	0.1	0	1008.81	0.135
303.15	0.1	0.0104	1009.171	0.135
303.15	0.1	0.01898	1009.465	0.135
303.15	0.1	0.03002	1009.839	0.135
303.15	0.1	0.04019	1010.181	0.135
303.15	0.1	0.04916	1010.476	0.135
303.15	0.1	0.05922	1010.804	0.135
308.15	0.1	0	1007.138	0.134
308.15	0.1	0.0104	1007.494	0.134
308.15	0.1	0.01898	1007.782	0.135
308.15	0.1	0.03002	1008.149	0.135
308.15	0.1	0.04019	1008.481	0.135
308.15	0.1	0.04916	1008.771	0.135
308.15	0.1	0.05922	1009.09	0.135
313.15	0.1	0	1005.279	0.134
313.15	0.1	0.0104	1005.627	0.134
313.15	0.1	0.01898	1005.914	0.134
313.15	0.1	0.03002	1006.275	0.134
313.15	0.1	0.04019	1006.605	0.134
313.15	0.1	0.04916	1006.888	0.134
313.15	0.1	0.05922	1007.208	0.134
293.15	0.2	0	1024.67	0.14
293.15	0.2	0.00948	1024.997	0.14
293.15	0.2	0.02	1025.356	0.14
293.15	0.2	0.02862	1025.646	0.14
293.15	0.2	0.04096	1026.058	0.14
293.15	0.2	0.04978	1026.341	0.14
293.15	0.2	0.05763	1026.583	0.141
298.15	0.2	0	1023.367	0.139
298.15	0.2	0.00948	1023.69	0.14
298.15	0.2	0.02	1024.038	0.14
298.15	0.2	0.02862	1024.318	0.14
298.15	0.2	0.04096	1024.716	0.14
298.15	0.2	0.04978	1024.997	0.14
298.15	0.2	0.05763	1025.235	0.14
303.15	0.2	0	1021.853	0.139
303.15	0.2	0.00948	1022.169	0.139
303.15	0.2	0.02	1022.515	0.139
303.15	0.2	0.02862	1022.793	0.139
303.15	0.2	0.04096	1023.189	0.139
303.15	0.2	0.04978	1023.461	0.14
303.15	0.2	0.05763	1023.702	0.14
308.15	0.2	0	1020.133	0.139
308.15	0.2	0.00948	1020.444	0.139
308.15	0.2	0.02	1020.78	0.139
308.15	0.2	0.02862	1021.05	0.139
308.15	0.2	0.04096	1021.436	0.139
308.15	0.2	0.04978	1021.7	0.139
308.15	0.2	0.05763	1021.924	0.139
313.15	0.2	0	1018.222	0.138
313.15	0.2	0.00948	1018.526	0.138
313.15	0.2	0.02	1018.857	0.138
313.15	0.2	0.02862	1019.122	0.138
313.15	0.2	0.04096	1019.491	0.138
313.15	0.2	0.04978	1019.745	0.138
313.15	0.2	0.05763	1019.975	0.138
293.15	0.3	0	1037.843	0.144
293.15	0.3	0.0098	1038.167	0.144
293.15	0.3	0.01951	1038.481	0.145
293.15	0.3	0.0278	1038.742	0.145
293.15	0.3	0.03918	1039.099	0.145
293.15	0.3	0.04702	1039.341	0.145
293.15	0.3	0.05708	1039.645	0.145
298.15	0.3	0	1036.471	0.144
298.15	0.3	0.0098	1036.79	0.144
298.15	0.3	0.01951	1037.097	0.144
298.15	0.3	0.0278	1037.357	0.144
298.15	0.3	0.03918	1037.704	0.144
298.15	0.3	0.04702	1037.939	0.144
298.15	0.3	0.05708	1038.236	0.144
303.15	0.3	0	1034.89	0.143
303.15	0.3	0.0098	1035.201	0.143
303.15	0.3	0.01951	1035.505	0.144
303.15	0.3	0.0278	1035.761	0.144
303.15	0.3	0.03918	1036.106	0.144
303.15	0.3	0.04702	1036.335	0.144
303.15	0.3	0.05708	1036.627	0.144
308.15	0.3	0	1033.112	0.143
308.15	0.3	0.0098	1033.418	0.143
308.15	0.3	0.01951	1033.716	0.143
308.15	0.3	0.0278	1033.962	0.143
308.15	0.3	0.03918	1034.301	0.143
308.15	0.3	0.04702	1034.523	0.143
308.15	0.3	0.05708	1034.808	0.143
313.15	0.3	0	1031.161	0.142
313.15	0.3	0.0098	1031.46	0.142
313.15	0.3	0.01951	1031.749	0.142
313.15	0.3	0.0278	1031.989	0.142
313.15	0.3	0.03918	1032.317	0.143
313.15	0.3	0.04702	1032.535	0.143
313.15	0.3	0.05708	1032.809	0.143
293.15	0	0	998.224	0.132
293.15	0	0.00988	998.597	0.132
293.15	0	0.02034	998.988	0.132
293.15	0	0.03199	999.418	0.132
293.15	0	0.03929	999.672	0.132
293.15	0	0.04992	1000.047	0.132
293.15	0	0.05925	1000.367	0.132
298.15	0	0	997.074	0.133
298.15	0	0.00988	997.445	0.132
298.15	0	0.02034	997.829	0.132
298.15	0	0.03199	998.253	0.132
298.15	0	0.03929	998.509	0.132
298.15	0	0.04992	998.883	0.132
298.15	0	0.05925	999.196	0.132
303.15	0	0	995.676	0.133
303.15	0	0.00988	996.042	0.133
303.15	0	0.02034	996.428	0.133
303.15	0	0.03199	996.847	0.133
303.15	0	0.03929	997.099	0.133
303.15	0	0.04992	997.471	0.132
303.15	0	0.05925	997.795	0.132
308.15	0	0	994.061	0.133
308.15	0	0.00988	994.425	0.133
308.15	0	0.02034	994.806	0.133
308.15	0	0.03199	995.225	0.133
308.15	0	0.03929	995.477	0.133
308.15	0	0.04992	995.846	0.133
308.15	0	0.05925	996.165	0.133
313.15	0	0	992.245	0.133
313.15	0	0.00988	992.605	0.133
313.15	0	0.02034	992.98	0.133
313.15	0	0.03199	993.389	0.133
313.15	0	0.03929	993.638	0.133
313.15	0	0.04992	993.998	0.133
313.15	0	0.05925	994.316	0.133

System: D-sucrose + betaine hydrochloride + water; phases: Liquid
Fixed: Pressure, kPa = 100
Fixed: Frequency, MHz = 3
Property: Speed of sound, m/s (Liquid); method: Sing-around technique in a fixed-path interferometer
Temperature, K	Solvent: Molality, mol/kg of D-sucrose	Molality, mol/kg of betaine hydrochloride	Speed of sound, m/s	uncertainty
293.15	0.1	0	1492.33	1.33
293.15	0.1	0.0104	1493.44	1.33
293.15	0.1	0.01898	1494.39	1.34
293.15	0.1	0.03002	1495.54	1.34
293.15	0.1	0.04019	1496.6	1.34
293.15	0.1	0.04916	1497.47	1.34
293.15	0.1	0.05922	1498.45	1.34
298.15	0.1	0	1505.88	1.34
298.15	0.1	0.0104	1506.97	1.34
298.15	0.1	0.01898	1507.86	1.34
298.15	0.1	0.03002	1508.98	1.34
298.15	0.1	0.04019	1509.95	1.34
298.15	0.1	0.04916	1510.77	1.34
298.15	0.1	0.05922	1511.75	1.34
303.15	0.1	0	1517.77	1.34
303.15	0.1	0.0104	1518.86	1.34
303.15	0.1	0.01898	1519.73	1.34
303.15	0.1	0.03002	1520.83	1.34
303.15	0.1	0.04019	1521.79	1.34
303.15	0.1	0.04916	1522.58	1.34
303.15	0.1	0.05922	1523.49	1.34
308.15	0.1	0	1528.1	1.34
308.15	0.1	0.0104	1529.17	1.34
308.15	0.1	0.01898	1530.03	1.34
308.15	0.1	0.03002	1531.13	1.34
308.15	0.1	0.04019	1532.09	1.34
308.15	0.1	0.04916	1532.96	1.34
308.15	0.1	0.05922	1533.83	1.34
313.15	0.1	0	1536.72	1.34
313.15	0.1	0.0104	1537.77	1.34
313.15	0.1	0.01898	1538.61	1.34
313.15	0.1	0.03002	1539.65	1.34
313.15	0.1	0.04019	1540.55	1.34
313.15	0.1	0.04916	1541.34	1.34
313.15	0.1	0.05922	1542.22	1.34
293.15	0.2	0	1502.37	1.34
293.15	0.2	0.00948	1503.43	1.34
293.15	0.2	0.02	1504.54	1.34
293.15	0.2	0.02862	1505.45	1.34
293.15	0.2	0.04096	1506.67	1.34
293.15	0.2	0.04978	1507.53	1.34
293.15	0.2	0.05763	1508.21	1.34
298.15	0.2	0	1515.67	1.34
298.15	0.2	0.00948	1516.7	1.34
298.15	0.2	0.02	1517.85	1.34
298.15	0.2	0.02862	1518.78	1.34
298.15	0.2	0.04096	1520.03	1.34
298.15	0.2	0.04978	1520.92	1.34
298.15	0.2	0.05763	1521.65	1.34
303.15	0.2	0	1527	1.34
303.15	0.2	0.00948	1528.04	1.34
303.15	0.2	0.02	1529.15	1.34
303.15	0.2	0.02862	1530.05	1.34
303.15	0.2	0.04096	1531.29	1.34
303.15	0.2	0.04978	1532.13	1.34
303.15	0.2	0.05763	1532.82	1.34
308.15	0.2	0	1536.88	1.34
308.15	0.2	0.00948	1537.89	1.34
308.15	0.2	0.02	1538.96	1.34
308.15	0.2	0.02862	1539.85	1.34
308.15	0.2	0.04096	1541.06	1.34
308.15	0.2	0.04978	1541.82	1.34
308.15	0.2	0.05763	1542.52	1.34
313.15	0.2	0	1545.38	1.34
313.15	0.2	0.00948	1546.38	1.34
313.15	0.2	0.02	1547.43	1.34
313.15	0.2	0.02862	1548.28	1.34
313.15	0.2	0.04096	1549.45	1.34
313.15	0.2	0.04978	1550.28	1.34
313.15	0.2	0.05763	1550.88	1.34
293.15	0.3	0	1512.86	1.34
293.15	0.3	0.0098	1514	1.34
293.15	0.3	0.01951	1515.1	1.34
293.15	0.3	0.0278	1516.03	1.34
293.15	0.3	0.03918	1517.26	1.34
293.15	0.3	0.04702	1518.01	1.34
293.15	0.3	0.05708	1519.07	1.34
298.15	0.3	0	1525.67	1.34
298.15	0.3	0.0098	1526.79	1.34
298.15	0.3	0.01951	1527.83	1.34
298.15	0.3	0.0278	1528.7	1.34
298.15	0.3	0.03918	1529.89	1.34
298.15	0.3	0.04702	1530.6	1.34
298.15	0.3	0.05708	1531.55	1.34
303.15	0.3	0	1536.77	1.34
303.15	0.3	0.0098	1537.89	1.34
303.15	0.3	0.01951	1538.96	1.34
303.15	0.3	0.0278	1539.83	1.34
303.15	0.3	0.03918	1541.03	1.34
303.15	0.3	0.04702	1541.81	1.34
303.15	0.3	0.05708	1542.79	1.34
308.15	0.3	0	1546.29	1.34
308.15	0.3	0.0098	1547.38	1.34
308.15	0.3	0.01951	1548.42	1.34
308.15	0.3	0.0278	1549.31	1.34
308.15	0.3	0.03918	1550.48	1.34
308.15	0.3	0.04702	1551.21	1.34
308.15	0.3	0.05708	1552.18	1.34
313.15	0.3	0	1554.21	1.35
313.15	0.3	0.0098	1555.28	1.35
313.15	0.3	0.01951	1556.31	1.35
313.15	0.3	0.0278	1557.15	1.35
313.15	0.3	0.03918	1558.3	1.35
313.15	0.3	0.04702	1559.02	1.35
313.15	0.3	0.05708	1560	1.35
293.15	0	0	1482.77	1.33
293.15	0	0.00988	1483.79	1.33
293.15	0	0.02034	1484.85	1.33
293.15	0	0.03199	1485.96	1.33
293.15	0	0.03929	1486.62	1.33
293.15	0	0.04992	1487.58	1.33
293.15	0	0.05925	1488.42	1.33
298.15	0	0	1496.69	1.34
298.15	0	0.00988	1497.7	1.34
298.15	0	0.02034	1498.74	1.34
298.15	0	0.03199	1499.78	1.34
298.15	0	0.03929	1500.47	1.34
298.15	0	0.04992	1501.34	1.34
298.15	0	0.05925	1502.35	1.34
303.15	0	0	1509.05	1.34
303.15	0	0.00988	1510.05	1.34
303.15	0	0.02034	1511.03	1.34
303.15	0	0.03199	1512.12	1.34
303.15	0	0.03929	1512.76	1.34
303.15	0	0.04992	1513.57	1.34
303.15	0	0.05925	1514.23	1.34
308.15	0	0	1519.73	1.34
308.15	0	0.00988	1520.72	1.34
308.15	0	0.02034	1521.71	1.34
308.15	0	0.03199	1522.82	1.34
308.15	0	0.03929	1523.45	1.34
308.15	0	0.04992	1524.42	1.34
308.15	0	0.05925	1525.12	1.34
313.15	0	0	1528.78	1.34
313.15	0	0.00988	1529.76	1.34
313.15	0	0.02034	1530.74	1.34
313.15	0	0.03199	1531.76	1.34
313.15	0	0.03929	1532.41	1.34
313.15	0	0.04992	1533.27	1.34
313.15	0	0.05925	1534.06	1.34

System: D-glucose + water; phases: Liquid
Fixed: Pressure, kPa = 100
Property: Mass density, kg/m3 (Liquid); method: Vibrating tube method
Temperature, K	Molality, mol/kg of D-glucose	Mass density, kg/m3	uncertainty
293.15	0.1	1005.068	0.26
298.15	0.1	1003.872	0.259
303.15	0.1	1002.438	0.258
308.15	0.1	1000.793	0.257
313.15	0.1	998.945	0.256
293.15	0.2	1012.079	0.266
298.15	0.2	1010.894	0.265
303.15	0.2	1009.419	0.264
308.15	0.2	1007.724	0.263
313.15	0.2	1005.861	0.261
293.15	0.3	1018.812	0.272
298.15	0.3	1017.521	0.271
303.15	0.3	1016.008	0.27
308.15	0.3	1014.294	0.268
313.15	0.3	1012.363	0.267

System: D-glucose + water; phases: Liquid
Fixed: Pressure, kPa = 100
Fixed: Frequency, MHz = 3
Property: Speed of sound, m/s (Liquid); method: Sing-around technique in a fixed-path interferometer
Temperature, K	Molality, mol/kg of D-glucose	Speed of sound, m/s	uncertainty
293.15	0.1	1489.2	1.61
298.15	0.1	1502.86	1.61
303.15	0.1	1514.8	1.61
308.15	0.1	1525.31	1.62
313.15	0.1	1534.12	1.62
293.15	0.2	1495.98	1.61
298.15	0.2	1509.43	1.61
303.15	0.2	1521.18	1.62
308.15	0.2	1531.25	1.62
313.15	0.2	1539.82	1.62
293.15	0.3	1502.51	1.61
298.15	0.3	1515.8	1.62
303.15	0.3	1527.35	1.62
308.15	0.3	1537.18	1.62
313.15	0.3	1545.67	1.62

System: betaine hydrochloride + water; phases: Liquid
Fixed: Pressure, kPa = 100
Property: Mass density, kg/m3 (Liquid); method: Vibrating tube method
Temperature, K	Molality, mol/kg of betaine hydrochloride	Mass density, kg/m3	uncertainty
293.15	0.00988	998.597	0.256
293.15	0.02034	998.988	0.256
293.15	0.03199	999.418	0.256
293.15	0.03929	999.672	0.256
293.15	0.04992	1000.047	0.256
293.15	0.05925	1000.367	0.256
298.15	0.00988	997.445	0.256
298.15	0.02034	997.829	0.256
298.15	0.03199	998.253	0.256
298.15	0.03929	998.509	0.256
298.15	0.04992	998.883	0.256
298.15	0.05925	999.196	0.256
303.15	0.00988	996.042	0.256
303.15	0.02034	996.428	0.256
303.15	0.03199	996.847	0.256
303.15	0.03929	997.099	0.256
303.15	0.04992	997.471	0.256
303.15	0.05925	997.795	0.256
308.15	0.00988	994.425	0.256
308.15	0.02034	994.806	0.256
308.15	0.03199	995.225	0.256
308.15	0.03929	995.477	0.256
308.15	0.04992	995.846	0.256
308.15	0.05925	996.165	0.256
313.15	0.00988	992.605	0.256
313.15	0.02034	992.98	0.256
313.15	0.03199	993.389	0.256
313.15	0.03929	993.638	0.256
313.15	0.04992	993.998	0.256
313.15	0.05925	994.316	0.256

System: betaine hydrochloride + water; phases: Liquid
Fixed: Pressure, kPa = 100
Fixed: Frequency, MHz = 3
Property: Speed of sound, m/s (Liquid); method: Sing-around technique in a fixed-path interferometer
Temperature, K	Molality, mol/kg of betaine hydrochloride	Speed of sound, m/s	uncertainty
293.15	0.00988	1483.79	1.61
293.15	0.02034	1484.85	1.61
293.15	0.03199	1485.96	1.61
293.15	0.03929	1486.62	1.61
293.15	0.04992	1487.58	1.61
293.15	0.05925	1488.42	1.61
298.15	0.00988	1497.7	1.61
298.15	0.02034	1498.74	1.61
298.15	0.03199	1499.78	1.61
298.15	0.03929	1500.47	1.61
298.15	0.04992	1501.34	1.61
298.15	0.05925	1502.35	1.61
303.15	0.00988	1510.05	1.61
303.15	0.02034	1511.03	1.61
303.15	0.03199	1512.12	1.61
303.15	0.03929	1512.76	1.61
303.15	0.04992	1513.57	1.61
303.15	0.05925	1514.23	1.61
308.15	0.00988	1520.72	1.62
308.15	0.02034	1521.71	1.62
308.15	0.03199	1522.82	1.62
308.15	0.03929	1523.45	1.62
308.15	0.04992	1524.42	1.62
308.15	0.05925	1525.12	1.62
313.15	0.00988	1529.76	1.62
313.15	0.02034	1530.74	1.62
313.15	0.03199	1531.76	1.62
313.15	0.03929	1532.41	1.62
313.15	0.04992	1533.27	1.62
313.15	0.05925	1534.06	1.62

System: D-sucrose + water; phases: Liquid
Fixed: Pressure, kPa = 100
Property: Mass density, kg/m3 (Liquid); method: Vibrating tube method
Temperature, K	Molality, mol/kg of D-sucrose	Mass density, kg/m3	uncertainty
293.15	0.1	1011.49	0.136
298.15	0.1	1010.264	0.135
303.15	0.1	1008.81	0.135
308.15	0.1	1007.138	0.134
313.15	0.1	1005.279	0.134
293.15	0.2	1024.67	0.14
298.15	0.2	1023.367	0.139
303.15	0.2	1021.853	0.139
308.15	0.2	1020.133	0.139
313.15	0.2	1018.222	0.138
293.15	0.3	1037.843	0.144
298.15	0.3	1036.471	0.144
303.15	0.3	1034.89	0.143
308.15	0.3	1033.112	0.143
313.15	0.3	1031.161	0.142

System: D-sucrose + water; phases: Liquid
Fixed: Pressure, kPa = 100
Fixed: Frequency, MHz = 3
Property: Speed of sound, m/s (Liquid); method: Sing-around technique in a fixed-path interferometer
Temperature, K	Molality, mol/kg of D-sucrose	Speed of sound, m/s	uncertainty
293.15	0.1	1492.33	1.33
298.15	0.1	1505.88	1.34
303.15	0.1	1517.77	1.34
308.15	0.1	1528.1	1.34
313.15	0.1	1536.72	1.34
293.15	0.2	1502.37	1.34
298.15	0.2	1515.67	1.34
303.15	0.2	1527	1.34
308.15	0.2	1536.88	1.34
313.15	0.2	1545.38	1.34
293.15	0.3	1512.86	1.34
298.15	0.3	1525.67	1.34
303.15	0.3	1536.77	1.34
308.15	0.3	1546.29	1.34
313.15	0.3	1554.21	1.35
