Measured thermophysical data. (Liquid + liquid) equilibria for (water + acetic acid + 2-ethyl- 1-hexanol): experimental data and prediction
Source: J. Chem. Thermodyn., 2004, 10.1016/j.jct.2004.07.021
Compound 1: water, H2O, InChI=1S/H2O/h1H2
Compound 2: acetic acid, C2H4O2, InChI=1S/C2H4O2/c1-2(3)4/h1H3,(H,3,4)
Compound 3: 2-ethyl-1-hexanol, C8H18O, InChI=1S/C8H18O/c1-3-5-6-8(4-2)7-9/h8-9H,3-7H2,1-2H3

System: 2-ethyl-1-hexanol + water; phases: Liquid mixture 1, Liquid mixture 2
Fixed: Pressure, kPa = 101
Property: Mole fraction of water (Liquid mixture 1); method: CHROM:UFactor:4
Temperature, K	Mole fraction of water	uncertainty
298.2	0.9996	0.0004
303.2	0.9996	0.0004
308.2	0.9996	0.0004
313.2	0.9996	0.0004

System: 2-ethyl-1-hexanol + water; phases: Liquid mixture 2, Liquid mixture 1
Fixed: Pressure, kPa = 101
Property: Mole fraction of water (Liquid mixture 2); method: CHROM:UFactor:4
Temperature, K	Mole fraction of water	uncertainty
298.2	0.1081	0.0033
303.2	0.1081	0.0033
308.2	0.1081	0.0033
313.2	0.1081	0.0033

System: acetic acid + 2-ethyl-1-hexanol + water; phases: Liquid mixture 1, Liquid mixture 2
Fixed: Pressure, kPa = 101
Property: Mole fraction of acetic acid (Liquid mixture 1); method: CHROM:UFactor:4
Property: Mole fraction of water (Liquid mixture 2); method: CHROM:UFactor:4
Property: Mole fraction of acetic acid (Liquid mixture 2); method: CHROM:UFactor:4
Temperature, K	Mole fraction of water	Mole fraction of acetic acid	uncertainty	Mole fraction of water	uncertainty	Mole fraction of acetic acid	uncertainty
298.2	0.9996	0	0.0001	0.1081	0.0033	0	
298.2	0.9739	0.0257	0.0013	0.1252	0.0039	0.0936	
298.2	0.9482	0.0514	0.0019	0.1431	0.0044	0.1796	
298.2	0.8982	0.1016	0.0033	0.1729	0.0054	0.2878	
298.2	0.8821	0.1177	0.0038	0.182	0.0056	0.3113	
298.2	0.8529	0.1468	0.0046	0.196	0.0061	0.352	
298.2	0.8217	0.1776	0.0056	0.2192	0.0069	0.3811	
298.2	0.7957	0.2033	0.0063	0.279	0.0094	0.423	
298.2	0.6835	0.2966	0.0092	0.397	0.0133	0.4398	
303.2	0.9996	0	0.0001	0.1081	0.0033	0	
303.2	0.983	0.0168	0.0011	0.1269	0.0039	0.0934	
303.2	0.9483	0.0516	0.0019	0.1459	0.0045	0.1868	
303.2	0.8986	0.1013	0.0033	0.1763	0.0055	0.2868	
303.2	0.8826	0.1172	0.0037	0.1848	0.0057	0.3107	
303.2	0.8533	0.1463	0.0046	0.1995	0.0062	0.3476	
303.2	0.8224	0.1769	0.0055	0.2116	0.0066	0.3969	
303.2	0.7962	0.2027	0.0063	0.264	0.0086	0.435	
303.2	0.696	0.2916	0.0091	0.3731	0.0118	0.4788	
308.2	0.9996	0	0.0001	0.1081	0.0033	0	
308.2	0.9811	0.0186	0.0011	0.1285	0.004	0.0933	
308.2	0.9484	0.0515	0.0019	0.1492	0.0046	0.1864	
308.2	0.8989	0.1009	0.0033	0.1797	0.0056	0.2863	
308.2	0.883	0.1167	0.0037	0.1881	0.0058	0.3099	
308.2	0.8538	0.1458	0.0046	0.2029	0.0063	0.3468	
308.2	0.8232	0.1761	0.0055	0.236	0.0073	0.4027	
308.2	0.7968	0.2001	0.0062	0.273	0.009	0.4398	
308.2	0.675	0.3128	0.0097	0.3967	0.0128	0.4679	
313.2	0.9996	0	0.0001	0.1081	0.0033	0	
313.2	0.9793	0.0205	0.0012	0.1301	0.004	0.0929	
313.2	0.9486	0.0513	0.0019	0.128	0.004	0.1858	
313.2	0.8992	0.1006	0.0032	0.142	0.0045	0.27	
313.2	0.8835	0.1162	0.0037	0.1685	0.0053	0.332	
313.2	0.8508	0.1487	0.0047	0.182	0.0057	0.36	
313.2	0.8319	0.1675	0.0052	0.2022	0.0063	0.383	
313.2	0.7661	0.2243	0.007	0.2579	0.0202	0.415	
313.2	0.6815	0.2896	0.009	0.377	0.0219	0.419	
