Measured thermophysical data. Energetics and stability of azulene: From experimental thermochemistry to high-level quantum chemical calculations
Source: J. Chem. Thermodyn., 2014, 10.1016/j.jct.2013.11.008
Compound 1: carbon dioxide, CO2, InChI=1S/CO2/c2-1-3
Compound 2: water, H2O, InChI=1S/H2O/h1H2
Compound 3: oxygen, O2, InChI=1S/O2/c1-2
Compound 4: bicyclo[5.3.0]deca-2,4,6,8,10-pentaene, C10H8, InChI=1S/C10H8/c1-2-5-9-7-4-8-10(9)6-3-1/h1-8H, purity 98%

System: bicyclo[5.3.0]deca-2,4,6,8,10-pentaene; phases: Crystal, Gas
Property: Molar enthalpy of vaporization or sublimation, kJ/mol (Crystal); method: Static calorimetry
Temperature, K	Molar enthalpy of vaporization or sublimation, kJ/mol	uncertainty
298.15	81.1	1.5

Reaction: -1 bicyclo[5.3.0]deca-2,4,6,8,10-pentaene + 10 carbon dioxide + 4 water + -12 oxygen
Property: Specific internal energy of reaction at constant volume, J/g
-41199.3
