Measured thermophysical data. Liquid-liquid equilibrium for methyl butyl ketone + o-, m-, p-cresol + water ternary systems and COSMO-SAC predictions
Source: J. Chem. Thermodyn., 2018, 10.1016/j.jct.2018.07.014
Compound 1: water, H2O, InChI=1S/H2O/h1H2, purity 99.8%
Compound 2: 2-hexanone, C6H12O, InChI=1S/C6H12O/c1-3-4-5-6(2)7/h3-5H2,1-2H3, purity 99%
Compound 3: 2-methylphenol, C7H8O, InChI=1S/C7H8O/c1-6-4-2-3-5-7(6)8/h2-5,8H,1H3, purity 99.5%
Compound 4: 3-methylphenol, C7H8O, InChI=1S/C7H8O/c1-6-3-2-4-7(8)5-6/h2-5,8H,1H3, purity 99.5%
Compound 5: 4-methylphenol, C7H8O, InChI=1S/C7H8O/c1-6-2-4-7(8)5-3-6/h2-5,8H,1H3, purity 99%
Compound 6: propyl ethanoate, C5H10O2, InChI=1S/C5H10O2/c1-3-4-7-5(2)6/h3-4H2,1-2H3, purity 99%
Compound 7: 1,3,5-trimethylbenzene, C9H12, InChI=1S/C9H12/c1-7-4-8(2)6-9(3)5-7/h4-6H,1-3H3, purity 99%

System: 2-hexanone; phases: Liquid
Property: Mass density, kg/m3 (Liquid); method: ARCHIM
Temperature, K	Pressure, kPa	Mass density, kg/m3	uncertainty
298.2	101.325	806.37	2.79

System: 2-methylphenol; phases: Liquid
Property: Mass density, kg/m3 (Liquid); method: ARCHIM
Temperature, K	Pressure, kPa	Mass density, kg/m3	uncertainty
323.2	101.325	1018.8	3.2

System: 3-methylphenol; phases: Liquid
Property: Mass density, kg/m3 (Liquid); method: ARCHIM
Temperature, K	Pressure, kPa	Mass density, kg/m3	uncertainty
323.2	101.325	1009.2	3.1

System: 4-methylphenol; phases: Liquid
Property: Mass density, kg/m3 (Liquid); method: ARCHIM
Temperature, K	Pressure, kPa	Mass density, kg/m3	uncertainty
323.2	101.325	1011.3	3.2

System: propyl ethanoate; phases: Liquid
Property: Mass density, kg/m3 (Liquid); method: ARCHIM
Temperature, K	Pressure, kPa	Mass density, kg/m3	uncertainty
298.2	101.325	881.51	2.91

System: 1,3,5-trimethylbenzene; phases: Liquid
Property: Mass density, kg/m3 (Liquid); method: ARCHIM
Temperature, K	Pressure, kPa	Mass density, kg/m3	uncertainty
298.2	101.325	859.7	2.88

System: 2-hexanone + 2-methylphenol + water; phases: Liquid mixture 2, Liquid mixture 1
Fixed: Pressure, kPa = 101
Property: Mole fraction of 2-methylphenol (Liquid mixture 2); method: Chromatography
Property: Mole fraction of 2-hexanone (Liquid mixture 1); method: Chromatography
Property: Mole fraction of 2-methylphenol (Liquid mixture 1); method: Chromatography
Temperature, K	Mole fraction of 2-hexanone	Mole fraction of 2-methylphenol	uncertainty	Mole fraction of 2-hexanone	uncertainty	Mole fraction of 2-methylphenol	uncertainty
333.2	0.67743	0.09122	0.0021	0.00178	0.00082	0.00011	
333.2	0.6219	0.12323	0.00218	0.00175	0.00082	0.00017	
333.2	0.57212	0.15138	0.00227	0.00172	0.00082	0.00024	
333.2	0.52688	0.17872	0.00237	0.00168	0.00082	0.00031	
333.2	0.485	0.20491	0.00247	0.00164	0.00082	0.00039	
333.2	0.43638	0.23438	0.0026	0.00157	0.00082	0.0005	
333.2	0.39987	0.25641	0.0027	0.00146	0.00082	0.00064	
333.2	0.32718	0.30147	0.00292	0.00133	0.00082	0.00086	
353.2	0.66236	0.08336	0.00209	0.00186	0.00082	0.00011	
353.2	0.60504	0.11619	0.00216	0.00183	0.00082	0.00018	
353.2	0.57482	0.13325	0.00221	0.00179	0.00082	0.00024	
353.2	0.50364	0.17609	0.00236	0.00173	0.00082	0.00039	
353.2	0.46116	0.19991	0.00245	0.00166	0.00082	0.00051	
353.2	0.41486	0.22896	0.00257	0.00158	0.00082	0.00068	
353.2	0.35971	0.25484	0.00269	0.00146	0.00082	0.00086	
353.2	0.30111	0.28953	0.00286	0.00132	0.00082	0.00108	
333.2	0.853	0		0.00196	0.00082	0	
353.2	0.836	0		0.00202	0.00082	0	

System: 2-hexanone + 3-methylphenol + water; phases: Liquid mixture 2, Liquid mixture 1
Fixed: Pressure, kPa = 101
Property: Mole fraction of 3-methylphenol (Liquid mixture 2); method: Chromatography
Property: Mole fraction of 2-hexanone (Liquid mixture 1); method: Chromatography
Property: Mole fraction of 3-methylphenol (Liquid mixture 1); method: Chromatography
Temperature, K	Mole fraction of 2-hexanone	Mole fraction of 3-methylphenol	uncertainty	Mole fraction of 2-hexanone	uncertainty	Mole fraction of 3-methylphenol	uncertainty
333.2	0.68808	0.0791	0.00208	0.00182	0.00082	9e-05	
333.2	0.64301	0.10113	0.00212	0.00179	0.00082	0.00013	
333.2	0.58946	0.13518	0.00222	0.00175	0.00082	0.0002	
333.2	0.53127	0.17381	0.00235	0.0017	0.00082	0.00028	
333.2	0.47066	0.21328	0.0025	0.00163	0.00082	0.00039	
333.2	0.4214	0.23672	0.00261	0.00151	0.00082	0.00055	
333.2	0.36905	0.27386	0.00278	0.00138	0.00082	0.00072	
333.2	0.30389	0.31685	0.003	0.00129	0.00082	0.00095	
353.2	0.66526	0.07707	0.00207	0.00193	0.00082	0.0001	
353.2	0.62887	0.0986	0.00212	0.0019	0.00082	0.00015	
353.2	0.57185	0.12827	0.0022	0.00184	0.00082	0.00024	
353.2	0.52214	0.1543	0.00228	0.00179	0.00082	0.00032	
353.2	0.4816	0.18284	0.00238	0.00171	0.00082	0.00045	
353.2	0.41152	0.22497	0.00256	0.00164	0.00082	0.00065	
353.2	0.36206	0.25235	0.00268	0.00152	0.00082	0.00084	
353.2	0.3063	0.28062	0.00282	0.00138	0.00082	0.0011	
333.2	0.853	0		0.00196	0.00082	0	
353.2	0.836	0		0.00202	0.00082	0	

System: 2-hexanone + 4-methylphenol + water; phases: Liquid mixture 2, Liquid mixture 1
Fixed: Pressure, kPa = 101
Property: Mole fraction of 4-methylphenol (Liquid mixture 2); method: Chromatography
Property: Mole fraction of 2-hexanone (Liquid mixture 1); method: Chromatography
Property: Mole fraction of 4-methylphenol (Liquid mixture 1); method: Chromatography
Temperature, K	Mole fraction of 2-hexanone	Mole fraction of 4-methylphenol	uncertainty	Mole fraction of 2-hexanone	uncertainty	Mole fraction of 4-methylphenol	uncertainty
333.2	0.66566	0.09181	0.0021	0.0018	0.00082	0.00011	
333.2	0.61863	0.1166	0.00216	0.00177	0.00082	0.00015	
333.2	0.55433	0.1572	0.00229	0.00172	0.00082	0.00023	
333.2	0.48291	0.20362	0.00246	0.00166	0.00082	0.00034	
333.2	0.42984	0.23925	0.00262	0.00159	0.00082	0.00046	
333.2	0.3892	0.2602	0.00272	0.00151	0.00082	0.00057	
333.2	0.34862	0.28137	0.00282	0.00144	0.00082	0.00071	
333.2	0.28872	0.31577	0.003	0.00127	0.00082	0.00092	
353.2	0.6694	0.07897	0.00208	0.00191	0.00082	0.0001	
353.2	0.61888	0.10706	0.00214	0.00188	0.00082	0.00016	
353.2	0.55612	0.1371	0.00222	0.00183	0.00082	0.00024	
353.2	0.48101	0.18299	0.00238	0.00174	0.00082	0.00039	
353.2	0.42017	0.22114	0.00254	0.00162	0.00082	0.00062	
353.2	0.36905	0.25044	0.00267	0.0015	0.00082	0.00077	
353.2	0.32143	0.27188	0.00277	0.00139	0.00082	0.00091	
353.2	0.27274	0.30174	0.00292	0.00131	0.00082	0.00112	
333.2	0.853	0		0.00196	0.00082	0	
353.2	0.836	0		0.00202	0.00082	0	

System: 2-hexanone + water; phases: Liquid mixture 2, Liquid mixture 1
Fixed: Pressure, kPa = 101
Property: Mole fraction of 2-hexanone (Liquid mixture 2); method: Chromatography
Temperature, K	Mole fraction of 2-hexanone	uncertainty
333.2	0.853	0.019
353.2	0.836	0.019

System: 2-hexanone + water; phases: Liquid mixture 1, Liquid mixture 2
Fixed: Pressure, kPa = 101
Property: Mole fraction of 2-hexanone (Liquid mixture 1); method: Chromatography
Temperature, K	Mole fraction of 2-hexanone	uncertainty
333.2	0.00196	0.00082
353.2	0.00202	0.00082
