Measured thermophysical data. (Vapor + liquid) equilibria of the binary mixtures of m-cresol with C1 C4 aliphatic alcohols at 95.5 kPa
Source: J. Chem. Thermodyn., 2006, 10.1016/j.jct.2006.03.006
Compound 1: 3-methylphenol, C7H8O, InChI=1S/C7H8O/c1-6-3-2-4-7(8)5-6/h2-5,8H,1H3
Compound 2: methanol, CH4O, InChI=1S/CH4O/c1-2/h2H,1H3
Compound 3: ethanol, C2H6O, InChI=1S/C2H6O/c1-2-3/h3H,2H2,1H3
Compound 4: propan-1-ol, C3H8O, InChI=1S/C3H8O/c1-2-3-4/h4H,2-3H2,1H3
Compound 5: propan-2-ol, C3H8O, InChI=1S/C3H8O/c1-3(2)4/h3-4H,1-2H3
Compound 6: butan-1-ol, C4H10O, InChI=1S/C4H10O/c1-2-3-4-5/h5H,2-4H2,1H3
Compound 7: 2-methyl-1-propanol, C4H10O, InChI=1S/C4H10O/c1-4(2)3-5/h4-5H,3H2,1-2H3
Compound 8: butan-2-ol, C4H10O, InChI=1S/C4H10O/c1-3-4(2)5/h4-5H,3H2,1-2H3
Compound 9: 2-methylpropan-2-ol, C4H10O, InChI=1S/C4H10O/c1-4(2,3)5/h5H,1-3H3

System: 3-methylphenol; phases: Liquid
Property: Refractive index (Na D-line) (Liquid); method: Standard Abbe refractometry
Temperature, K	Pressure, kPa	Refractive index (Na D-line)	uncertainty
298.15	101.325	1.5395	0.0012

System: 3-methylphenol; phases: Liquid
Property: Mass density, kg/m3 (Liquid); method: Pycnometric method
Temperature, K	Pressure, kPa	Mass density, kg/m3	uncertainty
298.15	101.325	1030	7.7

System: 3-methylphenol; phases: Liquid, Gas
Property: Vapor or sublimation pressure, kPa (Liquid); method: EBULLIO:UFactor:8
Temperature, K	Vapor or sublimation pressure, kPa	uncertainty
473.75	95.5	5

System: methanol; phases: Liquid
Property: Refractive index (Na D-line) (Liquid); method: Standard Abbe refractometry
Temperature, K	Pressure, kPa	Refractive index (Na D-line)	uncertainty
298.15	101.325	1.3265	0.0012

System: methanol; phases: Liquid
Property: Mass density, kg/m3 (Liquid); method: Pycnometric method
Temperature, K	Pressure, kPa	Mass density, kg/m3	uncertainty
298.15	101.325	786.4	4.6

System: methanol; phases: Liquid, Gas
Property: Vapor or sublimation pressure, kPa (Liquid); method: EBULLIO:UFactor:8
Temperature, K	Vapor or sublimation pressure, kPa	uncertainty
336.25	95.5	5

System: ethanol; phases: Liquid
Property: Refractive index (Na D-line) (Liquid); method: Standard Abbe refractometry
Temperature, K	Pressure, kPa	Refractive index (Na D-line)	uncertainty
298.15	101.325	1.3594	0.0012

System: ethanol; phases: Liquid
Property: Mass density, kg/m3 (Liquid); method: Pycnometric method
Temperature, K	Pressure, kPa	Mass density, kg/m3	uncertainty
298.15	101.325	784.9	4.5

System: ethanol; phases: Liquid, Gas
Property: Vapor or sublimation pressure, kPa (Liquid); method: EBULLIO:UFactor:8
Temperature, K	Vapor or sublimation pressure, kPa	uncertainty
349.95	95.5	5

System: propan-1-ol; phases: Liquid
Property: Refractive index (Na D-line) (Liquid); method: Standard Abbe refractometry
Temperature, K	Pressure, kPa	Refractive index (Na D-line)	uncertainty
298.15	101.325	1.3837	0.0012

System: propan-1-ol; phases: Liquid
Property: Mass density, kg/m3 (Liquid); method: Pycnometric method
Temperature, K	Pressure, kPa	Mass density, kg/m3	uncertainty
298.15	101.325	799.6	4.7

System: propan-1-ol; phases: Liquid, Gas
Property: Vapor or sublimation pressure, kPa (Liquid); method: EBULLIO:UFactor:8
Temperature, K	Vapor or sublimation pressure, kPa	uncertainty
368.85	95.5	5

System: propan-2-ol; phases: Liquid
Property: Refractive index (Na D-line) (Liquid); method: Standard Abbe refractometry
Temperature, K	Pressure, kPa	Refractive index (Na D-line)	uncertainty
298.15	101.325	1.3752	0.0012

System: propan-2-ol; phases: Liquid
Property: Mass density, kg/m3 (Liquid); method: Pycnometric method
Temperature, K	Pressure, kPa	Mass density, kg/m3	uncertainty
298.15	101.325	781.3	4.5

System: propan-2-ol; phases: Liquid, Gas
Property: Vapor or sublimation pressure, kPa (Liquid); method: EBULLIO:UFactor:8
Temperature, K	Vapor or sublimation pressure, kPa	uncertainty
355.05	95.5	5

System: butan-1-ol; phases: Liquid
Property: Refractive index (Na D-line) (Liquid); method: Standard Abbe refractometry
Temperature, K	Pressure, kPa	Refractive index (Na D-line)	uncertainty
298.15	101.325	1.3974	0.0012

System: butan-1-ol; phases: Liquid
Property: Mass density, kg/m3 (Liquid); method: Pycnometric method
Temperature, K	Pressure, kPa	Mass density, kg/m3	uncertainty
298.15	101.325	805.8	4.8

System: butan-1-ol; phases: Liquid, Gas
Property: Vapor or sublimation pressure, kPa (Liquid); method: EBULLIO:UFactor:8
Temperature, K	Vapor or sublimation pressure, kPa	uncertainty
389.35	95.5	5

System: 2-methyl-1-propanol; phases: Liquid
Property: Refractive index (Na D-line) (Liquid); method: Standard Abbe refractometry
Temperature, K	Pressure, kPa	Refractive index (Na D-line)	uncertainty
298.15	101.325	1.3939	0.0012

System: 2-methyl-1-propanol; phases: Liquid
Property: Mass density, kg/m3 (Liquid); method: Pycnometric method
Temperature, K	Pressure, kPa	Mass density, kg/m3	uncertainty
298.15	101.325	797.8	4.7

System: 2-methyl-1-propanol; phases: Liquid, Gas
Property: Vapor or sublimation pressure, kPa (Liquid); method: EBULLIO:UFactor:8
Temperature, K	Vapor or sublimation pressure, kPa	uncertainty
379.65	95.5	5

System: butan-2-ol; phases: Liquid
Property: Refractive index (Na D-line) (Liquid); method: Standard Abbe refractometry
Temperature, K	Pressure, kPa	Refractive index (Na D-line)	uncertainty
298.15	101.325	1.3953	0.0012

System: butan-2-ol; phases: Liquid
Property: Mass density, kg/m3 (Liquid); method: Pycnometric method
Temperature, K	Pressure, kPa	Mass density, kg/m3	uncertainty
298.15	101.325	802.4	4.7

System: butan-2-ol; phases: Liquid, Gas
Property: Vapor or sublimation pressure, kPa (Liquid); method: EBULLIO:UFactor:8
Temperature, K	Vapor or sublimation pressure, kPa	uncertainty
371.26	95.5	5

System: 2-methylpropan-2-ol; phases: Liquid
Property: Refractive index (Na D-line) (Liquid); method: Standard Abbe refractometry
Temperature, K	Pressure, kPa	Refractive index (Na D-line)	uncertainty
298.15	101.325	1.3852	0.0012

System: 2-methylpropan-2-ol; phases: Liquid
Property: Mass density, kg/m3 (Liquid); method: Pycnometric method
Temperature, K	Pressure, kPa	Mass density, kg/m3	uncertainty
298.15	101.325	781.2	4.5

System: 2-methylpropan-2-ol; phases: Liquid, Gas
Property: Vapor or sublimation pressure, kPa (Liquid); method: EBULLIO:UFactor:8
Temperature, K	Vapor or sublimation pressure, kPa	uncertainty
354.15	95.5	5

System: methanol + 3-methylphenol; phases: Liquid, Gas
Fixed: Pressure, kPa = 95.5
Property: Boiling temperature at pressure P, K (Liquid); method: EBULLIO:UFactor:8
Mole fraction of methanol	Boiling temperature at pressure P, K	uncertainty
0	473.75	0.71
0.0864	458.05	0.71
0.1765	437.05	0.71
0.2343	423.65	0.71
0.3002	409.45	0.71
0.3808	394.35	0.71
0.4616	381.65	0.71
0.5911	365.25	0.71
0.7208	352.75	0.71
0.7605	349.55	0.71
0.8377	343.55	0.71
0.8887	340.95	0.71
0.9393	338.35	0.71
1	336.25	0.71

System: ethanol + 3-methylphenol; phases: Liquid, Gas
Fixed: Pressure, kPa = 95.5
Property: Boiling temperature at pressure P, K (Liquid); method: EBULLIO:UFactor:8
Mole fraction of ethanol	Boiling temperature at pressure P, K	uncertainty
0	473.75	0.71
0.0602	462.05	0.71
0.1145	449.95	0.71
0.2298	424.15	0.71
0.3005	410.35	0.71
0.3734	398.25	0.71
0.472	384.95	0.71
0.5612	375.35	0.71
0.6417	368.25	0.71
0.7105	363.15	0.71
0.7818	358.85	0.71
0.9148	352.65	0.71
0.9504	351.45	0.71
1	349.95	0.71

System: propan-1-ol + 3-methylphenol; phases: Liquid, Gas
Fixed: Pressure, kPa = 95.5
Property: Boiling temperature at pressure P, K (Liquid); method: EBULLIO:UFactor:8
Mole fraction of propan-1-ol	Boiling temperature at pressure P, K	uncertainty
0	473.75	0.71
0.0752	463.65	0.71
0.1571	454.05	0.71
0.2102	448.45	0.71
0.271	442.35	0.71
0.3604	433.85	0.71
0.4562	425.25	0.71
0.5512	416.65	0.71
0.6365	408.95	0.71
0.7002	402.85	0.71
0.7779	395.05	0.71
0.8504	387.05	0.71
0.913	379.25	0.71
1	368.85	0.71

System: propan-2-ol + 3-methylphenol; phases: Liquid, Gas
Fixed: Pressure, kPa = 95.5
Property: Boiling temperature at pressure P, K (Liquid); method: EBULLIO:UFactor:8
Mole fraction of propan-2-ol	Boiling temperature at pressure P, K	uncertainty
0	473.75	0.71
0.0751	459.55	0.71
0.1542	447.95	0.71
0.2081	441.15	0.71
0.2672	434.45	0.71
0.3505	425.95	0.71
0.4507	416.35	0.71
0.5615	406.25	0.71
0.6312	399.85	0.71
0.7005	393.15	0.71
0.7738	385.65	0.71
0.9112	368.55	0.71
0.9611	360.35	0.71
1	355.05	0.71

System: butan-1-ol + 3-methylphenol; phases: Liquid, Gas
Fixed: Pressure, kPa = 95.5
Property: Boiling temperature at pressure P, K (Liquid); method: EBULLIO:UFactor:8
Mole fraction of butan-1-ol	Boiling temperature at pressure P, K	uncertainty
0	473.75	0.71
0.0703	469.35	0.71
0.1332	465.45	0.71
0.2208	459.75	0.71
0.3137	453.45	0.71
0.3925	448.05	0.71
0.4775	441.75	0.71
0.5552	435.65	0.71
0.6315	429.25	0.71
0.6903	423.95	0.71
0.7407	419.05	0.71
0.8405	408.25	0.71
0.9448	394.95	0.71
1	389.35	0.71

System: 2-methyl-1-propanol + 3-methylphenol; phases: Liquid, Gas
Fixed: Pressure, kPa = 95.5
Property: Boiling temperature at pressure P, K (Liquid); method: EBULLIO:UFactor:8
Mole fraction of 2-methyl-1-propanol	Boiling temperature at pressure P, K	uncertainty
0	473.75	0.71
0.0802	452.45	0.71
0.1585	437.05	0.71
0.2113	428.75	0.71
0.2737	420.65	0.71
0.3212	415.25	0.71
0.4298	405.65	0.71
0.5525	397.35	0.71
0.6935	390.15	0.71
0.7852	386.55	0.71
0.8716	383.35	0.71
0.9011	382.35	0.71
0.9314	381.55	0.71
1	379.65	0.71

System: butan-2-ol + 3-methylphenol; phases: Liquid, Gas
Fixed: Pressure, kPa = 95.5
Property: Boiling temperature at pressure P, K (Liquid); method: EBULLIO:UFactor:8
Mole fraction of butan-2-ol	Boiling temperature at pressure P, K	uncertainty
0	473.75	0.71
0.0803	453.25	0.71
0.1594	438.75	0.71
0.2522	425.95	0.71
0.3626	413.95	0.71
0.4221	408.45	0.71
0.4867	402.95	0.71
0.5881	395.25	0.71
0.6948	387.85	0.71
0.7812	382.25	0.71
0.8723	376.95	0.71
0.9002	375.45	0.71
0.9318	373.85	0.71
1	371.26	0.71

System: 2-methylpropan-2-ol + 3-methylphenol; phases: Liquid, Gas
Fixed: Pressure, kPa = 95.5
Property: Boiling temperature at pressure P, K (Liquid); method: EBULLIO:UFactor:8
Mole fraction of 2-methylpropan-2-ol	Boiling temperature at pressure P, K	uncertainty
0	473.75	0.71
0.1003	471.85	0.71
0.1559	463.85	0.71
0.2552	439.15	0.71
0.3566	413.75	0.71
0.4052	403.75	0.71
0.4539	395.15	0.71
0.5725	379.45	0.71
0.689	368.85	0.71
0.7721	363.35	0.71
0.8694	358.55	0.71
0.9011	357.25	0.71
0.9301	356.25	0.71
1	354.15	0.71
