Measured thermophysical data. Experimental and computational study on the energetics of N-acetyl-L-cysteine
Source: J. Chem. Thermodyn., 2014, 10.1016/j.jct.2013.08.026
Compound 1: sulfuric acid, H2O4S, InChI=1S/H2O4S/c1-5(2,3)4/h(H2,1,2,3,4)
Compound 2: carbon dioxide, CO2, InChI=1S/CO2/c2-1-3
Compound 3: nitrogen, N2, InChI=1S/N2/c1-2
Compound 4: water, H2O, InChI=1S/H2O/h1H2
Compound 5: oxygen, O2, InChI=1S/O2/c1-2
Compound 6: N-acetyl-L-cysteine, C5H9NO3S, InChI=1S/C5H9NO3S/c1-3(7)6-4(2-10)5(8)9/h4,10H,2H2,1H3,(H,6,7)(H,8,9)/t4-/m0/s1, purity 99%

Reaction: -1 N-acetyl-L-cysteine + 1 sulfuric acid + 5 carbon dioxide + .5 nitrogen + 3.5 water + -7.25 oxygen
Property: Specific internal energy of reaction at constant volume, J/g
-19079.4
