Measured thermophysical data. Excess molar volume and viscosity deviation for binary mixtures of polyethylene glycol dimethyl ether 250 with 1,2-alkanediols (C3 C6) at T = (293.15 to 323.15) K
Source: J. Chem. Thermodyn., 2008, 10.1016/j.jct.2008.01.022
Compound 1: 1,2-propanediol, C3H8O2, InChI=1S/C3H8O2/c1-3(5)2-4/h3-5H,2H2,1H3
Compound 2: 1,2-butanediol, C4H10O2, InChI=1S/C4H10O2/c1-2-4(6)3-5/h4-6H,2-3H2,1H3
Compound 3: 1,2-pentanediol, C5H12O2, InChI=1S/C5H12O2/c1-2-3-5(7)4-6/h5-7H,2-4H2,1H3
Compound 4: 1,2-hexanediol, C6H14O2, InChI=1S/C6H14O2/c1-2-3-4-6(8)5-7/h6-8H,2-5H2,1H3

System: 1,2-propanediol; phases: Liquid
Fixed: Pressure, kPa = 101.325
Property: Viscosity, Pa*s (Liquid); method: Capillary tube (Ostwald; Ubbelohde) method
Temperature, K	Viscosity, Pa*s	uncertainty
293.15	0.05621	0.00032
303.15	0.03263	0.00024
313.15	0.01958	0.00015
323.15	0.01279	0.0001

System: 1,2-propanediol; phases: Liquid
Fixed: Pressure, kPa = 101.325
Property: Mass density, kg/m3 (Liquid); method: VIBTUB:UFactor:6
Temperature, K	Mass density, kg/m3	uncertainty
293.15	1036.3	0.6
303.15	1028.92	0.58
313.15	1021.39	0.57
323.15	1013.7	0.56

System: 1,2-butanediol; phases: Liquid
Fixed: Pressure, kPa = 101.325
Property: Viscosity, Pa*s (Liquid); method: Capillary tube (Ostwald; Ubbelohde) method
Temperature, K	Viscosity, Pa*s	uncertainty
293.15	0.07187	0.00069
303.15	0.03786	0.00028
313.15	0.02149	0.00016
323.15	0.01312	0.0001

System: 1,2-butanediol; phases: Liquid
Fixed: Pressure, kPa = 101.325
Property: Mass density, kg/m3 (Liquid); method: VIBTUB:UFactor:6
Temperature, K	Mass density, kg/m3	uncertainty
293.15	1002.43	0.54
303.15	994.98	0.54
313.15	987.39	0.55
323.15	979.64	0.56

System: 1,2-pentanediol; phases: Liquid
Fixed: Pressure, kPa = 101.325
Property: Viscosity, Pa*s (Liquid); method: Capillary tube (Ostwald; Ubbelohde) method
Temperature, K	Viscosity, Pa*s	uncertainty
293.15	0.07696	0.00206
303.15	0.03916	0.001
313.15	0.02252	0.00058
323.15	0.01366	0.00035

System: 1,2-pentanediol; phases: Liquid
Fixed: Pressure, kPa = 101.325
Property: Mass density, kg/m3 (Liquid); method: Vibrating tube method
Temperature, K	Mass density, kg/m3	uncertainty
293.15	970.35	5.09
303.15	963.07	5.02
313.15	955.65	4.95
323.15	948.12	4.87

System: 1,2-hexanediol; phases: Liquid
Fixed: Pressure, kPa = 101.325
Property: Viscosity, Pa*s (Liquid); method: Capillary tube (Ostwald; Ubbelohde) method
Temperature, K	Viscosity, Pa*s	uncertainty
293.15	0.08341	0.00157
303.15	0.04225	0.00067
313.15	0.02412	0.00039
323.15	0.01479	0.00024

System: 1,2-hexanediol; phases: Liquid
Fixed: Pressure, kPa = 101.325
Property: Mass density, kg/m3 (Liquid); method: VIBTUB:UFactor:12
Temperature, K	Mass density, kg/m3	uncertainty
293.15	951.86	2.28
303.15	944.66	2.29
313.15	937.34	2.3
323.15	929.9	2.31
