Measured thermophysical data. Thermodynamics of complexation of aqueous 18-crown-6 with barium ion: apparent molar volumes and apparent molar heat capacities of aqueous (18-crown-6 + barium nitrate) at temperatures (278.15 to 393.15) K, at molalities (0.02 to 0.33) mol.kg-1, and at the pressure 0.35 MPa
Source: J. Chem. Thermodyn., 2005, 10.1016/j.jct.2005.01.001
Compound 1: 1,4,7,10,13,16-hexaoxacyclooctadecane, C12H24O6, InChI=1S/C12H24O6/c1-2-14-5-6-16-9-10-18-12-11-17-8-7-15-4-3-13-1/h1-12H2, purity 99.9%
Compound 2: barium dinitrate, BaN2O6, InChI=1S/Ba.2NO3/c;2*2-1(3)4/q+2;2*-1, purity 99.999%
Compound 3: water, H2O, InChI=1S/H2O/h1H2

System: water + barium dinitrate + 1,4,7,10,13,16-hexaoxacyclooctadecane; phases: Liquid
Fixed: Pressure, kPa = 350
Property: Apparent molar heat capacity, J/K/mol (Liquid); method: XDSC:UFactor:0.5
Temperature, K	Molality, mol/kg of 1,4,7,10,13,16-hexaoxacyclooctadecane	Molality, mol/kg of barium dinitrate	Apparent molar heat capacity, J/K/mol	uncertainty
278.15	0.02084	0.02088	711	25
278.15	0.0305	0.03055	735	17
278.15	0.04187	0.0419	733.9	13
278.15	0.04954	0.0496	731.4	11.2
278.15	0.05904	0.0591	691.5	9.5
278.15	0.07926	0.0794	738.7	7.4
278.15	0.1018	0.1019	738.1	6
278.15	0.1499	0.1508	728.6	4.4
278.15	0.2507	0.2522	745.9	3.1
278.15	0.3322	0.3342	746.7	2.6
283.15	0.02084	0.02088	753	25
283.15	0.0305	0.03055	773	18
283.15	0.04187	0.0419	770.8	13.1
283.15	0.04954	0.0496	768.3	11.2
283.15	0.05904	0.0591	731.6	9.6
283.15	0.07926	0.0794	774.9	7.5
283.15	0.1018	0.1019	773.3	6.1
283.15	0.1499	0.1508	760.5	4.5
283.15	0.2507	0.2522	775.4	3.2
283.15	0.3322	0.3342	774.9	2.7
288.15	0.02084	0.02088	781	25
288.15	0.0305	0.03055	799	18
288.15	0.04187	0.0419	795.8	13.1
288.15	0.04954	0.0496	792.7	11.3
288.15	0.05904	0.0591	758.6	9.6
288.15	0.07926	0.0794	799.5	7.5
288.15	0.1018	0.1019	797.1	6.1
288.15	0.1499	0.1508	783.7	4.5
288.15	0.2507	0.2522	796.8	3.2
288.15	0.3322	0.3342	795.5	2.7
293.15	0.02084	0.02088	799	25
293.15	0.0305	0.03055	817	18
293.15	0.04187	0.0419	813.3	13.2
293.15	0.04954	0.0496	810.7	11.3
293.15	0.05904	0.0591	777.7	9.6
293.15	0.07926	0.0794	817	7.5
293.15	0.1018	0.1019	814.3	6.1
293.15	0.1499	0.1508	800.7	4.5
293.15	0.2507	0.2522	812.9	3.2
293.15	0.3322	0.3342	811	2.7
298.15	0.02084	0.02088	814	25
298.15	0.0305	0.03055	830	18
298.15	0.04187	0.0419	825.9	13.2
298.15	0.04954	0.0496	823.8	11.3
298.15	0.05904	0.0591	792.3	9.7
298.15	0.07926	0.0794	830.3	7.5
298.15	0.1018	0.1019	827.2	6.2
298.15	0.1499	0.1508	813.9	4.5
298.15	0.2507	0.2522	825.2	3.2
298.15	0.3322	0.3342	822.9	2.7
303.15	0.02084	0.02088	825	25
303.15	0.0305	0.03055	841	18
303.15	0.04187	0.0419	835.9	13.2
303.15	0.04954	0.0496	833.7	11.3
303.15	0.05904	0.0591	804.2	9.7
303.15	0.07926	0.0794	841.1	7.6
303.15	0.1018	0.1019	837.4	6.2
303.15	0.1499	0.1508	824	4.6
303.15	0.2507	0.2522	835	3.2
303.15	0.3322	0.3342	832.5	2.8
308.15	0.02084	0.02088	833	25
308.15	0.0305	0.03055	848	18
308.15	0.04187	0.0419	842.9	13.2
308.15	0.04954	0.0496	841.1	11.3
308.15	0.05904	0.0591	813.1	9.7
308.15	0.07926	0.0794	849.4	7.6
308.15	0.1018	0.1019	845.3	6.2
308.15	0.1499	0.1508	831.8	4.6
308.15	0.2507	0.2522	842.6	3.3
308.15	0.3322	0.3342	840	2.8
313.15	0.02084	0.02088	841	25
313.15	0.0305	0.03055	855	18
313.15	0.04187	0.0419	848.9	13.2
313.15	0.04954	0.0496	847.3	11.4
313.15	0.05904	0.0591	820.4	9.7
313.15	0.07926	0.0794	856.1	7.6
313.15	0.1018	0.1019	851.7	6.2
313.15	0.1499	0.1508	838.3	4.6
313.15	0.2507	0.2522	848.9	3.3
313.15	0.3322	0.3342	846.3	2.8
318.15	0.02084	0.02088	847	25
318.15	0.0305	0.03055	859	18
318.15	0.04187	0.0419	853.6	13.2
318.15	0.04954	0.0496	852.3	11.4
318.15	0.05904	0.0591	825.9	9.7
318.15	0.07926	0.0794	861.3	7.6
318.15	0.1018	0.1019	856.7	6.2
318.15	0.1499	0.1508	843.4	4.6
318.15	0.2507	0.2522	854.1	3.3
318.15	0.3322	0.3342	851.4	2.8
323.15	0.02084	0.02088	852	25
323.15	0.0305	0.03055	865	18
323.15	0.04187	0.0419	859.3	13.2
323.15	0.04954	0.0496	857.5	11.4
323.15	0.05904	0.0591	830.5	9.7
323.15	0.07926	0.0794	865.8	7.6
323.15	0.1018	0.1019	861	6.2
323.15	0.1499	0.1508	847.6	4.6
323.15	0.2507	0.2522	858.2	3.3
323.15	0.3322	0.3342	855.5	2.8
328.15	0.02084	0.02088	857	25
328.15	0.0305	0.03055	870	18
328.15	0.04187	0.0419	863.5	13.2
328.15	0.04954	0.0496	862	11.4
328.15	0.05904	0.0591	834	9.7
328.15	0.07926	0.0794	869.3	7.6
328.15	0.1018	0.1019	864.6	6.2
328.15	0.1499	0.1508	851.1	4.6
328.15	0.2507	0.2522	861.8	3.3
328.15	0.3322	0.3342	859.2	2.8
333.15	0.02084	0.02088	862	25
333.15	0.0305	0.03055	875	18
333.15	0.04187	0.0419	868.5	13.2
333.15	0.04954	0.0496	866.8	11.4
333.15	0.05904	0.0591	837.3	9.7
333.15	0.07926	0.0794	872.5	7.6
333.15	0.1018	0.1019	868	6.2
333.15	0.1499	0.1508	854.4	4.6
333.15	0.2507	0.2522	865.2	3.3
333.15	0.3322	0.3342	862.6	2.8
338.15	0.02084	0.02088	866	25
338.15	0.0305	0.03055	879	18
338.15	0.04187	0.0419	872.5	13.2
338.15	0.04954	0.0496	870.8	11.4
338.15	0.05904	0.0591	839.9	9.7
338.15	0.07926	0.0794	875.1	7.6
338.15	0.1018	0.1019	870.8	6.2
338.15	0.1499	0.1508	857.5	4.6
338.15	0.2507	0.2522	868.4	3.3
338.15	0.3322	0.3342	866	2.8
343.15	0.02084	0.02088	869	25
343.15	0.0305	0.03055	883	18
343.15	0.04187	0.0419	876.1	13.3
343.15	0.04954	0.0496	874.2	11.4
343.15	0.05904	0.0591	842.3	9.7
343.15	0.07926	0.0794	877.5	7.6
343.15	0.1018	0.1019	873.2	6.2
343.15	0.1499	0.1508	859.8	4.6
343.15	0.2507	0.2522	870.8	3.3
343.15	0.3322	0.3342	868.3	2.8
348.15	0.02084	0.02088	873	25
348.15	0.0305	0.03055	886	18
348.15	0.04187	0.0419	879	13.3
348.15	0.04954	0.0496	877.4	11.4
348.15	0.05904	0.0591	844.2	9.7
348.15	0.07926	0.0794	879.4	7.6
348.15	0.1018	0.1019	875.2	6.2
348.15	0.1499	0.1508	862.1	4.6
348.15	0.2507	0.2522	873.1	3.3
348.15	0.3322	0.3342	870.8	2.8
353.15	0.02084	0.02088	876	25
353.15	0.0305	0.03055	889	18
353.15	0.04187	0.0419	881.9	13.3
353.15	0.04954	0.0496	880.3	11.4
353.15	0.05904	0.0591	846	9.7
353.15	0.07926	0.0794	881.6	7.6
353.15	0.1018	0.1019	877.4	6.2
353.15	0.1499	0.1508	863.9	4.6
353.15	0.2507	0.2522	875.1	3.3
353.15	0.3322	0.3342	872.9	2.8
358.15	0.02084	0.02088	877	25
358.15	0.0305	0.03055	891	18
358.15	0.04187	0.0419	884.9	13.3
358.15	0.04954	0.0496	883	11.4
358.15	0.05904	0.0591	848.3	9.7
358.15	0.07926	0.0794	883.7	7.6
358.15	0.1018	0.1019	879.6	6.2
358.15	0.1499	0.1508	865.9	4.6
358.15	0.2507	0.2522	877.4	3.3
358.15	0.3322	0.3342	875.3	2.8
363.15	0.02084	0.02088	880	25
363.15	0.0305	0.03055	893	18
363.15	0.04187	0.0419	887.4	13.3
363.15	0.04954	0.0496	885.2	11.4
363.15	0.05904	0.0591	849.9	9.7
363.15	0.07926	0.0794	885.2	7.6
363.15	0.1018	0.1019	881.4	6.2
363.15	0.1499	0.1508	867.9	4.6
363.15	0.2507	0.2522	879.5	3.3
363.15	0.3322	0.3342	877.7	2.8
368.15	0.02084	0.02088	881	25
368.15	0.0305	0.03055	895	18
368.15	0.04187	0.0419	888.7	13.3
368.15	0.04954	0.0496	887.1	11.4
368.15	0.05904	0.0591	851	9.7
368.15	0.07926	0.0794	886.5	7.6
368.15	0.1018	0.1019	882.7	6.2
368.15	0.1499	0.1508	869.1	4.6
368.15	0.2507	0.2522	881.1	3.3
368.15	0.3322	0.3342	879.4	2.8
373.15	0.02084	0.02088	883	25
373.15	0.0305	0.03055	896	18
373.15	0.04187	0.0419	889.8	13.3
373.15	0.04954	0.0496	888.1	11.4
373.15	0.05904	0.0591	851.9	9.7
373.15	0.07926	0.0794	887.5	7.6
373.15	0.1018	0.1019	883.8	6.2
373.15	0.1499	0.1508	870.7	4.6
373.15	0.2507	0.2522	882.8	3.3
373.15	0.3322	0.3342	881.4	2.8
378.15	0.02084	0.02088	883	25
378.15	0.0305	0.03055	895	18
378.15	0.04187	0.0419	888.7	13.3
378.15	0.04954	0.0496	888.5	11.4
378.15	0.05904	0.0591	852.2	9.7
378.15	0.07926	0.0794	887.8	7.6
378.15	0.1018	0.1019	884.2	6.2
378.15	0.1499	0.1508	871.5	4.6
378.15	0.2507	0.2522	884.3	3.3
378.15	0.3322	0.3342	883.1	2.8
383.15	0.02084	0.02088	881	25
383.15	0.0305	0.03055	895	18
383.15	0.04187	0.0419	888	13.3
383.15	0.04954	0.0496	889	11.4
383.15	0.05904	0.0591	852	9.7
383.15	0.07926	0.0794	887.8	7.6
383.15	0.1018	0.1019	884.4	6.2
383.15	0.1499	0.1508	872.4	4.6
383.15	0.2507	0.2522	885.6	3.3
383.15	0.3322	0.3342	884.7	2.8
388.15	0.02084	0.02088	880	25
388.15	0.0305	0.03055	892	18
388.15	0.04187	0.0419	886.4	13.3
388.15	0.04954	0.0496	888.4	11.4
388.15	0.05904	0.0591	851.3	9.7
388.15	0.07926	0.0794	887.3	7.6
388.15	0.1018	0.1019	883.8	6.2
388.15	0.1499	0.1508	873	4.6
388.15	0.2507	0.2522	886.8	3.3
388.15	0.3322	0.3342	886.3	2.8
393.15	0.02084	0.02088	877	25
393.15	0.0305	0.03055	888	18
393.15	0.04187	0.0419	883.7	13.3
393.15	0.04954	0.0496	887.6	11.4
393.15	0.05904	0.0591	849.9	9.7
393.15	0.07926	0.0794	886.3	7.6
393.15	0.1018	0.1019	882.1	6.2
393.15	0.1499	0.1508	873.7	4.6
393.15	0.2507	0.2522	888.3	3.3
393.15	0.3322	0.3342	888.2	2.8

System: water + barium dinitrate + 1,4,7,10,13,16-hexaoxacyclooctadecane; phases: Liquid
Fixed: Pressure, kPa = 350
Property: Apparent molar volume, m3/mol (Liquid); method: Calculated with densities of this investigation
Temperature, K	Molality, mol/kg of 1,4,7,10,13,16-hexaoxacyclooctadecane	Molality, mol/kg of barium dinitrate	Apparent molar volume, m3/mol	uncertainty
278.15	0.02084	0.02088	0.0002816	5.7e-06
278.15	0.0305	0.03055	0.0002776	3.9e-06
278.15	0.04187	0.0419	0.0002782	2.8e-06
278.15	0.04954	0.0496	0.0002814	2.4e-06
278.15	0.05904	0.0591	0.0002775	2e-06
278.15	0.07926	0.0794	0.00028446	1.55e-06
278.15	0.1018	0.1019	0.0002801	1.2e-06
278.15	0.1499	0.1508	0.00028335	8.3e-07
278.15	0.2507	0.2522	0.0002855	5.1e-07
278.15	0.3322	0.3342	0.00028586	3.9e-07
283.15	0.02084	0.02088	0.0002835	5.8e-06
283.15	0.0305	0.03055	0.0002813	3.9e-06
283.15	0.04187	0.0419	0.0002815	2.9e-06
283.15	0.04954	0.0496	0.0002852	2.5e-06
283.15	0.05904	0.0591	0.0002809	2e-06
283.15	0.07926	0.0794	0.00028553	1.56e-06
283.15	0.1018	0.1019	0.0002828	1.2e-06
283.15	0.1499	0.1508	0.00028603	8.4e-07
283.15	0.2507	0.2522	0.00028779	5.2e-07
283.15	0.3322	0.3342	0.00028829	4e-07
288.15	0.02084	0.02088	0.0002847	5.8e-06
288.15	0.0305	0.03055	0.0002841	4e-06
288.15	0.04187	0.0419	0.0002842	2.9e-06
288.15	0.04954	0.0496	0.0002876	2.5e-06
288.15	0.05904	0.0591	0.0002838	2.1e-06
288.15	0.07926	0.0794	0.00028744	1.57e-06
288.15	0.1018	0.1019	0.00028504	1.22e-06
288.15	0.1499	0.1508	0.00028819	8.4e-07
288.15	0.2507	0.2522	0.00028956	5.2e-07
288.15	0.3322	0.3342	0.00029037	4e-07
298.15	0.02084	0.02088	0.0002891	5.9e-06
298.15	0.0305	0.03055	0.0002893	4.1e-06
298.15	0.04187	0.0419	0.0002885	3e-06
298.15	0.04954	0.0496	0.0002911	2.5e-06
298.15	0.05904	0.0591	0.0002881	2.1e-06
298.15	0.07926	0.0794	0.00029125	1.59e-06
298.15	0.1018	0.1019	0.00028891	1.24e-06
298.15	0.1499	0.1508	0.00029164	8.6e-07
298.15	0.2507	0.2522	0.00029271	5.3e-07
298.15	0.3322	0.3342	0.00029332	4.1e-07
308.15	0.02084	0.02088	0.0002921	6e-06
308.15	0.0305	0.03055	0.0002937	4.1e-06
308.15	0.04187	0.0419	0.0002927	3e-06
308.15	0.04954	0.0496	0.0002946	2.6e-06
308.15	0.05904	0.0591	0.000292	2.1e-06
308.15	0.07926	0.0794	0.00029459	1.61e-06
308.15	0.1018	0.1019	0.0002923	1.3e-06
308.15	0.1499	0.1508	0.00029477	8.7e-07
308.15	0.2507	0.2522	0.0002955	5.3e-07
308.15	0.3322	0.3342	0.00029609	4.1e-07
318.15	0.02084	0.02088	0.0002944	6e-06
318.15	0.0305	0.03055	0.000297	4.2e-06
318.15	0.04187	0.0419	0.0002959	3e-06
318.15	0.04954	0.0496	0.0002978	2.6e-06
318.15	0.05904	0.0591	0.000295	2.2e-06
318.15	0.07926	0.0794	0.00029785	1.63e-06
318.15	0.1018	0.1019	0.0002948	1.3e-06
318.15	0.1499	0.1508	0.0002974	8.7e-07
318.15	0.2507	0.2522	0.00029807	5.4e-07
318.15	0.3322	0.3342	0.00029882	4.1e-07
328.15	0.02084	0.02088	0.0002972	6.1e-06
328.15	0.0305	0.03055	0.0003	4.2e-06
328.15	0.04187	0.0419	0.0002991	3.1e-06
328.15	0.04954	0.0496	0.0003009	2.6e-06
328.15	0.05904	0.0591	0.0002975	2.2e-06
328.15	0.07926	0.0794	0.0003002	1.6e-06
328.15	0.1018	0.1019	0.0002973	1.3e-06
328.15	0.1499	0.1508	0.0003001	8.8e-07
328.15	0.2507	0.2522	0.00030044	5.4e-07
328.15	0.3322	0.3342	0.00030128	4.2e-07
338.15	0.02084	0.02088	0.0002984	6.1e-06
338.15	0.0305	0.03055	0.0003013	4.2e-06
338.15	0.04187	0.0419	0.0003008	3.1e-06
338.15	0.04954	0.0496	0.000303	2.6e-06
338.15	0.05904	0.0591	0.0002989	2.2e-06
338.15	0.07926	0.0794	0.0003024	1.7e-06
338.15	0.1018	0.1019	0.0002995	1.3e-06
338.15	0.1499	0.1508	0.00030254	8.9e-07
338.15	0.2507	0.2522	0.00030287	5.5e-07
338.15	0.3322	0.3342	0.00030365	4.2e-07
348.15	0.02084	0.02088	0.0002992	6.1e-06
348.15	0.0305	0.03055	0.0003036	4.3e-06
348.15	0.04187	0.0419	0.0003019	3.1e-06
348.15	0.04954	0.0496	0.0003051	2.7e-06
348.15	0.05904	0.0591	0.0003005	2.2e-06
348.15	0.07926	0.0794	0.0003043	1.7e-06
348.15	0.1018	0.1019	0.0003011	1.3e-06
348.15	0.1499	0.1508	0.0003048	9e-07
348.15	0.2507	0.2522	0.00030507	5.5e-07
348.15	0.3322	0.3342	0.00030568	4.3e-07
358.15	0.02084	0.02088	0.0003001	6.2e-06
358.15	0.0305	0.03055	0.0003029	4.3e-06
358.15	0.04187	0.0419	0.000303	3.1e-06
358.15	0.04954	0.0496	0.0003075	2.7e-06
358.15	0.05904	0.0591	0.0003015	2.2e-06
358.15	0.07926	0.0794	0.00030583	1.68e-06
358.15	0.1018	0.1019	0.0003025	1.3e-06
358.15	0.1499	0.1508	0.00030686	9e-07
358.15	0.2507	0.2522	0.00030715	5.6e-07
358.15	0.3322	0.3342	0.00030751	4.3e-07
368.15	0.02084	0.02088	0.00030238	6.22e-06
368.15	0.0305	0.03055	0.0003018	4.3e-06
368.15	0.04187	0.0419	0.0003032	3.1e-06
368.15	0.04954	0.0496	0.0003093	2.7e-06
368.15	0.05904	0.0591	0.0003037	2.2e-06
368.15	0.07926	0.0794	0.0003073	1.69e-06
368.15	0.1018	0.1019	0.0003037	1.3e-06
368.15	0.1499	0.1508	0.00030912	9.1e-07
368.15	0.2507	0.2522	0.00030923	5.6e-07
368.15	0.3322	0.3342	0.00030963	4.3e-07
