Measured thermophysical data. The heat capacities and thermodynamic properties of NiAl2O4 and CoAl2O4  measured by adiabatic calorimetry from T = (4 to 400) K
Source: J. Chem. Thermodyn., 2009, 10.1016/j.jct.2009.01.014
Compound 1: aluminum nickel oxide, Al2NiO4, InChI=1S/2Al.Ni.4O/q2*+3;+2;4*-2, purity 97%
Compound 2: aluminium cobalt oxide, Al2CoO4, InChI=1S/2Al.Co.4O/q2*+3;+2;4*-2

System: aluminum nickel oxide; phases: Crystal 2, Crystal 1, Gas
Property: Triple point temperature, K (Crystal 2); method: Adiabatic calorimetry
Triple point temperature, K	uncertainty
7.5	1

System: aluminum nickel oxide; phases: Crystal 2, Crystal 1, Gas
Property: Molar enthalpy of transition or fusion, kJ/mol (Crystal 2); method: Adiabatic calorimetry
Molar enthalpy of transition or fusion, kJ/mol	uncertainty
0	1

System: aluminum nickel oxide; phases: Crystal 1
Fixed: Pressure, kPa = 101.325
Property: Molar heat capacity at constant pressure, J/K/mol (Crystal 1); method: Vacuum adiabatic calorimetry
Temperature, K	Molar heat capacity at constant pressure, J/K/mol	uncertainty
8.71	3.16	0.19
8.8	3.28	0.2
9.16	3.14	0.19
9.36	3.2	0.19
9.41	3.18	0.19
9.44	3.3	0.2
9.92	3.25	0.2
10.46	3.26	0.2
10.85	3.25	0.2
10.87	3.22	0.19
10.99	3.21	0.19
11.32	3.29	0.2
11.5	3.25	0.2
12	3.26	0.2
12.49	3.31	0.2
12.96	3.33	0.2
13.46	3.25	0.2
13.57	3.27	0.2
13.71	3.27	0.2
15.76	3.15	0.19
15.98	3.08	0.19
16.28	3.17	0.19
17.91	3.18	0.19
18.91	3.14	0.19
20	3.15	0.19
21.42	3.13	0.19
22.04	3.17	0.19
23.86	3.16	0.19
23.96	3.19	0.19
25.64	3.31	0.2
26.3	3.27	0.2
27.15	3.18	0.19
28.55	3.32	0.2
28.79	3.36	0.2
30.4	3.39	0.08
32.67	3.66	0.08
34.85	3.88	0.08
37.07	4.17	0.09
39.37	4.52	0.1
41.69	5	0.11
44.04	5.52	0.12
46.43	6.1	0.13
48.85	6.74	0.14
51.31	7.44	0.05
53.81	8.21	0.05
56.34	9.06	0.06
58.9	9.95	0.06
61.49	10.88	0.06
64.11	11.91	0.07
66.75	12.95	0.07
69.42	14.08	0.07
72.11	15.26	0.08
74.82	16.47	0.08
77.55	17.74	0.09
80.3	19.03	0.09
83.05	20.39	0.1
85.82	21.77	0.11
88.6	23.18	0.11
91.39	24.63	0.19
94.18	26.11	0.19
96.99	27.61	0.2
99.81	29.14	0.2
102.64	30.76	0.2
105.48	32.33	0.21
105.99	32.67	0.21
108.04	33.94	0.21
108.32	34.11	0.21
110.5	35.28	0.22
111.16	35.64	0.22
113.39	36.87	0.22
114.01	37.2	0.22
116.26	38.44	0.23
116.87	38.76	0.23
119.13	39.98	0.23
122.01	41.6	0.24
122.87	42.26	0.24
124.9	43.43	0.24
126	44.05	0.25
127.79	45.11	0.25
129.08	45.85	0.25
130.69	46.8	0.26
132.11	47.61	0.26
133.58	48.47	0.26
135.08	49.32	0.26
136.48	50.13	0.27
138	50.99	0.27
139.38	51.79	0.27
140.9	52.66	0.28
142.28	53.45	0.28
143.8	54.31	0.28
145.18	55.11	0.28
146.71	55.97	0.29
148.09	56.76	0.29
149.62	57.62	0.29
151.01	58.36	0.3
152.53	59.24	0.3
153.92	60.02	0.3
155.45	60.88	0.31
156.84	61.63	0.31
158.36	62.48	0.31
159.76	63.26	0.31
161.28	64.08	0.32
162.69	64.85	0.32
164.2	65.68	0.32
165.61	66.43	0.33
167.12	67.24	0.33
168.54	68.03	0.33
170.05	68.78	0.33
171.47	69.58	0.34
172.99	70.34	0.34
174.41	71.11	0.34
175.92	71.9	0.35
177.34	72.65	0.35
178.85	73.41	0.35
180.28	74.17	0.35
181.79	74.93	0.36
183.22	75.62	0.36
184.73	76.38	0.36
186.16	77.12	0.37
187.67	77.84	0.37
189.1	78.57	0.37
190.6	79.32	0.37
192.04	79.99	0.38
193.54	80.73	0.38
194.98	81.45	0.38
196.49	82.14	0.38
197.92	82.82	0.39
199.44	83.52	0.39
200.86	84.19	0.39
202.38	84.89	0.39
203.81	85.57	0.4
205.33	86.24	0.4
206.75	86.92	0.4
208.27	87.58	0.41
209.7	88.24	0.41
211.22	88.92	0.41
212.66	89.57	0.41
214.17	90.19	0.42
215.61	90.82	0.42
217.12	91.49	0.42
218.56	92.08	0.42
220.08	92.76	0.42
221.51	93.31	0.43
223.03	93.99	0.43
224.47	94.6	0.43
225.99	95.23	0.43
227.42	95.8	0.44
228.95	96.42	0.44
230.37	97.04	0.44
231.9	97.6	0.44
233.33	98.21	0.45
234.86	98.77	0.45
236.29	99.39	0.45
237.81	99.94	0.45
239.25	100.5	0.45
240.77	101.05	0.46
242.21	101.63	0.46
243.73	102.14	0.46
245.17	102.74	0.46
246.7	103.28	0.47
248.13	103.85	0.47
249.66	104.37	0.47
251.09	104.94	0.47
252.62	105.45	0.47
254.05	105.77	0.48
255.59	106.14	0.48
257.02	106.76	0.48
258.55	107.28	0.48
259.98	107.8	0.48
261.52	108.34	0.49
262.95	108.87	0.49
264.48	109.34	0.49
265.92	109.88	0.49
267.45	110.37	0.49
268.89	110.87	0.5
270.42	111.38	0.5
271.85	111.89	0.5
273.39	112.32	0.5
274.82	112.83	0.5
276.36	113.28	0.5
277.78	113.76	0.51
279.33	114.23	0.51
280.76	114.74	0.51
282.3	115.14	0.51
283.73	115.62	0.51
285.27	116.07	0.52
286.7	116.54	0.52
288.25	116.94	0.52
289.68	117.45	0.52
291.22	117.9	0.52
292.65	118.35	0.52
294.2	118.77	0.53
295.62	119.32	0.53
297.18	119.78	0.53
298.59	120.09	0.53
300.16	120.45	0.53
301.57	120.88	0.53
303.15	121.33	0.54
304.54	121.7	0.54
306.14	122.12	0.54
307.52	122.46	0.54
309.12	122.99	0.54
310.5	123.28	0.54
312.12	123.81	0.55
313.49	124.01	0.55
315.11	124.53	0.55
316.47	124.8	0.55
318.11	125.25	0.55
321.11	126.09	0.55
323.44	126.62	0.56
325.24	127.13	0.56
327.63	127.63	0.56
330.59	128.38	0.56
333.54	129.15	0.57
336.5	129.73	0.57
339.45	130.44	0.57
342.41	131.04	0.57
345.37	131.68	0.58
348.32	132.4	0.58
351.28	132.99	0.58
354.22	133.58	0.58
357.16	134.23	0.59
360.09	134.79	0.59
363.02	135.34	0.59
365.93	135.93	0.59
368.85	136.42	0.6
371.75	136.98	0.6
374.65	137.48	0.6
377.54	138.02	0.6
380.43	138.54	0.6
383.32	139.03	0.61
386.19	139.54	0.61
389.07	140.12	0.61
391.93	140.52	0.61
394.79	140.94	0.61
397.65	141.38	0.61
400.5	141.81	0.62

System: aluminum nickel oxide; phases: Crystal 1
Fixed: Pressure, kPa = 101.325
Property: Molar entropy, J/K/mol (Crystal 1); method: Vacuum adiabatic calorimetry
Temperature, K	Molar entropy, J/K/mol	uncertainty
10	1.84	0.04
20	4.08	0.05
30	5.38	0.08
40	6.5	0.08
50	7.79	0.08
60	9.35	0.09
70	11.24	0.09
80	13.45	0.1
90	15.96	0.32
100	18.75	0.33
110	21.81	0.33
120	25.1	0.34
130	28.57	0.34
140	32.22	0.35
150	36.01	0.35
160	39.92	0.36
170	43.92	0.37
180	48	0.37
190	52.14	0.38
200	56.31	0.38
210	60.52	0.39
220	64.72	0.4
230	68.94	0.4
240	73.14	0.41
250	77.33	0.42
260	81.5	0.42
270	85.63	0.43
280	89.73	0.43
290	93.81	0.44
298.15	97.1	0.45
300	97.83	0.45
310	101.83	0.45
320	105.78	0.46
330	109.69	0.46
340	113.55	0.47
350	117.37	0.48
360	121.14	0.48
370	124.86	0.49
380	128.52	0.49
390	132.14	0.5

System: aluminum nickel oxide; phases: Crystal 2
Fixed: Pressure, kPa = 101.325
Property: Molar heat capacity at constant pressure, J/K/mol (Crystal 2); method: Vacuum adiabatic calorimetry
Temperature, K	Molar heat capacity at constant pressure, J/K/mol	uncertainty
5.44	0.39	0.23
5.69	0.61	0.37
6.14	1.54	0.92
6.34	1.06	0.64
6.45	1.38	0.83
7.21	4.95	3.06
7.27	2.79	1.82
4.92	0.6	0.42
4.94	0.39	0.31

System: aluminum nickel oxide; phases: Crystal 2
Property: Molar entropy, J/K/mol (Crystal 2); method: Vacuum adiabatic calorimetry
Temperature, K	Pressure, kPa	Molar entropy, J/K/mol	uncertainty
5	101.325	0.1	0.09

System: aluminum nickel oxide; phases: Crystal 2
Fixed: Pressure, kPa = 101.325
Property: Molar heat capacity at constant pressure, J/K/mol (Crystal 2); method: Vacuum adiabatic calorimetry
Temperature, K	Molar heat capacity at constant pressure, J/K/mol	uncertainty
5	0.402	0.242
6	1.02	0.61
7	2.58	1.55

System: aluminum nickel oxide; phases: Crystal 1
Fixed: Pressure, kPa = 101.325
Property: Molar heat capacity at constant pressure, J/K/mol (Crystal 1); method: Vacuum adiabatic calorimetry
Temperature, K	Molar heat capacity at constant pressure, J/K/mol	uncertainty
10	3.25	0.2
20	3.14	0.19
30	3.33	0.2
40	4.64	0.1
50	7.06	0.15
60	10.33	0.06
70	14.33	0.08
80	18.89	0.09
90	23.91	0.19
100	29.25	0.2
110	35	0.22
120	40.45	0.24
130	46.39	0.25
140	52.14	0.27
150	57.83	0.29
160	63.38	0.31
170	68.75	0.33
180	74.02	0.35
190	79.02	0.37
200	83.78	0.39
210	88.37	0.41
220	92.73	0.42
230	96.88	0.44
240	100.77	0.46
250	104.5	0.47
260	107.81	0.48
270	111.24	0.5
280	114.47	0.51
290	117.55	0.52
298.15	119.99	0.53
300	120.41	0.53
310	123.18	0.54
320	125.78	0.55
330	128.23	0.56
340	130.55	0.57
350	132.74	0.58
360	134.78	0.59
370	136.64	0.6
380	138.46	0.6
390	140.25	0.61
9	3.25	0.2
8	3.25	0.2

System: aluminium cobalt oxide; phases: Crystal 2, Crystal 1, Gas
Property: Triple point temperature, K (Crystal 2); method: Adiabatic calorimetry
Triple point temperature, K	uncertainty
9	0.2

System: aluminium cobalt oxide; phases: Crystal 2, Crystal 1, Gas
Property: Molar enthalpy of transition or fusion, kJ/mol (Crystal 2); method: Adiabatic calorimetry
Molar enthalpy of transition or fusion, kJ/mol	uncertainty
0	1

System: aluminium cobalt oxide; phases: Crystal 1
Fixed: Pressure, kPa = 101.325
Property: Molar heat capacity at constant pressure, J/K/mol (Crystal 1); method: Vacuum adiabatic calorimetry
Temperature, K	Molar heat capacity at constant pressure, J/K/mol	uncertainty
9.33	3.86	0.23
9.95	4.26	0.26
10.45	4.03	0.24
10.5	4.18	0.25
10.76	4.31	0.26
11.38	4.5	0.27
11.87	4.28	0.26
12.04	4.33	0.26
12.41	4.39	0.27
12.96	4.32	0.26
13.36	4.4	0.27
13.69	4.41	0.27
13.73	4.37	0.26
14.57	4.32	0.26
14.84	4.36	0.26
15.02	4.19	0.25
15.35	4.45	0.27
16.08	4.3	0.26
16.27	4.22	0.25
16.99	4.37	0.26
17.59	4.22	0.25
17.64	4.2	0.25
18.61	4.3	0.26
18.8	4.15	0.25
19.9	4.28	0.26
20.2	4.24	0.26
20.34	4.12	0.25
20.92	4.12	0.25
21.76	4.2	0.25
21.88	4.24	0.26
22.65	4.13	0.25
23.29	4.19	0.25
24.79	4.18	0.25
24.8	4.22	0.25
26.22	4.35	0.26
26.96	4.24	0.26
27.5	4.17	0.25
28.68	4.27	0.26
29.17	4.26	0.26
29.76	4.34	0.26
31.39	4.52	0.1
31.42	4.55	0.1
33.59	4.79	0.1
34.14	4.77	0.1
35.82	5.1	0.11
36.43	5.08	0.11
38.1	5.31	0.11
38.48	5.3	0.11
40.31	5.7	0.12
40.44	5.8	0.12
42.02	6.02	0.13
42.79	6.32	0.13
43.71	6.48	0.14
45.17	6.92	0.14
45.43	6.93	0.14
47.17	7.42	0.15
47.58	7.59	0.16
48.91	7.98	0.16
50.03	8.32	0.05
50.67	8.52	0.05
52.44	9.07	0.06
52.51	9.11	0.06
54.22	9.63	0.06
55.03	9.97	0.06
56.02	10.33	0.06
57.57	10.87	0.06
57.82	10.96	0.06
59.64	11.67	0.07
60.15	11.85	0.07
61.46	12.35	0.07
62.75	12.88	0.07
63.3	13.11	0.07
65.14	13.85	0.07
65.38	13.94	0.07
66.99	14.6	0.08
68.03	15.06	0.08
68.85	15.41	0.08
70.7	16.23	0.08
70.71	16.22	0.08
72.59	17.07	0.09
73.39	17.44	0.09
74.46	17.93	0.09
76.1	18.69	0.09
76.35	18.81	0.09
78.23	19.67	0.1
78.83	19.98	0.1
80.13	20.6	0.1
81.57	21.31	0.1
82.03	21.53	0.1
83.93	22.47	0.11
84.33	22.66	0.11
85.84	23.42	0.11
86.76	23.89	0.11
87.1	24.07	0.12
87.75	24.35	0.12
89.66	25.35	0.12
89.88	25.48	0.12
90.38	25.72	0.19
91.58	26.35	0.19
92.68	26.93	0.19
93.5	27.35	0.19
94.03	27.61	0.2
95.42	28.36	0.2
95.49	28.4	0.2
97.35	29.35	0.2
97.7	29.56	0.2
98.31	29.91	0.2
99.28	30.41	0.2
101.14	31.29	0.21
101.4	31.39	0.21
105.11	33.64	0.21
108.84	35.84	0.22
112.59	37.85	0.23
116.35	39.89	0.23
118.19	40.87	0.24
120.13	41.61	0.24
121.04	42.24	0.24
123.91	44.18	0.25
123.91	44.16	0.25
126.79	45.8	0.25
127.71	46.35	0.25
129.67	47.46	0.26
131.52	48.53	0.26
132.55	49.08	0.26
135.33	50.7	0.27
135.44	50.72	0.27
138.34	52.33	0.28
139.16	52.77	0.28
141.23	53.98	0.28
142.99	55.02	0.28
144.14	55.61	0.29
146.83	57.16	0.29
147.05	57.28	0.29
149.96	58.88	0.3
150.67	59.3	0.3
152.88	60.51	0.3
154.53	61.45	0.31
155.79	62.12	0.31
158.38	63.57	0.32
158.7	63.68	0.32
161.62	65.3	0.32
162.25	65.67	0.32
164.55	66.89	0.33
166.11	67.74	0.33
167.47	68.46	0.33
169.98	69.8	0.34
170.39	70.02	0.34
173.28	71.53	0.34
173.86	71.81	0.35
176.14	73.02	0.35
177.74	73.82	0.35
178.97	74.47	0.36
181.6	75.79	0.36
181.77	75.91	0.36
184.55	77.27	0.37
185.41	77.67	0.37
187.3	78.65	0.37
189.19	79.56	0.37
190.03	79.99	0.38
192.74	81.28	0.38
192.91	81.34	0.38
195.43	82.61	0.39
196.6	83.11	0.39
198.09	83.83	0.39
200.24	84.85	0.39
200.74	85.08	0.4
203.36	86.29	0.4
203.85	86.5	0.4
205.97	87.49	0.4
207.42	88.12	0.41
208.56	88.63	0.41
210.96	89.71	0.41
211.13	89.82	0.41
213.68	90.9	0.42
214.47	91.27	0.42
216.22	92.07	0.42
217.95	92.81	0.43
218.74	93.14	0.43
221.25	94.2	0.43
221.4	94.18	0.43
223.74	95.23	0.43
224.82	95.65	0.44
226.22	96.27	0.44
228.21	97.04	0.44
228.69	97.25	0.44
231.14	98.26	0.45
231.58	98.37	0.45
233.58	99.23	0.45
234.92	99.71	0.45
236.01	100.16	0.45
238.24	101.02	0.46
238.42	101.09	0.46
240.83	102.05	0.46
241.54	102.25	0.46
243.22	102.92	0.46
244.81	103.49	0.47
245.59	103.81	0.47
247.96	104.73	0.47
248.06	104.72	0.47
250.32	105.57	0.47
251.29	105.92	0.48
252.67	106.55	0.48
254.51	106.81	0.48
255.02	106.86	0.48
257.35	107.86	0.48
257.71	108	0.48
259.68	108.69	0.49
260.89	109.14	0.49
261.99	109.47	0.49
264.06	110.17	0.49
264.3	110.3	0.49
266.6	111.11	0.5
267.21	111.27	0.5
268.89	111.88	0.5
270.34	112.32	0.5
271.18	112.63	0.5
273.45	113.32	0.5
273.45	113.36	0.5
275.72	114.12	0.51
276.55	114.32	0.51
277.98	114.86	0.51
279.64	115.3	0.51
280.23	115.61	0.51
282.47	116.23	0.52
282.71	116.25	0.52
284.71	117.01	0.52
285.76	117.27	0.52
286.94	117.64	0.52
288.8	118.11	0.52
289.16	118.27	0.52
291.38	118.88	0.53
291.83	118.87	0.53
293.59	119.39	0.53
294.84	119.71	0.53
295.8	120.14	0.53
297.85	120.6	0.53
298	120.75	0.53
300.19	121.32	0.54
300.84	121.4	0.54
302.38	121.76	0.54
304.56	122.44	0.54
306.74	123.1	0.54
308.91	123.82	0.55
311.08	124.21	0.55
314.58	125.39	0.55
316.31	125.57	0.55
318.27	126.1	0.55
320.27	126.63	0.56
322.26	127.06	0.56
324.24	127.71	0.56
326.23	128.15	0.56
328.22	128.71	0.56
330.21	129.23	0.57
332.21	129.58	0.57
334.2	130.14	0.57
336.19	130.48	0.57
338.18	131.04	0.57
340.18	131.54	0.58
342.17	132	0.58
344.16	132.51	0.58
346.15	132.95	0.58
348.15	133.41	0.58
350.14	133.82	0.59
352.14	134.31	0.59
354.14	134.84	0.59
356.13	135.27	0.59
358.13	135.71	0.59
360.13	136.12	0.59
362.13	136.47	0.6
364.13	136.92	0.6
366.13	137.31	0.6
368.13	137.72	0.6
370.14	138.29	0.6
372.14	138.51	0.6
374.14	138.93	0.61
376.14	139.33	0.61
378.15	139.67	0.61
380.15	140.12	0.61
382.16	140.49	0.61
384.17	140.86	0.61
386.17	141.18	0.61
388.18	141.53	0.62
390.19	142	0.62
392.2	142.2	0.62
394.22	142.53	0.62
396.23	142.78	0.62
398.24	143.19	0.62
400.25	143.52	0.62
9.32	4.26	0.26
9.28	4.54	0.27

System: aluminium cobalt oxide; phases: Crystal 1
Fixed: Pressure, kPa = 101.325
Property: Molar entropy, J/K/mol (Crystal 1); method: Vacuum adiabatic calorimetry
Temperature, K	Molar entropy, J/K/mol	uncertainty
15	2.91	0.04
20	4.1	0.05
25	5.02	0.05
30	5.79	0.08
35	6.5	0.08
40	7.21	0.08
45	7.95	0.08
50	8.75	0.09
55	9.61	0.09
60	10.56	0.09
65	11.58	0.09
70	12.68	0.1
75	13.85	0.1
80	15.1	0.11
85	16.42	0.11
90	17.81	0.33
95	19.26	0.33
100	20.77	0.33
105	22.33	0.33
110	23.96	0.34
120	27.36	0.34
130	30.94	0.35
140	34.68	0.35
150	38.55	0.36
160	42.52	0.36
170	46.6	0.37
180	50.73	0.38
190	54.92	0.38
200	59.14	0.39
210	63.39	0.4
220	67.65	0.4
230	71.9	0.41
240	76.15	0.41
250	80.37	0.42
260	84.57	0.43
270	88.74	0.43
280	92.88	0.44
290	97	0.45
298.15	100.31	0.45
300	101.06	0.45
310	105.07	0.46
320	109.05	0.46
330	112.99	0.47
340	116.88	0.48
350	120.72	0.48
360	124.52	0.49
370	128.28	0.49
380	131.99	0.5
390	135.65	0.5

System: aluminium cobalt oxide; phases: Crystal 2
Fixed: Pressure, kPa = 101.325
Property: Molar heat capacity at constant pressure, J/K/mol (Crystal 2); method: Vacuum adiabatic calorimetry
Temperature, K	Molar heat capacity at constant pressure, J/K/mol	uncertainty
6.45	0.6	0.36
6.71	0.26	0.16
6.88	0.73	0.44
7.21	0.74	0.61
7.25	1.59	1.04
7.46	0.83	0.5
7.65	2.56	3.55
7.66	0.96	3.25
7.81	1.14	0.68
7.85	0.98	0.59
7.94	1.38	0.9
8	3.8	2.28
8.05	1.67	1.02
8.17	2	1.2
8.29	2.32	1.45
8.32	6.21	4.54
8.47	1.8	1.1
8.62	3.37	2.06
8.66	6.33	3.82
8.71	5.19	3.15
8.71	7.23	4.35
8.98	3.72	2.23
4.72	0.13	0.08
5.71	0.32	0.19

System: aluminium cobalt oxide; phases: Crystal 1
Fixed: Pressure, kPa = 101.325
Property: Molar heat capacity at constant pressure, J/K/mol (Crystal 1); method: Vacuum adiabatic calorimetry
Temperature, K	Molar heat capacity at constant pressure, J/K/mol	uncertainty
15	4.19	0.25
20	4.12	0.25
25	4.19	0.25
30	4.35	0.26
35	4.98	0.11
40	5.71	0.12
45	6.87	0.14
50	8.31	0.17
55	9.96	0.06
60	11.79	0.07
65	13.79	0.07
70	15.92	0.08
75	18.18	0.09
80	20.58	0.83
85	23	0.11
90	25.54	0.19
95	28.14	0.2
100	30.76	0.2
105	33.58	0.21
110	36.47	0.22
120	41.53	0.24
130	47.65	0.26
140	53.26	0.28
150	58.9	0.3
160	64.37	0.32
170	69.81	0.34
180	74.99	0.36
190	79.97	0.38
200	84.73	0.39
210	89.28	0.41
220	93.68	0.43
230	97.8	0.44
240	101.73	0.46
250	105.45	0.47
260	108.81	0.49
270	112.21	0.5
280	115.49	0.51
290	118.56	0.53
298.15	120.8	0.53
300	121.29	0.54
310	124.03	0.55
320	126.56	0.56
330	129.18	0.57
340	131.5	0.58
350	133.79	0.58
360	136.1	0.59
370	138.26	0.6
380	140.09	0.61
390	141.96	0.62
10	4.27	0.26

System: aluminium cobalt oxide; phases: Crystal 2
Fixed: Pressure, kPa = 101.325
Property: Molar heat capacity at constant pressure, J/K/mol (Crystal 2); method: Vacuum adiabatic calorimetry
Temperature, K	Molar heat capacity at constant pressure, J/K/mol	uncertainty
5	0.187	0.113
6	0.323	0.194
7	0.905	0.543
8	2.02	1.21
