Measured thermophysical data. Henry's constants and infinite dilution activity coefficients of propane, propene, butane, isobutane, 1-butene, isobutene, trans-2-butene, and 1,3-butadiene in 1-pentanol, 2-pentanol and 3-pentanol
Source: J. Chem. Thermodyn., 2005, 10.1016/j.jct.2004.11.005
Compound 1: propane, C3H8, InChI=1S/C3H8/c1-3-2/h3H2,1-2H3, purity 99.5%
Compound 2: propene, C3H6, InChI=1S/C3H6/c1-3-2/h3H,1H2,2H3, purity 99.5%
Compound 3: butane, C4H10, InChI=1S/C4H10/c1-3-4-2/h3-4H2,1-2H3, purity 99.8%
Compound 4: 2-methylpropane, C4H10, InChI=1S/C4H10/c1-4(2)3/h4H,1-3H3, purity 99%
Compound 5: 1-butene, C4H8, InChI=1S/C4H8/c1-3-4-2/h3H,1,4H2,2H3, purity 99%
Compound 6: 2-methylpropene, C4H8, InChI=1S/C4H8/c1-4(2)3/h1H2,2-3H3, purity 99%
Compound 7: (E)-2-butene, C4H8, InChI=1S/C4H8/c1-3-4-2/h3-4H,1-2H3/b4-3+, purity 99%
Compound 8: 1,3-butadiene, C4H6, InChI=1S/C4H6/c1-3-4-2/h3-4H,1-2H2, purity 99%
Compound 9: pentan-1-ol, C5H12O, InChI=1S/C5H12O/c1-2-3-4-5-6/h6H,2-5H2,1H3, purity 98%
Compound 10: pentan-2-ol, C5H12O, InChI=1S/C5H12O/c1-3-4-5(2)6/h5-6H,3-4H2,1-2H3, purity 98%
Compound 11: 3-pentanol, C5H12O, InChI=1S/C5H12O/c1-3-5(6)4-2/h5-6H,3-4H2,1-2H3, purity 98%

System: pentan-1-ol + propane; phases: Liquid, Gas
Fixed: Mole fraction of propane = 0
Property: Activity coefficient of propane (Liquid); method: OTHER
Temperature, K	Activity coefficient of propane	uncertainty
249.96	3.08	0.09
269.99	3.07	0.09
290	3.08	0.09
310	3.05	0.09
330	3	0.09

System: pentan-1-ol + propane; phases: Liquid, Gas
Fixed: Mole fraction of propane = 0
Property: Henry's Law constant (mole fraction scale), kPa of propane (Liquid); method: OTHER
Temperature, K	Henry's Law constant (mole fraction scale), kPa of propane	uncertainty
249.96	630	15
269.99	1200	29
290	2050	50
310	3180	78
330	4500	110

System: pentan-1-ol + propene; phases: Liquid, Gas
Fixed: Mole fraction of propene = 0
Property: Activity coefficient of propene (Liquid); method: OTHER
Temperature, K	Activity coefficient of propene	uncertainty
249.96	2.59	0.08
269.99	2.59	0.08
290	2.6	0.08
310	2.59	0.08
330	2.51	0.08

System: pentan-1-ol + propene; phases: Liquid, Gas
Fixed: Mole fraction of propene = 0
Property: Henry's Law constant (mole fraction scale), kPa of propene (Liquid); method: OTHER
Temperature, K	Henry's Law constant (mole fraction scale), kPa of propene	uncertainty
249.96	660	16
269.99	1230	30
290	2060	50
310	3160	77
330	4410	108

System: pentan-1-ol + butane; phases: Liquid, Gas
Fixed: Mole fraction of butane = 0
Property: Activity coefficient of butane (Liquid); method: OTHER
Temperature, K	Activity coefficient of butane	uncertainty
249.97	3.43	0.1
270.01	3.33	0.1
290	3.31	0.1
310	3.27	0.1
330	3.19	0.1

System: pentan-1-ol + butane; phases: Liquid, Gas
Fixed: Mole fraction of butane = 0
Property: Henry's Law constant (mole fraction scale), kPa of butane (Liquid); method: OTHER
Temperature, K	Henry's Law constant (mole fraction scale), kPa of butane	uncertainty
249.97	132	3
270.01	295	7
290	580	14
310	1032	25
330	1650	40

System: pentan-1-ol + 2-methylpropane; phases: Liquid, Gas
Fixed: Mole fraction of 2-methylpropane = 0
Property: Activity coefficient of 2-methylpropane (Liquid); method: OTHER
Temperature, K	Activity coefficient of 2-methylpropane	uncertainty
249.97	3.65	0.11
270.01	3.59	0.11
290	3.56	0.11
310	3.51	0.11
330	3.4	0.1

System: pentan-1-ol + 2-methylpropane; phases: Liquid, Gas
Fixed: Mole fraction of 2-methylpropane = 0
Property: Henry's Law constant (mole fraction scale), kPa of 2-methylpropane (Liquid); method: OTHER
Temperature, K	Henry's Law constant (mole fraction scale), kPa of 2-methylpropane	uncertainty
249.97	223	5
270.01	475	12
290	890	22
310	1510	37
330	2300	56

System: pentan-1-ol + 1-butene; phases: Liquid, Gas
Fixed: Mole fraction of 1-butene = 0
Property: Activity coefficient of 1-butene (Liquid); method: OTHER
Temperature, K	Activity coefficient of 1-butene	uncertainty
249.96	2.88	0.09
269.99	2.87	0.09
290	2.82	0.08
310	2.78	0.08
330	2.7	0.08

System: pentan-1-ol + 1-butene; phases: Liquid, Gas
Fixed: Mole fraction of 1-butene = 0
Property: Henry's Law constant (mole fraction scale), kPa of 1-butene (Liquid); method: OTHER
Temperature, K	Henry's Law constant (mole fraction scale), kPa of 1-butene	uncertainty
249.96	140	3
269.99	314	8
290	610	15
310	1050	26
330	1650	40

System: pentan-1-ol + 2-methylpropene; phases: Liquid, Gas
Fixed: Mole fraction of 2-methylpropene = 0
Property: Activity coefficient of 2-methylpropene (Liquid); method: OTHER
Temperature, K	Activity coefficient of 2-methylpropene	uncertainty
249.97	2.86	0.09
270.01	2.84	0.09
290	2.82	0.08
310	2.76	0.08
330	2.63	0.08

System: pentan-1-ol + 2-methylpropene; phases: Liquid, Gas
Fixed: Mole fraction of 2-methylpropene = 0
Property: Henry's Law constant (mole fraction scale), kPa of 2-methylpropene (Liquid); method: OTHER
Temperature, K	Henry's Law constant (mole fraction scale), kPa of 2-methylpropene	uncertainty
249.97	142	4
270.01	316	8
290	620	15
310	1060	26
330	1630	40

System: pentan-1-ol + (E)-2-butene; phases: Liquid, Gas
Fixed: Mole fraction of (E)-2-butene = 0
Property: Activity coefficient of (E)-2-butene (Liquid); method: OTHER
Temperature, K	Activity coefficient of (E)-2-butene	uncertainty
249.96	2.8	0.08
269.99	2.8	0.08
290	2.76	0.08
310	2.76	0.08
330	2.69	0.08

System: pentan-1-ol + (E)-2-butene; phases: Liquid, Gas
Fixed: Mole fraction of (E)-2-butene = 0
Property: Henry's Law constant (mole fraction scale), kPa of (E)-2-butene (Liquid); method: OTHER
Temperature, K	Henry's Law constant (mole fraction scale), kPa of (E)-2-butene	uncertainty
249.96	101	3
269.99	235	6
290	467	11
310	840	21
330	1350	33

System: pentan-1-ol + 1,3-butadiene; phases: Liquid, Gas
Fixed: Mole fraction of 1,3-butadiene = 0
Property: Activity coefficient of 1,3-butadiene (Liquid); method: OTHER
Temperature, K	Activity coefficient of 1,3-butadiene	uncertainty
249.97	2.5	0.08
270.01	2.51	0.08
290	2.5	0.08
310	2.46	0.07
330	2.33	0.07

System: pentan-1-ol + 1,3-butadiene; phases: Liquid, Gas
Fixed: Mole fraction of 1,3-butadiene = 0
Property: Henry's Law constant (mole fraction scale), kPa of 1,3-butadiene (Liquid); method: OTHER
Temperature, K	Henry's Law constant (mole fraction scale), kPa of 1,3-butadiene	uncertainty
249.97	113	3
270.01	259	6
290	510	13
310	890	22
330	1380	34

System: propane + pentan-2-ol; phases: Liquid, Gas
Fixed: Mole fraction of propane = 0
Property: (Relative) activity of propane (Liquid); method: OTHER
Temperature, K	(Relative) activity of propane	uncertainty
249.93	3.13	0.09
269.99	3.12	0.09
290	3.02	0.09
310	2.9	0.09
330	2.76	0.08

System: propane + pentan-2-ol; phases: Liquid, Gas
Fixed: Mole fraction of propane = 0
Property: Henry's Law constant (mole fraction scale), kPa of propane (Liquid); method: OTHER
Temperature, K	Henry's Law constant (mole fraction scale), kPa of propane	uncertainty
249.93	640	16
269.99	1220	30
290	2020	49
310	3020	74
330	4180	102

System: propene + pentan-2-ol; phases: Liquid, Gas
Fixed: Mole fraction of propene = 0
Property: Activity coefficient of propene (Liquid); method: OTHER
Temperature, K	Activity coefficient of propene	uncertainty
249.93	2.79	0.08
269.99	2.77	0.08
290	2.66	0.08
310	2.53	0.08
330	2.37	0.07

System: propene + pentan-2-ol; phases: Liquid, Gas
Fixed: Mole fraction of propene = 0
Property: Henry's Law constant (mole fraction scale), kPa of propene (Liquid); method: OTHER
Temperature, K	Henry's Law constant (mole fraction scale), kPa of propene	uncertainty
249.93	710	17
269.99	1310	32
290	2110	52
310	3090	76
330	4160	102

System: butane + pentan-2-ol; phases: Liquid, Gas
Fixed: Mole fraction of butane = 0
Property: Activity coefficient of butane (Liquid); method: OTHER
Temperature, K	Activity coefficient of butane	uncertainty
249.93	3.4	0.1
269.96	3.38	0.1
290	3.24	0.1
310	3.11	0.09
330	2.94	0.09

System: butane + pentan-2-ol; phases: Liquid, Gas
Fixed: Mole fraction of butane = 0
Property: Henry's Law constant (mole fraction scale), kPa of butane (Liquid); method: OTHER
Temperature, K	Henry's Law constant (mole fraction scale), kPa of butane	uncertainty
249.93	131	3
269.96	298	7
290	570	14
310	980	24
330	1520	37

System: 2-methylpropane + pentan-2-ol; phases: Liquid, Gas
Fixed: Mole fraction of 2-methylpropane = 0
Property: Activity coefficient of 2-methylpropane (Liquid); method: OTHER
Temperature, K	Activity coefficient of 2-methylpropane	uncertainty
250.01	3.66	0.11
269.96	3.61	0.11
290	3.49	0.1
310	3.3	0.1
330	3.1	0.09

System: 2-methylpropane + pentan-2-ol; phases: Liquid, Gas
Fixed: Mole fraction of 2-methylpropane = 0
Property: Henry's Law constant (mole fraction scale), kPa of 2-methylpropane (Liquid); method: OTHER
Temperature, K	Henry's Law constant (mole fraction scale), kPa of 2-methylpropane	uncertainty
250.01	225	6
269.96	478	12
290	880	22
310	1420	35
330	2100	51

System: 1-butene + pentan-2-ol; phases: Liquid, Gas
Fixed: Mole fraction of 1-butene = 0
Property: Activity coefficient of 1-butene (Liquid); method: OTHER
Temperature, K	Activity coefficient of 1-butene	uncertainty
249.94	3.04	0.09
269.99	3.03	0.09
290	2.86	0.09
310	2.69	0.08
330	2.5	0.08

System: 1-butene + pentan-2-ol; phases: Liquid, Gas
Fixed: Mole fraction of 1-butene = 0
Property: Henry's Law constant (mole fraction scale), kPa of 1-butene (Liquid); method: OTHER
Temperature, K	Henry's Law constant (mole fraction scale), kPa of 1-butene	uncertainty
249.94	148	4
269.99	331	8
290	620	15
310	1020	25
330	1520	37

System: 2-methylpropene + pentan-2-ol; phases: Liquid, Gas
Fixed: Mole fraction of 2-methylpropene = 0
Property: Activity coefficient of 2-methylpropene (Liquid); method: OTHER
Temperature, K	Activity coefficient of 2-methylpropene	uncertainty
249.94	3.1	0.09
269.98	2.99	0.09
290	2.82	0.08
310	2.63	0.08
330	2.45	0.07

System: 2-methylpropene + pentan-2-ol; phases: Liquid, Gas
Fixed: Mole fraction of 2-methylpropene = 0
Property: Henry's Law constant (mole fraction scale), kPa of 2-methylpropene (Liquid); method: OTHER
Temperature, K	Henry's Law constant (mole fraction scale), kPa of 2-methylpropene	uncertainty
249.94	153	4
269.98	333	8
290	620	15
310	1010	25
330	1520	37

System: (E)-2-butene + pentan-2-ol; phases: Liquid, Gas
Fixed: Mole fraction of (E)-2-butene = 0
Property: Activity coefficient of (E)-2-butene (Liquid); method: OTHER
Temperature, K	Activity coefficient of (E)-2-butene	uncertainty
249.94	2.9	0.09
269.99	2.91	0.09
290	2.81	0.08
310	2.65	0.08
330	2.49	0.07

System: (E)-2-butene + pentan-2-ol; phases: Liquid, Gas
Fixed: Mole fraction of (E)-2-butene = 0
Property: Henry's Law constant (mole fraction scale), kPa of (E)-2-butene (Liquid); method: OTHER
Temperature, K	Henry's Law constant (mole fraction scale), kPa of (E)-2-butene	uncertainty
249.94	104	3
269.99	244	6
290	474	12
310	810	20
330	1250	31

System: 1,3-butadiene + pentan-2-ol; phases: Liquid, Gas
Fixed: Mole fraction of 1,3-butadiene = 0
Property: Activity coefficient of 1,3-butadiene (Liquid); method: OTHER
Temperature, K	Activity coefficient of 1,3-butadiene	uncertainty
249.94	3.01	0.09
269.98	2.89	0.09
290	2.68	0.08
310	2.47	0.07
330	2.27	0.07

System: 1,3-butadiene + pentan-2-ol; phases: Liquid, Gas
Fixed: Mole fraction of 1,3-butadiene = 0
Property: Henry's Law constant (mole fraction scale), kPa of 1,3-butadiene (Liquid); method: OTHER
Temperature, K	Henry's Law constant (mole fraction scale), kPa of 1,3-butadiene	uncertainty
249.94	136	3
269.98	297	7
290	550	13
310	900	22
330	1340	33

System: propane + 3-pentanol; phases: Liquid, Gas
Fixed: Mole fraction of propane = 0
Property: Activity coefficient of propane (Liquid); method: OTHER
Temperature, K	Activity coefficient of propane	uncertainty
259.96	3.27	0.1
270.02	3.21	0.1
280	3.14	0.09
290	3.09	0.09
300	3.01	0.09
310.01	2.9	0.09
320	2.81	0.08
330	2.72	0.08

System: propane + 3-pentanol; phases: Liquid, Gas
Fixed: Mole fraction of propane = 0
Property: Henry's Law constant (mole fraction scale), kPa of propane (Liquid); method: OTHER
Temperature, K	Henry's Law constant (mole fraction scale), kPa of propane	uncertainty
259.96	940	23
270.02	1250	31
280	1620	40
290	2060	50
300	2540	62
310.01	3020	74
320	3560	87
330	4110	101

System: propene + 3-pentanol; phases: Liquid, Gas
Fixed: Mole fraction of propene = 0
Property: Activity coefficient of propene (Liquid); method: OTHER
Temperature, K	Activity coefficient of propene	uncertainty
259.94	2.97	0.09
270.02	2.87	0.09
280	2.82	0.08
290	2.74	0.08
300	2.63	0.08
310.01	2.53	0.08
320	2.42	0.07
330.01	2.32	0.07

System: propene + 3-pentanol; phases: Liquid, Gas
Fixed: Mole fraction of propene = 0
Property: Henry's Law constant (mole fraction scale), kPa of propene (Liquid); method: OTHER
Temperature, K	Henry's Law constant (mole fraction scale), kPa of propene	uncertainty
259.94	1040	25
270.02	1360	33
280	1750	43
290	2170	53
300	2620	64
310.01	3090	76
320	3570	87
330.01	4080	100

System: butane + 3-pentanol; phases: Liquid, Gas
Fixed: Mole fraction of butane = 0
Property: Activity coefficient of butane (Liquid); method: OTHER
Temperature, K	Activity coefficient of butane	uncertainty
259.98	3.48	0.1
270.02	3.4	0.1
280	3.36	0.1
290	3.26	0.1
300	3.15	0.09
310.01	3.04	0.09
320	2.92	0.09
330.01	2.79	0.08

System: butane + 3-pentanol; phases: Liquid, Gas
Fixed: Mole fraction of butane = 0
Property: Henry's Law constant (mole fraction scale), kPa of butane (Liquid); method: OTHER
Temperature, K	Henry's Law constant (mole fraction scale), kPa of butane	uncertainty
259.98	207	5
270.02	301	7
280	426	10
290	580	14
300	750	18
310.01	960	24
320	1190	29
330.01	1440	35

System: 2-methylpropane + 3-pentanol; phases: Liquid, Gas
Fixed: Mole fraction of 2-methylpropane = 0
Property: Activity coefficient of 2-methylpropane (Liquid); method: OTHER
Temperature, K	Activity coefficient of 2-methylpropane	uncertainty
259.96	3.66	0.11
270.02	3.62	0.11
280	3.53	0.11
290	3.45	0.1
300	3.35	0.1
310.01	3.22	0.1
320	3.09	0.09
330.01	2.98	0.09

System: 2-methylpropane + 3-pentanol; phases: Liquid, Gas
Fixed: Mole fraction of 2-methylpropane = 0
Property: Henry's Law constant (mole fraction scale), kPa of 2-methylpropane (Liquid); method: OTHER
Temperature, K	Henry's Law constant (mole fraction scale), kPa of 2-methylpropane	uncertainty
259.96	335	8
270.02	480	12
280	650	16
290	870	21
300	1110	27
310.01	1380	34
320	1680	41
330.01	2020	49

System: 1-butene + 3-pentanol; phases: Liquid, Gas
Fixed: Mole fraction of 1-butene = 0
Property: Activity coefficient of 1-butene (Liquid); method: OTHER
Temperature, K	Activity coefficient of 1-butene	uncertainty
259.96	3.27	0.1
270.02	3.16	0.09
280	3.05	0.09
290	2.96	0.09
300	2.86	0.09
310.01	2.72	0.08
320	2.61	0.08
330	2.49	0.07

System: 1-butene + 3-pentanol; phases: Liquid, Gas
Fixed: Mole fraction of 1-butene = 0
Property: Henry's Law constant (mole fraction scale), kPa of 1-butene (Liquid); method: OTHER
Temperature, K	Henry's Law constant (mole fraction scale), kPa of 1-butene	uncertainty
259.96	243	6
270.02	347	9
280	475	12
290	640	16
300	830	20
310.01	1030	25
320	1260	31
330	1520	37

System: 2-methylpropene + 3-pentanol; phases: Liquid, Gas
Fixed: Mole fraction of 2-methylpropene = 0
Property: Activity coefficient of 2-methylpropene (Liquid); method: OTHER
Temperature, K	Activity coefficient of 2-methylpropene	uncertainty
259.96	3.25	0.1
270.02	3.15	0.09
280	3.04	0.09
290	2.93	0.09
300	2.82	0.08
310.01	2.69	0.08
320	2.56	0.08
330.01	2.43	0.07

System: 2-methylpropene + 3-pentanol; phases: Liquid, Gas
Fixed: Mole fraction of 2-methylpropene = 0
Property: Henry's Law constant (mole fraction scale), kPa of 2-methylpropene (Liquid); method: OTHER
Temperature, K	Henry's Law constant (mole fraction scale), kPa of 2-methylpropene	uncertainty
259.96	245	6
270.02	350	9
280	481	12
290	640	16
300	830	20
310.01	1030	25
320	1260	31
330.01	1500	37

System: 3-pentanol + (E)-2-butene; phases: Liquid, Gas
Fixed: Mole fraction of (E)-2-butene = 0
Property: Activity coefficient of (E)-2-butene (Liquid); method: OTHER
Temperature, K	Activity coefficient of (E)-2-butene	uncertainty
259.96	3.12	0.09
270.02	3.06	0.09
280	2.96	0.09
290	2.88	0.09
300	2.77	0.08
310.01	2.67	0.08
320	2.54	0.08
330.01	2.5	0.08

System: 3-pentanol + (E)-2-butene; phases: Liquid, Gas
Fixed: Mole fraction of (E)-2-butene = 0
Property: Henry's Law constant (mole fraction scale), kPa of (E)-2-butene (Liquid); method: OTHER
Temperature, K	Henry's Law constant (mole fraction scale), kPa of (E)-2-butene	uncertainty
259.96	174	4
270.02	257	6
280	357	9
290	486	12
300	640	16
310.01	810	20
320	1000	25
330.01	1250	31

System: 1,3-butadiene + 3-pentanol; phases: Liquid, Gas
Fixed: Mole fraction of 1,3-butadiene = 0
Property: Activity coefficient of 1,3-butadiene (Liquid); method: OTHER
Temperature, K	Activity coefficient of 1,3-butadiene	uncertainty
259.98	3.18	0.1
270.02	3.03	0.09
280	2.92	0.09
290	2.75	0.08
300	2.63	0.08

System: 1,3-butadiene + 3-pentanol; phases: Liquid, Gas
Fixed: Mole fraction of 1,3-butadiene = 0
Property: Henry's Law constant (mole fraction scale), kPa of 1,3-butadiene (Liquid); method: OTHER
Temperature, K	Henry's Law constant (mole fraction scale), kPa of 1,3-butadiene	uncertainty
259.98	221	5
270.02	313	8
280	430	11
290	560	14
300	720	18
