Measured thermophysical data. Thermodynamic and spectroscopic properties of Co7/3Sb2/3O4
Source: J. Chem. Thermodyn., 2014, 10.1016/j.jct.2014.01.029
Compound 1: antimony cobalt oxide (Sb2Co7O12), Co7O12Sb2, InChI=1S/7Co.12O.2Sb/q7*+2;;;4*-2;6*-1;;, purity 99%

System: antimony cobalt oxide (Sb2Co7O12); phases: Crystal 3, Crystal 2, Gas
Property: Triple point temperature, K (Crystal 3); method: Adiabatic calorimetry
Triple point temperature, K	uncertainty
60.3	0.3

System: antimony cobalt oxide (Sb2Co7O12); phases: Crystal 2, Crystal 1, Air at 1 atmosphere
Property: Triple point temperature, K (Crystal 2); method: DTA
Triple point temperature, K	uncertainty
1145	10

System: antimony cobalt oxide (Sb2Co7O12); phases: Crystal 2
Fixed: Pressure, kPa = 101.325
Property: Mass density, kg/m3 (Crystal 2); method: X-ray diffraction
Temperature, K	Mass density, kg/m3	uncertainty
298	6176	11
373	6168	11
473	6149	11
573	6136	11
673	6105	11
773	6063	11
873	6031	11
973	5992	11
1073	5964	11
1173	5938	11

System: antimony cobalt oxide (Sb2Co7O12); phases: Crystal 2
Fixed: Pressure, kPa = 101.325
Property: Molar heat capacity at constant pressure, J/K/mol (Crystal 2); method: Vacuum adiabatic calorimetry
Temperature, K	Molar heat capacity at constant pressure, J/K/mol	uncertainty
61	107.85	0.48
62	109.2	0.48
63	110.7	0.48
64	111.84	0.48
65	113.31	0.48
70	120.45	0.54
80	139.56	0.6
90	157.98	0.69
100	174.69	0.75
110	191.82	0.81
120	209.82	0.9
130	228.06	0.96
140	245.97	1.05
150	263.22	1.11
160	279.84	1.17
170	295.77	1.23
180	311.1	1.2
190	325.5	1.5
200	339	1.5
210	352.5	1.5
220	365.4	1.5
230	377.7	1.5
240	389.1	1.5
250	399.9	1.8
260	410.1	1.8
270	420	1.8
273.15	423	1.8
280	429.3	1.8
290	438.3	1.8
298.15	445.2	1.8
300	446.7	1.8
310	454.8	1.8
320	462	1.8
327	466.8	1.8

System: antimony cobalt oxide (Sb2Co7O12); phases: Crystal 2
Fixed: Pressure, kPa = 101.325
Property: Molar enthalpy, kJ/mol (Crystal 2); method: Vacuum adiabatic calorimetry
Temperature, K	Molar enthalpy, kJ/mol	uncertainty
61	2.3469	0.0243
62	2.4552	0.0255
63	2.5656	0.0267
64	2.6766	0.0276
65	2.7891	0.0288
70	3.372	0.036
80	4.674	0.048
90	6.162	0.03
100	7.827	0.039
110	9.657	0.045
120	11.667	0.054
130	13.854	0.063
140	16.227	0.072
150	18.771	0.084
160	21.489	0.096
170	24.366	0.108
180	27.402	0.12
190	30.57	0.12
200	33.9	0.15
210	37.35	0.15
220	40.95	0.18
230	44.67	0.18
240	48.51	0.21
250	52.44	0.21
260	56.49	0.24
270	60.66	0.27
273.15	61.98	0.27
280	64.89	0.27
290	69.24	0.3
298.15	72.84	0.3
300	73.65	0.3
310	78.18	0.33
320	82.74	0.36
327	86.01	0.36

System: antimony cobalt oxide (Sb2Co7O12); phases: Crystal 2
Fixed: Pressure, kPa = 101.325
Property: Molar entropy, J/K/mol (Crystal 2); method: Vacuum adiabatic calorimetry
Temperature, K	Molar entropy, J/K/mol	uncertainty
61	61.17	0.93
62	62.94	0.96
63	64.71	0.99
64	66.45	1.02
65	68.19	1.05
70	76.83	1.17
80	94.2	1.44
90	111.69	0.75
100	129.21	0.84
110	146.67	0.96
120	164.1	1.05
130	181.62	1.17
140	199.2	1.26
150	216.75	1.38
160	234.27	1.47
170	251.73	1.59
180	269.07	1.68
190	286.26	1.8
200	303.3	1.8
210	320.1	2.1
220	336.9	2.1
230	353.4	2.1
240	369.6	2.4
250	385.8	2.4
260	401.7	2.4
270	417.3	2.7
273.15	422.1	2.7
280	432.9	2.7
290	447.9	2.7
298.15	460.2	3
300	462.9	3
310	477.9	3
320	492.3	3
327	502.5	3

System: antimony cobalt oxide (Sb2Co7O12); phases: Crystal 3
Fixed: Pressure, kPa = 101.325
Property: Molar heat capacity at constant pressure, J/K/mol (Crystal 3); method: Vacuum adiabatic calorimetry
Temperature, K	Molar heat capacity at constant pressure, J/K/mol	uncertainty
5	2.43	0.102
10	4.26	0.18
15	7.56	0.3
20	13.08	0.15
25	21.33	0.24
30	30.39	0.33
35	40.38	0.42
40	51.09	0.54
45	62.52	0.3
50	75.06	0.36
55	88.95	0.39
56	91.47	0.42
57	94.29	0.42
58	97.41	0.45
59	101.7	0.48
60	105.69	0.48

System: antimony cobalt oxide (Sb2Co7O12); phases: Crystal 3
Fixed: Pressure, kPa = 101.325
Property: Molar enthalpy, kJ/mol (Crystal 3); method: Vacuum adiabatic calorimetry
Temperature, K	Molar enthalpy, kJ/mol	uncertainty
5	0.0057	0.00018
10	0.0228	0.00054
15	0.051	0.0012
20	0.1023	0.0021
25	0.1875	0.0039
30	0.3165	0.0066
35	0.4929	0.0102
40	0.7215	0.0147
45	1.005	0.0108
50	1.3485	0.0141
55	1.758	0.0183
56	1.8483	0.0192
57	1.941	0.0201
58	2.037	0.0213
59	2.1363	0.0222
60	2.2398	0.0111

System: antimony cobalt oxide (Sb2Co7O12); phases: Crystal 3
Fixed: Pressure, kPa = 101.325
Property: Molar entropy, J/K/mol (Crystal 3); method: Vacuum adiabatic calorimetry
Temperature, K	Molar entropy, J/K/mol	uncertainty
5	1.9386	0.0675
10	4.239	0.135
15	6.483	0.204
20	9.384	0.291
25	13.149	0.402
30	17.832	0.543
35	23.256	0.705
40	29.34	0.888
45	36	0.57
50	43.23	0.66
55	51.03	0.78
56	52.65	0.81
57	54.3	0.84
58	55.98	0.87
59	57.66	0.87
60	59.4	0.9

System: antimony cobalt oxide (Sb2Co7O12); phases: Crystal 3
Fixed: Pressure, kPa = 101.325
Property: Molar heat capacity at constant pressure, J/K/mol (Crystal 3); method: Vacuum adiabatic calorimetry
Temperature, K	Molar heat capacity at constant pressure, J/K/mol	uncertainty
6.61	3.15	0.12
7.57	3.45	0.15
8.32	3.66	0.15
9.04	3.93	0.15
9.74	4.2	0.18
10.38	4.44	0.18
10.99	4.74	0.18
11.55	4.95	0.21
12.09	5.28	0.21
13.32	6.12	0.24
15.28	7.803	0.099
17.26	9.978	0.12
19.24	12.126	0.144
21.46	15.351	0.177
23.59	19.047	0.216
25.72	22.743	0.249
27.89	26.373	0.285
30.05	31.05	0.33
32.22	34.59	0.36
34.43	39.18	0.42
36.66	43.65	0.45
38.91	49.2	0.51
41.19	54.09	0.24
43.37	58.44	0.27
45.75	64.86	0.3
46.86	68.1	0.3
48.04	69.87	0.33
49.23	73.02	0.33
50.33	75.9	0.36
51.6	79.47	0.36
52.64	81.24	0.36
53.97	86.25	0.39
54.94	88.89	0.39
56.34	92.55	0.42
57.24	95.4	0.42
58.71	98.97	0.45
59.53	104.64	0.54

System: antimony cobalt oxide (Sb2Co7O12); phases: Crystal 2
Fixed: Pressure, kPa = 101.325
Property: Molar heat capacity at constant pressure, J/K/mol (Crystal 2); method: Vacuum adiabatic calorimetry
Temperature, K	Molar heat capacity at constant pressure, J/K/mol	uncertainty
61.83	108.18	0.48
64.13	112.11	0.48
66.45	115.02	0.51
68.77	118.23	0.51
71.1	122.55	0.54
73.43	127.56	0.57
75.75	131.73	0.57
78.07	136.11	0.6
80.39	140.34	0.6
82.71	144.18	0.63
85.03	148.23	0.63
87.36	153.24	0.66
61.08	108.06	0.48
63.46	111.27	0.48
65.85	114.33	0.51
68.26	117.15	0.51
70.67	121.53	0.54
82.6	143.91	0.63
86.15	150.69	0.66
89.32	156.51	0.69
92.31	161.82	0.69
95.3	167.16	0.72
98.35	172.11	0.75
101.1	176.73	0.75
104.24	181.74	0.78
107.22	187.08	0.81
110.21	192.3	0.81
113.2	197.37	0.84
116.2	202.68	0.87
119.2	208.26	0.87
122.21	213.72	0.9
125.21	219.36	0.93
128.24	225.03	0.96
131.25	230.28	0.96
134.27	235.71	0.99
137.29	241.08	1.02
140.31	246.6	1.05
143.33	251.97	1.05
146.36	257.13	1.08
149.39	262.35	1.11
152.42	267.27	1.11
155.45	272.34	1.14
158.49	277.08	1.17
161.52	282.27	1.17
164.56	287.1	1.2
167.59	291.96	1.23
170.63	296.79	1.23
173.66	301.5	1.2
176.72	306.3	1.2
179.76	310.5	1.2
182.79	315	1.2
185.82	319.2	1.2
188.86	324	1.5
191.89	327.9	1.5
194.92	332.1	1.5
197.95	336.3	1.5
200.97	340.5	1.5
204	344.4	1.5
207.02	348.9	1.5
210.05	352.5	1.5
213.08	356.4	1.5
216.11	360.3	1.5
219.14	364.2	1.5
222.17	368.1	1.5
225.23	372.3	1.5
228.26	375.3	1.5
231.29	379.2	1.5
234.32	382.5	1.5
237.36	385.8	1.5
240.39	389.4	1.5
243.43	392.7	1.5
246.46	396	1.5
249.5	399	1.8
252.53	402.3	1.8
255.56	405.6	1.8
258.59	408.9	1.8
261.62	411.9	1.8
264.65	414.9	1.8
267.68	417.6	1.8
270.71	420.6	1.8
273.76	423.9	1.8
276.78	426.6	1.8
279.8	429	1.8
282.81	431.7	1.8
285.82	434.4	1.8
288.82	437.1	1.8
291.82	439.8	1.8
294.82	442.2	1.8
297.81	444.6	1.8
300.79	447.3	1.8
304.25	450.3	1.8
308.2	453.6	1.8
312.14	456.6	1.8
316.07	459.3	1.8
319.98	462	1.8
323.88	464.7	1.8
327.77	467.4	1.8
