Measured thermophysical data. Excess enthalpies of binary and ternary mixtures containing dibutyl ether (DBE), 1-butanol, and heptane at T = 298.15 K and 313.15 K
Source: J. Chem. Thermodyn., 2010, 10.1016/j.jct.2009.07.014
Compound 1: dibutyl ether, C8H18O, InChI=1S/C8H18O/c1-3-5-7-9-8-6-4-2/h3-8H2,1-2H3
Compound 2: butan-1-ol, C4H10O, InChI=1S/C4H10O/c1-2-3-4-5/h5H,2-4H2,1H3
Compound 3: heptane, C7H16, InChI=1S/C7H16/c1-3-5-7-6-4-2/h3-7H2,1-2H3

System: heptane + dibutyl ether; phases: Liquid
Fixed: Pressure, kPa = 101.3
Property: Excess molar enthalpy (molar enthalpy of mixing), kJ/mol (Liquid); method: Flow calorimetry
Temperature, K	Mole fraction of dibutyl ether	Excess molar enthalpy (molar enthalpy of mixing), kJ/mol	uncertainty
298.15	0.0497	0.0266	0.0013
298.15	0.1002	0.0506	0.0016
298.15	0.1498	0.069	0.0019
298.15	0.2	0.0851	0.0022
298.15	0.2501	0.098	0.0024
298.15	0.3	0.1081	0.0026
298.15	0.3506	0.1157	0.0028
298.15	0.4	0.1205	0.0029
298.15	0.4501	0.123	0.0029
298.15	0.5	0.1228	0.0029
298.15	0.5496	0.1213	0.0029
298.15	0.5998	0.1169	0.0028
298.15	0.6498	0.1096	0.0027
298.15	0.6994	0.1004	0.0025
298.15	0.7498	0.0889	0.0023
298.15	0.7998	0.0751	0.002
298.15	0.8505	0.0576	0.0017
298.15	0.8996	0.0398	0.0014
298.15	0.9494	0.019	0.0011
313.15	0.0496	0.0273	0.0013
313.15	0.1001	0.0509	0.0016
313.15	0.1496	0.0681	0.0019
313.15	0.1998	0.0843	0.0022
313.15	0.2499	0.0974	0.0024
313.15	0.2998	0.1075	0.0026
313.15	0.3503	0.1151	0.0028
313.15	0.3998	0.1198	0.0029
313.15	0.4499	0.1221	0.0029
313.15	0.4998	0.1218	0.0029
313.15	0.5494	0.1193	0.0028
313.15	0.5997	0.115	0.0028
313.15	0.6496	0.108	0.0026
313.15	0.6993	0.0989	0.0025
313.15	0.7496	0.0871	0.0022
313.15	0.7996	0.0734	0.002
313.15	0.8503	0.0575	0.0017
313.15	0.8995	0.0399	0.0014
313.15	0.9494	0.0206	0.0011

System: butan-1-ol + dibutyl ether; phases: Liquid
Fixed: Pressure, kPa = 101.3
Property: Excess molar enthalpy (molar enthalpy of mixing), kJ/mol (Liquid); method: Flow calorimetry
Temperature, K	Mole fraction of dibutyl ether	Excess molar enthalpy (molar enthalpy of mixing), kJ/mol	uncertainty
298.15	0.0501	0.1194	0.0047
298.15	0.1002	0.236	0.0064
298.15	0.1497	0.3445	0.0083
298.15	0.2003	0.4476	0.0102
298.15	0.2503	0.5402	0.0121
298.15	0.3004	0.6246	0.0137
298.15	0.3498	0.6984	0.0152
298.15	0.4006	0.7621	0.0165
298.15	0.4507	0.814	0.0176
298.15	0.4997	0.8532	0.0184
298.15	0.5506	0.8798	0.0189
298.15	0.5998	0.8924	0.0192
298.15	0.6505	0.8906	0.0192
298.15	0.7	0.8726	0.0188
298.15	0.7509	0.8332	0.018
298.15	0.8	0.7728	0.0168
298.15	0.8501	0.6791	0.0151
298.15	0.8994	0.5431	0.0131
298.15	0.9493	0.3301	0.01
313.15	0.0501	0.1423	0.0055
313.15	0.1003	0.2791	0.0075
313.15	0.1498	0.4067	0.0097
313.15	0.2004	0.5275	0.012
313.15	0.2502	0.6358	0.0141
313.15	0.3004	0.7341	0.0161
313.15	0.3497	0.8188	0.0178
313.15	0.4004	0.8936	0.0193
313.15	0.4505	0.9531	0.0205
313.15	0.4995	0.9978	0.0215
313.15	0.5503	1.0286	0.0221
313.15	0.5994	1.0443	0.0224
313.15	0.6502	1.0408	0.0223
313.15	0.6997	1.0179	0.0219
313.15	0.7506	0.9669	0.0209
313.15	0.7998	0.8935	0.0194
313.15	0.8499	0.7794	0.0174
313.15	0.8993	0.6142	0.0149
313.15	0.9494	0.364	0.0113

System: butan-1-ol + heptane; phases: Liquid
Fixed: Pressure, kPa = 101.3
Property: Excess molar enthalpy (molar enthalpy of mixing), kJ/mol (Liquid); method: Flow calorimetry
Temperature, K	Mole fraction of heptane	Excess molar enthalpy (molar enthalpy of mixing), kJ/mol	uncertainty
298.15	0.0502	0.0736	0.0031
298.15	0.0999	0.1472	0.0041
298.15	0.1504	0.2172	0.0054
298.15	0.2	0.282	0.0066
298.15	0.2498	0.3444	0.0078
298.15	0.2998	0.4015	0.009
298.15	0.3497	0.4526	0.01
298.15	0.4004	0.4991	0.011
298.15	0.4496	0.54	0.0118
298.15	0.5001	0.5751	0.0125
298.15	0.5498	0.6009	0.0131
298.15	0.5996	0.6177	0.0134
298.15	0.6504	0.6231	0.0135
298.15	0.6999	0.6166	0.0134
298.15	0.7501	0.5981	0.013
298.15	0.7998	0.5668	0.0124
298.15	0.8502	0.5221	0.0115
298.15	0.8998	0.4587	0.0104
298.15	0.9497	0.3611	0.0085
313.15	0.0502	0.1031	0.0041
313.15	0.1	0.205	0.0056
313.15	0.1505	0.3041	0.0074
313.15	0.2001	0.395	0.0091
313.15	0.2499	0.4805	0.0108
313.15	0.2999	0.5605	0.0124
313.15	0.3498	0.6322	0.0139
313.15	0.4004	0.6965	0.0152
313.15	0.4496	0.7508	0.0163
313.15	0.5002	0.7952	0.0172
313.15	0.5499	0.8268	0.0178
313.15	0.5997	0.8469	0.0182
313.15	0.6505	0.854	0.0184
313.15	0.6999	0.8467	0.0182
313.15	0.7501	0.8252	0.0178
313.15	0.7998	0.7888	0.0171
313.15	0.8502	0.7329	0.016
313.15	0.8997	0.6496	0.0145
313.15	0.9497	0.5083	0.0119

System: butan-1-ol + heptane + dibutyl ether; phases: Liquid
Fixed: Pressure, kPa = 101.3
Property: Excess molar enthalpy (molar enthalpy of mixing), kJ/mol (Liquid); method: Flow calorimetry
Temperature, K	Mole fraction of heptane	Mole fraction of butan-1-ol	Excess molar enthalpy (molar enthalpy of mixing), kJ/mol	uncertainty
298.15	0.0996	0.5403	0.8038	0.02
298.15	0.0998	0.5854	0.5385	0.0154
298.15	0.1002	0.1799	0.7726	0.0167
298.15	0.1014	0.3591	0.8945	0.0193
298.15	0.1996	0.4803	0.8273	0.0179
298.15	0.1996	0.5379	0.6144	0.0149
298.15	0.2005	0.1598	0.7598	0.0164
298.15	0.2021	0.3188	0.8866	0.0191
298.15	0.2997	0.4202	0.8324	0.018
298.15	0.2997	0.4881	0.6711	0.0152
298.15	0.2998	0.14	0.735	0.0159
298.15	0.303	0.2785	0.8623	0.0186
298.15	0.3999	0.3601	0.8196	0.0177
298.15	0.4002	0.1199	0.6977	0.0152
298.15	0.4002	0.4348	0.7062	0.0155
298.15	0.4033	0.2384	0.8202	0.0177
298.15	0.4995	0.3794	0.7135	0.0155
298.15	0.4997	0.1	0.6481	0.0141
298.15	0.4999	0.3001	0.7831	0.0169
298.15	0.5037	0.1983	0.7652	0.0165
298.15	0.5994	0.2404	0.7301	0.0158
298.15	0.5999	0.3193	0.6982	0.0152
298.15	0.6003	0.0799	0.5848	0.0129
298.15	0.6035	0.1584	0.6958	0.0151
298.15	0.6994	0.1804	0.6561	0.0142
298.15	0.6999	0.06	0.5059	0.0114
298.15	0.7	0.2532	0.6534	0.0142
298.15	0.7034	0.1185	0.61	0.0134
298.15	0.7996	0.0401	0.4111	0.0098
298.15	0.7996	0.1203	0.556	0.0122
298.15	0.8002	0.185	0.5733	0.0125
298.15	0.8025	0.0789	0.5046	0.0114
298.15	0.8999	0.0601	0.4171	0.0097
298.15	0.9	0.08	0.4451	0.01
298.15	0.9003	0.0199	0.2831	0.0094
298.15	0.9018	0.0392	0.366	0.0097
313.15	0.0997	0.5402	0.953	0.0205
313.15	0.0999	0.7201	0.6574	0.0151
313.15	0.1003	0.1798	0.8987	0.0194
313.15	0.1005	0.3597	1.0539	0.0227
313.15	0.1997	0.1599	0.8863	0.0191
313.15	0.1997	0.4802	0.9937	0.0214
313.15	0.1998	0.6402	0.7665	0.0172
313.15	0.2003	0.3198	1.0526	0.0226
313.15	0.2998	0.5602	0.8477	0.0186
313.15	0.2999	0.4201	1.0114	0.0217
313.15	0.3	0.1399	0.8608	0.0186
313.15	0.3004	0.2798	1.0341	0.0222
313.15	0.4001	0.3599	1.0072	0.0216
313.15	0.4003	0.4798	0.9017	0.0195
313.15	0.4004	0.1198	0.8216	0.0178
313.15	0.4005	0.2398	0.9984	0.0215
313.15	0.4996	0.4004	0.9249	0.0199
313.15	0.4999	0.0999	0.7698	0.0168
313.15	0.5001	0.1999	0.9456	0.0204
313.15	0.5001	0.2999	0.9806	0.0211
313.15	0.5996	0.2402	0.9297	0.02
313.15	0.5997	0.1601	0.875	0.019
313.15	0.6	0.32	0.9156	0.0197
313.15	0.6005	0.0798	0.7013	0.0155
313.15	0.6995	0.1202	0.7829	0.0172
313.15	0.6995	0.1803	0.8519	0.0184
313.15	0.7	0.24	0.867	0.0187
313.15	0.7001	0.0599	0.6164	0.0141
313.15	0.7996	0.0801	0.6625	0.0151
313.15	0.7996	0.1202	0.7391	0.0161
313.15	0.7997	0.04	0.5053	0.0127
313.15	0.8002	0.1599	0.7753	0.0168
313.15	0.8998	0.0401	0.4856	0.0139
313.15	0.8999	0.0601	0.5652	0.0133
313.15	0.8999	0.0801	0.6142	0.0139
313.15	0.9004	0.0199	0.3406	0.0137
