Measured thermophysical data. Determination and correlation of solubility of 11alpha,17alpha-dihydroxy-4-pregnene-3,20-dione in different solvents
Source: J. Chem. Thermodyn., 2017, 10.1016/j.jct.2016.10.046
Compound 1: 11.alpha.,17-dihydroxyprogesterone, C21H30O4, InChI=1S/C21H30O4/c1-12(22)21(25)9-7-16-15-5-4-13-10-14(23)6-8-19(13,2)18(15)17(24)11-20(16,21)3/h10,15-18,24-25H,4-9,11H2,1-3H3/t15-,16-,17+,18+,19-,20-,21-/m0/s1, purity 99.5%
Compound 2: methanol, CH4O, InChI=1S/CH4O/c1-2/h2H,1H3, purity 99.5%
Compound 3: propan-1-ol, C3H8O, InChI=1S/C3H8O/c1-2-3-4/h4H,2-3H2,1H3, purity 99.5%
Compound 4: acetone, C3H6O, InChI=1S/C3H6O/c1-3(2)4/h1-2H3, purity 99.5%
Compound 5: dimethylformamide, C3H7NO, InChI=1S/C3H7NO/c1-4(2)3-5/h3H,1-2H3, purity 99.5%
Compound 6: trichloromethane, CHCl3, InChI=1S/CHCl3/c2-1(3)4/h1H, purity 99.5%
Compound 7: water, H2O, InChI=1S/H2O/h1H2

System: 11.alpha.,17-dihydroxyprogesterone; phases: Crystal, Liquid, Air at 1 atmosphere
Property: Normal melting temperature, K (Crystal); method: DTA
Normal melting temperature, K	uncertainty
495.81	1.06

System: 11.alpha.,17-dihydroxyprogesterone; phases: Crystal, Liquid, Air at 1 atmosphere
Property: Molar enthalpy of transition or fusion, kJ/mol (Crystal); method: DSC
Molar enthalpy of transition or fusion, kJ/mol	uncertainty
41.23	3.2

System: 11.alpha.,17-dihydroxyprogesterone + water; phases: Liquid, Crystal
Fixed: Pressure, kPa = 100
Property: Mole fraction of 11.alpha.,17-dihydroxyprogesterone (Liquid); method: Titration method
Temperature, K	Mole fraction of 11.alpha.,17-dihydroxyprogesterone	uncertainty
278.15	1.386e-05	1.66e-06
283.15	1.733e-05	2.08e-06
288.15	2.079e-05	2.5e-06
293.15	2.426e-05	2.91e-06
298.15	2.772e-05	3.33e-06
303.15	3.465e-05	4.16e-06
308.15	3.639e-05	4.37e-06
313.15	3.985e-05	4.78e-06

System: methanol + 11.alpha.,17-dihydroxyprogesterone; phases: Liquid, Crystal
Fixed: Pressure, kPa = 100
Property: Mole fraction of 11.alpha.,17-dihydroxyprogesterone (Liquid); method: Titration method
Temperature, K	Mole fraction of 11.alpha.,17-dihydroxyprogesterone	uncertainty
278.15	0.01386	0.00166
283.15	0.01472	0.00177
288.15	0.01587	0.0019
293.15	0.01717	0.00206
298.15	0.0181	0.00217
303.15	0.02059	0.00247
308.15	0.02317	0.00278
313.15	0.02487	0.00299

System: propan-1-ol + 11.alpha.,17-dihydroxyprogesterone; phases: Liquid, Crystal
Fixed: Pressure, kPa = 100
Property: Mole fraction of 11.alpha.,17-dihydroxyprogesterone (Liquid); method: Titration method
Temperature, K	Mole fraction of 11.alpha.,17-dihydroxyprogesterone	uncertainty
278.15	0.00838	0.001006
283.15	0.009777	0.001174
288.15	0.01116	0.00134
293.15	0.01293	0.00155
298.15	0.01344	0.00161
303.15	0.01426	0.00171
308.15	0.01572	0.00189
313.15	0.0169	0.00203

System: acetone + 11.alpha.,17-dihydroxyprogesterone; phases: Liquid, Crystal
Fixed: Pressure, kPa = 100
Property: Mole fraction of 11.alpha.,17-dihydroxyprogesterone (Liquid); method: Titration method
Temperature, K	Mole fraction of 11.alpha.,17-dihydroxyprogesterone	uncertainty
278.15	0.006785	0.000814
283.15	0.007612	0.000914
288.15	0.008041	0.000965
293.15	0.008589	0.001031
298.15	0.009497	0.00114
303.15	0.01058	0.00127
308.15	0.01147	0.00138
313.15	0.01225	0.00147

System: dimethylformamide + 11.alpha.,17-dihydroxyprogesterone; phases: Liquid, Crystal
Fixed: Pressure, kPa = 100
Property: Mole fraction of 11.alpha.,17-dihydroxyprogesterone (Liquid); method: Titration method
Temperature, K	Mole fraction of 11.alpha.,17-dihydroxyprogesterone	uncertainty
278.15	0.06587	0.00791
283.15	0.07216	0.00866
288.15	0.07527	0.00903
293.15	0.0825	0.0099
298.15	0.09432	0.01132
303.15	0.1003	0.012
308.15	0.1104	0.0133
313.15	0.1188	0.0143

System: trichloromethane + 11.alpha.,17-dihydroxyprogesterone; phases: Liquid, Crystal
Fixed: Pressure, kPa = 100
Property: Mole fraction of 11.alpha.,17-dihydroxyprogesterone (Liquid); method: Titration method
Temperature, K	Mole fraction of 11.alpha.,17-dihydroxyprogesterone	uncertainty
278.15	0.01285	0.00154
283.15	0.01339	0.00161
288.15	0.01408	0.00169
293.15	0.01465	0.00176
298.15	0.01573	0.00189
303.15	0.01603	0.00192
308.15	0.01724	0.00207
313.15	0.01889	0.00227

System: methanol + 11.alpha.,17-dihydroxyprogesterone + water; phases: Liquid, Crystal
Fixed: Pressure, kPa = 100
Property: Mole fraction of 11.alpha.,17-dihydroxyprogesterone (Liquid); method: Titration method
Temperature, K	Solvent: Mole fraction of water	Mole fraction of 11.alpha.,17-dihydroxyprogesterone	uncertainty
278.15	0	0.01386	0.00194
278.15	0.3078	0.008443	0.001183
278.15	0.4326	0.00538	0.000754
278.15	0.5424	0.003114	0.000436
278.15	0.6402	0.001419	0.000199
278.15	0.7274	0.0005062	7.1e-05
278.15	0.8768	0.0001438	2.02e-05
278.15	1	1.386e-05	1.94e-06
283.15	0	0.01472	0.00206
283.15	0.3078	0.01035	0.00145
283.15	0.4326	0.005543	0.000777
283.15	0.5424	0.003504	0.000491
283.15	0.6402	0.001595	0.000224
283.15	0.7274	0.000651	9.12e-05
283.15	0.8768	0.0001671	2.34e-05
283.15	1	1.733e-05	2.43e-06
288.15	0	0.01587	0.00222
288.15	0.3078	0.01114	0.00156
288.15	0.4326	0.00578	0.00081
288.15	0.5424	0.003894	0.000546
288.15	0.6402	0.002125	0.000298
288.15	0.7274	0.0007706	0.000108
288.15	0.8768	0.0002293	3.21e-05
288.15	1	2.079e-05	2.91e-06
293.15	0	0.01717	0.0024
293.15	0.3078	0.01245	0.00174
293.15	0.4326	0.007851	0.0011
293.15	0.5424	0.004276	0.000599
293.15	0.6402	0.002324	0.000326
293.15	0.7274	0.0008986	0.0001259
293.15	0.8768	0.0002643	3.7e-05
293.15	1	2.426e-05	3.4e-06
298.15	0	0.0181	0.00253
298.15	0.3078	0.01401	0.00196
298.15	0.4326	0.009203	0.001289
298.15	0.5424	0.004973	0.000697
298.15	0.6402	0.002598	0.000364
298.15	0.7274	0.001018	0.000143
298.15	0.8768	0.0002798	3.92e-05
298.15	1	2.772e-05	3.88e-06
303.15	0	0.02059	0.00288
303.15	0.3078	0.01607	0.00225
303.15	0.4326	0.01029	0.00144
303.15	0.5424	0.005708	0.0008
303.15	0.6402	0.003291	0.000461
303.15	0.7274	0.001234	0.000173
303.15	0.8768	0.0003614	5.06e-05
303.15	1	3.465e-05	4.85e-06
308.15	0	0.02317	0.00324
308.15	0.3078	0.01842	0.00258
308.15	0.4326	0.01138	0.00159
308.15	0.5424	0.006472	0.000907
308.15	0.6402	0.003602	0.000505
308.15	0.7274	0.001418	0.000199
308.15	0.8768	0.0003886	5.44e-05
308.15	1	3.639e-05	5.1e-06
313.15	0	0.02487	0.00348
313.15	0.3078	0.02053	0.00287
313.15	0.4326	0.01341	0.00188
313.15	0.5424	0.007464	0.001046
313.15	0.6402	0.004035	0.000566
313.15	0.7274	0.001567	0.00022
313.15	0.8768	0.0004391	6.17e-05
313.15	1	3.985e-05	5.58e-06

System: acetone + 11.alpha.,17-dihydroxyprogesterone + water; phases: Liquid, Crystal
Fixed: Pressure, kPa = 100
Property: Mole fraction of 11.alpha.,17-dihydroxyprogesterone (Liquid); method: Titration method
Temperature, K	Solvent: Mole fraction of water	Mole fraction of 11.alpha.,17-dihydroxyprogesterone	uncertainty
278.15	0	0.006785	0.00095
278.15	0.231	0.00947	0.001327
278.15	0.4464	0.02201	0.00308
278.15	0.5046	0.02638	0.00369
278.15	0.5508	0.02465	0.00345
278.15	0.5802	0.02171	0.00304
278.15	0.6825	0.007811	0.001096
278.15	0.7633	0.005491	0.000769
278.15	0.8287	0.003487	0.000488
278.15	0.9281	0.0009721	0.0001362
278.15	1	1.386e-05	1.94e-06
283.15	0	0.007612	0.001066
283.15	0.231	0.01051	0.00147
283.15	0.4464	0.02314	0.00324
283.15	0.5046	0.02753	0.00385
283.15	0.5508	0.02601	0.00364
283.15	0.5802	0.02307	0.00323
283.15	0.6825	0.008399	0.001178
283.15	0.7633	0.006198	0.000868
283.15	0.8287	0.003844	0.000538
283.15	0.9281	0.001119	0.000157
283.15	1	1.733e-05	2.43e-06
288.15	0	0.008041	0.001126
288.15	0.231	0.01139	0.0016
288.15	0.4464	0.02457	0.00344
288.15	0.5046	0.02929	0.0041
288.15	0.5508	0.02717	0.0038
288.15	0.5802	0.02528	0.00354
288.15	0.6825	0.009169	0.001286
288.15	0.7633	0.006507	0.000911
288.15	0.8287	0.004463	0.000625
288.15	0.9281	0.001264	0.000177
288.15	1	2.079e-05	2.91e-06
293.15	0	0.008589	0.001203
293.15	0.231	0.01247	0.00175
293.15	0.4464	0.02613	0.00366
293.15	0.5046	0.0309	0.00433
293.15	0.5508	0.02878	0.00403
293.15	0.5802	0.02706	0.00379
293.15	0.6825	0.01003	0.00141
293.15	0.7633	0.007156	0.001002
293.15	0.8287	0.004842	0.000678
293.15	0.9281	0.001341	0.000188
293.15	1	2.426e-05	3.4e-06
298.15	0	0.009497	0.00133
298.15	0.231	0.014	0.00196
298.15	0.4464	0.02826	0.00396
298.15	0.5046	0.03217	0.0045
298.15	0.5508	0.03065	0.00429
298.15	0.5802	0.02902	0.00407
298.15	0.6825	0.01089	0.00153
298.15	0.7633	0.007884	0.001104
298.15	0.8287	0.005593	0.000783
298.15	0.9281	0.001453	0.000204
298.15	1	2.772e-05	3.88e-06
303.15	0	0.01058	0.00148
303.15	0.231	0.0156	0.00218
303.15	0.4464	0.03004	0.00421
303.15	0.5046	0.03413	0.00478
303.15	0.5508	0.03168	0.00444
303.15	0.5802	0.03029	0.00424
303.15	0.6825	0.01214	0.0017
303.15	0.7633	0.008748	0.001225
303.15	0.8287	0.006364	0.000891
303.15	0.9281	0.001644	0.00023
303.15	1	3.465e-05	4.85e-06
308.15	0	0.01147	0.00161
308.15	0.231	0.01683	0.00236
308.15	0.4464	0.03248	0.00455
308.15	0.5046	0.03667	0.00513
308.15	0.5508	0.03356	0.0047
308.15	0.5802	0.03239	0.00454
308.15	0.6825	0.01327	0.00186
308.15	0.7633	0.009724	0.001362
308.15	0.8287	0.006821	0.000955
308.15	0.9281	0.001851	0.000259
308.15	1	3.639e-05	5.1e-06
313.15	0	0.01225	0.00172
313.15	0.231	0.01858	0.0026
313.15	0.4464	0.03464	0.00485
313.15	0.5046	0.03874	0.00542
313.15	0.5508	0.03531	0.00494
313.15	0.5802	0.03381	0.00474
313.15	0.6825	0.01452	0.00204
313.15	0.7633	0.01042	0.00146
313.15	0.8287	0.007097	0.000994
313.15	0.9281	0.001948	0.000273
313.15	1	3.985e-05	5.58e-06
