Measured thermophysical data. Measurement and modelling of the vapor-liquid equilibrium of (CO2 + CO) at temperatures between (218.15 and 302.93) K at pressures up to 15 MPa
Source: J. Chem. Thermodyn., 2018, 10.1016/j.jct.2018.06.022
Compound 1: carbon dioxide, CO2, InChI=1S/CO2/c2-1-3, purity 99.995%
Compound 2: carbon monoxide, CO, InChI=1S/CO/c1-2, purity 99.9%

System: carbon dioxide; phases: Liquid, Gas
Property: Vapor or sublimation pressure, kPa (Liquid); method: Closed cell (Static) method
Temperature, K	Vapor or sublimation pressure, kPa	uncertainty
218.15	552.5	18
233.148	1004.4	18.1
243.146	1428	18.1
258.15	2293.7	18.3
273.151	3484.6	18.7
288.188	5089.6	19.4
302.94	7171.2	20.7

System: carbon dioxide + carbon monoxide; phases: Liquid, Gas
Property: Vapor or sublimation pressure, kPa (Liquid); method: Closed cell (Static) method
Mole fraction of carbon monoxide	Temperature, K	Vapor or sublimation pressure, kPa	uncertainty
0	218.15	552.5	18.1
0.0041	218.146	766.3	18.8
0.0169	218.147	1359.5	32.9
0.0364	218.146	2220.3	33.8
0.0595	218.147	3224.9	46.6
0.0815	218.146	4161.2	58.9
0.1024	218.149	5022.4	68.6
0.1231	218.146	5877.3	80.3
0.1461	218.145	6840.8	87.1
0.1678	218.151	7627.1	89.7
0.1858	218.146	8262	93.7
0.2183	218.153	9370.5	103.4
0.2394	218.15	10025	101.7
0.2698	218.15	10873.5	99.1
0.2953	218.153	11534.4	94.9
0.3255	218.153	12233.2	91.6
0.3606	218.156	12976.1	81
0.416	218.155	13847.5	71.3
0.4588	218.153	14306.9	58.3
0.4924	218.153	14519.4	53.2
0.5117	218.153	14631.5	52.1
0	233.148	1004.4	18.2
0.0065	233.142	1306.3	19
0.0184	233.142	1852.3	23.1
0.0388	233.142	2759.8	34
0.0617	233.139	3752.6	49.2
0.0864	233.139	4786.9	59.9
0.1167	233.139	6016.9	74.8
0.1512	233.14	7368.5	85.5
0.1961	233.14	8921.1	93.9
0.2468	233.14	10446	95.3
0.2471	233.14	10448.9	94.3
0.2991	233.142	11714.5	94.5
0.3295	233.14	12359.2	86.7
0.3542	233.141	12791.3	75.8
0.3824	233.14	13197.9	69.7
0.4028	233.139	13433.5	62
0.4218	233.14	13606.7	58.3
0	243.146	1428	18.5
0.0039	243.156	1608.6	18.8
0.0114	243.16	1952.6	20.7
0.0306	243.157	2815	30.4
0.05	243.157	3650.2	43.2
0.0686	243.161	4380.9	65.7
0.0784	243.151	4975.4	70.5
0.0983	243.141	5686.5	62.1
0.1183	243.136	6458.1	73.5
0.1432	243.138	7372.7	81.7
0.1665	243.137	8176.3	86.1
0.185	243.139	8807.1	91.8
0.212	243.14	9622.2	90.9
0.238	243.152	10350.3	90.5
0.2744	243.152	11252.2	90.4
0.3057	243.152	11928.8	81.7
0.3278	243.143	12310.2	70.8
0.349	243.143	12625.9	68
0.3706	243.141	12886	62.7
0.3842	243.144	13015.1	56.7
0	258.15	2293.7	19.2
0.0032	258.13	2441.7	19.6
0.0028	258.135	2442	19.6
0.0163	258.141	3042.1	23.5
0.0323	258.14	3751.9	31.3
0.0479	258.133	4435.7	40.6
0.075	258.132	5549.8	54.1
0.1044	258.132	6683.3	67
0.1045	258.132	6684.2	63.8
0.1289	258.146	7543	87
0.1656	258.133	8783.2	80.1
0.2007	258.13	9809.8	86
0.2325	258.129	10607.8	83.7
0.2419	258.127	10939.3	87.6
0.265	258.126	11254.2	61.4
0.2888	258.126	11622.9	57.4
0.32	258.146	11907.5	52.5
0.3349	258.149	12021.1	50
0	273.151	3484.6	20.6
0.009	273.146	3867.8	21.9
0.0195	273.144	4315.3	25.3
0.0484	273.147	5478.9	40.3
0.0658	273.148	6141	45.8
0.0952	273.146	7182.4	60.8
0.117	273.149	7893.9	63.2
0.1406	273.149	8617.3	73.5
0.155	273.14	9041.6	67.6
0.1671	273.138	9414.8	90.5
0.183	273.145	9847	76
0.188	273.142	9931.8	63.7
0.2037	273.144	10241.8	66.2
0.2144	273.144	10411.8	52.4
0.2362	273.146	10664.7	51.8
0	288.188	5089.6	23.1
0.0072	288.146	5373.9	24.1
0.0164	288.156	5749	26.4
0.0437	288.157	6761.9	38.8
0.0556	288.161	7170.8	41.1
0.0797	288.156	7930.8	49.3
0.1001	288.161	8480.7	47.6
0.1001	288.159	8480.9	46.9
0.1271	288.164	8962.5	65.2
0.1296	288.157	9030.4	40.3
0.138	288.163	9099.7	33.8
0.1569	288.157	9186.7	33.8
0	302.94	7171.2	27.2
0.0028	302.938	7260.7	27.4
0.0053	302.936	7332.6	27.7
0.008	302.937	7406.8	28.1
0.008	302.937	7406.8	28.1
0.0097	302.936	7451.9	28.3

System: carbon dioxide + carbon monoxide; phases: Gas, Liquid
Property: Mole fraction of carbon monoxide (Gas); method: Chromatography
Mole fraction of carbon monoxide	Temperature, K	Mole fraction of carbon monoxide	uncertainty
0	218.15	0	
0.0041	218.146	0.2352	0.0057
0.0169	218.147	0.5435	0.0102
0.0364	218.146	0.6975	0.0055
0.0595	218.147	0.7653	0.0043
0.0815	218.146	0.7988	0.0036
0.1024	218.149	0.816	0.0032
0.1231	218.146	0.8248	0.0029
0.1461	218.145	0.8285	0.0028
0.1678	218.151	0.8291	0.0028
0.1858	218.146	0.8268	0.003
0.2183	218.153	0.8194	0.0034
0.2394	218.15	0.8129	0.0034
0.2698	218.15	0.802	0.0035
0.2953	218.153	0.7906	0.0038
0.3255	218.153	0.7752	0.0042
0.3606	218.156	0.7513	0.0048
0.416	218.155	0.7112	0.0054
0.4588	218.153	0.6748	0.0059
0.4924	218.153	0.646	0.0071
0.5117	218.153	0.6181	0.0083
0	233.148	0	
0.0065	233.142	0.2089	0.0044
0.0184	233.142	0.4169	0.0064
0.0388	233.142	0.5782	0.0065
0.0617	233.139	0.6522	0.0056
0.0864	233.139	0.6964	0.0048
0.1167	233.139	0.7249	0.0044
0.1512	233.14	0.7383	0.0041
0.1961	233.14	0.7383	0.0041
0.2468	233.14	0.722	0.0047
0.2471	233.14	0.7235	0.0044
0.2991	233.142	0.6996	0.0049
0.3295	233.14	0.6811	0.0053
0.3542	233.141	0.6641	0.0057
0.3824	233.14	0.6414	0.0062
0.4028	233.139	0.6233	0.0064
0.4218	233.14	0.6059	0.0067
0	243.146	0	
0.0039	243.156	0.0966	0.0026
0.0114	243.16	0.2329	0.0044
0.0306	243.157	0.4309	0.007
0.05	243.157	0.5257	0.0077
0.0686	243.161	0.575	0.0071
0.0784	243.151	0.6075	0.006
0.0983	243.141	0.6298	0.0054
0.1183	243.136	0.648	0.0051
0.1432	243.138	0.6607	0.0049
0.1665	243.137	0.6671	0.0049
0.185	243.139	0.6669	0.0049
0.212	243.14	0.664	0.0049
0.238	243.152	0.657	0.005
0.2744	243.152	0.6412	0.0054
0.3057	243.152	0.6217	0.0059
0.3278	243.143	0.6074	0.0061
0.349	243.143	0.5901	0.0069
0.3706	243.141	0.5702	0.0071
0.3842	243.144	0.5558	0.0073
0	258.15	0	
0.0032	258.13	0.0449	0.0018
0.0028	258.135	0.0406	0.0018
0.0163	258.141	0.1916	0.004
0.0323	258.14	0.3025	0.0053
0.0479	258.133	0.3733	0.006
0.075	258.132	0.4499	0.0066
0.1044	258.132	0.495	0.0065
0.1045	258.132	0.4952	0.0063
0.1289	258.146	0.5164	0.0094
0.1656	258.133	0.5299	0.0058
0.2007	258.13	0.5279	0.0061
0.2325	258.129	0.5173	0.0066
0.2419	258.127	0.5099	0.0063
0.265	258.126	0.5004	0.0064
0.2888	258.126	0.4841	0.0063
0.32	258.146	0.469	0.0069
0.3349	258.149	0.4527	0.0075
0	273.151	0	
0.009	273.146	0.071	0.0017
0.0195	273.144	0.1368	0.0029
0.0484	273.147	0.2562	0.0051
0.0658	273.148	0.3009	0.005
0.0952	273.146	0.35	0.0055
0.117	273.149	0.3709	0.0052
0.1406	273.149	0.383	0.0056
0.155	273.14	0.386	0.0054
0.1671	273.138	0.3855	0.0054
0.183	273.145	0.3753	0.0055
0.188	273.142	0.378	0.0055
0.2037	273.144	0.3685	0.0057
0.2144	273.144	0.3605	0.0058
0.2362	273.146	0.3419	0.0058
0	288.188	0	
0.0072	288.146	0.0316	0.0009
0.0164	288.156	0.0677	0.0017
0.0437	288.157	0.1396	0.0032
0.0556	288.161	0.1608	0.0031
0.0797	288.156	0.1881	0.0035
0.1001	288.161	0.198	0.0033
0.1001	288.159	0.198	0.0034
0.1271	288.164	0.1966	0.0035
0.1296	288.157	0.1954	0.0048
0.138	288.163	0.1926	0.0035
0.1569	288.157	0.1861	0.0035
0	302.94	0	
0.0028	302.938	0.0047	0.0002
0.0053	302.936	0.0082	0.0003
0.008	302.937	0.0114	0.0004
0.008	302.937	0.0114	0.0004
0.0097	302.936	0.0131	0.0004
