Measured thermophysical data. Thermochemistry of nitronaphthalenes and nitroanthracenes
Source: J. Chem. Thermodyn., 2006, 10.1016/j.jct.2005.08.007
Compound 1: carbon dioxide, CO2, InChI=1S/CO2/c2-1-3
Compound 2: nitrogen, N2, InChI=1S/N2/c1-2
Compound 3: water, H2O, InChI=1S/H2O/h1H2
Compound 4: oxygen, O2, InChI=1S/O2/c1-2
Compound 5: 1-nitronaphthalene, C10H7NO2, InChI=1S/C10H7NO2/c12-11(13)10-7-3-5-8-4-1-2-6-9(8)10/h1-7H, purity 99%
Compound 6: 9-nitroanthracene, C14H9NO2, InChI=1S/C14H9NO2/c16-15(17)14-12-7-3-1-5-10(12)9-11-6-2-4-8-13(11)14/h1-9H, purity 97%

System: 1-nitronaphthalene; phases: Crystal, Gas
Property: Vapor or sublimation pressure, kPa (Crystal); method: Calculated from knudsen effusion weight loss
Temperature, K	Vapor or sublimation pressure, kPa	uncertainty
305.142	0.0001735	8.7e-06
305.142	0.0001744	8.7e-06
305.142	0.0001738	8.7e-06
307.152	0.0002252	1.13e-05
307.152	0.0002215	1.11e-05
307.152	0.000218	1.09e-05
309.163	0.0002813	1.41e-05
309.163	0.0002824	1.41e-05
309.163	0.0002776	1.39e-05
311.146	0.0003518	1.76e-05
311.146	0.0003559	1.78e-05
311.146	0.0003531	1.77e-05
313.148	0.0004632	2.32e-05
313.148	0.0004566	2.29e-05
313.148	0.0004531	2.27e-05
315.129	0.0005799	2.9e-05
315.129	0.0005723	2.87e-05
315.129	0.0005739	2.87e-05
317.132	0.0006969	3.49e-05
317.132	0.0007016	3.51e-05
317.132	0.0006949	3.48e-05
319.168	0.0008754	4.38e-05
319.168	0.0008956	4.48e-05
319.168	0.0008803	4.41e-05
321.145	0.0011267	0.0001156
321.145	0.0011139	0.000114
321.145	0.001108	0.0001133

System: 9-nitroanthracene; phases: Crystal, Gas
Property: Vapor or sublimation pressure, kPa (Crystal); method: Calculated from knudsen effusion weight loss
Temperature, K	Vapor or sublimation pressure, kPa	uncertainty
361.11	0.00019	1e-05
361.11	0.000196	1e-05
361.11	0.000195	1e-05
363.08	0.000236	1.2e-05
363.08	0.000236	1.2e-05
363.08	0.000238	1.2e-05
365.26	0.000291	1.5e-05
365.26	0.000291	1.5e-05
365.26	0.000294	1.5e-05
367.09	0.000342	1.7e-05
367.09	0.000354	1.8e-05
367.09	0.000339	1.7e-05
369.04	0.000431	2.2e-05
369.04	0.000439	2.2e-05
369.04	0.000427	2.1e-05
371.26	0.000532	2.7e-05
371.26	0.000526	2.6e-05
371.26	0.000534	2.7e-05
373.26	0.00064	3.2e-05
373.26	0.000643	3.2e-05
373.26	0.000647	3.2e-05
375	0.000772	3.9e-05
375	0.000773	3.9e-05
375	0.000761	3.8e-05
377.06	0.000928	4.6e-05
377.06	0.000928	4.6e-05
377.06	0.000924	4.6e-05

Reaction: -1 1-nitronaphthalene + 10 carbon dioxide + .5 nitrogen + 3.5 water + -10.75 oxygen
Property: Specific internal energy of reaction at constant volume, J/g
-28785.7

Reaction: -1 9-nitroanthracene + 14 carbon dioxide + .5 nitrogen + 4.5 water + -15.25 oxygen
Property: Specific internal energy of reaction at constant volume, J/g
-30932.8
