Measured thermophysical data. A synthetic-dynamic method for water solubility measurements in high pressure CO2 using ATR FTIR spectroscopy
Source: J. Chem. Thermodyn., 2016, 10.1016/j.jct.2015.09.024
Compound 1: water, H2O, InChI=1S/H2O/h1H2, purity 99.9%
Compound 2: carbon dioxide, CO2, InChI=1S/CO2/c2-1-3, purity 99.99%

System: carbon dioxide; phases: Liquid, Gas
Property: Vapor or sublimation pressure, kPa (Liquid); method: ATR infrared spectroscopy
Temperature, K	Vapor or sublimation pressure, kPa	uncertainty
295.45	6020	490
297.05	6240	500
299.05	6520	530
302.65	7090	570
303.25	7180	580

System: carbon dioxide + water; phases: Gas, Liquid
Property: Boiling temperature at pressure P, K (Gas); method: ATR infrared spectroscopy
Pressure, kPa	Mole fraction of water	Boiling temperature at pressure P, K	uncertainty
4050	0.0355	379.75	2.7
4050	0.03	373.45	2.6
4050	0.025	365.45	2.7
4050	0.0201	361.05	2.3
4050	0.015	354.55	1.9
4050	0.0101	347.15	1.8
5050	0.0351	385.85	3.1
5050	0.0301	378.55	2.8
5050	0.0251	373.85	3.1
5050	0.02	366.45	2.5
5050	0.0151	358.85	2.1
5050	0.0103	351.65	2
6030	0.0249	379.35	2.5
6030	0.0348	390.95	3.1
6030	0.0099	355.05	2.2
