Measured thermophysical data. Liquid -liquid equilibrium, heat capacity and turbidity of binary solution nitrobenzene  +  n-pentadecane
Source: J. Chem. Thermodyn., 2018, 10.1016/j.jct.2018.02.008
Compound 1: nitrobenzene, C6H5NO2, InChI=1S/C6H5NO2/c8-7(9)6-4-2-1-3-5-6/h1-5H, purity 99%
Compound 2: pentadecane, C15H32, InChI=1S/C15H32/c1-3-5-7-9-11-13-15-14-12-10-8-6-4-2/h3-15H2,1-2H3, purity 99%

System: nitrobenzene; phases: Liquid
Fixed: Pressure, kPa = 100
Fixed: Wavelength, nm = 632.8
Property: Refractive index (other wavelength) (Liquid); method: Minimum deviation technique
Temperature, K	Refractive index (other wavelength)	uncertainty
301.664	1.5441	0.0003
302.719	1.5435	0.0003
303.85	1.543	0.0003
304.976	1.5425	0.0003
306.084	1.542	0.0003
307.202	1.5414	0.0003
308.254	1.5409	0.0003
309.343	1.5404	0.0003
309.34	1.5403	0.0003

System: pentadecane; phases: Liquid
Fixed: Pressure, kPa = 100
Fixed: Wavelength, nm = 632.8
Property: Refractive index (other wavelength) (Liquid); method: Minimum deviation technique
Temperature, K	Refractive index (other wavelength)	uncertainty
301.769	1.4273	0.0003
302.673	1.4269	0.0003
303.593	1.4265	0.0003
304.576	1.4261	0.0003
305.541	1.4257	0.0003
306.569	1.4252	0.0003
307.568	1.4248	0.0003
308.501	1.4244	0.0003
309.34	1.424	0.0003

System: nitrobenzene + pentadecane; phases: Liquid mixture 1, Liquid mixture 2, Air at 1 atmosphere
Property: Upper consolute composition: mole fraction of nitrobenzene (Liquid mixture 1); method: Volumetric (visual observation) - equal volume method
Upper consolute composition: mole fraction of nitrobenzene	uncertainty
0.696	0.002

System: nitrobenzene + pentadecane; phases: Liquid mixture 1, Liquid mixture 2, Air at 1 atmosphere
Property: Upper consolute temperature, K (Liquid mixture 1); method: VISOBS
Upper consolute temperature, K	uncertainty
307.298	0.387

System: nitrobenzene + pentadecane; phases: Liquid mixture 1, Liquid mixture 2
Fixed: Pressure, kPa = 100
Fixed: Wavelength, nm = 632.8
Property: Refractive index (other wavelength) (Liquid mixture 1); method: Minimum deviation technique
Temperature, K	Refractive index (other wavelength)	uncertainty
307.294	1.4748	0.0028
307.29	1.4743	0.0022
307.287	1.4738	0.0019
307.283	1.4734	0.0018
307.276	1.4729	0.0016
307.272	1.4727	0.0013
307.264	1.4723	0.0012
307.253	1.4719	0.0017
307.235	1.4713	0.0013
307.214	1.4708	0.0011
307.19	1.4702	0.0008
307.159	1.4696	0.0008
307.117	1.4691	0.0007
307.066	1.4682	0.0006
307.014	1.4676	0.0005
306.944	1.4669	0.0005
306.866	1.4663	0.0004
306.776	1.4657	0.0004
306.66	1.4648	0.0004
306.509	1.4641	0.0003
306.308	1.4631	0.0003
306.096	1.4621	0.0003
305.778	1.4611	0.0003
305.373	1.46	0.0003
304.888	1.4587	0.0003
304.165	1.4574	0.0003
302.92	1.4554	0.0003
301.895	1.4543	0.0003
300.925	1.4535	0.0003
299.944	1.4526	0.0003
298.929	1.4518	0.0003
297.898	1.4513	0.0003

System: nitrobenzene + pentadecane; phases: Liquid mixture 2, Liquid mixture 1
Fixed: Pressure, kPa = 100
Fixed: Wavelength, nm = 632.8
Property: Refractive index (other wavelength) (Liquid mixture 2); method: Minimum deviation technique
Temperature, K	Refractive index (other wavelength)	uncertainty
307.294	1.4797	0.0028
307.29	1.4802	0.0023
307.287	1.4807	0.002
307.283	1.481	0.0019
307.276	1.4815	0.0018
307.272	1.4817	0.0015
307.264	1.4822	0.0014
307.253	1.4826	0.0019
307.235	1.4833	0.0015
307.214	1.4839	0.0012
307.19	1.4846	0.0009
307.159	1.4852	0.0008
307.117	1.4858	0.0007
307.066	1.4866	0.0006
307.014	1.4872	0.0005
306.944	1.4879	0.0005
306.866	1.4887	0.0005
306.776	1.4894	0.0004
306.66	1.4904	0.0004
306.509	1.4913	0.0004
306.308	1.4926	0.0004
306.096	1.4938	0.0003
305.778	1.4952	0.0003
305.373	1.4969	0.0003
304.888	1.4986	0.0003
304.165	1.5008	0.0003
302.92	1.5042	0.0003
301.895	1.5065	0.0003
300.925	1.5085	0.0003
299.944	1.5104	0.0003
298.929	1.5122	0.0003
297.898	1.514	0.0003

System: nitrobenzene + pentadecane; phases: Liquid mixture 1, Liquid mixture 2
Fixed: Pressure, kPa = 100
Property: Mole fraction of nitrobenzene (Liquid mixture 1); method: Index of refraction calibration data
Temperature, K	Mole fraction of nitrobenzene	uncertainty
307.294	0.679	0.023
307.29	0.676	0.019
307.287	0.672	0.017
307.283	0.669	0.016
307.276	0.665	0.015
307.272	0.663	0.013
307.264	0.66	0.013
307.253	0.657	0.016
307.235	0.652	0.013
307.214	0.648	0.012
307.19	0.643	0.01
307.159	0.638	0.01
307.117	0.634	0.01
307.066	0.626	0.01
307.014	0.62	0.01
306.944	0.614	0.01
306.866	0.609	0.01
306.776	0.603	0.01
306.66	0.594	0.01
306.509	0.587	0.01
306.308	0.577	0.01
306.096	0.566	0.01
305.778	0.555	0.01
305.373	0.542	0.011
304.888	0.526	0.011
304.165	0.509	0.011
302.92	0.48	0.011
301.895	0.461	0.011
300.925	0.446	0.01
299.944	0.43	0.01
298.929	0.414	0.01
297.898	0.401	0.009

System: nitrobenzene + pentadecane; phases: Liquid mixture 2, Liquid mixture 1
Fixed: Pressure, kPa = 100
Property: Mole fraction of nitrobenzene (Liquid mixture 2); method: Index of refraction calibration data
Temperature, K	Mole fraction of nitrobenzene	uncertainty
307.294	0.715	0.02
307.29	0.718	0.016
307.287	0.721	0.015
307.283	0.723	0.014
307.276	0.727	0.013
307.272	0.728	0.012
307.264	0.731	0.011
307.253	0.734	0.014
307.235	0.738	0.012
307.214	0.742	0.01
307.19	0.747	0.009
307.159	0.75	0.008
307.117	0.754	0.008
307.066	0.759	0.007
307.014	0.762	0.007
306.944	0.766	0.007
306.866	0.771	0.007
306.776	0.775	0.006
306.66	0.78	0.006
306.509	0.785	0.006
306.308	0.792	0.006
306.096	0.798	0.006
305.778	0.805	0.006
305.373	0.813	0.006
304.888	0.821	0.006
304.165	0.83	0.005
302.92	0.844	0.005
301.895	0.853	0.005
300.925	0.861	0.005
299.944	0.867	0.005
298.929	0.873	0.005
297.898	0.879	0.005

System: nitrobenzene + pentadecane; phases: Liquid
Fixed: Pressure, kPa = 100
Fixed: Wavelength, nm = 632.8
Property: Refractive index (other wavelength) (Liquid); method: Minimum deviation technique
Temperature, K	Mole fraction of nitrobenzene	Refractive index (other wavelength)	uncertainty
301.664	1	1.5441	0.0003
302.719	1	1.5435	0.0003
303.85	1	1.543	0.0003
304.976	1	1.5425	0.0003
306.084	1	1.542	0.0003
307.202	1	1.5414	0.0003
308.254	1	1.5409	0.0003
309.343	1	1.5404	0.0003
301.769	0	1.4273	0.0003
302.673	0	1.4269	0.0003
303.593	0	1.4265	0.0003
304.576	0	1.4261	0.0003
305.541	0	1.4257	0.0003
306.569	0	1.4252	0.0003
307.568	0	1.4248	0.0003
308.501	0	1.4244	0.0003
309.34	0	1.424	0.0003
309.34	0.0896	1.4278	0.0003
309.34	0.208	1.4337	0.0003
309.34	0.2753	1.4375	0.0003
309.34	0.3855	1.4449	0.0003
309.34	0.4829	1.4527	0.0004
309.34	0.5915	1.4634	0.0004
309.34	0.6912	1.4756	0.0005
309.34	0.796	1.492	0.0005
309.34	0.8972	1.5124	0.0006
309.34	1	1.5403	0.0003

System: nitrobenzene + pentadecane; phases: Liquid
Fixed: Pressure, kPa = 100
Fixed: Mole fraction of nitrobenzene = 0.696
Property: Molar heat capacity at constant pressure, J/K/mol (Liquid); method: DSC
Temperature, K	Molar heat capacity at constant pressure, J/K/mol	uncertainty
345.46	292.5	11.3
345.383	292.5	11.3
345.305	292.5	11.3
345.229	292.4	11.3
345.151	292.4	11.3
345.075	292.4	11.3
344.998	292.4	11.3
344.92	292.3	11.3
344.843	292.3	11.3
344.766	292.3	11.3
344.69	292.2	11.3
344.612	292.1	11.3
344.535	292.1	11.3
344.458	292.2	11.3
344.381	292.2	11.3
344.304	292.2	11.3
344.227	292.2	11.3
344.149	292.1	11.3
344.072	292.1	11.3
343.995	292	11.3
343.918	292	11.3
343.841	292	11.3
343.764	292	11.3
343.687	292	11.3
343.609	291.9	11.3
343.533	291.9	11.3
343.456	291.9	11.3
343.379	291.8	11.3
343.301	291.9	11.3
343.224	291.8	11.3
343.148	291.8	11.3
343.07	291.8	11.3
342.993	291.8	11.3
342.916	291.7	11.3
342.839	291.7	11.3
342.762	291.7	11.3
342.686	291.7	11.3
342.608	291.7	11.3
342.531	291.7	11.3
342.454	291.6	11.3
342.376	291.5	11.3
342.3	291.5	11.3
342.222	291.5	11.3
342.146	291.5	11.3
342.068	291.4	11.3
341.991	291.4	11.3
341.914	291.4	11.3
341.837	291.3	11.3
341.76	291.3	11.3
341.683	291.3	11.3
341.606	291.2	11.3
341.528	291.2	11.3
341.452	291.2	11.3
341.375	291.3	11.3
341.298	291.2	11.3
341.22	291.3	11.3
341.144	291.3	11.3
341.066	291.2	11.3
340.989	291.2	11.3
340.912	291.1	11.3
340.835	291.1	11.3
340.758	291	11.3
340.681	291	11.3
340.604	291	11.3
340.527	290.9	11.3
340.45	290.9	11.3
340.373	290.9	11.3
340.296	290.9	11.3
340.142	290.9	11.3
340.064	290.9	11.3
339.987	290.9	11.3
339.91	290.9	11.3
339.833	290.8	11.3
339.756	290.8	11.3
339.679	290.7	11.3
339.602	290.6	11.3
339.524	290.6	11.3
339.448	290.5	11.3
339.371	290.6	11.3
339.294	290.6	11.3
339.216	290.6	11.3
339.14	290.7	11.3
339.062	290.6	11.3
338.985	290.5	11.3
338.908	290.5	11.3
338.831	290.4	11.2
338.754	290.4	11.2
338.677	290.4	11.2
338.6	290.4	11.2
338.523	290.4	11.2
338.445	290.3	11.2
338.369	290.3	11.2
338.291	290.3	11.2
338.214	290.3	11.2
338.137	290.2	11.2
338.061	290.2	11.2
337.984	290.2	11.2
337.906	290.2	11.2
337.829	290.2	11.2
337.751	290.1	11.2
337.675	290.1	11.2
337.598	290	11.2
337.521	290	11.2
337.445	289.9	11.2
337.367	289.9	11.2
337.29	289.9	11.2
337.213	289.9	11.2
337.136	289.9	11.2
337.059	289.9	11.2
336.982	289.9	11.2
336.904	289.9	11.2
336.827	289.8	11.2
336.75	289.8	11.2
336.673	289.7	11.2
336.596	289.7	11.2
336.519	289.7	11.2
336.442	289.7	11.2
336.364	289.6	11.2
336.288	289.6	11.2
336.211	289.6	11.2
336.133	289.6	11.2
336.056	289.5	11.2
335.98	289.5	11.2
335.903	289.5	11.2
335.825	289.4	11.2
335.748	289.4	11.2
335.672	289.3	11.2
335.594	289.3	11.2
335.517	289.3	11.2
335.44	289.3	11.2
335.363	289.3	11.2
335.286	289.3	11.2
335.209	289.2	11.2
335.131	289.2	11.2
335.055	289.2	11.2
334.978	289.2	11.2
334.823	289.1	11.2
334.746	289.1	11.2
334.669	289	11.2
334.592	289	11.2
334.516	289	11.2
334.438	289	11.2
334.361	288.9	11.2
334.284	288.9	11.2
334.206	288.9	11.2
334.13	288.8	11.2
334.053	288.8	11.2
333.976	288.7	11.2
333.899	288.7	11.2
333.822	288.7	11.2
333.744	288.7	11.2
333.667	288.7	11.2
333.59	288.6	11.2
333.513	288.6	11.2
333.436	288.6	11.2
333.36	288.6	11.2
333.282	288.6	11.2
333.205	288.5	11.2
333.128	288.5	11.2
333.051	288.5	11.2
332.974	288.5	11.2
332.896	288.5	11.2
332.819	288.4	11.2
332.742	288.4	11.2
332.665	288.3	11.2
332.588	288.3	11.2
332.511	288.3	11.2
332.434	288.2	11.2
332.357	288.2	11.2
332.28	288.1	11.2
332.203	288.1	11.2
332.126	288.1	11.2
332.049	288.1	11.2
331.972	288.1	11.2
331.894	288.1	11.2
331.818	288.1	11.2
331.74	288.1	11.2
331.663	288	11.2
331.587	288	11.2
331.509	288	11.2
331.432	288	11.2
331.355	287.9	11.2
331.278	287.9	11.2
331.201	287.9	11.2
331.124	287.8	11.1
331.047	287.7	11.1
330.969	287.7	11.1
330.893	287.8	11.1
330.816	287.7	11.1
330.739	287.7	11.1
330.662	287.7	11.1
330.584	287.7	11.1
330.507	287.6	11.1
330.43	287.8	11.1
330.353	287.7	11.1
330.276	287.6	11.1
330.199	287.6	11.1
330.122	287.5	11.1
330.045	287.5	11.1
329.968	287.5	11.1
329.891	287.5	11.1
329.814	287.4	11.1
329.737	287.4	11.1
329.66	287.4	11.1
