Measured thermophysical data. Aggregation properties and thermodynamics of micellization of gemini surfactants with diethyl ether spacer in water and water organic solvent mixed media
Source: J. Chem. Thermodyn., 2014, 10.1016/j.jct.2013.10.010
Compound 1: 1,2-ethanediol, C2H6O2, InChI=1S/C2H6O2/c3-1-2-4/h3-4H,1-2H2, purity 99%
Compound 2: 1,4-dioxane, C4H8O2, InChI=1S/C4H8O2/c1-2-6-4-3-5-1/h1-4H2, purity 99.9%
Compound 3: water, H2O, InChI=1S/H2O/h1H2

System: water; phases: Liquid, Air at 1 atmosphere
Property: Surface tension liquid-gas, N/m (Liquid); method: Wilhelmy Plate Method
Temperature, K	Surface tension liquid-gas, N/m	uncertainty
298.15	0.0718	0.0004

System: 1,2-ethanediol + water; phases: Liquid, Air at 1 atmosphere
Fixed: Temperature, K = 298.15
Property: Surface tension liquid-gas, N/m (Liquid); method: Wilhelmy Plate Method
Volume fraction of 1,2-ethanediol	Surface tension liquid-gas, N/m	uncertainty
0	0.0718	0.0004
0.1	0.0683	0.0004
0.2	0.0648	0.0004
0.3	0.0615	0.0004

System: 1,4-dioxane + water; phases: Liquid, Air at 1 atmosphere
Fixed: Temperature, K = 298.15
Property: Surface tension liquid-gas, N/m (Liquid); method: Wilhelmy Plate Method
Volume fraction of 1,4-dioxane	Surface tension liquid-gas, N/m	uncertainty
0	0.0718	0.0004
0.1	0.054	0.0004
0.2	0.052	0.0004
0.3	0.0466	0.0004
