Measured thermophysical data. Bile salt-bile salt interaction in mixed monolayer and mixed micelle formation
Source: J. Chem. Thermodyn., 2019, 10.1016/j.jct.2018.08.030
Compound 1: water, H2O, InChI=1S/H2O/h1H2
Compound 2: sodium cholate, C24H39NaO5, InChI=1S/C24H40O5.Na/c1-13(4-7-21(28)29)16-5-6-17-22-18(12-20(27)24(16,17)3)23(2)9-8-15(25)10-14(23)11-19(22)26;/h13-20,22,25-27H,4-12H2,1-3H3,(H,28,29);/q;+1/p-1/t13-,14+,15-,16-,17+,18+,19-,20+,22+,23+,24-;/m1./s1, purity 99%
Compound 3: sodium taurocholate, C26H44NNaO7S, InChI=1S/C26H45NO7S.Na/c1-15(4-7-23(31)27-10-11-35(32,33)34)18-5-6-19-24-20(14-22(30)26(18,19)3)25(2)9-8-17(28)12-16(25)13-21(24)29;/h15-22,24,28-30H,4-14H2,1-3H3,(H,27,31)(H,32,33,34);/q;+1/p-1/t15-,16+,17-,18-,19+,20+,21-,22+,24+,25+,26-;/m1./s1, purity 97%
Compound 4: sodium deoxycholate, C24H39NaO4, InChI=1S/C24H40O4.Na/c1-14(4-9-22(27)28)18-7-8-19-17-6-5-15-12-16(25)10-11-23(15,2)20(17)13-21(26)24(18,19)3;/h14-21,25-26H,4-13H2,1-3H3,(H,27,28);/q;+1/p-1/t14-,15-,16-,17+,18-,19+,20+,21+,23+,24-;/m1./s1, purity 97%

System: sodium cholate + sodium taurocholate + water; phases: Liquid, Air at 1 atmosphere
Fixed: Temperature, K = 298.15
Property: Surface tension liquid-gas, N/m (Liquid); method: Ring tensiometer
Molality, mol/kg of sodium cholate	Molality, mol/kg of sodium taurocholate	Surface tension liquid-gas, N/m	uncertainty
3e-05	0.0001	0.05979	0.00212
5e-05	0.0002	0.05765	0.00212
0.0001	0.0004	0.05579	0.00211
0.0002	0.00079	0.05242	0.00211
0.00034	0.00137	0.05039	0.0021
0.00048	0.00194	0.04953	0.00211
0.00071	0.00286	0.04772	0.00209
0.00094	0.00375	0.04705	0.0021
0.00115	0.00462	0.04596	0.00209
0.00136	0.00546	0.04517	0.00212
0.00176	0.00706	0.04586	0.00208
0.00214	0.00857	0.04614	0.00209
0.00247	0.00986	0.04667	0.00211
0.00264	0.01055	0.04748	0.00213
6e-05	9e-05	0.05938	0.00212
0.00018	0.00027	0.05589	0.00211
0.00036	0.00053	0.05325	0.0021
0.00059	0.00088	0.05137	0.00209
0.00087	0.00131	0.05054	0.00209
0.00116	0.00173	0.04961	0.00209
0.0017	0.00255	0.04777	0.00209
0.00222	0.00334	0.04691	0.00208
0.00322	0.00482	0.0458	0.00208
0.00391	0.00587	0.04611	0.00208
0.00458	0.00686	0.04605	0.00209
0.00492	0.00737	0.04643	0.00209
0.00011	8e-05	0.05862	0.00212
0.00022	0.00015	0.05497	0.00211
0.00044	0.0003	0.05226	0.0021
0.00077	0.00052	0.05057	0.0021
0.0011	0.00073	0.04915	0.00209
0.00163	0.00108	0.04792	0.00208
0.00214	0.00143	0.0466	0.00209
0.00314	0.00209	0.04553	0.00208
0.00409	0.00273	0.04438	0.00208
0.00587	0.00391	0.04358	0.00208
0.0075	0.005	0.04421	0.00208
0.00863	0.00576	0.04554	0.00208
0.0001	3e-05	0.06093	0.00213
0.0002	5e-05	0.05909	0.00212
0.0004	0.0001	0.05574	0.00211
0.00079	0.0002	0.05379	0.0021
0.00137	0.00034	0.05209	0.0021
0.00194	0.00048	0.05075	0.0021
0.00286	0.00071	0.0492	0.00209
0.00375	0.00094	0.04797	0.00209
0.00462	0.00115	0.04707	0.00209
0.00546	0.00136	0.04667	0.00209
0.00706	0.00176	0.04572	0.00208
0.00857	0.00214	0.04568	0.00208
0.00986	0.00247	0.04648	0.00213
0.01055	0.00264	0.04748	0.00213
0.00149	0	0.05548	0.00211
0.00232	0	0.05265	0.00211
0.00357	0	0.05001	0.00211
0.00441	0	0.0485	0.00211
0.00523	0	0.04701	0.00209
0.00682	0	0.046	0.00209
0.00758	0	0.04525	0.0021
0.00833	0	0.0445	0.00209
0.00914	0	0.04396	0.00208
0.00978	0	0.04375	0.00207
0.0112	0	0.0437	0.00207
0.0131	0	0.04378	0.00207
0.0142	0	0.0438	0.00207
0	0.00062	0.05339	0.00211
0	0.00093	0.05095	0.00211
0	0.00149	0.04764	0.0021
0	0.00208	0.04558	0.00209
0	0.00263	0.04418	0.00209
0	0.00313	0.043	0.0021
0	0.00354	0.04208	0.00208
0	0.00392	0.04148	0.00207
0	0.00455	0.04095	0.00207
0	0.00489	0.0405	0.00206
0	0.00556	0.04048	0.00206
0	0.0062	0.04051	0.00206
0	0.00714	0.04045	0.00206
0	0.00804	0.0405	0.00206

System: sodium cholate + sodium deoxycholate + water; phases: Liquid, Air at 1 atmosphere
Fixed: Temperature, K = 298.15
Property: Surface tension liquid-gas, N/m (Liquid); method: Ring tensiometer
Molality, mol/kg of sodium cholate	Molality, mol/kg of sodium deoxycholate	Surface tension liquid-gas, N/m	uncertainty
1e-05	3e-05	0.05863	0.00212
2e-05	7e-05	0.05592	0.00211
4e-05	0.00015	0.05357	0.00211
7e-05	0.0003	0.05103	0.0021
0.00011	0.00045	0.0495	0.00209
0.00019	0.00074	0.04805	0.00209
0.00026	0.00103	0.047	0.00208
0.00037	0.00146	0.04572	0.00208
0.00054	0.00217	0.04403	0.00208
0.00071	0.00286	0.0431	0.00208
0.00088	0.00353	0.04326	0.00207
0.00105	0.00418	0.04349	0.00207
4e-05	5e-05	0.05953	0.00212
8e-05	0.00011	0.05667	0.00212
0.00015	0.00022	0.05353	0.00211
0.0003	0.00044	0.05104	0.0021
0.00052	0.00077	0.0485	0.00209
0.00073	0.0011	0.04665	0.00209
0.00108	0.00163	0.04478	0.00209
0.00143	0.00214	0.04362	0.00208
0.00209	0.00314	0.04312	0.00207
0.00273	0.00409	0.04325	0.00207
0.00333	0.005	0.04313	0.00209
0.00011	8e-05	0.05882	0.00212
0.00022	0.00015	0.05619	0.00211
0.00044	0.0003	0.05247	0.0021
0.00077	0.00052	0.04961	0.00209
0.0011	0.00073	0.04817	0.00209
0.00163	0.00108	0.0463	0.00208
0.00214	0.00143	0.04469	0.00208
0.00265	0.00176	0.04348	0.00208
0.00314	0.00209	0.04303	0.00207
0.00409	0.00273	0.04301	0.00207
0.005	0.00333	0.043	0.00207
0.00587	0.00391	0.043	0.00207
0.00015	4e-05	0.05953	0.00212
0.0003	7e-05	0.0568	0.00212
0.00059	0.00015	0.05317	0.00211
0.00103	0.00026	0.05076	0.0021
0.00146	0.00037	0.04936	0.00209
0.00217	0.00054	0.04747	0.00208
0.00286	0.00071	0.04608	0.00208
0.00353	0.00088	0.04459	0.00208
0.00418	0.00105	0.04392	0.00207
0.0047	0.00118	0.04349	0.00208
0.00546	0.00136	0.04332	0.00207
0.00666	0.00167	0.04301	0.00207
0.00782	0.00196	0.04285	0.00207
0.00149	0	0.05548	0.00211
0.00232	0	0.05265	0.00211
0.00357	0	0.05001	0.00211
0.00441	0	0.0485	0.00211
0.00523	0	0.04701	0.00209
0.00682	0	0.046	0.00209
0.00758	0	0.04525	0.0021
0.00833	0	0.0445	0.00209
0.00914	0	0.04396	0.00208
0.00978	0	0.04375	0.00207
0.0112	0	0.0437	0.00207
0.0131	0	0.04378	0.00207
0.0142	0	0.0438	0.00214
0	0.00039	0.0534	0.0021
0	0.00066	0.05	0.00211
0	0.00092	0.04762	0.0021
0	0.00124	0.0458	0.00209
0	0.00154	0.04426	0.00209
0	0.0019	0.04301	0.00209
0	0.00214	0.04205	0.00209
0	0.00243	0.04109	0.00208
0	0.00267	0.04052	0.00208
0	0.00296	0.03991	0.00208
0	0.00319	0.03934	0.00206
0	0.00391	0.03908	0.00206
0	0.00471	0.03905	0.00206
0	0.00547	0.039	0.00206
0	0.00596	0.0391	0.00206
0	0.00667	0.03901	0.00206
