Measured thermophysical data. Volumetric and acoustic study of aqueous binary mixtures of quinine hydrochloride, guanidine hydrochloride and quinic acid at different temperatures
Source: J. Chem. Thermodyn., 2015, 10.1016/j.jct.2014.09.011
Compound 1: quinine hydrochloride, C20H25ClN2O2, InChI=1S/C20H24N2O2.ClH/c1-3-13-12-22-9-7-14(13)10-19(22)20(23)16-6-8-21-18-5-4-15(24-2)11-17(16)18;/h3-6,8,11,13-14,19-20,23H,1,7,9-10,12H2,2H3;1H/t13-,14-,19-,20+;/m0./s1, purity 99%
Compound 2: guanidine hydrochloride, CH6ClN3, InChI=1S/CH5N3.ClH/c2-1(3)4;/h(H5,2,3,4);1H, purity 99%
Compound 3: (1S,3R,4S,5R)-1,3,4,5-tetrahydroxycyclohexane-1-carboxylic acid, C7H12O6, InChI=1S/C7H12O6/c8-3-1-7(13,6(11)12)2-4(9)5(3)10/h3-5,8-10,13H,1-2H2,(H,11,12)/t3-,4-,5-,7+/m1/s1, purity 97.5%
Compound 4: water, H2O, InChI=1S/H2O/h1H2

System: water; phases: Liquid
Fixed: Pressure, kPa = 101.3
Property: Mass density, kg/m3 (Liquid); method: Pycnometric method
Temperature, K	Mass density, kg/m3	uncertainty
278.15	999.96	0.36
288.15	999.1	0.33
298.15	997.05	0.32

System: water; phases: Liquid
Fixed: Pressure, kPa = 101.3
Fixed: Frequency, MHz = 2
Property: Speed of sound, m/s (Liquid); method: Linear variable-path acoustic interferometer
Temperature, K	Speed of sound, m/s	uncertainty
278.15	1426.2	2.6
288.15	1465.9	2.5
298.15	1496.7	2.5

System: quinine hydrochloride + water; phases: Liquid
Fixed: Pressure, kPa = 101.3
Property: Mass density, kg/m3 (Liquid); method: Pycnometric method
Temperature, K	Molality, mol/kg of quinine hydrochloride	Mass density, kg/m3	uncertainty
278.15	0	999.96	0.36
278.15	0.0127	1001.09	0.36
278.15	0.0177	1001.51	0.36
278.15	0.0225	1001.92	0.36
278.15	0.0287	1002.46	0.36
278.15	0.0332	1002.86	0.36
278.15	0.0402	1003.44	0.36
278.15	0.048	1004.11	0.36
278.15	0.0603	1005.15	0.36
278.15	0.0653	1005.57	0.36
278.15	0.0698	1005.93	0.36
278.15	0.0798	1006.76	0.36
278.15	0.09	1007.59	0.36
278.15	0.0987	1008.29	0.36
288.15	0	999.1	0.33
288.15	0.0106	1000.01	0.33
288.15	0.0163	1000.5	0.33
288.15	0.022	1000.99	0.33
288.15	0.0294	1001.64	0.33
288.15	0.0361	1002.19	0.33
288.15	0.0396	1002.48	0.33
288.15	0.0491	1003.28	0.33
288.15	0.0552	1003.79	0.33
288.15	0.0598	1004.17	0.33
288.15	0.0687	1004.9	0.33
288.15	0.0785	1005.7	0.33
288.15	0.0881	1006.49	0.33
288.15	0.1019	1007.59	0.33
298.15	0	997.05	0.32
298.15	0.0109	997.96	0.33
298.15	0.0125	998.1	0.33
298.15	0.0199	998.7	0.33
298.15	0.0248	999.09	0.33
298.15	0.0286	999.45	0.33
298.15	0.0378	1000.17	0.33
298.15	0.0473	1000.94	0.33
298.15	0.0544	1001.52	0.33
298.15	0.0594	1001.93	0.33
298.15	0.0677	1002.6	0.33
298.15	0.0785	1003.46	0.33
298.15	0.0881	1004.22	0.33
298.15	0.0987	1005.05	0.33

System: quinine hydrochloride + water; phases: Liquid
Fixed: Pressure, kPa = 101.3
Fixed: Frequency, MHz = 2
Property: Speed of sound, m/s (Liquid); method: Linear variable-path acoustic interferometer
Temperature, K	Molality, mol/kg of quinine hydrochloride	Speed of sound, m/s	uncertainty
278.15	0	1426.2	2.6
278.15	0.0127	1429.3	2.6
278.15	0.0177	1430.5	2.6
278.15	0.0225	1431.7	2.6
278.15	0.0287	1433.3	2.6
278.15	0.0332	1434.4	2.6
278.15	0.0402	1436.2	2.6
278.15	0.048	1438.1	2.6
278.15	0.0603	1441.1	2.6
278.15	0.0653	1442.4	2.6
278.15	0.0698	1443.5	2.6
278.15	0.0798	1446	2.6
278.15	0.09	1448.5	2.6
278.15	0.0987	1450.7	2.6
288.15	0	1465.9	2.5
288.15	0.0106	1468.3	2.5
288.15	0.0163	1469.6	2.5
288.15	0.022	1470.9	2.5
288.15	0.0294	1472.5	2.5
288.15	0.0361	1474	2.5
288.15	0.0396	1474.8	2.5
288.15	0.0491	1477	2.5
288.15	0.0552	1478.3	2.5
288.15	0.0598	1479.3	2.5
288.15	0.0687	1481.4	2.5
288.15	0.0785	1483.6	2.5
288.15	0.0881	1485.7	2.5
288.15	0.1019	1488.8	2.5
298.15	0	1496.7	2.5
298.15	0.0109	1499.2	2.5
298.15	0.0125	1499.4	2.5
298.15	0.0199	1501.1	2.5
298.15	0.0248	1502.2	2.5
298.15	0.0286	1502.9	2.5
298.15	0.0378	1504.9	2.5
298.15	0.0473	1506.9	2.5
298.15	0.0544	1508.5	2.5
298.15	0.0594	1509.4	2.5
298.15	0.0677	1511.4	2.5
298.15	0.0785	1513.7	2.5
298.15	0.0881	1515.8	2.5
298.15	0.0987	1518.1	2.5

System: guanidine hydrochloride + water; phases: Liquid
Fixed: Pressure, kPa = 101.3
Property: Mass density, kg/m3 (Liquid); method: Pycnometric method
Temperature, K	Molality, mol/kg of guanidine hydrochloride	Mass density, kg/m3	uncertainty
278.15	0	999.96	0.35
278.15	0.0101	1000.29	0.35
278.15	0.0162	1000.5	0.36
278.15	0.0196	1000.61	0.36
278.15	0.0227	1000.7	0.36
278.15	0.0291	1000.91	0.36
278.15	0.039	1001.25	0.36
278.15	0.0501	1001.58	0.36
278.15	0.0586	1001.85	0.36
278.15	0.0619	1001.96	0.36
278.15	0.0685	1002.17	0.36
278.15	0.0807	1002.54	0.36
278.15	0.0882	1002.78	0.36
278.15	0.0981	1003.08	0.36
288.15	0	999.1	0.32
288.15	0.0102	999.41	0.32
288.15	0.0201	999.7	0.32
288.15	0.0267	999.9	0.32
288.15	0.0297	999.98	0.33
288.15	0.0387	1000.25	0.33
288.15	0.0437	1000.41	0.33
288.15	0.0502	1000.59	0.33
288.15	0.0598	1000.86	0.33
288.15	0.0634	1000.97	0.33
288.15	0.0697	1001.15	0.33
288.15	0.0798	1001.43	0.33
288.15	0.0926	1001.79	0.33
288.15	0.1009	1002.03	0.33
298.15	0	997.05	0.32
298.15	0.0101	997.34	0.32
298.15	0.0162	997.52	0.32
298.15	0.0196	997.61	0.32
298.15	0.0267	997.81	0.33
298.15	0.0299	997.9	0.33
298.15	0.0349	998.05	0.33
298.15	0.0401	998.17	0.33
298.15	0.0515	998.5	0.33
298.15	0.0586	998.7	0.33
298.15	0.0705	999.01	0.33
298.15	0.0807	999.29	0.33
298.15	0.0926	999.61	0.33
298.15	0.1009	999.84	0.33

System: guanidine hydrochloride + water; phases: Liquid
Fixed: Pressure, kPa = 101.3
Fixed: Frequency, MHz = 2
Property: Speed of sound, m/s (Liquid); method: Linear variable-path acoustic interferometer
Temperature, K	Molality, mol/kg of guanidine hydrochloride	Speed of sound, m/s	uncertainty
278.15	0	1426.2	2.6
278.15	0.0101	1427	2.6
278.15	0.0162	1427.5	2.6
278.15	0.0196	1427.8	2.6
278.15	0.0227	1428	2.6
278.15	0.0291	1428.5	2.6
278.15	0.039	1429.3	2.6
278.15	0.0501	1430.3	2.6
278.15	0.0586	1431	2.6
278.15	0.0619	1431.2	2.6
278.15	0.0685	1431.8	2.6
278.15	0.0807	1432.8	2.6
278.15	0.0882	1433.4	2.6
278.15	0.0981	1434.2	2.6
288.15	0	1465.9	2.5
288.15	0.0102	1466.6	2.5
288.15	0.0201	1467.3	2.5
288.15	0.0267	1467.8	2.5
288.15	0.0297	1468	2.5
288.15	0.0387	1468.6	2.5
288.15	0.0437	1469	2.5
288.15	0.0502	1469.4	2.5
288.15	0.0598	1470.1	2.5
288.15	0.0634	1470.4	2.5
288.15	0.0697	1470.8	2.5
288.15	0.0798	1471.5	2.5
288.15	0.0926	1472.4	2.5
288.15	0.1009	1473	2.5
298.15	0	1496.7	2.5
298.15	0.0101	1497.4	2.5
298.15	0.0162	1497.8	2.5
298.15	0.0196	1497.9	2.5
298.15	0.0267	1498.4	2.5
298.15	0.0299	1498.6	2.5
298.15	0.0349	1498.9	2.5
298.15	0.0401	1499.2	2.5
298.15	0.0515	1499.9	2.5
298.15	0.0586	1500.4	2.5
298.15	0.0705	1501.2	2.5
298.15	0.0807	1501.8	2.5
298.15	0.0926	1502.5	2.5
298.15	0.1009	1503	2.5

System: (1S,3R,4S,5R)-1,3,4,5-tetrahydroxycyclohexane-1-carboxylic acid + water; phases: Liquid
Fixed: Pressure, kPa = 101.3
Property: Mass density, kg/m3 (Liquid); method: Pycnometric method
Temperature, K	Molality, mol/kg of (1S,3R,4S,5R)-1,3,4,5-tetrahydroxycyclohexane-1-carboxylic acid	Mass density, kg/m3	uncertainty
278.15	0	999.96	0.35
278.15	0.01	1000.73	0.36
278.15	0.0198	1001.5	0.36
278.15	0.0299	1002.27	0.36
278.15	0.0374	1002.84	0.36
278.15	0.0405	1003.09	0.36
278.15	0.0441	1003.35	0.36
278.15	0.0492	1003.74	0.36
278.15	0.0601	1004.55	0.36
278.15	0.0634	1004.82	0.36
278.15	0.072	1005.45	0.36
278.15	0.0815	1006.18	0.36
278.15	0.0892	1006.75	0.36
278.15	0.1001	1007.56	0.36
288.15	0	999.1	0.33
288.15	0.0096	999.82	0.33
288.15	0.0238	1000.89	0.33
288.15	0.0297	1001.32	0.33
288.15	0.0362	1001.8	0.33
288.15	0.0403	1002.1	0.33
288.15	0.0447	1002.43	0.33
288.15	0.0489	1002.74	0.33
288.15	0.0542	1003.11	0.33
288.15	0.061	1003.63	0.33
288.15	0.0683	1004.16	0.33
288.15	0.0795	1004.98	0.33
288.15	0.0869	1005.52	0.33
288.15	0.0992	1006.4	0.33
298.15	0	997.05	0.32
298.15	0.0096	997.74	0.33
298.15	0.0199	998.49	0.33
298.15	0.0254	998.89	0.33
298.15	0.0304	999.25	0.33
298.15	0.0385	999.83	0.33
298.15	0.0415	1000.05	0.33
298.15	0.0493	1000.6	0.33
298.15	0.0542	1000.95	0.33
298.15	0.061	1001.46	0.33
298.15	0.0716	1002.18	0.33
298.15	0.0786	1002.68	0.33
298.15	0.0869	1003.27	0.33
298.15	0.1007	1004.22	0.33

System: (1S,3R,4S,5R)-1,3,4,5-tetrahydroxycyclohexane-1-carboxylic acid + water; phases: Liquid
Fixed: Pressure, kPa = 101.3
Fixed: Frequency, MHz = 2
Property: Speed of sound, m/s (Liquid); method: Linear variable-path acoustic interferometer
Temperature, K	Molality, mol/kg of (1S,3R,4S,5R)-1,3,4,5-tetrahydroxycyclohexane-1-carboxylic acid	Speed of sound, m/s	uncertainty
278.15	0	1426.2	2.6
278.15	0.01	1427.1	2.6
278.15	0.0198	1428.1	2.6
278.15	0.0299	1429.2	2.6
278.15	0.0374	1429.9	2.6
278.15	0.0405	1430.2	2.6
278.15	0.0441	1430.6	2.6
278.15	0.0492	1431	2.6
278.15	0.0601	1432.1	2.6
278.15	0.0634	1432.4	2.6
278.15	0.072	1433.3	2.6
278.15	0.0815	1434.3	2.6
278.15	0.0892	1435	2.6
278.15	0.1001	1436.1	2.6
288.15	0	1465.9	2.5
288.15	0.0096	1466.7	2.5
288.15	0.0238	1467.9	2.5
288.15	0.0297	1468.4	2.5
288.15	0.0362	1468.9	2.5
288.15	0.0403	1469.3	2.5
288.15	0.0447	1469.6	2.5
288.15	0.0489	1470	2.5
288.15	0.0542	1470.4	2.5
288.15	0.061	1471	2.5
288.15	0.0683	1471.6	2.5
288.15	0.0795	1472.5	2.5
288.15	0.0869	1473.1	2.5
288.15	0.0992	1474.2	2.5
298.15	0	1496.7	2.5
298.15	0.0096	1497.4	2.5
298.15	0.0199	1498.3	2.5
298.15	0.0254	1498.7	2.5
298.15	0.0304	1499.1	2.5
298.15	0.0385	1499.7	2.5
298.15	0.0415	1500	2.5
298.15	0.0493	1500.6	2.5
298.15	0.0542	1501	2.5
298.15	0.061	1501.5	2.5
298.15	0.0716	1502.4	2.5
298.15	0.0786	1502.9	2.5
298.15	0.0869	1503.6	2.5
298.15	0.1007	1504.7	2.5
