Measured thermophysical data. Volumetric study of aqueous proline-leucine solutions from 283.15 K to 318.15 K
Source: J. Chem. Thermodyn., 2004, 10.1016/j.jct.2004.07.004
Compound 1: proline-leucine, C11H20N2O3, InChI=1S/C11H20N2O3/c1-7(2)6-9(11(15)16)13-10(14)8-4-3-5-12-8/h7-9,12H,3-6H2,1-2H3,(H,13,14)(H,15,16)/t8-,9-/m0/s1, purity 99%
Compound 2: water, H2O, InChI=1S/H2O/h1H2

System: water + proline-leucine; phases: Liquid
Fixed: Pressure, kPa = 100
Property: Mass density, kg/m3 (Liquid); method: VIBTUB:UFactor:2
Molality, mol/kg of proline-leucine	Temperature, K	Mass density, kg/m3	uncertainty
0.00191	293.15	998.299	0.071
0.00191	308.15	994.122	0.073
0.0025	288.15	999.209	0.07
0.0025	293.15	998.324	0.071
0.0025	298.15	997.166	0.071
0.0025	308.15	994.156	0.073
0.00255	303.15	995.771	0.072
0.0035	283.15	999.851	0.07
0.0035	288.15	999.261	0.07
0.0035	293.15	998.368	0.071
0.0035	298.15	997.215	0.071
0.0035	308.15	994.198	0.08
0.00399	288.15	999.283	0.07
0.00399	293.15	998.394	0.071
0.0045	283.15	999.901	0.07
0.0045	288.15	999.303	0.07
0.0045	293.15	998.416	0.071
0.0045	298.15	997.251	0.071
0.0045	303.15	995.856	0.072
0.0045	308.15	994.246	0.073
0.00505	283.15	999.956	0.07
0.00505	288.15	999.356	0.07
0.00505	293.15	998.452	0.071
0.00505	308.15	994.278	0.073
0.00549	288.15	999.353	0.07
0.00549	293.15	998.462	0.071
0.00549	298.15	997.3	0.071
0.00549	303.15	995.925	0.072
0.00549	308.15	994.294	0.073
0.00602	283.15	1000.004	0.07
0.00602	288.15	999.407	0.07
0.00602	293.15	998.502	0.071
0.00602	298.15	997.35	0.071
0.00602	303.15	995.943	0.072
0.00602	308.15	994.322	0.073
0.00649	293.15	998.533	0.071
0.00649	298.15	997.374	0.071
0.00649	303.15	995.96	0.072
0.00649	308.15	994.345	0.073
0.00709	283.15	1000.056	0.07
0.00709	288.15	999.445	0.07
0.00709	293.15	998.552	0.07
0.00709	298.15	997.381	0.071
0.00748	288.15	999.48	0.07
0.00748	293.15	998.581	0.071
0.00748	298.15	997.416	0.071
0.00748	303.15	995.999	0.072
0.00748	308.15	994.392	0.073
0.00776	283.15	1000.09	0.07
0.00833	288.15	999.516	0.07
0.00833	293.15	998.63	0.07
0.00833	303.15	996.05	0.072
0.00833	308.15	994.433	0.073
0.00849	288.15	999.544	0.07
0.00849	293.15	998.633	0.07
0.00849	298.15	997.468	0.071
0.00849	303.15	996.044	0.073
0.00849	308.15	994.436	0.073
0.00904	283.15	1000.157	0.07
0.00904	288.15	999.542	0.07
0.00904	293.15	998.644	0.07
0.00949	288.15	999.594	0.07
0.00949	293.15	998.69	0.07
0.00949	298.15	997.521	0.071
0.00949	303.15	996.091	0.072
0.01004	288.15	999.608	0.07
0.01004	293.15	998.704	0.07
0.01004	298.15	997.541	0.071
0.01004	303.15	996.128	0.072
0.01004	308.15	994.51	0.073
0.0105	283.15	1000.242	0.07
0.0105	288.15	999.641	0.07
0.0105	293.15	998.74	0.07
0.0105	298.15	997.562	0.071
0.0105	303.15	996.136	0.072
0.01084	283.15	1000.252	0.07
0.01084	288.15	999.633	0.07
0.01084	298.15	997.57	0.071
0.01084	308.15	994.545	0.073
0.01148	283.15	1000.301	0.07
0.01148	288.15	999.691	0.07
0.01148	293.15	998.787	0.07
0.01148	298.15	997.614	0.071
0.01148	303.15	996.183	0.072
