Measured thermophysical data. Solubility modelling and preferential solvation of paclobutrazol in cosolvent mixtures of (ethanol, n-propanol and 1,4-dioxane) + water
Source: J. Chem. Thermodyn., 2017, 10.1016/j.jct.2017.05.004
Compound 1: 2S,3S-Paclobutrazol, C15H20ClN3O, InChI=1S/C15H20ClN3O/c1-15(2,3)14(20)13(19-10-17-9-18-19)8-11-4-6-12(16)7-5-11/h4-7,9-10,13-14,20H,8H2,1-3H3/t13-,14+/m0/s1, purity 97.9%
Compound 2: ethanol, C2H6O, InChI=1S/C2H6O/c1-2-3/h3H,2H2,1H3, purity 99.5%
Compound 3: propan-1-ol, C3H8O, InChI=1S/C3H8O/c1-2-3-4/h4H,2-3H2,1H3, purity 99.4%
Compound 4: water, H2O, InChI=1S/H2O/h1H2
Compound 5: 1,4-dioxane, C4H8O2, InChI=1S/C4H8O2/c1-2-6-4-3-5-1/h1-4H2, purity 99.4%

System: ethanol + water + 2S,3S-Paclobutrazol; phases: Liquid, Crystal
Fixed: Pressure, kPa = 101.1
Property: Mole fraction of 2S,3S-Paclobutrazol (Liquid); method: Chromatography
Temperature, K	Solvent: Mass fraction of ethanol	Mole fraction of 2S,3S-Paclobutrazol	uncertainty
278.15	0	3.964e-05	5.16e-06
280.65	0	5.22e-05	6.79e-06
283.15	0	6.565e-05	8.54e-06
285.65	0	7.763e-05	1.009e-05
288.15	0	8.75e-05	1.14e-05
290.65	0	0.0001114	1.45e-05
293.15	0	0.0001459	1.9e-05
295.65	0	0.0001812	2.36e-05
298.15	0	0.0002315	3.01e-05
300.65	0	0.0002949	3.84e-05
303.15	0	0.0003462	4.5e-05
305.65	0	0.0004083	5.31e-05
308.15	0	0.0004578	5.95e-05
310.65	0	0.0005397	7.02e-05
313.15	0	0.0006259	8.14e-05
278.15	0.1007	4.824e-05	6.27e-06
280.65	0.1007	6.246e-05	8.12e-06
283.15	0.1007	7.14e-05	9.29e-06
285.65	0.1007	9.441e-05	1.228e-05
288.15	0.1007	0.0001152	1.5e-05
290.65	0.1007	0.0001417	1.84e-05
293.15	0.1007	0.0001763	2.29e-05
295.65	0.1007	0.0002142	2.79e-05
298.15	0.1007	0.0002554	3.32e-05
300.65	0.1007	0.0003001	3.9e-05
303.15	0.1007	0.0003603	4.69e-05
305.65	0.1007	0.0004251	5.53e-05
308.15	0.1007	0.0004964	6.46e-05
310.65	0.1007	0.0005688	7.4e-05
313.15	0.1007	0.0006699	8.71e-05
278.15	0.2	7.197e-05	9.37e-06
280.65	0.2	9.147e-05	1.191e-05
283.15	0.2	0.0001085	1.41e-05
285.65	0.2	0.0001315	1.71e-05
288.15	0.2	0.000163	2.12e-05
290.65	0.2	0.0002025	2.64e-05
293.15	0.2	0.0002437	3.17e-05
295.65	0.2	0.0002894	3.77e-05
298.15	0.2	0.0003376	4.39e-05
300.65	0.2	0.0004011	5.22e-05
303.15	0.2	0.000481	6.26e-05
305.65	0.2	0.0005535	7.2e-05
308.15	0.2	0.0006479	8.43e-05
310.65	0.2	0.0007478	9.73e-05
313.15	0.2	0.0008606	0.000112
278.15	0.2999	0.000129	1.7e-05
280.65	0.2999	0.0001499	1.96e-05
283.15	0.2999	0.0001835	2.4e-05
285.65	0.2999	0.0002208	2.88e-05
288.15	0.2999	0.0002638	3.44e-05
290.65	0.2999	0.0003091	4.04e-05
293.15	0.2999	0.0003842	5.01e-05
295.65	0.2999	0.0004489	5.86e-05
298.15	0.2999	0.0005222	6.81e-05
300.65	0.2999	0.000605	7.89e-05
303.15	0.2999	0.0007168	9.35e-05
305.65	0.2999	0.0008438	0.0001101
308.15	0.2999	0.000992	0.0001294
310.65	0.2999	0.001124	0.000147
313.15	0.2999	0.001302	0.00017
278.15	0.3998	0.0002664	3.51e-05
280.65	0.3998	0.0003152	4.15e-05
283.15	0.3998	0.0003584	4.71e-05
285.65	0.3998	0.0004367	5.74e-05
288.15	0.3998	0.0005061	6.65e-05
290.65	0.3998	0.0006063	7.96e-05
293.15	0.3998	0.0007183	9.43e-05
295.65	0.3998	0.000847	0.0001111
298.15	0.3998	0.0009662	0.0001268
300.65	0.3998	0.001126	0.000148
303.15	0.3998	0.001341	0.000176
305.65	0.3998	0.001511	0.000198
308.15	0.3998	0.001745	0.000229
310.65	0.3998	0.001971	0.000258
313.15	0.3998	0.002229	0.000292
278.15	0.4996	0.0006005	7.99e-05
280.65	0.4996	0.000684	9.1e-05
283.15	0.4996	0.0007735	0.0001027
285.65	0.4996	0.0008928	0.0001186
288.15	0.4996	0.001061	0.000141
290.65	0.4996	0.001237	0.000164
293.15	0.4996	0.001431	0.00019
295.65	0.4996	0.001685	0.000223
298.15	0.4996	0.001917	0.000253
300.65	0.4996	0.002184	0.000289
303.15	0.4996	0.002513	0.000332
305.65	0.4996	0.00286	0.000377
308.15	0.4996	0.003254	0.000429
310.65	0.4996	0.003691	0.000486
313.15	0.4996	0.004128	0.000543
278.15	0.6001	0.001389	0.000183
280.65	0.6001	0.001588	0.000209
283.15	0.6001	0.001743	0.000229
285.65	0.6001	0.002049	0.000269
288.15	0.6001	0.002324	0.000305
290.65	0.6001	0.002728	0.000358
293.15	0.6001	0.003152	0.000414
295.65	0.6001	0.003564	0.000468
298.15	0.6001	0.004037	0.000529
300.65	0.6001	0.004617	0.000605
303.15	0.6001	0.005155	0.000675
305.65	0.6001	0.005736	0.000751
308.15	0.6001	0.006397	0.000838
310.65	0.6001	0.007065	0.000925
313.15	0.6001	0.007819	0.001024
278.15	0.7003	0.003011	0.000393
280.65	0.7003	0.003382	0.000442
283.15	0.7003	0.003694	0.000482
285.65	0.7003	0.004223	0.000551
288.15	0.7003	0.004731	0.000618
290.65	0.7003	0.005449	0.000711
293.15	0.7003	0.006252	0.000815
295.65	0.7003	0.006962	0.000908
298.15	0.7003	0.007648	0.000997
300.65	0.7003	0.008453	0.001102
303.15	0.7003	0.009512	0.00124
305.65	0.7003	0.01045	0.00136
308.15	0.7003	0.01165	0.00152
310.65	0.7003	0.01275	0.00166
313.15	0.7003	0.01401	0.00183
278.15	0.7998	0.005701	0.000742
280.65	0.7998	0.006051	0.000787
283.15	0.7998	0.006693	0.000871
285.65	0.7998	0.007482	0.000973
288.15	0.7998	0.008331	0.001084
290.65	0.7998	0.009225	0.0012
293.15	0.7998	0.01025	0.00133
295.65	0.7998	0.01133	0.00147
298.15	0.7998	0.01256	0.00163
300.65	0.7998	0.01356	0.00176
303.15	0.7998	0.01488	0.00194
305.65	0.7998	0.01627	0.00212
308.15	0.7998	0.01759	0.00229
310.65	0.7998	0.01906	0.00248
313.15	0.7998	0.02093	0.00272
278.15	0.9003	0.006781	0.000882
280.65	0.9003	0.007392	0.000961
283.15	0.9003	0.008141	0.001059
285.65	0.9003	0.009074	0.00118
288.15	0.9003	0.009895	0.001287
290.65	0.9003	0.01093	0.00142
293.15	0.9003	0.01198	0.00156
295.65	0.9003	0.01304	0.0017
298.15	0.9003	0.01415	0.00184
300.65	0.9003	0.01529	0.00199
303.15	0.9003	0.01658	0.00216
305.65	0.9003	0.01775	0.00231
308.15	0.9003	0.01921	0.0025
310.65	0.9003	0.02068	0.00269
313.15	0.9003	0.02226	0.00289

System: propan-1-ol + water + 2S,3S-Paclobutrazol; phases: Liquid, Crystal
Fixed: Pressure, kPa = 101.1
Property: Mole fraction of 2S,3S-Paclobutrazol (Liquid); method: Chromatography
Temperature, K	Solvent: Mass fraction of propan-1-ol	Mole fraction of 2S,3S-Paclobutrazol	uncertainty
278.15	0	3.964e-05	5.16e-06
280.65	0	5.22e-05	6.79e-06
283.15	0	6.565e-05	8.54e-06
285.65	0	7.763e-05	1.009e-05
288.15	0	8.75e-05	1.14e-05
290.65	0	0.0001114	1.45e-05
293.15	0	0.0001459	1.9e-05
295.65	0	0.0001812	2.36e-05
298.15	0	0.0002315	3.01e-05
300.65	0	0.0002949	3.84e-05
303.15	0	0.0003462	4.5e-05
305.65	0	0.0004083	5.31e-05
308.15	0	0.0004578	5.95e-05
310.65	0	0.0005397	7.02e-05
313.15	0	0.0006259	8.14e-05
278.15	0.1002	5.687e-05	7.4e-06
280.65	0.1002	7.013e-05	9.13e-06
283.15	0.1002	8.455e-05	1.1e-05
285.65	0.1002	0.0001097	1.43e-05
288.15	0.1002	0.000139	1.81e-05
290.65	0.1002	0.0001721	2.24e-05
293.15	0.1002	0.0002081	2.71e-05
295.65	0.1002	0.0002544	3.31e-05
298.15	0.1002	0.0003049	3.97e-05
300.65	0.1002	0.0003663	4.76e-05
303.15	0.1002	0.0004267	5.55e-05
305.65	0.1002	0.0004929	6.41e-05
308.15	0.1002	0.0005643	7.34e-05
310.65	0.1002	0.0006516	8.48e-05
313.15	0.1002	0.0007528	9.8e-05
278.15	0.1997	0.000124	1.62e-05
280.65	0.1997	0.0001448	1.89e-05
283.15	0.1997	0.0001786	2.33e-05
285.65	0.1997	0.0002194	2.87e-05
288.15	0.1997	0.0002673	3.49e-05
290.65	0.1997	0.0003221	4.2e-05
293.15	0.1997	0.0003871	5.05e-05
295.65	0.1997	0.0004634	6.05e-05
298.15	0.1997	0.0005503	7.18e-05
300.65	0.1997	0.0006535	8.52e-05
303.15	0.1997	0.0007676	0.0001001
305.65	0.1997	0.0008891	0.0001159
308.15	0.1997	0.001011	0.000132
310.65	0.1997	0.001152	0.00015
313.15	0.1997	0.001314	0.000171
278.15	0.2999	0.0003331	4.39e-05
280.65	0.2999	0.0003976	5.24e-05
283.15	0.2999	0.0004643	6.12e-05
285.65	0.2999	0.0005547	7.3e-05
288.15	0.2999	0.0006565	8.63e-05
290.65	0.2999	0.0007671	0.0001008
293.15	0.2999	0.000919	0.0001207
295.65	0.2999	0.00107	0.00014
298.15	0.2999	0.00126	0.000165
300.65	0.2999	0.001463	0.000192
303.15	0.2999	0.001688	0.000221
305.65	0.2999	0.001939	0.000254
308.15	0.2999	0.002171	0.000284
310.65	0.2999	0.002441	0.00032
313.15	0.2999	0.00274	0.000359
278.15	0.4009	0.0009283	0.000123
280.65	0.4009	0.001089	0.000144
283.15	0.4009	0.001269	0.000168
285.65	0.4009	0.001452	0.000192
288.15	0.4009	0.001653	0.000218
290.65	0.4009	0.001946	0.000257
293.15	0.4009	0.002262	0.000298
295.65	0.4009	0.002611	0.000344
298.15	0.4009	0.002938	0.000387
300.65	0.4009	0.003373	0.000444
303.15	0.4009	0.003821	0.000503
305.65	0.4009	0.004327	0.000569
308.15	0.4009	0.004809	0.000632
310.65	0.4009	0.005361	0.000704
313.15	0.4009	0.006002	0.000788
278.15	0.5002	0.002303	0.000305
280.65	0.5002	0.002591	0.000343
283.15	0.5002	0.002982	0.000394
285.65	0.5002	0.003342	0.000442
288.15	0.5002	0.003803	0.000502
290.65	0.5002	0.004341	0.000572
293.15	0.5002	0.004935	0.00065
295.65	0.5002	0.005602	0.000737
298.15	0.5002	0.006354	0.000836
300.65	0.5002	0.00725	0.000953
303.15	0.5002	0.008031	0.001055
305.65	0.5002	0.008912	0.00117
308.15	0.5002	0.009709	0.001274
310.65	0.5002	0.01062	0.00139
313.15	0.5002	0.0117	0.00154
278.15	0.5998	0.004751	0.000621
280.65	0.5998	0.005353	0.0007
283.15	0.5998	0.005951	0.000778
285.65	0.5998	0.006632	0.000867
288.15	0.5998	0.00739	0.000965
290.65	0.5998	0.008121	0.001061
293.15	0.5998	0.009164	0.001196
295.65	0.5998	0.01022	0.00133
298.15	0.5998	0.01118	0.00146
300.65	0.5998	0.01242	0.00162
303.15	0.5998	0.01369	0.00178
305.65	0.5998	0.01512	0.00197
308.15	0.5998	0.01641	0.00214
310.65	0.5998	0.01795	0.00234
313.15	0.5998	0.01954	0.00254
278.15	0.7003	0.00788	0.001026
280.65	0.7003	0.0087	0.001132
283.15	0.7003	0.00953	0.00124
285.65	0.7003	0.01048	0.00136
288.15	0.7003	0.01137	0.00148
290.65	0.7003	0.01251	0.00163
293.15	0.7003	0.01383	0.0018
295.65	0.7003	0.01492	0.00194
298.15	0.7003	0.01623	0.00211
300.65	0.7003	0.01736	0.00226
303.15	0.7003	0.01865	0.00243
305.65	0.7003	0.01964	0.00255
308.15	0.7003	0.02078	0.0027
310.65	0.7003	0.02183	0.00284
313.15	0.7003	0.02302	0.00299
278.15	0.8005	0.00949	0.001234
280.65	0.8005	0.01019	0.00133
283.15	0.8005	0.01103	0.00143
285.65	0.8005	0.01216	0.00158
288.15	0.8005	0.01329	0.00173
290.65	0.8005	0.01428	0.00186
293.15	0.8005	0.01535	0.002
295.65	0.8005	0.01625	0.00211
298.15	0.8005	0.01749	0.00227
300.65	0.8005	0.01892	0.00246
303.15	0.8005	0.02001	0.0026
305.65	0.8005	0.02141	0.00278
308.15	0.8005	0.02246	0.00292
310.65	0.8005	0.02354	0.00306
313.15	0.8005	0.02462	0.0032
278.15	0.9002	0.01087	0.00141
280.65	0.9002	0.01161	0.00151
283.15	0.9002	0.0124	0.00161
285.65	0.9002	0.01338	0.00174
288.15	0.9002	0.01441	0.00187
290.65	0.9002	0.01518	0.00197
293.15	0.9002	0.01641	0.00213
295.65	0.9002	0.01729	0.00225
298.15	0.9002	0.01839	0.00239
300.65	0.9002	0.01962	0.00255
303.15	0.9002	0.02092	0.00272
305.65	0.9002	0.0221	0.00287
308.15	0.9002	0.02317	0.00301
310.65	0.9002	0.02449	0.00318
313.15	0.9002	0.02541	0.0033

System: 1,4-dioxane + water + 2S,3S-Paclobutrazol; phases: Liquid, Crystal
Fixed: Pressure, kPa = 101.1
Property: Mole fraction of 2S,3S-Paclobutrazol (Liquid); method: Chromatography
Temperature, K	Solvent: Mass fraction of 1,4-dioxane	Mole fraction of 2S,3S-Paclobutrazol	uncertainty
288.15	0	8.75e-05	1.14e-05
290.65	0	0.0001114	1.45e-05
293.15	0	0.0001459	1.9e-05
295.65	0	0.0001812	2.36e-05
298.15	0	0.0002315	3.01e-05
300.65	0	0.0002949	3.84e-05
303.15	0	0.0003462	4.5e-05
305.65	0	0.0004083	5.31e-05
308.15	0	0.0004578	5.95e-05
310.65	0	0.0005397	7.02e-05
313.15	0	0.0006259	8.14e-05
288.15	0.1006	0.0001383	1.8e-05
290.65	0.1006	0.0001758	2.29e-05
293.15	0.1006	0.0002229	2.9e-05
295.65	0.1006	0.0002777	3.61e-05
298.15	0.1006	0.0003454	4.49e-05
300.65	0.1006	0.0004346	5.65e-05
303.15	0.1006	0.0005087	6.62e-05
305.65	0.1006	0.0005897	7.67e-05
308.15	0.1006	0.0006685	8.7e-05
310.65	0.1006	0.0007758	0.0001009
313.15	0.1006	0.0008943	0.0001164
288.15	0.1996	0.0002987	3.9e-05
290.65	0.1996	0.0003698	4.83e-05
293.15	0.1996	0.0004684	6.12e-05
295.65	0.1996	0.0005654	7.38e-05
298.15	0.1996	0.0007023	9.17e-05
300.65	0.1996	0.000855	0.0001116
303.15	0.1996	0.0009958	0.0001299
305.65	0.1996	0.001153	0.00015
308.15	0.1996	0.001286	0.000168
310.65	0.1996	0.001486	0.000194
313.15	0.1996	0.001692	0.000221
288.15	0.2998	0.0007399	9.72e-05
290.65	0.2998	0.0008996	0.0001181
293.15	0.2998	0.001118	0.000147
295.65	0.2998	0.001329	0.000174
298.15	0.2998	0.001624	0.000213
300.65	0.2998	0.001941	0.000254
303.15	0.2998	0.00223	0.000292
305.65	0.2998	0.002549	0.000334
308.15	0.2998	0.002819	0.000369
310.65	0.2998	0.003211	0.00042
313.15	0.2998	0.003637	0.000476
288.15	0.4005	0.001835	0.000242
290.65	0.4005	0.002202	0.00029
293.15	0.4005	0.002661	0.00035
295.65	0.4005	0.003126	0.000411
298.15	0.4005	0.003716	0.000489
300.65	0.4005	0.004357	0.000572
303.15	0.4005	0.004964	0.000652
305.65	0.4005	0.00562	0.000738
308.15	0.4005	0.006177	0.000811
310.65	0.4005	0.006964	0.000914
313.15	0.4005	0.007794	0.001023
288.15	0.4999	0.004102	0.00054
290.65	0.4999	0.004803	0.000632
293.15	0.4999	0.005647	0.000743
295.65	0.4999	0.006551	0.000861
298.15	0.4999	0.007583	0.000997
300.65	0.4999	0.008773	0.001153
303.15	0.4999	0.009929	0.001304
305.65	0.4999	0.01111	0.00146
308.15	0.4999	0.01228	0.00161
310.65	0.4999	0.01358	0.00178
313.15	0.4999	0.01497	0.00196
288.15	0.6003	0.007513	0.000981
290.65	0.6003	0.008705	0.001136
293.15	0.6003	0.01013	0.00132
295.65	0.6003	0.0116	0.00151
298.15	0.6003	0.01334	0.00174
300.65	0.6003	0.01529	0.00199
303.15	0.6003	0.01707	0.00223
305.65	0.6003	0.01885	0.00246
308.15	0.6003	0.02048	0.00267
310.65	0.6003	0.02259	0.00295
313.15	0.6003	0.02486	0.00324
288.15	0.7001	0.01157	0.00151
290.65	0.7001	0.01323	0.00172
293.15	0.7001	0.01522	0.00198
295.65	0.7001	0.01718	0.00224
298.15	0.7001	0.0196	0.00255
300.65	0.7001	0.02205	0.00287
303.15	0.7001	0.02434	0.00317
305.65	0.7001	0.02676	0.00348
308.15	0.7001	0.02904	0.00378
310.65	0.7001	0.03176	0.00413
313.15	0.7001	0.03468	0.00451
288.15	0.7998	0.01543	0.00201
290.65	0.7998	0.01761	0.00229
293.15	0.7998	0.01964	0.00255
295.65	0.7998	0.02206	0.00287
298.15	0.7998	0.02441	0.00317
300.65	0.7998	0.02699	0.00351
303.15	0.7998	0.02975	0.00387
305.65	0.7998	0.03242	0.00422
308.15	0.7998	0.03513	0.00457
310.65	0.7998	0.03817	0.00496
313.15	0.7998	0.04151	0.0054
288.15	0.901	0.01838	0.00239
290.65	0.901	0.02059	0.00268
293.15	0.901	0.02288	0.00298
295.65	0.901	0.02539	0.0033
298.15	0.901	0.02805	0.00365
300.65	0.901	0.03069	0.00399
303.15	0.901	0.03349	0.00435
305.65	0.901	0.03651	0.00475
308.15	0.901	0.03922	0.0051
310.65	0.901	0.04251	0.00553
313.15	0.901	0.04606	0.00599

System: water + 2S,3S-Paclobutrazol; phases: Liquid, Crystal
Fixed: Pressure, kPa = 101.1
Property: Mole fraction of 2S,3S-Paclobutrazol (Liquid); method: Chromatography
Temperature, K	Mole fraction of 2S,3S-Paclobutrazol	uncertainty
278.15	3.964e-05	5.16e-06
280.65	5.22e-05	6.79e-06
283.15	6.565e-05	8.54e-06
285.65	7.763e-05	1.009e-05
288.15	8.75e-05	1.14e-05
290.65	0.0001114	1.45e-05
293.15	0.0001459	1.9e-05
295.65	0.0001812	2.36e-05
298.15	0.0002315	3.01e-05
300.65	0.0002949	3.84e-05
303.15	0.0003462	4.5e-05
305.65	0.0004083	5.31e-05
308.15	0.0004578	5.95e-05
310.65	0.0005397	7.02e-05
313.15	0.0006259	8.14e-05
