Measured thermophysical data. (p, rho, T) properties and apparent molar volumes V/ of LiNO3 in methanol
Source: J. Chem. Thermodyn., 2006, 10.1016/j.jct.2006.01.008
Compound 1: methanol, CH4O, InChI=1S/CH4O/c1-2/h2H,1H3, purity 99.8%
Compound 2: lithium nitrate, LiNO3, InChI=1S/Li.NO3/c;2-1(3)4/q+1;-1, purity 99.8%

System: methanol + lithium nitrate; phases: Liquid
Property: Mass density, kg/m3 (Liquid); method: VIBTUB:UFactor:2
Molality, mol/kg of lithium nitrate	Temperature, K	Pressure, kPa	Mass density, kg/m3	uncertainty
0.15512	298.15	124	794.38	0.23
0.15512	298.15	4856	798.86	0.3
0.15512	298.15	11542	804.92	0.39
0.15512	298.15	16024	808.79	0.45
0.15512	298.15	19745	811.89	0.5
0.15512	298.15	25856	816.76	0.58
0.15512	298.15	30142	820.02	0.63
0.15512	298.15	35785	824.09	0.69
0.15512	298.15	39897	826.91	0.74
0.15512	323.15	412	770.76	0.26
0.15512	323.15	5784	776.58	0.34
0.15512	323.15	9859	780.81	0.41
0.15512	323.15	16173	787.05	0.5
0.15512	323.15	19786	790.45	0.55
0.15512	323.15	26297	796.26	0.64
0.15512	323.15	31035	800.23	0.7
0.15512	323.15	35748	803.97	0.76
0.15512	323.15	39867	807.06	0.82
0.15512	348.15	381	746.07	0.28
0.15512	348.15	5068	751.95	0.36
0.15512	348.15	10875	758.86	0.46
0.15512	348.15	15038	763.56	0.53
0.15512	348.15	19875	768.75	0.6
0.15512	348.15	26038	774.93	0.7
0.15512	348.15	31412	779.95	0.77
0.15512	348.15	35748	783.73	0.84
0.15512	348.15	39784	787.04	0.89
0.15512	373.15	572	719.83	0.31
0.15512	373.15	4896	726.23	0.39
0.15512	373.15	10738	734.38	0.5
0.15512	373.15	15238	740.28	0.58
0.15512	373.15	21035	747.38	0.68
0.15512	373.15	25124	752.05	0.74
0.15512	373.15	30418	757.68	0.83
0.15512	373.15	35984	763.11	0.92
0.15512	373.15	39901	766.61	0.97
0.15512	398.15	1432	691.82	0.35
0.15512	398.15	5126	698.39	0.43
0.15512	398.15	10628	707.59	0.54
0.15512	398.15	15234	714.77	0.63
0.15512	398.15	21035	723.12	0.74
0.15512	398.15	26078	729.75	0.83
0.15512	398.15	30027	734.55	0.9
0.15512	398.15	35941	741.06	1
0.15512	398.15	39789	744.86	1.06
0.29425	298.15	125	800.98	0.23
0.29425	298.15	5035	805.54	0.3
0.29425	298.15	10235	810.19	0.37
0.29425	298.15	15247	814.48	0.43
0.29425	298.15	20056	818.43	0.49
0.29425	298.15	25158	822.44	0.55
0.29425	298.15	30235	826.24	0.61
0.29425	298.15	35751	830.16	0.67
0.29425	298.15	39875	832.95	0.71
0.29425	323.15	321	777.56	0.25
0.29425	323.15	5087	782.63	0.32
0.29425	323.15	10862	788.49	0.41
0.29425	323.15	15038	792.54	0.47
0.29425	323.15	20742	797.81	0.55
0.29425	323.15	25168	801.7	0.61
0.29425	323.15	30685	806.29	0.68
0.29425	323.15	35027	809.7	0.73
0.29425	323.15	40002	813.4	0.79
0.29425	348.15	425	753.31	0.27
0.29425	348.15	5124	759.07	0.35
0.29425	348.15	10572	765.41	0.44
0.29425	348.15	15324	770.66	0.52
0.29425	348.15	20125	775.7	0.59
0.29425	348.15	25632	781.14	0.67
0.29425	348.15	30057	785.25	0.73
0.29425	348.15	35942	790.36	0.82
0.29425	348.15	39511	793.25	0.86
0.29425	373.15	627	727.47	0.3
0.29425	373.15	5038	733.83	0.38
0.29425	373.15	10365	741.1	0.48
0.29425	373.15	15875	748.15	0.57
0.29425	373.15	20369	753.53	0.65
0.29425	373.15	25852	759.66	0.74
0.29425	373.15	30147	764.13	0.8
0.29425	373.15	35753	769.52	0.89
0.29425	373.15	39951	773.22	0.95
0.29425	398.15	1035	699.13	0.34
0.29425	398.15	5236	706.42	0.42
0.29425	398.15	10698	715.31	0.53
0.29425	398.15	15874	723.14	0.63
0.29425	398.15	20452	729.57	0.71
0.29425	398.15	25235	735.81	0.79
0.29425	398.15	30385	741.96	0.88
0.29425	398.15	35256	747.26	0.96
0.29425	398.15	39127	751.09	1.02
0.53931	298.28	205	811.38	0.22
0.53931	298.28	4985	815.76	0.28
0.53931	298.28	9995	820.13	0.35
0.53931	298.28	15005	824.3	0.41
0.53931	298.28	19996	828.26	0.47
0.53931	298.28	24994	832.06	0.52
0.53931	298.28	29991	835.71	0.58
0.53931	298.28	34996	839.23	0.63
0.53931	298.28	39995	842.62	0.68
0.53931	323.23	211	788.49	0.24
0.53931	323.23	4989	793.5	0.31
0.53931	323.23	9991	798.45	0.38
0.53931	323.23	14999	803.13	0.45
0.53931	323.23	19999	807.57	0.51
0.53931	323.23	24997	811.8	0.58
0.53931	323.23	29993	815.84	0.64
0.53931	323.23	34988	819.71	0.7
0.53931	323.23	39995	823.45	0.75
0.53931	348.25	325	764.85	0.26
0.53931	348.25	4991	770.52	0.34
0.53931	348.25	10014	776.21	0.42
0.53931	348.25	14987	781.48	0.49
0.53931	348.25	20004	786.51	0.56
0.53931	348.25	25002	791.23	0.63
0.53931	348.25	29989	795.72	0.7
0.53931	348.25	34987	800.01	0.77
0.53931	348.25	39988	804.12	0.83
0.53931	373.28	542	739.72	0.29
0.53931	373.28	4986	746.09	0.37
0.53931	373.28	9996	752.7	0.45
0.53931	373.28	14984	758.8	0.54
0.53931	373.28	20003	764.52	0.62
0.53931	373.28	24985	769.85	0.69
0.53931	373.28	29993	774.9	0.77
0.53931	373.28	35001	779.7	0.84
0.53931	373.28	39997	784.24	0.91
0.53931	398.29	904	712.1	0.32
0.53931	398.29	4996	719.24	0.4
0.53931	398.29	9985	727.14	0.5
0.53931	398.29	15010	734.37	0.59
0.53931	398.29	20018	740.98	0.67
0.53931	398.29	25002	747.09	0.76
0.53931	398.29	30001	752.82	0.84
0.53931	398.29	34984	758.22	0.92
0.53931	398.29	39996	763.34	0.99
0.89045	298.15	254	826.51	0.21
0.89045	298.15	5745	831.27	0.28
0.89045	298.15	10235	835.02	0.33
0.89045	298.15	15625	839.35	0.39
0.89045	298.15	20856	843.37	0.44
0.89045	298.15	25656	846.91	0.49
0.89045	298.15	30254	850.16	0.54
0.89045	298.15	35626	853.78	0.59
0.89045	298.15	39957	856.57	0.62
0.89045	323.15	215	804.21	0.23
0.89045	323.15	5026	809.05	0.29
0.89045	323.15	10214	814.03	0.36
0.89045	323.15	15864	819.19	0.43
0.89045	323.15	20247	823	0.48
0.89045	323.15	25632	827.45	0.54
0.89045	323.15	30058	830.92	0.59
0.89045	323.15	35214	834.74	0.65
0.89045	323.15	39867	837.98	0.69
0.89045	348.15	409	781.31	0.25
0.89045	348.15	5124	786.59	0.32
0.89045	348.15	10865	792.73	0.4
0.89045	348.15	15326	797.27	0.47
0.89045	348.15	20875	802.64	0.54
0.89045	348.15	25412	806.8	0.6
0.89045	348.15	30587	811.29	0.66
0.89045	348.15	35231	815.1	0.72
0.89045	348.15	40005	818.78	0.77
0.89045	373.15	578	757.09	0.27
0.89045	373.15	4896	762.68	0.35
0.89045	373.15	10738	769.86	0.44
0.89045	373.15	15238	775.11	0.51
0.89045	373.15	21035	781.49	0.59
0.89045	373.15	25124	785.73	0.65
0.89045	373.15	30418	790.91	0.72
0.89045	373.15	35984	795.98	0.8
0.89045	373.15	39901	799.31	0.85
0.89045	398.15	1138	730.97	0.31
0.89045	398.15	5023	736.91	0.38
0.89045	398.15	10058	744.23	0.47
0.89045	398.15	15573	751.75	0.56
0.89045	398.15	20035	757.46	0.64
0.89045	398.15	25069	763.49	0.72
0.89045	398.15	30047	769.04	0.79
0.89045	398.15	35845	774.96	0.87
0.89045	398.15	39254	778.18	0.92
1.80347	298.28	189	863.5	0.18
1.80347	298.28	4986	867.42	0.22
1.80347	298.28	9983	871.31	0.27
1.80347	298.28	14986	875.06	0.31
1.80347	298.28	19989	878.65	0.35
1.80347	298.28	24989	882.11	0.39
1.80347	298.28	29989	885.44	0.42
1.80347	298.28	34990	888.67	0.46
1.80347	298.28	39997	891.8	0.49
1.80347	323.23	234	842.01	0.2
1.80347	323.23	4988	846.4	0.25
1.80347	323.23	10005	850.8	0.3
1.80347	323.23	15005	854.96	0.35
1.80347	323.23	19992	858.94	0.4
1.80347	323.23	24995	862.77	0.44
1.80347	323.23	30014	866.46	0.48
1.80347	323.23	34999	869.98	0.52
1.80347	323.23	39997	873.39	0.56
1.80347	348.25	318	819.91	0.22
1.80347	348.25	5009	824.85	0.27
1.80347	348.25	10005	829.8	0.33
1.80347	348.25	14983	834.47	0.39
1.80347	348.25	19991	838.93	0.44
1.80347	348.25	24984	843.17	0.49
1.80347	348.25	30007	847.26	0.54
1.80347	348.25	34996	851.13	0.59
1.80347	348.25	39995	854.88	0.63
1.80347	373.27	532	796.7	0.24
1.80347	373.27	4988	802.12	0.3
1.80347	373.27	9996	807.82	0.37
1.80347	373.27	14985	813.14	0.43
1.80347	373.27	19990	818.17	0.49
1.80347	373.27	24989	822.92	0.55
1.80347	373.27	30013	827.46	0.61
1.80347	373.27	35004	831.77	0.66
1.80347	373.27	39997	835.89	0.71
1.80347	398.29	906	771.63	0.27
1.80347	398.29	4994	777.53	0.33
1.80347	398.29	9986	784.19	0.41
1.80347	398.29	14989	790.36	0.48
1.80347	398.29	19986	796.11	0.55
1.80347	398.29	24995	801.52	0.61
1.80347	398.29	29986	806.59	0.67
1.80347	398.29	34988	811.42	0.73
1.80347	398.29	40001	816.03	0.79
3.61398	298.27	205	928.48	0.14
3.61398	298.27	5001	931.92	0.15
3.61398	298.27	10011	935.38	0.17
3.61398	298.27	15005	938.69	0.19
3.61398	298.27	19984	941.89	0.21
3.61398	298.27	25008	945.02	0.22
3.61398	298.27	30003	948.03	0.23
3.61398	298.27	35001	950.96	0.25
3.61398	298.27	40010	953.79	0.26
3.61398	323.23	206	908.05	0.15
3.61398	323.23	4982	911.88	0.17
3.61398	323.23	9987	915.71	0.2
3.61398	323.23	14993	919.41	0.23
3.61398	323.23	19987	922.95	0.25
3.61398	323.23	24991	926.36	0.27
3.61398	323.23	29998	929.67	0.29
3.61398	323.23	34989	932.86	0.31
3.61398	323.23	39993	935.96	0.32
3.61398	348.25	312	887.13	0.16
3.61398	348.25	5006	891.37	0.2
3.61398	348.25	9982	895.64	0.23
3.61398	348.25	15007	899.77	0.26
3.61398	348.25	19995	903.68	0.29
3.61398	348.25	24990	907.45	0.32
3.61398	348.25	29996	911.08	0.35
3.61398	348.25	34994	914.59	0.37
3.61398	348.25	40008	917.97	0.39
3.61398	373.27	528	865.29	0.19
3.61398	373.27	5015	869.9	0.23
3.61398	373.27	10010	874.76	0.27
3.61398	373.27	14994	879.35	0.31
3.61398	373.27	19991	883.74	0.34
3.61398	373.27	24995	887.93	0.38
3.61398	373.27	29999	891.95	0.41
3.61398	373.27	34987	895.79	0.44
3.61398	373.27	39994	899.5	0.46
3.61398	398.28	900	842.05	0.21
3.61398	398.28	4994	846.92	0.25
3.61398	398.28	10001	852.52	0.3
3.61398	398.28	14988	857.76	0.35
3.61398	398.28	19997	862.72	0.39
3.61398	398.28	24994	867.42	0.43
3.61398	398.28	29993	871.89	0.47
3.61398	398.28	34991	876.17	0.51
3.61398	398.28	39987	880.27	0.54
