Measured thermophysical data. Excess enthalpy for the (benzene + cyclohexane) mixture over a wide range of temperature and pressure
Source: J. Chem. Thermodyn., 2014, 10.1016/j.jct.2014.05.020
Compound 1: water, H2O, InChI=1S/H2O/h1H2, purity 99.8%
Compound 2: ethanol, C2H6O, InChI=1S/C2H6O/c1-2-3/h3H,2H2,1H3, purity 99.6%
Compound 3: benzene, C6H6, InChI=1S/C6H6/c1-2-4-6-5-3-1/h1-6H, purity 99.9%
Compound 4: cyclohexane, C6H12, InChI=1S/C6H12/c1-2-4-6-5-3-1/h1-6H2, purity 99.9%

System: ethanol + water; phases: Liquid
Property: Excess molar enthalpy (molar enthalpy of mixing), kJ/mol (Liquid); method: Flow calorimetry
Temperature, K	Pressure, kPa	Mole fraction of water	Excess molar enthalpy (molar enthalpy of mixing), kJ/mol	uncertainty
423.2	5000	0.1473	0.3929	0.015
423.2	5000	0.2673	0.6656	0.0141
423.2	5000	0.4508	0.901	0.014
423.2	5000	0.5845	0.9103	0.0136
423.2	5000	0.6864	0.818	0.013
423.2	5000	0.7665	0.6846	0.0124
423.2	5000	0.8312	0.5352	0.0119
423.2	5000	0.8845	0.3836	0.0115
423.2	5000	0.9292	0.2381	0.0113
423.2	5000	0.9673	0.1066	0.0112
423.2	15000	0.1466	0.3842	0.0162
423.2	15000	0.2662	0.6529	0.0177
423.2	15000	0.4493	0.8982	0.0191
423.2	15000	0.5831	0.9113	0.0188
423.2	15000	0.6851	0.8253	0.0183
423.2	15000	0.7655	0.6946	0.0182
423.2	15000	0.8304	0.5455	0.0183
423.2	15000	0.8839	0.3922	0.0186
423.2	15000	0.9289	0.2442	0.0188
423.2	15000	0.9671	0.1102	0.0186
523.2	15000	0.1466	0.7867	0.0274
523.2	15000	0.2662	1.2739	0.0198
523.2	15000	0.4493	1.6766	0.0191
523.2	15000	0.5831	1.715	0.0236
523.2	15000	0.6851	1.5605	0.0318
523.2	15000	0.7655	1.3464	0.0405
523.2	15000	0.8304	1.09	0.05
523.2	15000	0.8839	0.8281	0.0601
523.2	15000	0.9289	0.5485	0.0725
523.2	15000	0.9671	0.2651	0.0994

System: benzene + cyclohexane; phases: Liquid
Property: Excess molar enthalpy (molar enthalpy of mixing), kJ/mol (Liquid); method: Flow calorimetry
Temperature, K	Pressure, kPa	Mole fraction of benzene	Excess molar enthalpy (molar enthalpy of mixing), kJ/mol	uncertainty
298.2	5000	0.1189	0.318	0.0148
298.2	5000	0.1765	0.4438	0.0146
298.2	5000	0.233	0.5507	0.0142
298.2	5000	0.2882	0.6367	0.0139
298.2	5000	0.3424	0.7	0.0135
298.2	5000	0.3955	0.744	0.0134
298.2	5000	0.4475	0.7707	0.0133
298.2	5000	0.4985	0.7873	0.0133
298.2	5000	0.5485	0.7832	0.0132
298.2	5000	0.5976	0.7631	0.0133
298.2	5000	0.6457	0.7289	0.0133
298.2	5000	0.6929	0.6925	0.0135
298.2	5000	0.7392	0.6326	0.014
298.2	5000	0.7847	0.5568	0.0143
298.2	5000	0.8293	0.4721	0.0149
298.2	5000	0.8732	0.3702	0.0156
298.2	5000	0.9162	0.257	0.0158
298.2	15000	0.1188	0.2988	0.0143
298.2	15000	0.2327	0.5381	0.0148
298.2	15000	0.2879	0.6265	0.0141
298.2	15000	0.3421	0.6946	0.0136
298.2	15000	0.3951	0.7434	0.0135
298.2	15000	0.4471	0.7741	0.0133
298.2	15000	0.4981	0.7882	0.0133
298.2	15000	0.5482	0.7857	0.0132
298.2	15000	0.5972	0.7678	0.0133
298.2	15000	0.6454	0.7332	0.0135
298.2	15000	0.6926	0.6849	0.0136
298.2	15000	0.7389	0.6247	0.0139
298.2	15000	0.7845	0.5495	0.0144
298.2	15000	0.8291	0.4592	0.0155
298.2	15000	0.9161	0.2455	0.0152
298.2	25000	0.1187	0.3012	0.0144
298.2	25000	0.2325	0.5383	0.0141
298.2	25000	0.3418	0.698	0.0134
298.2	25000	0.4469	0.7722	0.0131
298.2	25000	0.5479	0.7837	0.013
298.2	25000	0.6451	0.7321	0.0133
298.2	25000	0.7388	0.6254	0.0135
298.2	25000	0.7843	0.5515	0.0143
298.2	25000	0.829	0.4636	0.0154
298.2	25000	0.916	0.2483	0.0154
348.2	5000	0.1189	0.2666	0.0133
348.2	5000	0.233	0.4621	0.0134
348.2	5000	0.3424	0.5916	0.0129
348.2	5000	0.4475	0.6537	0.0127
348.2	5000	0.5485	0.6632	0.0127
348.2	5000	0.6457	0.6183	0.0128
348.2	5000	0.7392	0.528	0.0132
348.2	5000	0.8293	0.3925	0.0138
348.2	5000	0.9162	0.2151	0.0144
348.2	5000	0.9585	0.1105	0.0155
348.2	15000	0.1188	0.2516	0.0134
348.2	15000	0.2327	0.4544	0.0134
348.2	15000	0.3421	0.5846	0.0129
348.2	15000	0.4471	0.6518	0.0127
348.2	15000	0.5482	0.6624	0.0127
348.2	15000	0.6454	0.6203	0.0128
348.2	15000	0.7389	0.5297	0.0132
348.2	15000	0.8291	0.3937	0.0139
348.2	15000	0.9161	0.2136	0.0145
348.2	15000	0.9584	0.1082	0.0157
348.2	25000	0.1187	0.2686	0.0139
348.2	25000	0.1762	0.3771	0.0139
348.2	25000	0.2325	0.4696	0.0131
348.2	25000	0.3418	0.5976	0.013
348.2	25000	0.4469	0.662	0.0127
348.2	25000	0.5479	0.6683	0.0127
348.2	25000	0.6451	0.6238	0.0129
348.2	25000	0.7388	0.5296	0.0133
348.2	25000	0.829	0.3902	0.0135
348.2	25000	0.8729	0.3046	0.0144
348.2	25000	0.916	0.21	0.015
348.2	25000	0.9584	0.1014	0.0157
423.2	5000	0.1189	0.2136	0.0128
423.2	5000	0.1765	0.3012	0.0128
423.2	5000	0.233	0.3706	0.0124
423.2	5000	0.3424	0.4737	0.0123
423.2	5000	0.4475	0.5265	0.0122
423.2	5000	0.5485	0.5345	0.0122
423.2	5000	0.6457	0.5001	0.0123
423.2	5000	0.7392	0.4293	0.0125
423.2	5000	0.8293	0.3207	0.0127
423.2	5000	0.8732	0.2525	0.0134
423.2	5000	0.9162	0.1778	0.0137
423.2	5000	0.9585	0.0924	0.014
423.2	15000	0.1188	0.21	0.0129
423.2	15000	0.1763	0.2979	0.0128
423.2	15000	0.2327	0.3654	0.0123
423.2	15000	0.3421	0.4652	0.0123
423.2	15000	0.4471	0.5173	0.0122
423.2	15000	0.5482	0.5237	0.0122
423.2	15000	0.6454	0.489	0.0123
423.2	15000	0.7389	0.4185	0.0125
423.2	15000	0.8291	0.3108	0.0127
423.2	15000	0.873	0.2416	0.0134
423.2	15000	0.9161	0.1687	0.0136
423.2	15000	0.9584	0.0848	0.0138
423.2	25000	0.1187	0.2118	0.0128
423.2	25000	0.1762	0.296	0.0128
423.2	25000	0.2325	0.3653	0.0124
423.2	25000	0.3418	0.4677	0.0124
423.2	25000	0.4469	0.5187	0.0123
423.2	25000	0.5479	0.5233	0.0122
423.2	25000	0.6451	0.4876	0.0123
423.2	25000	0.7388	0.4166	0.0125
423.2	25000	0.829	0.3075	0.0127
423.2	25000	0.8729	0.2411	0.0133
423.2	25000	0.916	0.165	0.0137
423.2	25000	0.9584	0.0808	0.014
473.2	5000	0.1189	0.1894	0.0124
473.2	5000	0.1765	0.2649	0.0124
473.2	5000	0.233	0.3253	0.012
473.2	5000	0.3424	0.414	0.012
473.2	5000	0.4475	0.4598	0.0119
473.2	5000	0.5485	0.464	0.0119
473.2	5000	0.6457	0.4329	0.012
473.2	5000	0.7392	0.3652	0.0122
473.2	5000	0.8293	0.2649	0.0124
473.2	5000	0.8732	0.2035	0.0128
473.2	5000	0.9162	0.1388	0.0128
473.2	5000	0.9585	0.0771	0.0125
473.2	15000	0.1188	0.1815	0.0123
473.2	15000	0.1763	0.2531	0.0124
473.2	15000	0.2327	0.314	0.012
473.2	15000	0.3421	0.3998	0.012
473.2	15000	0.4471	0.4446	0.0119
473.2	15000	0.5482	0.4495	0.0119
473.2	15000	0.6454	0.4198	0.012
473.2	15000	0.7389	0.3549	0.0122
473.2	15000	0.8291	0.2575	0.0124
473.2	15000	0.873	0.1967	0.0128
473.2	15000	0.9161	0.1324	0.0128
473.2	15000	0.9584	0.0724	0.0127
473.2	25000	0.1187	0.1756	0.0122
473.2	25000	0.1762	0.2461	0.0123
473.2	25000	0.2325	0.305	0.012
473.2	25000	0.3418	0.3887	0.0119
473.2	25000	0.4469	0.4313	0.0119
473.2	25000	0.5479	0.4357	0.0119
473.2	25000	0.6451	0.4049	0.0119
473.2	25000	0.7388	0.341	0.0122
473.2	25000	0.829	0.2442	0.0123
473.2	25000	0.8729	0.185	0.0127
473.2	25000	0.916	0.1203	0.0127
473.2	25000	0.9584	0.0624	0.0124
498.2	5000	0.1189	0.1869	0.0124
498.2	5000	0.1765	0.2614	0.0124
498.2	5000	0.233	0.3238	0.012
498.2	5000	0.3424	0.4115	0.0119
498.2	5000	0.4475	0.4566	0.0117
498.2	5000	0.5485	0.4613	0.0117
498.2	5000	0.6457	0.4288	0.0118
498.2	5000	0.7392	0.3609	0.0121
498.2	5000	0.8293	0.2585	0.0124
498.2	5000	0.8732	0.1945	0.013
498.2	5000	0.9162	0.1236	0.0128
498.2	15000	0.1188	0.1747	0.0123
498.2	15000	0.1763	0.2436	0.0122
498.2	15000	0.2327	0.2997	0.0119
498.2	15000	0.3421	0.3807	0.0119
498.2	15000	0.4471	0.422	0.0117
498.2	15000	0.5482	0.4249	0.0118
498.2	15000	0.6454	0.3946	0.0118
498.2	15000	0.7389	0.3311	0.012
498.2	15000	0.8291	0.2363	0.0123
498.2	15000	0.873	0.1757	0.0128
498.2	15000	0.9161	0.1098	0.0126
523.2	5000	0.1189	0.1916	0.0126
523.2	5000	0.1765	0.2693	0.0125
523.2	5000	0.233	0.3338	0.0121
523.2	5000	0.3424	0.4246	0.0119
523.2	5000	0.4475	0.47	0.0118
523.2	5000	0.5485	0.4763	0.0118
523.2	5000	0.6457	0.4391	0.0119
523.2	5000	0.7392	0.3671	0.0122
523.2	5000	0.8293	0.259	0.0125
523.2	5000	0.8732	0.1939	0.0129
523.2	5000	0.9162	0.1267	0.0126
523.2	5000	0.9585	0.0725	0.0123
523.2	15000	0.1188	0.1621	0.0119
523.2	15000	0.1763	0.2255	0.0121
523.2	15000	0.2327	0.2789	0.0118
523.2	15000	0.3421	0.3578	0.0118
523.2	15000	0.4471	0.3956	0.0117
523.2	15000	0.5482	0.398	0.0117
523.2	15000	0.6454	0.368	0.0118
523.2	15000	0.7389	0.3063	0.012
523.2	15000	0.8291	0.216	0.0121
523.2	15000	0.873	0.1636	0.0124
523.2	15000	0.9161	0.1045	0.0123
523.2	15000	0.9584	0.0534	0.0119
523.2	25000	0.1187	0.1543	0.012
523.2	25000	0.1762	0.2159	0.012
523.2	25000	0.2325	0.2692	0.0118
523.2	25000	0.3418	0.3418	0.0118
523.2	25000	0.4469	0.3761	0.0117
523.2	25000	0.5479	0.378	0.0117
523.2	25000	0.6451	0.3499	0.0118
523.2	25000	0.7388	0.2903	0.012
523.2	25000	0.829	0.2022	0.0121
523.2	25000	0.8729	0.1534	0.0123
523.2	25000	0.916	0.0978	0.0122
523.2	25000	0.9584	0.0514	0.012
298.2	100	0.1191	0.3207	0.0143
298.2	100	0.2332	0.5517	0.0145
298.2	100	0.2885	0.6373	0.0138
298.2	100	0.3426	0.7003	0.0134
298.2	100	0.3957	0.7487	0.0133
298.2	100	0.4478	0.7782	0.0131
298.2	100	0.4988	0.7893	0.0131
298.2	100	0.5488	0.7863	0.0131
298.2	100	0.5978	0.7678	0.0131
298.2	100	0.6459	0.7353	0.0133
298.2	100	0.6931	0.6889	0.0135
298.2	100	0.7394	0.6282	0.0139
298.2	100	0.7849	0.5548	0.0142
298.2	100	0.8295	0.4679	0.0151
298.2	100	0.9163	0.2636	0.015

System: benzene + cyclohexane; phases: Fluid (supercritical or subcritical phases)
Fixed: Temperature, K = 573.2
Property: Excess molar enthalpy (molar enthalpy of mixing), kJ/mol (Fluid (supercritical or subcritical phases)); method: Flow calorimetry
Pressure, kPa	Mole fraction of benzene	Excess molar enthalpy (molar enthalpy of mixing), kJ/mol	uncertainty
15000	0.1188	0.1497	0.012
15000	0.1763	0.2106	0.0119
15000	0.2327	0.2558	0.0117
15000	0.3421	0.3295	0.0116
15000	0.4471	0.3683	0.0115
15000	0.5482	0.373	0.0115
15000	0.6454	0.3436	0.0116
15000	0.7389	0.2874	0.0118
15000	0.8291	0.2062	0.012
15000	0.873	0.1511	0.0122
15000	0.9161	0.1045	0.0122
15000	0.9584	0.0501	0.0123
25000	0.1187	0.1394	0.0119
25000	0.1762	0.1982	0.0118
25000	0.2325	0.2393	0.0116
25000	0.3418	0.3089	0.0116
25000	0.4469	0.345	0.0115
25000	0.5479	0.3491	0.0115
25000	0.6451	0.3208	0.0115
25000	0.7388	0.268	0.0117
25000	0.829	0.1882	0.0119
25000	0.8729	0.1388	0.0122
25000	0.916	0.0838	0.0121
25000	0.9584	0.0399	0.0119
