Measured thermophysical data. Determination and correlation of pyridoxine hydrochloride solubility in different binary mixtures at temperatures from (278.15 to 313.15) K
Source: J. Chem. Thermodyn., 2016, 10.1016/j.jct.2015.09.026
Compound 1: 5-hydroxy-6-methyl-3,4-pyridinedimethanol hydrochloride, C8H12ClNO3, InChI=1S/C8H11NO3.ClH/c1-5-8(12)7(4-11)6(3-10)2-9-5;/h2,10-12H,3-4H2,1H3;1H, purity 99%
Compound 2: methanol, CH4O, InChI=1S/CH4O/c1-2/h2H,1H3, purity 99.5%
Compound 3: ethanol, C2H6O, InChI=1S/C2H6O/c1-2-3/h3H,2H2,1H3, purity 99.5%
Compound 4: acetone, C3H6O, InChI=1S/C3H6O/c1-3(2)4/h1-2H3, purity 99.5%
Compound 5: water, H2O, InChI=1S/H2O/h1H2

System: 5-hydroxy-6-methyl-3,4-pyridinedimethanol hydrochloride + acetone + water; phases: Liquid, Crystal
Fixed: Pressure, kPa = 100
Property: Mole fraction of 5-hydroxy-6-methyl-3,4-pyridinedimethanol hydrochloride (Liquid); method: Gravimetric
Temperature, K	Solvent: Mole fraction of acetone	Mole fraction of 5-hydroxy-6-methyl-3,4-pyridinedimethanol hydrochloride	uncertainty
278.15	0	0.010505	0.000635
278.15	0.1	0.010786	0.000655
278.15	0.2	0.009454	0.000573
278.15	0.3	0.007731	0.000471
278.15	0.4	0.005242	0.000329
278.15	0.5	0.003002	0.000203
278.15	0.6	0.001486	0.000116
278.15	0.7	0.000505	7.5e-05
283.15	0	0.012319	0.000744
283.15	0.1	0.012729	0.000768
283.15	0.2	0.01122	0.000678
283.15	0.3	0.008679	0.000529
283.15	0.4	0.005768	0.000363
283.15	0.5	0.00341	0.00023
283.15	0.6	0.001649	0.000131
283.15	0.7	0.000575	8.2e-05
288.15	0	0.014389	0.000869
288.15	0.1	0.014693	0.000887
288.15	0.2	0.012583	0.000761
288.15	0.3	0.009569	0.000583
288.15	0.4	0.006409	0.000403
288.15	0.5	0.003813	0.000257
288.15	0.6	0.001816	0.000144
288.15	0.7	0.000678	8.9e-05
293.15	0	0.016816	0.001014
293.15	0.1	0.01748	0.001055
293.15	0.2	0.014893	0.000902
293.15	0.3	0.010644	0.000652
293.15	0.4	0.007302	0.000457
293.15	0.5	0.004534	0.000303
293.15	0.6	0.00207	0.000168
293.15	0.7	0.000802	0.000101
298.15	0	0.019114	0.001152
298.15	0.1	0.020159	0.001215
298.15	0.2	0.017266	0.001044
298.15	0.3	0.012535	0.000768
298.15	0.4	0.008451	0.000532
298.15	0.5	0.005037	0.00034
298.15	0.6	0.002374	0.000189
298.15	0.7	0.000931	0.000115
303.15	0	0.022031	0.001328
303.15	0.1	0.02299	0.001385
303.15	0.2	0.019803	0.001197
303.15	0.3	0.014355	0.000878
303.15	0.4	0.010242	0.000641
303.15	0.5	0.0059	0.000401
303.15	0.6	0.002836	0.000224
303.15	0.7	0.001081	0.000139
308.15	0	0.025022	0.001508
308.15	0.1	0.026085	0.001572
308.15	0.2	0.022636	0.001368
308.15	0.3	0.016753	0.001025
308.15	0.4	0.011545	0.000726
308.15	0.5	0.006678	0.000454
308.15	0.6	0.003237	0.000255
308.15	0.7	0.001214	0.000159
313.15	0	0.028551	0.00172
313.15	0.1	0.029901	0.001797
313.15	0.2	0.026061	0.001571
313.15	0.3	0.019782	0.001208
313.15	0.4	0.013983	0.000877
313.15	0.5	0.008145	0.000557
313.15	0.6	0.003751	0.000307
313.15	0.7	0.00138	0.000186

System: 5-hydroxy-6-methyl-3,4-pyridinedimethanol hydrochloride + methanol + water; phases: Liquid, Crystal
Fixed: Pressure, kPa = 100
Property: Mole fraction of 5-hydroxy-6-methyl-3,4-pyridinedimethanol hydrochloride (Liquid); method: Gravimetric
Temperature, K	Solvent: Mole fraction of methanol	Mole fraction of 5-hydroxy-6-methyl-3,4-pyridinedimethanol hydrochloride	uncertainty
278.15	0	0.010505	0.001053
278.15	0.1	0.009659	0.000969
278.15	0.2	0.009072	0.00091
278.15	0.3	0.008454	0.000849
278.15	0.4	0.00785	0.000788
278.15	0.5	0.00713	0.000717
278.15	0.6	0.00619	0.000624
278.15	0.7	0.005083	0.000515
278.15	0.8	0.003998	0.000408
278.15	0.9	0.003087	0.000319
278.15	1	0.002215	0.000222
283.15	0	0.012319	0.001235
283.15	0.1	0.011516	0.001154
283.15	0.2	0.01086	0.001089
283.15	0.3	0.010159	0.001018
283.15	0.4	0.009489	0.000952
283.15	0.5	0.008473	0.000851
283.15	0.6	0.007357	0.000741
283.15	0.7	0.005901	0.000599
283.15	0.8	0.004614	0.000473
283.15	0.9	0.00343	0.000356
283.15	1	0.002533	0.000254
288.15	0	0.014389	0.001442
288.15	0.1	0.013479	0.001351
288.15	0.2	0.012572	0.00126
288.15	0.3	0.01177	0.00118
288.15	0.4	0.010801	0.001083
288.15	0.5	0.00977	0.000981
288.15	0.6	0.008523	0.000859
288.15	0.7	0.006783	0.000689
288.15	0.8	0.005257	0.00054
288.15	0.9	0.003848	0.000401
288.15	1	0.002803	0.000281
293.15	0	0.016816	0.001685
293.15	0.1	0.015629	0.001567
293.15	0.2	0.014833	0.001487
293.15	0.3	0.014031	0.001407
293.15	0.4	0.013011	0.001306
293.15	0.5	0.01159	0.001164
293.15	0.6	0.009877	0.000995
293.15	0.7	0.008038	0.000816
293.15	0.8	0.006154	0.000632
293.15	0.9	0.004563	0.000475
293.15	1	0.00329	0.00033
298.15	0	0.019114	0.001915
298.15	0.1	0.01862	0.001866
298.15	0.2	0.017855	0.00179
298.15	0.3	0.016837	0.001688
298.15	0.4	0.01551	0.001556
298.15	0.5	0.013519	0.001359
298.15	0.6	0.011434	0.001153
298.15	0.7	0.009182	0.000934
298.15	0.8	0.006925	0.000712
298.15	0.9	0.005121	0.000533
298.15	1	0.003731	0.000374
303.15	0	0.022031	0.002207
303.15	0.1	0.021539	0.002159
303.15	0.2	0.020839	0.002088
303.15	0.3	0.019866	0.001991
303.15	0.4	0.018147	0.00182
303.15	0.5	0.016136	0.001622
303.15	0.6	0.013533	0.001365
303.15	0.7	0.010928	0.001112
303.15	0.8	0.008014	0.000828
303.15	0.9	0.005911	0.000616
303.15	1	0.004248	0.000425
308.15	0	0.025022	0.002506
308.15	0.1	0.025291	0.002534
308.15	0.2	0.024327	0.002438
308.15	0.3	0.023084	0.002313
308.15	0.4	0.021264	0.002132
308.15	0.5	0.018883	0.001897
308.15	0.6	0.015758	0.001589
308.15	0.7	0.012773	0.001298
308.15	0.8	0.009535	0.000986
308.15	0.9	0.006733	0.000707
308.15	1	0.004863	0.000487
313.15	0	0.028551	0.002859
313.15	0.1	0.029066	0.00291
313.15	0.2	0.027958	0.0028
313.15	0.3	0.026461	0.00265
313.15	0.4	0.024398	0.002445
313.15	0.5	0.021512	0.00216
313.15	0.6	0.017978	0.001812
313.15	0.7	0.014838	0.001505
313.15	0.8	0.01108	0.001144
313.15	0.9	0.00791	0.000832
313.15	1	0.005488	0.000549

System: 5-hydroxy-6-methyl-3,4-pyridinedimethanol hydrochloride + ethanol + water; phases: Liquid, Crystal
Fixed: Pressure, kPa = 100
Property: Mole fraction of 5-hydroxy-6-methyl-3,4-pyridinedimethanol hydrochloride (Liquid); method: Gravimetric
Temperature, K	Solvent: Mole fraction of ethanol	Mole fraction of 5-hydroxy-6-methyl-3,4-pyridinedimethanol hydrochloride	uncertainty
278.15	0	0.010505	0.000844
278.15	0.1	0.009407	0.000755
278.15	0.2	0.008598	0.000692
278.15	0.3	0.008201	0.000661
278.15	0.4	0.007358	0.000594
278.15	0.5	0.005703	0.000464
278.15	0.6	0.004565	0.000376
278.15	0.7	0.00287	0.000249
278.15	0.8	0.001831	0.000165
278.15	0.9	0.000957	9.9e-05
278.15	1	0.000447	3.6e-05
283.15	0	0.012319	0.000989
283.15	0.1	0.010928	0.000878
283.15	0.2	0.01044	0.00084
283.15	0.3	0.009935	0.000799
283.15	0.4	0.008498	0.000685
283.15	0.5	0.006913	0.000562
283.15	0.6	0.005117	0.000423
283.15	0.7	0.003411	0.000294
283.15	0.8	0.00206	0.000189
283.15	0.9	0.001106	0.000114
283.15	1	0.000484	3.9e-05
288.15	0	0.014389	0.001155
288.15	0.1	0.013142	0.001056
288.15	0.2	0.012728	0.001023
288.15	0.3	0.011894	0.000956
288.15	0.4	0.010116	0.000816
288.15	0.5	0.008155	0.000664
288.15	0.6	0.005807	0.000483
288.15	0.7	0.003942	0.000339
288.15	0.8	0.002324	0.000215
288.15	0.9	0.00124	0.000127
288.15	1	0.000557	4.5e-05
293.15	0	0.016816	0.001349
293.15	0.1	0.015783	0.001268
293.15	0.2	0.014943	0.0012
293.15	0.3	0.013917	0.001118
293.15	0.4	0.01171	0.000944
293.15	0.5	0.009602	0.00078
293.15	0.6	0.007036	0.000585
293.15	0.7	0.004568	0.000397
293.15	0.8	0.002696	0.000249
293.15	0.9	0.001469	0.00015
293.15	1	0.000651	5.2e-05
298.15	0	0.019114	0.001533
298.15	0.1	0.01859	0.001493
298.15	0.2	0.017654	0.001418
298.15	0.3	0.016279	0.001308
298.15	0.4	0.014047	0.001133
298.15	0.5	0.011114	0.000904
298.15	0.6	0.008032	0.000667
298.15	0.7	0.005367	0.000463
298.15	0.8	0.003196	0.000295
298.15	0.9	0.00173	0.000176
298.15	1	0.000801	6.4e-05
303.15	0	0.022031	0.001767
303.15	0.1	0.021924	0.001761
303.15	0.2	0.021136	0.001698
303.15	0.3	0.019361	0.001557
303.15	0.4	0.016336	0.001318
303.15	0.5	0.012882	0.00105
303.15	0.6	0.009182	0.000764
303.15	0.7	0.006152	0.00053
303.15	0.8	0.003632	0.000335
303.15	0.9	0.002023	0.000201
303.15	1	0.000989	8e-05
308.15	0	0.025022	0.002007
308.15	0.1	0.025999	0.002087
308.15	0.2	0.025179	0.002022
308.15	0.3	0.023207	0.001865
308.15	0.4	0.019322	0.001559
308.15	0.5	0.015334	0.00125
308.15	0.6	0.010725	0.000898
308.15	0.7	0.006887	0.000597
308.15	0.8	0.004271	0.000388
308.15	0.9	0.002354	0.000235
308.15	1	0.001176	9.5e-05
313.15	0	0.028551	0.002289
313.15	0.1	0.029799	0.002388
313.15	0.2	0.029239	0.002344
313.15	0.3	0.026667	0.00214
313.15	0.4	0.022157	0.001786
313.15	0.5	0.017694	0.001439
313.15	0.6	0.012624	0.001052
313.15	0.7	0.008308	0.00072
313.15	0.8	0.00503	0.000462
313.15	0.9	0.002751	0.000275
313.15	1	0.001435	0.000115

System: 5-hydroxy-6-methyl-3,4-pyridinedimethanol hydrochloride + water; phases: Liquid, Crystal
Fixed: Pressure, kPa = 100
Property: Mole fraction of 5-hydroxy-6-methyl-3,4-pyridinedimethanol hydrochloride (Liquid); method: Gravimetric
Temperature, K	Mole fraction of 5-hydroxy-6-methyl-3,4-pyridinedimethanol hydrochloride	uncertainty
278.15	0.010505	0.000635
283.15	0.012319	0.000744
288.15	0.014389	0.000869
293.15	0.016816	0.001014
298.15	0.019114	0.001152
303.15	0.022031	0.001328
308.15	0.025022	0.001508
313.15	0.028551	0.00172

System: 5-hydroxy-6-methyl-3,4-pyridinedimethanol hydrochloride + methanol; phases: Liquid, Crystal
Fixed: Pressure, kPa = 100
Property: Mole fraction of 5-hydroxy-6-methyl-3,4-pyridinedimethanol hydrochloride (Liquid); method: Gravimetric
Temperature, K	Mole fraction of 5-hydroxy-6-methyl-3,4-pyridinedimethanol hydrochloride	uncertainty
278.15	0.002215	0.000222
283.15	0.002533	0.000254
288.15	0.002803	0.000281
293.15	0.00329	0.00033
298.15	0.003731	0.000374
303.15	0.004248	0.000425
308.15	0.004863	0.000487
313.15	0.005488	0.000549

System: 5-hydroxy-6-methyl-3,4-pyridinedimethanol hydrochloride + ethanol; phases: Liquid, Crystal
Fixed: Pressure, kPa = 100
Property: Mole fraction of 5-hydroxy-6-methyl-3,4-pyridinedimethanol hydrochloride (Liquid); method: Gravimetric
Temperature, K	Mole fraction of 5-hydroxy-6-methyl-3,4-pyridinedimethanol hydrochloride	uncertainty
278.15	0.000447	3.6e-05
283.15	0.000484	3.9e-05
288.15	0.000557	4.5e-05
293.15	0.000651	5.2e-05
298.15	0.000801	6.4e-05
303.15	0.000989	8e-05
308.15	0.001176	9.5e-05
313.15	0.001435	0.000115
