Measured thermophysical data. Viscosity and surface tension of binary systems of N,N-dimethylformamide with alkan-1-ols at different temperatures
Source: J. Chem. Thermodyn., 2013, 10.1016/j.jct.2012.06.023
Compound 1: dimethylformamide, C3H7NO, InChI=1S/C3H7NO/c1-4(2)3-5/h3H,1-2H3, purity 99.8%
Compound 2: pentan-1-ol, C5H12O, InChI=1S/C5H12O/c1-2-3-4-5-6/h6H,2-5H2,1H3, purity 99.5%
Compound 3: hexan-1-ol, C6H14O, InChI=1S/C6H14O/c1-2-3-4-5-6-7/h7H,2-6H2,1H3, purity 99.5%
Compound 4: heptan-1-ol, C7H16O, InChI=1S/C7H16O/c1-2-3-4-5-6-7-8/h8H,2-7H2,1H3, purity 99%

System: dimethylformamide; phases: Liquid
Property: Refractive index (Na D-line) (Liquid); method: Standard Abbe refractometry
Temperature, K	Pressure, kPa	Refractive index (Na D-line)	uncertainty
293.1	101.325	1.429	0.02

System: dimethylformamide; phases: Liquid, Gas
Property: Surface tension liquid-gas, N/m (Liquid); method: Wilhelmy plate
Temperature, K	Surface tension liquid-gas, N/m	uncertainty
298.15	0.0352	4e-05

System: dimethylformamide; phases: Liquid
Property: Viscosity, Pa*s (Liquid); method: Concentric cylinders viscometry
Temperature, K	Pressure, kPa	Viscosity, Pa*s	uncertainty
298.15	101.325	0.0008162	9.2e-06

System: pentan-1-ol; phases: Liquid
Property: Refractive index (Na D-line) (Liquid); method: Standard Abbe refractometry
Temperature, K	Pressure, kPa	Refractive index (Na D-line)	uncertainty
293.1	101.325	1.409	0.02

System: pentan-1-ol; phases: Liquid, Gas
Property: Surface tension liquid-gas, N/m (Liquid); method: Wilhelmy plate
Temperature, K	Surface tension liquid-gas, N/m	uncertainty
298.15	0.02455	6.2e-05

System: pentan-1-ol; phases: Liquid
Property: Viscosity, Pa*s (Liquid); method: Concentric cylinders viscometry
Temperature, K	Pressure, kPa	Viscosity, Pa*s	uncertainty
298.15	101.325	0.0034999	1.79e-05

System: hexan-1-ol; phases: Liquid
Property: Refractive index (Na D-line) (Liquid); method: Standard Abbe refractometry
Temperature, K	Pressure, kPa	Refractive index (Na D-line)	uncertainty
293.1	101.325	1.418	0.001

System: hexan-1-ol; phases: Liquid
Property: Viscosity, Pa*s (Liquid); method: Concentric cylinders viscometry
Temperature, K	Pressure, kPa	Viscosity, Pa*s	uncertainty
298.15	101.325	0.004593	2.22e-05

System: heptan-1-ol; phases: Liquid
Property: Refractive index (Na D-line) (Liquid); method: Standard Abbe refractometry
Temperature, K	Pressure, kPa	Refractive index (Na D-line)	uncertainty
293.1	101.325	1.424	0.02

System: heptan-1-ol; phases: Liquid, Gas
Property: Surface tension liquid-gas, N/m (Liquid); method: Wilhelmy plate
Temperature, K	Surface tension liquid-gas, N/m	uncertainty
298.15	0.02647	0.000132

System: heptan-1-ol; phases: Liquid
Property: Viscosity, Pa*s (Liquid); method: Concentric cylinders viscometry
Temperature, K	Pressure, kPa	Viscosity, Pa*s	uncertainty
298.15	101.325	0.005944	3.81e-05

System: dimethylformamide + pentan-1-ol; phases: Liquid, Gas
Property: Surface tension liquid-gas, N/m (Liquid); method: Wilhelmy plate
Temperature, K	Mole fraction of dimethylformamide	Surface tension liquid-gas, N/m	uncertainty
298.15	0	0.02455	6e-05
298.15	0.0793	0.02471	6e-05
298.15	0.2866	0.02553	5e-05
298.15	0.4261	0.0264	5e-05
298.15	0.5048	0.02702	5e-05
298.15	0.6254	0.02821	5e-05
298.15	0.6638	0.02868	5e-05
298.15	0.7952	0.03084	4e-05
298.15	0.8706	0.03234	4e-05
298.15	0.9363	0.0338	4e-05
298.15	1	0.0352	4e-05
303.15	0	0.0236	6e-05
303.15	0.0793	0.02372	6e-05
303.15	0.2866	0.02443	5e-05
303.15	0.4261	0.02525	5e-05
303.15	0.5048	0.02585	5e-05
303.15	0.6254	0.02701	4e-05
303.15	0.6638	0.02748	4e-05
303.15	0.7952	0.02966	4e-05
303.15	0.8706	0.03119	4e-05
303.15	0.9363	0.03267	4e-05
303.15	1	0.0341	4e-05
308.15	0	0.02254	6e-05
308.15	0.0793	0.02264	5e-05
308.15	0.2866	0.02331	5e-05
308.15	0.4261	0.02411	5e-05
308.15	0.5048	0.02469	4e-05
308.15	0.6254	0.02584	4e-05
308.15	0.6638	0.02631	4e-05
308.15	0.7952	0.02851	4e-05
308.15	0.8706	0.03005	4e-05
308.15	0.9363	0.03156	4e-05
308.15	1	0.033	4e-05
313.15	0	0.02194	6e-05
313.15	0.0793	0.022	5e-05
313.15	0.2866	0.02257	5e-05
313.15	0.4261	0.0233	4e-05
313.15	0.5048	0.02384	4e-05
313.15	0.6254	0.02494	4e-05
313.15	0.6638	0.0254	4e-05
313.15	0.7952	0.02756	4e-05
313.15	0.8706	0.02908	4e-05
313.15	0.9363	0.03058	4e-05
313.15	1	0.032	3e-05

System: dimethylformamide + pentan-1-ol; phases: Liquid
Fixed: Pressure, kPa = 101
Property: Viscosity, Pa*s (Liquid); method: Concentric cylinders viscometry
Temperature, K	Mole fraction of dimethylformamide	Viscosity, Pa*s	uncertainty
298.15	0	0.0034999	1.79e-05
298.15	0.0793	0.0029733	1.59e-05
298.15	0.2866	0.0018631	1.22e-05
298.15	0.4261	0.0013955	1.07e-05
298.15	0.5048	0.0012406	1.03e-05
298.15	0.6254	0.0010688	9.8e-06
298.15	0.6638	0.0010206	9.7e-06
298.15	0.7952	0.0009068	9.4e-06
298.15	0.8706	0.0008572	9.3e-06
298.15	0.9363	0.0008373	9.2e-06
298.15	1	0.0008162	9.2e-06
303.15	0	0.0030515	1.63e-05
303.15	0.0793	0.0025851	1.46e-05
303.15	0.2866	0.0016082	1.13e-05
303.15	0.4261	0.0012049	1.02e-05
303.15	0.5048	0.0010764	9.9e-06
303.15	0.6254	0.000939	9.5e-06
303.15	0.6638	0.0009012	9.4e-06
303.15	0.7952	0.0008182	9.2e-06
303.15	0.8706	0.000797	9.1e-06
303.15	0.9363	0.000783	9.1e-06
303.15	1	0.0007678	9.1e-06
308.15	0	0.0026636	1.5e-05
308.15	0.0793	0.0022589	1.35e-05
308.15	0.2866	0.0014142	1.08e-05
308.15	0.4261	0.0010694	9.9e-06
308.15	0.5048	0.000962	9.6e-06
308.15	0.6254	0.0008498	9.3e-06
308.15	0.6638	0.0008193	9.2e-06
308.15	0.7952	0.0007558	9.1e-06
308.15	0.8706	0.0007501	9.1e-06
308.15	0.9363	0.0007386	9e-06
308.15	1	0.0007262	9e-06
313.15	0	0.0023351	1.39e-05
313.15	0.0793	0.0019796	1.26e-05
313.15	0.2866	0.0012404	1.03e-05
313.15	0.4261	0.0009427	9.5e-06
313.15	0.5048	0.0008525	9.3e-06
313.15	0.6254	0.0007611	9.1e-06
313.15	0.6638	0.0007366	9.1e-06
313.15	0.7952	0.0006895	9e-06
313.15	0.8706	0.0006882	8.9e-06
313.15	0.9363	0.0006836	8.9e-06
313.15	1	0.000678	8.9e-06

System: dimethylformamide + hexan-1-ol; phases: Liquid, Gas
Property: Surface tension liquid-gas, N/m (Liquid); method: Wilhelmy plate
Temperature, K	Mole fraction of dimethylformamide	Surface tension liquid-gas, N/m	uncertainty
298.15	0	0.02568	7e-05
298.15	0.1669	0.02632	6e-05
298.15	0.3181	0.0268	6e-05
298.15	0.4602	0.0273	5e-05
298.15	0.5702	0.02814	5e-05
298.15	0.6593	0.02893	5e-05
298.15	0.7442	0.03009	4e-05
298.15	0.8184	0.03129	4e-05
298.15	0.8862	0.03264	4e-05
298.15	0.9444	0.03394	4e-05
298.15	1	0.0352	4e-05
303.15	0	0.0246	6e-05
303.15	0.1669	0.02521	6e-05
303.15	0.3181	0.02564	5e-05
303.15	0.4602	0.02608	5e-05
303.15	0.5702	0.02691	5e-05
303.15	0.6593	0.02769	4e-05
303.15	0.7442	0.02886	4e-05
303.15	0.8184	0.03009	4e-05
303.15	0.8862	0.03147	4e-05
303.15	0.9444	0.03281	4e-05
303.15	1	0.0341	4e-05
308.15	0	0.0237	6e-05
308.15	0.1669	0.02427	6e-05
308.15	0.3181	0.02465	5e-05
308.15	0.4602	0.02505	5e-05
308.15	0.5702	0.02585	4e-05
308.15	0.6593	0.0266	4e-05
308.15	0.7442	0.02777	4e-05
308.15	0.8184	0.02899	4e-05
308.15	0.8862	0.03037	4e-05
308.15	0.9444	0.03171	4e-05
308.15	1	0.033	4e-05
313.15	0	0.0228	6e-05
313.15	0.1669	0.02334	5e-05
313.15	0.3181	0.02369	5e-05
313.15	0.4602	0.02405	4e-05
313.15	0.5702	0.02483	4e-05
313.15	0.6593	0.02557	4e-05
313.15	0.7442	0.02673	4e-05
313.15	0.8184	0.02796	4e-05
313.15	0.8862	0.02935	4e-05
313.15	0.9444	0.0307	4e-05
313.15	1	0.032	3e-05

System: dimethylformamide + hexan-1-ol; phases: Liquid
Fixed: Pressure, kPa = 101
Property: Viscosity, Pa*s (Liquid); method: Concentric cylinders viscometry
Temperature, K	Mole fraction of dimethylformamide	Viscosity, Pa*s	uncertainty
298.15	0	0.004593	2.22e-05
298.15	0.1669	0.0030664	1.66e-05
298.15	0.3181	0.0021676	1.33e-05
298.15	0.4602	0.0015861	1.14e-05
298.15	0.5702	0.0013131	1.05e-05
298.15	0.6593	0.001143	1e-05
298.15	0.7442	0.0010322	9.7e-06
298.15	0.8184	0.0009576	9.5e-06
298.15	0.8862	0.0008978	9.4e-06
298.15	0.9444	0.0008547	9.2e-06
298.15	1	0.0008162	9.2e-06
303.15	0	0.0038869	1.95e-05
303.15	0.1669	0.0025515	1.45e-05
303.15	0.3181	0.001782	1.19e-05
303.15	0.4602	0.001298	1.05e-05
303.15	0.5702	0.0010845	9.9e-06
303.15	0.6593	0.0009578	9.6e-06
303.15	0.7442	0.0008838	9.4e-06
303.15	0.8184	0.0008393	9.3e-06
303.15	0.8862	0.0008146	9.2e-06
303.15	0.9444	0.0007921	9.1e-06
303.15	1	0.0007678	9.1e-06
308.15	0	0.0033591	1.75e-05
308.15	0.1669	0.0022026	1.33e-05
308.15	0.3181	0.0015424	1.12e-05
308.15	0.4602	0.0011324	1e-05
308.15	0.5702	0.0009568	9.6e-06
308.15	0.6593	0.0008553	9.3e-06
308.15	0.7442	0.0007996	9.2e-06
308.15	0.8184	0.0007688	9.1e-06
308.15	0.8862	0.000758	9.1e-06
308.15	0.9444	0.0007456	9e-06
308.15	1	0.0007262	9e-06
313.15	0	0.0029141	1.59e-05
313.15	0.1669	0.0019007	1.22e-05
313.15	0.3181	0.0013285	1.05e-05
313.15	0.4602	0.0009787	9.6e-06
313.15	0.5702	0.0008345	9.3e-06
313.15	0.6593	0.0007542	9.1e-06
313.15	0.7442	0.0007142	9e-06
313.15	0.8184	0.0006951	9e-06
313.15	0.8862	0.0006923	9e-06
313.15	0.9444	0.000688	8.9e-06
313.15	1	0.000678	8.9e-06

System: dimethylformamide + heptan-1-ol; phases: Liquid, Gas
Property: Surface tension liquid-gas, N/m (Liquid); method: Wilhelmy plate
Temperature, K	Mole fraction of dimethylformamide	Surface tension liquid-gas, N/m	uncertainty
298.15	0	0.02647	0.00013
298.15	0.1852	0.02706	0.00012
298.15	0.3466	0.02751	0.0001
298.15	0.4928	0.02798	9e-05
298.15	0.6004	0.02874	8e-05
298.15	0.6878	0.02948	7e-05
298.15	0.7679	0.03053	6e-05
298.15	0.8369	0.03164	5e-05
298.15	0.8984	0.03286	5e-05
298.15	0.951	0.03406	4e-05
298.15	1	0.0352	4e-05
303.15	0	0.02538	0.00013
303.15	0.1852	0.02594	0.00011
303.15	0.3466	0.02635	0.0001
303.15	0.4928	0.02677	8e-05
303.15	0.6004	0.02752	7e-05
303.15	0.6878	0.02825	6e-05
303.15	0.7679	0.02932	6e-05
303.15	0.8369	0.03044	5e-05
303.15	0.8984	0.0317	5e-05
303.15	0.951	0.03293	4e-05
303.15	1	0.0341	4e-05
308.15	0	0.02433	0.00012
308.15	0.1852	0.02487	0.00011
308.15	0.3466	0.02525	9e-05
308.15	0.4928	0.02564	8e-05
308.15	0.6004	0.02638	7e-05
308.15	0.6878	0.0271	6e-05
308.15	0.7679	0.02817	6e-05
308.15	0.8369	0.0293	5e-05
308.15	0.8984	0.03057	4e-05
308.15	0.951	0.03182	4e-05
308.15	1	0.033	4e-05
313.15	0	0.0235	0.00012
313.15	0.1852	0.02401	0.0001
313.15	0.3466	0.02434	9e-05
313.15	0.4928	0.02469	8e-05
313.15	0.6004	0.02541	7e-05
313.15	0.6878	0.02611	6e-05
313.15	0.7679	0.02717	5e-05
313.15	0.8369	0.0283	5e-05
313.15	0.8984	0.02957	4e-05
313.15	0.951	0.03082	4e-05
313.15	1	0.032	3e-05

System: dimethylformamide + heptan-1-ol; phases: Liquid
Fixed: Pressure, kPa = 101
Property: Viscosity, Pa*s (Liquid); method: Concentric cylinders viscometry
Temperature, K	Mole fraction of dimethylformamide	Viscosity, Pa*s	uncertainty
298.15	0	0.005944	3.78e-05
298.15	0.1852	0.0036617	2.32e-05
298.15	0.3466	0.0024798	1.62e-05
298.15	0.4928	0.0017699	1.27e-05
298.15	0.6004	0.0014318	1.12e-05
298.15	0.6878	0.0012241	1.04e-05
298.15	0.7679	0.0010793	9.9e-06
298.15	0.8369	0.0009874	9.6e-06
298.15	0.8984	0.000918	9.4e-06
298.15	0.951	0.0008665	9.3e-06
298.15	1	0.0008162	9.2e-06
303.15	0	0.0050686	3.27e-05
303.15	0.1852	0.0030606	1.96e-05
303.15	0.3466	0.0020444	1.41e-05
303.15	0.4928	0.0014518	1.15e-05
303.15	0.6004	0.0011833	1.04e-05
303.15	0.6878	0.001026	9.9e-06
303.15	0.7679	0.0009233	9.5e-06
303.15	0.8369	0.0008807	9.4e-06
303.15	0.8984	0.0008403	9.3e-06
303.15	0.951	0.0008038	9.2e-06
303.15	1	0.0007678	9.1e-06
308.15	0	0.0043333	2.82e-05
308.15	0.1852	0.0025992	1.74e-05
308.15	0.3466	0.0017336	1.28e-05
308.15	0.4928	0.001238	1.07e-05
308.15	0.6004	0.0010209	9.9e-06
308.15	0.6878	0.000898	9.5e-06
308.15	0.7679	0.0008218	9.3e-06
308.15	0.8369	0.0007949	9.2e-06
308.15	0.8984	0.0007775	9.1e-06
308.15	0.951	0.0007541	9.1e-06
308.15	1	0.0007262	9e-06
313.15	0	0.0037262	2.49e-05
313.15	0.1852	0.0022098	1.54e-05
313.15	0.3466	0.0014648	1.18e-05
313.15	0.4928	0.0010475	1.01e-05
313.15	0.6004	0.0008722	9.6e-06
313.15	0.6878	0.0007775	9.3e-06
313.15	0.7679	0.0007462	9.1e-06
313.15	0.8369	0.0007165	9e-06
313.15	0.8984	0.0007082	9e-06
313.15	0.951	0.0006934	9e-06
313.15	1	0.000678	8.9e-06
