Measured thermophysical data. Thermodynamic properties of pyrrole, 1-methylpyrrole, 2,4-dimethylpyrrole, and 2,5-dimethylpyrrole: Experimental and computational results
Source: J. Chem. Thermodyn., 2018, 10.1016/j.jct.2017.09.005
Compound 1: carbon dioxide, CO2, InChI=1S/CO2/c2-1-3
Compound 2: nitrogen, N2, InChI=1S/N2/c1-2
Compound 3: water, H2O, InChI=1S/H2O/h1H2
Compound 4: oxygen, O2, InChI=1S/O2/c1-2
Compound 5: pyrrole, C4H5N, InChI=1S/C4H5N/c1-2-4-5-3-1/h1-5H
Compound 6: N-methylpyrrole, C5H7N, InChI=1S/C5H7N/c1-6-4-2-3-5-6/h2-5H,1H3
Compound 7: 2,5-dimethyl-1H-pyrrole, C6H9N, InChI=1S/C6H9N/c1-5-3-4-6(2)7-5/h3-4,7H,1-2H3
Compound 8: 2,4-dimethyl-1H-pyrrole, C6H9N, InChI=1S/C6H9N/c1-5-3-6(2)7-4-5/h3-4,7H,1-2H3

System: pyrrole; phases: Liquid, Gas
Property: Critical temperature, K (Liquid); method: DTA
Critical temperature, K	uncertainty
638.5	2

System: pyrrole; phases: Liquid, Gas
Property: Critical density, kg/m3 (Liquid); method: DSC
Critical density, kg/m3	uncertainty
314.2	31.4

System: pyrrole; phases: Liquid, Gas
Property: Mass density, kg/m3 (Liquid); method: Vibrating tube method
Temperature, K	Mass density, kg/m3	uncertainty
323.14	943.9	1.9
348.13	921.2	1.8
373.12	897.8	1.8
398.12	873.5	1.7
423.11	847.6	1.7
448.11	820.2	1.6
468.11	796.1	1.6

System: pyrrole; phases: Liquid, Gas
Property: Mass density, kg/m3 (Liquid); method: From heat capacities measured by DSC
Temperature, K	Mass density, kg/m3	uncertainty
635.4	329	33
633.5	395	40

System: pyrrole; phases: Gas, Liquid
Property: Mass density, kg/m3 (Gas); method: From heat capacities measured by DSC
Temperature, K	Mass density, kg/m3	uncertainty
604.6	104	11
623.7	148	17
632.4	220	28
637.8	271	33

System: pyrrole; phases: Liquid, Gas
Property: Molar heat capacity at saturation pressure, J/K/mol (Liquid); method: Small sample (50 mg) DSC
Temperature, K	Molar heat capacity at saturation pressure, J/K/mol	uncertainty
360	143.2082555952	2.4777090204
380	148.1054724174	2.5691680782
400	152.9943747798	2.6523126762
420	157.8417048432	2.7354572742
440	162.6225192282	2.8186018722
460	167.2786167162	2.8934320104
480	171.7850539278	2.9765766084
500	176.141830863	3.0514067466
520	180.4819788786	3.1262368848
540	185.0632462284	3.2093814828

System: pyrrole; phases: Liquid
Fixed: Pressure, kPa = 101.325
Property: Molar entropy, J/K/mol (Liquid); method: Small sample (50 mg) DSC
Temperature, K	Molar entropy, J/K/mol	uncertainty
360	181.9453238034	4.2320600382
380	189.819117234	4.4149781538
400	197.5432503882	4.5895818096
420	205.117723266	4.7641854654
440	212.5757937066	4.9387891212
460	219.9091472502	5.113392777
480	227.1260983566	5.279681973
500	234.2266470258	5.445971169
520	241.2191077176	5.6039459052
540	248.1117948918	5.7619206414

System: N-methylpyrrole; phases: Liquid, Gas
Property: Critical temperature, K (Liquid); method: DTA
Critical temperature, K	uncertainty
597	2

System: N-methylpyrrole; phases: Liquid, Gas
Property: Critical density, kg/m3 (Liquid); method: DSC
Critical density, kg/m3	uncertainty
299.8	30

System: N-methylpyrrole; phases: Liquid, Gas
Property: Mass density, kg/m3 (Liquid); method: Vibrating tube method
Temperature, K	Mass density, kg/m3	uncertainty
323.14	879.5	1.8
348.13	854.2	1.7
373.12	828.2	1.7
398.12	800.7	1.6
423.11	772.1	1.5
448.11	741.1	1.5

System: N-methylpyrrole; phases: Liquid, Gas
Property: Mass density, kg/m3 (Liquid); method: From heat capacities measured by DSC
Temperature, K	Mass density, kg/m3	uncertainty
596.2	328	33
596.5	337	34
593.2	382	38

System: N-methylpyrrole; phases: Gas, Liquid
Property: Mass density, kg/m3 (Gas); method: From heat capacities measured by DSC
Temperature, K	Mass density, kg/m3	uncertainty
582.9	137	14
592	201	20
592.7	220	22
596.1	257	26

System: N-methylpyrrole; phases: Liquid, Gas
Property: Molar heat capacity at saturation pressure, J/K/mol (Liquid); method: Small sample (50 mg) DSC
Temperature, K	Molar heat capacity at saturation pressure, J/K/mol	uncertainty
360	164.6595618792	2.8518597114
380	170.0805896688	2.9433187692
400	175.892397069	3.0430922868
420	182.0201539416	3.1511802642
440	188.364086769	3.2592682416
460	194.807793114	3.3756706788
480	201.3429585168	3.4837586562
500	208.1441866332	3.6084755532
520	215.718659511	3.7331924502

System: N-methylpyrrole; phases: Liquid
Fixed: Pressure, kPa = 101.325
Property: Molar entropy, J/K/mol (Liquid); method: Small sample (50 mg) DSC
Temperature, K	Molar entropy, J/K/mol	uncertainty
360	230.102674965	5.3461976514
380	239.1488072274	5.5540591464
400	248.020335834	5.7619206414
420	256.7422041642	5.9697821364
440	265.355984517	6.1693291716
460	273.878305812	6.360561747
480	282.3008535894	6.5601087822
500	290.6568856884	6.7513413576
520	298.9630310286	6.9508883928

System: 2,5-dimethyl-1H-pyrrole; phases: Liquid, Gas
Property: Critical temperature, K (Liquid); method: DTA
Critical temperature, K	uncertainty
662	2

System: 2,5-dimethyl-1H-pyrrole; phases: Liquid, Gas
Property: Critical density, kg/m3 (Liquid); method: DSC
Critical density, kg/m3	uncertainty
288.6	28.9

System: 2,5-dimethyl-1H-pyrrole; phases: Liquid, Gas
Property: Mass density, kg/m3 (Liquid); method: Vibrating tube method
Temperature, K	Mass density, kg/m3	uncertainty
323.14	910.8	1.8
348.13	890.3	1.8
373.12	867.7	1.7
398.12	843.9	1.7
423.11	819.6	1.6
448.11	793.5	1.6
473.11	766.5	1.5
498.11	738.1	1.5
508.11	725.6	1.5

System: 2,5-dimethyl-1H-pyrrole; phases: Liquid, Gas
Property: Mass density, kg/m3 (Liquid); method: From heat capacities measured by DSC
Temperature, K	Mass density, kg/m3	uncertainty
661.7	299	30
661.5	334	33

System: 2,5-dimethyl-1H-pyrrole; phases: Gas, Liquid
Property: Mass density, kg/m3 (Gas); method: From heat capacities measured by DSC
Temperature, K	Mass density, kg/m3	uncertainty
660.8	257	26
650	144	14

System: 2,5-dimethyl-1H-pyrrole; phases: Liquid, Gas
Property: Vapor or sublimation pressure, kPa (Liquid); method: Twin ebulliometer
Temperature, K	Vapor or sublimation pressure, kPa	uncertainty
341.463	1.997	0.008
354.795	3.994	0.008
360.759	5.333	0.008
369.583	8.007	0.008
376.167	10.672	0.009
381.488	13.342	0.009
386.984	16.664	0.01
391.562	19.931	0.011
397.577	25.017	0.012
397.582	25.023	0.012
403.634	31.178	0.014
409.712	38.561	0.016
415.814	47.355	0.019
421.964	57.802	0.022
428.141	70.099	0.025
434.36	84.527	0.029
440.615	101.346	0.034
446.887	120.78	0.04
453.197	143.21	0.04
459.554	169.03	0.05
465.938	198.49	0.06
472.359	232.03	0.07
478.821	270.08	0.08

System: 2,5-dimethyl-1H-pyrrole; phases: Liquid, Gas
Property: Molar heat capacity at saturation pressure, J/K/mol (Liquid); method: Small sample (50 mg) DSC
Temperature, K	Molar heat capacity at saturation pressure, J/K/mol	uncertainty
380	227.5833936456	3.9410539452
400	234.0603578298	4.0574563824
420	240.204743622	4.1572299
440	245.9999221026	4.2570034176
460	251.5290378696	4.3567769352
480	256.8669210612	4.448235993
500	262.1466030342	4.5396950508
520	267.559316364	4.6311541086
540	273.4459539024	4.739242086
560	280.3885278354	4.8556445232
580	289.717351731	5.0219337192
600	303.5941851372	5.2547385936

System: 2,5-dimethyl-1H-pyrrole; phases: Liquid
Fixed: Pressure, kPa = 101.325
Property: Molar entropy, J/K/mol (Liquid); method: Small sample (50 mg) DSC
Temperature, K	Molar entropy, J/K/mol	uncertainty
380	263.5600612002	6.1277568726
400	275.3998519554	6.402134046
420	286.973579997	6.6681967596
440	298.281245325	6.9342594732
460	309.339476859	7.192007727
480	320.1565890588	7.441441521
500	330.749210844	7.6825608552
520	341.1339711342	7.9236801894
540	351.3441277686	8.1647995236
560	361.4046241266	8.397604398
580	371.3986048062	8.6304092724
600	381.4341577848	8.8632141468

System: 2,4-dimethyl-1H-pyrrole; phases: Liquid, Gas
Property: Critical temperature, K (Liquid); method: DTA
Critical temperature, K	uncertainty
653	3

System: 2,4-dimethyl-1H-pyrrole; phases: Liquid, Gas
Property: Critical density, kg/m3 (Liquid); method: DSC
Critical density, kg/m3	uncertainty
285.8	28.6

System: 2,4-dimethyl-1H-pyrrole; phases: Liquid, Gas
Property: Mass density, kg/m3 (Liquid); method: Vibrating tube method
Temperature, K	Mass density, kg/m3	uncertainty
323.14	895.5	1.8
348.13	874.8	1.8
373.12	853	1.7
398.12	830.6	1.7
423.11	807.2	1.6
448.11	781.3	1.6

System: 2,4-dimethyl-1H-pyrrole; phases: Liquid, Gas
Property: Mass density, kg/m3 (Liquid); method: From heat capacities measured by DSC
Temperature, K	Mass density, kg/m3	uncertainty
650	413	41
656.5	292	29

System: 2,4-dimethyl-1H-pyrrole; phases: Gas, Liquid
Property: Mass density, kg/m3 (Gas); method: From heat capacities measured by DSC
Temperature, K	Mass density, kg/m3	uncertainty
645.3	159	16
648.6	220	22
649	248	25

System: 2,4-dimethyl-1H-pyrrole; phases: Liquid, Gas
Property: Vapor or sublimation pressure, kPa (Liquid); method: Twin ebulliometer
Temperature, K	Vapor or sublimation pressure, kPa	uncertainty
338.248	1.995	0.008
343.719	2.666	0.008
351.752	4	0.008
357.759	5.337	0.008
366.615	7.992	0.008
373.284	10.661	0.008
378.682	13.337	0.009
384.244	16.66	0.009
388.877	19.929	0.01
394.957	25.011	0.01
394.965	25.02	0.011
401.087	31.171	0.012
407.252	38.57	0.013
413.431	47.366	0.015
419.657	57.811	0.018
425.977	70.243	0.02
432.213	84.533	0.023
438.544	101.334	0.025
444.909	120.8	0.03
451.314	143.27	0.03
457.751	169.05	0.04
464.227	198.53	0.04
470.735	232.06	0.05
477.279	270.07	0.05

System: 2,4-dimethyl-1H-pyrrole; phases: Liquid, Gas
Property: Molar heat capacity at saturation pressure, J/K/mol (Liquid); method: Small sample (50 mg) DSC
Temperature, K	Molar heat capacity at saturation pressure, J/K/mol	uncertainty
440	241.3105667754	4.1821732794
460	247.8374177184	4.2902612568
480	253.7739420156	4.3983492342
500	259.5441771168	4.4981227518
520	265.148123022	4.5895818096
540	270.801955686	4.6893553272
560	276.9879137772	4.7974433046
580	284.7868770696	4.9304746614
600	297.3749692068	5.1466506162

System: 2,4-dimethyl-1H-pyrrole; phases: Liquid
Fixed: Pressure, kPa = 101.325
Property: Molar entropy, J/K/mol (Liquid); method: Small sample (50 mg) DSC
Temperature, K	Molar entropy, J/K/mol	uncertainty
440	306.3795291702	7.1171775888
460	317.2465281288	7.3749258426
480	327.922294512	7.6243596366
500	338.39851386	7.8654789708
520	348.6918150924	8.106598305
540	358.8021982092	8.3394031794
560	368.7629210496	8.5722080538
580	378.6072414528	8.7966984684
600	388.451561856	9.0295033428

Reaction: -1 2,4-dimethyl-1H-pyrrole + 6 carbon dioxide + .5 nitrogen + 4.5 water + -8.25 oxygen
Property: Specific internal energy of reaction at constant volume, J/g
-38129.9
