Measured thermophysical data. Thermodynamic properties and equation of state of liquid di-isodecyl phthalate at temperature between (273 and 423) K and at pressures up to 140 MPa
Source: J. Chem. Thermodyn., 2010, 10.1016/j.jct.2009.12.002
Compound 1: 3-methylnonyl 1,2-benzenedioate, C28H46O4, InChI=1S/C28H46O4/c1-23(2)17-11-7-5-9-15-21-31-27(29)25-19-13-14-20-26(25)28(30)32-22-16-10-6-8-12-18-24(3)4/h13-14,19-20,23-24H,5-12,15-18,21-22H2,1-4H3, purity 99.8%

System: 3-methylnonyl 1,2-benzenedioate; phases: Liquid
Fixed: Pressure, kPa = 101.325
Property: Mass density, kg/m3 (Liquid); method: Pycnometric method
Temperature, K	Mass density, kg/m3	uncertainty
273.84	980.22	0.39
274.06	980.07	0.39
274.07	980.08	0.39
274.35	979.86	0.39
282.95	973.75	0.38
298.25	962.88	0.36
298.28	962.83	0.37
305.26	957.83	0.37
313.27	952.21	0.38
313.27	952.15	0.38
333.28	937.93	0.4
353.29	923.76	0.43
373.29	909.62	0.46
393.31	895.47	0.48
413.33	881.29	0.51

System: 3-methylnonyl 1,2-benzenedioate; phases: Liquid
Fixed: Pressure, kPa = 100
Property: Molar heat capacity at constant pressure, J/K/mol (Liquid); method: Flow calorimetry
Temperature, K	Molar heat capacity at constant pressure, J/K/mol	uncertainty
293.15	754.8595236	15.1909895844
313.15	788.80586904	15.6287187756
333.15	816.49894032	16.5309769044
353.15	852.23193552	16.9687060956
373.15	893.77154244	17.8709642244
393.15	914.31801468	18.3086934156
423.15	981.31738068	19.6486807356

System: 3-methylnonyl 1,2-benzenedioate; phases: Liquid
Property: Molar heat capacity at constant pressure, J/K/mol (Liquid); method: Numerical integration with Cp at 1 atm and U at elevated pressures
Pressure, kPa	Temperature, K	Molar heat capacity at constant pressure, J/K/mol	uncertainty
100	293.15	755.75284848	15.1909895844
100	303.15	771.38603388	15.6287187756
100	313.15	786.57255684	15.6287187756
100	323.15	802.65240468	16.07984784
100	333.15	818.73225252	16.5309769044
100	343.15	835.2587628	16.5309769044
100	353.15	852.23193552	16.9687060956
100	363.15	869.20510824	17.41983516
100	373.15	886.6249434	17.8709642244
100	383.15	904.491441	18.3086934156
100	393.15	922.80460104	18.3086934156
100	403.15	941.11776108	18.75982248
100	413.15	959.87758356	19.2109515444
10000	293.15	754.8595236	15.1909895844
10000	303.15	770.04604656	15.1909895844
10000	313.15	785.23256952	15.6287187756
10000	323.15	801.31241736	16.07984784
10000	333.15	817.3922652	16.5309769044
10000	343.15	833.91877548	16.5309769044
10000	353.15	850.44528576	16.9687060956
10000	363.15	867.41845848	17.41983516
10000	373.15	884.83829364	17.8709642244
10000	383.15	902.70479124	17.8709642244
10000	393.15	920.57128884	18.3086934156
10000	403.15	938.88444888	18.75982248
10000	413.15	957.64427136	19.2109515444
20000	293.15	753.51953628	15.1909895844
20000	303.15	768.70605924	15.1909895844
20000	313.15	784.33924464	15.6287187756
20000	323.15	799.97243004	16.07984784
20000	333.15	816.05227788	16.5309769044
20000	343.15	832.57878816	16.5309769044
20000	353.15	849.10529844	16.9687060956
20000	363.15	866.07847116	17.41983516
20000	373.15	883.49830632	17.8709642244
20000	383.15	901.36480392	17.8709642244
20000	393.15	919.23130152	18.3086934156
20000	403.15	937.54446156	18.75982248
20000	413.15	956.30428404	19.2109515444
30000	293.15	753.07287384	15.1909895844
30000	303.15	767.81273436	15.1909895844
30000	313.15	783.44591976	15.6287187756
30000	323.15	799.07910516	16.07984784
30000	333.15	815.158953	16.5309769044
30000	343.15	831.68546328	16.5309769044
30000	353.15	848.21197356	16.9687060956
30000	363.15	865.18514628	17.41983516
30000	373.15	882.60498144	17.8709642244
30000	383.15	900.0248166	17.8709642244
30000	393.15	918.33797664	18.3086934156
30000	403.15	936.65113668	18.75982248
30000	413.15	954.96429672	19.2109515444
40000	293.15	752.17954896	15.1909895844
40000	303.15	767.36607192	15.1909895844
40000	313.15	782.55259488	15.6287187756
40000	323.15	798.63244272	16.07984784
40000	333.15	814.26562812	16.07984784
40000	343.15	830.7921384	16.5309769044
40000	353.15	847.31864868	16.9687060956
40000	363.15	864.2918214	17.41983516
40000	373.15	881.71165656	17.41983516
40000	383.15	899.57815416	17.8709642244
40000	393.15	917.44465176	18.3086934156
40000	403.15	935.7578118	18.75982248
40000	413.15	954.07097184	19.2109515444
50000	293.15	751.73288652	15.1909895844
50000	303.15	766.91940948	15.1909895844
50000	313.15	782.10593244	15.6287187756
50000	323.15	797.73911784	16.07984784
50000	333.15	813.81896568	16.07984784
50000	343.15	830.34547596	16.5309769044
50000	353.15	846.87198624	16.9687060956
50000	363.15	863.84515896	17.41983516
50000	373.15	881.26499412	17.41983516
50000	383.15	898.68482928	17.8709642244
50000	393.15	916.99798932	18.3086934156
50000	403.15	934.86448692	18.75982248
50000	413.15	953.6243094	19.2109515444
60000	293.15	751.28622408	15.1909895844
60000	303.15	766.47274704	15.1909895844
60000	313.15	781.65927	15.6287187756
60000	323.15	797.2924554	16.07984784
60000	333.15	813.37230324	16.07984784
60000	343.15	829.89881352	16.5309769044
60000	353.15	846.4253238	16.9687060956
60000	363.15	863.39849652	17.41983516
60000	373.15	880.81833168	17.41983516
60000	383.15	898.23816684	17.8709642244
60000	393.15	916.55132688	18.3086934156
60000	403.15	934.86448692	18.75982248
60000	413.15	953.17764696	19.2109515444
70000	293.15	750.83956164	15.1909895844
70000	303.15	766.0260846	15.1909895844
70000	313.15	781.21260756	15.6287187756
70000	323.15	797.2924554	16.07984784
70000	333.15	812.9256408	16.07984784
70000	343.15	829.45215108	16.5309769044
70000	353.15	845.97866136	16.9687060956
70000	363.15	862.95183408	17.41983516
70000	373.15	880.37166924	17.41983516
70000	383.15	898.23816684	17.8709642244
70000	393.15	916.10466444	18.3086934156
70000	403.15	934.41782448	18.75982248
70000	413.15	953.17764696	19.2109515444
80000	293.15	750.83956164	15.1909895844
80000	303.15	765.57942216	15.1909895844
80000	313.15	781.21260756	15.6287187756
80000	323.15	796.84579296	16.07984784
80000	333.15	812.9256408	16.07984784
80000	343.15	829.00548864	16.5309769044
80000	353.15	845.97866136	16.9687060956
80000	363.15	862.95183408	17.41983516
80000	373.15	880.37166924	17.41983516
80000	383.15	897.7915044	17.8709642244
80000	393.15	916.10466444	18.3086934156
80000	403.15	934.41782448	18.75982248
80000	413.15	952.73098452	19.2109515444
90000	293.15	750.3928992	15.1909895844
90000	303.15	765.57942216	15.1909895844
90000	313.15	780.76594512	15.6287187756
90000	323.15	796.39913052	16.07984784
90000	333.15	812.47897836	16.07984784
90000	343.15	829.00548864	16.5309769044
90000	353.15	845.53199892	16.9687060956
90000	363.15	862.95183408	17.41983516
90000	373.15	879.9250068	17.41983516
90000	383.15	897.7915044	17.8709642244
90000	393.15	915.658002	18.3086934156
90000	403.15	933.97116204	18.75982248
90000	413.15	952.73098452	19.2109515444
100000	293.15	750.3928992	15.1909895844
100000	303.15	765.13275972	15.1909895844
100000	313.15	780.76594512	15.6287187756
100000	323.15	796.39913052	16.07984784
100000	333.15	812.47897836	16.07984784
100000	343.15	829.00548864	16.5309769044
100000	353.15	845.53199892	16.9687060956
100000	363.15	862.50517164	17.41983516
100000	373.15	879.9250068	17.41983516
100000	383.15	897.7915044	17.8709642244
100000	393.15	915.658002	18.3086934156
100000	403.15	933.97116204	18.75982248
100000	413.15	952.73098452	19.2109515444
110000	293.15	749.94623676	15.1909895844
110000	303.15	765.13275972	15.1909895844
110000	313.15	780.76594512	15.6287187756
110000	323.15	796.39913052	16.07984784
110000	333.15	812.47897836	16.07984784
110000	343.15	829.00548864	16.5309769044
110000	353.15	845.53199892	16.9687060956
110000	363.15	862.50517164	17.41983516
110000	373.15	879.9250068	17.41983516
110000	383.15	897.7915044	17.8709642244
110000	393.15	915.658002	18.3086934156
110000	403.15	933.97116204	18.75982248
110000	413.15	952.73098452	19.2109515444
120000	293.15	749.94623676	15.1909895844
120000	303.15	765.13275972	15.1909895844
120000	313.15	780.76594512	15.6287187756
120000	323.15	796.39913052	16.07984784
120000	333.15	812.47897836	16.07984784
120000	343.15	829.00548864	16.5309769044
120000	353.15	845.53199892	16.9687060956
120000	363.15	862.50517164	17.41983516
120000	373.15	879.9250068	17.41983516
120000	383.15	897.7915044	17.8709642244
120000	393.15	915.658002	18.3086934156
120000	403.15	933.97116204	18.75982248
120000	413.15	952.73098452	19.2109515444
130000	293.15	749.94623676	15.1909895844
130000	303.15	765.13275972	15.1909895844
130000	313.15	780.31928268	15.6287187756
130000	323.15	796.39913052	16.07984784
130000	333.15	812.47897836	16.07984784
130000	343.15	828.5588262	16.5309769044
130000	353.15	845.53199892	16.9687060956
130000	363.15	862.50517164	17.41983516
130000	373.15	879.9250068	17.41983516
130000	383.15	897.7915044	17.8709642244
130000	393.15	915.658002	18.3086934156
130000	403.15	934.41782448	18.75982248
130000	413.15	953.17764696	19.2109515444
140000	293.15	749.94623676	15.1909895844
140000	303.15	765.13275972	15.1909895844
140000	313.15	780.31928268	15.6287187756
140000	323.15	796.39913052	16.07984784
140000	333.15	812.47897836	16.07984784
140000	343.15	829.00548864	16.5309769044
140000	353.15	845.53199892	16.9687060956
140000	363.15	862.50517164	17.41983516
140000	373.15	879.9250068	17.41983516
140000	383.15	897.7915044	17.8709642244
140000	393.15	916.10466444	18.3086934156
140000	403.15	934.41782448	18.75982248
140000	413.15	953.17764696	19.2109515444

System: 3-methylnonyl 1,2-benzenedioate; phases: Liquid
Property: Speed of sound, m/s (Liquid); method: Pulse-echo method
Temperature, K	Pressure, kPa	Speed of sound, m/s	uncertainty
293.06	1185	1436.6	3
298.08	1100	1419.9	3
298.08	5400	1439	3
298.08	10180	1459.7	3
298.08	16980	1488	3.1
298.08	25560	1522	3.2
298.08	32760	1549.3	3.2
298.08	40150	1576.5	3.3
298.08	47800	1602.9	3.3
298.08	55510	1629.7	3.4
298.08	62350	1652.4	3.4
313.18	1050	1367.8	2.9
313.18	1110	1367.9	2.9
313.18	15410	1432.5	3
313.18	29860	1491.8	3.1
313.18	44860	1548.5	3.2
313.18	60370	1602.9	3.3
313.18	75510	1652.4	3.4
313.18	89970	1697	3.5
313.18	105660	1742.8	3.6
313.18	119950	1782.4	3.7
333.24	1100	1304.1	2.7
333.24	1130	1304.1	2.7
333.24	14910	1370.1	2.9
333.24	29760	1434.3	3
333.24	45000	1494.4	3.1
333.24	60580	1551.1	3.2
333.24	75550	1601.7	3.3
333.24	90480	1649.2	3.4
333.24	105430	1694	3.5
333.24	120280	1736.3	3.6
333.24	139660	1788.5	3.7
353.18	1010	1241.9	2.6
353.18	1280	1243.1	2.7
353.18	10060	1288.5	2.7
353.18	19830	1335.3	2.8
353.18	29890	1380.3	2.9
353.18	40170	1423.1	3
353.18	50230	1462.7	3
353.18	60350	1500.4	3.1
353.18	70310	1535.6	3.2
353.18	80170	1569	3.2
353.18	90020	1601	3.3
353.18	104640	1646	3.4
353.18	122120	1697.1	3.5
353.18	139450	1745	3.6
373.1	460	1179.1	2.5
373.1	1150	1183.1	2.5
373.1	1350	1184.4	2.5
373.1	10370	1233.7	2.6
373.1	20030	1282.4	2.7
373.1	29930	1328.6	2.8
373.1	40300	1373.8	2.9
373.1	50050	1413.5	2.9
373.1	60040	1452	3
373.1	70060	1488.7	3.1
373.1	80050	1523.7	3.2
373.1	90060	1557.2	3.2
373.1	100440	1590.2	3.3
373.1	110260	1620.7	3.3
373.1	120180	1649.7	3.4
373.1	130570	1679.6	3.5
373.1	140300	1707	3.5
393.54	1240	1125.2	2.4
393.54	1280	1125.4	2.4
393.54	14940	1203.3	2.5
393.54	29730	1277.1	2.7
393.54	44510	1343.3	2.8
393.54	59690	1404.8	2.9
393.54	75010	1462	3
393.54	104930	1563	3.2
393.54	122450	1616.7	3.3
393.54	139770	1666.6	3.4
413.41	1110	1069.6	2.3
413.41	1130	1069.8	2.3
413.41	14800	1152.3	2.5
413.41	29640	1229.8	2.6
413.41	45070	1301.7	2.7
413.41	60270	1365.4	2.8
413.41	75540	1423.9	3
413.41	90150	1476	3.1
413.41	105150	1526	3.2
413.41	119720	1571.9	3.2
413.41	139510	1630.3	3.4

System: 3-methylnonyl 1,2-benzenedioate; phases: Liquid
Property: Mass density, kg/m3 (Liquid); method: Derived
Pressure, kPa	Temperature, K	Mass density, kg/m3	uncertainty
100	293.15	966.5	0.5
100	323.15	945.2	0.5
100	353.15	923.9	0.5
100	383.15	902.6	0.5
100	413.15	881.4	0.4
20000	293.15	977.4	0.5
20000	323.15	957.5	0.5
20000	353.15	937.8	0.5
20000	383.15	918.5	0.5
20000	413.15	899.4	0.5
40000	293.15	987.2	0.5
40000	323.15	968.4	0.5
40000	353.15	950	0.5
40000	383.15	932	0.5
40000	413.15	914.3	0.5
60000	293.15	996.1	0.5
60000	323.15	978.2	0.5
60000	353.15	960.8	0.5
60000	383.15	943.8	0.5
60000	413.15	927.2	0.5
80000	293.15	1004.3	0.5
80000	323.15	987.2	0.5
80000	353.15	970.6	0.5
80000	383.15	954.3	0.5
80000	413.15	938.6	0.5
100000	293.15	1011.9	0.6
100000	323.15	995.5	0.6
100000	353.15	979.5	0.6
100000	383.15	964	0.6
100000	413.15	948.9	0.6
120000	293.15	1019.1	0.6
120000	323.15	1003.2	0.6
120000	353.15	987.8	0.6
120000	383.15	972.8	0.6
120000	413.15	958.3	0.6
140000	293.15	1025.8	0.7
140000	323.15	1010.4	0.7
140000	353.15	995.5	0.7
140000	383.15	981	0.7
140000	413.15	967	0.7
