Measured thermophysical data. Mutual diffusion coefficients of 3-methyl-1-butanol + n-heptane and 2-methyl-1-butanol + n-heptane from 288.15 K to 318.15 K
Source: J. Chem. Thermodyn., 2019, 10.1016/j.jct.2018.10.023
Compound 1: heptane, C7H16, InChI=1S/C7H16/c1-3-5-7-6-4-2/h3-7H2,1-2H3, purity 99.2%
Compound 2: 3-methylbutan-1-ol, C5H12O, InChI=1S/C5H12O/c1-5(2)3-4-6/h5-6H,3-4H2,1-2H3, purity 99.5%
Compound 3: 2-methyl-1-butanol, C5H12O, InChI=1S/C5H12O/c1-3-5(2)4-6/h5-6H,3-4H2,1-2H3, purity 99.2%
Compound 4: potassium chloride, ClK, InChI=1S/ClH.K/h1H;/q;+1/p-1, purity 99.5%
Compound 5: sodium chloride, ClNa, InChI=1S/ClH.Na/h1H;/q;+1/p-1, purity 99.8%
Compound 6: lithium chloride, ClLi, InChI=1S/ClH.Li/h1H;/q;+1/p-1, purity 99%
Compound 7: water, H2O, InChI=1S/H2O/h1H2, purity 99.9%

System: potassium chloride + water; phases: Liquid
Property: Binary diffusion coefficient, m2/s (Liquid); method: Digital holographic interferometer
Mass fraction of potassium chloride	Temperature, K	Pressure, kPa	Binary diffusion coefficient, m2/s	uncertainty
0.025	298.15	101	1.848e-09	0.044

System: sodium chloride + water; phases: Liquid
Property: Binary diffusion coefficient, m2/s (Liquid); method: Digital holographic interferometer
Mass fraction of sodium chloride	Temperature, K	Pressure, kPa	Binary diffusion coefficient, m2/s	uncertainty
0.018	298.15	101	1.469e-09	0.035

System: lithium chloride + water; phases: Liquid
Fixed: Temperature, K = 298.15
Fixed: Pressure, kPa = 101
Property: Binary diffusion coefficient, m2/s (Liquid); method: Digital holographic interferometer
Mass fraction of lithium chloride	Binary diffusion coefficient, m2/s	uncertainty
0.011	1.315e-09	0.032
0.027	1.229e-09	0.03

System: 3-methylbutan-1-ol + heptane; phases: Liquid
Fixed: Pressure, kPa = 101
Property: Binary diffusion coefficient, m2/s (Liquid); method: Digital holographic interferometer
Temperature, K	Mass fraction of 3-methylbutan-1-ol	Binary diffusion coefficient, m2/s	uncertainty
288.15	0.05	1.742e-09	0.042
288.15	0.15	1.252e-09	0.03
288.15	0.25	9.07e-10	0.022
288.15	0.35	6.95e-10	0.017
288.15	0.45	6.1e-10	0.015
288.15	0.55	5.7e-10	0.014
288.15	0.65	6.18e-10	0.015
288.15	0.75	6.65e-10	0.016
288.15	0.85	7.11e-10	0.017
288.15	0.95	7.46e-10	0.018
298.15	0.05	1.985e-09	0.048
298.15	0.15	1.523e-09	0.037
298.15	0.25	1.174e-09	0.029
298.15	0.35	9.75e-10	0.024
298.15	0.45	8.69e-10	0.021
298.15	0.55	8.42e-10	0.02
298.15	0.65	8.91e-10	0.021
298.15	0.75	9.461e-10	0.0228
298.15	0.85	9.85e-10	0.024
298.15	0.95	1.01e-09	0.024
308.15	0.05	2.283e-09	0.055
308.15	0.15	1.829e-09	0.044
308.15	0.25	1.443e-09	0.035
308.15	0.35	1.272e-09	0.031
308.15	0.45	1.145e-09	0.028
308.15	0.55	1.128e-09	0.027
308.15	0.65	1.175e-09	0.028
308.15	0.75	1.221e-09	0.029
308.15	0.85	1.288e-09	0.031
308.15	0.95	1.321e-09	0.032
318.15	0.05	2.536e-09	0.061
318.15	0.15	2.09e-09	0.05
318.15	0.25	1.75e-09	0.042
318.15	0.35	1.55e-09	0.037
318.15	0.45	1.43e-09	0.034
318.15	0.55	1.399e-09	0.034
318.15	0.65	1.461e-09	0.035
318.15	0.75	1.521e-09	0.037
318.15	0.85	1.558e-09	0.037
318.15	0.95	1.579e-09	0.038

System: 2-methyl-1-butanol + heptane; phases: Liquid
Fixed: Pressure, kPa = 101
Property: Binary diffusion coefficient, m2/s (Liquid); method: Digital holographic interferometer
Temperature, K	Mass fraction of 2-methyl-1-butanol	Binary diffusion coefficient, m2/s	uncertainty
288.15	0.05	1.024e-09	0.025
288.15	0.15	8.91e-10	0.021
288.15	0.25	7.99e-10	0.019
288.15	0.35	6.91e-10	0.017
288.15	0.45	6.03e-10	0.015
288.15	0.55	5.26e-10	0.013
288.15	0.65	4.81e-10	0.012
288.15	0.75	4.52e-10	0.011
288.15	0.85	4.61e-10	0.011
288.15	0.95	4.83e-10	0.012
298.15	0.05	1.243e-09	0.03
298.15	0.15	1.105e-09	0.027
298.15	0.25	1.012e-09	0.024
298.15	0.35	9.24e-10	0.022
298.15	0.45	8.43e-10	0.02
298.15	0.55	7.55e-10	0.018
298.15	0.65	7.02e-10	0.017
298.15	0.75	6.8e-10	0.016
298.15	0.85	6.9e-10	0.017
298.15	0.95	7.04e-10	0.017
308.15	0.05	1.491e-09	0.036
308.15	0.15	1.337e-09	0.032
308.15	0.25	1.241e-09	0.03
308.15	0.35	1.152e-09	0.028
308.15	0.45	1.078e-09	0.026
308.15	0.55	9.81e-10	0.024
308.15	0.65	9.31e-10	0.022
308.15	0.75	9.25e-10	0.022
308.15	0.85	9.36e-10	0.022
308.15	0.95	9.41e-10	0.023
318.15	0.05	1.732e-09	0.042
318.15	0.15	1.583e-09	0.038
318.15	0.25	1.498e-09	0.036
318.15	0.35	1.402e-09	0.034
318.15	0.45	1.327e-09	0.032
318.15	0.55	1.236e-09	0.03
318.15	0.65	1.173e-09	0.028
318.15	0.75	1.162e-09	0.028
318.15	0.85	1.181e-09	0.028
318.15	0.95	1.194e-09	0.029
