Measured thermophysical data. Energetics of 1-(aminophenyl)pyrroles: A joint calorimetric and computational study
Source: J. Chem. Thermodyn., 2011, 10.1016/j.jct.2011.04.022
Compound 1: hydrogen, H2, InChI=1S/H2/h1H
Compound 2: nitrogen, N2, InChI=1S/N2/c1-2
Compound 3: graphite, C
Compound 4: carbon dioxide, CO2, InChI=1S/CO2/c2-1-3
Compound 5: water, H2O, InChI=1S/H2O/h1H2
Compound 6: oxygen, O2, InChI=1S/O2/c1-2
Compound 7: 1-(2-aminophenyl)pyrrole, C10H10N2, InChI=1S/C10H10N2/c11-9-5-1-2-6-10(9)12-7-3-4-8-12/h1-8H,11H2, purity 98%

System: 1-(2-aminophenyl)pyrrole; phases: Crystal, Gas
Property: Molar enthalpy of vaporization or sublimation, kJ/mol (Crystal); method: Second Law analysis of vapor pressure data
Temperature, K	Molar enthalpy of vaporization or sublimation, kJ/mol	uncertainty
298.15	98.8	0.8

System: 1-(2-aminophenyl)pyrrole; phases: Crystal, Gas
Property: Vapor or sublimation pressure, kPa (Crystal); method: Calculated from knudsen effusion weight loss
Temperature, K	Vapor or sublimation pressure, kPa	uncertainty
296.12	6.43e-05	3.2e-06
296.12	6.33e-05	3.2e-06
296.12	6.58e-05	3.3e-06
298.22	8.56e-05	4.3e-06
298.22	8.51e-05	4.3e-06
298.22	8.36e-05	4.2e-06
300.2	0.000112	6e-06
300.2	0.000108	5e-06
300.2	0.000107	5e-06
302.11	0.000144	7e-06
302.11	0.000137	7e-06
302.11	0.000137	7e-06
304.19	0.000179	9e-06
304.19	0.000182	9e-06
304.19	0.000178	9e-06
306.19	0.00024	1.2e-05
306.19	0.000228	1.1e-05
306.19	0.000227	1.1e-05
308.08	0.000301	1.5e-05
308.08	0.0003	1.5e-05
308.08	0.000297	1.5e-05
310.2	0.000388	1.9e-05
310.2	0.000386	1.9e-05
310.2	0.000377	1.9e-05
312.2	0.000503	2.5e-05
312.2	0.000481	2.4e-05
312.2	0.00048	2.4e-05
314.11	0.000643	3.2e-05
314.11	0.000635	3.2e-05
314.11	0.000623	3.1e-05
316.18	0.000816	4.1e-05
316.18	0.000808	4e-05
316.18	0.000788	3.9e-05
318.18	0.001059	0.000107
318.18	0.001011	0.000101
318.18	0.000991	5e-05

Reaction: 1 1-(2-aminophenyl)pyrrole + -5 hydrogen + -1 nitrogen + -10 graphite
Property: Molar enthalpy of reaction, kJ/mol
125.3

Reaction: -1 1-(2-aminophenyl)pyrrole + 10 carbon dioxide + 1 nitrogen + 5 water + -12.5 oxygen
Property: Specific internal energy of reaction at constant volume, J/g
-34676.7
