Measured thermophysical data. Effect of temperature and solvent properties on the process of complex formation between crown ether 15C5 and Na+ in the (propan-1-ol + water) mixture at temperatures from T = 293.15 K to T = 308.15 K
Source: J. Chem. Thermodyn., 2017, 10.1016/j.jct.2017.07.003
Compound 1: 1,4,7,10,13-pentaoxacyclopentadecane, C10H20O5, InChI=1S/C10H20O5/c1-2-12-5-6-14-9-10-15-8-7-13-4-3-11-1/h1-10H2, purity 98%
Compound 2: sodium iodide, INa, InChI=1S/HI.Na/h1H;/q;+1/p-1, purity 99.5%
Compound 3: propan-1-ol, C3H8O, InChI=1S/C3H8O/c1-2-3-4/h4H,2-3H2,1H3, purity 99.5%
Compound 4: water, H2O, InChI=1S/H2O/h1H2

System: propan-1-ol; phases: Liquid
Fixed: Pressure, kPa = 100
Fixed: Frequency, MHz = 0.01
Property: Electrical conductivity, S/m (Liquid); method: Alternating current cell with electrodes
Temperature, K	Electrical conductivity, S/m	uncertainty
293.15	1.51e-06	4e-07
298.15	1.8e-06	4e-07
303.15	2.16e-06	4e-07
308.15	2.38e-06	4e-07

System: propan-1-ol + sodium iodide + 1,4,7,10,13-pentaoxacyclopentadecane; phases: Liquid
Fixed: Pressure, kPa = 100
Property: Molar enthalpy of solution, kJ/mol (Liquid); method: ISOPERIBOL
Molality, mol/kg of 1,4,7,10,13-pentaoxacyclopentadecane	Temperature, K	Solvent: Molality, mol/kg of sodium iodide	Molar enthalpy of solution, kJ/mol	uncertainty
0.00278	293.15	0.00415	-23.66	0.2
0.00498	298.15	0.0126	-24.55	0.19
0.00124	303.15	0.00661	-24.32	0.2
0.00146	308.15	0.05	-24.9	0.2

System: propan-1-ol + sodium iodide + 1,4,7,10,13-pentaoxacyclopentadecane; phases: Liquid
Fixed: Pressure, kPa = 100
Fixed: Frequency, MHz = 0.01
Property: Electrical conductivity, S/m (Liquid); method: Alternating current cell with electrodes
Temperature, K	Molality, mol/kg of 1,4,7,10,13-pentaoxacyclopentadecane	Molality, mol/kg of sodium iodide	Electrical conductivity, S/m	uncertainty
293.15	0	0.0007138	0.0010717	4.29e-05
293.15	4.6491e-05	0.00071365	0.0010776	4.31e-05
293.15	0.00014965	0.00071331	0.0010901	4.36e-05
293.15	0.00019735	0.00071315	0.0010958	4.38e-05
293.15	0.00025254	0.00071297	0.0011021	4.41e-05
293.15	0.0003063	0.00071279	0.0011081	4.43e-05
293.15	0.00039561	0.0007125	0.0011175	4.47e-05
293.15	0.00048823	0.00071219	0.0011268	4.51e-05
293.15	0.00056541	0.00071194	0.0011341	4.54e-05
293.15	0.00071715	0.00071144	0.0011451	4.58e-05
293.15	0.00082476	0.00071108	0.0011508	4.6e-05
293.15	0.00094876	0.00071067	0.001155	4.62e-05
293.15	0.0010713	0.00071027	0.0011574	4.63e-05
293.15	0.0012105	0.00070981	0.0011591	4.64e-05
293.15	0.0014671	0.00070896	0.0011601	4.64e-05
293.15	0.0016667	0.00070831	0.0011601	4.64e-05
293.15	0.00185	0.0007077	0.0011597	4.64e-05
293.15	0.0020335	0.0007071	0.001159	4.64e-05
293.15	0.0022433	0.0007064	0.0011582	4.63e-05
293.15	0.002448	0.00070573	0.0011576	4.63e-05
293.15	0.0026398	0.0007051	0.0011566	4.63e-05
293.15	0.0028611	0.00070437	0.0011555	4.62e-05
293.15	0.0030064	0.00070389	0.0011549	4.62e-05
293.15	0.0031232	0.0007035	0.0011541	4.62e-05
293.15	0.0032483	0.00070309	0.0011534	4.61e-05
293.15	0.0033703	0.00070269	0.0011527	4.61e-05
293.15	0.0034788	0.00070233	0.0011518	4.61e-05
298.15	0	0.00094457	0.0015425	6.17e-05
298.15	5.7063e-05	0.00094435	0.0015507	6.2e-05
298.15	0.00027524	0.00094351	0.0015781	6.31e-05
298.15	0.000373	0.00094314	0.0015917	6.37e-05
298.15	0.00046384	0.00094279	0.0016009	6.4e-05
298.15	0.00054456	0.00094248	0.0016126	6.45e-05
298.15	0.00064066	0.00094211	0.0016229	6.49e-05
298.15	0.00072213	0.00094179	0.0016316	6.53e-05
298.15	0.00081638	0.00094143	0.0016413	6.57e-05
298.15	0.00092188	0.00094102	0.0016505	6.6e-05
298.15	0.0011482	0.00094015	0.0016623	6.65e-05
298.15	0.0013318	0.00093944	0.0016693	6.68e-05
298.15	0.0015967	0.00093842	0.0016725	6.69e-05
298.15	0.0018824	0.00093732	0.0016727	6.69e-05
298.15	0.0021391	0.00093633	0.0016757	6.7e-05
298.15	0.0023816	0.0009354	0.0016757	6.7e-05
298.15	0.0026509	0.00093436	0.0016745	6.7e-05
298.15	0.0029907	0.00093305	0.0016728	6.69e-05
298.15	0.0032912	0.0009319	0.0016714	6.69e-05
298.15	0.0036037	0.00093069	0.0016704	6.68e-05
298.15	0.003894	0.00092957	0.0016686	6.67e-05
298.15	0.0041584	0.00092856	0.0016664	6.67e-05
298.15	0.0043454	0.00092783	0.0016648	6.66e-05
298.15	0.0044955	0.00092726	0.001664	6.66e-05
303.15	0	0.00072384	0.001345	5.38e-05
303.15	3.3141e-05	0.00072376	0.0013491	5.4e-05
303.15	7.6583e-05	0.00072365	0.0013556	5.42e-05
303.15	0.00015463	0.00072344	0.0013674	5.47e-05
303.15	0.00020823	0.0007233	0.001376	5.5e-05
303.15	0.00028574	0.0007231	0.0013866	5.55e-05
303.15	0.00035021	0.00072294	0.0013953	5.58e-05
303.15	0.00042454	0.00072274	0.0014055	5.62e-05
303.15	0.00051957	0.0007225	0.0014167	5.67e-05
303.15	0.00061299	0.00072226	0.0014243	5.7e-05
303.15	0.00071769	0.00072199	0.0014355	5.74e-05
303.15	0.00082094	0.00072172	0.0014419	5.77e-05
303.15	0.00094007	0.00072141	0.0014475	5.79e-05
303.15	0.0010685	0.00072108	0.0014467	5.79e-05
303.15	0.0012512	0.0007206	0.0014548	5.82e-05
303.15	0.0013828	0.00072026	0.0014564	5.83e-05
303.15	0.001534	0.00071987	0.0014574	5.83e-05
303.15	0.0016948	0.00071946	0.0014583	5.83e-05
303.15	0.0017897	0.00071921	0.0014587	5.83e-05
303.15	0.0020034	0.00071866	0.0014588	5.84e-05
303.15	0.0022112	0.00071812	0.0014591	5.84e-05
303.15	0.0023971	0.00071764	0.0014594	5.84e-05
303.15	0.0025971	0.00071712	0.0014577	5.83e-05
303.15	0.0028065	0.00071658	0.0014577	5.83e-05
303.15	0.0030186	0.00071603	0.0014565	5.83e-05
303.15	0.0032893	0.00071533	0.0014561	5.82e-05
303.15	0.0034941	0.0007148	0.0014548	5.82e-05
303.15	0.0036876	0.0007143	0.0014546	5.82e-05
303.15	0.0039054	0.00071373	0.0014531	5.81e-05
303.15	0.0041013	0.00071322	0.0014521	5.81e-05
308.15	0	0.00060206	0.0012632	5.05e-05
308.15	3.8903e-05	0.00060195	0.0012686	5.07e-05
308.15	7.8712e-05	0.00060183	0.0012743	5.1e-05
308.15	0.00011862	0.00060171	0.0012808	5.12e-05
308.15	0.00015789	0.0006016	0.001287	5.15e-05
308.15	0.00019791	0.00060148	0.0012925	5.17e-05
308.15	0.00024042	0.00060136	0.0012979	5.19e-05
308.15	0.00028154	0.00060123	0.0013036	5.21e-05
308.15	0.00033772	0.00060107	0.0013108	5.24e-05
308.15	0.0003817	0.00060094	0.0013158	5.26e-05
308.15	0.00045041	0.00060074	0.0013229	5.29e-05
308.15	0.0005269	0.00060052	0.0013297	5.32e-05
308.15	0.00060383	0.00060029	0.0013352	5.34e-05
308.15	0.00068886	0.00060004	0.0013397	5.36e-05
308.15	0.00077799	0.00059978	0.0013448	5.38e-05
308.15	0.00087625	0.00059949	0.0013486	5.39e-05
308.15	0.00097918	0.00059919	0.0013522	5.41e-05
308.15	0.0010909	0.00059886	0.0013538	5.42e-05
308.15	0.00121	0.00059852	0.0013552	5.42e-05
308.15	0.0013283	0.00059817	0.0013563	5.43e-05
308.15	0.0014703	0.00059775	0.0013577	5.43e-05
308.15	0.0016335	0.00059728	0.0013594	5.44e-05
308.15	0.0017891	0.00059682	0.0013597	5.44e-05
308.15	0.0019371	0.00059639	0.0013596	5.44e-05
308.15	0.0021004	0.00059591	0.0013594	5.44e-05
308.15	0.0022664	0.00059542	0.0013589	5.44e-05
308.15	0.0024446	0.0005949	0.0013586	5.43e-05
308.15	0.0026233	0.00059438	0.0013577	5.43e-05
308.15	0.0028732	0.00059364	0.0013564	5.43e-05

System: sodium iodide + water + 1,4,7,10,13-pentaoxacyclopentadecane; phases: Liquid
Fixed: Pressure, kPa = 100
Property: Molar enthalpy of solution, kJ/mol (Liquid); method: ISOPERIBOL
Molality, mol/kg of 1,4,7,10,13-pentaoxacyclopentadecane	Temperature, K	Solvent: Molality, mol/kg of sodium iodide	Molar enthalpy of solution, kJ/mol	uncertainty
0.00433	293.15	0.04998	-43.26	0.34
0.00542	298.15	0.05001	-42.37	0.33
0.0033	303.15	0.05001	-41.13	0.32
0.0035	308.15	0.05001	-40.11	0.31

System: propan-1-ol + sodium iodide; phases: Liquid
Fixed: Pressure, kPa = 100
Fixed: Frequency, MHz = 0.01
Property: Electrical conductivity, S/m (Liquid); method: Alternating current cell with electrodes
Temperature, K	Molality, mol/kg of sodium iodide	Electrical conductivity, S/m	uncertainty
293.15	0.0007138	0.0010717	4.29e-05
298.15	0.00094457	0.0015425	6.17e-05
303.15	0.00072384	0.001345	5.38e-05
308.15	0.00060206	0.0012632	5.05e-05

System: water + propan-1-ol; phases: Liquid
Fixed: Pressure, kPa = 100
Fixed: Frequency, MHz = 0.01
Property: Electrical conductivity, S/m (Liquid); method: Alternating current cell with electrodes
Temperature, K	Mole fraction of water	Electrical conductivity, S/m	uncertainty
293.15	0	1.51e-06	6e-08
293.15	0.1	3.98e-06	7e-07
293.15	0.2	8.35e-06	1.04e-06
293.15	0.3	1.38e-05	1.03e-06
293.15	0.4	1.709e-05	9.3e-07
293.15	0.5	2.012e-05	1.16e-06
293.15	0.6	2.539e-05	1.31e-06
293.15	0.7	2.843e-05	1.29e-06
293.15	0.8	3.147e-05	1.4e-06
298.15	0	1.8e-06	7e-08
298.15	0.1	4.32e-06	6.7e-07
298.15	0.2	8.31e-06	1.08e-06
298.15	0.3	1.457e-05	1.18e-06
298.15	0.4	1.856e-05	1e-06
298.15	0.5	2.133e-05	1.1e-06
298.15	0.6	2.549e-05	1.29e-06
298.15	0.7	2.929e-05	1.42e-06
298.15	0.8	3.355e-05	1.57e-06
303.15	0	2.16e-06	9e-08
303.15	0.1	4.68e-06	8.3e-07
303.15	0.2	1.028e-05	1.18e-06
303.15	0.3	1.579e-05	1.1e-06
303.15	0.4	1.923e-05	1.03e-06
303.15	0.5	2.266e-05	1.18e-06
303.15	0.6	2.681e-05	1.33e-06
303.15	0.7	3.058e-05	1.47e-06
303.15	0.8	3.505e-05	1.7e-06
308.15	0	2.38e-06	1e-07
308.15	0.1	4.92e-06	6.5e-07
308.15	0.2	8.6e-06	1.2e-06
308.15	0.3	1.645e-05	1.33e-06
308.15	0.4	2.015e-05	1.21e-06
308.15	0.5	2.548e-05	1.39e-06
308.15	0.6	2.956e-05	1.38e-06
308.15	0.7	3.263e-05	1.53e-06
308.15	0.8	3.746e-05	1.78e-06

System: propan-1-ol + sodium iodide + water; phases: Liquid
Fixed: Pressure, kPa = 100
Fixed: Frequency, MHz = 0.01
Property: Electrical conductivity, S/m (Liquid); method: Alternating current cell with electrodes
Temperature, K	Solvent: Mole fraction of water	Molality, mol/kg of sodium iodide	Electrical conductivity, S/m	uncertainty
293.15	0	0.0007138	0.0010717	4.3e-05
293.15	0.1	0.00078407	0.001326	5.68e-05
293.15	0.2	0.00081621	0.0014967	6.46e-05
293.15	0.3	0.00082731	0.0016306	6.89e-05
293.15	0.4	0.00070181	0.001472	6.33e-05
293.15	0.5	0.00079392	0.001773	8.48e-05
293.15	0.6	0.00072226	0.0017857	8.68e-05
293.15	0.7	0.00078498	0.0022306	0.0001002
293.15	0.8	0.00070418	0.0024758	0.0001222
298.15	0	0.00094457	0.0015425	6.17e-05
298.15	0.1	0.00099031	0.0018292	8.44e-05
298.15	0.2	0.00111535	0.0021036	0.0001057
298.15	0.3	0.00091932	0.0020488	8.83e-05
298.15	0.4	0.00091791	0.0021453	8.8e-05
298.15	0.5	0.00096938	0.0026581	0.0001365
298.15	0.6	0.00080811	0.0023071	0.0001021
298.15	0.7	0.0006771	0.0022456	9.52e-05
298.15	0.8	0.00099696	0.0040671	0.0001842
303.15	0	0.00072384	0.001345	5.39e-05
303.15	0.1	0.00091497	0.0019217	9.01e-05
303.15	0.2	0.00090626	0.0021404	9.41e-05
303.15	0.3	0.00091164	0.0023004	9.67e-05
303.15	0.4	0.00081141	0.0022115	9.46e-05
303.15	0.5	0.00077461	0.002284	0.0001129
303.15	0.6	0.00069259	0.0022525	9.59e-05
303.15	0.7	0.00077224	0.0029331	0.0001344
303.15	0.8	0.00059161	0.0028197	0.0001428
308.15	0	0.00060206	0.0012632	5.08e-05
308.15	0.1	0.00065573	0.0016278	6.98e-05
308.15	0.2	0.00064509	0.001727	7.51e-05
308.15	0.3	0.00070587	0.0020353	8.74e-05
308.15	0.4	0.00076775	0.002366	0.0001089
308.15	0.5	0.00065593	0.0022095	9.35e-05
308.15	0.6	0.00073526	0.0027782	0.0001329
308.15	0.7	0.00071024	0.003077	0.0001392
308.15	0.8	0.00074502	0.0040268	0.0002015
