Measured thermophysical data. Phase diagrams of (vapour + liquid) equilibrium for binary mixtures of a,a,a-trifluorotoluene with ethanol, or benzene, or chloroform at pressure 101.4 kPa
Source: J. Chem. Thermodyn., 2008, 10.1016/j.jct.2007.09.002
Compound 1: benzene, C6H6, InChI=1S/C6H6/c1-2-4-6-5-3-1/h1-6H
Compound 2: (trifluoromethyl)benzene, C7H5F3, InChI=1S/C7H5F3/c8-7(9,10)6-4-2-1-3-5-6/h1-5H
Compound 3: ethanol, C2H6O, InChI=1S/C2H6O/c1-2-3/h3H,2H2,1H3
Compound 4: trichloromethane, CHCl3, InChI=1S/CHCl3/c2-1(3)4/h1H

System: benzene; phases: Liquid, Gas
Property: Normal boiling temperature, K (Liquid); method: Ebulliometric method (Recirculating still)
Normal boiling temperature, K	uncertainty
353	0.2

System: (trifluoromethyl)benzene; phases: Liquid, Gas
Property: Normal boiling temperature, K (Liquid); method: Ebulliometric method (Recirculating still)
Normal boiling temperature, K	uncertainty
375.7	0.2

System: ethanol; phases: Liquid, Gas
Property: Normal boiling temperature, K (Liquid); method: Ebulliometric method (Recirculating still)
Normal boiling temperature, K	uncertainty
351.7	0.2

System: trichloromethane; phases: Liquid, Gas
Property: Normal boiling temperature, K (Liquid); method: Ebulliometric method (Recirculating still)
Normal boiling temperature, K	uncertainty
334.1	0.2

System: ethanol + (trifluoromethyl)benzene; phases: Liquid, Gas
Fixed: Pressure, kPa = 101.4
Property: Boiling temperature at pressure P, K (Liquid); method: EBULLIO:UFactor:8
Mole fraction of ethanol	Boiling temperature at pressure P, K	uncertainty
0.03	368.1	0.9
0.113	356.7	0.8
0.272	351.3	0.8
0.365	349.4	0.7
0.464	349.2	0.7
0.565	348.8	0.7
0.634	348.6	0.7
0.709	348.5	0.7
0.763	348.7	0.7
0.816	348.8	0.7
0.865	349.1	0.7
0.892	349.5	0.7
0.928	350	0.7
0.969	350	0.7

System: ethanol + (trifluoromethyl)benzene; phases: Gas, Liquid
Fixed: Pressure, kPa = 101.4
Property: Mole fraction of ethanol (Gas); method: CHROM:UFactor:8
Mole fraction of ethanol	Mole fraction of ethanol	uncertainty
0.03	0.223	0.021
0.113	0.476	0.036
0.272	0.592	0.03
0.365	0.631	0.028
0.464	0.659	0.025
0.565	0.689	0.023
0.634	0.688	0.023
0.709	0.71	0.022
0.763	0.731	0.02
0.816	0.76	0.018
0.865	0.788	0.016
0.892	0.813	0.015
0.928	0.868	0.012
0.969	0.931	0.009

System: benzene + (trifluoromethyl)benzene; phases: Liquid, Gas
Fixed: Pressure, kPa = 101.4
Property: Boiling temperature at pressure P, K (Liquid); method: EBULLIO:UFactor:4
Mole fraction of benzene	Boiling temperature at pressure P, K	uncertainty
0.072	371.25	0.55
0.172	366.15	0.54
0.247	363.25	0.52
0.393	359.85	0.52
0.437	358.75	0.52
0.549	357.25	0.52
0.593	356.75	0.52
0.684	355.55	0.52
0.742	354.95	0.51
0.802	354.45	0.51
0.845	354.05	0.51
0.901	353.75	0.51
0.919	353.75	0.51

System: benzene + (trifluoromethyl)benzene; phases: Gas, Liquid
Fixed: Pressure, kPa = 101.4
Property: Mole fraction of benzene (Gas); method: CHROM:UFactor:8
Mole fraction of benzene	Mole fraction of benzene	uncertainty
0.072	0.172	0.015
0.172	0.349	0.027
0.247	0.462	0.035
0.393	0.607	0.03
0.437	0.652	0.026
0.549	0.719	0.021
0.593	0.741	0.019
0.684	0.793	0.016
0.742	0.821	0.013
0.802	0.851	0.011
0.845	0.868	0.01
0.901	0.902	0.008
0.919	0.91	0.008

System: trichloromethane + (trifluoromethyl)benzene; phases: Liquid, Gas
Fixed: Pressure, kPa = 101.4
Property: Boiling temperature at pressure P, K (Liquid); method: EBULLIO:UFactor:16
Mole fraction of trichloromethane	Boiling temperature at pressure P, K	uncertainty
0.046	368.2	1.5
0.062	365.9	1.5
0.146	359.1	1.4
0.231	355.7	1.4
0.306	350.4	1.4
0.469	345.8	1.4
0.548	342.9	1.4
0.615	341.5	1.4
0.695	340	1.4
0.759	338.6	1.4
0.783	338.1	1.4
0.829	337	1.4
0.886	336.1	1.4
0.925	335.6	1.4

System: trichloromethane + (trifluoromethyl)benzene; phases: Gas, Liquid
Fixed: Pressure, kPa = 101.4
Property: Mole fraction of trichloromethane (Gas); method: CHROM:UFactor:8
Mole fraction of trichloromethane	Mole fraction of trichloromethane	uncertainty
0.046	0.225	0.023
0.062	0.289	0.027
0.146	0.467	0.035
0.231	0.56	0.033
0.306	0.64	0.027
0.469	0.75	0.019
0.548	0.806	0.015
0.615	0.832	0.013
0.695	0.864	0.01
0.759	0.896	0.008
0.783	0.906	0.008
0.829	0.928	0.007
0.886	0.948	0.006
0.925	0.963	0.005
