Measured thermophysical data. (Liquid + liquid) equilibria for (water + 1-propanol or acetone + .beta.-citronellol) at different temperatures
Source: J. Chem. Thermodyn., 2015, 10.1016/j.jct.2015.02.013
Compound 1: 3,7-dimethyl-6-octen-1-ol, C10H20O, InChI=1S/C10H20O/c1-9(2)5-4-6-10(3)7-8-11/h5,10-11H,4,6-8H2,1-3H3, purity 98%
Compound 2: propan-1-ol, C3H8O, InChI=1S/C3H8O/c1-2-3-4/h4H,2-3H2,1H3, purity 99.5%
Compound 3: acetone, C3H6O, InChI=1S/C3H6O/c1-3(2)4/h1-2H3, purity 99.5%
Compound 4: water, H2O, InChI=1S/H2O/h1H2

System: 3,7-dimethyl-6-octen-1-ol; phases: Liquid
Property: Mass density, kg/m3 (Liquid); method: Vibrating tube method
Temperature, K	Pressure, kPa	Mass density, kg/m3	uncertainty
293.15	101.325	855.37	1.18

System: 3,7-dimethyl-6-octen-1-ol; phases: Liquid
Property: Refractive index (Na D-line) (Liquid); method: Standard Abbe refractometry
Temperature, K	Pressure, kPa	Refractive index (Na D-line)	uncertainty
293.15	101.325	1.45683	0.00051

System: propan-1-ol; phases: Liquid
Property: Mass density, kg/m3 (Liquid); method: Vibrating tube method
Temperature, K	Pressure, kPa	Mass density, kg/m3	uncertainty
293.15	101.325	803.85	1.01

System: propan-1-ol; phases: Liquid
Property: Refractive index (Na D-line) (Liquid); method: Standard Abbe refractometry
Temperature, K	Pressure, kPa	Refractive index (Na D-line)	uncertainty
293.15	101.325	1.38461	0.00033

System: acetone; phases: Liquid
Property: Mass density, kg/m3 (Liquid); method: Vibrating tube method
Temperature, K	Pressure, kPa	Mass density, kg/m3	uncertainty
293.15	101.325	790.21	1.01

System: acetone; phases: Liquid
Property: Refractive index (Na D-line) (Liquid); method: Standard Abbe refractometry
Temperature, K	Pressure, kPa	Refractive index (Na D-line)	uncertainty
293.15	101.325	1.35811	0.00033

System: water; phases: Liquid
Property: Mass density, kg/m3 (Liquid); method: Vibrating tube method
Temperature, K	Pressure, kPa	Mass density, kg/m3	uncertainty
293.15	101.325	998.15	1

System: water; phases: Liquid
Property: Refractive index (Na D-line) (Liquid); method: Standard Abbe refractometry
Temperature, K	Pressure, kPa	Refractive index (Na D-line)	uncertainty
293.15	101.325	1.33299	0.00031

System: propan-1-ol + 3,7-dimethyl-6-octen-1-ol + water; phases: Liquid mixture 2, Liquid mixture 1
Fixed: Pressure, kPa = 100
Property: Mole fraction of propan-1-ol (Liquid mixture 2); method: Chromatography
Property: Mole fraction of propan-1-ol (Liquid mixture 1); method: Chromatography
Property: Mole fraction of water (Liquid mixture 1); method: Chromatography
Temperature, K	Mole fraction of water	Mole fraction of propan-1-ol	uncertainty	Mole fraction of propan-1-ol	uncertainty	Mole fraction of water	uncertainty
283.15	0.2268	0.0782	0.0093	0.0089	0.0014	0.9907	
283.15	0.2336	0.1406	0.0043	0.0162	0.0014	0.9834	
283.15	0.2601	0.2239	0.0038	0.0272	0.0014	0.9724	
283.15	0.2808	0.2985	0.0033	0.0379	0.0014	0.9614	
283.15	0.3124	0.3519	0.0029	0.0448	0.0014	0.9545	
283.15	0.4579	0.4122	0.0032	0.0654	0.0014	0.9338	
283.15	0.3969	0.4117	0.0032	0.0663	0.0014	0.9327	
283.15	0.6932	0.2785	0.0023	0.1093	0.0016	0.8879	
298.15	0.2525	0.0843	0.0044	0.0073	0.0014	0.9924	
298.15	0.2572	0.167	0.006	0.0142	0.0014	0.9855	
298.15	0.2743	0.2399	0.0035	0.022	0.0014	0.9777	
298.15	0.3095	0.3202	0.003	0.0327	0.0014	0.967	
298.15	0.3441	0.3553	0.0028	0.0397	0.0014	0.9599	
298.15	0.44	0.4017	0.0031	0.0545	0.0015	0.945	
298.15	0.4901	0.3918	0.003	0.0575	0.0014	0.9416	
298.15	0.7232	0.2511	0.0021	0.1135	0.0016	0.8827	
313.15	0.2699	0.0838	0.0172	0.0063	0.0014	0.9934	
313.15	0.2745	0.1628	0.0081	0.0132	0.0014	0.9865	
313.15	0.2884	0.2428	0.0032	0.0208	0.0014	0.9787	
313.15	0.3347	0.3252	0.0029	0.0274	0.0014	0.9722	
313.15	0.3702	0.3507	0.0028	0.0356	0.0014	0.9638	
313.15	0.4436	0.3925	0.003	0.0428	0.0014	0.9566	
313.15	0.5201	0.3757	0.003	0.0559	0.0015	0.9433	
313.15	0.7544	0.2255	0.002	0.1174	0.0016	0.8777	

System: acetone + 3,7-dimethyl-6-octen-1-ol + water; phases: Liquid mixture 1, Liquid mixture 2
Fixed: Pressure, kPa = 100
Property: Mole fraction of acetone (Liquid mixture 1); method: Chromatography
Property: Mole fraction of acetone (Liquid mixture 2); method: Chromatography
Property: Mole fraction of water (Liquid mixture 2); method: Chromatography
Temperature, K	Mole fraction of water	Mole fraction of acetone	uncertainty	Mole fraction of acetone	uncertainty	Mole fraction of water	uncertainty
283.15	0.9702	0.0296	0.0014	0.0959	0.0029	0.2353	
283.15	0.95	0.0492	0.0014	0.1781	0.0039	0.2659	
283.15	0.9122	0.0869	0.0015	0.2522	0.007	0.277	
283.15	0.878	0.1207	0.0016	0.2959	0.0028	0.3247	
283.15	0.8417	0.1556	0.0018	0.3697	0.006	0.3387	
283.15	0.8058	0.1908	0.0019	0.415	0.0032	0.395	
283.15	0.7822	0.2107	0.002	0.4065	0.0032	0.4764	
298.15	0.9859	0.0137	0.0014	0.0559	0.0013	0.2353	
298.15	0.9682	0.0314	0.0014	0.1278	0.0015	0.2409	
298.15	0.9448	0.0545	0.0015	0.2129	0.0031	0.2678	
298.15	0.9267	0.0725	0.0015	0.2707	0.0027	0.2998	
298.15	0.8715	0.1277	0.0017	0.3314	0.003	0.3386	
298.15	0.8541	0.1443	0.0017	0.3942	0.0031	0.3751	
298.15	0.826	0.1706	0.0018	0.4046	0.0031	0.4429	
298.15	0.7688	0.2225	0.0021	0.3878	0.003	0.52	
313.15	0.9889	0.0109	0.0014	0.064	0.0455	0.2611	
313.15	0.9665	0.0333	0.0014	0.1413	0.0455	0.2628	
313.15	0.9488	0.051	0.0015	0.2416	0.0027	0.2949	
313.15	0.9286	0.0708	0.0015	0.2948	0.0026	0.3441	
313.15	0.8858	0.1133	0.0016	0.3567	0.0029	0.3952	
313.15	0.8249	0.1708	0.0018	0.3868	0.003	0.473	
313.15	0.7718	0.2162	0.002	0.3587	0.0028	0.5664	
