Measured thermophysical data. Thermodynamics of formation of hybrid perovskite-type methylammonium lead halides
Source: J. Chem. Thermodyn., 2018, 10.1016/j.jct.2017.09.026
Compound 1: methylammonium chloride, CH6ClN, InChI=1S/CH5N.ClH/c1-2;/h2H2,1H3;1H
Compound 2: methylammonium bromide, CH6BrN, InChI=1S/CH5N.BrH/c1-2;/h2H2,1H3;1H
Compound 3: methylammonium iodide, CH6IN, InChI=1S/CH5N.HI/c1-2;/h2H2,1H3;1H
Compound 4: lead(2+) dichloride, Cl2Pb, InChI=1S/2ClH.Pb/h2*1H;/q;;+2/p-2
Compound 5: lead(II) bromide, Br2Pb, InChI=1S/2BrH.Pb/h2*1H;/q;;+2/p-2
Compound 6: lead(2+) diiodide, I2Pb, InChI=1S/2HI.Pb/h2*1H;/q;;+2/p-2
Compound 7: methylammonium trichloroplumbate, CH6Cl3NPb, InChI=1S/CH5N.3ClH.Pb/c1-2;;;;/h2H2,1H3;3*1H;/q;;;;+2/p-2
Compound 8: methylammonium tribromoplumbate, CH6Br3NPb, InChI=1S/CH5N.3BrH.Pb/c1-2;;;;/h2H2,1H3;3*1H;/q;;;;+2/p-2
Compound 9: methylammonium triiodoplumbate, CH6I3NPb, InChI=1S/CH5N.3HI.Pb/c1-2;;;;/h2H2,1H3;3*1H;/q;;;;+2/p-2
Compound 10: dimethyl sulfoxide, C2H6OS, InChI=1S/C2H6OS/c1-4(2)3/h1-2H3, purity 99.66%

System: methylammonium trichloroplumbate; phases: Crystal
Property: Mass density, kg/m3 (Crystal); method: X-ray diffraction
Temperature, K	Pressure, kPa	Mass density, kg/m3	uncertainty
298	101.325	3126.6	9

System: methylammonium tribromoplumbate; phases: Crystal
Property: Mass density, kg/m3 (Crystal); method: X-ray diffraction
Temperature, K	Pressure, kPa	Mass density, kg/m3	uncertainty
298	101.325	3821.8	12.9

System: methylammonium triiodoplumbate; phases: Crystal
Property: Mass density, kg/m3 (Crystal); method: X-ray diffraction
Temperature, K	Pressure, kPa	Mass density, kg/m3	uncertainty
298	101.325	4106.5	14.8

System: lead(2+) dichloride + dimethyl sulfoxide; phases: Liquid
Property: Molar enthalpy of solution, kJ/mol (Liquid); method: Calvet calorimetry
Mole fraction of lead(2+) dichloride	Pressure, kPa	Temperature, K	Molar enthalpy of solution, kJ/mol	uncertainty
0	100	298	-22.62	0.5

System: methylammonium chloride + dimethyl sulfoxide; phases: Liquid
Property: Molar enthalpy of solution, kJ/mol (Liquid); method: Calvet calorimetry
Mole fraction of methylammonium chloride	Pressure, kPa	Temperature, K	Molar enthalpy of solution, kJ/mol	uncertainty
0	100	298	-3.04	0.1

System: methylammonium trichloroplumbate + dimethyl sulfoxide; phases: Liquid
Property: Molar enthalpy of solution, kJ/mol (Liquid); method: Calvet calorimetry
Mole fraction of methylammonium trichloroplumbate	Pressure, kPa	Temperature, K	Molar enthalpy of solution, kJ/mol	uncertainty
0	100	298	-21.2	0.3

System: lead(II) bromide + dimethyl sulfoxide; phases: Liquid
Property: Molar enthalpy of solution, kJ/mol (Liquid); method: Calvet calorimetry
Mole fraction of lead(II) bromide	Pressure, kPa	Temperature, K	Molar enthalpy of solution, kJ/mol	uncertainty
0	100	298	-42.08	0.51

System: methylammonium bromide + dimethyl sulfoxide; phases: Liquid
Property: Molar enthalpy of solution, kJ/mol (Liquid); method: Calvet calorimetry
Mole fraction of methylammonium bromide	Pressure, kPa	Temperature, K	Molar enthalpy of solution, kJ/mol	uncertainty
0	100	298	-13.15	0.27

System: methylammonium tribromoplumbate + dimethyl sulfoxide; phases: Liquid
Property: Molar enthalpy of solution, kJ/mol (Liquid); method: Calvet calorimetry
Mole fraction of methylammonium tribromoplumbate	Pressure, kPa	Temperature, K	Molar enthalpy of solution, kJ/mol	uncertainty
0	100	298	-48.46	1.5

System: lead(2+) diiodide + dimethyl sulfoxide; phases: Liquid
Property: Molar enthalpy of solution, kJ/mol (Liquid); method: Calvet calorimetry
Mole fraction of lead(2+) diiodide	Pressure, kPa	Temperature, K	Molar enthalpy of solution, kJ/mol	uncertainty
0	100	298	-47	1.56

System: methylammonium iodide + dimethyl sulfoxide; phases: Liquid
Property: Molar enthalpy of solution, kJ/mol (Liquid); method: Calvet calorimetry
Mole fraction of methylammonium iodide	Pressure, kPa	Temperature, K	Molar enthalpy of solution, kJ/mol	uncertainty
0	100	298	-25.53	0.42

System: methylammonium triiodoplumbate + dimethyl sulfoxide; phases: Liquid
Property: Molar enthalpy of solution, kJ/mol (Liquid); method: Calvet calorimetry
Mole fraction of methylammonium triiodoplumbate	Pressure, kPa	Temperature, K	Molar enthalpy of solution, kJ/mol	uncertainty
0	100	298	-77.02	0.99
