Measured thermophysical data. Heat capacity and entropy of monoclinic Gd2O3
Source: J. Chem. Thermodyn., 2005, 10.1016/j.jct.2005.02.014
Compound 1: gadolinium sesquioxide, Gd2O3, InChI=1S/2Gd.3O/q2*+3;3*-2, purity 99.99%

System: gadolinium sesquioxide; phases: Crystal
Fixed: Pressure, kPa = 101.325
Property: Molar heat capacity at constant pressure, J/K/mol (Crystal); method: VADIAC:UFactor:2
Temperature, K	Molar heat capacity at constant pressure, J/K/mol	uncertainty
5.34	4.24	0.1014
5.84	5.88	0.1272
6.65	6.66	0.1339
8.48	4.7	0.0981
10.16	3.95	0.081
11.17	3.51	0.073
11.58	3.33	0.07
13.24	3.19	0.065
13.72	3.18	0.064
14.69	3.17	0.063
15.56	3.2	0.062
15.84	3.18	0.062
16.98	3.47	0.064
17.06	3.5	0.064
18.14	3.76	0.066
18.46	3.8	0.066
19.29	4.28	0.07
19.86	4.28	0.068
20.63	4.51	0.07
21.24	4.73	0.071
21.97	5.08	0.073
22.65	5.27	0.073
23.31	5.65	0.076
23.91	5.87	0.076
24.66	6.36	0.079
25.22	6.67	0.081
26.02	7.26	0.082
26.08	7.21	0.082
26.79	7.55	0.082
27.33	7.65	0.081
27.99	7.92	0.081
28.5	8.29	0.082
29.64	8.93	0.083
31.19	9.927	0.116
32.73	10.96	0.125
34.3	11.95	0.125
35.9	13.02	0.133
37.53	13.85	0.133
39.19	14.85	0.141
40.87	15.9	0.141
42.55	17.06	0.15
44.25	18.21	0.15
45.96	19.33	0.158
47.7	20.45	0.166
49.45	21.55	0.166
51.21	22.67	0.175
52.99	23.75	0.175
54.78	24.86	0.183
56.58	26	0.183
58.39	27.1	0.191
60.22	28.16	0.191
62.05	29.26	0.2
63.89	30.33	0.2
65.75	31.37	0.208
67.61	32.46	0.208
69.47	33.54	0.216
71.35	34.62	0.216
73.23	35.69	0.224
75.12	36.68	0.224
77.01	37.74	0.233
78.91	38.79	0.233
80.81	39.79	0.241
82.72	40.83	0.241
83.39	41.24	0.241
84.63	41.9	0.249
85.99	42.64	0.249
86.55	42.9	0.249
88.47	43.84	0.258
88.8	44.12	0.258
90.39	44.82	0.491
91.62	45.57	0.491
92.32	45.88	0.491
93.14	46.35	0.491
93.67	46.53	0.491
94.25	46.87	0.491
94.44	46.97	0.491
94.91	47.23	0.491
96.18	47.87	0.499
96.86	48.18	0.499
97.27	48.4	0.499
98.12	48.9	0.499
98.79	49.39	0.499
100.06	50.15	0.499
100.11	50.21	0.499
100.72	50.42	0.499
102.65	51.08	0.499
102.97	51.17	0.499
104.58	51.98	0.507
105.83	52.6	0.507
106.52	53	0.507
108.46	54.02	0.507
108.7	54.13	0.507
110.4	54.87	0.507
111.58	55.27	0.507
112.35	55.75	0.515
114.3	56.56	0.515
114.46	56.66	0.515
116.25	57.42	0.515
117.35	57.9	0.515
118.2	58.29	0.515
120.15	58.66	0.515
120.24	58.72	0.515
122.11	59.91	0.524
123.15	60.56	0.524
124.07	60.93	0.524
126.02	61.79	0.524
126.04	61.82	0.524
127.98	62.72	0.524
128.94	63.08	0.524
129.95	63.54	0.524
131.83	64.33	0.532
131.91	64.31	0.532
133.87	65.17	0.532
134.73	65.5	0.532
135.84	65.98	0.532
137.64	66.69	0.532
137.81	66.76	0.532
139.77	67.58	0.532
140.55	67.86	0.532
141.74	68.33	0.54
143.47	69	0.54
143.71	69.08	0.54
145.68	69.88	0.54
146.39	70.15	0.54
147.65	70.61	0.54
149.31	71.26	0.54
149.62	71.38	0.54
151.6	72.1	0.54
152.23	72.33	0.549
153.57	72.82	0.549
155.16	73.39	0.549
155.55	73.55	0.549
157.52	74.24	0.549
158.09	74.43	0.549
159.5	74.94	0.549
161.02	75.46	0.549
161.47	75.6	0.549
163.45	76.3	0.549
163.95	76.42	0.549
165.43	76.95	0.557
166.88	77.42	0.557
167.41	77.62	0.557
169.38	78.25	0.557
169.82	78.4	0.557
171.36	78.94	0.557
172.76	79.32	0.557
173.34	79.5	0.557
175.32	80.12	0.557
175.7	80.25	0.557
177.31	80.7	0.565
178.65	81.16	0.565
179.29	81.37	0.565
181.27	81.94	0.565
181.59	82.04	0.565
183.25	82.48	0.565
184.54	82.86	0.565
185.23	83.08	0.565
187.21	83.64	0.58
187.49	83.73	0.58
189.2	84.23	0.58
190.44	84.56	0.58
191.18	84.81	0.58
193.16	85.14	0.58
193.39	85.31	0.58
195.15	85.81	0.58
196.34	86.05	0.58
197.13	86.3	0.58
199.11	86.89	0.58
199.29	86.89	0.58
201.1	87.39	0.58
202.24	87.63	0.58
203.08	87.88	0.58
205.07	88.38	0.58
205.19	88.38	0.58
207.05	88.8	0.58
208.15	89.05	0.58
209.04	89.3	0.58
211.03	89.8	0.58
211.11	89.8	0.58
213.01	90.21	0.58
214.07	90.46	0.58
215	90.71	0.58
216.99	91.13	0.58
217.03	91.13	0.58
218.97	91.54	0.58
219.98	91.79	0.58
220.96	92.04	0.58
222.94	92.46	0.58
222.95	92.46	0.58
224.93	92.87	0.58
225.89	93.04	0.58
226.92	93.29	0.58
228.85	93.7	0.58
228.91	93.62	0.58
230.9	94.12	0.58
231.81	94.2	0.58
232.89	94.45	0.58
234.77	94.87	0.58
234.87	94.87	0.58
236.86	95.28	0.58
237.72	95.45	0.58
238.17	95.62	0.58
238.8	95.53	0.58
240.35	95.95	0.58
240.69	95.95	0.58
242.83	96.36	0.58
243.65	96.53	0.58
245.3	96.78	0.58
246.61	97.03	0.58
247.77	97.28	0.58
249.58	97.53	0.58
250.25	97.61	0.58
252.54	98.11	0.58
252.72	98.11	0.58
255.2	98.19	0.58
255.52	98.28	0.58
257.67	98.78	0.58
258.49	98.86	0.58
260.15	99.19	0.58
261.46	99.44	0.58
262.63	99.61	0.58
264.43	99.86	0.58
265.1	100	0.58
267.4	100.4	0.58
267.57	100.4	0.58
270.05	100.8	0.58
270.36	100.9	0.58
272.53	101.2	0.58
273.33	101.3	0.58
275.01	101.6	0.58
276.31	101.8	0.58
277.49	102	0.58
279.28	102.3	0.58
279.96	102.3	0.58
282.25	102.7	0.58
282.44	102.6	0.58
284.92	103	0.58
285.23	103.1	0.58
287.4	103.4	0.58
288.2	103.5	0.58
289.88	103.8	0.58
291.17	104	0.58
292.35	104.1	0.58
294.15	104.4	0.58
294.83	104.5	0.58
297.13	105	0.58
297.32	105	0.58
299.8	105.2	0.58
300.11	105.2	0.58
302.28	105.4	0.58
303.09	105.6	0.58
304.77	105.6	0.58
304.91	105.8	0.58
306.07	106	0.58
307.26	106	0.58
307.89	106.2	0.58
309.06	106.4	0.58
309.74	106.4	0.58
310.86	106.6	0.58
312.04	106.7	0.58
312.23	106.7	0.58
313.84	106.8	0.58
314.72	106.9	0.58
315.03	107	0.58
316.82	107.2	0.58
317.21	107.2	0.58
318.02	107.3	0.58
319.7	107.4	0.58
319.8	107.6	0.58
321.01	107.7	0.58
322.19	107.8	0.58
322.77	108	0.58
324	108.1	0.58
324.68	108.2	0.58
325.75	108.3	0.58
326.99	108.4	0.58
327.18	108.3	0.58
329.67	108.6	0.58
331.72	108.9	0.58
334.69	109.2	0.58
337.67	109.5	0.58
340.65	109.8	0.58
343.63	110	0.58
346.62	110.3	0.58
349.6	110.6	0.58
352.59	110.8	0.58
355.58	111.1	0.67
358.57	111.4	0.67
361.56	111.6	0.67
364.55	111.9	0.67
367.55	112	0.67
370.55	112.2	0.67
373.55	112.5	0.67
376.55	112.7	0.67
379.55	113	0.67
382.56	113.2	0.67
385.56	113.4	0.67
388.57	113.6	0.67
391.59	113.8	0.67
394.6	113.9	0.67
397.62	114	0.67
400.65	114.2	0.67

System: gadolinium sesquioxide; phases: Crystal
Fixed: Pressure, kPa = 101.325
Property: Molar heat capacity at constant pressure, J/K/mol (Crystal); method: VADIAC:UFactor:2
Temperature, K	Molar heat capacity at constant pressure, J/K/mol	uncertainty
20	4.32	0.069
25	6.55	0.08
30	9.163	0.116
35	12.42	0.133
40	15.35	0.141
45	18.7	0.158
50	21.9	0.166
60	28.03	0.191
70	33.85	0.216
80	39.37	0.241
90	44.63	0.491
100	50.12	0.499
120	58.58	0.515
140	67.66	0.532
160	75.12	0.549
180	81.58	0.565
200	87.05	0.58
220	91.79	0.58
240	95.87	0.58
260	99.11	0.58
280	102.3	0.58
298.15	105.1	0.58
300	105.2	0.58
320	107.6	0.58
340	109.7	0.58
360	111.5	0.67
380	113	0.67

System: gadolinium sesquioxide; phases: Crystal
Fixed: Pressure, kPa = 101.325
Property: Molar enthalpy, kJ/mol (Crystal); method: VADIAC:UFactor:2
Temperature, K	Molar enthalpy, kJ/mol	uncertainty
20	0.03971	0.000848
25	0.06574	0.0011
30	0.10669	0.00284
35	0.16069	0.00345
40	0.23009	0.00413
45	0.31519	0.00487
50	0.41679	0.00569
60	0.66669	0.00749
70	0.97587	0.00948
80	1.0449	0.333
90	1.7629	0.0396
100	2.2358	0.0445
120	3.3279	0.0547
140	4.5969	0.0652
160	6.0258	0.0761
180	7.5939	0.08722
200	9.2814	0.0989
220	11.071	0.1098
240	12.948	0.1222
260	14.9	0.1339
280	16.915	0.1455
298.15	18.797	0.1571
300	18.992	0.158
320	21.119	0.1704
340	23.283	0.1829
360	25.486	0.1954
380	27.72	0.2079

System: gadolinium sesquioxide; phases: Crystal
Fixed: Pressure, kPa = 101.325
Property: Molar entropy, J/K/mol (Crystal); method: VADIAC:UFactor:2
Temperature, K	Molar entropy, J/K/mol	uncertainty
20	36.89	0.649
25	38.05	0.54
30	39.47	0.358
35	41.13	0.366
40	42.98	0.374
45	44.98	0.391
50	47.12	0.399
60	51.66	0.432
70	56.42	0.457
80	61.3	0.491
90	66.26	0.798
100	71.24	0.815
120	81.16	0.8398
140	90.96	0.915
160	100.4	0.915
180	109.7	0.915
200	118.6	0.998
220	127.1	0.998
240	135.3	0.998
260	143.1	0.998
280	150.6	1.081
298.15	157.1	1.081
300	157.6	1.081
320	164.5	1.081
340	171.2	1.081
360	177.4	1.164
380	183.6	1.164
