Measured thermophysical data. Vapor Pressures and Enthalpies of Vaporization of a Series of the Linear Aliphatic Nitriles.
Source: J. Chem. Thermodyn., 2005, 10.1016/j.jct.2004.08.004
Compound 1: heptanenitrile, C7H13N, InChI=1S/C7H13N/c1-2-3-4-5-6-7-8/h2-6H2,1H3
Compound 2: octanenitrile, C8H15N, InChI=1S/C8H15N/c1-2-3-4-5-6-7-8-9/h2-7H2,1H3
Compound 3: nonanenitrile, C9H17N, InChI=1S/C9H17N/c1-2-3-4-5-6-7-8-9-10/h2-8H2,1H3
Compound 4: 1-decanenitrile, C10H19N, InChI=1S/C10H19N/c1-2-3-4-5-6-7-8-9-10-11/h2-9H2,1H3
Compound 5: 1-decylcyanide, C11H21N, InChI=1S/C11H21N/c1-2-3-4-5-6-7-8-9-10-11-12/h2-10H2,1H3
Compound 6: n-dodecanenitrile, C12H23N, InChI=1S/C12H23N/c1-2-3-4-5-6-7-8-9-10-11-12-13/h2-11H2,1H3
Compound 7: dodecanecarbonitrile, C13H25N, InChI=1S/C13H25N/c1-2-3-4-5-6-7-8-9-10-11-12-13-14/h2-12H2,1H3
Compound 8: tetradecanenitrile, C14H27N, InChI=1S/C14H27N/c1-2-3-4-5-6-7-8-9-10-11-12-13-14-15/h2-13H2,1H3
Compound 9: 1-tetradecyl cyanide, C15H29N, InChI=1S/C15H29N/c1-2-3-4-5-6-7-8-9-10-11-12-13-14-15-16/h2-14H2,1H3
Compound 10: heptadecanenitrile, C17H33N, InChI=1S/C17H33N/c1-2-3-4-5-6-7-8-9-10-11-12-13-14-15-16-17-18/h2-16H2,1H3
Compound 11: hexadecanenitrile, C16H31N, InChI=1S/C16H31N/c1-2-3-4-5-6-7-8-9-10-11-12-13-14-15-16-17/h2-15H2,1H3

System: heptanenitrile; phases: Liquid, Gas
Property: Vapor or sublimation pressure, kPa (Liquid); method: Transpiration method
Temperature, K	Vapor or sublimation pressure, kPa	uncertainty
280.2	0.02893	0.00145
283.2	0.03746	0.00187
286.2	0.04773	0.00239
289.2	0.05977	0.00299
292.2	0.07501	0.00375
295.2	0.09393	0.0047
298.2	0.1138	0.0057
301.2	0.1417	0.0071
304.2	0.1723	0.0086
307.2	0.2092	0.0105

System: octanenitrile; phases: Liquid, Gas
Property: Vapor or sublimation pressure, kPa (Liquid); method: Transpiration method
Temperature, K	Vapor or sublimation pressure, kPa	uncertainty
283.2	0.01192	0.0006
286.2	0.0152	0.00076
289.2	0.01964	0.00098
292.2	0.02498	0.00125
295.2	0.03092	0.00155
298.2	0.03898	0.00195
301.2	0.04949	0.00248
301.2	0.04849	0.00243
304.2	0.06148	0.00308
307.1	0.07561	0.00378
310.2	0.09243	0.00462
310.2	0.09473	0.00474

System: nonanenitrile; phases: Liquid, Gas
Property: Vapor or sublimation pressure, kPa (Liquid); method: Transpiration method
Temperature, K	Vapor or sublimation pressure, kPa	uncertainty
285.2	0.0039	0.0002
286.2	0.00449	0.00022
288.2	0.00519	0.00026
290.2	0.0064	0.00032
291.7	0.00714	0.00036
293.2	0.00797	0.0004
295.2	0.00992	0.0005
296.2	0.01052	0.00053
298.2	0.0124	0.00062
299.2	0.0135	0.00068
301.2	0.01585	0.00079
302.2	0.01722	0.00086
304.2	0.0198	0.00099
305.2	0.02231	0.00112
307.2	0.02482	0.00124
308.2	0.02855	0.00143
310.2	0.03154	0.00158
311.2	0.03619	0.00181
313.2	0.04037	0.00202
316.2	0.05039	0.00252
316.2	0.05346	0.00267
319.2	0.06245	0.00312
320.2	0.06797	0.0034
323.2	0.08366	0.00419

System: 1-decanenitrile; phases: Liquid, Gas
Property: Vapor or sublimation pressure, kPa (Liquid); method: Transpiration method
Temperature, K	Vapor or sublimation pressure, kPa	uncertainty
295.2	0.00359	0.00018
298.3	0.00484	0.00024
302.2	0.00692	0.00035
305.6	0.00928	0.00046
308.7	0.01188	0.00059
311.7	0.01511	0.00076
313.1	0.01667	0.00083
315.2	0.01966	0.00098
316.2	0.02172	0.00109
319.2	0.02728	0.00136
322.2	0.03317	0.00166
326.3	0.04574	0.00229

System: 1-decylcyanide; phases: Liquid, Gas
Property: Vapor or sublimation pressure, kPa (Liquid); method: Transpiration method
Temperature, K	Vapor or sublimation pressure, kPa	uncertainty
290.3	0.00062	3e-05
298.2	0.00131	7e-05
305.2	0.00255	0.00013
307.2	0.00308	0.00015
309.2	0.00374	0.00019
310.2	0.00402	0.0002
313.2	0.0051	0.00026
314.2	0.00577	0.00029
319.1	0.00834	0.00043
319.2	0.00877	0.00045
322.1	0.01069	0.00055
322.2	0.0113	0.00058
325.2	0.0144	0.00073
325.3	0.01379	0.0007
327.2	0.01646	0.00082
328.2	0.01792	0.0009
331.3	0.02254	0.00113
332.2	0.02447	0.00122
334.2	0.02763	0.00138
337.2	0.03454	0.00173
337.3	0.03505	0.00176
340.3	0.04264	0.00213

System: n-dodecanenitrile; phases: Liquid, Gas
Property: Vapor or sublimation pressure, kPa (Liquid); method: Transpiration method
Temperature, K	Vapor or sublimation pressure, kPa	uncertainty
298.2	0.00052	3e-05
301.2	0.00071	4e-05
306.1	0.00111	6e-05
312.2	0.00186	9e-05
315.1	0.00239	0.00012
318.2	0.00323	0.00016
319.2	0.0036	0.00018
322.2	0.00462	0.00023
325.2	0.0059	0.0003
328.2	0.00742	0.00037
331.2	0.00936	0.00047
334.2	0.0117	0.00059
337.2	0.01464	0.00073
340.2	0.01821	0.00091
343.2	0.02303	0.00115
346.2	0.02783	0.00139
349.2	0.03419	0.00171
352.3	0.04237	0.00212
355.3	0.05317	0.00266
358.2	0.06363	0.00318
361.2	0.07929	0.00397
364.2	0.09431	0.00472
367.1	0.11475	0.00574

System: dodecanecarbonitrile; phases: Liquid, Gas
Property: Vapor or sublimation pressure, kPa (Liquid); method: Transpiration method
Temperature, K	Vapor or sublimation pressure, kPa	uncertainty
301.2	0.00024	1e-05
313.3	0.00075	4e-05
318.1	0.0012	6e-05
324.1	0.00205	0.0001
327.2	0.0028	0.00014
330.2	0.00364	0.00018
333.1	0.00466	0.00023
336.2	0.00594	0.0003
339.2	0.00754	0.00038
342.1	0.0095	0.00048
345.2	0.01168	0.00058
348.2	0.01466	0.00073
351.2	0.01796	0.0009
354.2	0.02244	0.00112
357.2	0.02764	0.00138
360.2	0.03471	0.00174
363.2	0.04232	0.00212

System: tetradecanenitrile; phases: Liquid, Gas
Property: Vapor or sublimation pressure, kPa (Liquid); method: Transpiration method
Temperature, K	Vapor or sublimation pressure, kPa	uncertainty
327.2	0.00109	5e-05
330.2	0.00139	7e-05
333.2	0.00183	9e-05
336.2	0.00236	0.00012
339.2	0.00306	0.00015
342.1	0.00383	0.00019
345.2	0.00491	0.00025
348.1	0.00628	0.00031
351.2	0.00777	0.00039
354.2	0.00982	0.00049
357.2	0.01221	0.00061
360.2	0.01474	0.00074
363.2	0.01847	0.00092
366.2	0.02305	0.00115
369.2	0.02799	0.0014

System: 1-tetradecyl cyanide; phases: Liquid, Gas
Property: Vapor or sublimation pressure, kPa (Liquid); method: Transpiration method
Temperature, K	Vapor or sublimation pressure, kPa	uncertainty
336.2	0.00105	5e-05
339.2	0.00137	7e-05
342.1	0.00176	9e-05
345.2	0.00219	0.00011
348.1	0.00287	0.00014
351.2	0.00356	0.00018
354.2	0.00459	0.00023
357.2	0.00567	0.00028
360.2	0.00704	0.00035
363.2	0.00901	0.00045
366.2	0.01122	0.00056
369.1	0.0138	0.00069
372.1	0.017	0.00085

System: heptadecanenitrile; phases: Liquid, Gas
Property: Vapor or sublimation pressure, kPa (Liquid); method: Transpiration method
Temperature, K	Vapor or sublimation pressure, kPa	uncertainty
348.2	0.00055	3e-05
351.2	0.00072	4e-05
354.2	0.00093	5e-05
357.2	0.00117	6e-05
360.2	0.00156	8e-05
363.2	0.00201	0.0001
366.2	0.00252	0.00013
369.1	0.00316	0.00016
372.1	0.00402	0.0002
376.2	0.00532	0.00027
379.2	0.00678	0.00034
382.2	0.00824	0.00041
385.2	0.01022	0.00051

System: hexadecanenitrile; phases: Liquid, Gas
Property: Vapor or sublimation pressure, kPa (Liquid); method: Transpiration method
Temperature, K	Vapor or sublimation pressure, kPa	uncertainty
345.1	0.00096	5e-05
348.1	0.00128	6e-05
351.2	0.00165	8e-05
354.2	0.00212	0.00011
357.2	0.00262	0.00013
360.2	0.00342	0.00017
363.2	0.00434	0.00022
366.2	0.00532	0.00027
369.2	0.00658	0.00033
372.1	0.00826	0.00041
376.2	0.0112	0.00056
379.2	0.0136	0.00068
382.2	0.01642	0.00082
