Measured thermophysical data. Ternary phase diagram and the formation mechanism of two distinct solid solutions of amino acid systems: L-Valine/L-norvaline and L-valine/L-alanine
Source: J. Chem. Thermodyn., 2018, 10.1016/j.jct.2017.12.010
Compound 1: L-valine, C5H11NO2, InChI=1S/C5H11NO2/c1-3(2)4(6)5(7)8/h3-4H,6H2,1-2H3,(H,7,8)/t4-/m0/s1, purity 99.5%
Compound 2: (S)-2-aminopentanoic acid, C5H11NO2, InChI=1S/C5H11NO2/c1-2-3-4(6)5(7)8/h4H,2-3,6H2,1H3,(H,7,8)/t4-/m0/s1, purity 99.5%
Compound 3: (S)-2-aminopropanoic acid, C3H7NO2, InChI=1S/C3H7NO2/c1-2(4)3(5)6/h2H,4H2,1H3,(H,5,6)/t2-/m0/s1, purity 99.5%
Compound 4: water, H2O, InChI=1S/H2O/h1H2, purity 99.5%

System: L-valine + (S)-2-aminopentanoic acid + water; phases: Liquid, Crystal
Fixed: Temperature, K = 293.15
Fixed: Pressure, kPa = 100
Property: Mass fraction of (S)-2-aminopentanoic acid (Liquid); method: Chromatography
Property: Mass fraction of (S)-2-aminopentanoic acid (Crystal); method: Chromatography
Property: Mass fraction of L-valine (Crystal); method: Chromatography
Mass fraction of L-valine	Mass fraction of (S)-2-aminopentanoic acid	uncertainty	Mass fraction of (S)-2-aminopentanoic acid	uncertainty	Mass fraction of L-valine	uncertainty
0	0.08609	0.00517	1		0	
0.01601	0.0724	0.00435	0.931	0.005	0.069	
0.02926	0.06188	0.00372	0.815	0.011	0.185	
0.03791	0.05486	0.00329	0.766	0.014	0.234	
0.04465	0.04964	0.00298	0.636	0.022	0.364	
0.05099	0.04462	0.00268	0.371	0.022	0.629	
0.05444	0.04175	0.00251	0.276	0.017	0.724	
0.05703	0.03693	0.00222	0.116	0.007	0.884	
0.06084	0.02701	0.00162	0.058	0.004	0.942	
0.06106	0		0		1	

System: L-valine + (S)-2-aminopropanoic acid + water; phases: Liquid, Crystal
Fixed: Temperature, K = 293.15
Fixed: Pressure, kPa = 100
Property: Mass fraction of (S)-2-aminopropanoic acid (Liquid); method: Chromatography
Mass fraction of L-valine	Mass fraction of (S)-2-aminopropanoic acid	uncertainty
0.03378	0.1197	0.0072
0.01762	0.1265	0.0076
0	0.1292	0.0078

System: L-valine + (S)-2-aminopropanoic acid + water; phases: Liquid, Crystal
Fixed: Temperature, K = 293.15
Fixed: Pressure, kPa = 100
Property: Mass fraction of L-valine (Liquid); method: Chromatography
Property: Mass fraction of L-valine (Crystal); method: Chromatography
Property: Mass fraction of (S)-2-aminopropanoic acid (Crystal); method: Chromatography
Mass fraction of (S)-2-aminopropanoic acid	Mass fraction of L-valine	uncertainty	Mass fraction of L-valine	uncertainty	Mass fraction of (S)-2-aminopropanoic acid	uncertainty
0	0.06106	0.00367	1		0	
0.0222	0.05851	0.00351	0.99	0.002	0.01	
0.03872	0.05653	0.00339	0.969	0.003	0.031	
0.05739	0.05562	0.00334	0.949	0.004	0.051	
0.07135	0.05249	0.00315	0.927	0.005	0.073	
0.08804	0.04987	0.00299	0.86	0.009	0.14	
0.1026	0.04781	0.00287	0.808	0.012	0.192	
0.1137	0.04423	0.00266	0.739	0.016	0.261	

System: L-valine + water; phases: Liquid, Crystal
Fixed: Temperature, K = 293.15
Fixed: Pressure, kPa = 100
Property: Mass fraction of L-valine (Liquid); method: gravimetric method
Mass fraction of L-valine	uncertainty
0.06106	0.00367
0.06218	0.00373
0.06222	0.00374

System: L-valine + water; phases: Liquid, Crystal
Fixed: Temperature, K = 293.15
Fixed: Pressure, kPa = 100
Property: Mass fraction of L-valine (Liquid); method: Chromatography
Mass fraction of L-valine	uncertainty
0.06186	0.00248
0.06169	0.00247

System: (S)-2-aminopentanoic acid + water; phases: Liquid, Crystal
Property: Mass fraction of (S)-2-aminopentanoic acid (Liquid); method: gravimetric method
Temperature, K	Pressure, kPa	Mass fraction of (S)-2-aminopentanoic acid	uncertainty
293.15	100	0.08609	0.00517

System: (S)-2-aminopropanoic acid + water; phases: Liquid, Crystal
Property: Mass fraction of (S)-2-aminopropanoic acid (Liquid); method: gravimetric method
Temperature, K	Pressure, kPa	Mass fraction of (S)-2-aminopropanoic acid	uncertainty
293.15	100	0.1292	0.0078
