Measured thermophysical data. Activity coefficients at infinite dilution of organic solutes in the ionic liquid 1-butyl-3-methylimidazolium hexafluoroantimonate using gas liquid chromatography at T = (313.15, 323.15, and 333.15) K
Source: J. Chem. Thermodyn., 2011, 10.1016/j.jct.2010.12.019
Compound 1: pentane, C5H12, InChI=1S/C5H12/c1-3-5-4-2/h3-5H2,1-2H3, purity 98%
Compound 2: hexane, C6H14, InChI=1S/C6H14/c1-3-5-6-4-2/h3-6H2,1-2H3, purity 98%
Compound 3: heptane, C7H16, InChI=1S/C7H16/c1-3-5-7-6-4-2/h3-7H2,1-2H3, purity 98%
Compound 4: octane, C8H18, InChI=1S/C8H18/c1-3-5-7-8-6-4-2/h3-8H2,1-2H3, purity 98%
Compound 5: nonane, C9H20, InChI=1S/C9H20/c1-3-5-7-9-8-6-4-2/h3-9H2,1-2H3, purity 98%
Compound 6: 1-pentene, C5H10, InChI=1S/C5H10/c1-3-5-4-2/h3H,1,4-5H2,2H3, purity 98%
Compound 7: hex-1-ene, C6H12, InChI=1S/C6H12/c1-3-5-6-4-2/h3H,1,4-6H2,2H3, purity 98%
Compound 8: 1-heptene, C7H14, InChI=1S/C7H14/c1-3-5-7-6-4-2/h3H,1,4-7H2,2H3, purity 98%
Compound 9: oct-1-ene, C8H16, InChI=1S/C8H16/c1-3-5-7-8-6-4-2/h3H,1,4-8H2,2H3, purity 98%
Compound 10: 1-nonene, C9H18, InChI=1S/C9H18/c1-3-5-7-9-8-6-4-2/h3H,1,4-9H2,2H3, purity 98%
Compound 11: 1-pentyne, C5H8, InChI=1S/C5H8/c1-3-5-4-2/h1H,4-5H2,2H3, purity 98%
Compound 12: 1-hexyne, C6H10, InChI=1S/C6H10/c1-3-5-6-4-2/h1H,4-6H2,2H3, purity 98%
Compound 13: 1-heptyne, C7H12, InChI=1S/C7H12/c1-3-5-7-6-4-2/h1H,4-7H2,2H3, purity 98%
Compound 14: 1-octyne, C8H14, InChI=1S/C8H14/c1-3-5-7-8-6-4-2/h1H,4-8H2,2H3, purity 98%
Compound 15: 1-nonyne, C9H16, InChI=1S/C9H16/c1-3-5-7-9-8-6-4-2/h1H,4-9H2,2H3, purity 98%
Compound 16: cyclopentane, C5H10, InChI=1S/C5H10/c1-2-4-5-3-1/h1-5H2, purity 98%
Compound 17: cyclohexane, C6H12, InChI=1S/C6H12/c1-2-4-6-5-3-1/h1-6H2, purity 98%
Compound 18: cycloheptane, C7H14, InChI=1S/C7H14/c1-2-4-6-7-5-3-1/h1-7H2, purity 98%
Compound 19: cyclooctane, C8H16, InChI=1S/C8H16/c1-2-4-6-8-7-5-3-1/h1-8H2, purity 98%
Compound 20: methanol, CH4O, InChI=1S/CH4O/c1-2/h2H,1H3, purity 98%
Compound 21: ethanol, C2H6O, InChI=1S/C2H6O/c1-2-3/h3H,2H2,1H3, purity 98%
Compound 22: propan-1-ol, C3H8O, InChI=1S/C3H8O/c1-2-3-4/h4H,2-3H2,1H3, purity 98%
Compound 23: benzene, C6H6, InChI=1S/C6H6/c1-2-4-6-5-3-1/h1-6H, purity 98%
Compound 24: toluene, C7H8, InChI=1S/C7H8/c1-7-5-3-2-4-6-7/h2-6H,1H3, purity 98%
Compound 25: ethylbenzene, C8H10, InChI=1S/C8H10/c1-2-8-6-4-3-5-7-8/h3-7H,2H2,1H3, purity 98%
Compound 26: acetone, C3H6O, InChI=1S/C3H6O/c1-3(2)4/h1-2H3, purity 98%
Compound 27: butanone, C4H8O, InChI=1S/C4H8O/c1-3-4(2)5/h3H2,1-2H3, purity 98%
Compound 28: 1-butyl-3-methylimidazolium hexafluoroantimonate, C8H15F6N2Sb, InChI=1S/C8H15N2.6FH.Sb/c1-3-4-5-10-7-6-9(2)8-10;;;;;;;/h6-8H,3-5H2,1-2H3;6*1H;/q+1;;;;;;;+5/p-6, purity 98%

System: 1-butyl-3-methylimidazolium hexafluoroantimonate; phases: Liquid
Property: Mass density, kg/m3 (Liquid); method: Pycnometric method
Temperature, K	Pressure, kPa	Mass density, kg/m3	uncertainty
293.15	101.325	1694.3	3.8

System: pentane + 1-butyl-3-methylimidazolium hexafluoroantimonate; phases: Liquid, Gas
Fixed: Mole fraction of pentane = 0
Property: Activity coefficient of pentane (Liquid); method: Chromatography
Temperature, K	Activity coefficient of pentane	uncertainty
313.15	19.6	1.7
313.15	21.5	1.9
323.15	17.6	1.5
323.15	18.27	1.58
333.15	17.02	1.47
333.15	18.1	1.6

System: hexane + 1-butyl-3-methylimidazolium hexafluoroantimonate; phases: Liquid, Gas
Fixed: Mole fraction of hexane = 0
Property: Activity coefficient of hexane (Liquid); method: Chromatography
Temperature, K	Activity coefficient of hexane	uncertainty
313.15	28.6	2.5
313.15	27.9	2.4
323.15	26.4	2.3
323.15	28.23	2.44
333.15	26	2.2
333.15	26.6	2.3

System: heptane + 1-butyl-3-methylimidazolium hexafluoroantimonate; phases: Liquid, Gas
Fixed: Mole fraction of heptane = 0
Property: Activity coefficient of heptane (Liquid); method: Chromatography
Temperature, K	Activity coefficient of heptane	uncertainty
313.15	37.1	3.2
313.15	38.7	3.3
323.15	34.2	3
323.15	35.8	3.1
333.15	31.4	2.7
333.15	34.4	3

System: octane + 1-butyl-3-methylimidazolium hexafluoroantimonate; phases: Liquid, Gas
Fixed: Mole fraction of octane = 0
Property: Activity coefficient of octane (Liquid); method: Chromatography
Temperature, K	Activity coefficient of octane	uncertainty
313.15	40.4	3.5
313.15	44.6	3.9
323.15	39.5	3.4
323.15	42.7	3.7
333.15	39.2	3.4
333.15	42.7	3.7

System: nonane + 1-butyl-3-methylimidazolium hexafluoroantimonate; phases: Liquid, Gas
Fixed: Mole fraction of nonane = 0
Property: Activity coefficient of nonane (Liquid); method: Chromatography
Temperature, K	Activity coefficient of nonane	uncertainty
313.15	47.7	4.1
313.15	48.8	4.2
323.15	44.9	3.9
323.15	49.1	4.2
333.15	44.1	3.8
333.15	47.3	4.1

System: 1-pentene + 1-butyl-3-methylimidazolium hexafluoroantimonate; phases: Liquid, Gas
Fixed: Mole fraction of 1-pentene = 0
Property: Activity coefficient of 1-pentene (Liquid); method: Chromatography
Temperature, K	Activity coefficient of 1-pentene	uncertainty
313.15	10.1	0.9
313.15	10.5	0.9
323.15	10.2	0.9
323.15	10.2	0.9
333.15	9.94	0.86
333.15	10.4	0.9

System: hex-1-ene + 1-butyl-3-methylimidazolium hexafluoroantimonate; phases: Liquid, Gas
Fixed: Mole fraction of hex-1-ene = 0
Property: Activity coefficient of hex-1-ene (Liquid); method: Chromatography
Temperature, K	Activity coefficient of hex-1-ene	uncertainty
313.15	14	1.2
313.15	13.1	1.1
323.15	13	1.1
323.15	14.1	1.2
333.15	13.4	1.2
333.15	13.8	1.2

System: 1-heptene + 1-butyl-3-methylimidazolium hexafluoroantimonate; phases: Liquid, Gas
Fixed: Mole fraction of 1-heptene = 0
Property: Activity coefficient of 1-heptene (Liquid); method: Chromatography
Temperature, K	Activity coefficient of 1-heptene	uncertainty
313.15	19.3	1.7
313.15	21.1	1.8
323.15	17.8	1.5
323.15	19.7	1.7
333.15	15.9	1.4
333.15	16.6	1.4

System: oct-1-ene + 1-butyl-3-methylimidazolium hexafluoroantimonate; phases: Liquid, Gas
Fixed: Mole fraction of oct-1-ene = 0
Property: Activity coefficient of oct-1-ene (Liquid); method: Chromatography
Temperature, K	Activity coefficient of oct-1-ene	uncertainty
313.15	25.7	2.2
313.15	25.7	2.2
323.15	24.6	2.1
323.15	25.7	2.2
333.15	24.2	2.1
333.15	24.9	2.2

System: 1-nonene + 1-butyl-3-methylimidazolium hexafluoroantimonate; phases: Liquid, Gas
Fixed: Mole fraction of 1-nonene = 0
Property: Activity coefficient of 1-nonene (Liquid); method: Chromatography
Temperature, K	Activity coefficient of 1-nonene	uncertainty
313.15	32.4	2.8
313.15	32.6	2.8
323.15	30.8	2.7
323.15	33.4	2.9
333.15	30.8	2.7
333.15	32.62	2.82

System: 1-pentyne + 1-butyl-3-methylimidazolium hexafluoroantimonate; phases: Liquid, Gas
Fixed: Mole fraction of 1-pentyne = 0
Property: Activity coefficient of 1-pentyne (Liquid); method: Chromatography
Temperature, K	Activity coefficient of 1-pentyne	uncertainty
313.15	2.8	0.2
313.15	2.88	0.25
323.15	2.89	0.25
323.15	2.9	0.25
333.15	2.93	0.25
333.15	3.03	0.26

System: 1-hexyne + 1-butyl-3-methylimidazolium hexafluoroantimonate; phases: Liquid, Gas
Fixed: Mole fraction of 1-hexyne = 0
Property: Activity coefficient of 1-hexyne (Liquid); method: Chromatography
Temperature, K	Activity coefficient of 1-hexyne	uncertainty
313.15	4.26	0.37
313.15	4.05	0.35
323.15	4.11	0.35
323.15	4.23	0.36
333.15	4.1	0.35
333.15	4.32	0.37

System: 1-heptyne + 1-butyl-3-methylimidazolium hexafluoroantimonate; phases: Liquid, Gas
Fixed: Mole fraction of 1-heptyne = 0
Property: Activity coefficient of 1-heptyne (Liquid); method: Chromatography
Temperature, K	Activity coefficient of 1-heptyne	uncertainty
313.15	5.74	0.5
313.15	6.11	0.53
323.15	5.82	0.5
323.15	6.08	0.52
333.15	5.74	0.5
333.15	6.23	0.54

System: 1-octyne + 1-butyl-3-methylimidazolium hexafluoroantimonate; phases: Liquid, Gas
Fixed: Mole fraction of 1-octyne = 0
Property: Activity coefficient of 1-octyne (Liquid); method: Chromatography
Temperature, K	Activity coefficient of 1-octyne	uncertainty
313.15	8.68	0.75
313.15	9.4	0.81
323.15	8.82	0.76
323.15	9.08	0.78
333.15	8.56	0.74
333.15	8.99	0.78

System: 1-nonyne + 1-butyl-3-methylimidazolium hexafluoroantimonate; phases: Liquid, Gas
Fixed: Mole fraction of 1-nonyne = 0
Property: Activity coefficient of 1-nonyne (Liquid); method: Chromatography
Temperature, K	Activity coefficient of 1-nonyne	uncertainty
313.15	11.4	1
313.15	11.6	1
323.15	10.9	0.9
323.15	11.8	1
333.15	10.9	0.9
333.15	11.6	1

System: cyclopentane + 1-butyl-3-methylimidazolium hexafluoroantimonate; phases: Liquid, Gas
Fixed: Mole fraction of cyclopentane = 0
Property: Activity coefficient of cyclopentane (Liquid); method: Chromatography
Temperature, K	Activity coefficient of cyclopentane	uncertainty
313.15	11.4	1
313.15	11.9	1
323.15	10.6	0.9
323.15	10.9	0.9
333.15	10.2	0.9
333.15	10.7	0.9

System: cyclohexane + 1-butyl-3-methylimidazolium hexafluoroantimonate; phases: Liquid, Gas
Fixed: Mole fraction of cyclohexane = 0
Property: Activity coefficient of cyclohexane (Liquid); method: Chromatography
Temperature, K	Activity coefficient of cyclohexane	uncertainty
313.15	16.4	1.4
313.15	15.4	1.3
323.15	11	1
323.15	18.6	1.6
333.15	14.1	1.2
333.15	14.6	1.3

System: cycloheptane + 1-butyl-3-methylimidazolium hexafluoroantimonate; phases: Liquid, Gas
Fixed: Mole fraction of cycloheptane = 0
Property: Activity coefficient of cycloheptane (Liquid); method: Chromatography
Temperature, K	Activity coefficient of cycloheptane	uncertainty
313.15	20	1.7
313.15	18.7	1.6
323.15	15.7	1.4
323.15	21.1	1.8
333.15	17.3	1.5
333.15	18.2	1.6

System: cyclooctane + 1-butyl-3-methylimidazolium hexafluoroantimonate; phases: Liquid, Gas
Fixed: Mole fraction of cyclooctane = 0
Property: Activity coefficient of cyclooctane (Liquid); method: Chromatography
Temperature, K	Activity coefficient of cyclooctane	uncertainty
313.15	22.9	2
313.15	23.4	2
323.15	17.2	1.5
323.15	27.1	2.3
333.15	20.4	1.8
333.15	21.5	1.9

System: methanol + 1-butyl-3-methylimidazolium hexafluoroantimonate; phases: Liquid, Gas
Fixed: Mole fraction of methanol = 0
Property: Activity coefficient of methanol (Liquid); method: Chromatography
Temperature, K	Activity coefficient of methanol	uncertainty
313.15	1.7	0.14
313.15	1.88	0.16
323.15	1.64	0.14
323.15	1.71	0.15
333.15	1.57	0.13
333.15	1.57	0.13

System: ethanol + 1-butyl-3-methylimidazolium hexafluoroantimonate; phases: Liquid, Gas
Fixed: Mole fraction of ethanol = 0
Property: Activity coefficient of ethanol (Liquid); method: Chromatography
Temperature, K	Activity coefficient of ethanol	uncertainty
313.15	2.33	0.2
313.15	2.46	0.21
323.15	2.14	0.18
323.15	2.3	0.2
333.15	2.01	0.17
333.15	2.07	0.18

System: propan-1-ol + 1-butyl-3-methylimidazolium hexafluoroantimonate; phases: Liquid, Gas
Fixed: Mole fraction of propan-1-ol = 0
Property: Activity coefficient of propan-1-ol (Liquid); method: Chromatography
Temperature, K	Activity coefficient of propan-1-ol	uncertainty
313.15	3.13	0.27
313.15	3.22	0.28
323.15	2.82	0.24
323.15	2.96	0.26
333.15	2.51	0.22
333.15	2.75	0.24

System: benzene + 1-butyl-3-methylimidazolium hexafluoroantimonate; phases: Liquid, Gas
Fixed: Mole fraction of benzene = 0
Property: Activity coefficient of benzene (Liquid); method: Chromatography
Temperature, K	Activity coefficient of benzene	uncertainty
313.15	1.23	0.1
313.15	1.31	0.11
323.15	1.28	0.11
323.15	1.37	0.12
333.15	1.31	0.11
333.15	1.37	0.12

System: toluene + 1-butyl-3-methylimidazolium hexafluoroantimonate; phases: Liquid, Gas
Fixed: Mole fraction of toluene = 0
Property: Activity coefficient of toluene (Liquid); method: Chromatography
Temperature, K	Activity coefficient of toluene	uncertainty
313.15	1.87	0.16
313.15	1.784	0.152
323.15	1.88	0.16
323.15	1.94	0.17
333.15	1.92	0.16
333.15	1.97	0.17

System: ethylbenzene + 1-butyl-3-methylimidazolium hexafluoroantimonate; phases: Liquid, Gas
Fixed: Mole fraction of ethylbenzene = 0
Property: Activity coefficient of ethylbenzene (Liquid); method: Chromatography
Temperature, K	Activity coefficient of ethylbenzene	uncertainty
313.15	3.11	0.27
313.15	2.92	0.25
323.15	3.09	0.27
323.15	3.23	0.28
333.15	3.18	0.27
333.15	3.45	0.3

System: acetone + 1-butyl-3-methylimidazolium hexafluoroantimonate; phases: Liquid, Gas
Fixed: Mole fraction of acetone = 0
Property: Activity coefficient of acetone (Liquid); method: Chromatography
Temperature, K	Activity coefficient of acetone	uncertainty
313.15	0.403	0.04
313.15	0.437	0.042
323.15	0.445	0.043
323.15	0.466	0.044
333.15	0.463	0.044
333.15	0.487	0.045

System: butanone + 1-butyl-3-methylimidazolium hexafluoroantimonate; phases: Liquid, Gas
Fixed: Mole fraction of butanone = 0
Property: Activity coefficient of butanone (Liquid); method: Chromatography
Temperature, K	Activity coefficient of butanone	uncertainty
313.15	0.648	0.056
313.15	0.632	0.055
323.15	0.681	0.058
323.15	0.681	0.058
333.15	0.702	0.06
333.15	0.718	0.061
