Measured thermophysical data. Isothermal (vapor + liquid) equilibria of maleic anhydride + di-isobutyl hexahydrophthalate and maleic anhydride + di-n-butyl phthalate systems at T= (413.2, 433.2 and 453.2) K
Source: J. Chem. Thermodyn., 2006, 10.1016/j.jct.2005.10.012
Compound 1: maleic anhydride, C4H2O3, InChI=1S/C4H2O3/c5-3-1-2-4(6)7-3/h1-2H
Compound 2: diisobutyl hexahydrophthalate, C16H28O4, InChI=1S/C16H28O4/c1-11(2)9-19-15(17)13-7-5-6-8-14(13)16(18)20-10-12(3)4/h11-14H,5-10H2,1-4H3
Compound 3: dibutyl phthalate, C16H22O4, InChI=1S/C16H22O4/c1-3-5-11-19-15(17)13-9-7-8-10-14(13)16(18)20-12-6-4-2/h7-10H,3-6,11-12H2,1-2H3

System: maleic anhydride; phases: Crystal, Liquid, Air at 1 atmosphere
Property: Normal melting temperature, K (Crystal); method: VISOBS
Normal melting temperature, K	uncertainty
325.6	0.5

System: diisobutyl hexahydrophthalate; phases: Liquid
Property: Refractive index (Na D-line) (Liquid); method: Standard Abbe refractometry
Temperature, K	Pressure, kPa	Refractive index (Na D-line)	uncertainty
293.2	101.325	1.453	0.0007

System: dibutyl phthalate; phases: Liquid
Property: Refractive index (Na D-line) (Liquid); method: Standard Abbe refractometry
Temperature, K	Pressure, kPa	Refractive index (Na D-line)	uncertainty
293.2	101.325	1.4927	0.0007

System: maleic anhydride + diisobutyl hexahydrophthalate; phases: Liquid, Gas
Property: Vapor or sublimation pressure, kPa (Liquid); method: Ebulliometric method (Recirculating still)
Temperature, K	Mole fraction of maleic anhydride	Vapor or sublimation pressure, kPa	uncertainty
413.2	0.0862	2.48	0.062
413.2	0.1491	4.13	0.071
413.2	0.2608	6.991	0.085
413.2	0.3409	8.912	0.095
413.2	0.4829	11.842	0.11
413.2	0.5955	13.587	0.119
413.2	0.7753	15.269	0.127
413.2	0.8136	15.501	0.128
413.2	0.9078	16.077	0.131
433.2	0.0884	5.127	0.076
433.2	0.1504	8.228	0.091
433.2	0.2615	13.618	0.119
433.2	0.3415	17.224	0.137
433.2	0.4833	22.709	0.164
433.2	0.5957	25.992	0.181
433.2	0.7755	29.271	0.198
433.2	0.8137	29.753	0.2
433.2	0.9079	30.966	0.206
453.2	0.0906	9.803	0.099
453.2	0.1519	15.186	0.126
453.2	0.2624	24.536	0.173
453.2	0.3421	30.775	0.205
453.2	0.4837	40.253	0.252
453.2	0.596	45.963	0.281
453.2	0.7757	51.855	0.311
453.2	0.8139	52.766	0.315
453.2	0.908	55.072	0.327

System: dibutyl phthalate + maleic anhydride; phases: Liquid, Gas
Property: Vapor or sublimation pressure, kPa (Liquid); method: Ebulliometric method (Recirculating still)
Temperature, K	Mole fraction of maleic anhydride	Vapor or sublimation pressure, kPa	uncertainty
413.2	0.0505	1.119	0.056
413.2	0.1537	3.378	0.067
413.2	0.2755	6.132	0.081
413.2	0.402	8.911	0.095
413.2	0.5356	11.512	0.108
413.2	0.6157	12.811	0.115
413.2	0.7017	13.952	0.121
413.2	0.769	14.672	0.124
413.2	0.8899	15.752	0.13
433.2	0.0522	2.338	0.062
433.2	0.1543	6.636	0.083
433.2	0.2758	11.836	0.11
433.2	0.4022	17.031	0.136
433.2	0.5357	21.878	0.16
433.2	0.6158	24.324	0.173
433.2	0.7018	26.521	0.184
433.2	0.769	27.96	0.191
433.2	0.89	30.232	0.202
453.2	0.0545	4.568	0.073
453.2	0.1552	12.038	0.11
453.2	0.2762	21.062	0.156
453.2	0.4024	30.019	0.201
453.2	0.5359	38.387	0.243
453.2	0.6159	42.662	0.264
453.2	0.7019	46.59	0.284
453.2	0.7691	49.243	0.298
453.2	0.89	53.587	0.32
