Measured thermophysical data. Measurement and modeling of high-pressure (vapor + liquid) equilibria of (CO2 +  alkanol) binary systems
Source: J. Chem. Thermodyn., 2011, 10.1016/j.jct.2010.12.018
Compound 1: carbon dioxide, CO2, InChI=1S/CO2/c2-1-3, purity 99.999%
Compound 2: 3-methyl-2-butanol, C5H12O, InChI=1S/C5H12O/c1-4(2)5(3)6/h4-6H,1-3H3, purity 98%
Compound 3: pentan-2-ol, C5H12O, InChI=1S/C5H12O/c1-3-4-5(2)6/h5-6H,3-4H2,1-2H3, purity 98%
Compound 4: 3-pentanol, C5H12O, InChI=1S/C5H12O/c1-3-5(6)4-2/h5-6H,3-4H2,1-2H3, purity 98%

System: carbon dioxide + 3-methyl-2-butanol; phases: Liquid, Gas
Property: Vapor or sublimation pressure, kPa (Liquid); method: Closed cell (Static) method
Mole fraction of carbon dioxide	Temperature, K	Vapor or sublimation pressure, kPa	uncertainty
0.105	333.2	2212	35
0.1318	323.2	2147	34
0.1361	313.2	2211	34
0.1781	333.2	3250	49
0.1945	313.2	2952	43
0.1956	323.2	3121	50
0.2563	333.2	4264	67
0.2571	313.2	3571	52
0.2864	323.2	4237	67
0.3219	333.2	5151	74
0.3578	323.2	5105	81
0.4012	313.2	5029	73
0.4462	333.2	6534	97
0.4772	313.2	5553	71
0.4868	323.2	6584	101
0.5462	333.2	7710	100
0.6157	323.2	7838	91
0.633	333.2	8325	99
0.7099	313.2	6978	93
0.7506	323.2	8602	88
0.7748	333.2	9579	126
0.8556	323.2	9078	76
0.8609	333.2	10249	133
0.9055	313.2	7657	89

System: carbon dioxide + 3-methyl-2-butanol; phases: Gas, Liquid
Property: Mole fraction of carbon dioxide (Gas); method: Density calibration data
Mole fraction of carbon dioxide	Temperature, K	Mole fraction of carbon dioxide	uncertainty
0.105	333.2	0.9762	0.0156
0.1318	323.2	0.9681	0.0155
0.1361	313.2	0.9717	0.0156
0.1781	333.2	0.9764	0.0156
0.1945	313.2	0.9805	0.0157
0.1956	323.2	0.9778	0.0156
0.2563	333.2	0.9799	0.0157
0.2571	313.2	0.9794	0.0157
0.2864	323.2	0.9806	0.0157
0.3219	333.2	0.9793	0.0157
0.3578	323.2	0.9806	0.0157
0.4012	313.2	0.9842	0.0157
0.4462	333.2	0.989	0.011
0.4772	313.2	0.983	0.0157
0.4868	323.2	0.9879	0.0121
0.5462	333.2	0.9914	0.0086
0.6157	323.2	0.9932	0.0068
0.633	333.2	0.9908	0.0092
0.7099	313.2	0.9956	0.0044
0.7506	323.2	0.9936	0.0064
0.7748	333.2	0.9929	0.0071
0.8556	323.2	0.9916	0.0084
0.8609	333.2	0.9906	0.0094
0.9055	313.2	0.991	0.009

System: carbon dioxide + pentan-2-ol; phases: Liquid, Gas
Property: Vapor or sublimation pressure, kPa (Liquid); method: Closed cell (Static) method
Mole fraction of carbon dioxide	Temperature, K	Vapor or sublimation pressure, kPa	uncertainty
0.096	333.2	2255	38
0.0978	323.2	2026	38
0.1022	313.2	2002	37
0.1492	333.2	3022	59
0.1752	323.2	3228	67
0.2066	313.2	3437	67
0.2171	333.2	4132	83
0.2519	323.2	4388	96
0.2681	313.2	4135	76
0.2901	333.2	5180	112
0.3142	323.2	5341	86
0.317	333.2	5738	126
0.3667	333.2	6445	119
0.3676	313.2	5233	95
0.4246	323.2	6258	92
0.4539	333.2	7536	129
0.483	313.2	6270	94
0.5482	323.2	7272	122
0.5539	333.2	8523	146
0.5949	323.2	7679	104
0.6111	313.2	7097	73
0.6798	333.2	9818	162
0.7008	323.2	8407	127
0.7691	323.2	8772	122
0.7841	333.2	10587	158
0.8212	323.2	9034	166
0.8778	313.2	7954	88

System: carbon dioxide + pentan-2-ol; phases: Gas, Liquid
Property: Mole fraction of carbon dioxide (Gas); method: Density calibration data
Mole fraction of carbon dioxide	Temperature, K	Mole fraction of carbon dioxide	uncertainty
0.096	333.2	0.9687	0.0313
0.0978	323.2	0.9645	0.0355
0.1022	313.2	0.9766	0.0234
0.1492	333.2	0.9699	0.0301
0.1752	323.2	0.981	0.019
0.2066	313.2	0.985	0.015
0.2171	333.2	0.9855	0.0145
0.2519	323.2	0.9827	0.0173
0.2681	313.2	0.9807	0.0193
0.2901	333.2	0.9834	0.0166
0.3142	323.2	0.9844	0.0156
0.317	333.2	0.9845	0.0155
0.3667	333.2	0.9893	0.0107
0.3676	313.2	0.9939	0.0061
0.4246	323.2	0.989	0.011
0.4539	333.2	0.9924	0.0076
0.483	313.2	0.9895	0.0105
0.5482	323.2	0.9912	0.0088
0.5539	333.2	0.9931	0.0069
0.5949	323.2	0.9915	0.0085
0.6111	313.2	0.9912	0.0088
0.6798	333.2	0.9916	0.0084
0.7008	323.2	0.9921	0.0079
0.7691	323.2	0.9927	0.0073
0.7841	333.2	0.9916	0.0084
0.8212	323.2	0.9913	0.0087
0.8778	313.2	0.9929	0.0071

System: carbon dioxide + 3-pentanol; phases: Liquid, Gas
Property: Vapor or sublimation pressure, kPa (Liquid); method: Closed cell (Static) method
Mole fraction of carbon dioxide	Temperature, K	Vapor or sublimation pressure, kPa	uncertainty
0.0957	333.2	1942	31
0.1123	313.2	2023	31
0.1208	323.2	2357	37
0.1704	333.2	3138	50
0.1802	323.2	3196	46
0.1977	313.2	3122	49
0.2512	333.2	4338	70
0.2626	323.2	4201	64
0.274	313.2	4052	63
0.3117	333.2	5183	78
0.3172	323.2	4936	64
0.3467	313.2	4898	68
0.4035	333.2	6353	101
0.4046	323.2	5677	84
0.4368	323.2	6256	93
0.4555	313.2	5871	73
0.4769	333.2	7325	97
0.5212	323.2	7051	86
0.584	333.2	8281	93
0.5952	323.2	7559	89
0.6102	313.2	6981	67
0.6919	333.2	9035	102
0.7232	323.2	8541	87
0.8311	323.2	8917	78
0.8424	333.2	10207	132
0.9072	313.2	8056	79

System: carbon dioxide + 3-pentanol; phases: Gas, Liquid
Property: Mole fraction of carbon dioxide (Gas); method: Density calibration data
Mole fraction of carbon dioxide	Temperature, K	Mole fraction of carbon dioxide	uncertainty
0.0957	333.2	0.9773	0.0195
0.1123	313.2	0.9678	0.0194
0.1208	323.2	0.9819	0.0181
0.1704	333.2	0.9776	0.0196
0.1802	323.2	0.9799	0.0196
0.1977	313.2	0.9763	0.0195
0.2512	333.2	0.9785	0.0196
0.2626	323.2	0.9799	0.0196
0.274	313.2	0.9797	0.0196
0.3117	333.2	0.9821	0.0179
0.3172	323.2	0.9894	0.0106
0.3467	313.2	0.9761	0.0195
0.4035	333.2	0.9902	0.0098
0.4046	323.2	0.9843	0.0157
0.4368	323.2	0.9904	0.0096
0.4555	313.2	0.9836	0.0164
0.4769	333.2	0.9927	0.0073
0.5212	323.2	0.9935	0.0065
0.584	333.2	0.9925	0.0075
0.5952	323.2	0.9942	0.0058
0.6102	313.2	0.9909	0.0091
0.6919	333.2	0.9919	0.0081
0.7232	323.2	0.9919	0.0081
0.8311	323.2	0.991	0.009
0.8424	333.2	0.9912	0.0088
0.9072	313.2	0.9914	0.0086
