Measured thermophysical data. Volumetric, acoustic, and viscometric studies of molecular interactions in binary mixtures of diethylene glycol monomethyl ether with 1-alkanols at temperatures from (293.15 to 308.15) K
Source: J. Chem. Thermodyn., 2010, 10.1016/j.jct.2009.08.009
Compound 1: 3,6-dioxa-1-octanol, C6H14O3, InChI=1S/C6H14O3/c1-2-8-5-6-9-4-3-7/h7H,2-6H2,1H3, purity 99.5%
Compound 2: hexan-1-ol, C6H14O, InChI=1S/C6H14O/c1-2-3-4-5-6-7/h7H,2-6H2,1H3, purity 99.5%
Compound 3: octan-1-ol, C8H18O, InChI=1S/C8H18O/c1-2-3-4-5-6-7-8-9/h9H,2-8H2,1H3, purity 99.5%
Compound 4: decan-1-ol, C10H22O, InChI=1S/C10H22O/c1-2-3-4-5-6-7-8-9-10-11/h11H,2-10H2,1H3, purity 99.5%

System: hexan-1-ol + 3,6-dioxa-1-octanol; phases: Liquid
Fixed: Pressure, kPa = 101
Property: Viscosity, Pa*s (Liquid); method: Capillary tube (Ostwald; Ubbelohde) method
Temperature, K	Mole fraction of 3,6-dioxa-1-octanol	Viscosity, Pa*s	uncertainty
293.15	0	0.004963	3e-05
293.15	0.0515	0.004442	2.7e-05
293.15	0.1039	0.004111	2.5e-05
293.15	0.1456	0.003932	2.4e-05
293.15	0.2078	0.003714	2.3e-05
293.15	0.2501	0.003614	2.2e-05
293.15	0.3127	0.003482	2.1e-05
293.15	0.3517	0.003423	2.1e-05
293.15	0.5241	0.003279	2e-05
293.15	0.6227	0.003308	2e-05
293.15	0.7217	0.003352	2e-05
293.15	0.8227	0.003384	2.1e-05
293.15	0.915	0.003588	2.2e-05
293.15	1	0.003626	2.2e-05
298.15	0	0.004439	2.7e-05
298.15	0.0515	0.003906	2.4e-05
298.15	0.1039	0.003655	2.2e-05
298.15	0.1456	0.003495	2.1e-05
298.15	0.2078	0.003352	2e-05
298.15	0.2501	0.003237	2e-05
298.15	0.3127	0.003121	1.9e-05
298.15	0.3517	0.003066	1.9e-05
298.15	0.5241	0.002951	1.8e-05
298.15	0.6227	0.002965	1.8e-05
298.15	0.7217	0.003009	1.8e-05
298.15	0.8227	0.003054	1.9e-05
298.15	0.915	0.003235	2e-05
298.15	1	0.003278	2e-05
303.15	0	0.003675	2.2e-05
303.15	0.0515	0.003381	2.1e-05
303.15	0.1039	0.003154	1.9e-05
303.15	0.1456	0.003026	1.9e-05
303.15	0.2078	0.002879	1.8e-05
303.15	0.2501	0.002809	1.7e-05
303.15	0.3127	0.002726	1.7e-05
303.15	0.3517	0.002682	1.7e-05
303.15	0.5241	0.002584	1.6e-05
303.15	0.6227	0.002605	1.6e-05
303.15	0.7217	0.002647	1.6e-05
303.15	0.8227	0.002693	1.7e-05
303.15	0.915	0.002801	1.7e-05
303.15	1	0.002862	1.8e-05
308.15	0	0.003108	1.9e-05
308.15	0.0515	0.002901	1.8e-05
308.15	0.1039	0.00272	1.7e-05
308.15	0.1456	0.002631	1.6e-05
308.15	0.2078	0.002503	1.6e-05
308.15	0.2501	0.002443	1.5e-05
308.15	0.3127	0.002374	1.5e-05
308.15	0.3517	0.002342	1.5e-05
308.15	0.5241	0.002266	1.4e-05
308.15	0.6227	0.002278	1.5e-05
308.15	0.7217	0.002297	1.5e-05
308.15	0.8227	0.002349	1.5e-05
308.15	0.915	0.002445	1.5e-05
308.15	1	0.002507	1.6e-05

System: hexan-1-ol + 3,6-dioxa-1-octanol; phases: Liquid
Fixed: Pressure, kPa = 101
Property: Speed of sound, m/s (Liquid); method: Sing-around technique in a fixed-path interferometer
Temperature, K	Mole fraction of 3,6-dioxa-1-octanol	Speed of sound, m/s	uncertainty
293.15	0.0515	1322.4	0.8
293.15	0.1039	1324.9	0.8
293.15	0.1456	1327.5	0.8
293.15	0.2078	1331.1	0.8
293.15	0.2501	1334.2	0.8
293.15	0.3127	1338.7	0.8
293.15	0.3517	1342.1	0.8
293.15	0.5241	1358.7	0.8
293.15	0.6227	1370.5	0.9
293.15	0.7217	1384.3	0.9
293.15	0.8227	1400.4	0.9
293.15	0.915	1416.4	0.9
298.15	0.0515	1305.4	0.8
298.15	0.1039	1308	0.8
298.15	0.1456	1310.6	0.8
298.15	0.2078	1314.3	0.8
298.15	0.2501	1317.4	0.8
298.15	0.3127	1322	0.8
298.15	0.3517	1325.3	0.8
298.15	0.5241	1341.9	0.8
298.15	0.6227	1353.8	0.8
298.15	0.7217	1367.5	0.9
298.15	0.8227	1383.5	0.9
298.15	0.915	1399.5	0.9
303.15	0.0515	1288.7	0.8
303.15	0.1039	1291.3	0.8
303.15	0.1456	1293.9	0.8
303.15	0.2078	1297.6	0.8
303.15	0.2501	1300.7	0.8
303.15	0.3127	1305.3	0.8
303.15	0.3517	1308.7	0.8
303.15	0.5241	1325.3	0.8
303.15	0.6227	1337.1	0.8
303.15	0.7217	1350.8	0.8
303.15	0.8227	1366.7	0.9
303.15	0.915	1382.6	0.9
308.15	0.0515	1272.1	0.8
308.15	0.1039	1274.7	0.8
308.15	0.1456	1277.3	0.8
308.15	0.2078	1280	0.8
308.15	0.2501	1284.2	0.8
308.15	0.3127	1288.8	0.8
308.15	0.3517	1292.1	0.8
308.15	0.5241	1308.8	0.8
308.15	0.6227	1320.6	0.8
308.15	0.7217	1334.2	0.8
308.15	0.8227	1350	0.8
308.15	0.915	1365.8	0.9

System: hexan-1-ol + 3,6-dioxa-1-octanol; phases: Liquid
Fixed: Pressure, kPa = 101
Property: Mass density, kg/m3 (Liquid); method: Vibrating tube method
Temperature, K	Mole fraction of 3,6-dioxa-1-octanol	Mass density, kg/m3	uncertainty
293.15	0.0515	828.146	0.137
293.15	0.1039	837.651	0.135
293.15	0.1456	845.454	0.133
293.15	0.2078	857.041	0.129
293.15	0.2501	864.989	0.127
293.15	0.3127	876.967	0.124
293.15	0.3517	884.493	0.122
293.15	0.5241	918.471	0.113
293.15	0.6227	938.481	0.108
293.15	0.7217	959.157	0.103
293.15	0.8227	980.826	0.097
293.15	0.915	1000.908	0.093
298.15	0.0515	824.518	0.138
298.15	0.1039	833.976	0.136
298.15	0.1456	841.738	0.134
298.15	0.2078	853.267	0.13
298.15	0.2501	861.179	0.128
298.15	0.3127	873.107	0.125
298.15	0.3517	880.591	0.123
298.15	0.5241	914.427	0.114
298.15	0.6227	934.36	0.109
298.15	0.7217	954.955	0.104
298.15	0.8227	976.55	0.098
298.15	0.915	996.56	0.093
303.15	0.0515	820.874	0.14
303.15	0.1039	830.282	0.137
303.15	0.1456	838.004	0.135
303.15	0.2078	849.482	0.131
303.15	0.2501	857.352	0.129
303.15	0.3127	869.225	0.126
303.15	0.3517	876.678	0.124
303.15	0.5241	910.37	0.115
303.15	0.6227	930.226	0.11
303.15	0.7217	950.745	0.105
303.15	0.8227	972.261	0.099
303.15	0.915	992.202	0.094
308.15	0.0515	817.198	0.141
308.15	0.1039	826.564	0.138
308.15	0.1456	834.246	0.136
308.15	0.2078	845.669	0.132
308.15	0.2501	853.504	0.13
308.15	0.3127	865.322	0.127
308.15	0.3517	872.742	0.125
308.15	0.5241	906.299	0.116
308.15	0.6227	926.073	0.111
308.15	0.7217	946.516	0.106
308.15	0.8227	967.953	0.1
308.15	0.915	987.826	0.096

System: hexan-1-ol + 3,6-dioxa-1-octanol; phases: Liquid
Fixed: Pressure, kPa = 101
Property: Excess molar volume, m3/mol (Liquid); method: Calculated with densities of this investigation
Temperature, K	Mole fraction of 3,6-dioxa-1-octanol	Excess molar volume, m3/mol	uncertainty
293.15	0.0515	7.53e-08	7.9e-09
293.15	0.1039	1.538e-07	8.1e-09
293.15	0.1456	1.841e-07	8.2e-09
293.15	0.2078	2.47e-07	8.3e-09
293.15	0.2501	2.858e-07	8.4e-09
293.15	0.3127	3.214e-07	8.5e-09
293.15	0.3517	3.403e-07	8.5e-09
293.15	0.5241	3.797e-07	8.7e-09
293.15	0.6227	3.658e-07	8.7e-09
293.15	0.7217	3.081e-07	8.5e-09
293.15	0.8227	2.119e-07	8.2e-09
293.15	0.915	1.211e-07	8e-09
298.15	0.0515	7.74e-08	7.9e-09
298.15	0.1039	1.564e-07	8.1e-09
298.15	0.1456	1.888e-07	8.2e-09
298.15	0.2078	2.533e-07	8.3e-09
298.15	0.2501	2.926e-07	8.4e-09
298.15	0.3127	3.282e-07	8.5e-09
298.15	0.3517	3.486e-07	8.6e-09
298.15	0.5241	3.878e-07	8.8e-09
298.15	0.6227	3.728e-07	8.7e-09
298.15	0.7217	3.14e-07	8.5e-09
298.15	0.8227	2.15e-07	8.2e-09
298.15	0.915	1.226e-07	8e-09
303.15	0.0515	7.81e-08	7.9e-09
303.15	0.1039	1.589e-07	8.1e-09
303.15	0.1456	1.928e-07	8.2e-09
303.15	0.2078	2.58e-07	8.3e-09
303.15	0.2501	2.988e-07	8.4e-09
303.15	0.3127	3.354e-07	8.5e-09
303.15	0.3517	3.559e-07	8.6e-09
303.15	0.5241	3.957e-07	8.8e-09
303.15	0.6227	3.799e-07	8.7e-09
303.15	0.7217	3.198e-07	8.5e-09
303.15	0.8227	2.193e-07	8.3e-09
303.15	0.915	1.248e-07	8e-09
308.15	0.0515	8.04e-08	7.9e-09
308.15	0.1039	1.62e-07	8.1e-09
308.15	0.1456	1.971e-07	8.2e-09
308.15	0.2078	2.635e-07	8.4e-09
308.15	0.2501	3.047e-07	8.5e-09
308.15	0.3127	3.422e-07	8.5e-09
308.15	0.3517	3.629e-07	8.6e-09
308.15	0.5241	4.018e-07	8.9e-09
308.15	0.6227	3.857e-07	8.8e-09
308.15	0.7217	3.239e-07	8.5e-09
308.15	0.8227	2.216e-07	8.3e-09
308.15	0.915	1.248e-07	8e-09

System: octan-1-ol + 3,6-dioxa-1-octanol; phases: Liquid
Fixed: Pressure, kPa = 101
Property: Viscosity, Pa*s (Liquid); method: Capillary tube (Ostwald; Ubbelohde) method
Temperature, K	Mole fraction of 3,6-dioxa-1-octanol	Viscosity, Pa*s	uncertainty
293.15	0	0.008309	4.5e-05
293.15	0.0518	0.007468	4.2e-05
293.15	0.1011	0.006913	3.9e-05
293.15	0.1625	0.006159	3.5e-05
293.15	0.1944	0.005913	3.4e-05
293.15	0.2538	0.005872	3.4e-05
293.15	0.3165	0.005104	3.1e-05
293.15	0.3685	0.004837	2.9e-05
293.15	0.4975	0.004361	2.6e-05
293.15	0.6048	0.00408	2.5e-05
293.15	0.7202	0.003846	2.3e-05
293.15	0.8165	0.003739	2.3e-05
293.15	0.9144	0.00366	2.2e-05
293.15	1	0.003626	2.2e-05
298.15	0	0.007143	4e-05
298.15	0.0518	0.006198	3.6e-05
298.15	0.1011	0.00603	3.5e-05
298.15	0.1625	0.005405	3.2e-05
298.15	0.1944	0.005188	3.1e-05
298.15	0.2538	0.004799	2.9e-05
298.15	0.3165	0.004489	2.7e-05
298.15	0.3685	0.004279	2.6e-05
298.15	0.4975	0.003918	2.4e-05
298.15	0.6048	0.003612	2.2e-05
298.15	0.7202	0.003431	2.1e-05
298.15	0.8165	0.003328	2e-05
298.15	0.9144	0.003277	2e-05
298.15	1	0.003278	2e-05
303.15	0	0.005969	3.5e-05
303.15	0.0518	0.005429	3.2e-05
303.15	0.1011	0.005005	3e-05
303.15	0.1625	0.004636	2.8e-05
303.15	0.1944	0.004404	2.7e-05
303.15	0.2538	0.004295	2.6e-05
303.15	0.3165	0.003845	2.3e-05
303.15	0.3685	0.00367	2.2e-05
303.15	0.4975	0.003396	2.1e-05
303.15	0.6048	0.003141	1.9e-05
303.15	0.7202	0.003045	1.9e-05
303.15	0.8165	0.002904	1.8e-05
303.15	0.9144	0.002848	1.8e-05
303.15	1	0.002862	1.8e-05
308.15	0	0.005009	3e-05
308.15	0.0518	0.004542	2.8e-05
308.15	0.1011	0.004219	2.6e-05
308.15	0.1625	0.003897	2.4e-05
308.15	0.1944	0.003781	2.3e-05
308.15	0.2538	0.003548	2.2e-05
308.15	0.3165	0.003327	2e-05
308.15	0.3685	0.003169	1.9e-05
308.15	0.4975	0.002928	1.8e-05
308.15	0.6048	0.002721	1.7e-05
308.15	0.7202	0.0026	1.6e-05
308.15	0.8165	0.002532	1.6e-05
308.15	0.9144	0.002493	1.6e-05
308.15	1	0.002507	1.6e-05

System: octan-1-ol + 3,6-dioxa-1-octanol; phases: Liquid
Fixed: Pressure, kPa = 101
Property: Speed of sound, m/s (Liquid); method: Sing-around technique in a fixed-path interferometer
Temperature, K	Mole fraction of 3,6-dioxa-1-octanol	Speed of sound, m/s	uncertainty
293.15	0.0518	1364.1	0.9
293.15	0.1011	1363.5	0.9
293.15	0.1625	1363.1	0.9
293.15	0.1944	1363.7	0.9
293.15	0.2538	1364.5	0.9
293.15	0.3165	1365.7	0.9
293.15	0.3685	1370.8	0.9
293.15	0.4975	1377.4	0.9
293.15	0.6048	1387.7	0.9
293.15	0.7202	1399.5	0.9
293.15	0.8165	1415.1	0.9
293.15	0.9144	1349.4	0.9
298.15	0.0518	1347.1	0.8
298.15	0.1011	1346.5	0.8
298.15	0.1625	1346.3	0.8
298.15	0.1944	1346.7	0.8
298.15	0.2538	1347.6	0.8
298.15	0.3165	1348.9	0.8
298.15	0.3685	1354.1	0.8
298.15	0.4975	1360.7	0.9
298.15	0.6048	1370.9	0.9
298.15	0.7202	1382.7	0.9
298.15	0.8165	1398.2	0.9
298.15	0.9144	1332.2	0.9
303.15	0.0518	1330.3	0.8
303.15	0.1011	1329.8	0.8
303.15	0.1625	1329.5	0.8
303.15	0.1944	1329.6	0.8
303.15	0.2538	1330.1	0.8
303.15	0.3165	1330.9	0.8
303.15	0.3685	1332.3	0.8
303.15	0.4975	1337.5	0.8
303.15	0.6048	1343.9	0.8
303.15	0.7202	1354.3	0.9
303.15	0.8165	1381.3	0.9
303.15	0.9144	1315	0.8
308.15	0.0518	1313.7	0.8
308.15	0.1011	1313.2	0.8
308.15	0.1625	1312.9	0.8
308.15	0.1944	1312.9	0.8
308.15	0.2538	1313.5	0.8
308.15	0.3165	1314.5	0.8
308.15	0.3685	1315.7	0.8
308.15	0.4975	1320.9	0.8
308.15	0.6048	1327.4	0.8
308.15	0.7202	1337.7	0.8
308.15	0.8165	1349.3	0.9
308.15	0.9144	1364.5	0.9

System: octan-1-ol + 3,6-dioxa-1-octanol; phases: Liquid
Fixed: Pressure, kPa = 101
Property: Mass density, kg/m3 (Liquid); method: Vibrating tube method
Temperature, K	Mole fraction of 3,6-dioxa-1-octanol	Mass density, kg/m3	uncertainty
293.15	0.0518	832.339	0.134
293.15	0.1011	839.204	0.132
293.15	0.1625	848.155	0.13
293.15	0.1944	853.018	0.129
293.15	0.2538	862.076	0.126
293.15	0.3165	872.254	0.124
293.15	0.3685	880.933	0.122
293.15	0.4975	904.111	0.116
293.15	0.6048	925.139	0.112
293.15	0.7202	949.653	0.106
293.15	0.8165	971.878	0.127
293.15	0.9144	996.047	0.25
298.15	0.0518	828.835	0.135
298.15	0.1011	835.659	0.133
298.15	0.1625	844.559	0.131
298.15	0.1944	849.396	0.13
298.15	0.2538	858.398	0.127
298.15	0.3165	868.522	0.125
298.15	0.3685	877.154	0.123
298.15	0.4975	900.211	0.117
298.15	0.6048	921.137	0.112
298.15	0.7202	945.535	0.117
298.15	0.8165	991.74	0.084
298.15	0.9144	938.234	0.106
303.15	0.0518	825.317	0.136
303.15	0.1011	832.097	0.134
303.15	0.1625	840.951	0.132
303.15	0.1944	845.762	0.131
303.15	0.2538	854.713	0.128
303.15	0.3165	864.78	0.126
303.15	0.3685	873.364	0.124
303.15	0.4975	896.3	0.118
303.15	0.6048	917.122	0.113
303.15	0.7202	941.409	0.108
303.15	0.8165	963.444	0.121
303.15	0.9144	987.41	0.123
308.15	0.0518	821.777	0.137
308.15	0.1011	828.522	0.135
308.15	0.1625	837.324	0.133
308.15	0.1944	842.106	0.132
308.15	0.2538	851.006	0.129
308.15	0.3165	861.019	0.127
308.15	0.3685	869.558	0.125
308.15	0.4975	892.371	0.119
308.15	0.6048	913.092	0.114
308.15	0.7202	937.267	0.109
308.15	0.8165	959.204	0.104
308.15	0.9144	983.069	0.099

System: octan-1-ol + 3,6-dioxa-1-octanol; phases: Liquid
Fixed: Pressure, kPa = 101
Property: Excess molar volume, m3/mol (Liquid); method: Calculated with densities of this investigation
Temperature, K	Mole fraction of 3,6-dioxa-1-octanol	Excess molar volume, m3/mol	uncertainty
293.15	0.0518	1.022e-07	8e-09
293.15	0.1011	2.075e-07	8.2e-09
293.15	0.1625	3.092e-07	8.5e-09
293.15	0.1944	3.441e-07	8.6e-09
293.15	0.2538	4.458e-07	9.2e-09
293.15	0.3165	5.015e-07	9.6e-09
293.15	0.3685	5.518e-07	9.9e-09
293.15	0.4975	5.925e-07	1.02e-08
293.15	0.6048	5.681e-07	1e-08
293.15	0.7202	4.962e-07	9.5e-09
293.15	0.8165	3.887e-07	8.8e-09
293.15	0.9144	2.686e-07	8.4e-09
298.15	0.0518	1.039e-07	8e-09
298.15	0.1011	2.111e-07	8.2e-09
298.15	0.1625	3.145e-07	8.5e-09
298.15	0.1944	3.499e-07	8.6e-09
298.15	0.2538	4.54e-07	9.2e-09
298.15	0.3165	5.105e-07	9.6e-09
298.15	0.3685	5.617e-07	1e-08
298.15	0.4975	6.033e-07	1.03e-08
298.15	0.6048	5.781e-07	1.01e-08
298.15	0.7202	5.048e-07	9.6e-09
298.15	0.8165	3.946e-07	8.8e-09
298.15	0.9144	2.705e-07	8.4e-09
303.15	0.0518	1.044e-07	8e-09
303.15	0.1011	2.142e-07	8.3e-09
303.15	0.1625	3.186e-07	8.5e-09
303.15	0.1944	3.547e-07	8.6e-09
303.15	0.2538	4.606e-07	9.3e-09
303.15	0.3165	5.186e-07	9.7e-09
303.15	0.3685	5.709e-07	1.01e-08
303.15	0.4975	6.139e-07	1.04e-08
303.15	0.6048	5.887e-07	1.02e-08
303.15	0.7202	5.136e-07	9.6e-09
303.15	0.8165	4.009e-07	8.9e-09
303.15	0.9144	2.748e-07	8.4e-09
308.15	0.0518	1.066e-07	8e-09
308.15	0.1011	2.172e-07	8.3e-09
308.15	0.1625	3.237e-07	8.5e-09
308.15	0.1944	3.609e-07	8.6e-09
308.15	0.2538	4.684e-07	9.3e-09
308.15	0.3165	5.274e-07	9.7e-09
308.15	0.3685	5.804e-07	1.01e-08
308.15	0.4975	6.248e-07	1.05e-08
308.15	0.6048	5.988e-07	1.03e-08
308.15	0.7202	5.219e-07	9.7e-09
308.15	0.8165	4.069e-07	8.9e-09
308.15	0.9144	2.779e-07	8.4e-09

System: 3,6-dioxa-1-octanol + decan-1-ol; phases: Liquid
Fixed: Pressure, kPa = 101
Property: Viscosity, Pa*s (Liquid); method: Capillary tube (Ostwald; Ubbelohde) method
Temperature, K	Mole fraction of 3,6-dioxa-1-octanol	Viscosity, Pa*s	uncertainty
293.15	0	0.013039	6.7e-05
293.15	0.0607	0.011402	6e-05
293.15	0.109	0.010284	5.5e-05
293.15	0.1561	0.009367	5e-05
293.15	0.2105	0.008743	4.7e-05
293.15	0.2599	0.007761	4.3e-05
293.15	0.3089	0.007383	4.1e-05
293.15	0.3533	0.006336	3.6e-05
293.15	0.4923	0.005731	3.3e-05
293.15	0.5986	0.005141	3.1e-05
293.15	0.7153	0.004525	2.7e-05
293.15	0.7918	0.004186	2.5e-05
293.15	0.901	0.003899	2.4e-05
293.15	1	0.003626	2.2e-05
298.15	0	0.011192	5.9e-05
298.15	0.0607	0.009658	5.2e-05
298.15	0.109	0.008774	4.8e-05
298.15	0.1561	0.008059	4.4e-05
298.15	0.2105	0.007574	4.2e-05
298.15	0.2599	0.006868	3.9e-05
298.15	0.3089	0.006353	3.6e-05
298.15	0.3533	0.006008	3.5e-05
298.15	0.4923	0.005027	3e-05
298.15	0.5986	0.004479	2.7e-05
298.15	0.7153	0.004005	2.4e-05
298.15	0.7918	0.003729	2.3e-05
298.15	0.901	0.003449	2.1e-05
298.15	1	0.003278	2e-05
303.15	0	0.009066	4.9e-05
303.15	0.0607	0.008114	4.5e-05
303.15	0.109	0.007312	4.1e-05
303.15	0.1561	0.006739	3.8e-05
303.15	0.2105	0.006387	3.7e-05
303.15	0.2599	0.005858	3.4e-05
303.15	0.3089	0.005366	3.2e-05
303.15	0.3533	0.005083	3e-05
303.15	0.4923	0.004338	2.6e-05
303.15	0.5986	0.003859	2.3e-05
303.15	0.7153	0.003458	2.1e-05
303.15	0.7918	0.003235	2e-05
303.15	0.901	0.003021	1.9e-05
303.15	1	0.002862	1.8e-05
308.15	0	0.007459	4.2e-05
308.15	0.0607	0.006698	3.8e-05
308.15	0.109	0.006116	3.5e-05
308.15	0.1561	0.005838	3.4e-05
308.15	0.2105	0.00538	3.2e-05
308.15	0.2599	0.004826	2.9e-05
308.15	0.3089	0.004528	2.7e-05
308.15	0.3533	0.004319	2.6e-05
308.15	0.4923	0.003697	2.3e-05
308.15	0.5986	0.003346	2e-05
308.15	0.7153	0.002978	1.8e-05
308.15	0.7918	0.002817	1.7e-05
308.15	0.901	0.00267	1.7e-05
308.15	1	0.002507	1.6e-05

System: 3,6-dioxa-1-octanol + decan-1-ol; phases: Liquid
Fixed: Pressure, kPa = 101
Property: Speed of sound, m/s (Liquid); method: Sing-around technique in a fixed-path interferometer
Temperature, K	Mole fraction of 3,6-dioxa-1-octanol	Speed of sound, m/s	uncertainty
293.15	0.0607	1394.1	0.9
293.15	0.109	1392.3	0.9
293.15	0.1561	1390.6	0.9
293.15	0.2105	1388.9	0.9
293.15	0.2599	1387.4	0.9
293.15	0.3089	1386.6	0.9
293.15	0.3533	1385.8	0.9
293.15	0.4923	1385.3	0.9
293.15	0.5986	1387.2	0.9
293.15	0.7153	1392.6	0.9
293.15	0.7918	1398.6	0.9
293.15	0.901	1412.6	0.9
298.15	0.0607	1377	0.9
298.15	0.109	1375.3	0.9
298.15	0.1561	1373.6	0.9
298.15	0.2105	1371.8	0.9
298.15	0.2599	1370.5	0.9
298.15	0.3089	1369.6	0.9
298.15	0.3533	1368.9	0.9
298.15	0.4923	1368.4	0.9
298.15	0.5986	1370.3	0.9
298.15	0.7153	1375.7	0.9
298.15	0.7918	1381.7	0.9
298.15	0.901	1395.6	0.9
303.15	0.0607	1360.1	0.8
303.15	0.109	1358.4	0.8
303.15	0.1561	1356.8	0.8
303.15	0.2105	1355.1	0.8
303.15	0.2599	1353.7	0.8
303.15	0.3089	1352.8	0.8
303.15	0.3533	1352.1	0.8
303.15	0.4923	1351.7	0.8
303.15	0.5986	1353.7	0.8
303.15	0.7153	1358.9	0.8
303.15	0.7918	1364.9	0.9
303.15	0.901	1378.8	0.9
308.15	0.0607	1343.3	0.8
308.15	0.109	1341.6	0.8
308.15	0.1561	1340.1	0.8
308.15	0.2105	1338.4	0.8
308.15	0.2599	1336.9	0.8
308.15	0.3089	1336.2	0.8
308.15	0.3533	1335.5	0.8
308.15	0.4923	1335.1	0.8
308.15	0.5986	1337	0.8
308.15	0.7153	1342.4	0.8
308.15	0.7918	1348.3	0.8
308.15	0.901	1362.1	0.9

System: 3,6-dioxa-1-octanol + decan-1-ol; phases: Liquid
Fixed: Pressure, kPa = 101
Property: Mass density, kg/m3 (Liquid); method: Vibrating tube method
Temperature, K	Mole fraction of 3,6-dioxa-1-octanol	Mass density, kg/m3	uncertainty
293.15	0.0607	836.419	0.132
293.15	0.109	841.997	0.13
293.15	0.1561	847.628	0.129
293.15	0.2105	854.439	0.128
293.15	0.2599	862.044	0.125
293.15	0.3089	867.859	0.123
293.15	0.3533	874.329	0.123
293.15	0.4923	896.636	0.117
293.15	0.5986	916.267	0.114
293.15	0.7153	940.786	0.109
293.15	0.7918	959.008	0.107
293.15	0.901	988.518	0.101
298.15	0.0607	832.969	0.133
298.15	0.109	838.521	0.131
298.15	0.1561	844.112	0.13
298.15	0.2105	850.88	0.129
298.15	0.2599	858.441	0.126
298.15	0.3089	864.217	0.124
298.15	0.3533	870.65	0.124
298.15	0.4923	892.825	0.118
298.15	0.5986	912.348	0.114
298.15	0.7153	936.739	0.109
298.15	0.7918	954.872	0.108
298.15	0.901	984.244	0.102
303.15	0.0607	829.51	0.134
303.15	0.109	835.031	0.132
303.15	0.1561	840.589	0.131
303.15	0.2105	847.315	0.13
303.15	0.2599	854.826	0.127
303.15	0.3089	860.567	0.125
303.15	0.3533	866.962	0.125
303.15	0.4923	889.005	0.119
303.15	0.5986	908.42	0.115
303.15	0.7153	932.679	0.11
303.15	0.7918	950.728	0.109
303.15	0.901	979.965	0.103
308.15	0.0607	826.037	0.135
308.15	0.109	831.525	0.133
308.15	0.1561	837.051	0.132
308.15	0.2105	843.734	0.13
308.15	0.2599	851.204	0.129
308.15	0.3089	856.908	0.126
308.15	0.3533	863.255	0.126
308.15	0.4923	885.17	0.12
308.15	0.5986	904.477	0.116
308.15	0.7153	928.613	0.111
308.15	0.7918	946.566	0.109
308.15	0.901	975.664	0.104

System: 3,6-dioxa-1-octanol + decan-1-ol; phases: Liquid
Fixed: Pressure, kPa = 101
Property: Excess molar volume, m3/mol (Liquid); method: Calculated with densities of this investigation
Temperature, K	Mole fraction of 3,6-dioxa-1-octanol	Excess molar volume, m3/mol	uncertainty
293.15	0.0607	1.69e-07	8.1e-09
293.15	0.109	2.687e-07	8.4e-09
293.15	0.1561	3.687e-07	8.7e-09
293.15	0.2105	4.757e-07	9.4e-09
293.15	0.2599	5.417e-07	9.8e-09
293.15	0.3089	6.09e-07	1.03e-08
293.15	0.3533	6.321e-07	1.05e-08
293.15	0.4923	7.666e-07	1.16e-08
293.15	0.5986	7.614e-07	1.16e-08
293.15	0.7153	6.891e-07	1.1e-08
293.15	0.7918	5.804e-07	1.01e-08
293.15	0.901	3.445e-07	8.6e-09
298.15	0.0607	1.704e-07	8.2e-09
298.15	0.109	2.698e-07	8.4e-09
298.15	0.1561	3.725e-07	8.7e-09
298.15	0.2105	4.815e-07	9.4e-09
298.15	0.2599	5.48e-07	9.9e-09
298.15	0.3089	6.177e-07	1.04e-08
298.15	0.3533	6.414e-07	1.06e-08
298.15	0.4923	7.784e-07	1.17e-08
298.15	0.5986	7.734e-07	1.16e-08
298.15	0.7153	6.997e-07	1.11e-08
298.15	0.7918	5.89e-07	1.02e-08
298.15	0.901	3.49e-07	8.6e-09
303.15	0.0607	1.723e-07	8.2e-09
303.15	0.109	2.726e-07	8.4e-09
303.15	0.1561	3.766e-07	8.7e-09
303.15	0.2105	4.873e-07	9.5e-09
303.15	0.2599	5.489e-07	9.9e-09
303.15	0.3089	6.27e-07	1.05e-08
303.15	0.3533	6.514e-07	1.07e-08
303.15	0.4923	7.912e-07	1.18e-08
303.15	0.5986	7.863e-07	1.18e-08
303.15	0.7153	6.142e-07	1.04e-08
303.15	0.7918	5.985e-07	1.03e-08
303.15	0.901	3.54e-07	8.6e-09
308.15	0.0607	1.73e-07	8.2e-09
308.15	0.109	2.247e-07	8.3e-09
308.15	0.1561	3.797e-07	8.8e-09
308.15	0.2105	4.924e-07	9.5e-09
308.15	0.2599	5.605e-07	1e-08
308.15	0.3089	6.342e-07	1.05e-08
308.15	0.3533	6.615e-07	1.08e-08
308.15	0.4923	8.032e-07	1.19e-08
308.15	0.5986	7.984e-07	1.19e-08
308.15	0.7153	7.221e-07	1.12e-08
308.15	0.7918	6.075e-07	1.03e-08
308.15	0.901	3.589e-07	8.6e-09
