Measured thermophysical data. Experimental and predicted volumetric and refractive index properties of ternary mixtures of iodoethane with toluene and alcohols at temperature 298.15 K and pressure 101 kPa
Source: J. Chem. Thermodyn., 2006, 10.1016/j.jct.2005.05.004
Compound 1: toluene, C7H8, InChI=1S/C7H8/c1-7-5-3-2-4-6-7/h2-6H,1H3
Compound 2: methanol, CH4O, InChI=1S/CH4O/c1-2/h2H,1H3
Compound 3: ethanol, C2H6O, InChI=1S/C2H6O/c1-2-3/h3H,2H2,1H3
Compound 4: propan-1-ol, C3H8O, InChI=1S/C3H8O/c1-2-3-4/h4H,2-3H2,1H3
Compound 5: iodoethane, C2H5I, InChI=1S/C2H5I/c1-2-3/h2H2,1H3

System: toluene; phases: Liquid
Property: Refractive index (Na D-line) (Liquid); method: ABBE:UFactor:4
Temperature, K	Pressure, kPa	Refractive index (Na D-line)	uncertainty
298.15	101.325	1.4938	0.0016

System: toluene; phases: Liquid
Property: Mass density, kg/m3 (Liquid); method: Vibrating tube method
Temperature, K	Pressure, kPa	Mass density, kg/m3	uncertainty
298.15	101.325	862.28	0.43

System: methanol; phases: Liquid
Property: Refractive index (Na D-line) (Liquid); method: ABBE:UFactor:4
Temperature, K	Pressure, kPa	Refractive index (Na D-line)	uncertainty
298.15	101.325	1.3262	0.0016

System: methanol; phases: Liquid
Property: Mass density, kg/m3 (Liquid); method: Vibrating tube method
Temperature, K	Pressure, kPa	Mass density, kg/m3	uncertainty
298.15	101.325	787.98	0.43

System: ethanol; phases: Liquid
Property: Refractive index (Na D-line) (Liquid); method: ABBE:UFactor:4
Temperature, K	Pressure, kPa	Refractive index (Na D-line)	uncertainty
298.15	101.325	1.3592	0.0016

System: ethanol; phases: Liquid
Property: Mass density, kg/m3 (Liquid); method: Vibrating tube method
Temperature, K	Pressure, kPa	Mass density, kg/m3	uncertainty
298.15	101.325	785.32	0.43

System: propan-1-ol; phases: Liquid
Property: Refractive index (Na D-line) (Liquid); method: ABBE:UFactor:4
Temperature, K	Pressure, kPa	Refractive index (Na D-line)	uncertainty
298.15	101.325	1.3829	0.0016

System: propan-1-ol; phases: Liquid
Property: Mass density, kg/m3 (Liquid); method: Vibrating tube method
Temperature, K	Pressure, kPa	Mass density, kg/m3	uncertainty
298.15	101.325	799.69	0.43

System: iodoethane; phases: Liquid
Property: Refractive index (Na D-line) (Liquid); method: ABBE:UFactor:4
Temperature, K	Pressure, kPa	Refractive index (Na D-line)	uncertainty
298.15	101.325	1.5095	0.0016

System: iodoethane; phases: Liquid
Property: Mass density, kg/m3 (Liquid); method: Vibrating tube method
Temperature, K	Pressure, kPa	Mass density, kg/m3	uncertainty
298.15	101.325	1923.75	0.76

System: iodoethane + toluene; phases: Liquid
Fixed: Temperature, K = 298.15
Fixed: Pressure, kPa = 101.32
Property: Refractive index (Na D-line) (Liquid); method: ABBE:UFactor:8
Mole fraction of toluene	Refractive index (Na D-line)	uncertainty
0.1279	1.5056	0.0025
0.2014	1.5038	0.0025
0.3085	1.5012	0.0025
0.3955	1.5002	0.0025
0.4476	1.499	0.0025
0.4678	1.4992	0.0025
0.4961	1.4983	0.0025
0.5735	1.4974	0.0025
0.6009	1.4968	0.0025
0.6974	1.4959	0.0025
0.7276	1.4957	0.0025
0.7984	1.4948	0.0025
0.8866	1.4943	0.0025
0.9322	1.494	0.0025

System: iodoethane + toluene; phases: Liquid
Fixed: Temperature, K = 298.15
Fixed: Pressure, kPa = 101.32
Property: Mass density, kg/m3 (Liquid); method: Vibrating tube method
Mole fraction of toluene	Mass density, kg/m3	uncertainty
0.1279	1749.5	1
0.2014	1655.8	1
0.3085	1526.9	0.9
0.3955	1428.3	0.9
0.4476	1371.7	0.8
0.4678	1350.2	0.8
0.4961	1320.5	0.8
0.5735	1241.7	0.8
0.6009	1214.7	0.8
0.6974	1122.5	0.7
0.7276	1094.6	0.7
0.7984	1031	0.7
0.8866	954.9	0.7
0.9322	916.9	0.7

System: methanol + iodoethane; phases: Liquid
Fixed: Temperature, K = 298.15
Fixed: Pressure, kPa = 101.32
Property: Refractive index (Na D-line) (Liquid); method: ABBE:UFactor:8
Mole fraction of methanol	Refractive index (Na D-line)	uncertainty
0.1198	1.4964	0.0025
0.1399	1.4938	0.0025
0.2068	1.4869	0.0025
0.26	1.4787	0.0025
0.4066	1.4578	0.0025
0.4234	1.4553	0.0025
0.4808	1.4451	0.0025
0.4954	1.4436	0.0025
0.5699	1.4302	0.0025
0.6771	1.4084	0.0025
0.7989	1.3821	0.0025
0.9094	1.3534	0.0025

System: methanol + iodoethane; phases: Liquid
Fixed: Temperature, K = 298.15
Fixed: Pressure, kPa = 101.32
Property: Mass density, kg/m3 (Liquid); method: Vibrating tube method
Mole fraction of methanol	Mass density, kg/m3	uncertainty
0.1198	1843.6	0.8
0.1399	1829.8	0.8
0.2068	1783	0.8
0.26	1743.6	0.8
0.4066	1622.2	0.8
0.4234	1606.9	0.8
0.4808	1552.1	0.8
0.4954	1537.5	0.8
0.5699	1458.5	0.9
0.6771	1329.5	0.9
0.7989	1156.8	1
0.9094	969.6	1.1

System: ethanol + iodoethane; phases: Liquid
Fixed: Temperature, K = 298.15
Fixed: Pressure, kPa = 101.32
Property: Refractive index (Na D-line) (Liquid); method: ABBE:UFactor:8
Mole fraction of ethanol	Refractive index (Na D-line)	uncertainty
0.0481	1.503	0.0025
0.0942	1.4971	0.0025
0.2302	1.479	0.0025
0.29	1.4701	0.0025
0.3989	1.4535	0.0025
0.4889	1.442	0.0025
0.6035	1.4241	0.0025
0.687	1.4093	0.0025
0.7935	1.3929	0.0025
0.8994	1.3761	0.0025
0.9522	1.3675	0.0025

System: ethanol + iodoethane; phases: Liquid
Fixed: Temperature, K = 298.15
Fixed: Pressure, kPa = 101.32
Property: Mass density, kg/m3 (Liquid); method: Vibrating tube method
Mole fraction of ethanol	Mass density, kg/m3	uncertainty
0.0481	1880.86	0.91
0.0942	1839.5	0.9
0.2302	1712.7	0.86
0.29	1654.4	0.87
0.3989	1543.6	0.85
0.4889	1447.12	0.86
0.6035	1316.7	0.86
0.687	1215.7	0.89
0.7935	1078.8	0.91
0.8994	933.27	0.94
0.9522	856.7	0.97

System: propan-1-ol + iodoethane; phases: Liquid
Fixed: Temperature, K = 298.15
Fixed: Pressure, kPa = 101.32
Property: Refractive index (Na D-line) (Liquid); method: ABBE:UFactor:8
Mole fraction of propan-1-ol	Refractive index (Na D-line)	uncertainty
0.0332	1.505	0.0025
0.0469	1.503	0.0025
0.0528	1.502	0.0025
0.2862	1.4688	0.0025
0.3861	1.4567	0.0025
0.4714	1.447	0.0025
0.5981	1.4299	0.0025
0.6984	1.418	0.0025
0.7894	1.4077	0.0025
0.8728	1.397	0.0025
0.9101	1.393	0.0025

System: propan-1-ol + iodoethane; phases: Liquid
Fixed: Temperature, K = 298.15
Fixed: Pressure, kPa = 101.32
Property: Mass density, kg/m3 (Liquid); method: Vibrating tube method
Mole fraction of propan-1-ol	Mass density, kg/m3	uncertainty
0.0332	1887.25	0.99
0.0469	1872.23	0.99
0.0528	1865.57	0.99
0.2862	1611.62	0.89
0.3861	1501.9	0.87
0.4714	1407.06	0.86
0.5981	1264.7	0.84
0.6984	1150.74	0.83
0.7894	1046.25	0.82
0.8728	949.54	0.82
0.9101	905.96	0.82

System: methanol + toluene; phases: Liquid
Fixed: Temperature, K = 298.15
Fixed: Pressure, kPa = 101.32
Property: Refractive index (Na D-line) (Liquid); method: ABBE:UFactor:8
Mole fraction of toluene	Refractive index (Na D-line)	uncertainty
0.0491	1.3464	0.0025
0.1058	1.366	0.0025
0.199	1.3921	0.0025
0.3361	1.4215	0.0025
0.4097	1.4337	0.0025
0.4501	1.4402	0.0025
0.5024	1.4478	0.0025
0.5393	1.4527	0.0025
0.5818	1.4579	0.0025
0.6961	1.47	0.0025
0.7764	1.4778	0.0025
0.8695	1.485	0.0025
0.9416	1.4904	0.0025

System: methanol + toluene; phases: Liquid
Fixed: Temperature, K = 298.15
Fixed: Pressure, kPa = 101.32
Property: Mass density, kg/m3 (Liquid); method: Vibrating tube method
Mole fraction of toluene	Mass density, kg/m3	uncertainty
0.0491	797.2	0.4
0.1058	806.2	0.4
0.199	818.1	0.4
0.3361	831.1	0.4
0.4097	836.6	0.4
0.4501	839.2	0.4
0.5024	842.4	0.4
0.5393	844.4	0.4
0.5818	846.6	0.4
0.6961	851.7	0.4
0.7764	854.8	0.4
0.8695	858	0.4
0.9416	860.2	0.4

System: ethanol + toluene; phases: Liquid
Fixed: Temperature, K = 298.15
Fixed: Pressure, kPa = 101.32
Property: Refractive index (Na D-line) (Liquid); method: ABBE:UFactor:8
Mole fraction of toluene	Refractive index (Na D-line)	uncertainty
0.0476	1.3699	0.0025
0.1205	1.385	0.0025
0.1948	1.3993	0.0025
0.2994	1.4163	0.0025
0.3992	1.4311	0.0025
0.4884	1.443	0.0025
0.5577	1.4518	0.0025
0.5994	1.4565	0.0025
0.7159	1.4682	0.0025
0.7646	1.4732	0.0025
0.8915	1.485	0.0025
0.8917	1.485	0.0025

System: ethanol + toluene; phases: Liquid
Fixed: Temperature, K = 298.15
Fixed: Pressure, kPa = 101.32
Property: Mass density, kg/m3 (Liquid); method: Vibrating tube method
Mole fraction of toluene	Mass density, kg/m3	uncertainty
0.0476	792.25	0.44
0.1205	801.71	0.44
0.1948	810	0.43
0.2994	820.14	0.43
0.3992	828.34	0.43
0.4884	834.71	0.43
0.5577	839.3	0.43
0.5994	841.81	0.43
0.7159	848.36	0.43
0.7646	850.92	0.43
0.8915	857.06	0.43
0.8917	857.09	0.43

System: propan-1-ol + toluene; phases: Liquid
Fixed: Temperature, K = 298.15
Fixed: Pressure, kPa = 101.32
Property: Refractive index (Na D-line) (Liquid); method: ABBE:UFactor:8
Mole fraction of toluene	Refractive index (Na D-line)	uncertainty
0.0609	1.3918	0.0025
0.0969	1.397	0.0025
0.1939	1.4108	0.0025
0.3036	1.4249	0.0025
0.3965	1.4349	0.0025
0.4988	1.4469	0.0025
0.5524	1.4509	0.0025
0.5932	1.4533	0.0025
0.692	1.466	0.0025
0.77	1.473	0.0025
0.9274	1.4873	0.0025
0.9343	1.488	0.0025

System: propan-1-ol + toluene; phases: Liquid
Fixed: Temperature, K = 298.15
Fixed: Pressure, kPa = 101.32
Property: Mass density, kg/m3 (Liquid); method: Vibrating tube method
Mole fraction of toluene	Mass density, kg/m3	uncertainty
0.0609	805.41	0.43
0.0969	808.53	0.43
0.1939	816.4	0.43
0.3036	824.3	0.43
0.3965	830.4	0.43
0.4988	836.58	0.43
0.5524	839.64	0.43
0.5932	841.82	0.43
0.692	847.02	0.43
0.77	851.01	0.43
0.9274	858.78	0.43
0.9343	859.08	0.43

System: methanol + iodoethane + toluene; phases: Liquid
Fixed: Temperature, K = 298.15
Fixed: Pressure, kPa = 101.32
Property: Refractive index (Na D-line) (Liquid); method: ABBE:UFactor:8
Mole fraction of toluene	Mole fraction of methanol	Refractive index (Na D-line)	uncertainty
0.0289	0.8914	1.3601	0.0032
0.0408	0.1206	1.4962	0.0032
0.0483	0.2438	1.4818	0.0032
0.0543	0.7367	1.3984	0.0032
0.0638	0.6994	1.4067	0.0032
0.0652	0.6107	1.4244	0.0032
0.0672	0.7534	1.3953	0.0032
0.0736	0.2117	1.486	0.0032
0.0906	0.2472	1.4818	0.0032
0.1015	0.7528	1.3969	0.0032
0.1103	0.5778	1.4315	0.0032
0.116	0.578	1.4316	0.0032
0.1288	0.345	1.4693	0.0032
0.1354	0.6739	1.414	0.0032
0.1721	0.4401	1.4554	0.0032
0.1848	0.4919	1.4472	0.0032
0.2292	0.5914	1.4308	0.0032
0.2472	0.4919	1.4475	0.0032
0.2721	0.5152	1.4439	0.0032
0.3141	0.4412	1.4554	0.0032
0.3608	0.407	1.4602	0.0032
0.3966	0.3872	1.4628	0.0032
0.4943	0.24	1.4802	0.0032
0.4968	0.3443	1.4676	0.0032
0.5436	0.2764	1.4753	0.0032
0.5679	0.2674	1.4759	0.0032
0.609	0.2344	1.479	0.0032
0.6765	0.2167	1.4798	0.0032
0.7294	0.1628	1.4843	0.0032
0.8908	0.0947	1.488	0.0032

System: methanol + iodoethane + toluene; phases: Liquid
Fixed: Temperature, K = 298.15
Fixed: Pressure, kPa = 101.32
Property: Mass density, kg/m3 (Liquid); method: Vibrating tube method
Mole fraction of toluene	Mole fraction of methanol	Mass density, kg/m3	uncertainty
0.0289	0.8914	881.9	0.7
0.0408	0.1206	876.2	0.8
0.0483	0.2438	890.7	1
0.0543	0.7367	902.2	0.7
0.0638	0.6994	911.2	0.7
0.0652	0.6107	912.8	0.7
0.0672	0.7534	914.6	0.7
0.0736	0.2117	928.8	0.8
0.0906	0.2472	952.1	1
0.1015	0.7528	946.7	0.7
0.1103	0.5778	960.2	0.8
0.116	0.578	966.1	0.8
0.1288	0.345	995.3	0.8
0.1354	0.6739	980.7	0.7
0.1721	0.4401	1035.4	0.8
0.1848	0.4919	1043	0.7
0.2292	0.5914	1074.6	0.7
0.2472	0.4919	1104.8	0.8
0.2721	0.5152	1124.7	0.7
0.3141	0.4412	1177.5	0.8
0.3608	0.407	1228.5	0.8
0.3966	0.3872	1266.2	0.7
0.4943	0.24	1404.5	0.8
0.4968	0.3443	1366.4	0.7
0.5436	0.2764	1431.4	0.7
0.5679	0.2674	1455.1	0.8
0.609	0.2344	1503.2	0.8
0.6765	0.2167	1564	0.8
0.7294	0.1628	1632.5	0.8
0.8908	0.0947	1786	0.8

System: ethanol + iodoethane + toluene; phases: Liquid
Fixed: Temperature, K = 298.15
Fixed: Pressure, kPa = 101.32
Property: Refractive index (Na D-line) (Liquid); method: ABBE:UFactor:8
Mole fraction of toluene	Mole fraction of ethanol	Refractive index (Na D-line)	uncertainty
0.0493	0.0407	1.5028	0.0032
0.05	0.1561	1.4878	0.0032
0.0537	0.4772	1.4431	0.0032
0.0643	0.2827	1.4706	0.0032
0.0854	0.6599	1.4166	0.0032
0.0854	0.6599	1.4166	0.0032
0.0896	0.8303	1.3911	0.0032
0.092	0.0599	1.4993	0.0032
0.0925	0.1493	1.488	0.0032
0.1446	0.0852	1.4951	0.0032
0.1534	0.2699	1.4718	0.0032
0.181	0.4289	1.4507	0.0032
0.2214	0.5381	1.4363	0.0032
0.2224	0.4112	1.4532	0.0032
0.2273	0.0769	1.4946	0.0032
0.2445	0.639	1.4231	0.0032
0.3558	0.0545	1.4949	0.0032
0.3939	0.3695	1.459	0.0032
0.3973	0.4974	1.4436	0.0032
0.402	0.2003	1.4787	0.0032
0.4417	0.0325	1.4958	0.0032
0.4982	0.2727	1.4701	0.0032
0.5328	0.0834	1.4898	0.0032
0.5619	0.3198	1.4649	0.0032
0.636	0.0744	1.4897	0.0032
0.6404	0.1137	1.486	0.0032
0.6638	0.0516	1.4916	0.0032
0.7193	0.2171	1.4753	0.0032
0.8006	0.0709	1.4889	0.0032
0.8779	0.0476	1.4904	0.0032

System: ethanol + iodoethane + toluene; phases: Liquid
Fixed: Temperature, K = 298.15
Fixed: Pressure, kPa = 101.32
Property: Mass density, kg/m3 (Liquid); method: Vibrating tube method
Mole fraction of toluene	Mole fraction of ethanol	Mass density, kg/m3	uncertainty
0.0493	0.0407	1818.54	1.21
0.05	0.1561	1712.5	1.17
0.0537	0.4772	1385.15	1.13
0.0643	0.2827	1571.88	1.14
0.0854	0.6599	1132.59	1.13
0.0854	0.6599	1132.59	1.13
0.0896	0.8303	908.79	1.16
0.092	0.0599	1743.4	1.16
0.0925	0.1493	1661.13	1.17
0.1446	0.0852	1651.5	1.13
0.1534	0.2699	1466.85	1.06
0.181	0.4289	1270.88	1.07
0.2214	0.5381	1102.6	1.06
0.2224	0.4112	1238.51	1.12
0.2273	0.0769	1555.22	1.06
0.2445	0.639	958.48	1.1
0.3558	0.0545	1424.57	1.02
0.3939	0.3695	1084.32	1.03
0.3973	0.4974	946.27	1.02
0.402	0.2003	1240.29	0.96
0.4417	0.0325	1349.71	0.97
0.4982	0.2727	1069.77	0.94
0.5328	0.0834	1209.62	0.94
0.5619	0.3198	959.7	0.93
0.636	0.0744	1115.92	0.93
0.6404	0.1137	1076.76	0.91
0.6638	0.0516	1109.53	0.88
0.7193	0.2171	908.78	0.89
0.8006	0.0709	968.1	0.88
0.8779	0.0476	921.8	0.86

System: propan-1-ol + iodoethane + toluene; phases: Liquid
Fixed: Temperature, K = 298.15
Fixed: Pressure, kPa = 101.32
Property: Refractive index (Na D-line) (Liquid); method: ABBE:UFactor:8
Mole fraction of toluene	Mole fraction of propan-1-ol	Refractive index (Na D-line)	uncertainty
0.0473	0.0571	1.5001	0.0032
0.0504	0.4822	1.4447	0.0032
0.0532	0.2869	1.4694	0.0032
0.0571	0.1462	1.4878	0.0032
0.081	0.6568	1.4242	0.0032
0.0826	0.084	1.4955	0.0032
0.0874	0.8222	1.4057	0.0032
0.0976	0.1411	1.4876	0.0032
0.1297	0.0835	1.4945	0.0032
0.1578	0.2729	1.4701	0.0032
0.1902	0.3967	1.4551	0.0032
0.2044	0.6118	1.4311	0.0032
0.2141	0.0801	1.4932	0.0032
0.236	0.4138	1.4532	0.0032
0.2437	0.4955	1.4442	0.0032
0.2724	0.248	1.4721	0.0032
0.3499	0.0779	1.4912	0.0032
0.3696	0.3597	1.4594	0.0032
0.3944	0.4643	1.4486	0.0032
0.4148	0.1857	1.4782	0.0032
0.439	0.0411	1.4942	0.0032
0.4952	0.2597	1.4698	0.0032
0.5314	0.0759	1.4892	0.0032
0.533	0.3409	1.4616	0.0032
0.6311	0.0828	1.4876	0.0032
0.6349	0.1252	1.4832	0.0032
0.6678	0.0499	1.4908	0.0032
0.7165	0.2114	1.4743	0.0032
0.7824	0.096	1.4854	0.0032
0.8801	0.048	1.4897	0.0032

System: propan-1-ol + iodoethane + toluene; phases: Liquid
Fixed: Temperature, K = 298.15
Fixed: Pressure, kPa = 101.32
Property: Mass density, kg/m3 (Liquid); method: Vibrating tube method
Mole fraction of toluene	Mole fraction of propan-1-ol	Mass density, kg/m3	uncertainty
0.0473	0.0571	1795.94	1.23
0.0504	0.4822	1332.53	1.08
0.0532	0.2869	1541.83	1.14
0.0571	0.1462	1687.6	1.2
0.081	0.6568	1103.18	1.05
0.0826	0.084	1720.18	1.2
0.0874	0.8222	910.71	1.04
0.0976	0.1411	1640.39	1.18
0.1297	0.0835	1659.84	1.17
0.1578	0.2729	1427.24	1.07
0.1902	0.3967	1259.44	1.05
0.2044	0.6118	1015.64	1.02
0.2141	0.0801	1558.48	1.11
0.236	0.4138	1190.24	1.03
0.2437	0.4955	1096.59	1
0.2724	0.248	1320.07	1.04
0.3499	0.0779	1403.19	1.05
0.3696	0.3597	1102.73	0.96
0.3944	0.4643	972.87	0.96
0.4148	0.1857	1227.65	0.96
0.439	0.0411	1341.8	0.99
0.4952	0.2597	1074.49	0.95
0.5314	0.0759	1213.3	0.95
0.533	0.3409	960.1	0.93
0.6311	0.0828	1109.67	0.93
0.6349	0.1252	1067.13	0.9
0.6678	0.0499	1105.27	0.91
0.7165	0.2114	914.08	0.89
0.7824	0.096	960.25	0.89
0.8801	0.048	919.04	0.88
