Measured thermophysical data. Measurement and prediction of (solid + liquid) equilibria of (alkanediamine + biphenyl) mixtures
Source: J. Chem. Thermodyn., 2006, 10.1016/j.jct.2005.12.004
Compound 1: 1,8-diaminooctane, C8H20N2, InChI=1S/C8H20N2/c9-7-5-3-1-2-4-6-8-10/h1-10H2, purity 99%
Compound 2: 1,9-diaminononane, C9H22N2, InChI=1S/C9H22N2/c10-8-6-4-2-1-3-5-7-9-11/h1-11H2, purity 98%
Compound 3: 1,12-dodecanediamine, C12H28N2, InChI=1S/C12H28N2/c13-11-9-7-5-3-1-2-4-6-8-10-12-14/h1-14H2, purity 98%
Compound 4: biphenyl, C12H10, InChI=1S/C12H10/c1-3-7-11(8-4-1)12-9-5-2-6-10-12/h1-10H, purity 99%
Compound 5: 1,6-hexanediamine, C6H16N2, InChI=1S/C6H16N2/c7-5-3-1-2-4-6-8/h1-8H2, purity 99%

System: 1,8-diaminooctane; phases: Crystal, Liquid, Air at 1 atmosphere
Property: Molar enthalpy of transition or fusion, kJ/mol (Crystal); method: DSC
Molar enthalpy of transition or fusion, kJ/mol	uncertainty
50.51	1.25

System: 1,8-diaminooctane; phases: Crystal, Liquid, Air at 1 atmosphere
Property: Normal melting temperature, K (Crystal); method: DTA
Normal melting temperature, K	uncertainty
324.88	0.53

System: 1,9-diaminononane; phases: Crystal 1, Liquid, Air at 1 atmosphere
Property: Molar enthalpy of transition or fusion, kJ/mol (Crystal 1); method: DSC
Molar enthalpy of transition or fusion, kJ/mol	uncertainty
35.43	1.07

System: 1,9-diaminononane; phases: Crystal 2, Crystal 1, Air at 1 atmosphere
Property: Molar enthalpy of transition or fusion, kJ/mol (Crystal 2); method: DSC
Molar enthalpy of transition or fusion, kJ/mol	uncertainty
8.56	0.84

System: 1,9-diaminononane; phases: Crystal 2, Crystal 1, Air at 1 atmosphere
Property: Triple point temperature, K (Crystal 2); method: DTA
Triple point temperature, K	uncertainty
301.14	0.53

System: 1,9-diaminononane; phases: Crystal 1, Liquid, Air at 1 atmosphere
Property: Normal melting temperature, K (Crystal 1); method: DTA
Normal melting temperature, K	uncertainty
307.77	0.53

System: 1,12-dodecanediamine; phases: Crystal, Liquid, Air at 1 atmosphere
Property: Molar enthalpy of transition or fusion, kJ/mol (Crystal); method: DSC
Molar enthalpy of transition or fusion, kJ/mol	uncertainty
67.05	1.49

System: 1,12-dodecanediamine; phases: Crystal, Liquid, Air at 1 atmosphere
Property: Normal melting temperature, K (Crystal); method: DTA
Normal melting temperature, K	uncertainty
341.84	0.53

System: biphenyl; phases: Crystal, Liquid, Air at 1 atmosphere
Property: Molar enthalpy of transition or fusion, kJ/mol (Crystal); method: DSC
Molar enthalpy of transition or fusion, kJ/mol	uncertainty
19.69	0.9

System: biphenyl; phases: Crystal, Liquid, Air at 1 atmosphere
Property: Normal melting temperature, K (Crystal); method: DTA
Normal melting temperature, K	uncertainty
342.37	0.53

System: 1,6-hexanediamine; phases: Crystal, Liquid, Air at 1 atmosphere
Property: Molar enthalpy of transition or fusion, kJ/mol (Crystal); method: DSC
Molar enthalpy of transition or fusion, kJ/mol	uncertainty
39.38	1.11

System: 1,6-hexanediamine; phases: Crystal, Liquid, Air at 1 atmosphere
Property: Normal melting temperature, K (Crystal); method: DTA
Normal melting temperature, K	uncertainty
311.6	0.53

System: biphenyl + 1,8-diaminooctane; phases: Crystal, Crystal, Liquid, Air at 1 atmosphere
Property: Eutectic temperature, K (Crystal); method: PHASDIA:
Eutectic temperature, K	uncertainty
315.34	2

System: biphenyl + 1,8-diaminooctane; phases: Crystal, Crystal, Liquid, Air at 1 atmosphere
Property: Eutectic composition: mole fraction of 1,8-diaminooctane (Crystal); method: PHASDIA:
Eutectic composition: mole fraction of 1,8-diaminooctane	uncertainty
0.5668	0.05

System: biphenyl + 1,8-diaminooctane; phases: Liquid, Crystal
Fixed: Pressure, kPa = 101
Property: Solid-liquid equilibrium temperature, K (Liquid); method: DTA:UFactor:4
Mole fraction of 1,8-diaminooctane	Solid-liquid equilibrium temperature, K	uncertainty
0	342.37	1.55
0.0234	340.16	1.55
0.0471	337.88	1.55
0.0735	335.08	1.55
0.1004	332.83	1.55
0.1505	330.12	1.55
0.1991	326.07	1.55
0.2392	324.24	1.55
0.2724	322.27	1.55
0.3023	321.35	1.55
0.3962	318.54	1.55
0.4428	317.38	1.55
0.4964	316.46	1.55

System: biphenyl + 1,8-diaminooctane; phases: Liquid, Crystal
Fixed: Pressure, kPa = 101
Property: Solid-liquid equilibrium temperature, K (Liquid); method: DTA:UFactor:4
Mole fraction of 1,8-diaminooctane	Solid-liquid equilibrium temperature, K	uncertainty
0.5668	315.34	1.55
0.5994	316.05	1.55
0.6737	317.44	1.55
0.7475	319.04	1.55
0.8012	319.91	1.55
0.8752	321.75	1.55
0.9506	323.32	1.55
1	324.88	1.55

System: biphenyl + 1,9-diaminononane; phases: Crystal, Crystal, Liquid, Air at 1 atmosphere
Property: Eutectic temperature, K (Crystal); method: PHASDIA:
Eutectic temperature, K	uncertainty
301.88	2

System: biphenyl + 1,9-diaminononane; phases: Crystal, Crystal, Liquid, Air at 1 atmosphere
Property: Eutectic composition: mole fraction of 1,9-diaminononane (Crystal); method: PHASDIA::
Eutectic composition: mole fraction of 1,9-diaminononane	uncertainty
0.701	0.05

System: biphenyl + 1,9-diaminononane; phases: Liquid, Crystal
Fixed: Pressure, kPa = 101
Property: Solid-liquid equilibrium temperature, K (Liquid); method: DTA:UFactor:4
Mole fraction of 1,9-diaminononane	Solid-liquid equilibrium temperature, K	uncertainty
0	342.37	1.55
0.0234	339.86	1.55
0.0558	336.94	1.55
0.1	333.63	1.55
0.1574	329.75	1.55
0.1993	329.09	1.58
0.2021	328.26	1.58
0.2343	325.19	1.55
0.2804	322.81	1.55
0.3002	321.33	1.55
0.3561	317.64	1.55
0.4025	315.6	1.55
0.4504	313.84	1.55
0.4873	311.5	1.55
0.5265	309.71	1.55
0.6006	306.1	1.55
0.6402	304.63	1.55
0.6621	303.16	1.55
0.7017	301.88	1.55

System: biphenyl + 1,9-diaminononane; phases: Liquid, Crystal
Fixed: Pressure, kPa = 101
Property: Solid-liquid equilibrium temperature, K (Liquid); method: DTA:UFactor:4
Mole fraction of 1,9-diaminononane	Solid-liquid equilibrium temperature, K	uncertainty
0.7291	302.24	1.55
0.7523	303.16	1.55
0.7835	303.55	1.55
0.8052	303.95	1.55
0.9004	305.93	1.55
0.9512	306.9	1.55
1	307.77	1.55

System: biphenyl + 1,12-dodecanediamine; phases: Crystal, Crystal, Liquid, Air at 1 atmosphere
Property: Eutectic temperature, K (Crystal); method: PHASDIA:
Eutectic temperature, K	uncertainty
328.06	2

System: biphenyl + 1,12-dodecanediamine; phases: Crystal, Crystal, Liquid, Air at 1 atmosphere
Property: Eutectic composition: mole fraction of 1,12-dodecanediamine (Crystal); method: PHASDIA::
Eutectic composition: mole fraction of 1,12-dodecanediamine	uncertainty
0.3914	0.05

System: biphenyl + 1,12-dodecanediamine; phases: Liquid, Crystal
Fixed: Pressure, kPa = 101
Property: Solid-liquid equilibrium temperature, K (Liquid); method: DTA:UFactor:4
Mole fraction of 1,12-dodecanediamine	Solid-liquid equilibrium temperature, K	uncertainty
0	342.37	1.55
0.0355	341.2	1.55
0.0784	340.33	1.55
0.1049	339.25	1.55
0.1495	338.67	1.55
0.1613	336.71	1.55
0.2041	335.67	1.55
0.251	332.91	1.55
0.3048	331.11	1.55
0.3388	328.95	1.55

System: biphenyl + 1,12-dodecanediamine; phases: Liquid, Crystal
Fixed: Pressure, kPa = 101
Property: Solid-liquid equilibrium temperature, K (Liquid); method: DTA:UFactor:4
Mole fraction of 1,12-dodecanediamine	Solid-liquid equilibrium temperature, K	uncertainty
0.3914	328.06	1.55
0.4512	329.47	1.55
0.5074	331.99	1.55
0.6111	333.35	1.55
0.7054	335.44	1.55
0.7708	337.66	1.55
0.8358	338.69	1.55
0.8919	339.82	1.55
0.9568	341.11	1.55
1	341.84	1.55

System: biphenyl + 1,6-hexanediamine; phases: Crystal, Crystal, Liquid, Air at 1 atmosphere
Property: Eutectic temperature, K (Crystal); method: PHASDIA:
Eutectic temperature, K	uncertainty
296.65	2

System: biphenyl + 1,6-hexanediamine; phases: Crystal, Crystal, Liquid, Air at 1 atmosphere
Property: Eutectic composition: mole fraction of 1,6-hexanediamine (Crystal); method: PHASDIA:
Eutectic composition: mole fraction of 1,6-hexanediamine	uncertainty
0.7752	0.05

System: biphenyl + 1,6-hexanediamine; phases: Liquid, Crystal
Fixed: Pressure, kPa = 101
Property: Solid-liquid equilibrium temperature, K (Liquid); method: DTA:UFactor:4
Mole fraction of 1,6-hexanediamine	Solid-liquid equilibrium temperature, K	uncertainty
0	342.37	1.55
0.0851	335.3	1.55
0.1059	333.89	1.55
0.2174	328.37	1.55
0.3124	324.75	1.55
0.3998	319.65	1.55
0.4493	315.38	1.55
0.5076	311.44	1.55
0.6034	307.41	1.55
0.7029	302.17	1.55

System: biphenyl + 1,6-hexanediamine; phases: Liquid, Crystal
Fixed: Pressure, kPa = 101
Property: Solid-liquid equilibrium temperature, K (Liquid); method: DTA:UFactor:4
Mole fraction of 1,6-hexanediamine	Solid-liquid equilibrium temperature, K	uncertainty
0.7752	296.65	1.55
0.8491	304.4	1.55
0.8996	306.85	1.55
0.9315	309.37	1.55
0.9743	310.77	1.55
1	311.6	1.55
