Measured thermophysical data. Thermochemical study of rhodium(III) acetylacetonate
Source: J. Chem. Thermodyn., 2016, 10.1016/j.jct.2016.07.031
Compound 1: tris(2,4-pentanedionato-O,O')rhodium, C15H21O6Rh, InChI=1S/3C5H7O2.Rh/c3*1-4(6)3-5(2)7;/h3*3H,1-2H3;/q3*-1;+3

System: tris(2,4-pentanedionato-O,O')rhodium; phases: Crystal, Gas
Property: Vapor or sublimation pressure, kPa (Crystal); method: Transpiration method
Temperature, K	Vapor or sublimation pressure, kPa	uncertainty
411.7	0.00057	3.6e-05
416.5	0.000863	5.5e-05
420.5	0.0012	8e-05
425.3	0.00181	0.00012
403.6	0.000257	1.9e-05
398.3	0.000156	1.7e-05
430.4	0.00268	0.00017
435.4	0.00413	0.00026
439.4	0.00555	0.00035
445.2	0.00868	0.00055
449	0.0127	0.0008
452.1	0.0154	0.001
458.2	0.023	0.0015
463	0.0342	0.0021

System: tris(2,4-pentanedionato-O,O')rhodium; phases: Crystal, Gas
Property: Vapor or sublimation pressure, kPa (Crystal); method: Closed cell (Static) method
Temperature, K	Vapor or sublimation pressure, kPa	uncertainty
475.2	0.077	0.06
473.4	0.069	0.06
478.9	0.106	0.061
484	0.149	0.061
463.4	0.038	0.06
470	0.052	0.06
479.5	0.107	0.061
489.8	0.206	0.061
500.7	0.412	0.066
512.5	0.827	0.084
520.9	1.339	0.086
458.5	0.024	0.06
468.8	0.05	0.06
478.7	0.105	0.061
484.9	0.156	0.061
488.8	0.184	0.061
493.4	0.253	0.062
498	0.346	0.064
505.7	0.553	0.068
509.5	0.689	0.072

System: tris(2,4-pentanedionato-O,O')rhodium; phases: Crystal
Fixed: Pressure, kPa = 101.325
Property: Molar heat capacity at constant pressure, J/K/mol (Crystal); method: Small sample (50 mg) DSC
Temperature, K	Molar heat capacity at constant pressure, J/K/mol	uncertainty
188.4	322.3	11.2
188.6	322.5	11.3
188.7	322.6	11.3
188.9	322.9	11.3
189	323.2	11.3
189.2	323.6	11.2
189.4	323.8	11.3
189.5	324	11.2
189.7	324.3	11.2
189.8	324.5	11.2
190	324.7	11.2
190.2	324.9	11.3
190.3	325.2	11.2
190.5	325.4	11.2
190.6	325.6	11.2
190.8	325.8	11.2
191	326	11.3
191.1	326.2	11.3
191.3	326.4	11.3
191.4	326.6	11.3
191.6	326.9	11.3
191.8	327.1	11.3
191.9	327.3	11.3
192.1	327.5	11.3
192.2	327.7	11.3
192.4	327.9	11.3
192.6	328.1	11.3
192.7	328.3	11.3
192.9	328.5	11.3
193	328.7	11.3
193.2	328.9	11.3
193.4	329.1	11.3
193.5	329.3	11.3
193.7	329.5	11.3
193.9	329.8	11.4
194	330	11.4
194.2	330.2	11.4
194.3	330.4	11.4
194.5	330.6	11.4
194.7	330.8	11.4
194.8	331	11.4
195	331.2	11.4
195.1	331.4	11.4
195.3	331.6	11.4
195.5	331.8	11.4
195.6	332	11.4
195.8	332.2	11.4
196	332.4	11.4
196.1	332.6	11.4
196.3	332.8	11.5
196.4	333	11.5
196.6	333.2	11.5
196.8	333.4	11.5
196.9	333.7	11.5
197.1	333.9	11.5
197.2	334.1	11.5
197.4	334.3	11.5
197.6	334.5	11.5
197.7	334.7	11.5
197.9	334.9	11.5
198	335.1	11.5
198.2	335.3	11.5
198.4	335.5	11.5
198.5	335.7	11.5
198.7	335.9	11.5
198.9	336.1	11.6
199	336.3	11.6
199.2	336.5	11.6
199.3	336.7	11.6
199.5	336.9	11.6
199.7	337.1	11.6
199.8	337.3	11.6
200	337.5	11.6
200.1	337.7	11.6
200.3	337.9	11.6
200.5	338.1	11.6
200.6	338.3	11.6
200.8	338.5	11.6
201	338.7	11.6
201.1	338.9	11.6
201.3	339.1	11.6
201.4	339.3	11.6
201.6	339.5	11.6
201.8	339.7	11.6
201.9	339.9	11.6
202.1	340.1	11.6
202.2	340.3	11.7
202.4	340.5	11.7
202.6	340.7	11.7
202.7	340.9	11.7
202.9	341.1	11.7
203.1	341.3	11.7
203.2	341.5	11.7
203.4	341.6	11.7
203.5	341.8	11.7
203.7	342	11.7
203.9	342.2	11.7
204	342.4	11.7
204.2	342.6	11.7
204.4	342.8	11.7
204.5	343	11.7
204.7	343.2	11.7
204.8	343.4	11.7
205	343.6	11.7
205.2	343.8	11.7
205.3	344	11.8
205.5	344.2	11.8
205.7	344.4	11.8
205.8	344.6	11.8
206	344.8	11.8
206.1	345	11.8
206.3	345.2	11.8
206.5	345.4	11.8
206.6	345.6	11.8
206.8	345.8	11.8
206.9	346	11.8
207.1	346.2	11.8
207.3	346.3	11.8
207.4	346.5	11.8
207.6	346.7	11.8
207.8	346.9	11.8
207.9	347.1	11.8
208.1	347.3	11.9
208.2	347.5	11.9
208.4	347.7	11.9
208.6	347.9	11.9
208.7	348	11.9
208.9	348.2	11.9
209.1	348.4	11.9
209.2	348.6	11.9
209.4	348.8	11.9
209.5	349	11.9
209.7	349.2	11.9
209.9	349.4	11.9
210	349.6	11.9
210.2	349.7	11.9
210.4	349.9	11.9
210.5	350.1	11.9
210.7	350.3	11.9
210.8	350.5	11.9
211	350.7	12
211.2	350.9	12
211.3	351	12
211.5	351.2	12
211.7	351.4	12
211.8	351.6	12
212	351.8	12
212.1	352	12
212.3	352.2	12
212.5	352.3	12
212.6	352.5	12
212.8	352.7	12
213	352.9	12
213.1	353.1	12
213.3	353.3	12
213.4	353.5	12
213.6	353.7	12.1
213.8	353.8	12.1
213.9	354	12.1
214.1	354.2	12.1
214.3	354.4	12.1
214.4	354.6	12.1
214.6	354.8	12.1
214.7	355	12.1
214.9	355.1	12.1
215.1	355.3	12.1
215.2	355.5	12.1
215.4	355.7	12.1
215.6	355.9	12.1
215.7	356.1	12.1
215.9	356.3	12.1
216	356.5	12.1
216.2	356.7	12.2
216.4	356.9	12.2
216.5	357	12.2
216.7	357.2	12.2
216.9	357.4	12.2
217	357.6	12.2
217.2	357.8	12.2
217.3	358	12.2
217.5	358.2	12.2
217.7	358.4	12.2
217.8	358.6	12.2
218	358.8	12.2
218.2	359	12.2
218.3	359.2	12.2
218.5	359.4	12.2
218.6	359.6	12.2
218.8	359.7	12.2
219	359.9	12.3
219.1	360.1	12.3
219.3	360.3	12.3
219.5	360.5	12.3
219.6	360.7	12.3
219.8	360.9	12.3
219.9	361.1	12.3
220.1	361.3	12.3
220.3	361.5	12.3
220.4	361.7	12.3
220.6	361.8	12.3
220.8	362	12.3
220.9	362.2	12.3
221.1	362.4	12.3
221.3	362.6	12.3
221.4	362.8	12.3
221.6	363	12.4
221.7	363.1	12.4
221.9	363.3	12.4
222.1	363.5	12.4
222.2	363.7	12.4
222.4	363.9	12.4
222.6	364.1	12.4
222.7	364.3	12.4
222.9	364.5	12.4
223.1	364.7	12.4
223.2	364.9	12.4
223.4	365	12.4
223.5	365.2	12.4
223.7	365.4	12.4
223.9	365.6	12.4
224	365.8	12.4
224.2	366	12.5
224.4	366.2	12.5
224.5	366.4	12.5
224.7	366.6	12.5
224.8	366.8	12.5
225	366.9	12.5
225.2	367.1	12.5
225.3	367.3	12.5
225.5	367.5	12.5
225.7	367.7	12.5
225.8	367.9	12.5
226	368.1	12.5
226.2	368.3	12.5
226.3	368.5	12.5
226.5	368.7	12.5
226.6	368.9	12.5
226.8	369.1	12.6
227	369.3	12.6
227.1	369.5	12.6
227.3	369.7	12.6
227.5	369.9	12.6
227.6	370	12.6
227.8	370.2	12.6
228	370.4	12.6
228.1	370.6	12.6
228.3	370.8	12.6
228.4	371	12.6
228.6	371.2	12.6
228.8	371.4	12.6
228.9	371.6	12.6
229.1	371.7	12.6
229.3	371.9	12.6
229.4	372.1	12.6
229.6	372.3	12.6
229.8	372.5	12.7
229.9	372.7	12.7
230.1	372.9	12.7
230.2	373	12.7
230.4	373.2	12.7
230.6	373.4	12.7
230.7	373.6	12.7
230.9	373.8	12.7
231.1	374	12.7
231.2	374.1	12.7
231.4	374.3	12.7
231.6	374.5	12.7
231.7	374.7	12.7
231.9	374.9	12.7
232	375.1	12.7
232.2	375.3	12.7
232.4	375.5	12.7
232.5	375.6	12.7
232.7	375.8	12.7
232.9	376	12.8
233	376.2	12.8
233.2	376.4	12.8
233.4	376.5	12.8
233.5	376.7	12.8
233.7	376.9	12.8
233.9	377.1	12.8
234	377.3	12.8
234.2	377.4	12.8
234.3	377.6	12.8
234.5	377.8	12.8
234.7	378	12.8
234.8	378.2	12.8
235	378.4	12.8
235.2	378.5	12.8
235.3	378.7	12.8
235.5	378.9	12.8
235.7	379.1	12.8
235.8	379.3	12.9
236	379.4	12.8
236.2	379.6	12.9
236.3	379.8	12.9
236.5	380	12.9
236.6	380.2	12.9
236.8	380.3	12.9
237	380.5	12.9
237.1	380.7	12.9
237.3	380.9	12.9
237.5	381.1	12.9
237.6	381.2	12.9
237.8	381.4	12.9
238	381.6	12.9
238.1	381.8	12.9
238.3	382	12.9
238.5	382.1	12.9
238.6	382.3	13
238.8	382.5	12.9
238.9	382.7	13
239.1	382.9	13
239.3	383	13
239.4	383.2	13
239.6	383.4	13
239.8	383.6	13
239.9	383.7	13
240.1	383.9	13
240.3	384.1	13
240.4	384.3	13
240.6	384.4	13
240.8	384.6	13
240.9	384.8	13
241.1	385	13
241.2	385.1	13
241.4	385.3	13
241.6	385.5	13
241.7	385.7	13
241.9	385.8	13
242.1	386	13.1
242.2	386.2	13.1
242.4	386.4	13.1
242.6	386.6	13.1
242.7	386.7	13.1
242.9	386.9	13.1
243.1	387.1	13.1
243.2	387.3	13.1
243.4	387.5	13.1
243.6	387.6	13.1
243.7	387.8	13.1
243.9	388	13.1
244	388.2	13.1
244.2	388.3	13.1
244.4	388.5	13.2
244.5	388.7	13.2
244.7	388.9	13.1
244.9	389	13.2
245	389.2	13.2
245.2	389.4	13.2
245.4	389.6	13.2
245.5	389.8	13.2
245.7	389.9	13.2
245.9	390.1	13.2
246	390.3	13.2
246.2	390.4	13.2
246.3	390.6	13.2
246.5	390.8	13.2
246.7	391	13.2
246.8	391.2	13.2
247	391.4	13.2
247.2	391.5	13.2
247.3	391.7	13.2
247.5	391.9	13.2
247.7	392.1	13.3
247.8	392.3	13.3
248	392.4	13.3
248.2	392.6	13.3
248.3	392.8	13.3
248.5	393	13.3
248.7	393.1	13.3
248.8	393.3	13.3
249	393.5	13.3
249.1	393.6	13.3
249.3	393.8	13.3
249.5	394	13.3
249.6	394.2	13.3
249.8	394.3	13.3
250	394.5	13.3
250.1	394.7	13.3
250.3	394.9	13.3
250.5	395	13.3
250.6	395.2	13.4
250.8	395.4	13.3
251	395.5	13.4
251.1	395.7	13.4
251.3	395.9	13.4
251.5	396	13.4
251.6	396.2	13.4
251.8	396.4	13.4
251.9	396.6	13.4
252.1	396.7	13.4
252.3	396.9	13.4
252.4	397.1	13.4
252.6	397.3	13.4
252.8	397.5	13.4
252.9	397.6	13.4
253.1	397.8	13.4
253.3	398	13.5
253.4	398.2	13.5
253.6	398.4	13.5
253.8	398.5	13.5
253.9	398.7	13.5
254.1	398.9	13.5
254.3	399.1	13.5
254.4	399.3	13.5
254.6	399.4	13.5
254.8	399.6	13.5
254.9	399.8	13.5
255.1	400	13.5
255.3	400.2	13.5
255.4	400.3	13.5
255.6	400.5	13.5
255.7	400.7	13.5
255.9	400.9	13.5
256.1	401.1	13.6
256.2	401.3	13.6
256.4	401.4	13.6
256.6	401.6	13.6
256.7	401.8	13.6
256.9	402	13.6
257.1	402.2	13.6
257.2	402.3	13.6
257.4	402.5	13.6
257.6	402.7	13.6
257.7	402.9	13.6
257.9	403.1	13.6
258.1	403.3	13.6
258.2	403.4	13.6
258.4	403.6	13.6
258.6	403.8	13.6
258.7	404	13.6
258.9	404.2	13.7
259.1	404.3	13.7
259.2	404.5	13.7
259.4	404.7	13.7
259.5	404.9	13.7
259.7	405.1	13.7
259.9	405.2	13.7
260	405.4	13.7
260.2	405.6	13.7
260.4	405.8	13.7
260.5	406	13.7
260.7	406.1	13.7
260.9	406.3	13.7
261	406.5	13.7
261.2	406.7	13.7
261.4	406.9	13.7
261.5	407.1	13.7
261.7	407.2	13.8
261.9	407.4	13.8
262	407.6	13.8
262.2	407.8	13.8
262.4	408	13.8
262.5	408.1	13.8
262.7	408.3	13.8
262.9	408.5	13.8
263	408.7	13.8
263.2	408.9	13.8
263.4	409	13.8
263.5	409.2	13.8
263.7	409.4	13.8
263.8	409.6	13.8
264	409.7	13.8
264.2	409.9	13.8
264.3	410.1	13.9
264.5	410.3	13.9
264.7	410.4	13.8
264.8	410.6	13.9
265	410.8	13.9
265.2	411	13.9
265.3	411.2	13.9
265.5	411.3	13.9
265.7	411.5	13.9
265.8	411.7	13.9
266	411.9	13.9
266.2	412.1	13.9
266.3	412.2	13.9
266.5	412.4	13.9
266.7	412.6	13.9
266.8	412.8	13.9
267	413	13.9
267.2	413.1	13.9
267.3	413.3	13.9
267.5	413.5	13.9
267.7	413.7	14
267.8	413.9	14
268	414	14
268.2	414.2	14
268.3	414.4	14
268.5	414.6	14
268.7	414.7	14
268.8	414.9	14
269	415.1	14
269.2	415.3	14
269.3	415.4	14
269.5	415.6	14
269.6	415.8	14
269.8	415.9	14
270	416.1	14
270.1	416.3	14
270.3	416.4	14
270.5	416.6	14
270.6	416.8	14
270.8	416.9	14
271	417.1	14
271.1	417.3	14.1
271.3	417.5	14.1
271.5	417.6	14.1
271.6	417.8	14.1
271.8	418	14.1
272	418.1	14.1
272.1	418.3	14.1
272.3	418.5	14.1
272.5	418.6	14.1
272.6	418.8	14.1
272.8	419	14.1
273	419.2	14.1
273.1	419.3	14.1
273.3	419.5	14.1
273.5	419.7	14.1
273.6	419.8	14.1
273.8	420	14.1
274	420.2	14.1
274.1	420.3	14.2
274.3	420.5	14.2
274.5	420.7	14.2
274.6	420.9	14.2
274.8	421	14.2
275	421.2	14.2
275.1	421.4	14.2
275.3	421.6	14.2
275.5	421.7	14.2
275.6	421.9	14.2
275.8	422.1	14.2
276	422.2	14.2
276.1	422.4	14.2
276.3	422.6	14.2
276.5	422.7	14.2
276.6	422.9	14.2
276.8	423.1	14.2
277	423.2	14.3
277.1	423.4	14.3
277.3	423.6	14.3
277.5	423.8	14.3
277.6	423.9	14.3
277.8	424.1	14.3
278	424.3	14.3
278.1	424.4	14.3
278.3	424.6	14.3
278.5	424.8	14.3
278.6	424.9	14.3
278.8	425.1	14.3
279	425.3	14.3
279.1	425.5	14.3
279.3	425.6	14.3
279.4	425.8	14.3
279.6	426	14.3
279.8	426.1	14.3
279.9	426.3	14.3
280.1	426.5	14.4
280.3	426.6	14.4
280.4	426.8	14.4
280.6	427	14.4
280.8	427.1	14.4
280.9	427.3	14.4
281.1	427.5	14.4
281.3	427.6	14.4
281.4	427.8	14.4
281.6	428	14.4
281.8	428.1	14.4
281.9	428.3	14.4
282.1	428.5	14.4
282.3	428.6	14.4
282.4	428.8	14.4
282.6	429	14.4
282.8	429.1	14.4
282.9	429.3	14.4
283.1	429.5	14.4
283.3	429.7	14.4
283.4	429.8	14.4
283.6	430	14.4
283.8	430.1	14.4
283.9	430.2	14.4
284.1	430.3	14.4
284.3	430.5	14.4
284.4	430.6	14.5
284.6	430.7	14.5
284.8	430.9	14.5
284.9	431	14.5
285.1	431.2	14.5
285.3	431.3	14.5
285.4	431.5	14.5
285.6	431.6	14.5
285.8	431.8	14.5
285.9	431.9	14.5
286.1	432.1	14.5
286.3	432.2	14.5
286.4	432.4	14.5
286.6	432.6	14.5
286.8	432.7	14.5
286.9	432.9	14.5
287.1	433.1	14.6
287.3	433.2	14.6
287.4	433.4	14.6
287.6	433.6	14.6
287.8	433.8	14.6
287.9	433.9	14.6
288.1	434.1	14.6
288.3	434.3	14.6
288.4	434.5	14.6
288.6	434.6	14.6
288.8	434.8	14.6
288.9	435	14.6
289.1	435.2	14.6
289.3	435.3	14.7
289.4	435.5	14.7
289.6	435.7	14.7
289.8	435.9	14.7
289.9	436	14.7
290.1	436.2	14.7
290.3	436.4	14.7
290.4	436.6	14.7
290.6	436.7	14.7
290.8	436.9	14.7
290.9	437.1	14.7
291.1	437.2	14.7
291.3	437.4	14.7
291.4	437.6	14.7
291.6	437.7	14.7
291.8	437.9	14.7
291.9	438.1	14.7
292.1	438.3	14.7
292.3	438.4	14.7
292.4	438.6	14.8
292.6	438.8	14.8
292.8	438.9	14.8
292.9	439.1	14.8
293.1	439.3	14.8
293.3	439.5	14.8
293.4	439.6	14.8
293.6	439.8	14.8
293.8	440	14.8
293.9	440.1	14.8
294.1	440.3	14.8
294.3	440.5	14.8
294.4	440.7	14.8
294.6	440.8	14.8
294.8	441	14.8
294.9	441.2	14.8
295.1	441.3	14.8
295.3	441.5	14.9
295.4	441.7	14.9
295.6	441.9	14.9
295.8	442	14.9
295.9	442.2	14.9
296.1	442.4	14.9
296.3	442.6	14.9
296.4	442.8	14.9
296.6	442.9	14.9
296.8	443.1	14.9
296.9	443.3	14.9
297.1	443.4	14.9
297.3	443.6	14.9
297.4	443.8	14.9
297.6	444	14.9
297.8	444.2	14.9
297.9	444.4	14.9
298.1	444.5	14.9
298.3	444.7	14.9
298.4	444.9	14.9
298.6	445	14.9
298.8	445.2	14.9
298.9	445.3	14.9
299.1	445.4	15
299.3	445.5	15
299.5	445.6	15
299.6	445.7	15
299.8	445.8	15
300	445.9	15
300.1	446.1	15
300.3	446.2	15
300.5	446.4	15
300.6	446.6	15
300.8	446.8	15
301	447	15
301.1	447.1	15
301.3	447.3	15
301.5	447.5	15
301.6	447.7	15
301.8	447.9	15
302	448.1	15.1
302.1	448.3	15.1
302.3	448.5	15.1
302.5	448.6	15.1
302.6	448.8	15.1
302.8	449	15.1
303	449.2	15.1
303.1	449.3	15.1
303.3	449.5	15.1
303.5	449.6	15.1
303.6	449.8	15.1
303.8	449.9	15.1
304	450.1	15.1
304.1	450.3	15.1
304.3	450.4	15.1
304.5	450.6	15.1
304.6	450.7	15.1
304.8	450.9	15.1
305	451	15.1
305.2	451.1	15.1
305.3	451.3	15.1
305.5	451.4	15.1
305.7	451.6	15.1
305.8	451.7	15.1
306	451.9	15.1
306.2	452	15.1
306.3	452.2	15.2
306.5	452.3	15.1
306.7	452.5	15.1
306.8	452.6	15.2
307	452.7	15.2
307.2	452.9	15.2
307.3	453	15.2
307.5	453.2	15.2
307.7	453.3	15.2
307.8	453.5	15.2
308	453.6	15.2
308.2	453.8	15.2
308.3	453.9	15.2
308.5	454.1	15.2
308.7	454.2	15.2
308.8	454.4	15.2
309	454.5	15.2
309.2	454.7	15.2
309.3	454.8	15.2
309.5	454.9	15.2
309.7	455.1	15.2
309.8	455.2	15.2
310	455.4	15.2
310.2	455.5	15.2
310.4	455.7	15.2
310.5	455.8	15.3
310.7	456	15.3
310.9	456.1	15.3
311	456.3	15.3
311.2	456.4	15.3
311.4	456.5	15.3
311.5	456.7	15.3
311.7	456.8	15.3
311.9	457	15.3
312	457.1	15.3
312.2	457.2	15.3
312.4	457.4	15.3
312.5	457.5	15.3
312.7	457.6	15.3
312.9	457.7	15.3
313	457.9	15.3
313.2	458	15.4
313.4	458.1	15.4
313.5	458.2	15.4
313.7	458.3	15.4
313.9	458.4	15.4
314	458.6	15.4
314.2	459	15.4
314.4	459.3	15.4
314.6	459.5	15.4
314.7	459.7	15.4
314.9	459.9	15.4
315.1	460.1	15.4
315.2	460.2	15.5
315.4	460.4	15.5
315.6	460.5	15.5
315.7	460.7	15.5
315.9	460.8	15.5
316.1	461	15.5
316.2	461.1	15.5
316.4	461.3	15.5
316.6	461.5	15.5
316.7	461.6	15.5
316.9	461.8	15.5
317.1	461.9	15.5
317.2	462.1	15.5
317.4	462.3	15.5
317.6	462.4	15.5
317.7	462.6	15.5
317.9	462.7	15.5
318.1	462.9	15.5
318.3	463.1	15.5
318.4	463.2	15.5
318.6	463.3	15.5
318.8	463.5	15.5
318.9	463.7	15.6
319.1	463.9	15.6
319.3	464.1	15.6
319.4	464.2	15.6
319.6	464.4	15.6
319.8	464.6	15.6
319.9	464.5	15.5
320.1	464.6	15.6
320.3	464.8	15.5
320.4	464.8	15.5
320.6	464.7	15.5

System: tris(2,4-pentanedionato-O,O')rhodium; phases: Crystal
Fixed: Pressure, kPa = 101.325
Property: Molar heat capacity at constant pressure, J/K/mol (Crystal); method: Small sample (50 mg) DSC
Temperature, K	Molar heat capacity at constant pressure, J/K/mol	uncertainty
280.4	424.4	14.1
280.9	425.2	14.1
281.4	426	14.1
281.9	426.9	14.2
282.4	427.7	14.2
282.9	428.4	14.2
283.4	429	14.2
283.9	429.5	14.2
284.4	429.8	14.3
284.9	430	14.3
285.4	430.1	14.3
285.9	430.1	14.3
286.4	430	14.3
286.9	430	14.3
287.4	430.1	14.3
287.9	430.4	14.3
288.4	430.7	14.3
288.9	431.2	14.3
289.4	431.8	14.3
289.9	432.4	14.3
290.4	433.1	14.4
290.9	433.7	14.4
291.4	434.4	14.4
291.9	434.9	14.4
292.4	435.5	14.4
292.9	436	14.5
293.4	436.5	14.5
293.9	437	14.5
294.4	437.5	14.5
294.9	438	14.5
295.4	438.6	14.5
295.9	439.1	14.6
296.4	439.7	14.6
296.9	440.3	14.6
297.4	440.9	14.6
297.9	441.5	14.6
298.4	442.2	14.7
298.9	442.7	14.7
299.4	443.3	14.7
299.9	443.8	14.7
300.4	444.3	14.7
300.9	444.8	14.8
301.4	445.2	14.8
301.9	445.6	14.8
302.4	446	14.8
302.9	446.4	14.8
303.4	446.8	14.8
303.9	447.2	14.8
304.4	447.6	14.8
304.9	448	14.9
305.4	448.5	14.9
305.9	448.9	14.9
306.4	449.3	14.9
306.9	449.8	14.9
307.4	450.3	14.9
307.9	450.7	14.9
308.4	451.2	15
308.9	451.7	15
309.4	452.2	15
309.9	452.6	15
310.4	453.1	15
310.9	453.5	15
311.4	454	15.1
311.9	454.5	15.1
312.4	454.9	15.1
312.9	455.4	15.1
313.4	455.9	15.1
313.9	456.4	15.1
314.4	456.9	15.2
314.9	457.4	15.2
315.4	457.9	15.2
315.9	458.4	15.2
316.4	458.8	15.2
316.9	459.3	15.2
317.4	459.6	15.2
317.9	460	15.3
318.4	460.3	15.3
318.9	460.6	15.3
319.4	460.8	15.3
319.9	461.1	15.3
320.4	461.3	15.3
320.9	461.6	15.3
321.4	461.9	15.3
321.9	462.2	15.3
322.4	462.5	15.3
322.9	462.9	15.4
323.4	463.3	15.4
323.9	463.8	15.4
324.4	464.3	15.4
324.9	464.8	15.4
325.4	465.3	15.4
325.9	465.8	15.5
326.4	466.4	15.5
326.9	467	15.5
327.4	467.6	15.5
327.9	468.3	15.5
328.4	469	15.6
328.9	469.6	15.6
329.4	470.3	15.6
329.9	471	15.6
330.4	471.7	15.6
330.9	472.4	15.7
331.4	473	15.7
331.9	473.6	15.7
332.4	474.2	15.7
332.9	474.8	15.7
333.4	475.4	15.8
333.9	475.9	15.8
334.4	476.4	15.8
334.9	476.9	15.8
335.4	477.5	15.8
335.9	478	15.9
336.4	478.5	15.9
336.9	479	15.9
337.4	479.5	15.9
337.9	480.1	15.9
338.4	480.7	15.9
338.9	481.4	16
339.4	482	16
339.9	482.7	16
340.4	483.3	16
340.9	484	16.1
341.4	484.6	16.1
341.9	485.1	16.1
342.4	485.6	16.1
342.9	486	16.1
343.4	486.4	16.1
343.9	486.7	16.1
344.4	486.9	16.1
344.9	487.2	16.2
345.4	487.4	16.2
345.9	487.6	16.2
346.4	487.8	16.2
346.9	488.1	16.2
347.4	488.3	16.2
347.9	488.6	16.2
348.4	488.9	16.2
348.9	489.2	16.2
349.4	489.5	16.2
349.9	489.9	16.2
350.4	490.3	16.3
350.9	490.8	16.3
351.4	491.3	16.3
351.9	491.8	16.3
352.4	492.4	16.3
352.9	492.9	16.3
353.4	493.5	16.4
353.9	494.1	16.4
354.4	494.7	16.4
354.9	495.3	16.4
355.4	495.8	16.4
355.9	496.4	16.5
356.4	496.9	16.5
356.9	497.4	16.5
357.4	497.9	16.5
357.9	498.4	16.5
358.4	498.9	16.5
358.9	499.3	16.6
359.4	499.7	16.6
359.9	500.1	16.6
360.4	500.5	16.6
360.9	500.9	16.6
361.4	501.3	16.6
361.9	501.7	16.6
362.4	502.2	16.7
362.9	502.7	16.7
363.4	503.2	16.7
363.9	503.7	16.7
364.4	504.3	16.7
364.9	504.9	16.7
365.4	505.5	16.8
365.9	506	16.8
366.4	506.6	16.8
366.9	507.2	16.8
367.4	507.7	16.8
367.9	508.2	16.9
368.4	508.7	16.9
368.9	509.2	16.9
369.4	509.7	16.9
369.9	510.2	16.9
370.4	510.7	16.9
370.9	511.3	17
371.4	511.8	17
371.9	512.3	17
372.4	512.8	17
372.9	513.3	17
373.4	513.7	17
373.9	514.2	17.1
374.4	514.6	17.1
374.9	515	17.1
375.4	515.4	17.1
375.9	515.8	17.1
376.4	516.2	17.1
376.9	516.6	17.1
377.4	516.9	17.1
377.9	517.2	17.2
378.4	517.6	17.2
378.9	518	17.2
379.4	518.3	17.2
379.9	518.8	17.2
380.4	519.2	17.2
380.9	519.6	17.2
381.4	520.1	17.3
381.9	520.6	17.3
382.4	521.1	17.3
382.9	521.5	17.3
383.4	522	17.3
383.9	522.5	17.3
384.4	523	17.3
384.9	523.4	17.4
385.4	523.9	17.4
385.9	524.4	17.4
386.4	524.8	17.4
386.9	525.3	17.4
387.4	525.7	17.4
387.9	526.2	17.5
388.4	526.6	17.5
388.9	527	17.5
389.4	527.4	17.5
389.9	527.8	17.5
390.4	528.2	17.5
390.9	528.6	17.5
391.4	529	17.5
391.9	529.4	17.6
392.4	529.8	17.6
392.9	530.2	17.6
393.4	530.7	17.6
393.9	531.1	17.6
394.4	531.6	17.6
394.9	532.1	17.6
395.4	532.6	17.7
395.9	533.1	17.7
396.4	533.6	17.7
396.9	534.1	17.7
397.4	534.6	17.7
397.9	535.1	17.7
398.4	535.6	17.8
398.9	536.1	17.8
399.4	536.6	17.8
399.9	537.1	17.8
400.4	537.6	17.8
400.9	538	17.8
401.4	538.4	17.9
401.9	538.8	17.9
402.4	539.1	17.9
402.9	539.5	17.9
403.4	539.9	17.9
403.9	540.2	17.9
404.4	540.6	17.9
404.9	541.1	17.9
405.4	541.6	18
405.9	542.1	18
406.4	542.7	18
406.9	543.2	18
407.4	543.8	18
407.9	544.4	18.1
408.4	545	18.1
408.9	545.5	18.1
409.4	546.1	18.1
409.9	546.7	18.1
410.4	547.2	18.1
410.9	547.8	18.2
411.4	548.3	18.2
411.9	548.9	18.2
412.4	549.4	18.2
412.9	549.9	18.2
413.4	550.4	18.3
413.9	550.9	18.3
414.4	551.4	18.3
414.9	551.8	18.3
415.4	552.2	18.3
415.9	552.5	18.3
416.4	552.9	18.3
416.9	553.2	18.3
417.4	553.6	18.4
417.9	554	18.4
418.4	554.4	18.4
418.9	554.8	18.4
419.4	555.3	18.4
419.9	555.8	18.4
420.4	556.3	18.5
420.9	556.8	18.5
421.4	557.4	18.5
421.9	557.9	18.5
422.4	558.5	18.5
422.9	559	18.5
423.4	559.6	18.6
423.9	560.2	18.6
424.4	560.8	18.6
424.9	561.3	18.6
425.4	561.8	18.6
425.9	562.4	18.7
426.4	562.9	18.7
426.9	563.4	18.7
427.4	563.8	18.7
427.9	564.3	18.7
428.4	564.8	18.7
428.9	565.3	18.7
429.4	565.7	18.8
429.9	566.2	18.8
430.4	566.6	18.8
430.9	567	18.8
431.4	567.5	18.8
431.9	567.9	18.8
432.4	568.3	18.8
432.9	568.7	18.9
433.4	569.2	18.9
433.9	569.6	18.9
434.4	570	18.9
434.9	570.4	18.9
435.4	570.9	18.9
435.9	571.3	18.9
436.4	571.8	19
436.9	572.2	19
437.4	572.7	19
437.9	573.2	19
438.4	573.7	19
438.9	574.3	19
439.4	574.8	19.1
439.9	575.4	19.1
440.4	575.9	19.1
440.9	576.5	19.1
441.4	577.1	19.1
441.9	577.6	19.2
442.4	578.1	19.2
442.9	578.7	19.2
443.4	579.2	19.2
443.9	579.7	19.2
444.4	580.1	19.2
444.9	580.6	19.3
445.4	581.1	19.3
445.9	581.5	19.3
446.4	582	19.3
446.9	582.5	19.3
447.4	582.9	19.3
447.9	583.3	19.3
448.4	583.8	19.4
448.9	584.2	19.4
449.4	584.6	19.4
449.9	585	19.4
450.4	585.4	19.4
450.9	585.8	19.4
451.4	586.3	19.4
451.9	586.7	19.5
452.4	587.2	19.5
452.9	587.8	19.5
453.4	588.3	19.5
453.9	588.8	19.5
454.4	589.4	19.5
454.9	590	19.6
455.4	590.5	19.6
455.9	591.1	19.6
456.4	591.7	19.6
456.9	592.3	19.6
457.4	592.9	19.7
457.9	593.5	19.7
458.4	594.1	19.7
458.9	594.7	19.7
459.4	595.3	19.7
459.9	595.9	19.8
460.4	596.5	19.8
460.9	597.1	19.8
461.4	597.8	19.8
461.9	598.4	19.8
462.4	599.1	19.9
462.9	599.8	19.9
463.4	600.5	19.9
463.9	601.3	19.9
464.4	602	20
464.9	602.8	20
465.4	603.6	20
