Measured thermophysical data. Vapor phase pvTx measurements of binary mixtures of difluoromethane (R32) and 2,3,3,3-tetrafluoroprop-1-ene (R1234yf)
Source: J. Chem. Thermodyn., 2019, 10.1016/j.jct.2019.02.028
Compound 1: difluoromethane, CH2F2, InChI=1S/CH2F2/c2-1-3/h1H2, purity 99.8%
Compound 2: 2,3,3,3-tetrafluoro-1-propene, C3H2F4, InChI=1S/C3H2F4/c1-2(4)3(5,6)7/h1H2, purity 99.5%
Compound 3: helium, He, InChI=1S/He, purity 99.999%

System: helium; phases: Gas
Property: Mass density, kg/m3 (Gas); method: Burnett expansion method
Temperature, K	Pressure, kPa	Mass density, kg/m3	uncertainty
363.282	5072.37	6.5893	0.0133
353.386	4938.67	6.5971	0.0134
343.508	4808.07	6.6049	0.0134
333.58	4675.08	6.6128	0.0134
323.682	4542.52	6.6206	0.0134
363.284	5072.37	6.5893	0.0133
363.29	3356.7	4.387	0.009
353.395	3267.16	4.3896	0.009
343.512	3177	4.3922	0.0091
333.576	3086.71	4.3949	0.0091
323.667	2996.72	4.3975	0.0091
363.289	3356.7	4.387	0.009
363.288	2225.04	2.9208	0.0062
353.405	2165.81	2.9225	0.0062
343.519	2106.03	2.9243	0.0063
333.588	2046.28	2.926	0.0063
323.674	1986.44	2.9278	0.0063
363.201	2225.05	2.9208	0.0062
363.283	1476.93	1.9446	0.0044
353.397	1437.49	1.9455	0.0044
343.497	1397.8	1.9464	0.0045
333.578	1357.98	1.9472	0.0045
323.678	1318.21	1.9481	0.0046
363.283	1476.94	1.9446	0.0044
363.29	981.18	1.2947	0.0033
353.4	954.95	1.2953	0.0034
343.507	928.6	1.2959	0.0034
333.577	901.91	1.2964	0.0035
323.664	875.31	1.297	0.0035
363.291	981.18	1.2947	0.0033
363.29	652.06	0.862	0.0027
353.393	634.63	0.8624	0.0028
343.505	616.99	0.8628	0.0028
333.623	599.5	0.8631	0.0029
323.677	581.96	0.8635	0.0029
363.289	652.07	0.862	0.0027
363.291	433.46	0.5739	0.0024
353.391	421.94	0.5741	0.0025
343.516	410.1	0.5742	0.0025
333.58	398.41	0.5744	0.0026
323.666	386.6	0.5746	0.0026
363.293	433.47	0.5739	0.0024

System: difluoromethane + 2,3,3,3-tetrafluoro-1-propene; phases: Gas
Property: Mass density, kg/m3 (Gas); method: Burnett expansion method
Mole fraction of difluoromethane	Temperature, K	Pressure, kPa	Mass density, kg/m3	uncertainty
0.119	383.03	4464.68	320.28	5.23
0.119	378.12	4237.1	320.38	5.91
0.119	373.2	4006.16	320.47	6.87
0.119	368.27	3774.28	320.57	8.25
0.119	383.03	4464.98	320.28	5.22
0.119	383.04	3777.65	213.24	2.72
0.119	378.12	3642.06	213.38	2.97
0.119	373.2	3505.04	213.51	3.3
0.119	368.26	3365.62	213.65	3.72
0.119	363.31	3222.35	213.79	2.88
0.119	358.38	3076.34	213.92	3.19
0.119	383.03	3777.64	213.24	2.72
0.119	383.04	2989.16	141.97	1.22
0.119	378.11	2909.11	142.06	1.27
0.119	373.19	2828.25	142.15	1.33
0.119	368.25	2746.27	142.24	1.4
0.119	363.3	2663.33	142.34	1.48
0.119	358.36	2579.15	142.43	1.58
0.119	353.4	2493.22	142.52	1.33
0.119	348.45	2405.83	142.61	1.4
0.119	343.5	2311.98	142.7	1.5
0.119	383.03	2989.1	141.97	1.22
0.119	383.03	2238.31	94.52	0.66
0.119	378.1	2190.45	94.57	0.59
0.119	373.17	2141.9	94.62	0.6
0.119	368.24	2093.15	94.66	0.61
0.119	363.29	2043.8	94.71	0.62
0.119	358.34	1993.96	94.76	0.63
0.119	353.38	1943.58	94.8	0.65
0.119	348.45	1892.64	94.85	0.8
0.119	343.5	1840.8	94.9	0.83
0.119	338.54	1788.21	94.94	0.74
0.119	333.58	1734.64	94.99	0.76
0.119	383.02	2238.04	94.52	0.66
0.119	383.03	1611.88	62.93	0.39
0.119	378.1	1582.37	62.96	0.36
0.119	373.17	1552.88	62.98	0.37
0.119	368.24	1523.29	63.01	0.37
0.119	363.32	1493.61	63.03	0.37
0.119	358.35	1463.03	63.06	0.38
0.119	353.39	1432.48	63.08	0.38
0.119	348.45	1401.8	63.11	0.39
0.119	343.51	1370.91	63.13	0.39
0.119	338.57	1339.91	63.15	0.4
0.119	333.61	1308.16	63.18	0.4
0.119	328.61	1275.3	63.21	0.43
0.119	323.7	1243.45	63.23	0.44
0.119	318.72	1210.09	63.25	0.45
0.119	383.03	1611.81	62.93	0.39
0.119	383.06	1130.44	41.9	0.25
0.119	378.13	1111.96	41.91	0.24
0.119	373.18	1093.4	41.92	0.24
0.119	368.25	1075.04	41.94	0.24
0.119	363.31	1056.35	41.95	0.24
0.119	358.37	1037.65	41.96	0.24
0.119	353.4	1018.58	41.97	0.24
0.119	348.45	999.4	41.99	0.25
0.119	343.49	980.04	42	0.25
0.119	338.53	960.84	42.01	0.25
0.119	333.57	941.58	42.02	0.25
0.119	328.63	922.19	42.04	0.25
0.119	323.67	902.39	42.05	0.26
0.119	318.72	882.63	42.06	0.26
0.119	313.68	862.42	42.07	0.28
0.119	308.71	842.28	42.09	0.28
0.119	383.04	1130.17	41.9	0.25
0.119	383.04	778.8	27.9	0.14
0.119	378.11	767.1	27.9	0.14
0.119	373.19	755.34	27.91	0.14
0.119	368.25	743.56	27.92	0.15
0.119	363.31	731.75	27.93	0.15
0.119	358.37	719.85	27.94	0.15
0.119	353.39	707.68	27.94	0.15
0.119	348.43	695.54	27.95	0.15
0.119	343.51	683.81	27.96	0.15
0.119	338.55	671.73	27.97	0.15
0.119	333.59	659.59	27.98	0.15
0.119	328.64	647.48	27.99	0.15
0.119	323.7	635.26	27.99	0.15
0.119	318.75	622.85	28	0.15
0.119	313.65	610.01	28.01	0.15
0.119	308.69	597.54	28.02	0.15
0.119	298.75	572.1	28.04	0.54
0.259	383.02	5211.24	356.45	6.4
0.259	378.09	4937.46	358.03	3.29
0.259	373.2	4661.87	359.6	5
0.259	368.25	4383.21	361.18	5.88
0.259	383.02	5211.25	356.44	6.4
0.259	383.02	4396.6	237.32	2.43
0.259	378.1	4232.9	237.67	2.6
0.259	373.17	4066.75	238.02	2.83
0.259	368.23	3898.15	238.37	3.11
0.259	363.29	3726.76	238.72	2.71
0.259	383.03	4397.38	237.31	2.43
0.259	383.03	3496.5	158	2.14
0.259	378.12	3399.62	158.16	2.14
0.259	373.18	3301.34	158.31	2.24
0.259	368.23	3201.44	158.47	2.36
0.259	363.29	3100.69	158.62	2.5
0.259	358.36	2999.16	158.78	2.58
0.259	353.41	2895.52	158.94	1.96
0.259	383.05	3496.76	158	2.14
0.259	383.02	2635.79	105.19	1.14
0.259	378.11	2577.31	105.22	1.17
0.259	373.18	2517.57	105.24	1.2
0.259	368.24	2457.34	105.26	1.23
0.259	363.29	2396.35	105.29	1.27
0.259	358.35	2335.1	105.31	1.24
0.259	353.42	2273.33	105.33	1.28
0.259	348.47	2210.38	105.36	1.33
0.259	343.52	2146.2	105.38	1.39
0.259	338.56	2083.08	105.4	1.1
0.259	383.02	2635.59	105.19	1.14
0.259	383.03	1915.02	70.04	0.65
0.259	378.09	1878.5	70.04	0.61
0.259	373.17	1842.02	70.05	0.62
0.259	368.24	1805.27	70.05	0.63
0.259	363.3	1768.31	70.06	0.64
0.259	358.36	1730.76	70.06	0.65
0.259	353.41	1693.02	70.07	0.66
0.259	348.46	1654.84	70.07	0.69
0.259	343.51	1616.28	70.08	0.7
0.259	338.56	1577.4	70.08	0.72
0.259	333.59	1537.87	70.09	0.75
0.259	328.63	1499.09	70.09	0.57
0.259	323.69	1459.97	70.1	0.56
0.259	383.02	1914.89	70.04	0.65
0.259	383.03	1351.52	46.63	0.34
0.259	378.12	1329.06	46.64	0.34
0.259	373.21	1306.41	46.64	0.34
0.259	368.25	1283.29	46.65	0.34
0.259	363.31	1260.4	46.66	0.35
0.259	358.36	1237.17	46.66	0.35
0.259	353.41	1213.94	46.67	0.35
0.259	348.47	1190.59	46.68	0.36
0.259	343.52	1166.95	46.68	0.36
0.259	338.56	1143.12	46.69	0.37
0.259	333.59	1119.04	46.7	0.37
0.259	328.63	1094.56	46.71	0.38
0.259	323.69	1070.41	46.71	0.38
0.259	318.74	1046.53	46.72	0.45
0.259	313.68	1021.81	46.73	0.35
0.259	308.72	997.47	46.73	0.35
0.259	383.03	1351.52	46.63	0.34
0.259	383.06	935.34	31.04	0.22
0.259	378.1	920.5	31.05	0.22
0.259	373.18	906.18	31.05	0.22
0.259	368.26	891.98	31.06	0.22
0.259	363.32	877.52	31.06	0.22
0.259	358.37	862.94	31.07	0.22
0.259	353.42	848.3	31.07	0.22
0.259	348.47	833.57	31.08	0.23
0.259	343.55	818.98	31.08	0.23
0.259	338.56	803.81	31.09	0.23
0.259	333.59	788.83	31.09	0.23
0.259	328.64	773.73	31.1	0.23
0.259	323.69	758.79	31.1	0.23
0.259	318.74	743.48	31.1	0.24
0.259	313.68	727.83	31.11	0.24
0.259	308.72	712.34	31.11	0.24
0.259	383.03	934.81	31.04	0.22
0.259	383.04	638.24	20.67	0.16
0.259	378.11	629.16	20.67	0.16
0.259	373.18	619.83	20.68	0.16
0.259	368.24	610.69	20.68	0.16
0.259	363.3	601.42	20.68	0.16
0.259	358.35	591.83	20.68	0.16
0.259	353.4	582.53	20.69	0.16
0.259	348.46	573.31	20.69	0.17
0.259	343.54	563.91	20.69	0.17
0.259	338.54	554.13	20.7	0.17
0.259	333.58	544.62	20.7	0.17
0.259	328.63	535.28	20.7	0.17
0.259	323.68	525.72	20.71	0.17
0.259	318.73	516.26	20.71	0.17
0.259	313.66	506.36	20.71	0.17
0.259	308.7	496.45	20.72	0.17
0.259	298.8	476.95	20.72	0.18
0.449	383	5686.52	308.85	3.3
0.449	378.07	5426.14	308.92	3.22
0.449	383	5686.51	308.85	3.3
0.449	383.01	4682.43	205.63	2.32
0.449	378.08	4525.18	205.67	2.42
0.449	373.15	4365.9	205.72	6.94
0.449	368.22	4205.19	205.77	7.43
0.449	363.28	4041.67	205.81	3.23
0.449	383	4682.23	205.63	2.32
0.449	383.02	3646.58	136.9	1.47
0.449	378.08	3552.8	136.97	1.5
0.449	373.16	3458.19	137.04	1.54
0.449	368.22	3362.56	137.11	1.58
0.449	363.28	3265.93	137.17	1.63
0.449	358.34	3167.87	137.24	1.53
0.449	353.39	3068.69	137.31	1.58
0.449	348.46	2967.89	137.38	1.58
0.449	343.51	2864.82	137.45	1.67
0.449	383.01	3646.5	136.9	1.47
0.449	383.01	2705.58	91.15	0.92
0.449	378.09	2649.17	91.19	0.93
0.449	373.15	2592.13	91.24	0.94
0.449	368.22	2534.62	91.28	0.96
0.449	363.28	2476.69	91.33	0.97
0.449	358.34	2418.27	91.37	0.99
0.449	353.39	2359.09	91.42	1.01
0.449	348.45	2299.32	91.46	1.03
0.449	343.5	2238.71	91.51	1.06
0.449	338.53	2177.29	91.55	0.98
0.449	333.58	2115.04	91.6	0.99
0.449	383	2705.57	91.15	0.92
0.449	383.02	1937.69	60.69	0.56
0.449	378.1	1897.59	60.71	0.56
0.449	373.18	1863.06	60.74	0.57
0.449	368.23	1830.36	60.77	0.57
0.449	363.29	1795.14	60.79	0.58
0.449	358.35	1759.63	60.82	0.58
0.449	353.39	1723.76	60.85	0.59
0.449	348.45	1687.58	60.87	0.59
0.449	343.48	1650.75	60.9	0.6
0.449	338.55	1615.29	60.93	0.61
0.449	333.58	1577.97	60.96	0.62
0.449	328.64	1540.2	60.98	0.59
0.449	323.69	1502.02	61.01	0.59
0.449	318.73	1463.21	61.04	0.6
0.449	383.02	1937.6	60.69	0.56
0.449	383.03	1350.52	40.4	0.35
0.449	378.09	1328.73	40.42	0.36
0.449	373.17	1307.02	40.43	0.36
0.449	368.22	1284.97	40.44	0.36
0.449	363.27	1262.71	40.45	0.36
0.449	358.32	1240.59	40.46	0.36
0.449	353.37	1218.37	40.48	0.37
0.449	348.43	1196.01	40.49	0.37
0.449	343.49	1173.57	40.5	0.37
0.449	338.53	1150.82	40.51	0.37
0.449	333.59	1128.08	40.52	0.38
0.449	328.63	1105.07	40.54	0.38
0.449	323.68	1081.29	40.55	0.38
0.449	318.74	1058.53	40.56	0.38
0.449	313.72	1034.76	40.57	0.37
0.449	308.76	1011.1	40.58	0.37
0.449	383	1350.18	40.4	0.35
0.449	383.01	928.35	26.9	0.23
0.449	378.11	914.69	26.91	0.23
0.449	373.18	900.76	26.92	0.23
0.449	368.25	886.98	26.92	0.23
0.449	363.3	872.75	26.93	0.23
0.449	358.35	858.88	26.94	0.24
0.449	353.4	844.78	26.95	0.24
0.449	348.46	830.53	26.96	0.24
0.449	343.5	815.99	26.96	0.24
0.449	338.54	801.95	26.97	0.24
0.449	333.59	787.46	26.98	0.24
0.449	328.61	772.98	26.99	0.24
0.449	323.68	758.4	27	0.24
0.449	318.73	743.73	27	0.24
0.449	313.66	728.88	27.01	0.25
0.449	308.71	714.14	27.02	0.25
0.449	298.8	684.19	27.04	0.21
0.449	383.02	928.34	26.9	0.23
0.449	382.99	631.25	17.91	0.16
0.449	378.08	622.36	17.91	0.16
0.449	373.14	613.24	17.92	0.16
0.449	368.22	604.3	17.93	0.16
0.449	363.28	595.28	17.93	0.16
0.449	358.33	586.28	17.94	0.16
0.449	353.38	577.17	17.94	0.16
0.449	348.42	568.01	17.95	0.16
0.449	343.47	558.86	17.95	0.16
0.449	338.52	549.73	17.96	0.16
0.449	333.56	540.51	17.96	0.16
0.449	328.61	531.32	17.97	0.16
0.449	323.67	522.17	17.97	0.16
0.449	318.72	512.99	17.98	0.16
0.449	313.64	503.35	17.98	0.17
0.449	308.7	493.92	17.99	0.17
0.449	298.8	475.09	18	0.17
0.698	383.01	5245.73	182.87	2.19
0.698	378.09	5074.59	182.93	2.26
0.698	373.15	4909.81	182.98	2.32
0.698	368.23	4743.27	183.03	2.38
0.698	363.29	4575.53	183.09	2.46
0.698	358.36	4405.84	183.14	2.54
0.698	353.41	4232.82	183.2	2.64
0.698	383.02	5245.78	182.87	2.19
0.698	383.01	4036.18	121.75	1.48
0.698	378.09	3936.66	121.78	1.52
0.698	373.16	3835.89	121.81	1.56
0.698	368.23	3734.81	121.83	1.6
0.698	363.28	3632.64	121.86	1.64
0.698	358.35	3529.25	121.89	1.7
0.698	353.4	3424.32	121.92	1.76
0.698	348.45	3317.71	121.94	1.42
0.698	343.5	3209.62	121.97	1.46
0.698	338.54	3099.52	122	1.5
0.698	383.02	4035.76	121.75	1.48
0.698	383.02	2972.39	81.06	0.77
0.698	378.08	2911.75	81.09	0.78
0.698	373.16	2850.92	81.11	0.79
0.698	368.22	2789.55	81.13	0.79
0.698	363.26	2727.28	81.16	0.8
0.698	358.33	2665.01	81.18	0.81
0.698	353.37	2601.92	81.21	0.82
0.698	348.42	2538.18	81.23	0.83
0.698	343.47	2473.76	81.25	0.84
0.698	338.52	2408.62	81.28	0.86
0.698	333.57	2342.7	81.3	0.85
0.698	328.64	2275.79	81.33	0.87
0.698	323.69	2207.59	81.35	0.89
0.698	383.01	2972.21	81.06	0.77
0.698	383.01	2118.02	53.97	0.49
0.698	378.05	2079.9	53.99	0.5
0.698	373.13	2042.45	54	0.5
0.698	368.2	2004.82	54.02	0.5
0.698	363.26	1966.78	54.03	0.5
0.698	358.31	1928.47	54.05	0.5
0.698	353.35	1889.75	54.07	0.51
0.698	348.39	1850.83	54.08	0.51
0.698	343.46	1811.64	54.1	0.52
0.698	338.52	1772.22	54.11	0.52
0.698	333.46	1731.9	54.13	0.52
0.698	328.55	1691.61	54.15	0.53
0.698	323.56	1650.93	54.16	0.53
0.698	318.62	1609.83	54.18	0.53
0.698	313.6	1566.53	54.19	0.54
0.698	308.66	1524.75	54.21	0.54
0.698	382.98	2117.2	53.97	0.49
0.698	383.01	1475.97	35.93	0.32
0.698	378.06	1451.66	35.94	0.32
0.698	373.15	1428.25	35.95	0.32
0.698	368.24	1405.19	35.96	0.32
0.698	363.29	1381.37	35.97	0.32
0.698	358.34	1357.37	35.99	0.32
0.698	353.4	1333.52	36	0.33
0.698	348.42	1308.89	36.01	0.33
0.698	343.49	1284.77	36.02	0.33
0.698	338.52	1260.01	36.03	0.33
0.698	333.57	1235.32	36.04	0.33
0.698	328.58	1209.67	36.05	0.33
0.698	323.62	1184.59	36.06	0.34
0.698	318.68	1159.33	36.07	0.34
0.698	313.64	1133.96	36.08	0.34
0.698	308.68	1108.25	36.09	0.34
0.698	298.79	1055.53	36.11	0.34
0.698	382.98	1475.1	35.93	0.32
0.698	383.02	1012.84	23.92	0.21
0.698	378.1	997.84	23.93	0.21
0.698	373.16	982.7	23.94	0.21
0.698	368.23	967.59	23.94	0.21
0.698	363.31	952.86	23.95	0.21
0.698	358.35	937.43	23.96	0.21
0.698	353.39	922.11	23.97	0.21
0.698	348.45	906.67	23.97	0.21
0.698	343.51	891.35	23.98	0.22
0.698	338.53	875.76	23.99	0.22
0.698	333.59	860.21	23.99	0.22
0.698	328.63	844.62	24	0.22
0.698	323.68	828.96	24.01	0.22
0.698	318.73	813.03	24.02	0.22
0.698	313.67	796.71	24.02	0.22
0.698	308.73	780.62	24.03	0.22
0.698	298.82	748.46	24.04	0.22
0.698	383.02	1012.79	23.92	0.21
0.698	383.04	688.17	15.93	0.14
0.698	378.1	678.04	15.93	0.14
0.698	373.15	668.24	15.94	0.14
0.698	368.22	658.7	15.94	0.14
0.698	363.28	648.9	15.95	0.15
0.698	358.34	639.13	15.95	0.15
0.698	353.39	629.39	15.96	0.15
0.698	348.44	619.54	15.96	0.15
0.698	343.49	609.66	15.97	0.15
0.698	338.56	599.87	15.97	0.15
0.698	333.6	589.81	15.97	0.15
0.698	328.62	579.61	15.98	0.15
0.698	323.68	569.78	15.98	0.15
0.698	318.74	559.65	15.99	0.15
0.698	313.68	549.32	15.99	0.15
0.698	308.71	538.99	16	0.15
0.698	298.8	518.4	16.01	0.15
0.874	383.02	5215.69	143.31	2.2
0.874	378.1	5071.52	143.48	2.25
0.874	373.17	4925.87	143.64	2.29
0.874	368.24	4778.85	143.8	2.33
0.874	363.3	4630.47	143.96	2.38
0.874	358.36	4479.71	144.13	2.44
0.874	353.41	4326.65	144.29	2.5
0.874	348.47	4171.07	144.45	2.52
0.874	343.51	4012.27	144.62	2.56
0.874	338.54	3850.5	144.78	1.7
0.874	383.02	5215.75	143.31	2.2
0.874	383.02	3919.72	95.42	1.12
0.874	378.1	3832.43	95.49	1.13
0.874	373.17	3744.29	95.56	1.13
0.874	368.23	3655.13	95.63	1.13
0.874	363.3	3565.56	95.7	1.13
0.874	358.34	3474.04	95.77	1.14
0.874	353.38	3382.36	95.84	1.15
0.874	348.43	3289.19	95.91	1.15
0.874	343.48	3195.02	95.98	1.16
0.874	338.54	3099.9	96.05	1.17
0.874	333.58	3002.93	96.12	1.49
0.874	328.62	2904.19	96.19	0.88
0.874	323.67	2803.53	96.27	0.9
0.874	383	3918.87	95.42	1.12
0.874	383	2835.72	63.53	0.72
0.874	378.08	2782.15	63.55	0.72
0.874	373.18	2728.44	63.56	0.72
0.874	368.24	2674.22	63.58	0.72
0.874	363.3	2619.43	63.6	0.72
0.874	358.35	2564.09	63.62	0.73
0.874	353.4	2508.27	63.64	0.73
0.874	348.46	2451.97	63.66	0.73
0.874	343.51	2395.01	63.68	0.73
0.874	338.54	2337.29	63.7	0.73
0.874	333.57	2278.91	63.71	0.73
0.874	328.62	2220.49	63.73	0.74
0.874	323.62	2161.06	63.75	0.74
0.874	318.7	2100.01	63.77	0.91
0.874	313.7	2038.45	63.79	0.55
0.874	308.74	1976.08	63.81	0.55
0.874	383.03	2836.05	63.53	0.72
0.874	383.03	1998.11	42.29	0.48
0.874	378.11	1964.66	42.31	0.49
0.874	373.19	1931.08	42.32	0.49
0.874	368.24	1897.18	42.33	0.49
0.874	363.29	1863.01	42.34	0.49
0.874	358.36	1828.83	42.36	0.49
0.874	353.4	1794.12	42.37	0.49
0.874	348.45	1759.43	42.38	0.5
0.874	343.5	1724.42	42.4	0.5
0.874	338.55	1689.42	42.41	0.5
0.874	333.64	1653.58	42.42	0.5
0.874	328.65	1617.61	42.43	0.5
0.874	323.7	1581.79	42.45	0.5
0.874	318.74	1544.94	42.46	0.51
0.874	313.7	1507.37	42.47	0.51
0.874	308.77	1470.21	42.48	0.51
0.874	298.86	1393.79	42.51	0.35
0.874	383.04	1998.11	42.29	0.48
0.874	383.02	1381.5	28.16	0.32
0.874	378.11	1360.25	28.17	0.32
0.874	373.18	1339.04	28.18	0.32
0.874	368.24	1317.53	28.18	0.32
0.874	363.3	1296.13	28.19	0.32
0.874	358.38	1274.61	28.2	0.32
0.874	353.43	1253	28.21	0.32
0.874	348.48	1231.19	28.22	0.32
0.874	343.54	1209.25	28.23	0.32
0.874	338.56	1187.02	28.23	0.33
0.874	333.61	1164.83	28.24	0.33
0.874	328.67	1142.56	28.25	0.33
0.874	323.73	1120.19	28.26	0.33
0.874	318.74	1097.18	28.27	0.33
0.874	313.72	1074	28.28	0.33
0.874	308.78	1051.28	28.28	0.33
0.874	298.87	1004.62	28.3	0.32
0.874	383.03	1381.44	28.16	0.32
0.874	383.04	943.49	18.75	0.21
0.874	378.12	929.88	18.75	0.21
0.874	373.18	916.21	18.76	0.21
0.874	368.29	902.66	18.76	0.21
0.874	363.33	888.85	18.77	0.21
0.874	358.41	875.21	18.78	0.22
0.874	353.47	861.21	18.78	0.22
0.874	348.47	847.11	18.79	0.22
0.874	343.54	833.17	18.79	0.22
0.874	338.57	819.08	18.8	0.22
0.874	333.61	804.94	18.8	0.22
0.874	328.66	790.86	18.81	0.22
0.874	323.71	776.56	18.81	0.22
0.874	318.77	762.25	18.82	0.22
0.874	313.79	747.77	18.83	0.22
0.874	308.82	733.43	18.83	0.22
0.874	298.93	704.35	18.84	0.22
0.874	383.05	943.52	18.75	0.21
0.874	383.04	642.12	12.48	0.15
0.874	378.12	633.28	12.49	0.15
0.874	373.2	624.61	12.49	0.15
0.874	368.28	615.74	12.49	0.15
0.874	363.33	606.82	12.5	0.15
0.874	358.39	597.87	12.5	0.15
0.874	353.43	588.71	12.5	0.15
0.874	348.51	579.9	12.51	0.15
0.874	343.56	570.8	12.51	0.15
0.874	338.61	561.65	12.52	0.15
0.874	333.6	552.32	12.52	0.15
0.874	328.6	543.23	12.52	0.15
0.874	323.69	533.88	12.53	0.15
0.874	318.78	525.03	12.53	0.15
0.874	313.74	515.35	12.53	0.15
0.874	308.79	506.01	12.54	0.15
0.874	298.86	487.12	12.55	0.15
