Measured thermophysical data. Below the room temperature measurements of solubilities in ester absorbents for CO2 capture
Source: J. Chem. Thermodyn., 2018, 10.1016/j.jct.2018.07.021
Compound 1: carbon dioxide, CO2, InChI=1S/CO2/c2-1-3, purity 99.999%
Compound 2: methyl benzoate, C8H8O2, InChI=1S/C8H8O2/c1-10-8(9)7-5-3-2-4-6-7/h2-6H,1H3, purity 99%
Compound 3: methyl heptanoate, C8H16O2, InChI=1S/C8H16O2/c1-3-4-5-6-7-8(9)10-2/h3-7H2,1-2H3, purity 97%
Compound 4: ethyl hexanoate, C8H16O2, InChI=1S/C8H16O2/c1-3-5-6-7-8(9)10-4-2/h3-7H2,1-2H3, purity 99%
Compound 5: butyl butanoate, C8H16O2, InChI=1S/C8H16O2/c1-3-5-7-10-8(9)6-4-2/h3-7H2,1-2H3, purity 99%
Compound 6: ethyl phosphate, C6H15O4P, InChI=1S/C6H15O4P/c1-4-8-11(7,9-5-2)10-6-3/h4-6H2,1-3H3, purity 99.8%
Compound 7: tributyl phosphate, C12H27O4P, InChI=1S/C12H27O4P/c1-4-7-10-14-17(13,15-11-8-5-2)16-12-9-6-3/h4-12H2,1-3H3, purity 99%

System: carbon dioxide + methyl benzoate; phases: Liquid, Gas
Property: Mole fraction of carbon dioxide (Liquid); method: Phase equilibration
Temperature, K	Pressure, kPa	Mole fraction of carbon dioxide	uncertainty
273.15	137.5	0.0313	0.0018
273.15	332.9	0.0755	0.0043
273.15	443.5	0.1022	0.0058
273.15	595.2	0.1385	0.0078
273.15	730.8	0.1697	0.0096
273.15	1066.3	0.2409	0.0136
273.15	1102.4	0.2523	0.0142
273.15	1198.2	0.2734	0.0154
283.15	141.5	0.0266	0.0015
283.15	305.9	0.057	0.0032
283.15	453.5	0.0862	0.0049
283.15	598.1	0.1154	0.0065
283.15	756.2	0.142	0.008
283.15	896.5	0.167	0.0094
283.15	1083.3	0.2021	0.0114
283.15	1199.7	0.2252	0.0127

System: carbon dioxide + methyl heptanoate; phases: Liquid, Gas
Property: Mole fraction of carbon dioxide (Liquid); method: Phase equilibration
Temperature, K	Pressure, kPa	Mole fraction of carbon dioxide	uncertainty
273.15	160.5	0.0519	0.0029
273.15	333	0.111	0.0063
273.15	514.8	0.1719	0.0097
273.15	640.5	0.2157	0.0122
273.15	761.5	0.2553	0.0144
273.15	915.2	0.3068	0.0173
273.15	1051.2	0.3453	0.0195
273.15	1184.1	0.3891	0.022
283.15	165.7	0.0466	0.0026
283.15	345.9	0.0933	0.0053
283.15	484.4	0.1312	0.0074
283.15	612.8	0.1646	0.0093
283.15	857.3	0.2314	0.0131
283.15	940.8	0.2555	0.0144
283.15	1057	0.2941	0.0166
283.15	1193.3	0.3261	0.0184

System: carbon dioxide + ethyl hexanoate; phases: Liquid, Gas
Property: Mole fraction of carbon dioxide (Liquid); method: Phase equilibration
Temperature, K	Pressure, kPa	Mole fraction of carbon dioxide	uncertainty
273.15	174	0.0588	0.0033
273.15	357.5	0.1164	0.0066
273.15	516	0.1754	0.0099
273.15	638.2	0.2167	0.0122
273.15	805	0.2719	0.0153
273.15	938.5	0.3184	0.0179
273.15	1057.4	0.3523	0.0198
273.15	1199.7	0.3968	0.0223
283.15	153.8	0.0421	0.0024
283.15	324.9	0.0897	0.0051
283.15	531.1	0.1476	0.0083
283.15	654.2	0.1837	0.0103
283.15	790.4	0.2226	0.0125
283.15	945.9	0.263	0.0148
283.15	1059.4	0.3003	0.0169
283.15	1190.9	0.3289	0.0185

System: carbon dioxide + butyl butanoate; phases: Liquid, Gas
Property: Mole fraction of carbon dioxide (Liquid); method: Phase equilibration
Temperature, K	Pressure, kPa	Mole fraction of carbon dioxide	uncertainty
273.15	164.2	0.055	0.0031
273.15	276.7	0.0914	0.0051
273.15	443.5	0.1489	0.0084
273.15	571.7	0.1949	0.011
273.15	719.4	0.2459	0.0138
273.15	907.6	0.3072	0.0173
273.15	1010.6	0.3381	0.019
273.15	1159.7	0.3905	0.022
283.15	128.3	0.0368	0.0021
283.15	291.5	0.0826	0.0047
283.15	431.5	0.1254	0.0071
283.15	590.6	0.1692	0.0095
283.15	720.4	0.2004	0.0113
283.15	864.9	0.2403	0.0135
283.15	1014.7	0.2888	0.0163
283.15	1136.9	0.3224	0.0182

System: carbon dioxide + ethyl phosphate; phases: Liquid, Gas
Property: Mole fraction of carbon dioxide (Liquid); method: Phase equilibration
Temperature, K	Pressure, kPa	Mole fraction of carbon dioxide	uncertainty
273.15	141.6	0.048	0.0027
273.15	296.8	0.1018	0.0057
273.15	446.5	0.1524	0.0086
273.15	569.5	0.1993	0.0112
273.15	702.7	0.2393	0.0135
273.15	843.9	0.2952	0.0166
273.15	971.7	0.3347	0.0188
273.15	1139.2	0.3962	0.0223
283.15	133.9	0.039	0.0022
283.15	286.8	0.0827	0.0047
283.15	421.1	0.1253	0.0071
283.15	573	0.1687	0.0095
283.15	715.6	0.2072	0.0117
283.15	856.9	0.2517	0.0142
283.15	975	0.2828	0.0159
283.15	1139.3	0.3353	0.0189

System: carbon dioxide + tributyl phosphate; phases: Liquid, Gas
Property: Mole fraction of carbon dioxide (Liquid); method: Phase equilibration
Temperature, K	Pressure, kPa	Mole fraction of carbon dioxide	uncertainty
273.15	136.8	0.0641	0.0036
273.15	321	0.1559	0.0088
273.15	436.4	0.2107	0.0119
273.15	565.1	0.2755	0.0155
273.15	713.8	0.3394	0.0191
273.15	852.6	0.4026	0.0227
273.15	1007.5	0.4803	0.0271
273.15	1145.9	0.5498	0.0254
283.15	150.7	0.0619	0.0035
283.15	299.7	0.1236	0.007
283.15	429.8	0.1709	0.0096
283.15	581.7	0.2384	0.0134
283.15	726.6	0.2968	0.0167
283.15	869.9	0.3564	0.0201
283.15	999	0.4036	0.0227
283.15	1128.3	0.4506	0.0254
