Measured thermophysical data. Vapour pressures and enthalpies of vapourization of a series of the c-lactones
Source: J. Chem. Thermodyn., 2008, 10.1016/j.jct.2008.02.002
Compound 1: .gamma.-valerolactone, C5H8O2, InChI=1S/C5H8O2/c1-4-2-3-5(6)7-4/h4H,2-3H2,1H3, purity 99%
Compound 2: 2(3H)-furanone, 5-ethyldihydro-, C6H10O2, InChI=1S/C6H10O2/c1-2-5-3-4-6(7)8-5/h5H,2-4H2,1H3, purity 99%
Compound 3: 2(3H)-furanone, dihydro-5-propyl-, C7H12O2, InChI=1S/C7H12O2/c1-2-3-6-4-5-7(8)9-6/h6H,2-5H2,1H3, purity 99%
Compound 4: 2(3H)-furanone, dihydro-5-pentyl-, C9H16O2, InChI=1S/C9H16O2/c1-2-3-4-5-8-6-7-9(10)11-8/h8H,2-7H2,1H3, purity 99%
Compound 5: .gamma.-decalactone, C10H18O2, InChI=1S/C10H18O2/c1-2-3-4-5-6-9-7-8-10(11)12-9/h9H,2-8H2,1H3, purity 99%

System: .gamma.-valerolactone; phases: Liquid, Gas
Property: Vapor or sublimation pressure, kPa (Liquid); method: Transpiration method
Temperature, K	Vapor or sublimation pressure, kPa	uncertainty
275.8	0.00748	0.00041
282	0.0128	0.00068
288	0.02076	0.00108
292.8	0.02954	0.00169
293.4	0.03202	0.0018
298.6	0.04438	0.0023
300.7	0.05548	0.00288
302.7	0.06032	0.00317
306.6	0.08358	0.00433
309	0.09563	0.00498
312.9	0.12652	0.00651
317.3	0.15988	0.00824
322.3	0.21947	0.01131
326.9	0.29116	0.01496
332.4	0.39294	0.0201
333.9	0.44752	0.0229
337.3	0.51673	0.02635
338.8	0.58005	0.0298
342.6	0.70114	0.03574
343.8	0.759	0.03888
347.5	0.90987	0.04641
349.7	1.0331	0.0529

System: 2(3H)-furanone, 5-ethyldihydro-; phases: Liquid, Gas
Property: Vapor or sublimation pressure, kPa (Liquid); method: Transpiration method
Temperature, K	Vapor or sublimation pressure, kPa	uncertainty
283.3	0.00612	0.00032
284.1	0.00643	0.00034
285.3	0.00733	0.00041
288.2	0.00998	0.00053
290.2	0.01151	0.00061
293.2	0.01468	0.00076
295.3	0.0168	0.00088
298.2	0.02155	0.00115
300.2	0.0271	0.00142
303.2	0.0324	0.00167
305.2	0.0372	0.00195
308.1	0.04647	0.0024
310.1	0.05153	0.00268
313.2	0.06502	0.00334
315.1	0.06992	0.00361
318.2	0.08725	0.00459
323.2	0.12669	0.00656
328.2	0.17194	0.00884
333.2	0.23055	0.01185
338.2	0.30925	0.01587
343.1	0.40649	0.02083
348.2	0.53744	0.02743
350.9	0.62379	0.03182
353.3	0.69816	0.03545

System: 2(3H)-furanone, dihydro-5-propyl-; phases: Liquid, Gas
Property: Vapor or sublimation pressure, kPa (Liquid); method: Transpiration method
Temperature, K	Vapor or sublimation pressure, kPa	uncertainty
298.1	0.00729	0.00039
302.8	0.01081	0.00057
308	0.01613	0.00085
313.1	0.02435	0.00127
318	0.03459	0.00181
323.1	0.05178	0.00269
328.1	0.07127	0.00366
333	0.09289	0.00481
338.2	0.13443	0.00696
343.2	0.18418	0.00946
348.2	0.24317	0.01248
353.2	0.32393	0.01665
358.4	0.44077	0.02259
363.2	0.57196	0.02912

System: 2(3H)-furanone, dihydro-5-pentyl-; phases: Liquid, Gas
Property: Vapor or sublimation pressure, kPa (Liquid); method: Transpiration method
Temperature, K	Vapor or sublimation pressure, kPa	uncertainty
296.2	0.00085	5e-05
300	0.00123	7e-05
306	0.00211	0.00011
313.1	0.00391	0.0002
318.1	0.00574	0.0003
323.2	0.0088	0.00046
328.2	0.01277	0.00067
333.1	0.01835	0.00095
338	0.02514	0.00131
342.8	0.03648	0.00191
348.4	0.05463	0.00282
353.2	0.07252	0.00377
358.1	0.10373	0.00534
363.4	0.13749	0.00699

System: .gamma.-decalactone; phases: Liquid, Gas
Property: Vapor or sublimation pressure, kPa (Liquid); method: Transpiration method
Temperature, K	Vapor or sublimation pressure, kPa	uncertainty
298.4	0.00035	2e-05
303.3	0.00056	3e-05
308.2	0.00088	5e-05
313.1	0.00146	7e-05
313.4	0.00144	7e-05
318.2	0.00214	0.00011
318.2	0.00233	0.00012
322.9	0.00339	0.00017
323.2	0.00345	0.00018
328.1	0.00532	0.00028
328.2	0.00523	0.00028
333	0.00765	0.0004
333.2	0.00791	0.00041
338.1	0.0114	0.00059
338.7	0.01181	0.00061
343.2	0.01646	0.00087
343.9	0.01747	0.00092
348.2	0.02361	0.00121
349.4	0.02507	0.00132
353.3	0.03379	0.00174
354.8	0.03595	0.0019
360.3	0.05404	0.0028
365	0.07279	0.00373
