Measured thermophysical data. Micro-combustion calorimetry employing a Calvet heat flux calorimeter
Source: J. Chem. Thermodyn., 2004, 10.1016/j.jct.2004.04.002
Compound 1: carbon dioxide, CO2, InChI=1S/CO2/c2-1-3
Compound 2: water, H2O, InChI=1S/H2O/h1H2
Compound 3: oxygen, O2, InChI=1S/O2/c1-2
Compound 4: butanedioic acid, C4H6O4, InChI=1S/C4H6O4/c5-3(6)1-2-4(7)8/h1-2H2,(H,5,6)(H,7,8)

Reaction: -1 butanedioic acid + 4 carbon dioxide + 3 water + -3.5 oxygen
Property: Molar internal energy of reaction at constant volume, kJ/mol
-1494.38

Reaction: -1 butanedioic acid + 4 carbon dioxide + 3 water + -3.5 oxygen
Property: Molar internal energy of reaction at constant volume, kJ/mol
-1493.34

Reaction: -1 butanedioic acid + 4 carbon dioxide + 3 water + -3.5 oxygen
Property: Molar internal energy of reaction at constant volume, kJ/mol
-1493.35
