Measured thermophysical data. Structure making properties of 1-(2-hydroxylethyl)-3- methylimidazolium chloride ionic liquid
Source: J. Chem. Thermodyn., 2016, 10.1016/j.jct.2015.12.012
Compound 1: 1-(2-hydroxyethyl)-3-methyl-1H-imidazolium chloride, C6H11ClN2O, InChI=1S/C6H11N2O.ClH/c1-7-2-3-8(6-7)4-5-9;/h2-3,6,9H,4-5H2,1H3;1H/q+1;/p-1
Compound 2: water, H2O, InChI=1S/H2O/h1H2, purity 99.8%

System: water + 1-(2-hydroxyethyl)-3-methyl-1H-imidazolium chloride; phases: Liquid
Fixed: Pressure, kPa = 100
Property: Mass density, kg/m3 (Liquid); method: Vibrating tube method
Temperature, K	Molality, mol/kg of 1-(2-hydroxyethyl)-3-methyl-1H-imidazolium chloride	Mass density, kg/m3	uncertainty
293.15	0	998.21	1.52
293.15	0.0054	998.34	1.52
293.15	0.00661	998.37	1.52
293.15	0.00978	998.46	1.52
293.15	0.01304	998.56	1.52
293.15	0.01569	998.65	1.52
293.15	0.0188	998.75	1.52
293.15	0.02189	998.86	1.52
293.15	0.02543	998.98	1.52
293.15	0.03157	999.21	1.52
298.15	0	997.05	1.52
298.15	0.0054	997.17	1.52
298.15	0.00661	997.21	1.52
298.15	0.00978	997.3	1.52
298.15	0.01304	997.39	1.52
298.15	0.01569	997.47	1.52
298.15	0.0188	997.57	1.52
298.15	0.02189	997.68	1.52
298.15	0.02543	997.81	1.52
298.15	0.03157	998.04	1.52
303.15	0	995.65	1.52
303.15	0.0054	995.77	1.52
303.15	0.00661	995.8	1.52
303.15	0.00978	995.89	1.52
303.15	0.01304	995.98	1.52
303.15	0.01569	996.07	1.52
303.15	0.0188	996.17	1.52
303.15	0.02189	996.27	1.52
303.15	0.02543	996.4	1.52
303.15	0.03157	996.63	1.52
308.15	0	994.04	1.52
308.15	0.0054	994.16	1.52
308.15	0.00661	994.19	1.52
308.15	0.00978	994.27	1.52
308.15	0.01304	994.37	1.52
308.15	0.01569	994.45	1.52
308.15	0.0188	994.55	1.52
308.15	0.02189	994.67	1.52
308.15	0.02543	994.78	1.52
308.15	0.03157	995.01	1.52
313.15	0	992.22	1.52
313.15	0.0054	992.34	1.52
313.15	0.00661	992.36	1.52
313.15	0.00978	992.45	1.52
313.15	0.01304	992.54	1.52
313.15	0.01569	992.63	1.52
313.15	0.0188	992.73	1.52
313.15	0.02189	992.83	1.52
313.15	0.02543	992.95	1.52
313.15	0.03157	993.18	1.52

System: water + 1-(2-hydroxyethyl)-3-methyl-1H-imidazolium chloride; phases: Liquid
Fixed: Pressure, kPa = 100
Property: Viscosity, Pa*s (Liquid); method: Capillary tube (Ostwald; Ubbelohde) method
Temperature, K	Molality, mol/kg of 1-(2-hydroxyethyl)-3-methyl-1H-imidazolium chloride	Viscosity, Pa*s	uncertainty
293.15	0	0.001003	2.1e-05
293.15	0.0054	0.001015	2.1e-05
293.15	0.01304	0.001023	2.1e-05
293.15	0.01569	0.001025	2.1e-05
293.15	0.02189	0.001029	2.1e-05
293.15	0.02543	0.001032	2.1e-05
293.15	0.03157	0.001036	2.2e-05
293.15	0.04098	0.001041	2.2e-05
293.15	0.05284	0.001048	2.2e-05
293.15	0.0707	0.001056	2.2e-05
293.15	0.08684	0.001063	2.2e-05
298.15	0	0.00089	1.9e-05
298.15	0.0054	0.000904	1.9e-05
298.15	0.01304	0.000912	1.9e-05
298.15	0.01569	0.000914	1.9e-05
298.15	0.02189	0.00092	1.9e-05
298.15	0.02543	0.000922	1.9e-05
298.15	0.03157	0.000926	1.9e-05
298.15	0.04098	0.000933	1.9e-05
298.15	0.05284	0.00094	2e-05
298.15	0.0707	0.000949	2e-05
298.15	0.08684	0.000957	2e-05
303.15	0	0.000797	1.7e-05
303.15	0.0054	0.000815	1.7e-05
303.15	0.01304	0.000826	1.7e-05
303.15	0.01569	0.000829	1.7e-05
303.15	0.02189	0.000835	1.7e-05
303.15	0.02543	0.000838	1.7e-05
303.15	0.03157	0.000844	1.8e-05
303.15	0.04098	0.000851	1.8e-05
303.15	0.05284	0.00086	1.8e-05
303.15	0.0707	0.000872	1.8e-05
303.15	0.08684	0.000882	1.8e-05
308.15	0	0.000719	1.5e-05
308.15	0.0054	0.000738	1.5e-05
308.15	0.01304	0.00075	1.6e-05
308.15	0.01569	0.000753	1.6e-05
308.15	0.02189	0.00076	1.6e-05
308.15	0.02543	0.000764	1.6e-05
308.15	0.03157	0.00077	1.6e-05
308.15	0.04098	0.000778	1.6e-05
308.15	0.05284	0.000787	1.6e-05
308.15	0.0707	0.000799	1.7e-05
308.15	0.08684	0.000809	1.7e-05
313.15	0	0.000653	1.4e-05
313.15	0.0054	0.000676	1.4e-05
313.15	0.01304	0.00069	1.4e-05
313.15	0.01569	0.000694	1.5e-05
313.15	0.02189	0.000702	1.5e-05
313.15	0.02543	0.000706	1.5e-05
313.15	0.03157	0.000713	1.5e-05
313.15	0.04098	0.000722	1.5e-05
313.15	0.05284	0.000732	1.5e-05
313.15	0.0707	0.000746	1.6e-05
313.15	0.08684	0.000757	1.6e-05

System: water + 1-(2-hydroxyethyl)-3-methyl-1H-imidazolium chloride; phases: Liquid
Fixed: Pressure, kPa = 100
Property: Electrical conductivity, S/m (Liquid); method: Direct current cell with electrodes
Temperature, K	Molality, mol/kg of 1-(2-hydroxyethyl)-3-methyl-1H-imidazolium chloride	Electrical conductivity, S/m	uncertainty
293.15	0.00193	0.0241	0.0077
293.15	0.00321	0.0382	0.0072
293.15	0.0054	0.0597	0.0068
293.15	0.00661	0.0701	0.0057
293.15	0.00998	0.0949	0.0058
293.15	0.01304	0.117	0.0059
293.15	0.01569	0.1331	0.0057
293.15	0.0188	0.1502	0.0058
293.15	0.02189	0.1653	0.006
298.15	0.00193	0.0281	0.0089
298.15	0.00321	0.0443	0.0084
298.15	0.0054	0.0693	0.0081
298.15	0.00661	0.082	0.0067
298.15	0.00998	0.1105	0.0068
298.15	0.01304	0.1364	0.0068
298.15	0.01569	0.1544	0.0065
298.15	0.0188	0.1735	0.0067
298.15	0.02189	0.1914	0.0069
303.15	0.00193	0.0319	0.0097
303.15	0.00321	0.0496	0.0093
303.15	0.0054	0.0776	0.009
303.15	0.00661	0.0913	0.0074
303.15	0.00998	0.1233	0.0075
303.15	0.01304	0.1513	0.0074
303.15	0.01569	0.1705	0.0071
303.15	0.0188	0.1922	0.0076
303.15	0.02189	0.2138	0.0077
308.15	0.00193	0.0357	0.011
308.15	0.00321	0.0558	0.0103
308.15	0.0054	0.0866	0.0097
308.15	0.00661	0.1004	0.0076
308.15	0.00998	0.1334	0.0079
308.15	0.01304	0.1628	0.0078
308.15	0.01569	0.183	0.0078
308.15	0.0188	0.2086	0.0081
308.15	0.02189	0.2282	0.0084
313.15	0.00193	0.0395	0.0124
313.15	0.00321	0.062	0.0112
313.15	0.0054	0.0946	0.0104
313.15	0.00661	0.1102	0.0084
313.15	0.00998	0.1459	0.0086
313.15	0.01304	0.1777	0.0085
313.15	0.01569	0.1996	0.0082
313.15	0.0188	0.2241	0.0087
313.15	0.02189	0.2479	0.0092
