Measured thermophysical data. Heat capacities of some sugar alcohols as phase change materials for thermal energy storage applications
Source: J. Chem. Thermodyn., 2017, 10.1016/j.jct.2017.08.004
Compound 1: D-mannitol, C6H14O6, InChI=1S/C6H14O6/c7-1-3(9)5(11)6(12)4(10)2-8/h3-12H,1-2H2/t3-,4-,5-,6-/m1/s1, purity 99%
Compound 2: cis-1,2,3,5-trans-4,6-cyclohexanehexol, C6H12O6, InChI=1S/C6H12O6/c7-1-2(8)4(10)6(12)5(11)3(1)9/h1-12H/t1-,2-,3-,4+,5-,6-, purity 99%
Compound 3: xylitol, C5H12O5, InChI=1S/C5H12O5/c6-1-3(8)5(10)4(9)2-7/h3-10H,1-2H2/t3-,4+,5+, purity 99%
Compound 4: D-arabitol, C5H12O5, InChI=1S/C5H12O5/c6-1-3(8)5(10)4(9)2-7/h3-10H,1-2H2/t3-,4-/m1/s1, purity 99%
Compound 5: L-(-)-arabitol, C5H12O5, InChI=1S/C5H12O5/c6-1-3(8)5(10)4(9)2-7/h3-10H,1-2H2/t3-,4-/m0/s1, purity 99%
Compound 6: meso-1,2,3,4-butanetetrol, C4H10O4, InChI=1S/C4H10O4/c5-1-3(7)4(8)2-6/h3-8H,1-2H2/t3-,4+, purity 99%

System: D-mannitol; phases: Crystal, Liquid, Air at 1 atmosphere
Property: Normal melting temperature, K (Crystal); method: DTA
Normal melting temperature, K	uncertainty
440.62	0.61

System: D-mannitol; phases: Crystal, Liquid, Air at 1 atmosphere
Property: Molar enthalpy of transition or fusion, kJ/mol (Crystal); method: DSC
Molar enthalpy of transition or fusion, kJ/mol	uncertainty
55.5	8.94

System: D-mannitol; phases: Crystal
Fixed: Pressure, kPa = 101.325
Property: Molar heat capacity at constant pressure, J/K/mol (Crystal); method: RELAXCAL
Temperature, K	Molar heat capacity at constant pressure, J/K/mol	uncertainty
1.923	0.006707	0.0005687
2.139	0.0091925	0.0007561
2.373	0.012557	0.000954
2.634	0.016885	0.001255
2.928	0.023006	0.001678
3.249	0.031524	0.002265
3.602	0.043027	0.003074
3.997	0.058092	0.004141
4.435	0.079036	0.005633
4.92	0.11149	0.00791
5.459	0.15345	0.01086
6.057	0.2121	0.01491
6.719	0.29512	0.02072
7.454	0.4159	0.0292
8.269	0.58289	0.04085
9.171	0.80412	0.05629
10.195	1.1305	0.0791
11.286	1.5648	0.1093
12.521	2.1634	0.151
13.895	2.9449	0.2055
15.422	3.9758	0.2773
17.111	5.2776	0.3679
18.993	6.9271	0.4828
21.081	8.8999	0.3637
23.402	11.288	0.46
25.976	14.062	0.573
28.844	17.276	0.703
32.02	20.914	0.851
35.547	25.011	1.017
39.454	29.531	1.2
43.786	34.412	1.399
48.585	39.526	1.606
53.918	45.291	1.84
59.835	51.455	2.091
66.398	58.026	2.357
73.71	64.845	2.634
81.8	72.993	2.965
90.802	80.087	3.253
100.744	87.67	3.562
110.88	96.151	3.907
120.829	104.57	4.25
130.91	112.04	4.55
140.974	119.24	4.84
151.125	126.15	5.12
161.202	133.18	5.41
171.285	140.05	5.69
181.373	147.35	5.99
191.444	154.23	6.27
201.564	160.73	6.53
211.668	167.61	6.81
221.784	175.44	7.13
231.876	182.4	7.41
241.892	189.63	7.7
252.028	197.13	8.01
262.092	203.85	8.28
272.115	211.38	8.59
282.176	219	8.9
292.304	226.18	9.19
302.316	233.27	9.48

System: D-mannitol; phases: Crystal
Fixed: Pressure, kPa = 101.325
Property: Molar heat capacity at constant pressure, J/K/mol (Crystal); method: RELAXCAL
Temperature, K	Molar heat capacity at constant pressure, J/K/mol	uncertainty
1	0.0011993	0.0001473
2	0.0075827	0.0005204
3	0.024689	0.001596
4	0.058716	0.003712
5	0.11673	0.0073
6	0.20675	0.01285
7	0.33759	0.02091
8	0.51874	0.03205
9	0.76144	0.04695
10	1.0705	0.0658
15	3.6704	0.2252
20	7.8325	0.48
25	13.011	0.797
30	18.656	1.143
35	24.399	1.494
40	30.072	1.842
45	35.64	2.183
50	41.114	2.518
55	46.476	2.846
60	51.668	3.164
65	56.626	3.468
70	61.477	3.765
75	66.194	4.054
80	70.77	4.334
85	75.216	4.606
90	79.54	4.871
95	83.754	5.129
100	87.867	5.381
110	95.829	5.868
120	103.5	6.34
130	110.93	6.79
140	118.19	7.24
150	125.32	7.67
160	132.36	8.11
170	139.33	8.53
180	146.27	8.96
190	153.2	9.38
200	160.12	9.81
210	167.07	10.23
220	174.05	10.66
230	181.07	11.09
240	188.14	11.52
250	195.26	11.96
260	202.45	12.4
270	209.71	12.84
273.15	212.01	12.98
280	217.04	13.29
290	224.45	13.74
298.15	230.54	14.12
300	231.93	14.2

System: D-mannitol; phases: Crystal
Fixed: Pressure, kPa = 101.325
Property: Molar entropy, J/K/mol (Crystal); method: RELAXCAL
Temperature, K	Molar entropy, J/K/mol	uncertainty
1	0.00063097	7.458e-05
2	0.0029779	0.0002856
3	0.0088284	0.0008288
4	0.020107	0.001871
5	0.038926	0.003607
6	0.067615	0.00625
7	0.10873	0.01003
8	0.16501	0.01521
9	0.23949	0.02206
10	0.33511	0.03084
15	1.2019	0.1105
20	2.7962	0.257
25	5.0869	0.4674
30	7.9545	0.7308
35	11.262	1.035
40	14.891	1.368
45	18.756	1.723
50	22.795	2.094
55	26.966	2.477
60	31.234	2.869
65	35.567	3.267
70	39.941	3.669
75	44.344	4.073
80	48.763	4.479
85	53.187	4.886
90	57.609	5.292
95	62.023	5.697
100	66.424	6.101
110	75.175	6.905
120	83.844	7.702
130	92.423	8.49
140	100.91	9.27
150	109.31	10.04
160	117.62	10.8
170	125.86	11.56
180	134.02	12.31
190	142.11	13.05
200	150.14	13.79
210	158.13	14.53
220	166.06	15.25
230	173.95	15.98
240	181.8	16.7
250	189.63	17.42
260	197.43	18.14
270	205.2	18.85
273.15	207.65	19.07
280	212.96	19.56
290	220.71	20.27
298.15	227.01	20.85
300	228.44	20.98

System: D-mannitol; phases: Crystal
Fixed: Pressure, kPa = 101.325
Property: Molar enthalpy, kJ/mol (Crystal); method: RELAXCAL
Temperature, K	Molar enthalpy, kJ/mol	uncertainty
1	3.8642e-07	7.838e-08
2	4.1226e-06	3.144e-07
3	1.9119e-05	1.294e-06
4	5.913e-05	3.832e-06
5	0.00014454	9.18e-06
6	0.00030326	1.906e-05
7	0.00057164	3.568e-05
8	0.00099514	6.185e-05
9	0.0016299	0.000101
10	0.0025402	0.0001566
15	0.013664	0.00084
20	0.041871	0.002569
25	0.093681	0.005743
30	0.17275	0.01059
35	0.28039	0.01718
40	0.41661	0.02552
45	0.58094	0.03558
50	0.77286	0.04733
55	0.99189	0.06075
60	1.2373	0.0758
65	1.5082	0.0924
70	1.8034	0.1104
75	2.1226	0.13
80	2.4651	0.151
85	2.8301	0.1733
90	3.2171	0.197
95	3.6253	0.222
100	4.0544	0.2483
110	4.9732	0.3046
120	5.97	0.3656
130	7.0423	0.4313
140	8.1881	0.5014
150	9.4058	0.576
160	10.694	0.655
170	12.053	0.738
180	13.481	0.826
190	14.978	0.917
200	16.545	1.013
210	18.181	1.113
220	19.886	1.218
230	21.662	1.327
240	23.508	1.44
250	25.425	1.557
260	27.413	1.679
270	29.474	1.805
273.15	30.138	1.846
280	31.608	1.936
290	33.815	2.071
298.15	35.669	2.184
300	36.097	2.21

System: D-mannitol; phases: Crystal
Fixed: Pressure, kPa = 101.325
Property: Molar heat capacity at constant pressure, J/K/mol (Crystal); method: Small sample (50 mg) DSC
Temperature, K	Molar heat capacity at constant pressure, J/K/mol	uncertainty
188.15	143.51	23.05
189.15	144.52	23.21
190.15	145.73	23.41
191.15	146.73	23.57
192.15	147.51	23.69
193.15	148.54	23.86
194.15	149.99	24.09
195.15	151.06	24.26
196.15	152.24	24.45
197.15	153.48	24.65
198.15	154.54	24.82
199.15	155.53	24.98
200.15	156.46	25.13
201.15	157.4	25.28
202.15	158.14	25.4
203.15	158.99	25.54
204.15	159.96	25.69
205.15	160.76	25.82
206.15	161.64	25.96
207.15	162.47	26.1
208.15	163.24	26.22
209.15	163.78	26.31
210.15	164.68	26.45
211.15	165.46	26.58
212.15	166.24	26.7
213.15	167.09	26.84
214.15	167.92	26.97
215.15	168.49	27.06
216.15	169.55	27.23
217.15	170.24	27.34
218.15	170.94	27.46
219.15	171.88	27.61
220.15	172.81	27.76
221.15	173.38	27.85
222.15	174.15	27.97
223.15	174.98	28.11
224.15	175.72	28.22
225.15	176.52	28.35
226.15	177.3	28.48
227.15	177.96	28.58
228.15	178.66	28.7
229.15	179.32	28.8
230.15	179.98	28.91
231.15	180.68	29.02
232.15	181.3	29.12
233.15	182.34	29.29
234.15	182.94	29.38
235.15	183.75	29.51
236.15	184.67	29.66
237.15	185.22	29.75
238.15	186	29.88
239.15	186.79	30
240.15	187.46	30.11
241.15	188.04	30.2
242.15	188.69	30.31
243.15	189.39	30.42
244.15	190.16	30.54
245.15	190.77	30.64
246.15	191.37	30.74
247.15	192.19	30.87
248.15	192.92	30.99
249.15	193.73	31.12
250.15	194.6	31.26
251.15	195.14	31.34
252.15	195.91	31.47
253.15	196.71	31.6
254.15	197.56	31.73
255.15	198.46	31.88
256.15	199.17	31.99
257.15	199.9	32.11
258.15	200.87	32.26
259.15	201.58	32.38
260.15	202.15	32.47
261.15	203.09	32.62
262.15	203.84	32.74
263.15	204.4	32.83
264.15	205.1	32.94
265.15	205.89	33.07
266.15	206.4	33.15
267.15	207.11	33.27
268.15	207.89	33.39
269.15	208.64	33.51
270.15	209.5	33.65
271.15	210.37	33.79
272.15	211.22	33.93
273.15	211.63	33.99
274.15	212.27	34.1
275.15	213.11	34.23
276.15	213.85	34.35
277.15	214.68	34.48
278.15	215.33	34.59
279.15	216.09	34.71
280.15	216.75	34.82
281.15	217.54	34.94
282.15	218.34	35.07
283.15	219.11	35.19
284.15	219.88	35.32
285.15	220.37	35.4
286.15	221.11	35.52
287.15	221.79	35.62
288.15	222.53	35.74
289.15	223.23	35.86
290.15	223.75	35.94
291.15	224.51	36.06
292.15	225.52	36.22
293.15	226.11	36.32
294.15	226.79	36.43
295.15	227.7	36.57
296.15	228.45	36.69
297.15	229.12	36.8
298.15	229.81	36.91
299.15	230.64	37.05
300.15	231.67	37.21
301.15	232.46	37.34
302.15	233.28	37.47
303.15	234.21	37.62
304.15	235.1	37.76
305.15	236.24	37.95
306.15	237.06	38.08
307.15	238.05	38.24
308.15	239.43	38.46
309.15	240.22	38.59
310.15	241.1	38.73
311.15	242.22	38.91
312.15	243.21	39.07
313.15	244.03	39.2
314.15	244.96	39.35
315.15	245.76	39.47
316.15	246.45	39.59
317.15	247.23	39.71
318.15	248.19	39.87
319.15	249.13	40.02
320.15	250.01	40.16
321.15	250.96	40.31
322.15	251.62	40.42
323.15	252.78	40.6
324.15	253.84	40.77
325.15	254.69	40.91
326.15	255.76	41.08
327.15	256.67	41.23
328.15	257.61	41.38
329.15	258.51	41.52
330.15	259.36	41.66
331.15	260.09	41.78
332.15	260.73	41.88
333.15	261.83	42.06
334.15	262.7	42.2
335.15	263.13	42.26
336.15	263.97	42.4
337.15	264.87	42.54
338.15	265.55	42.65
339.15	266.62	42.83
340.15	267.34	42.94
341.15	268.11	43.06
342.15	269.07	43.22
343.15	270.04	43.37
344.15	271.03	43.53
345.15	272.18	43.72
346.15	272.93	43.84
347.15	273.5	43.93
348.15	274.48	44.09
349.15	275.36	44.23
350.15	275.83	44.3
351.15	276.6	44.43
352.15	277.59	44.59
353.15	278.11	44.67
354.15	278.88	44.79
355.15	279.75	44.93
356.15	280.45	45.05
357.15	281.3	45.18
358.15	282.01	45.3
359.15	282.77	45.42
360.15	283.45	45.53
361.15	284.29	45.66
362.15	285.29	45.82
363.15	285.81	45.91
364.15	286.87	46.08
365.15	287.69	46.21
366.15	288.42	46.33
367.15	289.35	46.48
368.15	290.07	46.59
369.15	290.83	46.71
370.15	291.54	46.83
371.15	292.39	46.96
372.15	293.2	47.09
373.15	293.84	47.2
374.15	294.5	47.3
375.15	295.14	47.41
376.15	295.96	47.54
377.15	296.71	47.66
378.15	297.3	47.75
379.15	297.95	47.86
380.15	298.84	48
381.15	299.49	48.11
382.15	300.09	48.2
383.15	300.96	48.34
384.15	301.85	48.48
385.15	302.62	48.61
386.15	303.19	48.7
387.15	303.89	48.81
388.15	304.75	48.95
389.15	305.62	49.09
390.15	306.4	49.22
391.15	307.13	49.33
392.15	307.69	49.42
393.15	308.43	49.54
394.15	309.27	49.68
395.15	309.91	49.78
396.15	310.41	49.86
397.15	311.05	49.96
398.15	311.45	50.03
399.15	312.11	50.13
400.15	312.88	50.26
401.15	313.5	50.36
402.15	314.14	50.46
403.15	315.02	50.6
404.15	315.76	50.72
405.15	316.19	50.79
406.15	317	50.92
407.15	317.55	51.01
408.15	318.33	51.13
409.15	319.11	51.26
410.15	319.62	51.34
411.15	320.34	51.45
412.15	321.09	51.57
413.15	321.71	51.67
414.15	322.33	51.77
415.15	323.11	51.9
416.15	323.76	52
417.15	324.47	52.12
418.15	325.49	52.28
419.15	326.12	52.38
420.15	327.06	52.53
421.15	327.89	52.67
422.15	328.71	52.8
423.15	329.87	52.98
424.15	330.92	53.15
425.15	332.36	53.38

System: D-mannitol; phases: Liquid
Fixed: Pressure, kPa = 101.325
Property: Molar heat capacity at constant pressure, J/K/mol (Liquid); method: Small sample (50 mg) DSC
Temperature, K	Molar heat capacity at constant pressure, J/K/mol	uncertainty
458.15	511.69	82.19
459.15	511.2	82.11
460.15	510.98	82.08
461.15	510.64	82.02
462.15	510.47	81.99
463.15	510.51	82
464.15	510.42	81.99
465.15	510.6	82.01
466.15	510.6	82.01
467.15	510.56	82.01
468.15	510.86	82.06
469.15	511.11	82.1
470.15	511.08	82.09
471.15	511.49	82.16
472.15	511.38	82.14
473.15	511.18	82.11
474.15	511.09	82.09
475.15	510.93	82.07
476.15	510.9	82.06
477.15	510.87	82.06
478.15	510.67	82.03
479.15	510.62	82.02
480.15	510.66	82.02
481.15	510.52	82
482.15	510.71	82.03
483.15	510.62	82.02
484.15	510.5	82
485.15	510.63	82.02
486.15	510.59	82.01
487.15	510.6	82.01
488.15	510.74	82.04

System: D-mannitol; phases: Crystal
Fixed: Pressure, kPa = 101.325
Property: Molar heat capacity at constant pressure, J/K/mol (Crystal); method: Small sample (50 mg) DSC
Temperature, K	Molar heat capacity at constant pressure, J/K/mol	uncertainty
305	236.23	37.94
310	241.08	38.72
315	245.72	39.47
320	250.2	40.19
325	254.58	40.89
330	258.9	41.59
335	263.16	42.27
340	267.39	42.95
345	271.57	43.62
350	275.71	44.29
355	279.8	44.94
360	283.81	45.59
365	287.75	46.22
370	291.59	46.84
375	295.33	47.44
380	298.96	48.02
385	302.49	48.59
390	305.94	49.14
395	309.33	49.69
400	312.71	50.23
405	316.13	50.78
410	319.66	51.35
415	323.4	51.95
420	327.48	52.6
425	332.03	53.33

System: D-mannitol; phases: Crystal
Fixed: Pressure, kPa = 101.325
Property: Molar entropy, J/K/mol (Crystal); method: Small sample (50 mg) DSC
Temperature, K	Molar entropy, J/K/mol	uncertainty
305	232.31	55.97
310	236.19	56.91
315	240.08	57.84
320	243.99	58.79
325	247.9	59.73
330	251.82	60.67
335	255.74	61.62
340	259.67	62.56
345	263.61	63.51
350	267.55	64.46
355	271.49	65.41
360	275.43	66.36
365	279.37	67.31
370	283.31	68.26
375	287.25	69.21
380	291.19	70.16
385	295.12	71.1
390	299.04	72.05
395	302.96	72.99
400	306.87	73.94
405	310.78	74.88
410	314.68	75.82
415	318.58	76.76
420	322.47	77.69
425	326.38	78.64
430	330.31	79.58
435	334.63	80.62

System: D-mannitol; phases: Crystal
Fixed: Pressure, kPa = 101.325
Property: Molar enthalpy, kJ/mol (Crystal); method: Small sample (50 mg) DSC
Temperature, K	Molar enthalpy, kJ/mol	uncertainty
305	37.265	5.986
310	38.459	6.177
315	39.676	6.373
320	40.916	6.572
325	42.178	6.775
330	43.461	6.981
335	44.767	7.191
340	46.093	7.404
345	47.44	7.62
350	48.809	7.84
355	50.197	8.063
360	51.606	8.289
365	53.035	8.519
370	54.484	8.751
375	55.951	8.987
380	57.437	9.226
385	58.941	9.467
390	60.462	9.712
395	62	9.959
400	63.555	10.208
405	65.127	10.461
410	66.716	10.716
415	68.324	10.974
420	69.951	11.236
425	71.6	11.501
430	73.283	11.771
435	75.151	12.071

System: D-mannitol; phases: Liquid
Fixed: Pressure, kPa = 101.325
Property: Molar heat capacity at constant pressure, J/K/mol (Liquid); method: Small sample (50 mg) DSC
Temperature, K	Molar heat capacity at constant pressure, J/K/mol	uncertainty
460	511.26	82.12
465	511.16	82.1
470	511.05	82.09
475	510.95	82.07
480	510.84	82.05
485	510.74	82.04
490	510.64	82.02

System: D-mannitol; phases: Liquid
Fixed: Pressure, kPa = 101.325
Property: Molar entropy, J/K/mol (Liquid); method: Small sample (50 mg) DSC
Temperature, K	Molar entropy, J/K/mol	uncertainty
450	463.49	111.67
455	469.61	113.15
460	475.21	114.5
465	480.73	115.83
470	486.2	117.14
475	491.61	118.45
480	496.96	119.74
485	502.25	121.01
490	507.49	122.27

System: D-mannitol; phases: Liquid
Fixed: Pressure, kPa = 101.325
Property: Molar enthalpy, kJ/mol (Liquid); method: Small sample (50 mg) DSC
Temperature, K	Molar enthalpy, kJ/mol	uncertainty
450	132.29	21.25
455	135.06	21.69
460	137.62	22.11
465	140.18	22.52
470	142.73	22.93
475	145.29	23.34
480	147.84	23.75
485	150.4	24.16
490	152.95	24.57

System: cis-1,2,3,5-trans-4,6-cyclohexanehexol; phases: Crystal, Liquid, Air at 1 atmosphere
Property: Normal melting temperature, K (Crystal); method: DTA
Normal melting temperature, K	uncertainty
497.73	0.61

System: cis-1,2,3,5-trans-4,6-cyclohexanehexol; phases: Crystal, Liquid, Air at 1 atmosphere
Property: Molar enthalpy of transition or fusion, kJ/mol (Crystal); method: DSC
Molar enthalpy of transition or fusion, kJ/mol	uncertainty
50.15	7.09

System: cis-1,2,3,5-trans-4,6-cyclohexanehexol; phases: Crystal
Fixed: Pressure, kPa = 101.325
Property: Molar heat capacity at constant pressure, J/K/mol (Crystal); method: RELAXCAL
Temperature, K	Molar heat capacity at constant pressure, J/K/mol	uncertainty
1.926	0.0096092	0.0008049
2.127	0.012922	0.001053
2.354	0.017575	0.001331
2.61	0.022813	0.0017
2.904	0.031479	0.002302
3.219	0.042815	0.003127
3.569	0.058603	0.004201
3.959	0.080719	0.005761
4.391	0.11206	0.008
4.872	0.15616	0.0111
5.405	0.21819	0.01545
5.998	0.30557	0.02149
6.654	0.42727	0.03
7.388	0.59917	0.04206
8.198	0.83473	0.05849
9.101	1.1498	0.0804
10.153	1.591	0.1112
11.247	2.1312	0.1488
12.479	2.8268	0.1972
13.854	3.6742	0.2562
15.391	4.7139	0.3286
17.073	5.9453	0.4143
18.956	7.3931	0.5151
21.044	8.992	0.3666
23.367	10.83	0.441
25.95	12.774	0.52
28.808	14.981	0.609
31.995	17.421	0.708
35.498	20.133	0.818
39.371	23.305	0.947
43.706	26.656	1.083
48.503	30.264	1.23
53.844	34.363	1.396
59.749	39.028	1.586
66.317	44.212	1.796
73.64	49.902	2.027
81.732	56.703	2.304
90.712	63.717	2.588
100.657	71.122	2.89
110.793	79.628	3.236
120.832	87.979	3.575
130.894	95.771	3.891
141.016	103.28	4.2
151.122	110.61	4.49
161.242	117.92	4.79
171.288	125.13	5.08
181.386	132.46	5.38
191.476	139.61	5.67
201.579	146.36	5.95
211.702	153.74	6.25
221.789	161.31	6.55
231.876	168.69	6.85
241.957	176.25	7.16
251.985	183.44	7.45
262.105	191.23	7.77
272.171	198.87	8.08
282.183	206.06	8.37
292.293	213.34	8.67
302.401	220.86	8.97

System: cis-1,2,3,5-trans-4,6-cyclohexanehexol; phases: Crystal
Fixed: Pressure, kPa = 101.325
Property: Molar heat capacity at constant pressure, J/K/mol (Crystal); method: RELAXCAL
Temperature, K	Molar heat capacity at constant pressure, J/K/mol	uncertainty
1	0.0018901	0.0002125
2	0.010802	0.000739
3	0.034786	0.002251
4	0.083673	0.005298
5	0.16929	0.0106
6	0.30481	0.01896
7	0.50308	0.03116
8	0.77307	0.04773
9	1.1131	0.0686
10	1.5233	0.0936
15	4.447	0.2726
20	8.1926	0.5019
25	12.085	0.74
30	15.902	0.974
35	19.729	1.208
40	23.675	1.45
45	27.686	1.695
50	31.584	1.934
55	35.273	2.16
60	39.121	2.396
65	43.043	2.636
70	47.022	2.88
75	51.044	3.126
80	55.093	3.374
85	59.153	3.622
90	63.211	3.871
95	67.255	4.119
100	71.276	4.365
110	79.225	4.852
120	87.032	5.33
130	94.695	5.799
140	102.22	6.26
150	109.64	6.71
160	116.97	7.16
170	124.22	7.61
180	131.43	8.05
190	138.61	8.49
200	145.78	8.93
210	152.96	9.37
220	160.15	9.81
230	167.37	10.25
240	174.63	10.69
250	181.94	11.14
260	189.3	11.59
270	196.73	12.05
273.15	199.08	12.19
280	204.22	12.51
290	211.78	12.97
298.15	218	13.35
300	219.42	13.44

System: cis-1,2,3,5-trans-4,6-cyclohexanehexol; phases: Crystal
Fixed: Pressure, kPa = 101.325
Property: Molar entropy, J/K/mol (Crystal); method: RELAXCAL
Temperature, K	Molar entropy, J/K/mol	uncertainty
1	0.0011329	0.0001247
2	0.0045703	0.0004358
3	0.012828	0.001203
4	0.028803	0.002681
5	0.055871	0.005178
6	0.097856	0.009047
7	0.15885	0.01466
8	0.24285	0.02239
9	0.35284	0.03251
10	0.49074	0.04516
15	1.6185	0.1488
20	3.401	0.3125
25	5.6481	0.5189
30	8.1898	0.7524
35	10.927	1.004
40	13.818	1.269
45	16.838	1.547
50	19.959	1.833
55	23.143	2.126
60	26.376	2.423
65	29.662	2.725
70	32.997	3.031
75	36.379	3.342
80	39.802	3.656
85	43.264	3.974
90	46.76	4.295
95	50.286	4.619
100	53.838	4.945
110	61.005	5.604
120	68.234	6.268
130	75.504	6.936
140	82.798	7.605
150	90.104	8.277
160	97.415	8.948
170	104.72	9.62
180	112.03	10.29
190	119.33	10.96
200	126.62	11.63
210	133.91	12.3
220	141.19	12.97
230	148.47	13.64
240	155.74	14.31
250	163.02	14.97
260	170.3	15.64
270	177.58	16.31
273.15	179.88	16.52
280	184.87	16.98
290	192.17	17.65
298.15	198.12	18.2
300	199.48	18.32

System: cis-1,2,3,5-trans-4,6-cyclohexanehexol; phases: Crystal
Fixed: Pressure, kPa = 101.325
Property: Molar enthalpy, kJ/mol (Crystal); method: RELAXCAL
Temperature, K	Molar enthalpy, kJ/mol	uncertainty
1	6.6078e-07	1.1624e-07
2	6.109e-06	4.591e-07
3	2.7268e-05	1.842e-06
4	8.3958e-05	5.446e-06
5	0.00020684	1.315e-05
6	0.00043917	2.762e-05
7	0.00083741	5.231e-05
8	0.0014694	9.13e-05
9	0.0024066	0.0001491
10	0.0037191	0.0002293
15	0.018119	0.001113
20	0.049548	0.003039
25	0.10026	0.00614
30	0.17025	0.01043
35	0.2593	0.01588
40	0.36775	0.02252
45	0.49616	0.03039
50	0.64442	0.03947
55	0.81163	0.04971
60	0.99756	0.06109
65	1.2029	0.0737
70	1.4281	0.0875
75	1.6732	0.1025
80	1.9386	0.1187
85	2.2242	0.1362
90	2.5301	0.1549
95	2.8563	0.1749
100	3.2026	0.1961
110	3.9552	0.2422
120	4.7866	0.2931
130	5.6954	0.3488
140	6.6801	0.4091
150	7.7395	0.474
160	8.8726	0.5433
170	10.079	0.617
180	11.357	0.695
190	12.707	0.778
200	14.129	0.865
210	15.623	0.957
220	17.188	1.053
230	18.826	1.153
240	20.536	1.258
250	22.319	1.367
260	24.175	1.48
270	26.105	1.599
273.15	26.728	1.637
280	28.11	1.721
290	30.19	1.849
298.15	31.941	1.956
300	32.346	1.981

System: cis-1,2,3,5-trans-4,6-cyclohexanehexol; phases: Crystal
Fixed: Pressure, kPa = 101.325
Property: Molar heat capacity at constant pressure, J/K/mol (Crystal); method: Small sample (50 mg) DSC
Temperature, K	Molar heat capacity at constant pressure, J/K/mol	uncertainty
188.15	132.1	18.59
189.15	133.01	18.72
190.15	134.04	18.86
191.15	134.87	18.98
192.15	135.65	19.09
193.15	136.44	19.2
194.15	137.52	19.35
195.15	138.44	19.48
196.15	139.45	19.62
197.15	140.42	19.76
198.15	141.25	19.88
199.15	142.04	19.99
200.15	142.99	20.12
201.15	143.81	20.24
202.15	144.76	20.37
203.15	145.49	20.47
204.15	146.25	20.58
205.15	147.12	20.7
206.15	147.9	20.81
207.15	148.76	20.93
208.15	149.37	21.02
209.15	150.17	21.13
210.15	150.93	21.24
211.15	151.82	21.36
212.15	152.59	21.47
213.15	153.21	21.56
214.15	154.05	21.68
215.15	154.79	21.78
216.15	155.5	21.88
217.15	156.37	22
218.15	157.24	22.13
219.15	158	22.23
220.15	158.66	22.33
221.15	159.51	22.45
222.15	160.36	22.56
223.15	161.11	22.67
224.15	161.84	22.77
225.15	162.58	22.88
226.15	163.3	22.98
227.15	164.03	23.08
228.15	164.76	23.18
229.15	165.48	23.29
230.15	166.09	23.37
231.15	166.87	23.48
232.15	167.66	23.59
233.15	168.47	23.71
234.15	169.23	23.81
235.15	169.98	23.92
236.15	170.76	24.03
237.15	171.54	24.14
238.15	172.36	24.25
239.15	173.06	24.35
240.15	173.81	24.46
241.15	174.61	24.57
242.15	175.4	24.68
243.15	176.08	24.78
244.15	176.84	24.88
245.15	177.49	24.98
246.15	178.19	25.07
247.15	178.89	25.17
248.15	179.65	25.28
249.15	180.32	25.37
250.15	181.03	25.47
251.15	181.9	25.6
252.15	182.55	25.69
253.15	183.36	25.8
254.15	184.08	25.9
255.15	184.96	26.03
256.15	185.78	26.14
257.15	186.45	26.24
258.15	187.25	26.35
259.15	188.05	26.46
260.15	188.81	26.57
261.15	189.58	26.68
262.15	190.24	26.77
263.15	191.02	26.88
264.15	191.84	26.99
265.15	192.51	27.09
266.15	193.18	27.18
267.15	194.11	27.31
268.15	194.88	27.42
269.15	195.58	27.52
270.15	196.44	27.64
271.15	197.16	27.74
272.15	197.91	27.85
273.15	198.7	27.96
274.15	199.42	28.06
275.15	200.19	28.17
276.15	201.09	28.3
277.15	201.63	28.37
278.15	202.4	28.48
279.15	203.19	28.59
280.15	203.91	28.69
281.15	204.75	28.81
282.15	205.45	28.91
283.15	206.13	29.01
284.15	206.78	29.1
285.15	207.67	29.22
286.15	208.29	29.31
287.15	208.96	29.4
288.15	209.73	29.51
289.15	210.44	29.61
290.15	211.29	29.73
291.15	212.09	29.84
292.15	212.8	29.94
293.15	213.54	30.05
294.15	214.44	30.17
295.15	215.31	30.3
296.15	216.01	30.4
297.15	216.77	30.5
298.15	217.6	30.62
299.15	218.39	30.73
300.15	219.12	30.83
301.15	219.99	30.96
302.15	220.81	31.07
303.15	221.72	31.2
304.15	222.56	31.32
305.15	223.48	31.45
306.15	224.53	31.59
307.15	225.41	31.72
308.15	226.47	31.87
309.15	227.45	32.01
310.15	228.42	32.14
311.15	229.32	32.27
312.15	230.3	32.41
313.15	231.18	32.53
314.15	232.03	32.65
315.15	232.92	32.77
316.15	233.85	32.91
317.15	235	33.07
318.15	235.92	33.2
319.15	236.78	33.32
320.15	237.59	33.43
321.15	238.68	33.59
322.15	239.43	33.69
323.15	240.32	33.82
324.15	241.22	33.94
325.15	242.06	34.06
326.15	242.94	34.18
327.15	243.8	34.31
328.15	244.59	34.42
329.15	245.47	34.54
330.15	246.24	34.65
331.15	247.08	34.77
332.15	247.89	34.88
333.15	248.82	35.01
334.15	249.61	35.12
335.15	250.35	35.23
336.15	251.33	35.37
337.15	251.96	35.45
338.15	252.7	35.56
339.15	253.75	35.71
340.15	254.49	35.81
341.15	255.37	35.93
342.15	256.24	36.06
343.15	257.08	36.17
344.15	258	36.3
345.15	258.77	36.41
346.15	259.66	36.54
347.15	260.52	36.66
348.15	261.32	36.77
349.15	262.12	36.88
350.15	262.98	37
351.15	263.82	37.12
352.15	264.56	37.23
353.15	265.46	37.35
354.15	266.43	37.49
355.15	268.62	37.8
356.15	269.08	37.86
357.15	269.64	37.94
358.15	270.31	38.04
359.15	271.05	38.14
360.15	271.91	38.26
361.15	272.57	38.35
362.15	273.45	38.48
363.15	274.41	38.61
364.15	275.15	38.72
365.15	275.9	38.82
366.15	276.72	38.94
367.15	277.6	39.06
368.15	278.26	39.15
369.15	279.12	39.28
370.15	280	39.4
371.15	280.66	39.49
372.15	281.41	39.6
373.15	282.03	39.69
374.15	282.8	39.79
375.15	283.66	39.91
376.15	284.41	40.02
377.15	285.16	40.13
378.15	286.02	40.25
379.15	286.77	40.35
380.15	287.5	40.45
381.15	288.2	40.55
382.15	289.07	40.68
383.15	289.93	40.8
384.15	290.58	40.89
385.15	291.5	41.02
386.15	292.25	41.12
387.15	292.92	41.22
388.15	293.5	41.3
389.15	294.35	41.42
390.15	295.24	41.54
391.15	295.7	41.61
392.15	296.49	41.72
393.15	297.22	41.82
394.15	297.96	41.93
395.15	298.67	42.03
396.15	299.31	42.12
397.15	300.06	42.22
398.15	300.77	42.32
399.15	301.51	42.43
400.15	302.31	42.54
401.15	303.15	42.66
402.15	303.73	42.74
403.15	304.44	42.84
404.15	305.17	42.94
405.15	306.03	43.06
406.15	306.79	43.17
407.15	307.48	43.27
408.15	308.4	43.4
409.15	309.1	43.49
410.15	309.8	43.59
411.15	310.58	43.7
412.15	311.34	43.81
413.15	311.98	43.9
414.15	312.89	44.03
415.15	313.72	44.14
416.15	314.29	44.22
417.15	315.14	44.34
418.15	315.93	44.46
419.15	316.51	44.54
420.15	317.13	44.62
421.15	317.97	44.74
422.15	318.68	44.84
423.15	319.32	44.93
424.15	320.07	45.04
425.15	320.77	45.14
426.15	321.54	45.24
427.15	322.27	45.35
428.15	322.94	45.44
429.15	323.6	45.53
430.15	324.79	45.7
431.15	325.38	45.79
432.15	325.96	45.87
433.15	326.58	45.95
434.15	327.17	46.04
435.15	328.13	46.17
436.15	328.94	46.29
437.15	329.55	46.37
438.15	330.45	46.5
439.15	331.25	46.61
440.15	332.08	46.73
441.15	332.75	46.82
442.15	333.52	46.93
443.15	334.28	47.04
444.15	334.91	47.13
445.15	335.69	47.24
446.15	336.45	47.34
447.15	337.11	47.44
448.15	337.97	47.56
449.15	338.86	47.68
450.15	339.61	47.79
451.15	340.28	47.88
452.15	340.91	47.97
453.15	341.76	48.09
454.15	342.6	48.21
455.15	343.62	48.35
456.15	344.29	48.45
457.15	345.24	48.58
458.15	346.14	48.71
459.15	346.94	48.82
460.15	347.73	48.93
461.15	348.37	49.02
462.15	349.07	49.12
463.15	349.91	49.24
464.15	350.64	49.34
465.15	351.55	49.47
466.15	352.42	49.59
467.15	353.08	49.68
468.15	353.97	49.81
469.15	354.86	49.93
470.15	355.7	50.05
471.15	356.6	50.18
472.15	357.44	50.3
473.15	358.19	50.4
474.15	359.01	50.52
475.15	359.91	50.64
476.15	360.87	50.78
477.15	361.75	50.9
478.15	362.53	51.01
479.15	363.44	51.14
480.15	364.51	51.29
481.15	365.73	51.46
482.15	366.73	51.6

System: cis-1,2,3,5-trans-4,6-cyclohexanehexol; phases: Liquid
Fixed: Pressure, kPa = 101.325
Property: Molar heat capacity at constant pressure, J/K/mol (Liquid); method: Small sample (50 mg) DSC
Temperature, K	Molar heat capacity at constant pressure, J/K/mol	uncertainty
513.05	508.49	71.55
513.15	508.52	71.56
514.15	508.4	71.54
515.15	507.66	71.43
516.15	505.87	71.18
517.15	506.07	71.21
518.15	506.35	71.25
519.15	506.73	71.3
520.15	506.91	71.33
521.15	507.17	71.37
522.15	507.28	71.38
523.15	507.22	71.37
524.15	507.46	71.41
525.15	506.85	71.32
526.15	507.2	71.37
527.15	506.47	71.27
528.15	505.89	71.19
529.15	506.19	71.23
530.15	507.15	71.36
531.15	507.89	71.47
532.15	508.08	71.49
533.15	508.54	71.56
534.15	508.66	71.57
535.15	508.27	71.52
536.15	508.3	71.52
537.15	508.67	71.58
538.15	508.45	71.55
539.15	508.21	71.51
540.15	508.39	71.54
541.15	508.54	71.56
542.15	508.33	71.53
543.15	508.45	71.55

System: cis-1,2,3,5-trans-4,6-cyclohexanehexol; phases: Crystal
Fixed: Pressure, kPa = 101.325
Property: Molar heat capacity at constant pressure, J/K/mol (Crystal); method: Small sample (50 mg) DSC
Temperature, K	Molar heat capacity at constant pressure, J/K/mol	uncertainty
305	223.54	31.45
310	228.25	32.12
315	232.85	32.76
320	237.36	33.4
325	241.8	34.02
330	246.17	34.64
335	250.49	35.25
340	254.75	35.85
345	258.97	36.44
350	263.15	37.03
355	267.28	37.61
360	271.38	38.19
365	275.43	38.76
370	279.44	39.32
375	283.41	39.88
380	287.33	40.43
385	291.21	40.98
390	295.04	41.52
395	298.83	42.05
400	302.58	42.58
405	306.28	43.1
410	309.94	43.61
415	313.58	44.12
420	317.18	44.63
425	320.78	45.14
430	324.37	45.64
435	327.98	46.15
440	331.62	46.66
445	335.31	47.18
450	339.09	47.71
455	342.97	48.26
460	346.99	48.83
465	351.2	49.42
470	355.62	50.04
475	360.31	50.7
480	365.32	51.41
485	370.71	52.16

System: cis-1,2,3,5-trans-4,6-cyclohexanehexol; phases: Crystal
Fixed: Pressure, kPa = 101.325
Property: Molar entropy, J/K/mol (Crystal); method: Small sample (50 mg) DSC
Temperature, K	Molar entropy, J/K/mol	uncertainty
305	203.13	42.87
310	206.81	43.65
315	210.5	44.43
320	214.2	45.21
325	217.91	45.99
330	221.64	46.78
335	225.37	47.57
340	229.11	48.36
345	232.86	49.15
350	236.62	49.94
355	240.38	50.74
360	244.15	51.53
365	247.92	52.33
370	251.69	53.12
375	255.47	53.92
380	259.25	54.72
385	263.03	55.52
390	266.82	56.32
395	270.6	57.12
400	274.38	57.91
405	278.16	58.71
410	281.94	59.51
415	285.72	60.31
420	289.5	61.1
425	293.27	61.9
430	297.05	62.7
435	300.82	63.49
440	304.59	64.29
445	308.35	65.08
450	312.12	65.88
455	315.89	66.67
460	319.66	67.47
465	323.43	68.27
470	327.21	69.06
475	331	69.86
480	334.8	70.67
485	338.61	71.47
490	342.46	72.28
495	346.55	73.15

System: cis-1,2,3,5-trans-4,6-cyclohexanehexol; phases: Crystal
Fixed: Pressure, kPa = 101.325
Property: Molar enthalpy, kJ/mol (Crystal); method: Small sample (50 mg) DSC
Temperature, K	Molar enthalpy, kJ/mol	uncertainty
305	33.451	4.707
310	34.581	4.866
315	35.734	5.028
320	36.909	5.194
325	38.107	5.362
330	39.327	5.534
335	40.569	5.709
340	41.832	5.886
345	43.116	6.067
350	44.422	6.251
355	45.748	6.437
360	47.094	6.627
365	48.461	6.819
370	49.849	7.014
375	51.256	7.212
380	52.683	7.413
385	54.129	7.617
390	55.595	7.823
395	57.079	8.032
400	58.583	8.243
405	60.105	8.458
410	61.646	8.674
415	63.204	8.894
420	64.781	9.115
425	66.376	9.34
430	67.989	9.567
435	69.62	9.796
440	71.269	10.028
445	72.936	10.263
450	74.622	10.5
455	76.327	10.74
460	78.052	10.983
465	79.798	11.229
470	81.565	11.477
475	83.354	11.729
480	85.168	11.984
485	87.008	12.243
490	88.882	12.507
495	90.898	12.79

System: cis-1,2,3,5-trans-4,6-cyclohexanehexol; phases: Liquid
Fixed: Pressure, kPa = 101.325
Property: Molar heat capacity at constant pressure, J/K/mol (Liquid); method: Small sample (50 mg) DSC
Temperature, K	Molar heat capacity at constant pressure, J/K/mol	uncertainty
515	506.99	71.34
520	507.22	71.37
525	507.46	71.41
530	507.69	71.44
535	507.93	71.47
540	508.16	71.5

System: cis-1,2,3,5-trans-4,6-cyclohexanehexol; phases: Liquid
Fixed: Pressure, kPa = 101.325
Property: Molar entropy, J/K/mol (Liquid); method: Small sample (50 mg) DSC
Temperature, K	Molar entropy, J/K/mol	uncertainty
510	453.9	95.8
515	458.89	96.86
520	463.79	97.89
525	468.65	98.92
530	473.46	99.93
535	478.23	100.94
540	482.95	101.94

System: cis-1,2,3,5-trans-4,6-cyclohexanehexol; phases: Liquid
Fixed: Pressure, kPa = 101.325
Property: Molar enthalpy, kJ/mol (Liquid); method: Small sample (50 mg) DSC
Temperature, K	Molar enthalpy, kJ/mol	uncertainty
510	144.72	20.36
515	147.28	20.72
520	149.81	21.08
525	152.35	21.44
530	154.89	21.79
535	157.42	22.15
540	159.96	22.51

System: xylitol; phases: Crystal, Liquid, Air at 1 atmosphere
Property: Normal melting temperature, K (Crystal); method: DTA
Normal melting temperature, K	uncertainty
366.1	0.61

System: xylitol; phases: Crystal, Liquid, Air at 1 atmosphere
Property: Molar enthalpy of transition or fusion, kJ/mol (Crystal); method: DSC
Molar enthalpy of transition or fusion, kJ/mol	uncertainty
39.51	2.49

System: xylitol; phases: Crystal
Fixed: Pressure, kPa = 101.325
Property: Molar heat capacity at constant pressure, J/K/mol (Crystal); method: RELAXCAL
Temperature, K	Molar heat capacity at constant pressure, J/K/mol	uncertainty
1.922	0.0055943	0.0004865
2.139	0.0077365	0.0006498
2.374	0.01068	0.000819
2.635	0.0145	0.001083
2.93	0.020276	0.001483
3.25	0.027918	0.002011
3.603	0.038083	0.002727
4	0.052648	0.003756
4.437	0.071926	0.00513
4.924	0.10186	0.00723
5.466	0.1404	0.00994
6.063	0.19736	0.01388
6.726	0.27705	0.01945
7.46	0.38824	0.02726
8.276	0.54722	0.03836
9.181	0.7649	0.05354
10.198	1.0635	0.0744
11.288	1.4557	0.1017
12.524	1.9775	0.138
13.899	2.6517	0.185
15.426	3.4861	0.2431
17.113	4.5359	0.3162
18.997	5.8168	0.4053
21.084	7.3344	0.2994
23.404	9.1373	0.3725
25.976	11.239	0.458
28.852	13.71	0.558
32.017	16.53	0.672
35.544	19.783	0.804
39.447	23.425	0.952
43.772	27.595	1.122
48.575	32.083	1.304
53.909	37.132	1.509
59.823	42.744	1.737
66.392	48.785	1.982
73.696	55.267	2.245
81.804	62.47	2.538
90.788	69.453	2.821
100.731	76.613	3.113
110.856	84.59	3.437
120.917	91.94	3.735
130.994	98.863	4.016
141.061	105.29	4.28
151.179	112.01	4.55
161.271	118.23	4.8
171.366	124.62	5.06
181.44	131.13	5.33
191.515	137.32	5.58
201.627	143.25	5.82
211.723	149.26	6.06
221.812	156.12	6.34
231.887	162.24	6.59
241.893	168.66	6.85
252.046	175.66	7.14
262.129	182.23	7.4
272.132	189.16	7.68
282.208	195.78	7.95
292.342	202.53	8.23
302.384	210.13	8.54

System: xylitol; phases: Crystal
Fixed: Pressure, kPa = 101.325
Property: Molar heat capacity at constant pressure, J/K/mol (Crystal); method: RELAXCAL
Temperature, K	Molar heat capacity at constant pressure, J/K/mol	uncertainty
1	0.00082714	0.00012117
2	0.0063311	0.00044
3	0.021638	0.001404
4	0.052694	0.003337
5	0.10649	0.00667
6	0.19103	0.01188
7	0.31525	0.01953
8	0.48981	0.03026
9	0.7186	0.0443
10	1.0039	0.0617
15	3.2425	0.1989
20	6.5371	0.4006
25	10.449	0.64
30	14.714	0.901
35	19.232	1.178
40	23.949	1.467
45	28.762	1.761
50	33.53	2.053
55	38.167	2.337
60	42.756	2.618
65	47.51	2.909
70	52.032	3.186
75	56.375	3.452
80	60.609	3.712
85	64.742	3.965
90	68.776	4.212
95	72.716	4.453
100	76.566	4.689
110	84.011	5.145
120	91.15	5.582
130	98.026	6.003
140	104.68	6.41
150	111.17	6.81
160	117.52	7.2
170	123.79	7.58
180	130	7.96
190	136.19	8.34
200	142.38	8.72
210	148.6	9.1
220	154.86	9.48
230	161.19	9.87
240	167.6	10.26
250	174.1	10.66
260	180.7	11.07
270	187.42	11.48
273.15	189.56	11.61
280	194.26	11.9
290	201.22	12.32
298.15	207	12.68
300	208.32	12.76

System: xylitol; phases: Crystal
Fixed: Pressure, kPa = 101.325
Property: Molar entropy, J/K/mol (Crystal); method: RELAXCAL
Temperature, K	Molar entropy, J/K/mol	uncertainty
1	0.00031731	4.727e-05
2	0.0021781	0.0002116
3	0.0072172	0.0006798
4	0.017241	0.001607
5	0.034285	0.003179
6	0.060641	0.005608
7	0.098839	0.009125
8	0.15175	0.01399
9	0.2221	0.02046
10	0.31208	0.02872
15	1.0991	0.1011
20	2.4636	0.2264
25	4.3343	0.3982
30	6.6121	0.6074
35	9.2166	0.8467
40	12.091	1.111
45	15.189	1.395
50	18.467	1.696
55	21.881	2.01
60	25.399	2.333
65	29.007	2.665
70	32.697	3.003
75	36.436	3.347
80	40.21	3.694
85	44.009	4.043
90	47.824	4.393
95	51.649	4.744
100	55.477	5.096
110	63.126	5.799
120	70.744	6.498
130	78.313	7.194
140	85.823	7.883
150	93.267	8.567
160	100.65	9.25
170	107.96	9.92
180	115.21	10.58
190	122.4	11.24
200	129.55	11.9
210	136.64	12.55
220	143.7	13.2
230	150.72	13.84
240	157.72	14.49
250	164.69	15.13
260	171.65	15.77
270	178.59	16.4
273.15	180.78	16.61
280	185.53	17.04
290	192.47	17.68
298.15	198.13	18.2
300	199.41	18.32

System: xylitol; phases: Crystal
Fixed: Pressure, kPa = 101.325
Property: Molar enthalpy, kJ/mol (Crystal); method: RELAXCAL
Temperature, K	Molar enthalpy, kJ/mol	uncertainty
1	2.2225e-07	6.125e-08
2	3.2081e-06	2.529e-07
3	1.6143e-05	1.101e-06
4	5.1722e-05	3.363e-06
5	0.0001291	8.21e-06
6	0.00027494	1.729e-05
7	0.00052432	3.275e-05
8	0.00092248	5.736e-05
9	0.001522	9.43e-05
10	0.0023785	0.0001467
15	0.012459	0.000766
20	0.036568	0.002243
25	0.078848	0.004833
30	0.14164	0.00868
35	0.22641	0.01387
40	0.33429	0.02048
45	0.46606	0.02855
50	0.62183	0.03809
55	0.80113	0.04906
60	1.0034	0.0615
65	1.229	0.0753
70	1.4781	0.0905
75	1.7492	0.1071
80	2.0417	0.125
85	2.3551	0.1442
90	2.6889	0.1647
95	3.0427	0.1863
100	3.4159	0.2092
110	4.2191	0.2584
120	5.0951	0.312
130	6.0412	0.37
140	7.0549	0.432
150	8.1343	0.4981
160	9.2779	0.5682
170	10.484	0.642
180	11.753	0.72
190	13.084	0.801
200	14.477	0.887
210	15.932	0.976
220	17.449	1.069
230	19.029	1.165
240	20.673	1.266
250	22.382	1.371
260	24.156	1.479
270	25.996	1.592
273.15	26.59	1.628
280	27.904	1.709
290	29.882	1.83
298.15	31.545	1.932
300	31.929	1.955

System: xylitol; phases: Crystal
Fixed: Pressure, kPa = 101.325
Property: Molar heat capacity at constant pressure, J/K/mol (Crystal); method: Small sample (50 mg) DSC
Temperature, K	Molar heat capacity at constant pressure, J/K/mol	uncertainty
188.15	129.73	8
189.15	130.13	8.02
190.15	131.3	8.09
191.15	132.22	8.15
192.15	132.97	8.2
193.15	133.63	8.24
194.15	134.85	8.31
195.15	136.05	8.39
196.15	137.13	8.45
197.15	137.99	8.51
198.15	138.87	8.56
199.15	139.73	8.61
200.15	140.65	8.67
201.15	141.4	8.72
202.15	142.18	8.76
203.15	143.08	8.82
204.15	143.76	8.86
205.15	144.29	8.89
206.15	145.08	8.94
207.15	145.87	8.99
208.15	146.4	9.02
209.15	147.11	9.07
210.15	147.83	9.11
211.15	148.54	9.16
212.15	149.22	9.2
213.15	149.76	9.23
214.15	150.56	9.28
215.15	151.28	9.33
216.15	152.02	9.37
217.15	152.63	9.41
218.15	153.29	9.45
219.15	154.13	9.5
220.15	154.86	9.55
221.15	155.65	9.59
222.15	156.3	9.64
223.15	157.01	9.68
224.15	157.66	9.72
225.15	158.24	9.75
226.15	158.84	9.79
227.15	159.41	9.83
228.15	160.16	9.87
229.15	160.62	9.9
230.15	161.2	9.94
231.15	162.12	9.99
232.15	162.73	10.03
233.15	163.22	10.06
234.15	164.01	10.11
235.15	164.81	10.16
236.15	165.55	10.21
237.15	166.14	10.24
238.15	166.88	10.29
239.15	167.65	10.33
240.15	168.23	10.37
241.15	168.92	10.41
242.15	169.52	10.45
243.15	170.22	10.49
244.15	170.79	10.53
245.15	171.35	10.56
246.15	172.07	10.61
247.15	172.62	10.64
248.15	173.32	10.68
249.15	173.97	10.72
250.15	174.75	10.77
251.15	175.38	10.81
252.15	176.09	10.85
253.15	176.77	10.9
254.15	177.72	10.96
255.15	178.41	11
256.15	179.25	11.05
257.15	180.21	11.11
258.15	180.68	11.14
259.15	181.27	11.17
260.15	182.15	11.23
261.15	182.91	11.28
262.15	183.56	11.32
263.15	184.15	11.35
264.15	184.93	11.4
265.15	185.58	11.44
266.15	186.01	11.47
267.15	186.68	11.51
268.15	187.58	11.56
269.15	188.3	11.61
270.15	188.75	11.64
271.15	189.44	11.68
272.15	190.09	11.72
273.15	190.92	11.77
274.15	191.54	11.81
275.15	192.36	11.86
276.15	193.1	11.9
277.15	193.74	11.94
278.15	194.49	11.99
279.15	195.25	12.04
280.15	195.98	12.08
281.15	196.83	12.13
282.15	197.52	12.18
283.15	198.24	12.22
284.15	198.78	12.25
285.15	199.46	12.3
286.15	200.2	12.34
287.15	200.97	12.39
288.15	201.79	12.44
289.15	202.38	12.48
290.15	203.24	12.53
291.15	204	12.58
292.15	204.53	12.61
293.15	205.39	12.66
294.15	206.39	12.72
295.15	207.02	12.76
296.15	207.76	12.81
297.15	208.58	12.86
298.15	209.23	12.9
299.15	209.95	12.94
300.15	210.89	13
301.15	211.84	13.06
302.15	212.55	13.1
303.15	213.48	13.16
304.15	214.26	13.21
305.15	215.11	13.26
306.15	216.14	13.32
307.15	217.06	13.38
308.15	217.82	13.43
309.15	218.75	13.48
310.15	219.97	13.56
311.15	220.76	13.61
312.15	221.67	13.66
313.15	222.64	13.72
314.15	223.41	13.77
315.15	224.2	13.82
316.15	225.05	13.87
317.15	225.99	13.93
318.15	226.72	13.98
319.15	227.57	14.03
320.15	228.44	14.08
321.15	229.1	14.12
322.15	229.81	14.17
323.15	230.76	14.23
324.15	231.54	14.27
325.15	232.32	14.32
326.15	233.13	14.37
327.15	234.07	14.43
328.15	234.91	14.48
329.15	235.68	14.53
330.15	236.5	14.58
331.15	237.35	14.63
332.15	238.2	14.68
333.15	238.98	14.73
334.15	239.74	14.78
335.15	240.54	14.83
336.15	241.37	14.88
337.15	242.09	14.92
338.15	242.99	14.98
339.15	244.05	15.04
340.15	244.86	15.09
341.15	245.84	15.15
342.15	246.78	15.21
343.15	247.9	15.28

System: xylitol; phases: Liquid
Fixed: Pressure, kPa = 101.325
Property: Molar heat capacity at constant pressure, J/K/mol (Liquid); method: Small sample (50 mg) DSC
Temperature, K	Molar heat capacity at constant pressure, J/K/mol	uncertainty
384.05	437.55	26.97
384.15	437.54	26.97
385.15	437.23	26.95
386.15	436.89	26.93
387.15	436.55	26.91
388.15	436.95	26.94
389.15	436.95	26.94
390.15	437.09	26.94
391.15	437.18	26.95
392.15	437.31	26.96
393.15	437.7	26.98
394.15	438.11	27.01
395.15	438.36	27.02
396.15	438.65	27.04
397.15	439	27.06
398.15	439.02	27.06
399.15	439.36	27.08
400.15	439.81	27.11
401.15	440.13	27.13
402.15	440.23	27.14
403.15	440.54	27.16
404.15	441	27.19
405.15	441.38	27.21
406.15	441.87	27.24
407.15	442.08	27.25
408.15	442.44	27.27
409.15	442.7	27.29
410.15	442.88	27.3
411.15	443.4	27.33
412.15	443.35	27.33
413.15	443.38	27.33
414.15	443.78	27.36
415.15	443.82	27.36
416.15	444.07	27.37
417.15	444.35	27.39
418.15	444.54	27.4
419.15	444.75	27.42
420.15	444.83	27.42
421.15	444.89	27.42
422.15	445.1	27.44
423.15	445.32	27.45
424.15	445.31	27.45
425.15	445.36	27.45
426.15	445.64	27.47
427.15	445.75	27.48
428.15	445.78	27.48
429.15	445.83	27.48
430.15	445.91	27.49
431.15	446.11	27.5
432.15	446.26	27.51
433.15	446.16	27.5
434.15	446.18	27.5
435.15	446.7	27.54
436.15	446.78	27.54
437.15	446.54	27.53
438.15	446.6	27.53

System: xylitol; phases: Crystal
Fixed: Pressure, kPa = 101.325
Property: Molar heat capacity at constant pressure, J/K/mol (Crystal); method: Small sample (50 mg) DSC
Temperature, K	Molar heat capacity at constant pressure, J/K/mol	uncertainty
305	215.28	13.27
310	219.82	13.55
315	224.06	13.81
320	228.13	14.06
325	232.15	14.31
330	236.23	14.56
335	240.51	14.83
340	245.1	15.11
345	250.14	15.42

System: xylitol; phases: Crystal
Fixed: Pressure, kPa = 101.325
Property: Molar entropy, J/K/mol (Crystal); method: Small sample (50 mg) DSC
Temperature, K	Molar entropy, J/K/mol	uncertainty
305	202.93	18.76
310	206.47	19.09
315	210.02	19.42
320	213.58	19.75
325	217.15	20.08
330	220.72	20.41
335	224.31	20.74
340	227.9	21.07
345	231.52	21.41
350	235.17	21.75
355	238.92	22.09
360	243.05	22.47

System: xylitol; phases: Crystal
Fixed: Pressure, kPa = 101.325
Property: Molar enthalpy, kJ/mol (Crystal); method: RELAXCAL
Temperature, K	Molar enthalpy, kJ/mol	uncertainty
305	32.993	2.298
310	34.081	2.373
315	35.191	2.451
320	36.322	2.53
325	37.472	2.61
330	38.643	2.691
335	39.835	2.774
340	41.049	2.859
345	42.287	2.945
350	43.556	3.033
355	44.878	3.125
360	46.353	3.228

System: xylitol; phases: Liquid
Fixed: Pressure, kPa = 101.325
Property: Molar heat capacity at constant pressure, J/K/mol (Liquid); method: Small sample (50 mg) DSC
Temperature, K	Molar heat capacity at constant pressure, J/K/mol	uncertainty
385	437.31	26.96
390	437.71	26.98
395	438.53	27.03
400	439.66	27.1
405	440.98	27.18
410	442.38	27.27
415	443.73	27.35
420	444.92	27.43
425	445.83	27.48
430	446.33	27.51
435	446.32	27.51

System: xylitol; phases: Liquid
Fixed: Pressure, kPa = 101.325
Property: Molar entropy, J/K/mol (Liquid); method: Small sample (50 mg) DSC
Temperature, K	Molar entropy, J/K/mol	uncertainty
380	367.99	34.03
385	373.77	34.56
390	379.42	35.08
395	385	35.6
400	390.52	36.11
405	395.99	36.62
410	401.41	37.12
415	406.78	37.61
420	412.1	38.11
425	417.37	38.59
430	422.59	39.08
435	427.75	39.55

System: xylitol; phases: Liquid
Fixed: Pressure, kPa = 101.325
Property: Molar enthalpy, kJ/mol (Liquid); method: RELAXCAL
Temperature, K	Molar enthalpy, kJ/mol	uncertainty
380	92.606	6.449
385	94.817	6.603
390	97.004	6.756
395	99.194	6.908
400	101.39	7.06
405	103.59	7.21
410	105.8	7.37
415	108.02	7.52
420	110.24	7.68
425	112.46	7.83
430	114.69	7.99
435	116.93	8.14

System: D-arabitol; phases: Crystal, Liquid, Air at 1 atmosphere
Property: Normal melting temperature, K (Crystal); method: DTA
Normal melting temperature, K	uncertainty
372.38	0.61

System: D-arabitol; phases: Crystal, Liquid, Air at 1 atmosphere
Property: Molar enthalpy of transition or fusion, kJ/mol (Crystal); method: DSC
Molar enthalpy of transition or fusion, kJ/mol	uncertainty
39.6	3.26

System: D-arabitol; phases: Crystal
Fixed: Pressure, kPa = 101.325
Property: Molar heat capacity at constant pressure, J/K/mol (Crystal); method: RELAXCAL
Temperature, K	Molar heat capacity at constant pressure, J/K/mol	uncertainty
1.937	0.0047873	0.0003961
2.125	0.0062431	0.0005068
2.35	0.0083034	0.00063
2.6	0.011049	0.000821
2.887	0.014949	0.001092
3.199	0.020228	0.001476
3.546	0.027528	0.001972
3.931	0.037442	0.002674
4.359	0.051845	0.003703
4.836	0.07292	0.005189
5.366	0.10167	0.00721
5.953	0.14429	0.01016
6.605	0.20498	0.01441
7.334	0.29639	0.02085
8.14	0.43005	0.0302
9.034	0.6226	0.04365
10.109	0.9222	0.06454
11.209	1.3134	0.0918
12.443	1.8486	0.1291
13.812	2.5578	0.1785
15.354	3.4729	0.2422
17.029	4.645	0.3238
18.914	6.0933	0.4247
21.008	7.8227	0.3196
23.33	9.8781	0.4029
25.911	12.277	0.5
28.725	15.018	0.611
31.899	18.17	0.739
35.416	21.719	0.883
39.333	25.676	1.044
43.649	29.963	1.218
48.457	34.515	1.403
53.771	39.564	1.608
59.697	45.097	1.832
66.279	51.009	2.072
73.584	57.164	2.322
81.675	64.036	2.601
90.669	70.995	2.884
100.638	77.785	3.16
110.771	85.203	3.462
120.77	92.616	3.763
130.789	99.376	4.037
140.947	105.44	4.28
151.074	111.74	4.54
161.177	117.79	4.79
171.297	123.63	5.02
181.378	129.86	5.28
191.477	135.82	5.52
201.592	141.2	5.74
211.703	147.25	5.98
221.795	153.65	6.24
231.882	159.8	9.79
241.884	165.73	10.15
252.022	171.93	10.53
262.085	178.58	10.94
272.101	184.8	11.32
282.16	190.77	11.68
292.305	197.61	12.1
302.322	203.84	12.48

System: D-arabitol; phases: Crystal
Fixed: Pressure, kPa = 101.325
Property: Molar heat capacity at constant pressure, J/K/mol (Crystal); method: RELAXCAL
Temperature, K	Molar heat capacity at constant pressure, J/K/mol	uncertainty
1	0.00094505	0.00010385
2	0.0052564	0.0003585
3	0.016729	0.001082
4	0.040013	0.002533
5	0.081046	0.005078
6	0.14748	0.00919
7	0.25077	0.01557
8	0.40384	0.025
9	0.61568	0.03802
10	0.89168	0.05488
15	3.2549	0.1997
20	6.9634	0.4267
25	11.452	0.702
30	16.291	0.998
35	21.268	1.303
40	26.286	1.61
45	31.261	1.914
50	36.092	2.21
55	40.762	2.496
60	45.359	2.778
65	49.82	3.051
70	54.156	3.316
75	58.374	3.575
80	62.48	3.826
85	66.479	4.071
90	70.374	4.31
95	74.171	4.542
100	77.873	4.769
110	85.016	5.206
120	91.848	5.625
130	98.419	6.027
140	104.78	6.42
150	110.97	6.8
160	117.04	7.17
170	123.02	7.53
180	128.94	7.9
190	134.84	8.26
200	140.73	8.62
210	146.63	8.98
220	152.57	9.34
230	158.55	9.71
240	164.59	10.08
250	170.71	10.45
260	176.9	10.83
270	183.17	11.22
273.15	185.17	11.34
280	189.54	11.61
290	196	12
298.15	201.35	12.33
300	202.57	12.4

System: D-arabitol; phases: Crystal
Fixed: Pressure, kPa = 101.325
Property: Molar entropy, J/K/mol (Crystal); method: RELAXCAL
Temperature, K	Molar entropy, J/K/mol	uncertainty
1	0.00058006	6.308e-05
2	0.0022679	0.0002159
3	0.0062571	0.0005864
4	0.013912	0.001294
5	0.026856	0.002489
6	0.047051	0.004351
7	0.076984	0.007109
8	0.11985	0.01106
9	0.17904	0.0165
10	0.25761	0.02372
15	1.0124	0.0931
20	2.4312	0.2234
25	4.4574	0.4095
30	6.9699	0.6403
35	9.8539	0.9052
40	13.021	1.196
45	16.405	1.507
50	19.951	1.833
55	23.61	2.169
60	27.355	2.513
65	31.163	2.863
70	35.014	3.216
75	38.895	3.573
80	42.794	3.931
85	46.702	4.29
90	50.613	4.649
95	54.52	5.008
100	58.419	5.366
110	66.179	6.079
120	73.871	6.786
130	81.484	7.485
140	89.011	8.176
150	96.452	8.86
160	103.81	9.54
170	111.08	10.2
180	118.28	10.86
190	125.41	11.52
200	132.48	12.17
210	139.49	12.81
220	146.44	13.45
230	153.36	14.09
240	160.23	14.72
250	167.08	15.35
260	173.89	15.97
270	180.69	16.6
273.15	182.82	16.79
280	187.46	17.22
290	194.23	17.84
298.15	199.73	18.35
300	200.98	18.46

System: D-arabitol; phases: Crystal
Fixed: Pressure, kPa = 101.325
Property: Molar enthalpy, kJ/mol (Crystal); method: RELAXCAL
Temperature, K	Molar enthalpy, kJ/mol	uncertainty
1	3.3554e-07	5.725e-08
2	3.0074e-06	2.248e-07
3	1.3226e-05	8.92e-07
4	4.0388e-05	2.618e-06
5	9.9149e-05	6.307e-06
6	0.00021092	1.328e-05
7	0.00040642	2.542e-05
8	0.00072914	4.541e-05
9	0.0012337	7.66e-05
10	0.0019819	0.0001223
15	0.011685	0.000719
20	0.036788	0.002257
25	0.082608	0.005064
30	0.15188	0.00931
35	0.24574	0.01505
40	0.36462	0.02233
45	0.50853	0.03115
50	0.67699	0.04146
55	0.86914	0.05323
60	1.0845	0.0664
65	1.3225	0.081
70	1.5825	0.0969
75	1.8639	0.1141
80	2.166	0.1326
85	2.4885	0.1524
90	2.8307	0.1733
95	3.1921	0.1955
100	3.5722	0.2188
110	4.3869	0.2686
120	5.2715	0.3228
130	6.223	0.3811
140	7.2392	0.4433
150	8.318	0.5094
160	9.4581	0.5792
170	10.658	0.653
180	11.918	0.73
190	13.237	0.811
200	14.615	0.895
210	16.052	0.983
220	17.548	1.075
230	19.103	1.17
240	20.719	1.269
250	22.395	1.371
260	24.133	1.478
270	25.934	1.588
273.15	26.514	1.624
280	27.797	1.702
290	29.725	1.82
298.15	31.344	1.919
300	31.717	1.942

System: D-arabitol; phases: Crystal
Fixed: Pressure, kPa = 101.325
Property: Molar heat capacity at constant pressure, J/K/mol (Crystal); method: Small sample (50 mg) DSC
Temperature, K	Molar heat capacity at constant pressure, J/K/mol	uncertainty
188.15	120.48	9.79
189.15	123.07	10
190.15	124.65	10.13
191.15	125.58	10.2
192.15	126.38	10.27
193.15	127.14	10.33
194.15	128.51	10.44
195.15	129.68	10.54
196.15	130.93	10.64
197.15	131.96	10.72
198.15	132.82	10.79
199.15	133.79	10.87
200.15	134.6	10.94
201.15	135.54	11.01
202.15	136.28	11.07
203.15	137.06	11.13
204.15	137.97	11.21
205.15	138.38	11.24
206.15	139.19	11.31
207.15	139.97	11.37
208.15	140.52	11.42
209.15	141.24	11.47
210.15	141.94	11.53
211.15	142.48	11.58
212.15	142.99	11.62
213.15	143.53	11.66
214.15	144.41	11.73
215.15	145.07	11.79
216.15	145.48	11.82
217.15	146.17	11.87
218.15	147.07	11.95
219.15	147.64	11.99
220.15	148.47	12.06
221.15	149.24	12.12
222.15	149.98	12.18
223.15	150.71	12.24
224.15	151.3	12.29
225.15	152.01	12.35
226.15	152.68	12.4
227.15	153.31	12.45
228.15	153.85	12.5
229.15	154.52	12.55
230.15	155.25	12.61
231.15	155.76	12.65
232.15	156.46	12.71
233.15	157.18	12.77
234.15	157.71	12.81
235.15	158.49	12.88
236.15	159.12	12.93
237.15	159.84	12.99
238.15	160.39	13.03
239.15	160.99	13.08
240.15	161.64	13.13
241.15	162.22	13.18
242.15	162.77	13.22
243.15	163.32	13.27
244.15	163.71	13.3
245.15	164.33	13.35
246.15	165.01	13.41
247.15	165.5	13.45
248.15	166.22	13.5
249.15	167	13.57
250.15	167.62	13.62
251.15	168.09	13.66
252.15	168.72	13.71
253.15	169.42	13.76
254.15	170.21	13.83
255.15	170.83	13.88
256.15	171.49	13.93
257.15	172.29	14
258.15	172.95	14.05
259.15	173.8	14.12
260.15	174.49	14.18
261.15	175.07	14.22
262.15	175.71	14.27
263.15	176.2	14.31
264.15	176.94	14.37
265.15	177.53	14.42
266.15	177.9	14.45
267.15	178.76	14.52
268.15	179.47	14.58
269.15	180.14	14.63
270.15	180.88	14.69
271.15	181.55	14.75
272.15	182.34	14.81
273.15	183.05	14.87
274.15	183.84	14.94
275.15	184.43	14.98
276.15	185.01	15.03
277.15	185.89	15.1
278.15	186.82	15.18
279.15	187.46	15.23
280.15	187.87	15.26
281.15	188.79	15.34
282.15	189.61	15.4
283.15	190.26	15.46
284.15	190.76	15.5
285.15	191.48	15.56
286.15	192.29	15.62
287.15	192.88	15.67
288.15	193.55	15.72
289.15	194.1	15.77
290.15	195.02	15.84
291.15	195.84	15.91
292.15	196.49	15.96
293.15	197.3	16.03
294.15	198.27	16.11
295.15	198.8	16.15
296.15	199.7	16.22
297.15	200.51	16.29
298.15	201.09	16.34
299.15	201.8	16.39
300.15	202.43	16.45
301.15	203.27	16.51
302.15	203.89	16.56
303.15	204.69	16.63
304.15	205.64	16.71
305.15	206.52	16.78
306.15	207.29	16.84
307.15	207.99	16.9
308.15	209.04	16.98
309.15	210.24	17.08
310.15	211.11	17.15
311.15	212.09	17.23
312.15	213.04	17.31
313.15	213.93	17.38
314.15	214.62	17.44
315.15	215.49	17.51
316.15	216.44	17.58
317.15	217.32	17.66
318.15	218.08	17.72
319.15	218.98	17.79
320.15	219.94	17.87
321.15	220.72	17.93
322.15	221.63	18.01
323.15	222.6	18.08
324.15	223.41	18.15
325.15	224.24	18.22
326.15	225.48	18.32
327.15	226.61	18.41
328.15	227.57	18.49
329.15	228.54	18.57
330.15	229.69	18.66
331.15	231.05	18.77
332.15	232.16	18.86
333.15	233.08	18.94
334.15	234.14	19.02
335.15	235.21	19.11
336.15	236.36	19.2
337.15	237.46	19.29
338.15	238.56	19.38
339.15	239.77	19.48
340.15	240.89	19.57
341.15	242.17	19.67
342.15	243.41	19.77
343.15	244.65	19.88
344.15	245.91	19.98
345.15	247.41	20.1
346.15	248.94	20.22

System: D-arabitol; phases: Liquid
Fixed: Pressure, kPa = 101.325
Property: Molar heat capacity at constant pressure, J/K/mol (Liquid); method: Small sample (50 mg) DSC
Temperature, K	Molar heat capacity at constant pressure, J/K/mol	uncertainty
394.05	448.1	36.4
394.15	448.11	36.4
395.15	447.51	36.36
396.15	447.26	36.34
397.15	446.68	36.29
398.15	446.29	36.26
399.15	446.43	36.27
400.15	446.4	36.27
401.15	446.31	36.26
402.15	446.59	36.28
403.15	447.05	36.32
404.15	446.97	36.31
405.15	447.29	36.34
406.15	447.83	36.38
407.15	447.84	36.38
408.15	448.15	36.41
409.15	448.6	36.44
410.15	448.95	36.47
411.15	449.41	36.51
412.15	449.97	36.56
413.15	450.76	36.62
414.15	451.47	36.68
415.15	452.79	36.78
416.15	453.35	36.83
417.15	453.87	36.87
418.15	454.54	36.93
419.15	456.24	37.07
420.15	456.5	37.09
421.15	457.07	37.13
422.15	457.63	37.18
423.15	457.94	37.2
424.15	458.28	37.23

System: D-arabitol; phases: Crystal
Fixed: Pressure, kPa = 101.325
Property: Molar heat capacity at constant pressure, J/K/mol (Crystal); method: Small sample (50 mg) DSC
Temperature, K	Molar heat capacity at constant pressure, J/K/mol	uncertainty
305	206.38	16.77
310	210.77	17.12
315	215.3	17.49
320	219.92	17.87
325	224.62	18.25
330	229.51	18.65
335	234.75	19.07
340	240.61	19.55
345	247.41	20.1
350	255.58	20.76

System: D-arabitol; phases: Crystal
Fixed: Pressure, kPa = 101.325
Property: Molar entropy, J/K/mol (Crystal); method: Small sample (50 mg) DSC
Temperature, K	Molar entropy, J/K/mol	uncertainty
305	204.36	24.9
310	207.75	25.32
315	211.16	25.73
320	214.58	26.15
325	218.03	26.57
330	221.5	26.99
335	224.99	27.42
340	228.51	27.85
345	232.07	28.28
350	235.68	28.72
355	239.39	29.17
360	243.37	29.66
365	248.05	30.23

System: D-arabitol; phases: Crystal
Fixed: Pressure, kPa = 101.325
Property: Molar enthalpy, kJ/mol (Crystal); method: RELAXCAL
Temperature, K	Molar enthalpy, kJ/mol	uncertainty
305	32.739	2.863
310	33.782	2.955
315	34.847	3.048
320	35.935	3.143
325	37.046	3.24
330	38.181	3.339
335	39.342	3.441
340	40.53	3.545
345	41.749	3.652
350	43.006	3.761
355	44.314	3.876
360	45.735	4
365	47.434	4.149

System: D-arabitol; phases: Liquid
Fixed: Pressure, kPa = 101.325
Property: Molar heat capacity at constant pressure, J/K/mol (Liquid); method: Small sample (50 mg) DSC
Temperature, K	Molar heat capacity at constant pressure, J/K/mol	uncertainty
395	447.62	36.36
400	446.52	36.28
405	447.4	36.35
410	449.23	36.5
415	452.02	36.72
420	455.76	37.03

System: D-arabitol; phases: Liquid
Fixed: Pressure, kPa = 101.325
Property: Molar entropy, J/K/mol (Liquid); method: Small sample (50 mg) DSC
Temperature, K	Molar entropy, J/K/mol	uncertainty
390	369.2	44.99
395	374.96	45.69
400	380.58	46.38
405	386.13	47.05
410	391.63	47.72
415	397.09	48.39
420	402.53	49.05

System: D-arabitol; phases: Liquid
Fixed: Pressure, kPa = 101.325
Property: Molar enthalpy, kJ/mol (Liquid); method: RELAXCAL
Temperature, K	Molar enthalpy, kJ/mol	uncertainty
390	93.358	8.165
395	95.619	8.363
400	97.852	8.559
405	100.09	8.75
410	102.33	8.95
415	104.58	9.15
420	106.85	9.35

System: L-(-)-arabitol; phases: Crystal, Liquid, Air at 1 atmosphere
Property: Normal melting temperature, K (Crystal); method: DTA
Normal melting temperature, K	uncertainty
369.85	0.61

System: L-(-)-arabitol; phases: Crystal, Liquid, Air at 1 atmosphere
Property: Molar enthalpy of transition or fusion, kJ/mol (Crystal); method: DSC
Molar enthalpy of transition or fusion, kJ/mol	uncertainty
36.77	7.39

System: L-(-)-arabitol; phases: Crystal
Fixed: Pressure, kPa = 101.325
Property: Molar heat capacity at constant pressure, J/K/mol (Crystal); method: RELAXCAL
Temperature, K	Molar heat capacity at constant pressure, J/K/mol	uncertainty
1.925	0.0048604	0.0004041
2.126	0.0063329	0.0005199
2.35	0.0085308	0.0006489
2.603	0.011394	0.000847
2.89	0.015514	0.001133
3.204	0.021176	0.001547
3.551	0.028639	0.002054
3.938	0.039157	0.002798
4.366	0.054839	0.003916
4.845	0.077046	0.005479
5.374	0.10686	0.00758
5.962	0.15052	0.01059
6.615	0.21379	0.01502
7.345	0.3087	0.02171
8.151	0.44719	0.03139
9.046	0.64449	0.04518
10.116	0.95146	0.06658
11.209	1.346	0.0941
12.432	1.8851	0.1316
13.786	2.5893	0.1807
15.298	3.5075	0.2446
16.987	4.6826	0.3264
18.858	6.1453	0.4283
21.001	7.93	0.324
23.339	10	0.408
25.887	12.41	0.506
28.741	15.202	0.619
31.914	18.402	0.749
35.441	21.962	0.893
39.342	25.96	1.055
43.671	30.279	1.231
48.466	34.838	1.416
53.787	39.928	1.622
59.713	45.439	1.846
66.295	51.382	2.087
73.595	57.516	2.337
81.706	64.337	2.614
90.668	71.558	2.907
100.625	78.322	3.182
110.774	85.865	3.489
120.754	93.294	3.79
130.826	99.888	4.058
140.996	106.35	4.32
151.083	112.59	4.57
161.194	118.71	4.82
171.259	124.81	5.07
181.317	131.15	5.33
191.403	137.23	5.57
201.571	142.67	5.8
211.678	149.03	6.05
221.766	155.91	6.33
231.866	161.72	9.9
241.873	168.05	10.29
251.956	174.6	10.69
262.069	180.97	11.08
272.131	188.16	11.52
282.16	194.74	11.93
292.266	201.73	12.35
302.303	209.95	12.86

System: L-(-)-arabitol; phases: Crystal
Fixed: Pressure, kPa = 101.325
Property: Molar heat capacity at constant pressure, J/K/mol (Crystal); method: RELAXCAL
Temperature, K	Molar heat capacity at constant pressure, J/K/mol	uncertainty
1	0.00090712	0.00010513
2	0.0053701	0.0003677
3	0.017367	0.001124
4	0.04172	0.002642
5	0.084517	0.005295
6	0.15354	0.00956
7	0.26004	0.01614
8	0.41761	0.02585
9	0.63482	0.03919
10	0.91686	0.05643
15	3.3156	0.2034
20	7.063	0.4328
25	11.592	0.71
30	16.476	1.009
35	21.498	1.317
40	26.559	1.627
45	31.567	1.933
50	36.418	2.23
55	41.064	2.515
60	45.596	2.792
65	50.215	3.075
70	54.549	3.34
75	58.727	3.596
80	62.806	3.846
85	66.796	4.09
90	70.704	4.33
95	74.532	4.564
100	78.28	4.794
110	85.546	5.239
120	92.516	5.665
130	99.219	6.076
140	105.69	6.47
150	111.98	6.86
160	118.13	7.23
170	124.19	7.61
180	130.18	7.97
190	136.16	8.34
200	142.15	8.7
210	148.19	9.07
220	154.3	9.45
230	160.49	9.83
240	166.8	10.21
250	173.24	10.61
260	179.82	11.01
270	186.56	11.42
273.15	188.71	11.56
280	193.46	11.85
290	200.53	12.28
298.15	206.44	12.64
300	207.8	12.73

System: L-(-)-arabitol; phases: Crystal
Fixed: Pressure, kPa = 101.325
Property: Molar entropy, J/K/mol (Crystal); method: RELAXCAL
Temperature, K	Molar entropy, J/K/mol	uncertainty
1	0.00052093	5.861e-05
2	0.0022131	0.0002114
3	0.0063321	0.0005941
4	0.014302	0.001331
5	0.027802	0.002577
6	0.048846	0.004517
7	0.079927	0.00738
8	0.12431	0.01147
9	0.18543	0.01709
10	0.26632	0.02452
15	1.0378	0.0954
20	2.4794	0.2279
25	4.5322	0.4164
30	7.0741	0.6499
35	9.99	0.9177
40	13.191	1.212
45	16.609	1.526
50	20.188	1.854
55	23.878	2.193
60	27.646	2.539
65	31.477	2.891
70	35.36	3.248
75	39.267	3.607
80	43.187	3.967
85	47.115	4.328
90	51.044	4.689
95	54.97	5.049
100	58.888	5.409
110	66.692	6.126
120	74.437	6.837
130	82.108	7.542
140	89.7	8.239
150	97.207	8.929
160	104.63	9.61
170	111.97	10.29
180	119.24	10.95
190	126.44	11.61
200	133.58	12.27
210	140.66	12.92
220	147.69	13.57
230	154.69	14.21
240	161.65	14.85
250	168.59	15.49
260	175.51	16.12
270	182.43	16.76
273.15	184.6	16.96
280	189.34	17.39
290	196.25	18.03
298.15	201.89	18.54
300	203.17	18.66

System: L-(-)-arabitol; phases: Crystal
Fixed: Pressure, kPa = 101.325
Property: Molar enthalpy, kJ/mol (Crystal); method: RELAXCAL
Temperature, K	Molar enthalpy, kJ/mol	uncertainty
1	3.0862e-07	5.695e-08
2	2.9948e-06	2.262e-07
3	1.3551e-05	9.16e-07
4	4.1833e-05	2.714e-06
5	0.00010312	6.56e-06
6	0.00021958	1.382e-05
7	0.00042257	2.643e-05
8	0.00075673	4.712e-05
9	0.0012777	7.93e-05
10	0.002048	0.0001264
15	0.011963	0.000736
20	0.037467	0.002299
25	0.083886	0.005142
30	0.15397	0.00943
35	0.24887	0.01525
40	0.36901	0.0226
45	0.51437	0.0315
50	0.68441	0.04192
55	0.8782	0.05378
60	1.0949	0.0671
65	1.3343	0.0817
70	1.5964	0.0978
75	1.8797	0.1151
80	2.1835	0.1337
85	2.5076	0.1536
90	2.8514	0.1746
95	3.2145	0.1969
100	3.5965	0.2202
110	4.4159	0.2704
120	5.3065	0.325
130	6.2654	0.3837
140	7.2901	0.4464
150	8.3786	0.5131
160	9.5293	0.5836
170	10.741	0.658
180	12.013	0.736
190	13.345	0.817
200	14.736	0.902
210	16.188	0.991
220	17.7	1.084
230	19.274	1.18
240	20.91	1.28
250	22.61	1.385
260	24.376	1.493
270	26.207	1.605
273.15	26.798	1.641
280	28.107	1.721
290	30.077	1.842
298.15	31.735	1.943
300	32.119	1.967

System: L-(-)-arabitol; phases: Crystal
Fixed: Pressure, kPa = 101.325
Property: Molar heat capacity at constant pressure, J/K/mol (Crystal); method: Small sample (50 mg) DSC
Temperature, K	Molar heat capacity at constant pressure, J/K/mol	uncertainty
188.15	129.04	25.87
189.15	130.57	26.18
190.15	131.98	26.46
191.15	132.97	26.66
192.15	133.65	26.8
193.15	134.27	26.92
194.15	135.12	27.09
195.15	135.91	27.25
196.15	136.66	27.4
197.15	137.42	27.55
198.15	138.16	27.7
199.15	138.8	27.83
200.15	139.49	27.97
201.15	140.3	28.13
202.15	141.06	28.28
203.15	141.64	28.4
204.15	142.39	28.55
205.15	143.02	28.68
206.15	143.74	28.82
207.15	144.43	28.96
208.15	145.06	29.08
209.15	145.72	29.22
210.15	146.38	29.35
211.15	147.05	29.48
212.15	147.72	29.62
213.15	148.33	29.74
214.15	149.06	29.89
215.15	149.6	29.99
216.15	150.38	30.15
217.15	151.13	30.3
218.15	152.05	30.49
219.15	152.76	30.63
220.15	153.39	30.75
221.15	153.99	30.87
222.15	154.72	31.02
223.15	155.35	31.15
224.15	155.94	31.27
225.15	156.64	31.41
226.15	157.32	31.54
227.15	157.87	31.65
228.15	158.58	31.8
229.15	159.08	31.9
230.15	159.71	32.02
231.15	160.4	32.16
232.15	160.98	32.28
233.15	161.67	32.41
234.15	162.2	32.52
235.15	162.87	32.66
236.15	163.51	32.78
237.15	164.14	32.91
238.15	164.86	33.05
239.15	165.4	33.16
240.15	166.04	33.29
241.15	166.73	33.43
242.15	167.44	33.57
243.15	168.16	33.72
244.15	168.75	33.83
245.15	169.35	33.95
246.15	169.88	34.06
247.15	170.55	34.2
248.15	171.06	34.3
249.15	171.85	34.46
250.15	172.59	34.6
251.15	173.21	34.73
252.15	173.86	34.86
253.15	174.57	35
254.15	175.18	35.12
255.15	176.03	35.29
256.15	176.9	35.47
257.15	177.61	35.61
258.15	178.4	35.77
259.15	179.26	35.94
260.15	180.04	36.1
261.15	180.97	36.28
262.15	181.78	36.45
263.15	182.59	36.61
264.15	183.52	36.8
265.15	184.23	36.94
266.15	184.83	37.06
267.15	185.69	37.23
268.15	186.57	37.41
269.15	187.58	37.61
270.15	188.37	37.77
271.15	189.06	37.91
272.15	189.78	38.05
273.15	190.61	38.22
274.15	191.19	38.33
275.15	191.83	38.46
276.15	192.48	38.59
277.15	193.16	38.73
278.15	193.84	38.86
279.15	194.6	39.02
280.15	195.16	39.13
281.15	195.85	39.27
282.15	196.47	39.39
283.15	197.03	39.5
284.15	197.67	39.63
285.15	198.35	39.77
286.15	198.9	39.88
287.15	199.37	39.97
288.15	200.05	40.11
289.15	200.75	40.25
290.15	201.49	40.4
291.15	202.11	40.52
292.15	202.64	40.63
293.15	203.3	40.76
294.15	203.94	40.89
295.15	204.77	41.06
296.15	205.37	41.18
297.15	206.12	41.33
298.15	206.77	41.46
299.15	207.42	41.59
300.15	208.27	41.76
301.15	209.11	41.93
302.15	209.85	42.07
303.15	210.71	42.25
304.15	211.4	42.39
305.15	212.38	42.58
306.15	213.15	42.74
307.15	214.11	42.93
308.15	215.16	43.14
309.15	216.11	43.33
310.15	217.05	43.52
311.15	218.22	43.75
312.15	219.18	43.95
313.15	220.1	44.13
314.15	221.04	44.32
315.15	222.13	44.54
316.15	223.18	44.75
317.15	224.21	44.95
318.15	225.16	45.14
319.15	226.14	45.34
320.15	227.12	45.54
321.15	228.27	45.77
322.15	229.22	45.96
323.15	230.47	46.21
324.15	231.33	46.38
325.15	232.46	46.61
326.15	233.49	46.81
327.15	234.58	47.03
328.15	235.6	47.24
329.15	236.61	47.44
330.15	237.74	47.67
331.15	238.74	47.87
332.15	239.92	48.1
333.15	241.19	48.36

System: L-(-)-arabitol; phases: Liquid
Fixed: Pressure, kPa = 101.325
Property: Molar heat capacity at constant pressure, J/K/mol (Liquid); method: Small sample (50 mg) DSC
Temperature, K	Molar heat capacity at constant pressure, J/K/mol	uncertainty
387.05	440.32	88.28
387.15	440.19	88.26
388.15	440.32	88.28
389.15	440.39	88.3
390.15	440.65	88.35
391.15	440.67	88.35
392.15	440.92	88.4
393.15	441.37	88.49
394.15	441.72	88.56
395.15	441.9	88.6
396.15	442.46	88.71
397.15	443.18	88.86
398.15	443.38	88.9
399.15	443.7	88.96
400.15	444.18	89.06
401.15	444.55	89.13
402.15	444.8	89.18
403.15	445.3	89.28
404.15	445.48	89.32
405.15	445.82	89.39
406.15	446.12	89.45
407.15	446.57	89.54
408.15	447.22	89.67
409.15	447.57	89.74
410.15	448.06	89.84
411.15	448.75	89.97
412.15	449.48	90.12
413.15	450.17	90.26
414.15	450.82	90.39
415.15	451.25	90.48
416.15	451.74	90.57
417.15	452.58	90.74
418.15	453.6	90.95

System: L-(-)-arabitol; phases: Crystal
Fixed: Pressure, kPa = 101.325
Property: Molar heat capacity at constant pressure, J/K/mol (Crystal); method: Small sample (50 mg) DSC
Temperature, K	Molar heat capacity at constant pressure, J/K/mol	uncertainty
305	212.36	42.58
310	217.12	43.53
315	221.96	44.5
320	226.85	45.48
325	231.9	46.5
330	237.4	47.6
335	243.8	48.88
340	251.69	50.46
345	261.85	52.5

System: L-(-)-arabitol; phases: Crystal
Fixed: Pressure, kPa = 101.325
Property: Molar entropy, J/K/mol (Crystal); method: Small sample (50 mg) DSC
Temperature, K	Molar entropy, J/K/mol	uncertainty
305	206.64	62.15
310	210.13	63.2
315	213.64	64.25
320	217.18	65.32
325	220.73	66.38
330	224.32	67.46
335	227.93	68.55
340	231.6	69.65
345	235.34	70.78
350	239.2	71.94
355	243.24	73.15
360	247.71	74.5

System: L-(-)-arabitol; phases: Crystal
Fixed: Pressure, kPa = 101.325
Property: Molar enthalpy, kJ/mol (Crystal); method: Small sample (50 mg) DSC
Temperature, K	Molar enthalpy, kJ/mol	uncertainty
305	33.169	6.65
310	34.243	6.866
315	35.34	7.086
320	36.462	7.311
325	37.609	7.541
330	38.782	7.776
335	39.985	8.017
340	41.223	8.265
345	42.505	8.522
350	43.846	8.791
355	45.268	9.076
360	46.868	9.397

System: L-(-)-arabitol; phases: Liquid
Fixed: Pressure, kPa = 101.325
Property: Molar heat capacity at constant pressure, J/K/mol (Liquid); method: Small sample (50 mg) DSC
Temperature, K	Molar heat capacity at constant pressure, J/K/mol	uncertainty
390	440.74	88.37
395	442.06	88.63
400	443.76	88.97
405	445.85	89.39
410	448.32	89.89
415	451.18	90.46

System: L-(-)-arabitol; phases: Liquid
Fixed: Pressure, kPa = 101.325
Property: Molar entropy, J/K/mol (Liquid); method: Small sample (50 mg) DSC
Temperature, K	Molar entropy, J/K/mol	uncertainty
380	355.56	106.93
385	361.46	108.71
390	367.15	110.42
395	372.77	112.11
400	378.34	113.79
405	383.87	115.45
410	389.35	117.1
415	394.8	118.74

System: L-(-)-arabitol; phases: Liquid
Fixed: Pressure, kPa = 101.325
Property: Molar enthalpy, kJ/mol (Liquid); method: Small sample (50 mg) DSC
Temperature, K	Molar enthalpy, kJ/mol	uncertainty
380	87.129	17.469
385	89.387	17.922
390	91.59	18.364
395	93.797	18.806
400	96.012	19.25
405	98.235	19.696
410	100.47	20.14
415	102.72	20.6

System: meso-1,2,3,4-butanetetrol; phases: Crystal, Liquid, Air at 1 atmosphere
Property: Normal melting temperature, K (Crystal); method: DTA
Normal melting temperature, K	uncertainty
394.82	0.61

System: meso-1,2,3,4-butanetetrol; phases: Crystal, Liquid, Air at 1 atmosphere
Property: Molar enthalpy of transition or fusion, kJ/mol (Crystal); method: DSC
Molar enthalpy of transition or fusion, kJ/mol	uncertainty
44.59	5.42

System: meso-1,2,3,4-butanetetrol; phases: Crystal
Fixed: Pressure, kPa = 101.325
Property: Molar heat capacity at constant pressure, J/K/mol (Crystal); method: RELAXCAL
Temperature, K	Molar heat capacity at constant pressure, J/K/mol	uncertainty
1.924	0.0054509	0.0004577
2.124	0.0073915	0.0006022
2.347	0.0094179	0.0007219
2.604	0.012945	0.000966
2.892	0.017824	0.001304
3.203	0.024248	0.001772
3.549	0.033247	0.002383
3.937	0.045611	0.003256
4.364	0.062932	0.004492
4.842	0.087848	0.006246
5.372	0.12248	0.00868
5.959	0.17167	0.01208
6.613	0.24178	0.01698
7.34	0.34454	0.02422
8.147	0.493	0.03459
9.042	0.69956	0.04899
10.114	0.9995	0.0699
11.212	1.3942	0.0974
12.446	1.9285	0.1346
13.815	2.6065	0.1818
15.351	3.4837	0.2429
17.042	4.5817	0.3194
18.927	5.8924	0.4106
21.011	7.4512	0.3042
23.336	9.268	0.3778
25.877	11.297	0.46
28.734	13.632	0.555
31.897	16.252	0.661
35.422	19.189	0.78
39.332	22.356	0.909
43.666	25.771	1.047
48.446	29.388	1.194
53.772	33.347	1.355
59.695	37.69	1.531
66.263	42.34	1.72
73.578	47.194	1.917
81.686	52.799	2.145
90.665	58.301	2.368
100.622	63.741	2.59
110.749	69.632	2.829
120.808	75.509	3.068
130.854	80.629	3.276
140.984	85.76	3.484
151.104	90.49	3.676
161.195	95.303	3.872
171.293	100.67	4.09
181.371	106.96	4.35
191.451	111.84	4.54
201.598	116.2	4.72
211.702	120.82	4.91
221.789	126.14	5.12
231.891	131.18	5.33
241.917	136.06	5.53
251.99	141.26	5.74
262.105	146.2	5.94
272.175	151.4	6.15
282.179	157.05	6.38
292.304	161.64	6.57
302.364	167.01	6.78

System: meso-1,2,3,4-butanetetrol; phases: Crystal
Fixed: Pressure, kPa = 101.325
Property: Molar heat capacity at constant pressure, J/K/mol (Crystal); method: RELAXCAL
Temperature, K	Molar heat capacity at constant pressure, J/K/mol	uncertainty
1	0.0010304	0.0001194
2	0.0060995	0.0004181
3	0.019821	0.001284
4	0.047865	0.003032
5	0.097241	0.006092
6	0.17631	0.01098
7	0.29438	0.01825
8	0.46144	0.02853
9	0.68631	0.04234
10	0.97138	0.05976
15	3.2728	0.2007
20	6.6787	0.4092
25	10.616	0.65
30	14.704	0.901
35	18.792	1.151
40	22.842	1.399
45	26.813	1.642
50	30.632	1.876
55	34.263	2.098
60	37.937	2.323
65	41.498	2.541
70	44.95	2.753
75	48.295	2.957
80	51.537	3.156
85	54.683	3.349
90	57.743	3.536
95	60.724	3.719
100	63.636	3.897
110	69.279	4.242
120	74.73	4.576
130	80.035	4.901
140	85.229	5.219
150	90.343	5.532
160	95.398	5.842
170	100.41	6.15
180	105.4	6.45
190	110.37	6.76
200	115.34	7.06
210	120.31	7.37
220	125.28	7.67
230	130.27	7.98
240	135.27	8.28
250	140.29	8.59
260	145.33	8.9
270	150.4	9.21
273.15	152	9.31
280	155.49	9.52
290	160.61	9.84
298.15	164.8	10.09
300	165.76	10.15

System: meso-1,2,3,4-butanetetrol; phases: Crystal
Fixed: Pressure, kPa = 101.325
Property: Molar entropy, J/K/mol (Crystal); method: RELAXCAL
Temperature, K	Molar entropy, J/K/mol	uncertainty
1	0.00059419	6.674e-05
2	0.0025148	0.0002403
3	0.0072053	0.0006761
4	0.016329	0.00152
5	0.031845	0.002952
6	0.056044	0.005182
7	0.091526	0.00845
8	0.14113	0.01302
9	0.20788	0.01916
10	0.29441	0.0271
15	1.0768	0.099
20	2.4655	0.2266
25	4.3734	0.4018
30	6.6697	0.6127
35	9.2437	0.8492
40	12.018	1.104
45	14.939	1.372
50	17.963	1.65
55	21.054	1.934
60	24.194	2.222
65	27.372	2.514
70	30.575	2.809
75	33.79	3.104
80	37.011	3.4
85	40.231	3.695
90	43.443	3.991
95	46.645	4.285
100	49.834	4.578
110	56.166	5.159
120	62.429	5.734
130	68.621	6.303
140	74.743	6.866
150	80.798	7.422
160	86.79	7.972
170	92.724	8.517
180	98.605	9.057
190	104.44	9.59
200	110.22	10.12
210	115.97	10.65
220	121.68	11.18
230	127.36	11.7
240	133.01	12.22
250	138.64	12.73
260	144.24	13.25
270	149.82	13.76
273.15	151.57	13.92
280	155.38	14.27
290	160.92	14.78
298.15	165.43	15.2
300	166.46	15.29

System: meso-1,2,3,4-butanetetrol; phases: Crystal
Fixed: Pressure, kPa = 101.325
Property: Molar enthalpy, kJ/mol (Crystal); method: RELAXCAL
Temperature, K	Molar enthalpy, kJ/mol	uncertainty
1	3.5145e-07	6.467e-08
2	3.4005e-06	2.571e-07
3	1.5423e-05	1.044e-06
4	4.7802e-05	3.103e-06
5	0.00011825	7.52e-06
6	0.00025217	1.587e-05
7	0.00048386	3.024e-05
8	0.00085716	5.333e-05
9	0.0014261	8.84e-05
10	0.0022499	0.0001388
15	0.012284	0.000755
20	0.036828	0.002259
25	0.079944	0.0049
30	0.14323	0.00878
35	0.22698	0.0139
40	0.33109	0.02028
45	0.45528	0.02789
50	0.59897	0.03668
55	0.76128	0.04662
60	0.94184	0.05768
65	1.1405	0.0698
70	1.3566	0.0831
75	1.5898	0.0974
80	1.8394	0.1126
85	2.105	0.1289
90	2.3861	0.1461
95	2.6823	0.1643
100	2.9932	0.1833
110	3.658	0.224
120	4.3782	0.2681
130	5.1521	0.3155
140	5.9785	0.3661
150	6.8564	0.4199
160	7.7852	0.4767
170	8.7642	0.5367
180	9.7933	0.5997
190	10.872	0.666
200	12.001	0.735
210	13.179	0.807
220	14.407	0.882
230	15.685	0.961
240	17.012	1.042
250	18.39	1.126
260	19.818	1.214
270	21.297	1.304
273.15	21.773	1.333
280	22.826	1.398
290	24.407	1.495
298.15	25.733	1.576
300	26.039	1.595

System: meso-1,2,3,4-butanetetrol; phases: Crystal
Fixed: Pressure, kPa = 101.325
Property: Molar heat capacity at constant pressure, J/K/mol (Crystal); method: Small sample (50 mg) DSC
Temperature, K	Molar heat capacity at constant pressure, J/K/mol	uncertainty
188.15	104.81	12.66
189.15	105.65	12.77
190.15	106.41	12.86
191.15	107.06	12.94
192.15	107.53	12.99
193.15	107.94	13.04
194.15	108.84	13.15
195.15	109.73	13.26
196.15	110.56	13.36
197.15	111.25	13.44
198.15	111.77	13.51
199.15	112.42	13.58
200.15	113.07	13.66
201.15	113.73	13.74
202.15	114.29	13.81
203.15	114.78	13.87
204.15	115.4	13.94
205.15	115.95	14.01
206.15	116.45	14.07
207.15	116.98	14.13
208.15	117.43	14.19
209.15	117.85	14.24
210.15	118.46	14.31
211.15	119.05	14.38
212.15	119.45	14.43
213.15	120.03	14.5
214.15	120.6	14.57
215.15	120.96	14.62
216.15	121.61	14.69
217.15	122.09	14.75
218.15	122.56	14.81
219.15	123.25	14.89
220.15	123.79	14.96
221.15	124.32	15.02
222.15	124.76	15.07
223.15	125.31	15.14
224.15	125.9	15.21
225.15	126.32	15.26
226.15	126.8	15.32
227.15	127.31	15.38
228.15	127.86	15.45
229.15	128.26	15.5
230.15	128.74	15.56
231.15	129.25	15.62
232.15	129.79	15.68
233.15	130.29	15.74
234.15	130.84	15.81
235.15	131.47	15.89
236.15	132.03	15.95
237.15	132.65	16.03
238.15	133.18	16.09
239.15	133.62	16.15
240.15	134.1	16.2
241.15	134.58	16.26
242.15	135	16.31
243.15	135.48	16.37
244.15	135.91	16.42
245.15	136.33	16.47
246.15	136.8	16.53
247.15	137.31	16.59
248.15	137.82	16.65
249.15	138.21	16.7
250.15	138.96	16.79
251.15	139.41	16.84
252.15	139.85	16.9
253.15	140.35	16.96
254.15	140.97	17.03
255.15	141.49	17.1
256.15	142.02	17.16
257.15	142.62	17.23
258.15	143.2	17.3
259.15	143.78	17.37
260.15	144.21	17.42
261.15	144.74	17.49
262.15	145.34	17.56
263.15	145.66	17.6
264.15	146.16	17.66
265.15	146.7	17.73
266.15	147.21	17.79
267.15	147.61	17.84
268.15	148.1	17.9
269.15	148.57	17.95
270.15	149.15	18.02
271.15	149.59	18.08
272.15	150.19	18.15
273.15	150.91	18.23
274.15	151.33	18.29
275.15	151.84	18.35
276.15	152.44	18.42
277.15	152.94	18.48
278.15	153.58	18.56
279.15	154.21	18.63
280.15	154.62	18.68
281.15	155.17	18.75
282.15	155.77	18.82
283.15	156.24	18.88
284.15	156.55	18.92
285.15	157.21	19
286.15	157.62	19.05
287.15	158.1	19.1
288.15	158.65	19.17
289.15	159.25	19.24
290.15	159.93	19.32
291.15	160.48	19.39
292.15	161.05	19.46
293.15	161.72	19.54
294.15	162.21	19.6
295.15	162.81	19.67
296.15	163.64	19.77
297.15	164.09	19.83
298.15	164.59	19.89
299.15	165.2	19.96
300.15	165.82	20.04
301.15	166.37	20.1
302.15	166.97	20.18
303.15	167.71	20.26
304.15	168.28	20.33
305.15	169.01	20.42
306.15	169.71	20.51
307.15	170.39	20.59
308.15	171.17	20.68
309.15	171.87	20.77
310.15	172.47	20.84
311.15	173.14	20.92
312.15	173.77	21
313.15	174.6	21.1
314.15	175.09	21.16
315.15	175.58	21.22
316.15	176.2	21.29
317.15	176.88	21.37
318.15	177.32	21.43
319.15	177.89	21.49
320.15	178.54	21.57
321.15	179.14	21.65
322.15	179.7	21.71
323.15	180.24	21.78
324.15	180.85	21.85
325.15	181.48	21.93
326.15	181.97	21.99
327.15	182.72	22.08
328.15	183.34	22.15
329.15	183.85	22.21
330.15	184.59	22.3
331.15	185.18	22.38
332.15	185.74	22.44
333.15	186.31	22.51
334.15	186.85	22.58
335.15	187.33	22.64
336.15	187.85	22.7
337.15	188.31	22.75
338.15	188.9	22.82
339.15	189.49	22.9
340.15	189.94	22.95
341.15	190.43	23.01
342.15	191.01	23.08
343.15	191.56	23.15
344.15	192.16	23.22
345.15	192.67	23.28
346.15	193.32	23.36
347.15	193.86	23.42
348.15	194.17	23.46
349.15	194.83	23.54
350.15	195.3	23.6
351.15	195.72	23.65
352.15	196.34	23.72
353.15	197.73	23.89
354.15	198.08	23.93
355.15	198.55	23.99
356.15	199.02	24.05
357.15	199.53	24.11
358.15	200.16	24.19
359.15	200.7	24.25
360.15	201.23	24.31
361.15	201.82	24.39
362.15	202.33	24.45
363.15	202.72	24.49
364.15	203.4	24.58
365.15	203.96	24.64
366.15	204.56	24.72
367.15	205.27	24.8
368.15	205.84	24.87
369.15	206.45	24.95
370.15	207.1	25.02
371.15	207.59	25.08
372.15	208.24	25.16
373.15	208.9	25.24
374.15	209.47	25.31
375.15	210.03	25.38

System: meso-1,2,3,4-butanetetrol; phases: Liquid
Fixed: Pressure, kPa = 101.325
Property: Molar heat capacity at constant pressure, J/K/mol (Liquid); method: Small sample (50 mg) DSC
Temperature, K	Molar heat capacity at constant pressure, J/K/mol	uncertainty
412.05	355.49	42.95
412.15	355.53	42.96
412.25	355.65	42.97
412.35	355.53	42.96
412.45	355.34	42.94
412.55	355.36	42.94
412.65	355.43	42.95
412.75	355.39	42.94
412.85	355.48	42.95
412.95	355.36	42.94
413.05	355.34	42.94
413.15	355.22	42.92
414.15	354.92	42.89
415.15	354.76	42.87
416.15	354.79	42.87
417.15	354.7	42.86
418.15	354.67	42.85
419.15	354.7	42.86
420.15	354.81	42.87
421.15	354.98	42.89
422.15	354.99	42.89
423.15	354.99	42.89
424.15	354.94	42.89
425.15	354.94	42.89
426.15	354.95	42.89
427.15	355.23	42.92
428.15	355.21	42.92
429.15	355.15	42.91
430.15	355.18	42.92
431.15	355.17	42.92
432.15	355.17	42.92
433.15	355	42.89
434.15	354.85	42.88
435.15	355.19	42.92

System: meso-1,2,3,4-butanetetrol; phases: Crystal
Fixed: Pressure, kPa = 101.325
Property: Molar heat capacity at constant pressure, J/K/mol (Crystal); method: Small sample (50 mg) DSC
Temperature, K	Molar heat capacity at constant pressure, J/K/mol	uncertainty
305	169.01	20.42
310	172.33	20.82
315	175.5	21.21
320	178.54	21.57
325	181.48	21.93
330	184.34	22.27
335	187.15	22.61
340	189.91	22.95
345	192.66	23.28
350	195.43	23.61
355	198.22	23.95
360	201.07	24.3
365	203.99	24.65
370	207.02	25.01
375	210.16	25.39

System: meso-1,2,3,4-butanetetrol; phases: Crystal
Fixed: Pressure, kPa = 101.325
Property: Molar entropy, J/K/mol (Crystal); method: Small sample (50 mg) DSC
Temperature, K	Molar entropy, J/K/mol	uncertainty
305	169.22	30.67
310	172	31.17
315	174.78	31.68
320	177.57	32.18
325	180.36	32.69
330	183.15	33.2
335	185.94	33.7
340	188.74	34.21
345	191.53	34.71
350	194.32	35.22
355	197.11	35.73
360	199.9	36.23
365	202.7	36.74
370	205.49	37.24
375	208.29	37.75
380	211.1	38.26
385	213.99	38.78
390	217.51	39.42

System: meso-1,2,3,4-butanetetrol; phases: Crystal
Fixed: Pressure, kPa = 101.325
Property: Molar enthalpy, kJ/mol (Crystal); method: Small sample (50 mg) DSC
Temperature, K	Molar enthalpy, kJ/mol	uncertainty
305	26.875	3.247
310	27.729	3.351
315	28.598	3.456
320	29.483	3.562
325	30.383	3.671
330	31.298	3.782
335	32.227	3.894
340	33.169	4.008
345	34.126	4.123
350	35.096	4.241
355	36.08	4.36
360	37.078	4.48
365	38.091	4.603
370	39.118	4.727
375	40.161	4.853
380	41.222	4.981
385	42.326	5.114
390	43.69	5.279

System: meso-1,2,3,4-butanetetrol; phases: Liquid
Fixed: Pressure, kPa = 101.325
Property: Molar heat capacity at constant pressure, J/K/mol (Liquid); method: Small sample (50 mg) DSC
Temperature, K	Molar heat capacity at constant pressure, J/K/mol	uncertainty
415	354.91	42.88
420	354.96	42.89
425	355.01	42.9
430	355.06	42.9
435	355.11	42.91

System: meso-1,2,3,4-butanetetrol; phases: Liquid
Fixed: Pressure, kPa = 101.325
Property: Molar entropy, J/K/mol (Liquid); method: Small sample (50 mg) DSC
Temperature, K	Molar entropy, J/K/mol	uncertainty
405	333.59	60.46
410	338.24	61.3
415	342.55	62.09
420	346.8	62.86
425	351	63.62
430	355.15	64.37
435	359.26	65.11

System: meso-1,2,3,4-butanetetrol; phases: Liquid
Fixed: Pressure, kPa = 101.325
Property: Molar enthalpy, kJ/mol (Liquid); method: Small sample (50 mg) DSC
Temperature, K	Molar enthalpy, kJ/mol	uncertainty
405	89.806	10.851
410	91.7	11.08
415	93.477	11.295
420	95.252	11.509
425	97.027	11.724
430	98.802	11.938
435	100.58	12.15
