Measured thermophysical data. CO2 solubility in aqueous potassium lysinate solutions at absorber conditions
Source: J. Chem. Thermodyn., 2017, 10.1016/j.jct.2017.03.024
Compound 1: carbon dioxide, CO2, InChI=1S/CO2/c2-1-3, purity 99.95%
Compound 2: potassium L-lysinate, C6H13KN2O2, InChI=1S/C6H14N2O2.K/c7-4-2-1-3-5(8)6(9)10;/h5H,1-4,7-8H2,(H,9,10);/q;+1/p-1/t5-;/m0./s1, purity 97%
Compound 3: 2-aminoethan-1-ol, C2H7NO, InChI=1S/C2H7NO/c3-1-2-4/h4H,1-3H2, purity 99.2%
Compound 4: water, H2O, InChI=1S/H2O/h1H2, purity 99.8%

System: water; phases: Liquid, Gas
Property: Vapor or sublimation pressure, kPa (Liquid); method: Closed cell (Static) method
Temperature, K	Vapor or sublimation pressure, kPa	uncertainty
298	3.35	2.4
313	7.4	2.4
323	12.12	2.4
328.2	15.07	2.4
333	18.99	2.41
337.5	23.33	2.41

System: carbon dioxide + water + potassium L-lysinate; phases: Liquid, Gas
Property: Molality, mol/kg of carbon dioxide (Liquid); method: Titration
Molality, mol/kg of potassium L-lysinate	Temperature, K	Pressure, kPa of carbon dioxide	Molality, mol/kg of carbon dioxide	uncertainty
1.258	313.2	16.92	1.537	0.03
1.258	313.2	11.54	1.516	0.03
1.258	313.2	8.71	1.48	0.03
1.258	313.2	6.78	1.424	0.03
1.258	313.2	5.39	1.406	0.03
1.258	313.2	3.62	1.375	0.03
1.258	313.2	3.27	1.365	0.03
1.258	313.2	2.72	1.313	0.03
1.258	313.2	2.08	1.272	0.03
1.258	313.2	1.66	1.224	0.03
1.258	313.2	1.2	1.205	0.03
1.258	313.2	0.9	1.161	0.03
1.258	313.2	0.31	1.129	0.03
1.258	333.2	14.49	1.406	0.03
1.258	333.2	11.28	1.333	0.03
1.258	333.2	7.61	1.292	0.03
1.258	333.2	6.65	1.22	0.03
1.258	333.2	4.67	1.211	0.03
1.258	333.2	3.88	1.156	0.03
1.258	333.2	2.45	1.114	0.03
1.258	333.2	1.99	1.099	0.03
1.258	333.2	0.85	1.011	0.03
1.258	333.2	0.47	0.914	0.03
1.258	333.2	0.25	0.897	0.03
2.835	323.2	20.81	3.212	0.069
2.835	323.2	18.3	3.195	0.069
2.835	323.2	14.11	3.039	0.068
2.835	323.2	11.68	3.022	0.068
2.835	323.2	9.18	2.923	0.068
2.835	323.2	6.31	2.909	0.068
2.835	323.2	4.26	2.841	0.068
2.835	323.2	3.65	2.773	0.068
2.835	323.2	1.96	2.745	0.068
2.835	323.2	1.47	2.657	0.068
2.835	323.2	0.98	2.489	0.068
2.835	323.2	0.38	2.359	0.068
2.835	323.2	0.29	2.226	0.068
2.835	343.2	15.92	2.787	0.068
2.835	343.2	10.63	2.614	0.068
2.835	343.2	8.89	2.623	0.068
2.835	343.2	6.31	2.498	0.068
2.835	343.2	4.1	2.407	0.068
2.835	343.2	2.87	2.288	0.068
2.835	343.2	1.16	2.044	0.068
2.835	343.2	0.64	1.968	0.068
2.835	343.2	0.28	1.894	0.068
3.28	313.2	17.56	3.726	0.079
3.28	313.2	12.45	3.637	0.079
3.28	313.2	10.15	3.611	0.079
3.28	313.2	6.7	3.595	0.079
3.28	313.2	5	3.427	0.079
3.28	313.2	3.38	3.378	0.079
3.28	313.2	2.96	3.372	0.079
3.28	313.2	2.43	3.352	0.079
3.28	313.2	2.17	3.25	0.079
3.28	313.2	1.16	3.178	0.079
3.28	313.2	1.18	3.165	0.079
3.28	313.2	0.21	2.965	0.078
3.28	323.2	20.52	3.513	0.079
3.28	323.2	16.67	3.463	0.079
3.28	323.2	7.6	3.322	0.079
3.28	323.2	5.3	3.227	0.079
3.28	323.2	3.46	3.119	0.079
3.28	323.2	1.31	3.08	0.078
3.28	323.2	0.68	2.85	0.078
3.28	323.2	0.35	2.762	0.078
3.28	323.2	0.21	2.624	0.078
3.28	333.2	19.2	3.427	0.079
3.28	333.2	16.85	3.411	0.079
3.28	333.2	15.14	3.368	0.079
3.28	333.2	12.34	3.418	0.079
3.28	333.2	9.45	3.24	0.079
3.28	333.2	3.96	3.129	0.079
3.28	333.2	2.23	3.122	0.079
3.28	333.2	1.9	3.073	0.078
3.28	333.2	1.4	3.031	0.078
3.28	333.2	1	2.84	0.078
3.28	333.2	0.85	2.807	0.078
3.28	333.2	0.45	2.542	0.078
3.28	333.2	0.34	2.473	0.078
3.28	333.2	0.27	2.394	0.078
3.28	343.2	15.88	3.237	0.079
3.28	343.2	10.56	3.231	0.079
3.28	343.2	7.5	3.175	0.079
3.28	343.2	7.3	3.145	0.079
3.28	343.2	5.4	3.139	0.079
3.28	343.2	4.28	3.09	0.079
3.28	343.2	3.8	3.014	0.078
3.28	343.2	3.38	2.932	0.078
3.28	343.2	2.5	2.916	0.078
3.28	343.2	1.8	2.863	0.078
3.28	343.2	1.32	2.739	0.078
3.28	343.2	0.9	2.689	0.078
3.28	343.2	0.66	2.571	0.078
3.28	343.2	0.44	2.299	0.078
3.28	343.2	0.3	2.207	0.078

System: carbon dioxide + 2-aminoethan-1-ol + water; phases: Liquid, Gas
Fixed: Temperature, K = 313.2
Fixed: Molality, mol/kg of 2-aminoethan-1-ol = 7.016
Property: Molality, mol/kg of carbon dioxide (Liquid); method: Titration
Pressure, kPa of carbon dioxide	Molality, mol/kg of carbon dioxide	uncertainty
14.02	3.688	0.178
11.71	3.628	0.177
5.41	3.49	0.178
4.23	3.469	0.206
3.62	3.431	0.204
2.59	3.413	0.181
2.01	3.358	0.193
0.38	3.024	0.345
0.26	2.853	0.446

System: water + potassium L-lysinate; phases: Liquid, Gas
Property: Vapor or sublimation pressure, kPa (Liquid); method: Closed cell (Static) method
Temperature, K	Molality, mol/kg of potassium L-lysinate	Vapor or sublimation pressure, kPa	uncertainty
313	1.219	7.05	2.4
313	2.832	6.52	2.4
313	3.325	6.17	2.4
323	1.219	11.32	2.4
323	2.832	10.53	2.4
323	3.325	10.04	2.4
333	1.219	17.68	2.41
333	2.832	16.61	2.41
333	3.325	15.81	2.4
343	1.219	26.9	2.41
343	2.832	24.57	2.41
343	3.325	23.46	2.41
313	0	7.4	2.4
323	0	12.12	2.4
333	0	18.99	2.4
