Measured thermophysical data. Understanding the enhanced solubility of 1,3-benzenedicarboxylic acid in polar binary solvents of (acetone + water) at various temperatures
Source: J. Chem. Thermodyn., 2017, 10.1016/j.jct.2016.10.011
Compound 1: 1,3-benzenedicarboxylic acid, C8H6O4, InChI=1S/C8H6O4/c9-7(10)5-2-1-3-6(4-5)8(11)12/h1-4H,(H,9,10)(H,11,12), purity 99.5%
Compound 2: acetone, C3H6O, InChI=1S/C3H6O/c1-3(2)4/h1-2H3
Compound 3: water, H2O, InChI=1S/H2O/h1H2, purity 99.9%

System: acetone + 1,3-benzenedicarboxylic acid + water; phases: Liquid, Crystal
Fixed: Pressure, kPa = 100
Property: Mole fraction of 1,3-benzenedicarboxylic acid (Liquid); method: gravimetric method
Temperature, K	Solvent: Mass fraction of acetone	Mole fraction of 1,3-benzenedicarboxylic acid	uncertainty
277.75	0.1063	2.23e-05	4.5e-06
287.85	0.1063	2.66e-05	5.4e-06
292.85	0.1063	3.17e-05	6.4e-06
297.55	0.1063	3.39e-05	6.9e-06
302.75	0.1063	3.91e-05	8e-06
308.15	0.1063	6.41e-05	1.3e-05
312.75	0.1063	0.0001052	2.13e-05
318.15	0.1063	0.0001434	2.9e-05
323.25	0.1063	0.0001934	3.91e-05
278.45	0.1997	4.07e-05	8.2e-06
283.25	0.1997	6.4e-05	1.29e-05
288.25	0.1997	7.48e-05	1.51e-05
292.95	0.1997	8.3e-05	1.67e-05
298.15	0.1997	9.27e-05	1.88e-05
302.75	0.1997	0.0001322	2.67e-05
308.05	0.1997	0.000161	3.25e-05
312.75	0.1997	0.0002509	5.05e-05
318.45	0.1997	0.0003441	6.91e-05
323.05	0.1997	0.0004625	9.29e-05
277.85	0.301	0.0001214	2.45e-05
282.85	0.301	0.0001512	3.05e-05
288.25	0.301	0.0001904	3.84e-05
292.85	0.301	0.000235	4.74e-05
298.05	0.301	0.0003017	6.08e-05
302.75	0.301	0.0003717	7.48e-05
307.95	0.301	0.000474	9.54e-05
312.95	0.301	0.000594	0.0001194
318.05	0.301	0.0007553	0.0001517
322.95	0.301	0.000951	0.000191
277.85	0.3998	0.0003772	7.56e-05
282.95	0.3998	0.0004559	9.14e-05
287.75	0.3998	0.0005514	0.0001105
293.05	0.3998	0.0006821	0.0001367
297.85	0.3998	0.0008319	0.0001667
302.75	0.3998	0.0009846	0.0001973
308.05	0.3998	0.0011881	0.000238
313.15	0.3998	0.0013982	0.0002801
318.05	0.3998	0.0016703	0.0003346
323.05	0.3998	0.00197	0.0003945
277.85	0.4989	0.0006043	0.0001221
282.85	0.4989	0.0007429	0.0001498
287.85	0.4989	0.0009016	0.0001815
293.05	0.4989	0.001064	0.000214
297.85	0.4989	0.0012567	0.0002526
302.85	0.4989	0.0015028	0.0003019
308.05	0.4989	0.0017838	0.0003581
313.15	0.4989	0.0021071	0.0004228
318.15	0.4989	0.0024619	0.0004938
322.95	0.4989	0.0028777	0.0005774
277.85	0.5999	0.002007	0.0004028
282.95	0.5999	0.002299	0.0004613
287.85	0.5999	0.0025765	0.0005168
293.05	0.5999	0.0029389	0.0005894
298.25	0.5999	0.0033444	0.0006705
303.05	0.5999	0.0037779	0.0007572
308.45	0.5999	0.0042474	0.0008512
313.45	0.5999	0.0047667	0.0009551
318.35	0.5999	0.0053376	0.0010693
323.25	0.5999	0.0059625	0.0011943
277.95	0.7014	0.003989	0.0007991
282.95	0.7014	0.0043856	0.0008784
287.85	0.7014	0.0048198	0.0009653
292.75	0.7014	0.0053145	0.0010642
298.15	0.7014	0.0058763	0.0011765
302.95	0.7014	0.0064277	0.0012868
307.95	0.7014	0.0070229	0.0014058
313.25	0.7014	0.0077419	0.0015496
318.25	0.7014	0.0084774	0.0016967
322.95	0.7014	0.0092529	0.0018517
277.95	0.7993	0.0065009	0.0013008
282.95	0.7993	0.0069181	0.0013841
287.85	0.7993	0.0074363	0.0014877
293.15	0.7993	0.0079639	0.0015931
298.25	0.7993	0.0085457	0.0017095
303.05	0.7993	0.0090921	0.0018188
308.05	0.7993	0.0097712	0.0019546
313.05	0.7993	0.0104893	0.0020981
318.05	0.7993	0.0111731	0.0022349
322.65	0.7993	0.0118978	0.0023798
277.85	0.8967	0.0070455	0.0014101
282.85	0.8967	0.0073537	0.0014712
287.95	0.8967	0.0076289	0.0015264
293.05	0.8967	0.0080398	0.0016086
298.05	0.8967	0.0085054	0.0017018
303.05	0.8967	0.0089496	0.0017907
307.95	0.8967	0.0094066	0.0018821
312.95	0.8967	0.009867	0.0019743
318.05	0.8967	0.010576	0.0021161
322.95	0.8967	0.0112591	0.0022529
277.95	0.9599	0.0033408	0.0006784
283.25	0.9599	0.0035877	0.0007276
288.35	0.9599	0.0037549	0.0007609
293.05	0.9599	0.0039676	0.0008041
297.95	0.9599	0.0041174	0.0008344
302.95	0.9599	0.0046804	0.0009461
308.05	0.9599	0.0050889	0.001027
313.05	0.9599	0.0054982	0.0011083
317.95	0.9599	0.0060099	0.0012107
322.85	0.9599	0.0065391	0.0013164
