Measured thermophysical data. Measurement and correlation of excess molar enthalpy for(1,2-propanediol, or 1,3-propanediol, or 1,4-butanediol + water) at the temperatures (298.15, 323.15, and 343.15) K
Source: J. Chem. Thermodyn., 2006, 10.1016/j.jct.2005.06.018
Compound 1: 1,2-propanediol, C3H8O2, InChI=1S/C3H8O2/c1-3(5)2-4/h3-5H,2H2,1H3
Compound 2: propan-1,3-diol, C3H8O2, InChI=1S/C3H8O2/c4-2-1-3-5/h4-5H,1-3H2
Compound 3: 1,4-butanediol, C4H10O2, InChI=1S/C4H10O2/c5-3-1-2-4-6/h5-6H,1-4H2
Compound 4: water, H2O, InChI=1S/H2O/h1H2
Compound 5: ethanol, C2H6O, InChI=1S/C2H6O/c1-2-3/h3H,2H2,1H3

System: 1,2-propanediol + water; phases: Liquid
Fixed: Pressure, kPa = 101
Property: Excess molar enthalpy (molar enthalpy of mixing), kJ/mol (Liquid); method: CALVET:UFactor:2
Temperature, K	Mole fraction of 1,2-propanediol	Excess molar enthalpy (molar enthalpy of mixing), kJ/mol	uncertainty
298.15	0.0266	-0.279	0.012
298.15	0.0579	-0.562	0.016
298.15	0.1214	-0.878	0.023
298.15	0.205	-0.97	0.025
298.15	0.304	-0.913	0.023
298.15	0.3872	-0.837	0.021
298.15	0.4957	-0.702	0.018
298.15	0.5454	-0.635	0.016
298.15	0.6431	-0.542	0.014
298.15	0.7386	-0.436	0.012
298.15	0.8236	-0.325	0.009
298.15	0.9233	-0.15	0.005
323.15	0.0266	-0.227	0.009
323.15	0.0579	-0.393	0.011
323.15	0.1214	-0.628	0.016
323.15	0.205	-0.753	0.019
323.15	0.304	-0.746	0.019
323.15	0.3872	-0.725	0.019
323.15	0.4957	-0.643	0.017
323.15	0.5454	-0.602	0.016
323.15	0.6431	-0.508	0.013
323.15	0.7386	-0.396	0.011
323.15	0.8236	-0.279	0.008
323.15	0.9233	-0.13	0.004
343.15	0.0266	-0.144	0.006
343.15	0.0579	-0.283	0.009
343.15	0.1214	-0.462	0.012
343.15	0.205	-0.503	0.013
343.15	0.304	-0.514	0.013
343.15	0.3872	-0.499	0.013
343.15	0.4957	-0.453	0.012
343.15	0.5454	-0.425	0.011
343.15	0.6431	-0.368	0.01
343.15	0.7386	-0.293	0.008
343.15	0.8236	-0.216	0.006
343.15	0.9233	-0.119	0.004

System: propan-1,3-diol + water; phases: Liquid
Fixed: Pressure, kPa = 101
Property: Excess molar enthalpy (molar enthalpy of mixing), kJ/mol (Liquid); method: CALVET:UFactor:2
Temperature, K	Mole fraction of propan-1,3-diol	Excess molar enthalpy (molar enthalpy of mixing), kJ/mol	uncertainty
298.15	0.0272	-0.236	0.01
298.15	0.0591	-0.453	0.013
298.15	0.1239	-0.744	0.019
298.15	0.2087	-0.924	0.024
298.15	0.3088	-1.011	0.026
298.15	0.3926	-1.034	0.026
298.15	0.5013	-0.992	0.025
298.15	0.551	-0.904	0.023
298.15	0.6483	-0.789	0.02
298.15	0.743	-0.633	0.016
298.15	0.8269	-0.458	0.012
298.15	0.9249	-0.256	0.007
323.15	0.0272	-0.167	0.007
323.15	0.0591	-0.32	0.009
323.15	0.1239	-0.533	0.014
323.15	0.2087	-0.73	0.019
323.15	0.3088	-0.831	0.021
323.15	0.3926	-0.832	0.021
323.15	0.5013	-0.821	0.021
323.15	0.551	-0.813	0.021
323.15	0.6483	-0.735	0.019
323.15	0.743	-0.584	0.015
323.15	0.8269	-0.417	0.011
323.15	0.9249	-0.195	0.006
343.15	0.0272	-0.125	0.005
343.15	0.0591	-0.229	0.007
343.15	0.1239	-0.386	0.01
343.15	0.2087	-0.464	0.012
343.15	0.3088	-0.56	0.015
343.15	0.3926	-0.591	0.015
343.15	0.5013	-0.593	0.015
343.15	0.551	-0.579	0.015
343.15	0.6483	-0.505	0.013
343.15	0.743	-0.433	0.012
343.15	0.8269	-0.308	0.009
343.15	0.9249	-0.153	0.005

System: 1,4-butanediol + water; phases: Liquid
Fixed: Pressure, kPa = 101
Property: Excess molar enthalpy (molar enthalpy of mixing), kJ/mol (Liquid); method: CALVET:UFactor:2
Temperature, K	Mole fraction of 1,4-butanediol	Excess molar enthalpy (molar enthalpy of mixing), kJ/mol	uncertainty
298.15	0.0221	-0.229	0.01
298.15	0.0485	-0.423	0.012
298.15	0.1028	-0.676	0.018
298.15	0.1761	-0.805	0.021
298.15	0.2658	-0.896	0.023
298.15	0.3437	-0.916	0.023
298.15	0.449	-0.901	0.023
298.15	0.4986	-0.882	0.022
298.15	0.599	-0.785	0.02
298.15	0.7008	-0.656	0.017
298.15	0.7947	-0.513	0.014
298.15	0.9089	-0.252	0.007
323.15	0.0221	-0.143	0.007
323.15	0.0485	-0.281	0.008
323.15	0.1028	-0.427	0.012
323.15	0.1761	-0.538	0.014
323.15	0.2658	-0.604	0.016
323.15	0.3437	-0.645	0.017
323.15	0.449	-0.634	0.016
323.15	0.4986	-0.615	0.016
323.15	0.599	-0.577	0.015
323.15	0.7008	-0.489	0.013
323.15	0.7947	-0.395	0.011
323.15	0.9089	-0.196	0.006
343.15	0.0221	-0.078	0.004
343.15	0.0485	-0.152	0.005
343.15	0.1028	-0.242	0.007
343.15	0.1761	-0.292	0.008
343.15	0.2658	-0.343	0.009
343.15	0.3437	-0.363	0.01
343.15	0.449	-0.378	0.01
343.15	0.4986	-0.373	0.01
343.15	0.599	-0.361	0.01
343.15	0.7008	-0.324	0.009
343.15	0.7947	-0.265	0.007
343.15	0.9089	-0.14	0.005

System: ethanol + water; phases: Liquid
Fixed: Pressure, kPa = 101
Property: Excess molar enthalpy (molar enthalpy of mixing), kJ/mol (Liquid); method: CALVET:UFactor:2
Temperature, K	Mole fraction of ethanol	Excess molar enthalpy (molar enthalpy of mixing), kJ/mol	uncertainty
298.15	0.0582	-0.492	0.014
298.15	0.1198	-0.747	0.019
298.15	0.15	-0.77	0.02
298.15	0.1837	-0.767	0.02
298.15	0.25	-0.702	0.018
298.15	0.2981	-0.649	0.017
298.15	0.4127	-0.501	0.013
298.15	0.5	-0.391	0.011
298.15	0.607	-0.323	0.009
298.15	0.701	-0.271	0.008
298.15	0.812	-0.206	0.006
298.15	0.9	-0.148	0.005
323.15	0.033	-0.192	0.007
323.15	0.072	-0.349	0.01
323.15	0.107	-0.409	0.011
323.15	0.148	-0.414	0.011
323.15	0.228	-0.357	0.01
323.15	0.296	-0.304	0.008
323.15	0.355	-0.24	0.007
323.15	0.443	-0.15	0.005
323.15	0.495	-0.108	0.004
323.15	0.553	-0.074	0.003
323.15	0.637	-0.055	0.003
323.15	0.736	-0.045	0.002
323.15	0.855	-0.05	0.002
323.15	0.909	-0.045	0.002
323.15	0.968	-0.018	0.002
