Measured thermophysical data. Development and test of a new Knudsen effusion apparatus for the measurement of low vapour pressures
Source: J. Chem. Thermodyn., 2011, 10.1016/j.jct.2011.07.003
Compound 1: anthracene, C14H10, InChI=1S/C14H10/c1-2-6-12-10-14-8-4-3-7-13(14)9-11(12)5-1/h1-10H, purity 99%
Compound 2: phenanthrene, C14H10, InChI=1S/C14H10/c1-3-7-13-11(5-1)9-10-12-6-2-4-8-14(12)13/h1-10H

System: anthracene; phases: Crystal, Gas
Property: Vapor or sublimation pressure, kPa (Crystal); method: Calculated from knudsen effusion weight loss
Temperature, K	Vapor or sublimation pressure, kPa	uncertainty
321.79	1.7e-05	1e-06
321.79	1.7e-05	1e-06
321.79	1.8e-05	1e-06
321.79	1.8e-05	1e-06
321.79	1.9e-05	1e-06
321.79	1.8e-05	1e-06
328.88	4e-05	2e-06
328.88	3.7e-05	2e-06
328.88	3.9e-05	2e-06
328.88	4e-05	2e-06
328.88	3.9e-05	2e-06
328.88	3.7e-05	2e-06
328.88	3.9e-05	2e-06
337.2	8.6e-05	4e-06
337.2	9.3e-05	5e-06
337.2	9.5e-05	5e-06
337.2	0.000103	5e-06
337.2	9e-05	5e-06
337.2	8.8e-05	4e-06
337.2	9.8e-05	5e-06
345.77	0.000238	1.2e-05
345.77	0.000235	1.2e-05
345.77	0.000237	1.2e-05
345.77	0.000234	1.2e-05
345.77	0.000227	1.1e-05
345.77	0.000236	1.2e-05
352.86	0.000434	2.2e-05
352.86	0.000482	2.4e-05
352.86	0.000485	2.4e-05
352.86	0.000455	2.3e-05
352.86	0.000444	2.2e-05
352.86	0.000473	2.4e-05
360.64	0.000988	4.9e-05
360.64	0.00098	4.9e-05
360.64	0.000993	5e-05
360.64	0.000942	4.7e-05
360.64	0.000992	5e-05

System: phenanthrene; phases: Crystal 2, Gas
Property: Vapor or sublimation pressure, kPa (Crystal 2); method: Calculated from knudsen effusion weight loss
Temperature, K	Vapor or sublimation pressure, kPa	uncertainty
295.73	1.4e-05	1e-06
295.73	1.4e-05	1e-06
295.73	1.4e-05	1e-06
295.73	1.5e-05	1e-06
295.73	1.5e-05	1e-06
295.73	1.5e-05	1e-06
295.73	1.4e-05	1e-06
302.13	3.1e-05	2e-06
302.13	3.1e-05	2e-06
302.13	3.2e-05	2e-06
302.13	3.2e-05	2e-06
302.13	3.2e-05	2e-06
302.13	3.2e-05	2e-06
302.13	3.2e-05	2e-06
307.66	6.1e-05	3e-06
307.66	6.1e-05	3e-06
307.66	6.4e-05	3e-06
307.66	6.1e-05	3e-06
307.66	6.2e-05	3e-06
307.66	6.1e-05	3e-06
313.1	0.000118	6e-06
313.1	0.000119	6e-06
313.1	0.000118	6e-06
313.1	0.000119	6e-06
313.1	0.000119	6e-06
318.47	0.000203	1e-05
318.47	0.000205	1e-05
318.47	0.0002	1e-05
318.47	0.000208	1e-05
318.47	0.000212	1.1e-05
318.47	0.000211	1.1e-05
318.47	0.000208	1e-05
323	0.00034	1.7e-05
323	0.000341	1.7e-05
323	0.000338	1.7e-05
323	0.000346	1.7e-05
323	0.000346	1.7e-05
323	0.000343	1.7e-05
323	0.000343	1.7e-05
328.2	0.000579	2.9e-05
328.2	0.000574	2.9e-05
328.2	0.00059	3e-05
328.2	0.000599	3e-05
328.2	0.000583	2.9e-05
328.2	0.000594	3e-05
332.95	0.000964	4.8e-05
332.95	0.000942	4.7e-05
332.95	0.000959	4.8e-05
332.95	0.00096	4.8e-05
332.95	0.000938	4.7e-05
332.95	0.000958	4.8e-05
