Measured thermophysical data. Isothermal (vapour + liquid) equilibrium for binary mixtures of (tetrahydrofuran + 1,1,2,2-tetrachloroethane or tetrachloroethene) at nine temperatures
Source: J. Chem. Thermodyn., 2006, 10.1016/j.jct.2005.06.003
Compound 1: tetrahydrofuran, C4H8O, InChI=1S/C4H8O/c1-2-4-5-3-1/h1-4H2, purity 99.9%
Compound 2: 1,1,2,2-tetrachloroethane, C2H2Cl4, InChI=1S/C2H2Cl4/c3-1(4)2(5)6/h1-2H, purity 99.6%
Compound 3: tetrachloroethene, C2Cl4, InChI=1S/C2Cl4/c3-1(4)2(5)6, purity 99.9%

System: tetrahydrofuran; phases: Liquid, Gas
Property: Vapor or sublimation pressure, kPa (Liquid); method: Closed cell (Static) method
Temperature, K	Vapor or sublimation pressure, kPa	uncertainty
283.15	10.73	0.032
288.15	13.671	0.036
293.15	17.253	0.041
298.15	21.596	0.047
303.15	26.812	0.054
308.15	32.935	0.065
313.15	40.207	0.077
318.15	48.676	0.091
323.15	58.543	0.106

System: 1,1,2,2-tetrachloroethane; phases: Liquid, Gas
Property: Vapor or sublimation pressure, kPa (Liquid); method: Closed cell (Static) method
Temperature, K	Vapor or sublimation pressure, kPa	uncertainty
283.15	0.263	0.02
288.15	0.373	0.02
293.15	0.521	0.021
298.15	0.711	0.021
303.15	0.98	0.022
308.15	1.289	0.022
313.15	1.701	0.022
318.15	2.236	0.023
323.15	2.86	0.023

System: tetrachloroethene; phases: Liquid, Gas
Property: Vapor or sublimation pressure, kPa (Liquid); method: Closed cell (Static) method
Temperature, K	Vapor or sublimation pressure, kPa	uncertainty
283.15	1.023	0.022
288.15	1.4	0.022
293.15	1.861	0.022
298.15	2.462	0.023
303.15	3.205	0.023
308.15	4.117	0.024
313.15	5.253	0.025
318.15	6.621	0.027
323.15	8.286	0.028

System: 1,1,2,2-tetrachloroethane + tetrahydrofuran; phases: Liquid, Gas
Property: Vapor or sublimation pressure, kPa (Liquid); method: Closed cell (Static) method
Temperature, K	Mole fraction of 1,1,2,2-tetrachloroethane	Vapor or sublimation pressure, kPa	uncertainty
283.15	0.0536	10.071	0.049
283.15	0.1168	9.179	0.047
283.15	0.2101	7.542	0.043
283.15	0.2724	6.439	0.04
283.15	0.3585	4.872	0.036
283.15	0.4236	3.848	0.033
283.15	0.5227	2.55	0.03
283.15	0.6101	1.693	0.028
283.15	0.6565	1.373	0.027
283.15	0.7444	0.923	0.025
283.15	0.7906	0.716	0.023
283.15	0.8433	0.553	0.022
283.15	0.9548	0.324	0.021
288.15	0.0537	12.844	0.058
288.15	0.1168	11.668	0.054
288.15	0.2102	9.665	0.049
288.15	0.2725	8.266	0.046
288.15	0.3586	6.301	0.04
288.15	0.4237	5.014	0.037
288.15	0.5228	3.364	0.032
288.15	0.6101	2.288	0.03
288.15	0.6566	1.875	0.028
288.15	0.7445	1.257	0.028
288.15	0.7906	0.993	0.026
288.15	0.8433	0.801	0.024
288.15	0.9548	0.469	0.022
293.15	0.0536	16.223	0.069
293.15	0.1169	14.755	0.065
293.15	0.2104	12.264	0.057
293.15	0.2727	10.486	0.052
293.15	0.3588	8.074	0.046
293.15	0.4238	6.477	0.041
293.15	0.5228	4.38	0.035
293.15	0.6102	3.01	0.032
293.15	0.6566	2.478	0.03
293.15	0.7445	1.685	0.028
293.15	0.7907	1.348	0.027
293.15	0.8433	1.083	0.027
293.15	0.9548	0.665	0.023
298.15	0.0537	20.304	0.083
298.15	0.1168	18.474	0.077
298.15	0.2106	15.375	0.068
298.15	0.273	13.208	0.062
298.15	0.359	10.244	0.053
298.15	0.4239	8.229	0.046
298.15	0.5229	5.64	0.039
298.15	0.6103	3.934	0.034
298.15	0.6567	3.238	0.032
298.15	0.7445	2.246	0.03
298.15	0.7907	1.803	0.028
298.15	0.8434	1.441	0.027
298.15	0.9548	0.889	0.025
303.15	0.0537	25.227	0.099
303.15	0.1169	22.97	0.092
303.15	0.2103	19.224	0.081
303.15	0.2727	16.551	0.073
303.15	0.3593	12.915	0.062
303.15	0.4241	10.436	0.053
303.15	0.523	7.226	0.044
303.15	0.6104	5.086	0.038
303.15	0.6568	4.222	0.035
303.15	0.7446	2.972	0.031
303.15	0.7907	2.378	0.03
303.15	0.8434	1.923	0.028
303.15	0.9548	1.203	0.028
308.15	0.0537	30.965	0.118
308.15	0.1169	28.319	0.11
308.15	0.2105	23.717	0.096
308.15	0.273	20.488	0.087
308.15	0.3596	16.019	0.073
308.15	0.4244	13.082	0.063
308.15	0.5232	9.153	0.051
308.15	0.6105	6.495	0.042
308.15	0.6569	5.416	0.038
308.15	0.7447	3.829	0.034
308.15	0.7908	3.132	0.032
308.15	0.8434	2.55	0.03
308.15	0.9548	1.581	0.028
313.15	0.0537	37.778	0.14
313.15	0.117	34.577	0.13
313.15	0.2106	29.034	0.114
313.15	0.2731	25.137	0.103
313.15	0.3591	19.857	0.087
313.15	0.424	16.26	0.074
313.15	0.5234	11.444	0.058
313.15	0.6107	8.179	0.048
313.15	0.657	6.873	0.042
313.15	0.7448	4.896	0.037
313.15	0.7908	4.002	0.034
313.15	0.8434	3.277	0.032
313.15	0.9548	2.074	0.029
318.15	0.0538	45.778	0.166
318.15	0.1171	41.893	0.155
318.15	0.2109	35.237	0.135
318.15	0.2735	30.587	0.122
318.15	0.3592	24.311	0.102
318.15	0.4242	19.989	0.088
318.15	0.5238	14.197	0.069
318.15	0.611	10.234	0.055
318.15	0.6572	8.645	0.048
318.15	0.7449	6.201	0.041
318.15	0.7909	5.142	0.038
318.15	0.8435	4.198	0.034
318.15	0.9548	2.693	0.031
323.15	0.054	55.019	0.195
323.15	0.1173	50.429	0.182
323.15	0.2109	42.498	0.159
323.15	0.2738	36.952	0.143
323.15	0.3596	29.502	0.121
323.15	0.4244	24.403	0.103
323.15	0.5234	17.571	0.081
323.15	0.6114	12.726	0.064
323.15	0.6575	10.79	0.055
323.15	0.7452	7.79	0.046
323.15	0.791	6.506	0.042
323.15	0.8436	5.368	0.038
323.15	0.9549	3.452	0.033

System: tetrahydrofuran + tetrachloroethene; phases: Liquid, Gas
Property: Vapor or sublimation pressure, kPa (Liquid); method: Closed cell (Static) method
Temperature, K	Mole fraction of tetrachloroethene	Vapor or sublimation pressure, kPa	uncertainty
283.15	0.0556	10.222	0.049
283.15	0.1845	8.997	0.046
283.15	0.2713	8.202	0.044
283.15	0.3291	7.666	0.042
283.15	0.389	7.114	0.041
283.15	0.5024	6.069	0.038
283.15	0.577	5.382	0.037
283.15	0.6789	4.393	0.034
283.15	0.7742	3.465	0.032
283.15	0.8579	2.593	0.03
283.15	0.8871	2.281	0.03
283.15	0.9339	1.776	0.029
288.15	0.0556	13.004	0.058
288.15	0.1846	11.487	0.053
288.15	0.2714	10.456	0.05
288.15	0.3293	9.813	0.048
288.15	0.3892	9.09	0.046
288.15	0.5025	7.785	0.043
288.15	0.5772	6.926	0.04
288.15	0.679	5.67	0.037
288.15	0.7742	4.5	0.035
288.15	0.858	3.377	0.032
288.15	0.8872	3.004	0.031
288.15	0.9339	2.348	0.03
293.15	0.0556	16.404	0.069
293.15	0.1848	14.484	0.063
293.15	0.2715	13.212	0.058
293.15	0.3296	12.396	0.056
293.15	0.3895	11.502	0.053
293.15	0.5026	9.862	0.048
293.15	0.5774	8.794	0.046
293.15	0.6791	7.249	0.042
293.15	0.7743	5.742	0.038
293.15	0.858	4.353	0.035
293.15	0.8872	3.845	0.034
293.15	0.934	3.049	0.032
298.15	0.0556	20.562	0.082
298.15	0.1846	18.177	0.075
298.15	0.2717	16.596	0.069
298.15	0.33	15.551	0.066
298.15	0.3902	14.475	0.063
298.15	0.5028	12.446	0.056
298.15	0.5777	11.079	0.052
298.15	0.6793	9.162	0.047
298.15	0.7745	7.286	0.042
298.15	0.8581	5.562	0.038
298.15	0.8873	4.932	0.037
298.15	0.934	3.917	0.035
303.15	0.0556	25.521	0.098
303.15	0.1847	22.607	0.089
303.15	0.2715	20.658	0.083
303.15	0.3295	19.438	0.079
303.15	0.3895	18.052	0.074
303.15	0.5031	15.524	0.066
303.15	0.5782	13.859	0.061
303.15	0.6796	11.46	0.054
303.15	0.7747	9.17	0.048
303.15	0.8583	7.017	0.043
303.15	0.8874	6.271	0.041
303.15	0.9341	5.024	0.038
308.15	0.0557	31.384	0.117
308.15	0.1848	27.784	0.106
308.15	0.2717	25.407	0.098
308.15	0.33	23.851	0.093
308.15	0.3901	22.233	0.088
308.15	0.5026	19.2	0.078
308.15	0.5775	17.155	0.072
308.15	0.6793	14.253	0.063
308.15	0.7749	11.403	0.055
308.15	0.8585	8.805	0.048
308.15	0.8875	7.871	0.047
308.15	0.9342	6.341	0.042
313.15	0.0557	38.288	0.139
313.15	0.1849	33.995	0.126
313.15	0.2718	31.092	0.116
313.15	0.3302	29.204	0.11
313.15	0.3902	27.204	0.104
313.15	0.5029	23.49	0.092
313.15	0.578	21.045	0.085
313.15	0.6795	17.551	0.074
313.15	0.7754	14.106	0.064
313.15	0.8587	10.955	0.055
313.15	0.8876	9.831	0.053
313.15	0.9343	7.949	0.048
318.15	0.0558	46.356	0.165
318.15	0.1851	41.174	0.149
318.15	0.2721	37.668	0.137
318.15	0.3307	35.456	0.131
318.15	0.3913	33.025	0.123
318.15	0.5033	28.59	0.109
318.15	0.5783	25.643	0.1
318.15	0.6797	21.461	0.088
318.15	0.7749	17.273	0.075
318.15	0.8591	13.49	0.064
318.15	0.8879	12.087	0.061
318.15	0.9344	9.866	0.055
323.15	0.0559	55.807	0.195
323.15	0.1854	49.54	0.175
323.15	0.2727	45.418	0.162
323.15	0.3307	42.752	0.154
323.15	0.3915	39.843	0.145
323.15	0.5032	34.522	0.128
323.15	0.5786	30.971	0.117
323.15	0.6803	25.943	0.102
323.15	0.7751	21.058	0.088
323.15	0.8595	16.495	0.075
323.15	0.8881	14.827	0.071
323.15	0.9346	12.171	0.064
