Measured thermophysical data. Heat capacity and thermodynamic properties of 2,4-dichlorobenzaldehyde (C7H4Cl2O)
Source: J. Chem. Thermodyn., 2004, 10.1016/j.jct.2004.01.006
Compound 1: 2,4-dichlorobenzaldehyde, C7H4Cl2O, InChI=1S/C7H4Cl2O/c8-6-2-1-5(4-10)7(9)3-6/h1-4H, purity 98%

System: 2,4-dichlorobenzaldehyde; phases: Crystal, Liquid, Gas
Property: Molar enthalpy of transition or fusion, kJ/mol (Crystal); method: Adiabatic calorimetry
Molar enthalpy of transition or fusion, kJ/mol	uncertainty
20.468	0.07

System: 2,4-dichlorobenzaldehyde; phases: Crystal, Liquid, Gas
Property: Triple point temperature, K (Crystal); method: Adiabatic calorimetry
Triple point temperature, K	uncertainty
347.24	0.27

System: 2,4-dichlorobenzaldehyde; phases: Crystal
Fixed: Pressure, kPa = 101.325
Property: Molar heat capacity at constant pressure, J/K/mol (Crystal); method: SMALLAD:UFactor:4
Temperature, K	Molar heat capacity at constant pressure, J/K/mol	uncertainty
79.167	71.3	1.8292
81.364	72.02	1.8375
83.106	72.63	1.8541
85.303	73.72	1.8708
87.49	74.91	1.8957
89.6	76.29	1.929
91.664	77.86	2.0454
93.692	79.02	2.062
95.679	80.2	2.0869
97.636	81.37	2.1036
99.557	82.67	2.1202
101.453	83.56	2.1368
103.317	84.392	2.1534
105.156	85.431	2.1701
106.968	86.653	2.1867
108.759	87.942	2.2033
110.529	88.832	2.22
112.276	89.53	2.2366
114.002	90.578	2.2532
115.711	91.476	2.2615
117.399	92.474	2.2782
119.071	93.421	2.2948
120.727	94.062	2.3031
122.365	94.81	2.3197
123.989	95.874	2.3364
125.6	96.98	2.353
127.193	97.803	2.3613
128.775	98.46	2.3779
130.342	99.549	2.3946
131.897	100.68	2.4112
133.442	101.08	2.4195
134.972	101.62	2.4278
136.492	102.52	2.4445
138	103.61	2.4611
139.5	104.14	2.4694
140.987	104.87	2.4777
142.465	105.48	2.486
143.93	106.66	2.5027
145.39	107.75	2.5276
146.839	108.26	2.5359
148.277	109.04	2.5442
149.707	109.83	2.5609
151.127	111.12	2.5775
152.542	111.74	2.5858
153.945	112.08	2.5941
155.341	112.93	2.6107
157.506	113.86	2.6191
160.423	115.39	2.644
163.319	116.39	2.6606
166.183	117.94	2.6856
169.012	119.36	2.7105
171.81	121.11	2.7355
174.585	122.69	2.7604
177.331	124.06	2.7853
180.054	125.43	2.8103
182.752	126.44	2.8269
185.425	127.77	2.8435
190.706	130.68	2.8934
193.314	131.82	2.9101
195.909	133.03	2.9267
198.409	134.61	2.9516
200.758	135.6	2.9683
203.116	136.47	2.9849
205.606	137.67	3.0015
208.106	139.14	3.0265
210.606	140.62	3.0514
213.05	142.39	3.0764
215.455	143.66	3.1013
217.879	145.35	3.1262
220.303	147.01	3.1512
222.727	148.63	3.1761
225.152	150.44	3.2094
227.5	152.1	3.2343
229.924	153.24	3.251
232.348	154.92	3.2759
234.924	156.38	3.3008
237.803	157.76	3.3258
240.455	159.08	3.3424
242.879	160.14	3.359
245.076	161.43	3.384
247.121	162.34	3.4006
249.242	163.27	3.4089
251.439	164.55	3.4339
253.561	165.45	3.4505
255.682	166.2	3.4588
257.727	166.92	3.4671
259.848	167.67	3.4838
261.894	168.77	3.5004
264.015	169.61	3.517
266.061	170.55	3.5253
268.03	171.61	3.542
270.076	172.38	3.5586
272.045	173.75	3.5835
274.015	174.95	3.6002
275.985	175.77	3.6085
277.955	176.86	3.6334
279.848	177.84	3.6417
281.742	178.91	3.6667
283.636	179.72	3.675
285.53	180.86	3.6916
287.424	181.6	3.7083
289.242	182.74	3.7249
291.061	183.73	3.7415
292.879	184.79	3.7581
294.621	185.72	3.7748
296.364	186.66	3.7831
298.03	187.45	3.7997
299.697	187.95	3.808
301.364	188.77	3.8163
303.864	189.94	3.8413
306.121	191.07	3.8579
308.394	191.8	3.8662
310.667	192.53	3.8829
312.955	193.73	3.8995
319.697	196.52	3.9411
321.894	197.35	3.9577
324.091	198.21	3.9743
326.212	199.12	3.9826
328.409	199.91	3.9993
330.53	200.78	4.0159
332.652	201.79	4.0325
334.667	202.59	4.0408
336.742	203.39	4.0575
338.773	205.71	4.0907

System: 2,4-dichlorobenzaldehyde; phases: Liquid
Fixed: Pressure, kPa = 101.325
Property: Molar heat capacity at constant pressure, J/K/mol (Liquid); method: SMALLAD:UFactor:2
Temperature, K	Molar heat capacity at constant pressure, J/K/mol	uncertainty
350.076	208.1	2.062
351.818	208.76	2.0703
353.561	209.27	2.0703
355.742	210.16	2.0786
357.136	210.51	2.0869
358.636	210.8	2.0869
361.515	211.51	2.0952
362.955	211.74	2.0952
364.318	212.33	2.0952
365.606	212.74	2.1036
366.818	213.06	2.1036
367.955	213.48	2.1119
369.015	213.84	2.1119
369.697	214.36	2.1119
370	214.39	2.1119
370.758	214.45	2.1119
371.515	214.51	2.1202
371.515	214.66	2.1202

System: 2,4-dichlorobenzaldehyde; phases: Crystal
Fixed: Pressure, kPa = 101.325
Property: Molar heat capacity at constant pressure, J/K/mol (Crystal); method: SMALLAD:UFactor:4
Temperature, K	Molar heat capacity at constant pressure, J/K/mol	uncertainty
80	71.33	1.8292
85	73.978	1.8799
90	76.75	2.0279
95	79.598	2.07363
100	82.485	2.12019
105	85.381	2.1701
110	88.258	2.2116
115	91.11	2.2615
120	93.92	2.3031
125	96.689	2.3447
130	99.4	2.3946
135	102.07	2.4361
140	104.7	2.4777
145	107.29	2.5193
150	109.85	2.5609
155	112.39	2.5941
160	114.92	2.6357
165	117.44	2.6773
170	119.97	2.7188
175	122.52	2.7604
180	125.09	2.802
185	127.68	2.8435
190	130.3	2.8851
195	133	2.9267
200	135.65	2.9683
205	138.37	3.0098
210	141.12	3.0597
215	143.89	3.1013
220	146.69	3.1512
225	149.5	3.1928
230	152.31	3.2343
235	155.12	3.2842
240	157.9	3.3258
245	160.64	3.3674
250	163.39	3.4172
255	166.07	3.4588
260	168.69	3.5004
265	171.25	3.542
270	173.73	3.5835
275	176.14	3.6168
280	178.48	3.6584
285	180.75	3.6916
290	182.93	3.7249
295	185.12	3.7581
298.15	186.47	3.7831
305	189.4	3.825
310	191.58	3.8662
315	193.86	3.8995
320	196.27	3.9411
325	198.9	3.9826
330	201.83	4.0325
335	205.15	4.0824
340	208.96	4.1406

System: 2,4-dichlorobenzaldehyde; phases: Liquid
Fixed: Pressure, kPa = 101.325
Property: Molar heat capacity at constant pressure, J/K/mol (Liquid); method: SMALLAD:UFactor:2
Temperature, K	Molar heat capacity at constant pressure, J/K/mol	uncertainty
350	208.08	2.062
355	209.85	2.0786
360	211.16	2.0869
365	212.44	2.1036
370	214.31	2.1119

System: 2,4-dichlorobenzaldehyde; phases: Crystal
Fixed: Pressure, kPa = 101.325
Property: Molar enthalpy, kJ/mol (Crystal); method: SMALLAD:UFactor:4
Temperature, K	Molar enthalpy, kJ/mol	uncertainty
80	-28.41	0.532
85	-28.05	0.524
90	-27.67	0.374
95	-27.28	0.358
100	-26.88	0.349
105	-26.46	0.341
110	-26.02	0.333
115	-25.58	0.316
120	-25.11	0.308
125	-24.64	0.291
130	-24.15	0.283
135	-23.64	0.274
140	-23.12	0.258
145	-22.6	0.249
150	-22.05	0.233
155	-21.49	0.216
160	-20.93	0.208
165	-20.35	0.191
170	-19.76	0.183
175	-19.15	0.166
180	-18.53	0.15
185	-17.9	0.141
190	-17.25	0.125
195	-16.6	0.108
200	-15.92	0.091
205	-15.24	0.083
210	-14.54	0.07
215	-13.83	0.05
220	-13.01	0.03
225	-12.36	0.02
230	-11.61	0.008
235	-10.83	0.02
240	-10.05	0.03
245	-9.254	0.05
250	-8.448	0.07
255	-7.62	0.083
260	-6.78	0.1
265	-5.94	0.116
270	-5.07	0.133
275	-4.2	0.15
280	-3.31	0.175
285	-2.41	0.191
290	-1.5	0.208
295	-0.58	0.224
298.15	0	0.241
305	1.29	0.266
310	2.24	0.283
315	3.2	0.299
320	4.18	0.324
325	5.16	0.341
330	6.17	0.366
335	7.18	0.382
340	8.22	0.407

System: 2,4-dichlorobenzaldehyde; phases: Liquid
Fixed: Pressure, kPa = 101.325
Property: Molar enthalpy, kJ/mol (Liquid); method: SMALLAD:UFactor:4
Temperature, K	Molar enthalpy, kJ/mol	uncertainty
350	28.81	0.74
355	29.86	0.765
360	30.91	0.782
365	31.97	0.807
370	33.03	0.823

System: 2,4-dichlorobenzaldehyde; phases: Crystal
Fixed: Pressure, kPa = 101.325
Property: Molar entropy, J/K/mol (Crystal); method: SMALLAD:UFactor:4
Temperature, K	Molar entropy, J/K/mol	uncertainty
80	-155	4.074
85	-150.6	3.908
90	-146.3	2.328
95	-142	2.245
100	-137.9	2.079
105	-133.8	1.995
110	-129.7	1.912
115	-125.7	1.829
120	-121.8	1.746
125	-117.9	1.663
130	-114.8	1.58
135	-110.3	1.413
140	-106.6	1.33
145	-102.9	1.247
150	-99.19	1.164
155	-95.53	1.081
160	-91.96	0.998
165	-88.38	0.915
170	-84.81	0.831
175	-81.3	0.75
180	-77.8	0.67
185	-74.3	0.58
190	-70.8	0.5
195	-67.4	0.42
200	-64	0.33
205	-60.6	0.25
210	-57.2	0.17
215	-53.9	0.08
220	-50.6	0.08
225	-47.2	0.08
230	-43.9	0.17
235	-40.6	0.25
240	-37.3	0.33
245	-34	0.42
250	-30.8	0.5
255	-27.5	0.58
260	-24.3	0.58
265	-21	0.67
270	-17.9	0.75
275	-14.6	0.831
280	-11.5	0.915
285	-8.31	0.998
290	-5.2	1.081
295	-2	1.164
298.15	0	1.164
305	4.2	1.247
310	7.4	1.33
315	10.5	1.413
320	13.6	1.413
325	16.6	1.497
330	19.7	1.58
335	22.8	1.663
340	25.8	1.746

System: 2,4-dichlorobenzaldehyde; phases: Liquid
Fixed: Pressure, kPa = 101.325
Property: Molar entropy, J/K/mol (Liquid); method: SMALLAD:UFactor:4
Temperature, K	Molar entropy, J/K/mol	uncertainty
350	85.06	3.243
355	88.05	3.326
360	90.96	3.409
365	93.87	3.492
370	96.78	3.492
