Measured thermophysical data. Thermodynamic properties of acetone calculated from accurate experimental speed of sound measurements at low temperatures and high pressures
Source: J. Chem. Thermodyn., 2009, 10.1016/j.jct.2008.11.005
Compound 1: acetone, C3H6O, InChI=1S/C3H6O/c1-3(2)4/h1-2H3, purity 99.5%

System: acetone; phases: Liquid
Property: Speed of sound, m/s (Liquid); method: Pulse-echo method
Temperature, K	Pressure, kPa	Speed of sound, m/s	uncertainty
248.15	100	1390.16	2.9
248.15	10000	1435.51	2.99
248.15	20000	1478.36	3.07
248.15	30000	1518.03	3.15
248.15	40000	1550.78	3.22
248.15	50000	1590.88	3.3
248.15	60000	1625.12	3.37
248.15	70000	1657.38	3.44
248.15	80000	1688.07	3.5
248.15	90000	1717.48	3.56
248.15	100000	1745.43	3.62
253.15	100	1367.16	2.85
253.15	10000	1413.84	3.05
253.15	20000	1457.41	3.03
253.15	30000	1497.98	3.11
253.15	40000	1536.44	3.19
253.15	50000	1572.26	3.27
253.15	60000	1606.9	3.34
253.15	70000	1639.52	3.4
253.15	80000	1670.88	3.47
253.15	90000	1700.93	3.53
253.15	100000	1729.65	3.59
258.15	100	1344.2	2.8
258.15	10000	1391.98	3.04
258.15	20000	1436.58	2.99
258.15	30000	1478.11	3.07
258.15	40000	1517.33	3.15
258.15	50000	1553.89	3.23
258.15	60000	1588.88	3.3
258.15	70000	1621.91	3.37
258.15	80000	1653.89	3.43
258.15	90000	1684.43	3.5
258.15	100000	1713.62	3.56
263.15	100	1320.92	2.76
263.15	10000	1370.35	2.86
263.15	20000	1415.99	2.95
263.15	30000	1458.25	3.03
263.15	40000	1498.44	3.12
263.15	50000	1535.81	3.19
263.15	60000	1570.98	3.26
263.15	70000	1604.54	3.33
263.15	80000	1637.11	3.4
263.15	90000	1668.1	3.46
263.15	100000	1697.74	3.52
268.15	100	1298.67	2.71
268.15	10000	1349.08	2.81
268.15	20000	1395.62	2.91
268.15	30000	1438.54	3
268.15	40000	1479.77	3.08
268.15	50000	1517.83	3.16
268.15	60000	1553.2	3.23
268.15	70000	1587.43	3.3
268.15	80000	1620.54	3.37
268.15	90000	1651.96	3.43
268.15	100000	1682.01	3.49
273.15	100	1275.4	2.67
273.15	10000	1327.81	2.77
273.15	20000	1375.45	2.87
273.15	30000	1418.96	2.96
273.15	40000	1461.31	3.04
273.15	50000	1499.98	3.12
273.15	60000	1535.77	3.19
273.15	70000	1570.58	3.27
273.15	80000	1604.15	3.33
273.15	90000	1636.02	3.4
273.15	100000	1666.45	3.46
278.15	100	1253.32	2.62
278.15	10000	1306.75	2.73
278.15	20000	1355.49	2.83
278.15	30000	1400.47	2.92
278.15	40000	1443.03	3.01
278.15	50000	1481.78	3.08
278.15	60000	1518.62	3.16
278.15	70000	1553.98	3.23
278.15	80000	1587.94	3.3
278.15	90000	1620.26	3.37
278.15	100000	1650.92	3.43
283.15	100	1231.06	2.58
283.15	10000	1285.85	2.69
283.15	20000	1335.74	2.79
283.15	30000	1381.4	2.88
283.15	40000	1424.94	2.97
283.15	50000	1464.43	3.05
283.15	60000	1502.23	3.13
283.15	70000	1537.63	3.2
283.15	80000	1571.96	3.27
283.15	90000	1604.68	3.34
283.15	100000	1635.63	3.4
288.15	100	1208.58	2.53
288.15	10000	1265.05	2.65
288.15	20000	1316.19	2.75
288.15	30000	1362.56	2.84
288.15	40000	1407.06	2.93
288.15	50000	1447.7	3.02
288.15	60000	1485.52	3.09
288.15	70000	1521.53	3.17
288.15	80000	1556.22	3.24
288.15	90000	1589.2	3.31
288.15	100000	1620.74	3.37
293.15	100	1186.09	2.49
293.15	10000	1244.14	2.61
293.15	20000	1296.86	2.71
293.15	30000	1344.06	2.81
293.15	40000	1389.16	2.9
293.15	50000	1430.7	2.98
293.15	60000	1469	3.06
293.15	70000	1505.7	3.14
293.15	80000	1540.77	3.21
293.15	90000	1574.27	3.28
293.15	100000	1605.01	3.34
298.15	100	1165.34	2.45
298.15	10000	1223.74	2.57
298.15	20000	1277.93	2.67
298.15	30000	1325.68	2.77
298.15	40000	1371.61	2.86
298.15	50000	1413.84	2.95
298.15	60000	1452.64	3.03
298.15	70000	1490.14	3.11
298.15	80000	1525.25	3.18
298.15	90000	1559.14	3.25
298.15	100000	1591.53	3.31
