Measured thermophysical data. Thermophysical and volumetric study of mixtures {p-cymene + propan-1-ol} at several temperatures and atmospheric pressure. Modeling with COSMO-RS
Source: J. Chem. Thermodyn., 2018, 10.1016/j.jct.2018.03.021
Compound 1: 1-(1-methylethyl)-4-methylbenzene, C10H14, InChI=1S/C10H14/c1-8(2)10-6-4-9(3)5-7-10/h4-8H,1-3H3, purity 99.5%
Compound 2: propan-1-ol, C3H8O, InChI=1S/C3H8O/c1-2-3-4/h4H,2-3H2,1H3

System: 1-(1-methylethyl)-4-methylbenzene; phases: Liquid
Fixed: Pressure, kPa = 100
Property: Mass density, kg/m3 (Liquid); method: Vibrating tube method
Temperature, K	Mass density, kg/m3	uncertainty
298.15	852.99	0.71
308.15	844.94	0.71
318.15	836.86	0.71
328.15	828.75	0.71

System: 1-(1-methylethyl)-4-methylbenzene; phases: Liquid
Fixed: Pressure, kPa = 100
Property: Molar heat capacity at constant pressure, J/K/mol (Liquid); method: Extra sensitive DSC
Temperature, K	Molar heat capacity at constant pressure, J/K/mol	uncertainty
298.8	240.9	9.3
308.7	244.8	9.5
318.6	249.4	9.7
328.5	254.6	9.9

System: propan-1-ol; phases: Liquid
Fixed: Pressure, kPa = 100
Property: Mass density, kg/m3 (Liquid); method: Vibrating tube method
Temperature, K	Mass density, kg/m3	uncertainty
298.15	799.46	0.71
308.15	791.36	0.71
318.15	783.1	0.71
328.15	774.63	0.71

System: propan-1-ol; phases: Liquid
Fixed: Pressure, kPa = 100
Property: Molar heat capacity at constant pressure, J/K/mol (Liquid); method: Extra sensitive DSC
Temperature, K	Molar heat capacity at constant pressure, J/K/mol	uncertainty
298.8	144.5	5.6
308.7	150.9	5.8
318.6	157.4	6.1
328.5	164.5	6.4

System: 1-(1-methylethyl)-4-methylbenzene + propan-1-ol; phases: Liquid
Fixed: Pressure, kPa = 100
Property: Mass density, kg/m3 (Liquid); method: Vibrating tube method
Temperature, K	Mole fraction of 1-(1-methylethyl)-4-methylbenzene	Mass density, kg/m3	uncertainty
298.15	0	799.46	0.71
298.15	0.0499	804.92	0.71
298.15	0.1007	809.8	0.71
298.15	0.2029	818.12	0.71
298.15	0.3021	824.8	0.71
298.15	0.4032	830.42	0.71
298.15	0.5045	835.28	0.71
298.15	0.6044	839.47	0.71
298.15	0.6974	842.95	0.71
298.15	0.8035	846.57	0.71
298.15	0.8989	849.61	0.71
298.15	0.9508	851.22	0.71
298.15	1	852.99	0.71
308.15	0	791.36	0.71
308.15	0.0499	796.73	0.71
308.15	0.1007	801.54	0.71
308.15	0.2029	809.76	0.71
308.15	0.3021	816.37	0.71
308.15	0.4032	821.98	0.71
308.15	0.5045	826.83	0.71
308.15	0.6044	831.05	0.71
308.15	0.6974	834.57	0.71
308.15	0.8035	838.26	0.71
308.15	0.8989	841.39	0.71
308.15	0.9508	843.07	0.71
308.15	1	844.94	0.71
318.15	0	783.1	0.71
318.15	0.0499	788.38	0.71
318.15	0.1007	793.11	0.71
318.15	0.2029	801.22	0.71
318.15	0.3021	807.78	0.71
318.15	0.4032	813.38	0.71
318.15	0.5045	818.25	0.71
318.15	0.6044	822.51	0.71
318.15	0.6974	826.09	0.71
318.15	0.8035	829.87	0.71
318.15	0.8989	833.1	0.71
318.15	0.9508	834.88	0.71
318.15	1	836.86	0.71
328.15	0	774.63	0.71
328.15	0.0499	779.8	0.71
328.15	0.1007	784.46	0.71
328.15	0.2029	792.47	0.71
328.15	0.3021	798.98	0.71
328.15	0.4032	804.59	0.71
328.15	0.5045	809.51	0.71
328.15	0.6044	813.82	0.71
328.15	0.6974	817.49	0.71
328.15	0.8035	821.37	0.71
328.15	0.8989	824.75	0.71
328.15	0.9508	826.65	0.71
328.15	1	828.75	0.71

System: 1-(1-methylethyl)-4-methylbenzene + propan-1-ol; phases: Liquid
Fixed: Pressure, kPa = 100
Property: Molar heat capacity at constant pressure, J/K/mol (Liquid); method: Extra sensitive DSC
Temperature, K	Mole fraction of 1-(1-methylethyl)-4-methylbenzene	Molar heat capacity at constant pressure, J/K/mol	uncertainty
298.8	0	144.5	5.6
298.8	0.0499	151.2	5.9
298.8	0.1007	159.6	6.2
298.8	0.2029	174.5	6.8
298.8	0.3021	186.9	7.2
298.8	0.4032	198.6	7.7
298.8	0.5045	210.6	8.2
298.8	0.6044	221	8.6
298.8	0.6974	229.1	8.9
298.8	0.8035	237.6	9.2
298.8	0.8989	242.2	9.4
298.8	0.9508	242.4	9.4
298.8	1	240.9	9.3
308.7	0	150.9	5.8
308.7	0.0499	158.5	6.1
308.7	0.1007	166.5	6.5
308.7	0.2029	182.2	7.1
308.7	0.3021	194	7.5
308.7	0.4032	206.1	8
308.7	0.5045	217.2	8.4
308.7	0.6044	227.2	8.8
308.7	0.6974	235	9.1
308.7	0.8035	242.8	9.4
308.7	0.8989	246.2	9.5
308.7	0.9508	245.3	9.5
308.7	1	244.8	9.5
318.6	0	157.4	6.1
318.6	0.0499	165.9	6.4
318.6	0.1007	173.5	6.7
318.6	0.2029	188.4	7.3
318.6	0.3021	201.2	7.8
318.6	0.4032	213.2	8.3
318.6	0.5045	223.9	8.7
318.6	0.6044	233.3	9
318.6	0.6974	240.8	9.3
318.6	0.8035	248.1	9.6
318.6	0.8989	250.4	9.7
318.6	0.9508	248.8	9.6
318.6	1	249.4	9.7
328.5	0	164.5	6.4
328.5	0.0499	173.4	6.7
328.5	0.1007	180.7	7
328.5	0.2029	195.4	7.6
328.5	0.3021	208.3	8.1
328.5	0.4032	220.7	8.5
328.5	0.5045	231.2	9
328.5	0.6044	240.2	9.3
328.5	0.6974	246.8	9.6
328.5	0.8035	253.4	9.8
328.5	0.8989	254.5	9.9
328.5	0.9508	252.6	9.8
328.5	1	254.6	9.9
