Measured thermophysical data. Evaluation of vaporization enthalpies and liquid vapor pressures of cedrol, nerolidol, and 1-adamantanol by correlation gas chromatography
Source: J. Chem. Thermodyn., 2017, 10.1016/j.jct.2017.07.018
Compound 1: 1-adamantanol, C10H16O, InChI=1S/C10H16O/c11-10-4-7-1-8(5-10)3-9(2-7)6-10/h7-9,11H,1-6H2, purity 99%
Compound 2: (+)-cedrol, C15H26O, InChI=1S/C15H26O/c1-10-5-6-11-13(2,3)12-9-15(10,11)8-7-14(12,4)16/h10-12,16H,5-9H2,1-4H3/t10-,11+,12-,14-,15+/m1/s1
Compound 3: (E)-3,7,11-trimethyldodeca-1,6,10-trien-3-ol, C15H26O, InChI=1S/C15H26O/c1-6-15(5,16)12-8-11-14(4)10-7-9-13(2)3/h6,9,11,16H,1,7-8,10,12H2,2-5H3/b14-11+, purity 93.5%
Compound 4: (Z)-3,7,11-trimethyldodeca-1,6,10-trien-3-ol, C15H26O, InChI=1S/C15H26O/c1-6-15(5,16)12-8-11-14(4)10-7-9-13(2)3/h6,9,11,16H,1,7-8,10,12H2,2-5H3/b14-11-, purity 93.5%

System: 1-adamantanol; phases: Liquid, Gas
Property: Molar enthalpy of vaporization or sublimation, kJ/mol (Liquid); method: Correlation gas chromatography
Temperature, K	Molar enthalpy of vaporization or sublimation, kJ/mol	uncertainty
298	74.8	6

System: 1-adamantanol; phases: Liquid, Gas
Property: Vapor or sublimation pressure, kPa (Liquid); method: Gas chromatography
Temperature, K	Vapor or sublimation pressure, kPa	uncertainty
298.15	0.0019	0.0002
310	0.0062	0.0005
320	0.015	0.002
330	0.035	0.005
340	0.074	0.011
350	0.15	0.021
360	0.28	0.038
370	0.51	0.063
380	0.88	0.095
390	1.5	0.14
400	2.3	0.192
410	3.6	0.279
420	5.4	0.418
430	7.9	0.612
440	11	0.852
450	16	1.24
460	22	1.704
470	29	2.247
480	38	3.097
490	49	4.717
500	62	7.594
521.2	101.325	10.133

System: (+)-cedrol; phases: Crystal, Liquid, Air at 1 atmosphere
Property: Normal melting temperature, K (Crystal); method: VISOBS
Normal melting temperature, K	uncertainty
359.15	3

System: (+)-cedrol; phases: Liquid, Gas
Property: Molar enthalpy of vaporization or sublimation, kJ/mol (Liquid); method: Correlation gas chromatography
Temperature, K	Molar enthalpy of vaporization or sublimation, kJ/mol	uncertainty
298	88.3	3.5

System: (+)-cedrol; phases: Liquid, Gas
Property: Vapor or sublimation pressure, kPa (Liquid); method: Gas chromatography
Temperature, K	Vapor or sublimation pressure, kPa	uncertainty
298.15	7e-05	2e-05
310	0.00029	0.0001
320	0.00084	0.00027
330	0.0022	0.0007
340	0.0055	0.0018
350	0.013	0.004
360	0.027	0.009
370	0.054	0.017
380	0.1	0.031
390	0.19	0.05
400	0.33	0.08
410	0.55	0.117
420	0.89	0.163
430	1.4	0.214
440	2.1	0.266
450	3.1	0.325
460	4.5	0.399
470	6.3	0.497
480	8.7	0.675
490	12	0.931
500	16	1.241
583.5	101.325	15.139

System: (E)-3,7,11-trimethyldodeca-1,6,10-trien-3-ol; phases: Liquid, Gas
Property: Molar enthalpy of vaporization or sublimation, kJ/mol (Liquid); method: Correlation gas chromatography
Temperature, K	Molar enthalpy of vaporization or sublimation, kJ/mol	uncertainty
298	92.7	3.7

System: (E)-3,7,11-trimethyldodeca-1,6,10-trien-3-ol; phases: Liquid, Gas
Property: Vapor or sublimation pressure, kPa (Liquid); method: Gas chromatography
Temperature, K	Vapor or sublimation pressure, kPa	uncertainty
298.15	6e-05	2e-05
310	0.00024	8e-05
320	0.00074	0.00025
330	0.0021	0.0007
340	0.0053	0.0016
350	0.013	0.004
360	0.028	0.009
370	0.058	0.018
380	0.115	0.033
390	0.22	0.058
400	0.39	0.092
410	0.67	0.138
420	1.1	0.196
430	1.8	0.272
440	2.8	0.343
450	4.3	0.428
460	6.3	0.539
470	9.1	0.707
480	13	1.011
490	18	1.399
500	24	1.866
554.7	101.325	12.875

System: (Z)-3,7,11-trimethyldodeca-1,6,10-trien-3-ol; phases: Liquid, Gas
Property: Molar enthalpy of vaporization or sublimation, kJ/mol (Liquid); method: Correlation gas chromatography
Temperature, K	Molar enthalpy of vaporization or sublimation, kJ/mol	uncertainty
298	91.4	3.7

System: (Z)-3,7,11-trimethyldodeca-1,6,10-trien-3-ol; phases: Liquid, Gas
Property: Vapor or sublimation pressure, kPa (Liquid); method: Gas chromatography
Temperature, K	Vapor or sublimation pressure, kPa	uncertainty
298.15	7.5e-05	4e-05
310	0.00032	0.0001
320	0.001	0.0003
330	0.0026	0.0008
340	0.0067	0.0017
350	0.016	0.005
360	0.034	0.011
370	0.071	0.021
380	0.14	0.039
390	0.26	0.067
400	0.46	0.107
410	0.79	0.16
420	1.3	0.22
430	2.1	0.3
440	3.3	0.397
450	4.9	0.486
460	7.2	0.614
470	10	0.779
480	15	1.166
490	20	1.555
500	27	2.101
550.3	101.325	12.557
