Measured thermophysical data. Phase equilibria for ternary liquid systems of (water + carboxylic acid or alcohol + 1-hexanol) at T = 293.15 K: modelling considerations
Source: J. Chem. Thermodyn., 2004, 10.1016/j.jct.2004.07.016
Compound 1: water, H2O, InChI=1S/H2O/h1H2, purity 99.9%
Compound 2: acetic acid, C2H4O2, InChI=1S/C2H4O2/c1-2(3)4/h1H3,(H,3,4)
Compound 3: 2-oxopropanoic acid, C3H4O3, InChI=1S/C3H4O3/c1-2(4)3(5)6/h1H3,(H,5,6)
Compound 4: 2-tetrahydrofurylmethanol, C5H10O2, InChI=1S/C5H10O2/c6-4-5-2-1-3-7-5/h5-6H,1-4H2
Compound 5: hexan-1-ol, C6H14O, InChI=1S/C6H14O/c1-2-3-4-5-6-7/h7H,2-6H2,1H3

System: hexan-1-ol + water; phases: Liquid mixture 1, Liquid mixture 2
Property: Mass fraction of water (Liquid mixture 1); method: CHROM:UFactor:8
Pressure, kPa	Temperature, K	Mass fraction of water	uncertainty
101.325	293.15	0.9922	0.002

System: hexan-1-ol + water; phases: Liquid mixture 2, Liquid mixture 1
Property: Mass fraction of water (Liquid mixture 2); method: CHROM:UFactor:8
Temperature, K	Pressure, kPa	Mass fraction of water	uncertainty
293.15	101.325	0.0305	0.0026

System: acetic acid + hexan-1-ol + water; phases: Liquid mixture 1, Liquid mixture 2
Fixed: Pressure, kPa = 101.325
Fixed: Temperature, K = 293.15
Property: Mass fraction of acetic acid (Liquid mixture 1); method: CHROM:UFactor:8
Property: Mass fraction of water (Liquid mixture 2); method: CHROM:UFactor:8
Property: Mass fraction of acetic acid (Liquid mixture 2); method: CHROM:UFactor:8
Mass fraction of water	Mass fraction of acetic acid	uncertainty	Mass fraction of water	uncertainty	Mass fraction of acetic acid	uncertainty
0.9922	0	0.0001	0.0305	0.0026	0	
0.9624	0.0296	0.0033	0.0383	0.003	0.0198	
0.9022	0.0889	0.0058	0.0514	0.0036	0.0648	
0.8553	0.1345	0.0086	0.0705	0.0045	0.1032	
0.7892	0.1983	0.0124	0.0919	0.0057	0.1591	
0.699	0.2827	0.0176	0.1217	0.0076	0.2345	
0.648	0.3315	0.0206	0.142	0.0088	0.2827	

System: hexan-1-ol + 2-oxopropanoic acid + water; phases: Liquid mixture 1, Liquid mixture 2
Fixed: Pressure, kPa = 101.325
Fixed: Temperature, K = 293.15
Property: Mass fraction of 2-oxopropanoic acid (Liquid mixture 1); method: CHROM:UFactor:8
Property: Mass fraction of water (Liquid mixture 2); method: CHROM:UFactor:8
Property: Mass fraction of 2-oxopropanoic acid (Liquid mixture 2); method: CHROM:UFactor:8
Mass fraction of water	Mass fraction of 2-oxopropanoic acid	uncertainty	Mass fraction of water	uncertainty	Mass fraction of 2-oxopropanoic acid	uncertainty
0.9922	0	0.0001	0.0305	0.0026	0	
0.9001	0.0908	0.006	0.033	0.0028	0.031	
0.8112	0.1795	0.0113	0.0405	0.0031	0.0682	
0.6966	0.2933	0.0183	0.0498	0.0035	0.1225	
0.5771	0.4087	0.0254	0.0683	0.0044	0.1902	
0.4739	0.5046	0.0308	0.0905	0.0056	0.2564	
0.3828	0.5931	0.0253	0.1022	0.0063	0.3219	

System: 2-tetrahydrofurylmethanol + hexan-1-ol + water; phases: Liquid mixture 1, Liquid mixture 2
Fixed: Pressure, kPa = 101.325
Fixed: Temperature, K = 293.15
Property: Mass fraction of 2-tetrahydrofurylmethanol (Liquid mixture 1); method: CHROM:UFactor:8
Property: Mass fraction of water (Liquid mixture 2); method: CHROM:UFactor:8
Property: Mass fraction of 2-tetrahydrofurylmethanol (Liquid mixture 2); method: CHROM:UFactor:8
Mass fraction of water	Mass fraction of 2-tetrahydrofurylmethanol	uncertainty	Mass fraction of water	uncertainty	Mass fraction of 2-tetrahydrofurylmethanol	uncertainty
0.9922	0	0.0001	0.0305	0.0026	0	
0.9211	0.0704	0.0049	0.0286	0.0026	0.0371	
0.8466	0.144	0.0091	0.0397	0.0031	0.0781	
0.7647	0.2225	0.0139	0.0583	0.004	0.1267	
0.7043	0.2826	0.0176	0.0855	0.0054	0.173	
0.6097	0.3708	0.023	0.1174	0.0074	0.2381	
0.5437	0.4267	0.0265	0.1783	0.0112	0.3021	
