Measured thermophysical data. Measurement and modeling of high-pressure (vapour + liquid) equilibria of (CO2 + alcohol) binary systems
Source: J. Chem. Thermodyn., 2010, 10.1016/j.jct.2009.11.015
Compound 1: carbon dioxide, CO2, InChI=1S/CO2/c2-1-3, purity 99.99%
Compound 2: 3-methylbutan-1-ol, C5H12O, InChI=1S/C5H12O/c1-5(2)3-4-6/h5-6H,3-4H2,1-2H3, purity 99%
Compound 3: propan-1-ol, C3H8O, InChI=1S/C3H8O/c1-2-3-4/h4H,2-3H2,1H3, purity 99.5%
Compound 4: 2-methyl-1-propanol, C4H10O, InChI=1S/C4H10O/c1-4(2)3-5/h4-5H,3H2,1-2H3, purity 99.9%
Compound 5: pentan-1-ol, C5H12O, InChI=1S/C5H12O/c1-2-3-4-5-6/h6H,2-5H2,1H3, purity 99%

System: propan-1-ol + carbon dioxide; phases: Liquid, Gas
Property: Vapor or sublimation pressure, kPa (Liquid); method: Closed cell (Static) method
Mole fraction of carbon dioxide	Temperature, K	Vapor or sublimation pressure, kPa	uncertainty
0.095	333	2160	130
0.117	323	2330	130
0.125	313	2150	120
0.138	333	3050	150
0.172	323	3220	150
0.22	313	3430	160
0.237	333	4640	180
0.247	323	4350	190
0.284	323	4900	200
0.29	313	4340	190
0.314	333	5600	230
0.365	313	5300	210
0.377	323	6190	240
0.384	333	6840	310
0.433	333	7680	290
0.436	323	6880	240
0.468	313	6360	230
0.485	333	8300	240
0.488	323	7440	210
0.532	313	6970	170
0.611	333	9510	260
0.626	323	8520	240
0.678	313	7590	160
0.683	323	9090	230
0.732	333	10460	270
0.75	313	7850	140
0.775	323	9570	190
0.835	313	8030	130

System: propan-1-ol + carbon dioxide; phases: Gas, Liquid
Property: Mole fraction of carbon dioxide (Gas); method: Volume of Gas and Condensate Mass
Mole fraction of carbon dioxide	Temperature, K	Mole fraction of carbon dioxide	uncertainty
0.095	333	0.972	0.028
0.117	323	0.966	0.034
0.125	313	0.976	0.024
0.138	333	0.975	0.025
0.172	323	0.973	0.027
0.22	313	0.978	0.022
0.237	333	0.979	0.021
0.247	323	0.979	0.021
0.284	323	0.98	0.02
0.29	313	0.981	0.019
0.314	333	0.983	0.017
0.365	313	0.982	0.018
0.377	323	0.984	0.016
0.384	333	0.987	0.013
0.433	333	0.99	0.01
0.436	323	0.987	0.013
0.468	313	0.985	0.015
0.485	333	0.991	0.009
0.488	323	0.992	0.008
0.532	313	0.986	0.014
0.611	333	0.99	0.01
0.626	323	0.992	0.008
0.678	313	0.99	0.01
0.683	323	0.992	0.008
0.732	333	0.989	0.011
0.75	313	0.991	0.009
0.775	323	0.99	0.01
0.835	313	0.993	0.007

System: 2-methyl-1-propanol + carbon dioxide; phases: Liquid, Gas
Property: Vapor or sublimation pressure, kPa (Liquid); method: Closed cell (Static) method
Temperature, K	Mole fraction of carbon dioxide	Vapor or sublimation pressure, kPa	uncertainty
313	0.123	2110	130
313	0.194	3090	150
313	0.235	3560	180
313	0.289	4400	200
313	0.367	5340	180
313	0.506	6390	190
313	0.621	7100	170
313	0.725	7440	140
313	0.841	7760	150
313	0.897	7920	160
323	0.112	2320	140
323	0.154	3020	150
323	0.213	3900	170
323	0.297	5020	210
323	0.339	5660	220
323	0.437	6880	250
323	0.486	7340	200
323	0.559	7850	200
323	0.627	8310	190
323	0.678	8540	170
323	0.721	8780	190
323	0.754	8910	170
323	0.794	9070	190
333	0.094	2210	130
333	0.141	3100	160
333	0.187	4020	160
333	0.267	5120	200
333	0.326	6030	230
333	0.396	6930	240
333	0.489	8100	260
333	0.59	9130	250
333	0.7	9920	260
333	0.779	10560	250
333	0.836	10790	180

System: 2-methyl-1-propanol + carbon dioxide; phases: Gas, Liquid
Property: Mole fraction of carbon dioxide (Gas); method: Volume of Gas and Condensate Mass
Temperature, K	Mole fraction of carbon dioxide	Mole fraction of carbon dioxide	uncertainty
313	0.123	0.971	0.016
313	0.194	0.98	0.016
313	0.235	0.99	0.01
313	0.289	0.985	0.015
313	0.367	0.981	0.016
313	0.506	0.989	0.011
313	0.621	0.991	0.009
313	0.725	0.992	0.008
313	0.841	0.991	0.009
313	0.897	0.991	0.009
323	0.112	0.961	0.015
323	0.154	0.973	0.016
323	0.213	0.979	0.016
323	0.297	0.975	0.016
323	0.339	0.983	0.016
323	0.437	0.99	0.01
323	0.486	0.993	0.007
323	0.559	0.99	0.01
323	0.627	0.991	0.009
323	0.678	0.989	0.011
323	0.721	0.988	0.012
323	0.754	0.987	0.013
323	0.794	0.985	0.015
333	0.094	0.979	0.016
333	0.141	0.98	0.016
333	0.187	0.987	0.013
333	0.267	0.985	0.015
333	0.326	0.987	0.013
333	0.396	0.996	0.004
333	0.489	0.996	0.004
333	0.59	0.996	0.004
333	0.7	0.988	0.012
333	0.779	0.982	0.017
333	0.836	0.964	0.019

System: 3-methylbutan-1-ol + carbon dioxide; phases: Gas, Liquid
Property: Vapor or sublimation pressure, kPa (Gas); method: Closed cell (Static) method
Temperature, K	Mole fraction of carbon dioxide	Vapor or sublimation pressure, kPa	uncertainty
313	0.142	2080	130
313	0.24	3280	170
313	0.312	4290	200
313	0.384	5040	210
313	0.477	6040	200
313	0.638	7170	210
313	0.783	8000	190
313	0.895	8330	160
323	0.141	2520	140
323	0.19	3140	140
323	0.292	4150	180
323	0.371	5170	220
323	0.468	6260	280
323	0.529	7120	280
323	0.622	8080	260
323	0.736	8900	270
323	0.801	9370	250
323	0.853	9700	250
323	0.872	9800	230
333	0.111	2170	120
333	0.186	3040	150
333	0.257	4200	200
333	0.339	5390	240
333	0.402	6260	260
333	0.478	7260	320
333	0.56	8500	360
333	0.619	9220	340
333	0.688	10030	290
333	0.78	10680	270

System: 3-methylbutan-1-ol + carbon dioxide; phases: Gas, Liquid
Property: Mole fraction of carbon dioxide (Gas); method: Volume of Gas and Mass of Condensate
Temperature, K	Mole fraction of carbon dioxide	Mole fraction of carbon dioxide	uncertainty
313	0.142	0.98	0.016
313	0.24	0.986	0.014
313	0.312	0.985	0.015
313	0.384	0.985	0.015
313	0.477	0.987	0.013
313	0.638	0.992	0.008
313	0.783	0.994	0.006
313	0.895	0.993	0.007
323	0.141	0.977	0.016
323	0.19	0.974	0.016
323	0.292	0.984	0.016
323	0.371	0.984	0.016
323	0.468	0.986	0.014
323	0.529	0.992	0.008
323	0.622	0.993	0.007
323	0.736	0.994	0.006
323	0.801	0.993	0.007
323	0.853	0.994	0.006
323	0.872	0.994	0.006
333	0.111	0.97	0.016
333	0.186	0.977	0.016
333	0.257	0.978	0.016
333	0.339	0.982	0.016
333	0.402	0.988	0.012
333	0.478	0.991	0.009
333	0.56	0.991	0.009
333	0.619	0.992	0.008
333	0.688	0.992	0.008
333	0.78	0.993	0.007

System: pentan-1-ol + carbon dioxide; phases: Gas, Liquid
Property: Vapor or sublimation pressure, kPa (Gas); method: Closed cell (Static) method
Temperature, K	Mole fraction of carbon dioxide	Vapor or sublimation pressure, kPa	uncertainty
313	0.104	1810	120
313	0.187	3000	160
313	0.263	4090	200
313	0.34	5270	230
313	0.423	6290	230
313	0.477	6750	210
313	0.57	7600	200
313	0.683	8150	170
313	0.76	8390	150
323	0.091	1820	120
323	0.119	2290	140
323	0.149	2960	160
323	0.222	4270	200
323	0.282	5220	220
323	0.339	6010	230
323	0.412	7000	250
323	0.51	8150	270
323	0.606	9130	260
323	0.673	9600	210
323	0.755	10010	210
333	0.102	2400	130
333	0.159	3370	160
333	0.211	4260	200
333	0.261	5300	220
333	0.333	6320	250
333	0.385	7290	310
333	0.42	7810	290
333	0.515	9180	310
333	0.611	10290	310
333	0.703	11210	350
333	0.744	11720	420

System: pentan-1-ol + carbon dioxide; phases: Gas, Liquid
Property: Mole fraction of carbon dioxide (Gas); method: Volume of Gas and Condensate Mass
Temperature, K	Mole fraction of carbon dioxide	Mole fraction of carbon dioxide	uncertainty
313	0.104	0.977	0.016
313	0.187	0.981	0.016
313	0.263	0.982	0.016
313	0.34	0.985	0.015
313	0.423	0.992	0.008
313	0.477	0.992	0.008
313	0.57	0.993	0.007
313	0.683	0.998	0.002
313	0.76	0.995	0.005
323	0.091	0.974	0.016
323	0.119	0.982	0.016
323	0.149	0.984	0.016
323	0.222	0.986	0.014
323	0.282	0.991	0.009
323	0.339	0.992	0.008
323	0.412	0.992	0.008
323	0.51	0.994	0.006
323	0.606	0.996	0.004
323	0.673	0.992	0.008
323	0.755	0.993	0.007
333	0.102	0.968	0.016
333	0.159	0.975	0.016
333	0.211	0.983	0.016
333	0.261	0.987	0.013
333	0.333	0.989	0.011
333	0.385	0.992	0.008
333	0.42	0.991	0.009
333	0.515	0.993	0.007
333	0.611	0.993	0.007
333	0.703	0.994	0.006
333	0.744	0.989	0.011
