Measured thermophysical data. Measurement and correlation of antifungal drugs solubility in pure supercritical CO2 using semiempirical models
Source: J. Chem. Thermodyn., 2011, 10.1016/j.jct.2011.02.020
Compound 1: carbon dioxide, CO2, InChI=1S/CO2/c2-1-3
Compound 2: 1-((2-chlorophenyl)diphenylmethyl)-1H-imidazole, C22H17ClN2, InChI=1S/C22H17ClN2/c23-21-14-8-7-13-20(21)22(25-16-15-24-17-25,18-9-3-1-4-10-18)19-11-5-2-6-12-19/h1-17H
Compound 3: ketoconazole, C26H28Cl2N4O4, InChI=1S/C26H28Cl2N4O4/c1-19(33)31-10-12-32(13-11-31)21-3-5-22(6-4-21)34-15-23-16-35-26(36-23,17-30-9-8-29-18-30)24-7-2-20(27)14-25(24)28/h2-9,14,18,23H,10-13,15-17H2,1H3/t23-,26-/m0/s1

System: carbon dioxide + ketoconazole; phases: Fluid (supercritical or subcritical phases), Crystal
Property: Mole fraction of ketoconazole (Fluid (supercritical or subcritical phases)); method: UV-Vis spectrophotometer calibration data
Temperature, K	Pressure, kPa	Mole fraction of ketoconazole	uncertainty
308	12200	1.6e-06	2e-07
308	15200	3.3e-06	5e-07
308	18200	4.6e-06	1e-06
308	21300	5.8e-06	1.5e-06
308	24300	7.1e-06	2e-06
308	27400	8.2e-06	2.6e-06
308	30400	9.4e-06	3.1e-06
308	33400	1.08e-05	3.4e-06
308	35500	1.35e-05	3.6e-06
318	12200	1.1e-06	3e-07
318	15200	4.9e-06	6e-07
318	18200	8.6e-06	1.2e-06
318	21300	1.26e-05	2e-06
318	24300	1.63e-05	2.8e-06
318	27400	2.03e-05	3.8e-06
318	30400	2.39e-05	4.5e-06
318	33400	2.75e-05	5.5e-06
318	35500	2.99e-05	6.1e-06
328	12200	5e-07	3e-07
328	15200	4.5e-06	6e-07
328	18200	1.14e-05	1.4e-06
328	21300	1.95e-05	2.6e-06
328	24300	2.81e-05	4.3e-06
328	27400	3.89e-05	5.9e-06
328	30400	4.64e-05	7.7e-06
328	33400	5.65e-05	9.8e-06
328	35500	6.4e-05	1.2e-05
338	12200	7e-07	2e-07
338	15200	3.5e-06	6e-07
338	18200	1.3e-05	1.6e-06
338	21300	2.66e-05	3.3e-06
338	24300	4.61e-05	5.7e-06
338	27400	6.12e-05	8.1e-06
338	30400	8.16e-05	1.15e-05
338	33400	0.0001028	1.51e-05
338	35500	0.0001268	1.78e-05
348	12200	8e-07	1e-07
348	15200	2.1e-06	6e-07
348	18200	1.25e-05	1.7e-06
348	21300	2.98e-05	3.7e-06
348	24300	5.29e-05	6.3e-06
348	27400	8.3e-05	1.04e-05
348	30400	0.0001173	1.5e-05
348	33400	0.0001565	1.99e-05
348	35500	0.0001745	2.13e-05

System: carbon dioxide + 1-((2-chlorophenyl)diphenylmethyl)-1H-imidazole; phases: Fluid (supercritical or subcritical phases), Crystal
Property: Mole fraction of 1-((2-chlorophenyl)diphenylmethyl)-1H-imidazole (Fluid (supercritical or subcritical phases)); method: UV-Vis spectrophotometer calibration data
Temperature, K	Pressure, kPa	Mole fraction of 1-((2-chlorophenyl)diphenylmethyl)-1H-imidazole	uncertainty
308	12200	4.3e-06	6e-07
308	15200	6.8e-06	8e-07
308	18200	9.2e-06	1.1e-06
308	21300	1.16e-05	1.5e-06
308	24300	1.38e-05	1.9e-06
308	27400	1.63e-05	2.5e-06
308	30400	1.83e-05	2.9e-06
308	33400	2.08e-05	3.3e-06
308	35500	2.24e-05	3.6e-06
318	12200	2.3e-06	5e-07
318	15200	6.5e-06	8e-07
318	18200	1.08e-05	1.2e-06
318	21300	1.54e-05	1.8e-06
318	24300	1.98e-05	2.4e-06
318	27400	2.48e-05	3.1e-06
318	30400	2.91e-05	3.8e-06
318	33400	3.27e-05	4.5e-06
318	35500	3.58e-05	5.1e-06
328	12200	7e-07	3e-07
328	15200	4.6e-06	7e-07
328	18200	1.07e-05	1.2e-06
328	21300	1.79e-05	2e-06
328	24300	2.55e-05	3e-06
328	27400	3.24e-05	3.7e-06
328	30400	4.07e-05	4.9e-06
328	33400	4.94e-05	6.3e-06
328	35500	5.58e-05	7.3e-06
338	12200	3e-07	2e-07
338	15200	2.7e-06	5e-07
338	18200	9.1e-06	1.1e-06
338	21300	1.84e-05	2.1e-06
338	24300	3.01e-05	3.4e-06
338	27400	3.67e-05	4.2e-06
338	30400	5.09e-05	6.2e-06
338	33400	6.57e-05	8.2e-06
338	35500	7.73e-05	9.8e-06
348	12200	2e-07	1e-07
348	15200	1.8e-06	3e-07
348	18200	7.7e-06	1e-06
348	21300	1.78e-05	2.1e-06
348	24300	3.27e-05	3.6e-06
348	27400	4.45e-05	5.4e-06
348	30400	6.74e-05	8.1e-06
348	33400	8.95e-05	1.09e-05
348	35500	0.0001066	1.29e-05
