Measured thermophysical data. Critical parameters for isobutane determined by the image analysis
Source: J. Chem. Thermodyn., 2006, 10.1016/j.jct.2006.03.008
Compound 1: 2-methylpropane, C4H10, InChI=1S/C4H10/c1-4(2)3/h4H,1-3H3

System: 2-methylpropane; phases: Liquid, Gas
Property: Critical pressure, kPa (Liquid); method: Direct measurement
Critical pressure, kPa	uncertainty
3639	4.8

System: 2-methylpropane; phases: Liquid, Gas
Property: Critical temperature, K (Liquid); method: Visual observation in an unstirred cell
Critical temperature, K	uncertainty
407.885	0.062

System: 2-methylpropane; phases: Liquid, Gas
Property: Critical density, kg/m3 (Liquid); method: Derived from PVT data
Critical density, kg/m3	uncertainty
227.5	3.1

System: 2-methylpropane; phases: Liquid, Gas
Property: Vapor or sublimation pressure, kPa (Liquid); method: Closed cell (Static) method
Temperature, K	Vapor or sublimation pressure, kPa	uncertainty
310	488.7	1.8
310	489.6	1.8
310	489.7	1.8
310	489.4	1.8
310	489	1.8
310	489.5	1.8
405	3468.3	5.4
405	3468.3	5.4
405	3468.4	5.4
405	3468.9	5.4
405	3468.6	5.4
405	3468.8	5.4
405	3469.3	5.4
406	3526.7	5.5
406	3526.6	5.5
406	3526.8	5.5
406	3527.2	5.5
406	3527.1	5.5
406	3527	5.5
407	3584.8	5.6
407	3585.2	5.6
407	3585.3	5.6
407	3585.5	5.6
407	3586	5.6
407	3585.2	5.6
407	3586.4	5.6
407	3585.9	5.6
407	3585.2	5.6
407.5	3618.6	5.6
407.5	3618.9	5.6
407.5	3618.9	5.6
407.5	3618.8	5.6
407.5	3619	5.6
407.5	3618.9	5.6
407.5	3619.1	5.6
407.5	3619.1	5.6
407.5	3619.5	5.6

System: 2-methylpropane; phases: Fluid (supercritical or subcritical phases)
Property: Mass density, kg/m3 (Fluid (supercritical or subcritical phases)); method: Bellows volumetry
Temperature, K	Pressure, kPa	Mass density, kg/m3	uncertainty
405	3464.7	185	15.1
405	3467.3	199.9	15.1
405	3468	200	15.1
405	3468.4	200	15.1
405	3469.9	264.9	50.8
405	3467.3	200	15.1
406	3523.7	184.9	60.1
406	3525.7	199.9	60.1
406	3528.1	264.9	60.1
407	3582.1	185.4	60.1
407	3585	200.3	60.1
407.5	3613.8	185	13.3
407.5	3617.5	199.9	13.3
407.5	3617.7	200.4	13
407.5	3620.6	265	38.5
407.89	3632.3	184.9	9.4
407.89	3637.6	200.1	20.4
407.89	3640.5	240	21.4
407.89	3640.6	250	22.1
407.89	3640.8	250.2	22
407.89	3640.9	241.4	30.4
407.89	3641.3	250.5	31
407.89	3644.5	263.7	21.2
407.89	3644.6	264.9	16.1
408	3635.8	184.1	6.8
408	3638.1	184.9	9
408	3643.7	200	22
408	3644.2	200.4	19.5
408	3645.6	220	18.9
408	3646.4	227.5	18.9
408	3646.6	240	19
408	3646.8	220.1	18.7
408	3647.4	249.9	24.2
408	3652.4	265.5	10.6
409	3692.1	184.7	5.5
409	3692.8	184.9	5.8
409	3702.2	200	7.4
409	3702.8	200.4	7.3
409	3708.3	219.8	12
409	3708.5	219.9	12
409	3708.9	220.4	12
409	3709.7	224.2	12
409	3710.5	227.4	11
409	3713.6	239.9	10.6
409	3717.7	250	5.5
409	3718.4	250.4	5.5
409	3729	265	4.9
410	3745.3	185	4.5
410	3757.5	200	4.7
410	3758.2	200	4.7
410	3764.3	210	6.1
410	3769.4	220	6.8
410	3772.2	227.4	6.8
410	3772.5	228.1	6.8
410	3779.4	240	5.7
410	3785.9	250	3.9
410	3786.3	250.4	3.9
410	3802.3	265	3.5
410	3802.8	265.2	3.4
