Measured thermophysical data. Volumetric properties of dichloromethane with aniline or nitrobenzene at different temperatures: A theoretical and experimental study
Source: J. Chem. Thermodyn., 2009, 10.1016/j.jct.2008.08.013
Compound 1: dichloromethane, CH2Cl2, InChI=1S/CH2Cl2/c2-1-3/h1H2, purity 99.8%
Compound 2: aniline, C6H7N, InChI=1S/C6H7N/c7-6-4-2-1-3-5-6/h1-5H,7H2, purity 99.5%
Compound 3: nitrobenzene, C6H5NO2, InChI=1S/C6H5NO2/c8-7(9)6-4-2-1-3-5-6/h1-5H, purity 99.8%

System: dichloromethane; phases: Liquid
Fixed: Pressure, kPa = 101.325
Property: Mass density, kg/m3 (Liquid); method: Vibrating tube method
Temperature, K	Mass density, kg/m3	uncertainty
288.15	1334.81	0.18
293.15	1325.67	0.18
298.15	1316.58	0.17
303.15	1307.9	0.17

System: aniline; phases: Liquid
Fixed: Pressure, kPa = 101.325
Property: Mass density, kg/m3 (Liquid); method: Vibrating tube method
Temperature, K	Mass density, kg/m3	uncertainty
288.15	1025.93	0.1
293.15	1021.04	0.09
298.15	1017.1	0.09
303.15	1012.84	0.09

System: nitrobenzene; phases: Liquid
Fixed: Pressure, kPa = 101.325
Property: Mass density, kg/m3 (Liquid); method: Vibrating tube method
Temperature, K	Mass density, kg/m3	uncertainty
288.15	1211.53	0.13
293.15	1202.61	0.13
298.15	1198.01	0.12
303.15	1193.5	0.12

System: aniline + dichloromethane; phases: Liquid
Fixed: Pressure, kPa = 101
Property: Mass density, kg/m3 (Liquid); method: Vibrating tube method
Mole fraction of dichloromethane	Temperature, K	Mass density, kg/m3	uncertainty
0.0218	288.15	1030.69	0.1
0.0218	293.15	1025.78	0.1
0.0218	298.15	1021.79	0.1
0.0218	303.15	1017.43	0.09
0.1003	288.15	1048.42	0.1
0.1003	293.15	1043.36	0.1
0.1003	298.15	1039.19	0.1
0.1003	303.15	1034.68	0.1
0.2004	288.15	1072.39	0.11
0.2004	293.15	1067.17	0.11
0.2004	298.15	1062.72	0.1
0.2004	303.15	1057.97	0.1
0.2507	288.15	1085.02	0.11
0.2507	293.15	1079.67	0.11
0.2507	298.15	1075.06	0.11
0.2507	303.15	1070.21	0.1
0.2992	288.15	1097.6	0.11
0.2992	293.15	1092.14	0.11
0.2992	298.15	1087.38	0.11
0.2992	303.15	1082.37	0.11
0.3502	288.15	1111.25	0.12
0.3502	293.15	1105.64	0.11
0.3502	298.15	1100.68	0.11
0.3502	303.15	1095.52	0.11
0.3985	288.15	1124.6	0.12
0.3985	293.15	1118.83	0.12
0.3985	298.15	1113.68	0.12
0.3985	303.15	1108.38	0.11
0.4998	288.15	1153.99	0.13
0.4998	293.15	1147.9	0.13
0.4998	298.15	1142.28	0.12
0.4998	303.15	1136.65	0.12
0.5529	288.15	1170.24	0.13
0.5529	293.15	1164	0.13
0.5529	298.15	1158.09	0.13
0.5529	303.15	1152.21	0.13
0.6023	288.15	1185.94	0.14
0.6023	293.15	1179.46	0.14
0.6023	298.15	1173.3	0.13
0.6023	303.15	1167.19	0.13
0.6504	288.15	1201.8	0.14
0.6504	293.15	1195.11	0.14
0.6504	298.15	1188.66	0.14
0.6504	303.15	1182.34	0.13
0.6992	288.15	1218.48	0.15
0.6992	293.15	1211.56	0.14
0.6992	298.15	1204.8	0.14
0.6992	303.15	1198.22	0.14
0.7506	288.15	1236.69	0.15
0.7506	293.15	1229.48	0.15
0.7506	298.15	1222.36	0.15
0.7506	303.15	1215.59	0.14
0.8003	288.15	1254.94	0.16
0.8003	293.15	1247.49	0.16
0.8003	298.15	1239.98	0.15
0.8003	303.15	1232.77	0.15
0.8997	288.15	1293.47	0.17
0.8997	293.15	1285.36	0.17
0.8997	298.15	1277.01	0.16
0.8997	303.15	1269.11	0.16
0.9298	288.15	1305.66	0.17
0.9298	293.15	1297.3	0.17
0.9298	298.15	1288.69	0.17
0.9298	303.15	1280.69	0.16
0.9505	288.15	1314.14	0.18
0.9505	293.15	1305.64	0.17
0.9505	298.15	1296.8	0.17
0.9505	303.15	1288.52	0.17
0.9799	288.15	1326.37	0.18
0.9799	293.15	1317.62	0.18
0.9799	298.15	1308.49	0.17
0.9799	303.15	1299.98	0.17

System: dichloromethane + nitrobenzene; phases: Liquid
Fixed: Pressure, kPa = 101
Property: Mass density, kg/m3 (Liquid); method: Vibrating tube method
Mole fraction of dichloromethane	Temperature, K	Mass density, kg/m3	uncertainty
0.021	288.15	1213.16	0.13
0.021	293.15	1204.27	0.13
0.021	298.15	1199.65	0.12
0.021	303.15	1195.1	0.12
0.1053	288.15	1219.99	0.13
0.1053	293.15	1211.21	0.13
0.1053	298.15	1206.52	0.12
0.1053	303.15	1201.87	0.12
0.2003	288.15	1228.35	0.14
0.2003	293.15	1219.76	0.13
0.2003	298.15	1214.95	0.13
0.2003	303.15	1210.13	0.13
0.2499	288.15	1233.02	0.14
0.2499	293.15	1224.51	0.13
0.2499	298.15	1219.62	0.13
0.2499	303.15	1214.69	0.13
0.3003	288.15	1238.01	0.14
0.3003	293.15	1229.63	0.14
0.3003	298.15	1224.61	0.13
0.3003	303.15	1219.55	0.13
0.3521	288.15	1243.35	0.14
0.3521	293.15	1235.09	0.14
0.3521	298.15	1229.95	0.13
0.3521	303.15	1224.73	0.13
0.4025	288.15	1248.78	0.14
0.4025	293.15	1240.64	0.14
0.4025	298.15	1235.37	0.14
0.4025	303.15	1229.98	0.13
0.4492	288.15	1254.01	0.15
0.4492	293.15	1245.99	0.14
0.4492	298.15	1240.56	0.14
0.4492	303.15	1235.01	0.14
0.4975	288.15	1259.65	0.15
0.4975	293.15	1251.71	0.14
0.4975	298.15	1246.14	0.14
0.4975	303.15	1240.37	0.14
0.5512	288.15	1266.13	0.15
0.5512	293.15	1258.32	0.15
0.5512	298.15	1252.51	0.14
0.5512	303.15	1246.51	0.14
0.5995	288.15	1272.2	0.15
0.5995	293.15	1264.47	0.15
0.5995	298.15	1258.48	0.15
0.5995	303.15	1252.21	0.14
0.6495	288.15	1278.7	0.16
0.6495	293.15	1271.04	0.15
0.6495	298.15	1264.8	0.15
0.6495	303.15	1258.26	0.15
0.6999	288.15	1285.45	0.16
0.6999	293.15	1277.91	0.16
0.6999	298.15	1271.39	0.15
0.6999	303.15	1264.55	0.15
0.7496	288.15	1292.42	0.16
0.7496	293.15	1284.93	0.16
0.7496	298.15	1278.12	0.16
0.7496	303.15	1270.91	0.15
0.799	288.15	1299.65	0.16
0.799	293.15	1292.18	0.16
0.799	298.15	1285	0.16
0.799	303.15	1277.46	0.16
0.8501	288.15	1307.44	0.17
0.8501	293.15	1299.97	0.17
0.8501	298.15	1292.47	0.16
0.8501	303.15	1284.49	0.16
0.8975	288.15	1315.12	0.17
0.8975	293.15	1307.6	0.17
0.8975	298.15	1299.69	0.17
0.8975	303.15	1291.27	0.16
0.9798	288.15	1329.58	0.18
0.9798	293.15	1321.91	0.17
0.9798	298.15	1313.24	0.17
0.9798	303.15	1303.98	0.17
