Measured thermophysical data. (Liquid + liquid) equilibria of ternary and quaternary systems containing n-hexane, toluene, m-xylene, propanol, sulfolane, and water at T = 303.15 K
Source: J. Chem. Thermodyn., 2007, 10.1016/j.jct.2006.12.008
Compound 1: hexane, C6H14, InChI=1S/C6H14/c1-3-5-6-4-2/h3-6H2,1-2H3, purity 99%
Compound 2: toluene, C7H8, InChI=1S/C7H8/c1-7-5-3-2-4-6-7/h2-6H,1H3, purity 99.5%
Compound 3: 1,3-dimethylbenzene, C8H10, InChI=1S/C8H10/c1-7-4-3-5-8(2)6-7/h3-6H,1-2H3, purity 99.5%
Compound 4: sulfolane, C4H8O2S, InChI=1S/C4H8O2S/c5-7(6)3-1-2-4-7/h1-4H2, purity 99.5%

System: toluene + hexane + sulfolane; phases: Liquid mixture 1, Liquid mixture 2
Fixed: Pressure, kPa = 101
Fixed: Temperature, K = 303.15
Property: Mass fraction of sulfolane (Liquid mixture 1); method: Chromatography
Property: Mass fraction of sulfolane (Liquid mixture 2); method: Chromatography
Property: Mass fraction of toluene (Liquid mixture 2); method: Chromatography
Mass fraction of toluene	Mass fraction of sulfolane	uncertainty	Mass fraction of sulfolane	uncertainty	Mass fraction of toluene	uncertainty
0.275	0.024	0.01	0.911	0.007	0.076	
0.336	0.009	0.009	0.895	0.007	0.091	
0.437	0.018	0.01	0.842	0.006	0.14	
0.482	0.027	0.01	0.797	0.006	0.181	
0.521	0.01	0.01	0.794	0.006	0.184	

System: 1,3-dimethylbenzene + hexane + sulfolane; phases: Liquid mixture 1, Liquid mixture 2
Fixed: Pressure, kPa = 101
Fixed: Temperature, K = 303.15
Property: Mass fraction of sulfolane (Liquid mixture 1); method: Chromatography
Property: Mass fraction of sulfolane (Liquid mixture 2); method: Chromatography
Property: Mass fraction of 1,3-dimethylbenzene (Liquid mixture 2); method: Chromatography
Mass fraction of 1,3-dimethylbenzene	Mass fraction of sulfolane	uncertainty	Mass fraction of sulfolane	uncertainty	Mass fraction of 1,3-dimethylbenzene	uncertainty
0.336	0.001	0.001	0.932	0.007	0.057	
0.444	0.005	0.002	0.904	0.007	0.084	
0.476	0.007	0.002	0.896	0.007	0.091	
0.539	0.012	0.002	0.87	0.007	0.117	
0.58	0.015	0.002	0.851	0.007	0.134	
