Measured thermophysical data. Density, viscosity, and saturated vapor pressure of ethyl trifluoroacetate
Source: J. Chem. Thermodyn., 2015, 10.1016/j.jct.2015.02.022
Compound 1: ethyl trifluoroacetate, C4H5F3O2, InChI=1S/C4H5F3O2/c1-2-9-3(8)4(5,6)7/h2H2,1H3, purity 99.65%
Compound 2: methanol, CH4O, InChI=1S/CH4O/c1-2/h2H,1H3, purity 99.98%

System: ethyl trifluoroacetate; phases: Liquid
Property: Refractive index (Na D-line) (Liquid); method: Standard Abbe refractometry
Temperature, K	Pressure, kPa	Refractive index (Na D-line)	uncertainty
293.15	101.325	1.3086	0.0007

System: ethyl trifluoroacetate; phases: Liquid, Gas
Property: Vapor or sublimation pressure, kPa (Liquid); method: Closed cell (Static) method
Temperature, K	Vapor or sublimation pressure, kPa	uncertainty
293.35	17.93	0.12
298.3	22.86	0.15
300.75	25.36	0.17
303.35	28.45	0.19
305.85	31.2	0.21
308.35	34.13	0.23
310.85	38	0.25
313.35	42.3	0.28
315.85	47.2	0.31
318.4	52	0.35
320.97	57.2	0.38
323.45	63.2	0.42
326.15	70.64	0.47
328.75	77.9	0.52
331.45	86.5	0.57
334.05	94.15	0.62
335.25	99.92	0.66
335.65	101.33	0.67

System: ethyl trifluoroacetate; phases: Liquid
Fixed: Pressure, kPa = 101.325
Property: Mass density, kg/m3 (Liquid); method: Pycnometric method
Temperature, K	Mass density, kg/m3	uncertainty
278.08	1218.9	0.8
285.15	1205.9	0.8
289.23	1197.6	0.8
293.68	1188.3	0.8
298.84	1179	0.8
303.86	1168	0.8
307.89	1160.9	0.8
312.65	1151.4	0.8
317.43	1142.2	0.8
322.5	1131.3	0.8

System: ethyl trifluoroacetate; phases: Liquid
Fixed: Pressure, kPa = 101.325
Property: Viscosity, Pa*s (Liquid); method: Capillary tube (Ostwald; Ubbelohde) method
Temperature, K	Viscosity, Pa*s	uncertainty
293.45	0.0004635	9.8e-06
296.02	0.0004506	9.5e-06
298.63	0.0004356	9.2e-06
301.19	0.0004234	8.9e-06
303.75	0.0004107	8.7e-06
306.3	0.0003986	8.4e-06
308.85	0.0003881	8.2e-06
311.33	0.0003775	8e-06
313.93	0.0003674	7.8e-06
316.43	0.0003581	7.6e-06
318.96	0.0003497	7.4e-06
321.63	0.0003399	7.2e-06
324.15	0.0003314	7.1e-06
326.69	0.000323	7e-06
329.16	0.0003153	6.7e-06
331.64	0.0003075	6.6e-06
334.32	0.0003009	6.4e-06

System: methanol; phases: Liquid
Fixed: Pressure, kPa = 101.325
Property: Viscosity, Pa*s (Liquid); method: Capillary tube (Ostwald; Ubbelohde) method
Temperature, K	Viscosity, Pa*s	uncertainty
302.45	0.000513	1.1e-05
313.5	0.000443	9e-06
323.55	0.000386	8e-06
333.85	0.000345	7e-06

System: methanol; phases: Liquid, Gas
Property: Vapor or sublimation pressure, kPa (Liquid); method: Closed cell (Static) method
Temperature, K	Vapor or sublimation pressure, kPa	uncertainty
293.35	13.54	0.09
303.35	22.05	0.15
310.85	31.07	0.21
320.97	49.45	0.33
331.45	77.05	0.51
335.95	95.83	0.64
