Measured thermophysical data. One- and two-phase isochoric heat capacities and saturated densities of 2-propanol in the critical and supercritical regions
Source: J. Chem. Thermodyn., 2019, 10.1016/j.jct.2019.03.023
Compound 1: propan-2-ol, C3H8O, InChI=1S/C3H8O/c1-3(2)4/h3-4H,1-2H3, purity 99.8%

System: propan-2-ol; phases: Liquid, Gas
Property: Critical temperature, K (Liquid); method: Derived from PVT data
Critical temperature, K	uncertainty
508.72	0.51

System: propan-2-ol; phases: Liquid, Gas
Property: Critical density, kg/m3 (Liquid); method: Derived from PVT data
Critical density, kg/m3	uncertainty
268.82	5.35

System: propan-2-ol; phases: Fluid (supercritical or subcritical phases)
Property: Molar heat capacity at constant volume, J/K/mol (Fluid (supercritical or subcritical phases)); method: Vacuum adiabatic calorimetry
Mass density, kg/m3	Temperature, K	Molar heat capacity at constant volume, J/K/mol	uncertainty
697.69	317.44	170.85014186	5.1080767
697.69	317.57	172.41261238	5.16817172
697.69	317.7	172.71308748	5.16817172
697.69	317.95	168.14586596	5.04798168
697.69	318.07	168.14586596	5.04798168
697.69	318.2	171.69147214	5.16817172
697.69	318.32	171.33090202	5.16817172
697.69	318.45	173.9750829	5.22826674
697.69	318.57	170.24919166	5.1080767
697.69	318.7	175.23707832	5.28836176
697.69	331.87	192.0035889	5.76912192
697.69	332.06	191.34254368	5.76912192
697.69	332.12	189.47959806	5.7090269
697.69	332.24	188.81855284	5.64893188
697.69	332.36	187.73684248	5.64893188
697.69	332.48	189.96035822	5.7090269
697.69	332.6	190.26083332	5.7090269
697.69	332.72	187.73684248	5.64893188
697.69	332.85	192.36415902	5.76912192
697.69	333.03	188.6983628	5.64893188
697.69	340.8	195.18862496	5.88931196
697.69	340.92	192.6045391	5.76912192
697.69	341.04	196.99147556	5.88931196
697.69	341.16	193.32567934	5.82921694
697.69	341.28	197.83280584	5.94940698
697.69	341.4	196.15014528	5.88931196
697.69	341.52	194.88814986	5.82921694
697.69	341.64	195.12852994	5.88931196
697.69	341.76	196.2102403	5.88931196
697.69	355.67	207.327819	6.24988208
697.69	355.78	211.29409032	6.37007212
697.69	355.9	211.89504052	6.37007212
697.69	356.02	209.49123972	6.3099771
697.69	356.13	211.11380526	6.37007212
697.69	356.25	212.67627578	6.37007212
697.69	356.37	211.77485048	6.37007212
697.69	356.48	211.95513554	6.37007212
697.69	370.24	222.11119392	6.67054722
697.69	370.36	222.41166902	6.67054722
697.69	370.47	220.42853336	6.6104522
697.69	370.58	219.76748814	6.6104522
697.69	370.7	222.0510989	6.67054722
697.69	370.81	222.29147898	6.67054722
697.69	370.92	220.60881842	6.6104522
697.69	371.04	221.57033874	6.67054722
697.69	378.45	221.99100388	6.67054722
697.69	378.57	220.66891344	6.6104522
697.69	378.68	223.19290428	6.73064224
697.69	378.79	223.37318934	6.73064224
697.69	378.9	220.96938854	6.6104522
697.69	379.01	222.41166902	6.67054722
697.69	379.24	222.71214412	6.67054722
697.69	379.35	221.32995866	6.67054722
697.69	379.46	221.99100388	6.67054722
697.69	379.57	220.5487234	6.6104522
697.69	379.68	222.53185906	6.67054722
697.69	379.79	221.81071882	6.67054722
697.69	379.9	222.53185906	6.67054722
697.69	380.02	224.03423456	6.73064224
697.69	380.13	223.07271424	6.67054722
697.69	380.24	222.0510989	6.67054722
697.69	380.35	223.97413954	6.73064224
697.69	380.35	182.80905084	5.46864682
697.69	380.42	185.51332674	5.58883686
697.69	380.56	185.6936118	5.58883686
697.69	380.68	187.43636738	5.64893188
697.69	380.8	187.07579726	5.64893188
697.69	380.91	187.7969375	5.64893188
697.69	381.02	186.294562	5.58883686
697.69	381.13	184.61190144	5.52874184
697.69	381.24	185.3931367	5.58883686
697.69	381.35	184.4917114	5.52874184
697.69	381.46	184.01095124	5.52874184
697.69	381.57	184.67199646	5.52874184
697.69	381.69	184.97247156	5.52874184
581.06	447.55	250.8967085	7.5118775
581.06	447.75	250.95680352	7.5118775
581.06	447.85	250.95680352	7.5118775
581.06	447.95	253.06012922	7.57197252
581.06	448.05	255.1033599	7.63206754
581.06	448.15	251.07699356	7.5118775
581.06	448.25	251.07699356	7.5118775
581.06	448.35	253.18031926	7.63206754
581.06	448.54	253.06012922	7.57197252
581.06	448.64	255.16345492	7.63206754
581.06	448.74	253.12022424	7.57197252
581.06	448.84	251.13708858	7.5118775
581.06	448.94	253.18031926	7.63206754
581.06	449.04	253.24041428	7.63206754
581.06	449.14	255.28364496	7.69216256
581.06	449.24	253.3005093	7.63206754
581.06	449.34	253.3005093	7.63206754
581.06	449.44	253.3005093	7.63206754
581.06	449.63	251.55775372	7.57197252
581.06	449.73	253.6009844	7.63206754
581.06	449.83	255.7043101	7.69216256
581.06	449.93	255.7043101	7.69216256
581.06	450.03	251.61784874	7.57197252
581.06	450.13	249.63471308	7.5118775
581.06	450.23	255.82450014	7.69216256
581.06	450.33	253.78126946	7.63206754
581.06	450.43	253.78126946	7.63206754
581.06	450.52	253.84136448	7.63206754
581.06	450.62	253.54088938	7.63206754
581.06	450.72	251.85822882	7.57197252
581.06	450.92	253.72117444	7.63206754
581.06	451.81	247.95205252	7.45178248
581.06	451.06	251.61784874	7.57197252
581.06	451.16	252.93993918	7.57197252
581.06	451.26	249.63471308	7.5118775
581.06	451.36	249.63471308	7.5118775
581.06	451.46	249.6948081	7.5118775
581.06	451.56	249.6948081	7.5118775
581.06	451.66	251.7981338	7.57197252
581.06	451.75	250.2957583	7.5118775
581.06	451.83	249.9952832	7.5118775
581.06	451.83	186.77532216	5.58883686
581.06	451.86	181.84753052	5.46864682
581.06	451.91	175.1769833	5.28836176
581.06	451.95	179.26344466	5.4085518
581.06	452.01	174.51593808	5.22826674
581.06	452.05	180.70572514	5.4085518
581.06	452.1	178.12163928	5.34845678
581.06	452.15	174.33565302	5.22826674
581.06	452.2	178.36201936	5.34845678
581.06	452.25	175.89812354	5.28836176
343.1	399.51	235.93304852	7.09121236
343.1	399.72	235.93304852	7.09121236
343.1	399.83	239.23827462	7.2114024
343.1	399.94	242.54350072	7.27149742
343.1	400.04	236.05323856	7.09121236
343.1	400.15	239.35846466	7.2114024
343.1	400.25	239.41855968	7.2114024
343.1	400.36	239.41855968	7.2114024
343.1	400.46	236.23352362	7.09121236
343.1	400.57	239.53874972	7.2114024
343.1	501.85	312.61429404	9.37482312
343.1	501.94	317.72237074	9.55510818
343.1	502.04	315.1983799	9.43491814
343.1	502.13	309.66963806	9.3147281
343.1	502.22	314.53733468	9.43491814
343.1	502.32	312.25372392	9.37482312
343.1	502.41	317.66227572	9.55510818
343.1	502.5	312.07343886	9.37482312
343.1	502.6	310.3907783	9.3147281
343.1	505.77	323.67177772	9.73539324
343.1	505.86	325.29434326	9.79548826
343.1	505.96	323.97225282	9.73539324
343.1	506.05	326.25586358	9.79548826
343.1	506.14	328.35918928	9.85558328
343.1	506.24	327.03709884	9.79548826
343.1	506.33	326.43614864	9.79548826
343.1	506.42	329.9216598	9.9156783
343.1	506.52	328.29909426	9.85558328
343.1	506.61	329.98175482	9.9156783
343.1	506.8	329.08032952	9.85558328
343.1	506.89	330.28222992	9.9156783
343.1	506.98	333.8278361	10.03586834
343.1	507.08	331.96489048	9.97577332
343.1	507.17	333.88793112	10.03586834
343.1	507.26	336.65230204	10.09596336
343.1	507.36	338.57534268	10.15605838
343.1	507.45	335.69078172	10.09596336
343.1	507.54	337.79410742	10.15605838
343.1	507.65	339.77724308	10.2161534
343.1	507.82	338.75562774	10.15605838
343.1	507.91	340.97914348	10.2161534
343.1	507.95	342.541614	10.27624842
343.1	507.95	212.4358957	6.37007212
343.1	508.01	205.5249684	6.18978706
343.1	508.1	191.64301878	5.76912192
343.1	508.19	187.97722256	5.64893188
343.1	508.29	181.06629526	5.46864682
343.1	508.38	178.00144924	5.34845678
343.1	508.47	175.95821856	5.28836176
343.1	508.56	177.52068908	5.34845678
343.1	508.66	178.00144924	5.34845678
343.1	508.75	175.95821856	5.28836176
343.1	508.84	176.43897872	5.28836176
343.1	510.05	174.69622314	5.22826674
343.1	510.14	178.42211438	5.34845678
343.1	510.24	185.87389686	5.58883686
343.1	510.33	182.14800562	5.46864682
343.1	510.42	178.4822094	5.34845678
343.1	510.52	174.75631816	5.22826674
343.1	510.61	182.20810064	5.46864682
343.1	510.7	185.93399188	5.58883686
343.1	510.79	177.03992892	5.28836176
329.2	314.29	177.46059406	5.34845678
329.2	314.52	182.80905084	5.46864682
329.2	314.8	184.67199646	5.52874184
329.2	315.05	181.4869604	5.46864682
329.2	315.3	177.8812592	5.34845678
329.2	315.42	176.25869366	5.28836176
329.2	315.61	174.8765082	5.22826674
329.2	315.8	178.60239944	5.34845678
329.2	341.91	203.1211676	6.12969204
329.2	342.08	202.2197423	6.06959702
329.2	342.19	203.54183274	6.12969204
329.2	342.32	207.26772398	6.24988208
329.2	342.49	201.318317	6.06959702
329.2	342.67	203.7221178	6.12969204
329.2	342.79	202.76059748	6.06959702
329.2	342.91	201.6187921	6.06959702
329.2	343.03	204.08268792	6.12969204
329.2	369.05	225.89718018	6.79073726
329.2	369.16	220.00786822	6.6104522
329.2	369.28	231.30573198	6.97102232
329.2	369.39	222.83233416	6.67054722
329.2	369.5	225.9572752	6.79073726
329.2	369.67	223.5534744	6.73064224
329.2	369.84	221.7506238	6.67054722
329.2	369.96	221.02948356	6.6104522
329.2	370.07	219.46701304	6.6104522
329.2	391.32	243.384831	7.33159244
329.2	391.53	248.85347782	7.45178248
329.2	391.54	243.44492602	7.33159244
329.2	391.65	246.93043718	7.39168746
329.2	391.76	235.69266844	7.09121236
329.2	391.87	241.16131526	7.27149742
329.2	391.98	242.54350072	7.27149742
329.2	392.09	244.10597124	7.33159244
329.2	392.2	243.20454594	7.33159244
329.2	416.55	258.82925114	7.75225758
329.2	416.65	260.09124656	7.8123526
329.2	416.76	252.51927404	7.57197252
329.2	416.86	257.98792086	7.75225758
329.2	416.97	255.76440512	7.69216256
329.2	417.08	261.47343202	7.87244762
329.2	417.18	252.93993918	7.57197252
329.2	417.29	253.84136448	7.63206754
329.2	417.39	259.73067644	7.8123526
329.2	417.5	261.17295692	7.8123526
329.2	442.12	262.9157125	7.87244762
329.2	442.23	265.86036848	7.99263766
329.2	442.33	272.5309157	8.17292272
329.2	442.43	265.68008342	7.99263766
329.2	442.54	266.76179378	7.99263766
329.2	442.64	267.60312406	8.05273268
329.2	442.74	270.1271149	8.1128277
329.2	442.85	265.86036848	7.99263766
329.2	463.48	270.30739996	8.1128277
329.2	463.58	271.6294904	8.17292272
329.2	463.78	270.30739996	8.1128277
329.2	463.83	274.6342414	8.23301774
329.2	463.97	279.441843	8.4133028
329.2	464.18	278.72070276	8.35320778
329.2	464.27	280.16298324	8.4133028
329.2	464.42	278.2399426	8.35320778
329.2	464.97	277.3385173	8.35320778
329.2	465.34	278.5404177	8.35320778
329.2	465.27	272.77129578	8.17292272
329.2	463.68	275.35538164	8.29311276
329.2	464.18	277.0380422	8.29311276
329.2	464.47	275.5356667	8.29311276
329.2	482.51	288.09552588	8.65368288
329.2	482.6	289.89837648	8.7137779
329.2	482.7	288.456096	8.65368288
329.2	482.8	287.73495576	8.65368288
329.2	482.89	288.33590596	8.65368288
329.2	482.99	292.00170218	8.77387292
329.2	483.09	287.19410058	8.59358786
329.2	483.18	291.64113206	8.77387292
329.2	500.85	318.14303588	9.55510818
329.2	500.95	311.35229862	9.37482312
329.2	501.04	310.87153846	9.3147281
329.2	501.14	313.93638448	9.43491814
329.2	501.23	314.05657452	9.43491814
329.2	501.33	310.75134842	9.3147281
329.2	501.42	316.76085042	9.49501316
329.2	501.53	318.08294086	9.55510818
329.2	501.62	320.48674166	9.6152032
329.2	501.81	316.64066038	9.49501316
329.2	501.9	317.06132552	9.49501316
329.2	503.92	322.04921218	9.67529822
329.2	504.02	325.7150084	9.79548826
329.2	504.11	323.3112076	9.73539324
329.2	504.3	318.86417612	9.55510818
329.2	504.5	325.7150084	9.79548826
329.2	504.59	319.64541138	9.6152032
329.2	504.98	328.35918928	9.85558328
329.2	505.08	326.9169088	9.79548826
329.2	505.27	325.95538848	9.79548826
329.2	505.37	325.35443828	9.79548826
329.2	506.43	328.05871418	9.85558328
329.2	506.53	330.64280004	9.9156783
329.2	506.62	335.9311618	10.09596336
329.2	506.72	332.68603072	9.97577332
329.2	506.82	332.26536558	9.97577332
329.2	506.97	330.2221349	9.9156783
329.2	507.11	342.541614	10.27624842
329.2	507.2	339.59695802	10.2161534
329.2	507.3	339.41667296	10.2161534
329.2	507.4	335.9311618	10.09596336
329.2	507.5	343.02237416	10.27624842
329.2	507.59	338.9359128	10.15605838
329.2	507.69	354.8610931	10.63681854
329.2	507.7	347.9501658	10.45653348
329.2	507.89	352.7577674	10.57672352
329.2	508.04	358.1663192	10.75700858
329.2	508.16	363.75515606	10.93729364
329.2	508.16	218.1449226	6.55035718
329.2	508.18	208.5297194	6.24988208
329.2	508.28	195.9097652	5.88931196
329.2	508.37	192.6045391	5.76912192
329.2	508.47	191.7031138	5.76912192
329.2	508.57	186.8955122	5.58883686
329.2	508.67	188.0974126	5.64893188
329.2	508.76	186.8955122	5.58883686
329.2	509.35	179.56391976	5.4085518
329.2	509.45	180.16486996	5.4085518
329.2	509.55	178.84277952	5.34845678
329.2	509.64	179.9845849	5.4085518
329.2	509.79	177.46059406	5.34845678
329.2	509.99	177.280309	5.34845678
329.2	510.14	178.12163928	5.34845678
329.2	510.23	177.94135422	5.34845678
329.2	510.33	176.6793588	5.28836176
329.2	510.48	178.60239944	5.34845678
324.5	494.52	307.86678746	9.25463308
324.5	494.62	303.35966096	9.13444304
324.5	494.71	303.1793759	9.07434802
324.5	494.8	309.7898281	9.3147281
324.5	494.99	306.60479204	9.19453806
324.5	495.09	314.11666954	9.43491814
324.5	495.27	308.04707252	9.25463308
324.5	495.37	311.05182352	9.3147281
324.5	495.46	303.35966096	9.13444304
324.5	495.56	314.95799982	9.43491814
324.5	505.21	333.28698092	9.97577332
324.5	505.3	339.77724308	10.2161534
324.5	505.58	333.04660084	9.97577332
324.5	505.68	338.81572276	10.15605838
324.5	505.77	335.27011658	10.03586834
324.5	505.86	337.1330622	10.09596336
324.5	505.96	332.08508052	9.97577332
324.5	506.05	336.65230204	10.09596336
324.5	506.14	342.42142396	10.27624842
324.5	506.24	340.01762316	10.2161534
324.5	506.33	336.41192196	10.09596336
324.5	506.52	341.0392385	10.2161534
324.5	506.7	343.7435144	10.33634344
324.5	506.89	348.43092596	10.45653348
324.5	506.89	347.0487405	10.39643846
324.5	506.98	352.63757736	10.57672352
324.5	507.07	346.7482654	10.39643846
324.5	507.17	351.555867	10.57672352
324.5	507.26	348.79149608	10.45653348
324.5	507.35	351.555867	10.57672352
324.5	507.45	357.02451382	10.69691356
324.5	507.54	349.09197118	10.45653348
324.5	507.63	353.71928772	10.63681854
324.5	507.73	360.99078514	10.8171036
324.5	507.82	358.52688932	10.75700858
324.5	507.91	365.19743654	10.93729364
324.5	508.01	363.2743959	10.87719862
324.5	508.1	367.06038216	10.99738866
324.5	508.19	370.24541822	11.1175787
324.5	508.28	371.74779372	11.17767372
324.5	508.28	221.39005368	6.67054722
324.5	508.34	213.99836622	6.43016714
324.5	508.47	207.08743892	6.18978706
324.5	508.56	206.30620366	6.18978706
324.5	508.66	201.37841202	6.06959702
324.5	508.75	199.15489628	6.009502
324.5	508.84	196.75109548	5.88931196
324.5	508.94	197.1116656	5.94940698
324.5	509.03	192.42425404	5.76912192
324.5	509.12	193.26558432	5.82921694
324.5	509.59	183.83066618	5.52874184
324.5	509.68	191.16225862	5.76912192
324.5	509.77	189.05893292	5.64893188
324.5	509.87	183.22971598	5.52874184
324.5	509.96	187.4964624	5.64893188
324.5	510.05	181.30667534	5.46864682
324.5	510.14	187.91712754	5.64893188
324.5	510.24	181.84753052	5.46864682
324.5	510.33	181.72734048	5.46864682
324.5	510.42	183.04943092	5.46864682
293.3	507.17	358.28650924	10.75700858
293.3	507.35	367.00028714	10.99738866
293.3	507.45	363.81525108	10.93729364
293.3	507.54	371.3872236	11.17767372
293.3	507.63	367.06038216	10.99738866
293.3	507.73	369.40408794	11.1175787
293.3	507.82	371.3872236	11.17767372
293.3	507.91	375.83425508	11.29786376
293.3	508.01	380.52166664	11.4180538
293.3	508.1	381.603377	11.47814882
293.3	508.19	383.28603756	11.47814882
293.3	508.28	391.2185802	11.7185289
293.3	508.38	398.7304577	11.95890898
293.3	508.47	405.0404348	12.13919404
293.3	508.56	419.10266948	12.55985918
293.3	508.61	422.10742048	12.68004922
293.3	508.66	428.4774926	12.86033428
293.3	508.68	434.4869946	13.04061934
293.3	508.68	253.6009844	7.63206754
293.3	508.72	245.06749156	7.33159244
293.3	508.84	231.9667772	6.97102232
293.3	508.94	219.22663296	6.6104522
293.3	509.03	209.7316198	6.3099771
293.3	509.12	205.88553852	6.18978706
293.3	509.22	199.5154664	6.009502
293.3	509.31	198.9145162	5.94940698
293.3	509.41	198.9145162	5.94940698
293.3	509.86	194.16700962	5.82921694
293.3	509.96	192.18387396	5.76912192
293.3	510.05	195.36891002	5.88931196
293.3	510.14	191.4026387	5.76912192
293.3	510.24	198.43375604	5.94940698
293.3	510.33	191.1021636	5.76912192
293.3	510.42	187.01570224	5.58883686
293.3	510.52	192.9050142	5.76912192
293.3	510.61	186.77532216	5.58883686
293.3	515.15	182.3883857	5.46864682
293.3	515.24	178.06154426	5.34845678
293.3	515.33	182.3883857	5.46864682
293.3	515.42	173.6746078	5.22826674
293.3	515.51	178.06154426	5.34845678
293.3	515.61	173.73470282	5.22826674
293.3	515.7	178.12163928	5.34845678
293.3	515.79	185.3931367	5.58883686
293.3	515.88	178.12163928	5.34845678
293.3	515.98	174.51593808	5.22826674
293.3	521.23	170.42947672	5.1080767
293.3	521.32	170.42947672	5.1080767
293.3	521.41	170.42947672	5.1080767
293.3	521.5	161.6556038	4.86769662
293.3	521.59	174.8765082	5.22826674
293.3	521.68	170.48957174	5.1080767
293.3	521.78	166.34301536	4.98788666
293.3	521.87	169.70833648	5.1080767
288.99	505.49	349.87320644	10.5166285
288.99	505.58	350.77463174	10.5166285
288.99	505.68	343.1425642	10.27624842
288.99	505.77	350.47415664	10.5166285
288.99	505.86	346.62807536	10.39643846
288.99	505.96	350.53425166	10.5166285
288.99	506.05	354.32023792	10.63681854
288.99	506.14	350.59434668	10.5166285
288.99	506.24	350.6544417	10.5166285
288.99	506.33	346.32760026	10.39643846
288.99	506.52	351.91643712	10.57672352
288.99	506.61	355.52213832	10.69691356
288.99	506.7	357.62546402	10.75700858
288.99	506.8	349.21216122	10.45653348
288.99	506.89	354.98128314	10.63681854
288.99	506.98	360.32973992	10.8171036
288.99	507.07	365.73829172	10.99738866
288.99	507.17	355.10147318	10.63681854
288.99	507.26	361.53164032	10.87719862
288.99	508.19	390.73782004	11.7185289
288.99	508.28	395.60551666	11.89881396
288.99	508.38	404.67986468	12.13919404
288.99	508.47	411.0499368	12.3194791
288.99	508.56	425.11217148	12.74014424
288.99	508.66	439.35469122	13.16080938
288.99	508.69	447.4074239	13.40118946
288.99	508.69	264.7185631	7.93254264
288.99	508.75	247.77176746	7.45178248
288.99	508.84	237.6758041	7.15130738
288.99	508.94	223.91404452	6.73064224
288.99	509.03	217.96463754	6.55035718
288.99	509.12	208.89028952	6.24988208
281.9	501	333.76774108	10.03586834
281.9	501.09	334.84945144	10.03586834
281.9	501.1	338.09458252	10.15605838
281.9	501.29	337.01287216	10.09596336
281.9	501.38	335.39030662	10.09596336
281.9	501.47	337.49363232	10.15605838
281.9	501.57	336.95277714	10.09596336
281.9	501.66	338.57534268	10.15605838
281.9	501.75	331.00337016	9.9156783
281.9	504.37	348.13045086	10.45653348
281.9	504.46	351.01501182	10.5166285
281.9	504.56	346.56798034	10.39643846
281.9	504.65	351.07510684	10.5166285
281.9	504.74	346.62807536	10.39643846
281.9	504.84	355.64232836	10.69691356
281.9	504.93	355.64232836	10.69691356
281.9	505.02	349.27225624	10.45653348
281.9	505.12	354.20004788	10.63681854
281.9	505.21	355.7625184	10.69691356
281.9	508.1	391.69934036	11.77862392
281.9	508.19	398.49007762	11.95890898
281.9	508.28	409.06680114	12.25938408
281.9	508.38	417.78057904	12.55985918
281.9	508.47	430.03996312	12.9204293
281.9	508.56	440.91716174	13.2209044
281.9	508.66	456.18129682	13.70166456
281.9	508.68	461.8302287	13.88194962
281.9	508.71	469.58248628	14.1223297
281.9	508.71	277.45870734	8.35320778
281.9	508.74	270.60787506	8.1128277
281.9	508.84	249.9952832	7.5118775
281.9	508.94	233.7696278	7.03111734
281.9	509.03	225.9572752	6.79073726
281.9	509.12	217.2434973	6.55035718
281.9	509.21	212.79646582	6.37007212
281.9	509.31	208.16914928	6.24988208
281.9	509.41	208.71000446	6.24988208
281.9	509.49	204.98411322	6.12969204
281.9	509.96	202.40002736	6.06959702
281.9	510.05	206.96724888	6.18978706
281.9	510.14	197.95299588	5.94940698
281.9	510.24	197.95299588	5.94940698
281.9	510.33	193.44586938	5.82921694
281.9	510.42	198.0130909	5.94940698
281.9	510.51	193.68624946	5.82921694
281.9	510.61	198.13328094	5.94940698
281.9	510.7	193.38577436	5.82921694
281.9	510.79	196.69100046	5.88931196
281.9	510.89	193.38577436	5.82921694
281.9	510.98	188.87864786	5.64893188
281.9	511.07	188.93874288	5.64893188
281.9	511.16	193.5059644	5.82921694
281.9	511.26	188.93874288	5.64893188
281.9	511.35	192.78482416	5.76912192
281.9	511.44	188.9988379	5.64893188
281.9	511.53	191.7031138	5.76912192
281.9	516.71	181.30667534	5.46864682
281.9	516.81	181.30667534	5.46864682
281.9	516.9	176.73945382	5.28836176
281.9	516.99	176.79954884	5.28836176
281.9	517.08	185.87389686	5.58883686
281.9	517.18	176.79954884	5.28836176
281.9	517.27	181.1864853	5.46864682
281.9	521.87	173.13375262	5.22826674
281.9	521.96	168.5665311	5.04798168
281.9	522.05	173.19384764	5.22826674
281.9	522.14	173.19384764	5.22826674
281.9	522.23	173.19384764	5.22826674
281.9	522.33	168.62662612	5.04798168
281.9	522.42	171.63137712	5.16817172
281.9	522.51	173.25394266	5.22826674
281.9	522.6	168.68672114	5.04798168
281.9	522.42	171.63137712	5.16817172
281.9	522.51	173.25394266	5.22826674
281.9	522.6	168.68672114	5.04798168
274	491.97	317.84256078	9.55510818
274	492.07	313.27533926	9.43491814
274	492.16	317.9026558	9.55510818
274	492.25	317.9026558	9.55510818
274	492.35	322.52997234	9.67529822
274	492.44	322.52997234	9.67529822
274	492.54	322.59006736	9.67529822
274	492.63	322.59006736	9.67529822
274	492.73	318.08294086	9.55510818
274	499.41	329.44089964	9.9156783
274	499.5	338.6354377	10.15605838
274	499.6	334.06821618	10.03586834
274	499.69	338.69553272	10.15605838
274	499.79	334.1283112	10.03586834
274	499.88	338.75562774	10.15605838
274	499.97	338.81572276	10.15605838
274	500.07	338.81572276	10.15605838
274	500.16	334.24850124	10.03586834
274	506.33	361.1710702	10.8171036
274	506.42	362.9739208	10.87719862
274	506.52	361.05088016	10.8171036
274	506.61	365.61810168	10.99738866
274	507.82	385.08888816	11.53824384
274	507.91	385.32926824	11.53824384
274	508.01	393.86276108	11.83871894
274	508.1	396.9276071	11.89881396
274	508.19	404.37938958	12.13919404
274	508.28	414.83592306	12.43966914
274	508.38	423.79008104	12.74014424
274	508.47	437.73212568	13.16080938
274	508.56	451.49388526	13.58147452
274	508.66	472.10647712	14.18242472
274	508.67	481.00054008	14.4228048
274	508.69	491.93783372	14.78337492
274	508.72	515.6152716	15.50451516
274	508.72	304.0808012	9.13444304
274	508.84	273.1318659	8.17292272
274	508.94	261.53352704	7.87244762
274	509.03	247.5914824	7.45178248
274	509.12	238.39694434	7.15130738
274	509.21	233.70953278	7.03111734
274	509.31	224.4548997	6.73064224
274	509.4	219.82758316	6.6104522
274	509.49	219.82758316	6.6104522
274	509.59	215.20026662	6.49026216
274	509.68	213.0368459	6.37007212
274	509.77	213.0368459	6.37007212
274	509.86	208.40952936	6.24988208
274	509.96	204.80382816	6.12969204
274	510.05	203.84230784	6.12969204
274	510.14	203.36154768	6.12969204
274	510.24	204.0225929	6.12969204
274	510.33	202.5202174	6.06959702
274	510.42	204.68363812	6.12969204
274	517.54	189.47959806	5.7090269
274	517.64	184.7921865	5.52874184
274	517.73	180.04467992	5.4085518
274	517.82	183.77057116	5.52874184
274	517.91	180.10477494	5.4085518
274	518	187.13589228	5.64893188
274	518.07	180.10477494	5.4085518
274	518.1	183.34990602	5.52874184
274	518.28	181.72734048	5.46864682
274	518.37	182.80905084	5.46864682
274	524.07	171.75156716	5.16817172
274	524.16	171.75156716	5.16817172
274	524.25	176.49907374	5.28836176
274	524.34	176.49907374	5.28836176
274	524.43	176.55916876	5.28836176
274	524.53	171.81166218	5.16817172
274	524.62	176.55916876	5.28836176
274	524.71	167.12425062	5.04798168
274	524.8	171.8717572	5.16817172
266.3	501.94	345.8468401	10.39643846
266.3	502.03	345.36607994	10.39643846
266.3	502.13	347.58959568	10.45653348
266.3	502.22	350.23377656	10.5166285
266.3	502.31	348.13045086	10.45653348
266.3	502.41	351.19529688	10.5166285
266.3	502.5	350.29387158	10.5166285
266.3	502.6	350.29387158	10.5166285
266.3	508.1	412.31193222	12.37957412
266.3	508.19	417.660389	12.55985918
266.3	508.28	426.19388184	12.80023926
266.3	508.38	435.26822986	13.04061934
266.3	508.47	444.04210278	13.34109444
266.3	508.56	462.31098886	13.88194962
266.3	508.66	484.84662136	14.54299484
266.3	508.71	520.48296822	15.6247052
266.3	508.72	572.7055406	17.18717572
266.3	508.72	337.7340124	10.15605838
266.3	508.75	306.96536216	9.19453806
266.3	508.84	281.06440854	8.4133028
266.3	508.94	267.30264896	8.05273268
266.3	509.03	252.45917902	7.57197252
266.3	509.12	242.96416586	7.27149742
266.3	509.21	238.69741944	7.15130738
266.3	509.31	229.68316644	6.9109273
266.3	509.49	223.31309432	6.73064224
266.3	509.59	219.58720308	6.6104522
266.3	509.68	217.00311722	6.49026216
266.3	509.77	209.67152478	6.3099771
266.3	509.86	209.67152478	6.3099771
266.3	509.96	209.67152478	6.3099771
266.3	510.05	209.7316198	6.3099771
266.3	510.14	211.5344704	6.37007212
255.8	493.86	333.28698092	9.97577332
255.8	493.95	333.28698092	9.97577332
255.8	494.05	323.49149266	9.73539324
255.8	494.14	338.27486758	10.15605838
255.8	494.24	333.40717096	10.03586834
255.8	494.33	323.6116827	9.73539324
255.8	494.43	333.46726598	10.03586834
255.8	494.52	328.53947434	9.85558328
255.8	500.25	348.07035584	10.45653348
255.8	500.35	343.7435144	10.33634344
255.8	500.44	348.67130604	10.45653348
255.8	500.54	348.73140106	10.45653348
255.8	500.63	345.78674508	10.39643846
255.8	500.72	348.79149608	10.45653348
255.8	500.82	338.9359128	10.15605838
255.8	500.91	346.1473152	10.39643846
255.8	508.01	424.8717914	12.74014424
255.8	508.1	425.65302666	12.80023926
255.8	508.19	429.3789179	12.86033428
255.8	508.28	438.9941211	13.16080938
255.8	508.38	446.26561852	13.40118946
255.8	508.47	454.97939642	13.64156954
255.8	508.56	471.1449568	14.1223297
255.8	508.66	495.783915	14.90356496
255.8	508.69	507.802919	15.26413508
255.8	508.7	524.0285744	15.74489524
255.8	508.7	301.6770004	9.07434802
255.8	508.73	293.08341254	8.77387292
255.8	508.84	268.3242643	8.05273268
255.8	508.94	253.0000342	7.57197252
255.8	509.02	241.34160032	7.27149742
255.8	509.13	235.45228836	7.09121236
255.8	509.31	218.32520766	6.55035718
255.8	509.4	215.1401716	6.49026216
255.8	509.49	213.39741602	6.43016714
255.8	509.59	210.09218992	6.3099771
255.8	509.68	209.01047956	6.24988208
255.8	509.77	206.36629868	6.18978706
255.8	509.86	204.20287796	6.12969204
255.8	509.96	202.09955226	6.06959702
255.8	510.05	199.99622656	6.009502
255.8	510.14	198.9145162	5.94940698
255.8	518.47	166.04254026	4.98788666
255.8	518.56	167.12425062	5.04798168
255.8	518.65	169.04729126	5.1080767
255.8	518.74	166.34301536	4.98788666
255.8	518.83	165.14111496	4.98788666
255.8	518.93	167.9655809	5.04798168
255.8	519.02	165.14111496	4.98788666
255.8	519.11	170.18909664	5.1080767
255.8	519.2	165.20120998	4.98788666
255.8	519.29	166.64349046	4.98788666
255.8	519.39	168.98719624	5.04798168
234.3	504.56	386.83164374	11.59833886
234.3	504.65	381.48318696	11.47814882
234.3	504.74	386.35088358	11.59833886
234.3	504.84	392.36038558	11.77862392
234.3	504.97	391.5190553	11.77862392
234.3	505.12	387.07202382	11.59833886
234.3	505.21	382.86537242	11.47814882
234.3	505.3	387.13211884	11.59833886
234.3	505.4	387.13211884	11.59833886
234.3	508.01	436.2898452	13.10071436
234.3	508.1	442.2993472	13.28099942
234.3	508.19	447.707899	13.46128448
234.3	508.28	453.35683088	13.58147452
234.3	508.38	464.89507472	13.94204464
234.3	508.47	474.81075302	14.24251974
234.3	508.51	487.3706122	14.60308986
234.3	508.51	279.441843	8.4133028
234.3	508.56	267.78340912	8.05273268
234.3	508.66	258.82925114	7.75225758
234.3	508.75	245.00739654	7.33159244
234.3	508.84	238.69741944	7.15130738
234.3	508.94	228.9620262	6.85083228
234.3	509.12	213.21713096	6.43016714
234.3	509.21	205.64515844	6.18978706
234.3	509.31	202.03945724	6.06959702
234.3	509.4	198.6140411	5.94940698
234.3	509.49	198.97461122	5.94940698
234.3	509.59	196.2102403	5.88931196
234.3	509.68	196.87128552	5.88931196
234.3	509.77	196.09005026	5.88931196
234.3	509.86	195.78957516	5.88931196
234.3	515.98	168.74681616	5.04798168
234.3	516.07	174.21546298	5.22826674
234.3	516.16	168.74681616	5.04798168
234.3	516.25	163.27816934	4.92779164
234.3	516.34	174.275558	5.22826674
234.3	516.44	163.87911954	4.92779164
234.3	516.53	168.80691118	5.04798168
234.3	516.62	168.8670062	5.04798168
234.3	516.71	163.39835938	4.92779164
234.3	516.81	168.8670062	5.04798168
234.3	516.9	168.8670062	5.04798168

System: propan-2-ol; phases: Liquid, Gas
Property: Mass density, kg/m3 (Liquid); method: ISOCHOR
Temperature, K	Mass density, kg/m3	uncertainty
380.35	697.69	1.41
451.83	581.06	1.17
507.95	343.1	2.36
508.16	329.2	2.81
508.28	324.5	2.82
508.68	293.3	3.18
508.69	288.99	3.51
508.71	281.9	4
508.72	274	4.62

System: propan-2-ol; phases: Gas, Liquid
Property: Mass density, kg/m3 (Gas); method: ISOCHOR
Temperature, K	Mass density, kg/m3	uncertainty
508.72	266.3	6.12
508.7	255.8	4.56
508.51	234.3	4.55

System: propan-2-ol; phases: Liquid, Gas
Property: Molar heat capacity at constant volume, J/K/mol (Liquid); method: Vacuum adiabatic calorimetry
Temperature, K	Molar heat capacity at constant volume, J/K/mol	uncertainty
380.35	182.80905084	5.46864682
451.83	186.77532216	5.58883686
507.95	212.4358957	6.49026216
508.16	218.1449226	6.97102232
508.28	221.39005368	7.03111734
508.68	253.6009844	8.29311276
508.69	264.7185631	9.014253
508.71	277.45870734	9.85558328
508.72	304.0808012	11.83871894

System: propan-2-ol; phases: Gas, Liquid
Property: Molar heat capacity at constant volume, J/K/mol (Gas); method: Vacuum adiabatic calorimetry
Temperature, K	Molar heat capacity at constant volume, J/K/mol	uncertainty
508.72	337.7340124	15.023755
508.7	301.6770004	10.2161534
508.51	279.441843	9.6152032
