Measured thermophysical data. The design, construction, and testing of a new Knudsen effusion apparatus
Source: J. Chem. Thermodyn., 2006, 10.1016/j.jct.2005.08.013
Compound 1: benzoic acid, C7H6O2, InChI=1S/C7H6O2/c8-7(9)6-4-2-1-3-5-6/h1-5H,(H,8,9), purity 99.997%
Compound 2: anthracene, C14H10, InChI=1S/C14H10/c1-2-6-12-10-14-8-4-3-7-13(14)9-11(12)5-1/h1-10H, purity 99%
Compound 3: phenanthrene, C14H10, InChI=1S/C14H10/c1-3-7-13-11(5-1)9-10-12-6-2-4-8-14(12)13/h1-10H, purity 98%
Compound 4: 1,3,5-triphenylbenzene, C24H18, InChI=1S/C24H18/c1-4-10-19(11-5-1)22-16-23(20-12-6-2-7-13-20)18-24(17-22)21-14-8-3-9-15-21/h1-18H, purity 97%
Compound 5: 7H-benz[de]anthracen-7-one, C17H10O, InChI=1S/C17H10O/c18-17-14-8-2-1-7-12(14)13-9-3-5-11-6-4-10-15(17)16(11)13/h1-10H, purity 98%

System: benzoic acid; phases: Crystal, Gas
Property: Vapor or sublimation pressure, kPa (Crystal); method: Calculated from knudsen effusion weight loss
Temperature, K	Vapor or sublimation pressure, kPa	uncertainty
299.33	0.000134	7e-06
299.33	0.000131	7e-06
301.04	0.000162	8e-06
301.04	0.00016	8e-06
301.04	0.000155	8e-06
303.16	0.000203	1e-05
303.16	0.000201	1e-05
303.16	0.00021	1.1e-05
305.24	0.000265	1.3e-05
305.24	0.000261	1.3e-05
305.24	0.000271	1.4e-05
307.13	0.000332	1.7e-05
307.13	0.000326	1.6e-05
307.13	0.000323	1.6e-05
309.25	0.000414	2.1e-05
309.25	0.000408	2e-05
309.25	0.00042	2.1e-05
311.3	0.000525	2.6e-05
311.3	0.000512	2.6e-05
311.3	0.000524	2.6e-05
313.2	0.000643	3.2e-05
313.2	0.000622	3.1e-05
313.2	0.000647	3.2e-05
315.27	0.000815	4.1e-05
315.27	0.000799	4e-05
315.27	0.00083	4.2e-05
317.32	0.00105	0.00011
317.32	0.00102	0.0001
317.32	0.00101	0.0001

System: anthracene; phases: Crystal, Gas
Property: Vapor or sublimation pressure, kPa (Crystal); method: Calculated from knudsen effusion weight loss
Temperature, K	Vapor or sublimation pressure, kPa	uncertainty
340.41	0.000143	7e-06
340.41	0.000144	7e-06
340.41	0.000141	7e-06
342.25	0.000172	9e-06
342.25	0.000173	9e-06
342.25	0.000167	8e-06
344.06	0.000211	1.1e-05
344.06	0.000206	1e-05
346.4	0.000262	1.3e-05
346.4	0.000263	1.3e-05
346.4	0.000258	1.3e-05
348.15	0.000306	1.5e-05
348.15	0.000304	1.5e-05
348.15	0.000308	1.5e-05
350.15	0.000375	1.9e-05
350.15	0.000371	1.9e-05
350.15	0.000376	1.9e-05
352.39	0.000464	2.3e-05
352.39	0.000459	2.3e-05
352.39	0.000458	2.3e-05
354.06	0.00055	2.8e-05
354.06	0.000548	2.7e-05
354.06	0.000554	2.8e-05
356.2	0.000673	3.4e-05
356.2	0.000679	3.4e-05
356.2	0.000658	3.3e-05
358.22	0.000815	4.1e-05
358.22	0.000821	4.1e-05
358.22	0.00081	4.1e-05
360.38	0.00101	0.0001
360.38	0.00098	4.9e-05

System: phenanthrene; phases: Crystal 2, Gas
Property: Vapor or sublimation pressure, kPa (Crystal 2); method: Calculated from knudsen effusion weight loss
Temperature, K	Vapor or sublimation pressure, kPa	uncertainty
313.46	0.000123	6e-06
313.46	0.000124	6e-06
313.46	0.000124	6e-06
315.48	0.000151	8e-06
315.48	0.000155	8e-06
315.48	0.000156	8e-06
317.41	0.000185	9e-06
317.41	0.000191	1e-05
317.41	0.000193	1e-05
319.47	0.000235	1.2e-05
319.47	0.000238	1.2e-05
319.47	0.000239	1.2e-05
321.48	0.000292	1.5e-05
321.48	0.000293	1.5e-05
321.48	0.000296	1.5e-05
323.16	0.000343	1.7e-05
323.16	0.000352	1.8e-05
323.16	0.000352	1.8e-05
325.46	0.000436	2.2e-05
325.46	0.000446	2.2e-05
325.46	0.000453	2.3e-05
327.47	0.000543	2.7e-05
327.47	0.000544	2.7e-05
327.47	0.00055	2.8e-05
329.47	0.00067	3.4e-05
329.47	0.000675	3.4e-05
329.47	0.000678	3.4e-05
331.42	0.000814	4.1e-05
331.42	0.000825	4.1e-05
331.42	0.000834	4.2e-05
333.16	0.001	5e-05
333.16	0.00101	0.0001

System: 1,3,5-triphenylbenzene; phases: Crystal, Gas
Property: Vapor or sublimation pressure, kPa (Crystal); method: Calculated from knudsen effusion weight loss
Temperature, K	Vapor or sublimation pressure, kPa	uncertainty
407.36	0.00014	7e-06
407.36	0.000141	7e-06
407.36	0.000139	7e-06
409.3	0.000173	9e-06
409.3	0.000166	8e-06
409.3	0.000164	8e-06
411.3	0.000215	1.1e-05
411.3	0.00021	1.1e-05
411.3	0.000206	1e-05
413.23	0.000256	1.3e-05
413.23	0.000251	1.3e-05
413.23	0.000251	1.3e-05
415.35	0.000317	1.6e-05
415.35	0.000316	1.6e-05
415.35	0.000316	1.6e-05
416.86	0.000361	1.8e-05
416.86	0.000348	1.7e-05
417.22	0.00037	1.9e-05
417.22	0.000371	1.9e-05
419.24	0.000454	2.3e-05
419.24	0.00047	2.4e-05
421.36	0.000542	2.7e-05
421.36	0.000563	2.8e-05
421.36	0.000568	2.8e-05
423.29	0.000672	3.4e-05
423.29	0.000668	3.3e-05
423.29	0.000649	3.2e-05
425.26	0.000796	4e-05
425.26	0.000784	3.9e-05
427.36	0.000966	4.8e-05
427.36	0.000984	4.9e-05
427.36	0.001	5e-05
429.29	0.00117	0.00012
429.29	0.0012	0.00012
429.29	0.0012	0.00012

System: 7H-benz[de]anthracen-7-one; phases: Crystal, Gas
Property: Vapor or sublimation pressure, kPa (Crystal); method: Calculated from knudsen effusion weight loss
Temperature, K	Vapor or sublimation pressure, kPa	uncertainty
390.31	0.000152	8e-06
390.31	0.000149	7e-06
392.23	0.000179	9e-06
392.23	0.000177	9e-06
394.57	0.000234	1.2e-05
394.57	0.000221	1.1e-05
396.35	0.000263	1.3e-05
396.35	0.000262	1.3e-05
396.35	0.00026	1.3e-05
398.22	0.000325	1.6e-05
398.22	0.000323	1.6e-05
398.22	0.000325	1.6e-05
400.41	0.000394	2e-05
400.41	0.000381	1.9e-05
402.19	0.000471	2.4e-05
402.19	0.000453	2.3e-05
402.19	0.000453	2.3e-05
404.34	0.00057	2.9e-05
404.34	0.000564	2.8e-05
404.34	0.000565	2.8e-05
406.35	0.000686	3.4e-05
406.35	0.000679	3.4e-05
406.35	0.00068	3.4e-05
408.35	0.00081	4.1e-05
408.35	0.000796	4e-05
408.35	0.0008	4e-05
410.23	0.000962	4.8e-05
410.23	0.000954	4.8e-05
410.23	0.000926	4.6e-05
