Measured thermophysical data. Density, dynamic viscosity, and electrical conductivity of two hydrophobic functionalized ionic liquids
Source: J. Chem. Thermodyn., 2015, 10.1016/j.jct.2015.06.010
Compound 1: 3-(cyanomethyl)-1-methyl-1H-imidazol-3-ium bis((trifluoromethyl)sulfonyl)amide, C8H8F6N4O4S2, InChI=1S/C6H8N3.C2F6NO4S2/c1-8-4-5-9(6-8)3-2-7;3-1(4,5)14(10,11)9-15(12,13)2(6,7)8/h4-6H,3H2,1H3;/q+1;-1
Compound 2: 1-(2-hydroxyethyl)-3-methylimidazolium bis[(trifluoromethyl)sulfonyl]imide, C8H11F6N3O5S2, InChI=1S/C6H11N2O.C2F6NO4S2/c1-7-2-3-8(6-7)4-5-9;3-1(4,5)14(10,11)9-15(12,13)2(6,7)8/h2-3,6,9H,4-5H2,1H3;/q+1;-1

System: 3-(cyanomethyl)-1-methyl-1H-imidazol-3-ium bis((trifluoromethyl)sulfonyl)amide; phases: Liquid
Fixed: Pressure, kPa = 101.325
Property: Mass density, kg/m3 (Liquid); method: Vibrating tube method
Temperature, K	Mass density, kg/m3	uncertainty
283.15	1625.9	1.2
288.15	1620.5	1.2
293.15	1615	1.2
298.15	1609.7	1.2
303.15	1604.6	1.2
308.15	1599.6	1.2
313.15	1594.6	1.2
318.15	1589.8	1.2
323.15	1584.8	1.2
328.15	1579.9	1.2
333.15	1575.1	1.2
338.15	1570.2	1.2
343.15	1565.4	1.2
348.15	1560.6	1.2
353.15	1555.8	1.2

System: 3-(cyanomethyl)-1-methyl-1H-imidazol-3-ium bis((trifluoromethyl)sulfonyl)amide; phases: Liquid
Fixed: Pressure, kPa = 101.325
Property: Viscosity, Pa*s (Liquid); method: Concentric cylinders viscometry
Temperature, K	Viscosity, Pa*s	uncertainty
283.15	1.14	0.05
288.15	0.7086	0.0282
293.15	0.4634	0.0164
298.15	0.3155	0.01
303.15	0.2228	0.0064
308.15	0.1624	0.0042
313.15	0.1217	0.0029
318.15	0.09356	0.00212
323.15	0.07361	0.0016
328.15	0.05899	0.00125
333.15	0.04793	0.00102
338.15	0.0397	0.00084
343.15	0.03327	0.0007
348.15	0.02811	0.00059
353.15	0.02406	0.00051

System: 3-(cyanomethyl)-1-methyl-1H-imidazol-3-ium bis((trifluoromethyl)sulfonyl)amide; phases: Liquid
Fixed: Pressure, kPa = 101.325
Property: Electrical conductivity, S/m (Liquid); method: Alternating current cell with electrodes
Temperature, K	Electrical conductivity, S/m	uncertainty
283.15	0.0283	0.0006
288.15	0.0439	0.001
293.15	0.0648	0.0014
298.15	0.0919	0.0019
303.15	0.1294	0.0027
308.15	0.1727	0.0036
313.15	0.225	0.005
318.15	0.285	0.006
323.15	0.36	0.007
328.15	0.441	0.009
333.15	0.536	0.011
338.15	0.644	0.013
343.15	0.756	0.015
348.15	0.878	0.018
353.15	1.012	0.02

System: 1-(2-hydroxyethyl)-3-methylimidazolium bis[(trifluoromethyl)sulfonyl]imide; phases: Liquid
Fixed: Pressure, kPa = 101.325
Property: Mass density, kg/m3 (Liquid); method: Vibrating tube method
Temperature, K	Mass density, kg/m3	uncertainty
283.15	1588.6	1.2
288.15	1583.6	1.2
293.15	1578.6	1.2
298.15	1573.7	1.2
303.15	1568.8	1.2
308.15	1563.9	1.2
313.15	1559.1	1.2
318.15	1554.2	1.2
323.15	1549.4	1.2
328.15	1544.6	1.2
333.15	1539.8	1.2
338.15	1535	1.2
343.15	1530.2	1.2
348.15	1525.5	1.2
353.15	1520.7	1.2

System: 1-(2-hydroxyethyl)-3-methylimidazolium bis[(trifluoromethyl)sulfonyl]imide; phases: Liquid
Fixed: Pressure, kPa = 101.325
Property: Viscosity, Pa*s (Liquid); method: Concentric cylinders viscometry
Temperature, K	Viscosity, Pa*s	uncertainty
283.15	0.2134	0.006
288.15	0.1537	0.0039
293.15	0.1141	0.0027
298.15	0.08689	0.00194
303.15	0.06766	0.00146
308.15	0.05388	0.00114
313.15	0.04352	0.00092
318.15	0.03585	0.00076
323.15	0.02983	0.00063
328.15	0.0252	0.00053
333.15	0.02152	0.00045
338.15	0.01846	0.00039
343.15	0.01608	0.00034
348.15	0.01406	0.0003
353.15	0.01244	0.00026

System: 1-(2-hydroxyethyl)-3-methylimidazolium bis[(trifluoromethyl)sulfonyl]imide; phases: Liquid
Fixed: Pressure, kPa = 101.325
Property: Electrical conductivity, S/m (Liquid); method: Alternating current cell with electrodes
Temperature, K	Electrical conductivity, S/m	uncertainty
283.15	0.1319	0.0028
288.15	0.1794	0.0037
293.15	0.237	0.005
298.15	0.305	0.006
303.15	0.387	0.008
308.15	0.481	0.01
313.15	0.589	0.012
318.15	0.704	0.014
323.15	0.83	0.017
328.15	0.967	0.02
333.15	1.112	0.022
338.15	1.277	0.026
343.15	1.447	0.029
348.15	1.626	0.033
353.15	1.815	0.037
