Measured thermophysical data. Physical properties of {anisole + n-alkanes} at temperatures between (293.15 and 303.15) K
Source: J. Chem. Thermodyn., 2005, 10.1016/j.jct.2004.09.021
Compound 1: anisole, C7H8O, InChI=1S/C7H8O/c1-8-7-5-3-2-4-6-7/h2-6H,1H3, purity 99%
Compound 2: hexane, C6H14, InChI=1S/C6H14/c1-3-5-6-4-2/h3-6H2,1-2H3, purity 99%
Compound 3: heptane, C7H16, InChI=1S/C7H16/c1-3-5-7-6-4-2/h3-7H2,1-2H3, purity 99%
Compound 4: octane, C8H18, InChI=1S/C8H18/c1-3-5-7-8-6-4-2/h3-8H2,1-2H3, purity 99%
Compound 5: nonane, C9H20, InChI=1S/C9H20/c1-3-5-7-9-8-6-4-2/h3-9H2,1-2H3, purity 99%
Compound 6: decane, C10H22, InChI=1S/C10H22/c1-3-5-7-9-10-8-6-4-2/h3-10H2,1-2H3, purity 99%
Compound 7: dodecane, C12H26, InChI=1S/C12H26/c1-3-5-7-9-11-12-10-8-6-4-2/h3-12H2,1-2H3, purity 99%

System: anisole; phases: Liquid
Fixed: Pressure, kPa = 101.325
Property: Refractive index (Na D-line) (Liquid); method: ABBE:UFactor:2
Temperature, K	Refractive index (Na D-line)	uncertainty
293.15	1.5161	0.0009
298.15	1.5141	0.0009
303.15	1.5129	0.0009

System: anisole; phases: Liquid
Fixed: Pressure, kPa = 101
Property: Viscosity, Pa*s (Liquid); method: CAPTUB:UFactor:2
Temperature, K	Viscosity, Pa*s	uncertainty
293.15	0.0010845	1.81e-05
298.15	0.0010169	1.72e-05
303.15	0.0009285	1.6e-05

System: anisole; phases: Liquid
Fixed: Pressure, kPa = 101
Property: Mass density, kg/m3 (Liquid); method: VIBTUB:UFactor:4
Temperature, K	Mass density, kg/m3	uncertainty
293.15	993.81	0.53
298.15	989.15	0.53
303.15	984.42	0.53

System: hexane; phases: Liquid
Fixed: Pressure, kPa = 101.325
Property: Refractive index (Na D-line) (Liquid); method: ABBE::UFactor:2
Temperature, K	Refractive index (Na D-line)	uncertainty
293.15	1.3759	0.001
298.15	1.3732	0.001
303.15	1.3709	0.0009

System: hexane; phases: Liquid
Fixed: Pressure, kPa = 101
Property: Viscosity, Pa*s (Liquid); method: CAPTUB::UFactor:2
Temperature, K	Viscosity, Pa*s	uncertainty
293.15	0.0003114	6.6e-06
298.15	0.0002974	6.4e-06
303.15	0.0002838	6.2e-06

System: hexane; phases: Liquid
Fixed: Pressure, kPa = 101
Property: Mass density, kg/m3 (Liquid); method: VIBTUB::UFactor:4
Temperature, K	Mass density, kg/m3	uncertainty
293.15	659.5	0.91
298.15	654.96	0.92
303.15	650.42	0.93

System: heptane; phases: Liquid
Fixed: Pressure, kPa = 101.325
Property: Refractive index (Na D-line) (Liquid); method: ABBE::UFactor:2
Temperature, K	Refractive index (Na D-line)	uncertainty
293.15	1.3872	0.0009
298.15	1.3855	0.0009
303.15	1.3827	0.001

System: heptane; phases: Liquid
Fixed: Pressure, kPa = 101
Property: Viscosity, Pa*s (Liquid); method: CAPTUB::UFactor:2
Temperature, K	Viscosity, Pa*s	uncertainty
293.15	0.0004127	8.1e-06
298.15	0.0003909	7.8e-06
303.15	0.0003702	7.5e-06

System: heptane; phases: Liquid
Fixed: Pressure, kPa = 101
Property: Mass density, kg/m3 (Liquid); method: VIBTUB::UFactor:4
Temperature, K	Mass density, kg/m3	uncertainty
293.15	683.96	0.87
298.15	679.77	0.88
303.15	675.5	0.88

System: octane; phases: Liquid
Fixed: Pressure, kPa = 101.325
Property: Refractive index (Na D-line) (Liquid); method: ABBE::UFactor:2
Temperature, K	Refractive index (Na D-line)	uncertainty
293.15	1.3965	0.0009
298.15	1.3947	0.0009
303.15	1.3926	0.0009

System: octane; phases: Liquid
Fixed: Pressure, kPa = 101
Property: Viscosity, Pa*s (Liquid); method: CAPTUB::UFactor:2
Temperature, K	Viscosity, Pa*s	uncertainty
293.15	0.0005464	1.01e-05
298.15	0.0005123	9.6e-06
303.15	0.000483	9.1e-06

System: octane; phases: Liquid
Fixed: Pressure, kPa = 101
Property: Mass density, kg/m3 (Liquid); method: VIBTUB::UFactor:4
Temperature, K	Mass density, kg/m3	uncertainty
293.15	702.61	0.84
298.15	698.57	0.85
303.15	694.56	0.85

System: nonane; phases: Liquid
Fixed: Pressure, kPa = 101.325
Property: Refractive index (Na D-line) (Liquid); method: ABBE::UFactor:2
Temperature, K	Refractive index (Na D-line)	uncertainty
293.15	1.404	0.0009
298.15	1.4027	0.0009
303.15	1.4002	0.001

System: nonane; phases: Liquid
Fixed: Pressure, kPa = 101
Property: Viscosity, Pa*s (Liquid); method: CAPTUB::UFactor:2
Temperature, K	Viscosity, Pa*s	uncertainty
293.15	0.0007136	1.26e-05
298.15	0.0006715	1.2e-05
303.15	0.0006307	1.14e-05

System: nonane; phases: Liquid
Fixed: Pressure, kPa = 101
Property: Mass density, kg/m3 (Liquid); method: VIBTUB::UFactor:16
Temperature, K	Mass density, kg/m3	uncertainty
293.15	717.59	2.94
298.15	713.71	2.98
303.15	709.81	3.01

System: decane; phases: Liquid
Fixed: Pressure, kPa = 101.325
Property: Refractive index (Na D-line) (Liquid); method: ABBE::UFactor:2
Temperature, K	Refractive index (Na D-line)	uncertainty
293.15	1.4148	0.001
298.15	1.4118	0.001
303.15	1.4089	0.001

System: decane; phases: Liquid
Fixed: Pressure, kPa = 101
Property: Viscosity, Pa*s (Liquid); method: CAPTUB::UFactor:2
Temperature, K	Viscosity, Pa*s	uncertainty
293.15	0.0009169	1.57e-05
298.15	0.0008512	1.47e-05
303.15	0.0007898	1.38e-05

System: decane; phases: Liquid
Fixed: Pressure, kPa = 101
Property: Mass density, kg/m3 (Liquid); method: VIBTUB::UFactor:4
Temperature, K	Mass density, kg/m3	uncertainty
293.15	729.91	0.8
298.15	726.16	0.8
303.15	722.36	0.81

System: dodecane; phases: Liquid
Fixed: Pressure, kPa = 101.325
Property: Refractive index (Na D-line) (Liquid); method: ABBE::UFactor:2
Temperature, K	Refractive index (Na D-line)	uncertainty
293.15	1.421	0.0011
298.15	1.4172	0.0011
303.15	1.4135	0.0011

System: dodecane; phases: Liquid
Fixed: Pressure, kPa = 101
Property: Viscosity, Pa*s (Liquid); method: CAPTUB::UFactor:2
Temperature, K	Viscosity, Pa*s	uncertainty
293.15	0.001487	2.43e-05
298.15	0.0013728	2.27e-05
303.15	0.0012496	2.09e-05

System: dodecane; phases: Liquid
Fixed: Pressure, kPa = 101
Property: Mass density, kg/m3 (Liquid); method: VIBTUB::UFactor:4
Temperature, K	Mass density, kg/m3	uncertainty
293.15	748.78	0.77
298.15	745.14	0.77
303.15	741.52	0.78

System: anisole + hexane; phases: Liquid
Fixed: Pressure, kPa = 101
Property: Viscosity, Pa*s (Liquid); method: CAPTUB:UFactor:2
Temperature, K	Mole fraction of anisole	Viscosity, Pa*s	uncertainty
293.15	0	0.0003114	6.6e-06
293.15	0.0993	0.0003336	6.9e-06
293.15	0.1959	0.0003594	7.3e-06
293.15	0.3008	0.0003971	7.9e-06
293.15	0.3998	0.0004376	8.5e-06
293.15	0.5045	0.0004958	9.3e-06
293.15	0.5936	0.0005596	1.03e-05
293.15	0.6834	0.0006392	1.15e-05
293.15	0.7909	0.000756	1.33e-05
293.15	0.8975	0.0009044	1.55e-05
293.15	1	0.0010845	1.81e-05
298.15	0	0.0002974	6.4e-06
298.15	0.0993	0.0003159	6.6e-06
298.15	0.1959	0.0003451	7.1e-06
298.15	0.3008	0.0003776	7.6e-06
298.15	0.3998	0.0004157	8.1e-06
298.15	0.5045	0.0004701	8.9e-06
298.15	0.5936	0.000529	9.8e-06
298.15	0.6834	0.0006028	1.09e-05
298.15	0.7909	0.00071	1.25e-05
298.15	0.8975	0.0008483	1.46e-05
298.15	1	0.0010169	1.72e-05
303.15	0	0.0002838	6.2e-06
303.15	0.0993	0.000305	6.5e-06
303.15	0.1959	0.0003257	6.8e-06
303.15	0.3008	0.0003565	7.2e-06
303.15	0.3998	0.000396	7.8e-06
303.15	0.5045	0.0004451	8.6e-06
303.15	0.5936	0.0005002	9.4e-06
303.15	0.6834	0.0005681	1.04e-05
303.15	0.7909	0.0006685	1.19e-05
303.15	0.8975	0.0007899	1.37e-05
303.15	1	0.0009285	1.6e-05

System: anisole + hexane; phases: Liquid
Fixed: Pressure, kPa = 101
Property: Refractive index (Na D-line) (Liquid); method: ABBE:UFactor:2
Temperature, K	Mole fraction of anisole	Refractive index (Na D-line)	uncertainty
293.15	0	1.3759	0.001
293.15	0.095	1.3873	0.001
293.15	0.193	1.399	0.0011
293.15	0.288	1.4109	0.001
293.15	0.391	1.4243	0.001
293.15	0.5121	1.4408	0.001
293.15	0.5942	1.4525	0.001
293.15	0.678	1.4651	0.001
293.15	0.779	1.4807	0.001
293.15	0.881	1.497	0.001
293.15	1	1.5161	0.0009
298.15	0	1.3732	0.001
298.15	0.095	1.3844	0.001
298.15	0.193	1.3952	0.001
298.15	0.288	1.4081	0.001
298.15	0.391	1.4217	0.0009
298.15	0.5121	1.4382	0.0009
298.15	0.5942	1.45	0.0009
298.15	0.678	1.4626	0.0009
298.15	0.779	1.4783	0.0009
298.15	0.881	1.4946	0.0009
298.15	1	1.5141	0.0009
303.15	0	1.3709	0.0009
303.15	0.095	1.3819	0.001
303.15	0.193	1.3931	0.0009
303.15	0.288	1.4061	0.0009
303.15	0.391	1.4197	0.0009
303.15	0.5121	1.4365	0.0009
303.15	0.5942	1.4483	0.0009
303.15	0.678	1.4609	0.0009
303.15	0.779	1.4767	0.0009
303.15	0.881	1.4931	0.0009
303.15	1	1.5129	0.0009

System: anisole + hexane; phases: Liquid
Fixed: Pressure, kPa = 101
Property: Mass density, kg/m3 (Liquid); method: VIBTUB:UFactor:4
Temperature, K	Mole fraction of anisole	Mass density, kg/m3	uncertainty
293.15	0	659.5	0.91
293.15	0.0993	688.1	0.87
293.15	0.1959	716.85	0.82
293.15	0.3008	749.04	0.77
293.15	0.3998	780.42	0.73
293.15	0.5045	814.71	0.68
293.15	0.5936	844.84	0.64
293.15	0.6834	876.15	0.61
293.15	0.7909	914.94	0.58
293.15	0.8975	954.65	0.55
293.15	1	993.81	0.53
298.15	0	654.96	0.92
298.15	0.0993	683.56	0.87
298.15	0.1959	712.32	0.83
298.15	0.3008	744.42	0.78
298.15	0.3998	775.78	0.73
298.15	0.5045	810.08	0.68
298.15	0.5936	840.19	0.65
298.15	0.6834	871.52	0.61
298.15	0.7909	910.25	0.58
298.15	0.8975	949.92	0.55
298.15	1	989.15	0.53
303.15	0	650.42	0.93
303.15	0.0993	678.98	0.88
303.15	0.1959	707.69	0.83
303.15	0.3008	739.83	0.78
303.15	0.3998	771.15	0.74
303.15	0.5045	805.39	0.69
303.15	0.5936	835.52	0.65
303.15	0.6834	866.76	0.62
303.15	0.7909	905.45	0.58
303.15	0.8975	945.31	0.56
303.15	1	984.42	0.53

System: anisole + heptane; phases: Liquid
Fixed: Pressure, kPa = 101
Property: Viscosity, Pa*s (Liquid); method: CAPTUB:UFactor:2
Temperature, K	Mole fraction of anisole	Viscosity, Pa*s	uncertainty
293.15	0	0.0004127	8.1e-06
293.15	0.1002	0.0004315	8.4e-06
293.15	0.2002	0.0004541	8.7e-06
293.15	0.2987	0.0004775	9e-06
293.15	0.3994	0.0005184	9.7e-06
293.15	0.4996	0.0005675	1.04e-05
293.15	0.5958	0.0006285	1.14e-05
293.15	0.6993	0.0007129	1.26e-05
293.15	0.7981	0.0008105	1.41e-05
293.15	0.8991	0.0009337	1.59e-05
293.15	1	0.0010845	1.81e-05
298.15	0	0.0003909	7.8e-06
298.15	0.1002	0.0004121	8.1e-06
298.15	0.2002	0.000434	8.4e-06
298.15	0.2987	0.0004581	8.7e-06
298.15	0.3994	0.0004896	9.2e-06
298.15	0.4996	0.0005347	9.9e-06
298.15	0.5958	0.0005911	1.08e-05
298.15	0.6993	0.0006692	1.19e-05
298.15	0.7981	0.0007613	1.33e-05
298.15	0.8991	0.0008767	1.5e-05
298.15	1	0.0010169	1.72e-05
303.15	0	0.0003702	7.5e-06
303.15	0.1002	0.0003918	7.8e-06
303.15	0.2002	0.0004135	8.1e-06
303.15	0.2987	0.0004356	8.4e-06
303.15	0.3994	0.0004639	8.8e-06
303.15	0.4996	0.0005064	9.5e-06
303.15	0.5958	0.0005603	1.03e-05
303.15	0.6993	0.0006322	1.13e-05
303.15	0.7981	0.0007161	1.26e-05
303.15	0.8991	0.0008197	1.42e-05
303.15	1	0.0009285	1.6e-05

System: anisole + heptane; phases: Liquid
Fixed: Pressure, kPa = 101
Property: Refractive index (Na D-line) (Liquid); method: ABBE:UFactor:2
Temperature, K	Mole fraction of anisole	Refractive index (Na D-line)	uncertainty
293.15	0	1.3872	0.0009
293.15	0.1007	1.3975	0.0009
293.15	0.21	1.4087	0.0009
293.15	0.31	1.4189	0.001
293.15	0.405	1.4294	0.001
293.15	0.4985	1.4407	0.001
293.15	0.583	1.4516	0.001
293.15	0.6989	1.4683	0.001
293.15	0.792	1.4826	0.001
293.15	0.8941	1.499	0.001
293.15	1	1.5161	0.0009
298.15	0	1.3855	0.0009
298.15	0.1007	1.3954	0.001
298.15	0.21	1.4064	0.001
298.15	0.31	1.4167	0.001
298.15	0.405	1.4272	0.0009
298.15	0.4985	1.4385	0.0009
298.15	0.583	1.4495	0.0009
298.15	0.6989	1.466	0.0009
298.15	0.792	1.4802	0.0009
298.15	0.8941	1.4966	0.0009
298.15	1	1.5141	0.0009
303.15	0	1.3827	0.001
303.15	0.1007	1.3924	0.001
303.15	0.21	1.4036	0.001
303.15	0.31	1.414	0.001
303.15	0.405	1.4248	0.0009
303.15	0.4985	1.4362	0.0009
303.15	0.583	1.4474	0.0009
303.15	0.6989	1.464	0.0009
303.15	0.792	1.4782	0.0009
303.15	0.8941	1.4947	0.0009
303.15	1	1.5129	0.0009

System: anisole + heptane; phases: Liquid
Fixed: Pressure, kPa = 101
Property: Mass density, kg/m3 (Liquid); method: VIBTUB:UFactor:4
Temperature, K	Mole fraction of anisole	Mass density, kg/m3	uncertainty
293.15	0	683.96	0.87
293.15	0.1002	707.25	0.83
293.15	0.2002	731.96	0.8
293.15	0.2987	757.78	0.76
293.15	0.3994	785.83	0.72
293.15	0.4996	815.43	0.68
293.15	0.5958	845.62	0.64
293.15	0.6993	880.28	0.61
293.15	0.7981	915.67	0.57
293.15	0.8991	953.76	0.55
293.15	1	993.81	0.53
298.15	0	679.77	0.88
298.15	0.1002	702.96	0.84
298.15	0.2002	727.61	0.8
298.15	0.2987	753.37	0.76
298.15	0.3994	781.36	0.72
298.15	0.4996	810.9	0.68
298.15	0.5958	841.04	0.65
298.15	0.6993	875.65	0.61
298.15	0.7981	911.07	0.58
298.15	0.8991	949.15	0.55
298.15	1	989.15	0.53
303.15	0	675.5	0.88
303.15	0.1002	698.59	0.85
303.15	0.2002	723.18	0.81
303.15	0.2987	748.88	0.77
303.15	0.3994	776.8	0.73
303.15	0.4996	806.29	0.69
303.15	0.5958	836.39	0.65
303.15	0.6993	870.94	0.61
303.15	0.7981	906.4	0.58
303.15	0.8991	944.46	0.56
303.15	1	984.42	0.53

System: anisole + octane; phases: Liquid
Fixed: Pressure, kPa = 101
Property: Viscosity, Pa*s (Liquid); method: CAPTUB:UFactor:2
Temperature, K	Mole fraction of anisole	Viscosity, Pa*s	uncertainty
293.15	0	0.0005464	1.01e-05
293.15	0.1031	0.0005523	1.02e-05
293.15	0.2253	0.000568	1.04e-05
293.15	0.3001	0.0005825	1.07e-05
293.15	0.4	0.0006136	1.11e-05
293.15	0.5092	0.0006541	1.17e-05
293.15	0.5998	0.0007026	1.25e-05
293.15	0.6977	0.0007639	1.34e-05
293.15	0.7998	0.0008456	1.47e-05
293.15	0.8975	0.0009497	1.62e-05
293.15	1	0.0010845	1.81e-05
298.15	0	0.0005123	9.6e-06
298.15	0.1031	0.0005195	9.7e-06
298.15	0.2253	0.0005349	9.9e-06
298.15	0.3001	0.0005446	1.01e-05
298.15	0.4	0.0005719	1.05e-05
298.15	0.5092	0.0006157	1.11e-05
298.15	0.5998	0.0006542	1.17e-05
298.15	0.6977	0.0007153	1.26e-05
298.15	0.7998	0.0007845	1.37e-05
298.15	0.8975	0.0008917	1.53e-05
298.15	1	0.0010169	1.72e-05
303.15	0	0.000483	9.1e-06
303.15	0.1031	0.0004917	9.3e-06
303.15	0.2253	0.0005042	9.5e-06
303.15	0.3001	0.0005166	9.6e-06
303.15	0.4	0.0005434	1e-05
303.15	0.5092	0.0005779	1.06e-05
303.15	0.5998	0.0006162	1.11e-05
303.15	0.6977	0.0006729	1.2e-05
303.15	0.7998	0.0007453	1.3e-05
303.15	0.8975	0.0008289	1.44e-05
303.15	1	0.0009285	1.6e-05

System: anisole + octane; phases: Liquid
Fixed: Pressure, kPa = 101
Property: Refractive index (Na D-line) (Liquid); method: ABBE:UFactor:2
Temperature, K	Mole fraction of anisole	Refractive index (Na D-line)	uncertainty
293.15	0	1.3965	0.0009
293.15	0.106	1.405	0.0009
293.15	0.231	1.4158	0.001
293.15	0.307	1.423	0.001
293.15	0.3991	1.4324	0.001
293.15	0.503	1.444	0.001
293.15	0.6	1.4562	0.001
293.15	0.69	1.4683	0.001
293.15	0.796	1.4838	0.001
293.15	0.8822	1.4973	0.001
293.15	1	1.5161	0.0009
298.15	0	1.3947	0.0009
298.15	0.106	1.4029	0.0009
298.15	0.231	1.4136	0.0009
298.15	0.307	1.4208	0.0009
298.15	0.3991	1.4303	0.0009
298.15	0.503	1.4419	0.0009
298.15	0.6	1.454	0.0009
298.15	0.69	1.4661	0.0009
298.15	0.796	1.4815	0.0009
298.15	0.8822	1.495	0.0009
298.15	1	1.5141	0.0009
303.15	0	1.3926	0.0009
303.15	0.106	1.4004	0.0009
303.15	0.231	1.4114	0.0009
303.15	0.307	1.4187	0.0009
303.15	0.3991	1.4283	0.0009
303.15	0.503	1.44	0.0009
303.15	0.6	1.4522	0.0009
303.15	0.69	1.4643	0.0009
303.15	0.796	1.4797	0.0009
303.15	0.8822	1.4933	0.0009
303.15	1	1.5129	0.0009

System: anisole + octane; phases: Liquid
Fixed: Pressure, kPa = 101
Property: Mass density, kg/m3 (Liquid); method: VIBTUB:UFactor:4
Temperature, K	Mole fraction of anisole	Mass density, kg/m3	uncertainty
293.15	0	702.61	0.84
293.15	0.1031	722.82	0.81
293.15	0.2253	749.02	0.77
293.15	0.3001	766.32	0.74
293.15	0.4	791.02	0.71
293.15	0.5092	820.49	0.67
293.15	0.5998	847.08	0.64
293.15	0.6977	878.22	0.61
293.15	0.7998	913.74	0.58
293.15	0.8975	950.96	0.55
293.15	1	993.81	0.53
298.15	0	698.57	0.85
298.15	0.1031	718.75	0.82
298.15	0.2253	744.78	0.78
298.15	0.3001	762.01	0.75
298.15	0.4	786.68	0.72
298.15	0.5092	816.09	0.68
298.15	0.5998	842.65	0.64
298.15	0.6977	873.72	0.61
298.15	0.7998	909.15	0.58
298.15	0.8975	946.32	0.56
298.15	1	989.15	0.53
303.15	0	694.56	0.85
303.15	0.1031	714.63	0.82
303.15	0.2253	740.6	0.78
303.15	0.3001	757.77	0.76
303.15	0.4	782.37	0.72
303.15	0.5092	811.7	0.68
303.15	0.5998	838.17	0.65
303.15	0.6977	869.19	0.61
303.15	0.7998	904.54	0.58
303.15	0.8975	941.63	0.56
303.15	1	984.42	0.53

System: anisole + nonane; phases: Liquid
Fixed: Pressure, kPa = 101
Property: Viscosity, Pa*s (Liquid); method: CAPTUB:UFactor:2
Temperature, K	Mole fraction of anisole	Viscosity, Pa*s	uncertainty
293.15	0	0.0007136	1.26e-05
293.15	0.1003	0.0007027	1.24e-05
293.15	0.1991	0.0006975	1.24e-05
293.15	0.2995	0.0007043	1.25e-05
293.15	0.3997	0.0007127	1.26e-05
293.15	0.4998	0.0007381	1.3e-05
293.15	0.5907	0.0007718	1.35e-05
293.15	0.6975	0.0008298	1.44e-05
293.15	0.8008	0.0009049	1.55e-05
293.15	0.898	0.0009871	1.68e-05
293.15	1	0.0010845	1.81e-05
298.15	0	0.0006715	1.2e-05
298.15	0.1003	0.0006663	1.19e-05
298.15	0.1991	0.0006588	1.18e-05
298.15	0.2995	0.000662	1.18e-05
298.15	0.3997	0.0006693	1.19e-05
298.15	0.4998	0.0006982	1.24e-05
298.15	0.5907	0.0007299	1.29e-05
298.15	0.6975	0.0007801	1.36e-05
298.15	0.8008	0.0008452	1.46e-05
298.15	0.898	0.0009159	1.57e-05
298.15	1	0.0010169	1.72e-05
303.15	0	0.0006307	1.14e-05
303.15	0.1003	0.0006209	1.12e-05
303.15	0.1991	0.0006172	1.12e-05
303.15	0.2995	0.0006139	1.11e-05
303.15	0.3997	0.0006315	1.14e-05
303.15	0.4998	0.0006485	1.17e-05
303.15	0.5907	0.0006758	1.21e-05
303.15	0.6975	0.0007158	1.27e-05
303.15	0.8008	0.0007771	1.37e-05
303.15	0.898	0.0008365	1.46e-05
303.15	1	0.0009285	1.6e-05

System: anisole + nonane; phases: Liquid
Fixed: Pressure, kPa = 101
Property: Refractive index (Na D-line) (Liquid); method: ABBE:UFactor:2
Temperature, K	Mole fraction of anisole	Refractive index (Na D-line)	uncertainty
293.15	0	1.404	0.0009
293.15	0.116	1.4119	0.0009
293.15	0.218	1.4191	0.0009
293.15	0.32	1.4276	0.0009
293.15	0.413	1.4361	0.0009
293.15	0.4989	1.4448	0.0009
293.15	0.5907	1.4553	0.001
293.15	0.673	1.466	0.001
293.15	0.782	1.4811	0.001
293.15	0.8965	1.4984	0.001
293.15	1	1.5161	0.0009
298.15	0	1.4027	0.0009
298.15	0.116	1.4103	0.0009
298.15	0.218	1.4173	0.0009
298.15	0.32	1.4257	0.0009
298.15	0.413	1.4343	0.0009
298.15	0.4989	1.443	0.0009
298.15	0.5907	1.4534	0.0009
298.15	0.673	1.4639	0.0009
298.15	0.782	1.4789	0.0009
298.15	0.8965	1.4961	0.0009
298.15	1	1.5141	0.0009
303.15	0	1.4002	0.001
303.15	0.116	1.4074	0.001
303.15	0.218	1.4148	0.0009
303.15	0.32	1.4234	0.0009
303.15	0.413	1.432	0.0009
303.15	0.4989	1.4409	0.0009
303.15	0.5907	1.4515	0.0009
303.15	0.673	1.4619	0.0009
303.15	0.782	1.4771	0.0009
303.15	0.8965	1.4944	0.0008
303.15	1	1.5129	0.0009

System: anisole + nonane; phases: Liquid
Fixed: Pressure, kPa = 101
Property: Mass density, kg/m3 (Liquid); method: VIBTUB:UFactor:16
Temperature, K	Mole fraction of anisole	Mass density, kg/m3	uncertainty
293.15	0	717.59	2.94
293.15	0.1003	737.55	2.79
293.15	0.1991	752.72	2.67
293.15	0.2995	776.9	2.48
293.15	0.3997	795.17	2.33
293.15	0.4998	819.75	2.14
293.15	0.5907	844.35	1.95
293.15	0.6975	876.64	1.7
293.15	0.8008	911.95	1.43
293.15	0.898	949.42	1.16
293.15	1	993.81	0.85
298.15	0	713.71	2.98
298.15	0.1003	730.48	2.84
298.15	0.1991	748.56	2.7
298.15	0.2995	768.71	2.54
298.15	0.3997	790.9	2.36
298.15	0.4998	815.37	2.17
298.15	0.5907	839.87	1.98
298.15	0.6975	872.08	1.73
298.15	0.8008	907.24	1.47
298.15	0.898	944.51	1.19
298.15	1	989.15	0.88
303.15	0	709.81	3.01
303.15	0.1003	726.35	2.88
303.15	0.1991	744.37	2.73
303.15	0.2995	764.41	2.57
303.15	0.3997	786.51	2.4
303.15	0.4998	810.88	2.21
303.15	0.5907	835.33	2.02
303.15	0.6975	867.39	1.77
303.15	0.8008	902.38	1.5
303.15	0.898	939.7	1.23
303.15	1	984.42	0.91

System: anisole + decane; phases: Liquid
Fixed: Pressure, kPa = 101
Property: Viscosity, Pa*s (Liquid); method: CAPTUB:UFactor:2
Temperature, K	Mole fraction of anisole	Viscosity, Pa*s	uncertainty
293.15	0	0.0009169	1.57e-05
293.15	0.0846	0.0008966	1.54e-05
293.15	0.173	0.0008837	1.52e-05
293.15	0.2574	0.000865	1.49e-05
293.15	0.3675	0.0008512	1.47e-05
293.15	0.4546	0.0008492	1.47e-05
293.15	0.5661	0.0008679	1.5e-05
293.15	0.6583	0.0008896	1.54e-05
293.15	0.7725	0.0009343	1.6e-05
293.15	0.8798	0.0009984	1.69e-05
293.15	1	0.0010845	1.81e-05
298.15	0	0.0008512	1.47e-05
298.15	0.0846	0.0008362	1.45e-05
298.15	0.173	0.0008195	1.42e-05
298.15	0.2574	0.0008019	1.39e-05
298.15	0.3675	0.0007887	1.38e-05
298.15	0.4546	0.0007883	1.38e-05
298.15	0.5661	0.000801	1.4e-05
298.15	0.6583	0.0008198	1.43e-05
298.15	0.7725	0.0008683	1.5e-05
298.15	0.8798	0.0009296	1.59e-05
298.15	1	0.0010169	1.72e-05
303.15	0	0.0007898	1.38e-05
303.15	0.0846	0.0007797	1.36e-05
303.15	0.173	0.0007679	1.34e-05
303.15	0.2574	0.0007542	1.32e-05
303.15	0.3675	0.0007392	1.3e-05
303.15	0.4546	0.0007322	1.29e-05
303.15	0.5661	0.0007387	1.3e-05
303.15	0.6583	0.0007585	1.33e-05
303.15	0.7725	0.000799	1.4e-05
303.15	0.8798	0.0008558	1.48e-05
303.15	1	0.0009285	1.6e-05

System: anisole + decane; phases: Liquid
Fixed: Pressure, kPa = 101
Property: Refractive index (Na D-line) (Liquid); method: ABBE:UFactor:2
Temperature, K	Mole fraction of anisole	Refractive index (Na D-line)	uncertainty
293.15	0	1.4148	0.001
293.15	0.1071	1.4198	0.0011
293.15	0.1979	1.425	0.0011
293.15	0.31	1.4328	0.0011
293.15	0.409	1.4405	0.0011
293.15	0.508	1.4495	0.001
293.15	0.6	1.4591	0.0011
293.15	0.686	1.4694	0.001
293.15	0.789	1.4831	0.001
293.15	0.887	1.4973	0.0011
293.15	1	1.5161	0.0009
298.15	0	1.4118	0.001
298.15	0.1071	1.4165	0.0011
298.15	0.1979	1.4218	0.001
298.15	0.31	1.4297	0.001
298.15	0.409	1.4374	0.001
298.15	0.508	1.4467	0.001
298.15	0.6	1.4563	0.001
298.15	0.686	1.4667	0.001
298.15	0.789	1.4803	0.001
298.15	0.887	1.4947	0.0009
298.15	1	1.5141	0.0009
303.15	0	1.4089	0.001
303.15	0.1071	1.4131	0.001
303.15	0.1979	1.4186	0.001
303.15	0.31	1.4269	0.001
303.15	0.409	1.4349	0.0009
303.15	0.508	1.4443	0.0009
303.15	0.6	1.4541	0.0009
303.15	0.686	1.4645	0.0009
303.15	0.789	1.4784	0.0009
303.15	0.887	1.4927	0.0008
303.15	1	1.5129	0.0009

System: anisole + decane; phases: Liquid
Fixed: Pressure, kPa = 101
Property: Mass density, kg/m3 (Liquid); method: VIBTUB:UFactor:4
Temperature, K	Mole fraction of anisole	Mass density, kg/m3	uncertainty
293.15	0	729.91	0.8
293.15	0.0846	742.22	0.78
293.15	0.173	756.19	0.76
293.15	0.2574	770.86	0.74
293.15	0.3675	792.19	0.71
293.15	0.4546	811.1	0.68
293.15	0.5661	838.25	0.65
293.15	0.6583	863.76	0.62
293.15	0.7725	900.09	0.59
293.15	0.8798	940.35	0.56
293.15	1	993.81	0.53
298.15	0	726.16	0.8
298.15	0.0846	738.35	0.78
298.15	0.173	752.25	0.76
298.15	0.2574	766.87	0.74
298.15	0.3675	788.11	0.71
298.15	0.4546	806.89	0.69
298.15	0.5661	833.93	0.65
298.15	0.6583	859.36	0.62
298.15	0.7725	895.52	0.59
298.15	0.8798	935.67	0.56
298.15	1	989.15	0.53
303.15	0	722.36	0.81
303.15	0.0846	734.48	0.79
303.15	0.173	748.48	0.77
303.15	0.2574	763.13	0.75
303.15	0.3675	784.45	0.72
303.15	0.4546	803.36	0.69
303.15	0.5661	830.59	0.66
303.15	0.6583	856.21	0.63
303.15	0.7725	892.66	0.59
303.15	0.8798	933.11	0.56
303.15	1	984.42	0.53

System: anisole + dodecane; phases: Liquid
Fixed: Pressure, kPa = 101
Property: Viscosity, Pa*s (Liquid); method: CAPTUB:UFactor:2
Temperature, K	Mole fraction of anisole	Viscosity, Pa*s	uncertainty
293.15	0	0.001487	2.43e-05
293.15	0.0992	0.0014131	2.31e-05
293.15	0.2015	0.001341	2.2e-05
293.15	0.2969	0.001272	2.1e-05
293.15	0.4102	0.00119	1.98e-05
293.15	0.4898	0.0011379	1.91e-05
293.15	0.6099	0.0010736	1.81e-05
293.15	0.702	0.0010391	1.76e-05
293.15	0.8023	0.0010317	1.75e-05
293.15	0.8976	0.0010465	1.77e-05
293.15	1	0.0010845	1.81e-05
298.15	0	0.0013728	2.27e-05
298.15	0.0992	0.0013122	2.17e-05
298.15	0.2015	0.0012485	2.07e-05
298.15	0.2969	0.0011811	1.97e-05
298.15	0.4102	0.0011035	1.86e-05
298.15	0.4898	0.0010522	1.78e-05
298.15	0.6099	0.0009944	1.69e-05
298.15	0.702	0.0009639	1.64e-05
298.15	0.8023	0.0009569	1.63e-05
298.15	0.8976	0.0009718	1.65e-05
298.15	1	0.0010169	1.72e-05
303.15	0	0.0012496	2.09e-05
303.15	0.0992	0.0011968	2.01e-05
303.15	0.2015	0.0011379	1.92e-05
303.15	0.2969	0.0010813	1.84e-05
303.15	0.4102	0.0010027	1.72e-05
303.15	0.4898	0.0009616	1.65e-05
303.15	0.6099	0.0009147	1.57e-05
303.15	0.702	0.0008922	1.53e-05
303.15	0.8023	0.0008858	1.52e-05
303.15	0.8976	0.0009132	1.56e-05
303.15	1	0.0009285	1.6e-05

System: anisole + dodecane; phases: Liquid
Fixed: Pressure, kPa = 101
Property: Refractive index (Na D-line) (Liquid); method: ABBE:UFactor:2
Temperature, K	Mole fraction of anisole	Refractive index (Na D-line)	uncertainty
293.15	0	1.421	0.0011
293.15	0.106	1.4239	0.0013
293.15	0.208	1.4289	0.0012
293.15	0.29	1.4335	0.0012
293.15	0.391	1.4406	0.0011
293.15	0.4886	1.4488	0.0011
293.15	0.607	1.4601	0.0011
293.15	0.7055	1.4707	0.0011
293.15	0.7845	1.4809	0.0011
293.15	0.88	1.4959	0.0011
293.15	1	1.5161	0.0009
298.15	0	1.4172	0.0011
298.15	0.106	1.4199	0.0011
298.15	0.208	1.4251	0.0011
298.15	0.29	1.4298	0.0011
298.15	0.391	1.4371	0.0011
298.15	0.4886	1.4455	0.001
298.15	0.607	1.457	0.001
298.15	0.7055	1.4677	0.001
298.15	0.7845	1.4779	0.001
298.15	0.88	1.493	0.001
298.15	1	1.5141	0.0009
303.15	0	1.4135	0.0011
303.15	0.106	1.4163	0.001
303.15	0.208	1.4213	0.0011
303.15	0.29	1.4263	0.001
303.15	0.391	1.4339	0.001
303.15	0.4886	1.4426	0.001
303.15	0.607	1.4545	0.0009
303.15	0.7055	1.4654	0.0009
303.15	0.7845	1.4756	0.0009
303.15	0.88	1.4908	0.0009
303.15	1	1.5129	0.0009

System: anisole + dodecane; phases: Liquid
Fixed: Pressure, kPa = 101
Property: Mass density, kg/m3 (Liquid); method: VIBTUB:UFactor:4
Temperature, K	Mole fraction of anisole	Mass density, kg/m3	uncertainty
293.15	0	748.78	0.77
293.15	0.0992	760.26	0.75
293.15	0.2015	773.6	0.73
293.15	0.2969	787.75	0.71
293.15	0.4102	807.23	0.69
293.15	0.4898	822.92	0.67
293.15	0.6099	850.24	0.64
293.15	0.702	875.28	0.61
293.15	0.8023	907.62	0.58
293.15	0.8976	944.56	0.56
293.15	1	993.81	0.53
298.15	0	745.14	0.77
298.15	0.0992	756.57	0.76
298.15	0.2015	769.83	0.74
298.15	0.2969	783.97	0.72
298.15	0.4102	803.3	0.69
298.15	0.4898	818.98	0.67
298.15	0.6099	846.1	0.64
298.15	0.702	871.03	0.61
298.15	0.8023	903.24	0.58
298.15	0.8976	940.04	0.56
298.15	1	989.15	0.53
303.15	0	741.52	0.78
303.15	0.0992	752.87	0.76
303.15	0.2015	766.07	0.74
303.15	0.2969	780.1	0.72
303.15	0.4102	799.35	0.7
303.15	0.4898	814.93	0.68
303.15	0.6099	841.96	0.64
303.15	0.702	866.78	0.62
303.15	0.8023	898.86	0.59
303.15	0.8976	935.51	0.56
303.15	1	984.42	0.53
