Measured thermophysical data. Surface tension, density, and speed of sound for the ternary mixture {diethyl carbonate + p-xylene + decane}
Source: J. Chem. Thermodyn., 2009, 10.1016/j.jct.2008.12.010
Compound 1: diethyl carbonate, C5H10O3, InChI=1S/C5H10O3/c1-3-7-5(6)8-4-2/h3-4H2,1-2H3, purity 99.5%
Compound 2: 1,4-dimethylbenzene, C8H10, InChI=1S/C8H10/c1-7-3-5-8(2)6-4-7/h3-6H,1-2H3, purity 99%
Compound 3: decane, C10H22, InChI=1S/C10H22/c1-3-5-7-9-10-8-6-4-2/h3-10H2,1-2H3, purity 99%

System: diethyl carbonate; phases: Liquid, Gas
Property: Surface tension liquid-gas, N/m (Liquid); method: Drop volume
Temperature, K	Surface tension liquid-gas, N/m	uncertainty
298.15	0.02543	0.00025

System: diethyl carbonate; phases: Liquid
Fixed: Pressure, kPa = 101.325
Property: Speed of sound, m/s (Liquid); method: Linear variable-path acoustic interferometer
Temperature, K	Speed of sound, m/s	uncertainty
288.15	1218	1.7
293.15	1197.7	1.7
298.15	1176.9	1.7
303.15	1156.3	1.7
308.15	1135.8	1.7

System: diethyl carbonate; phases: Liquid
Fixed: Pressure, kPa = 101.325
Property: Mass density, kg/m3 (Liquid); method: Vibrating tube method
Temperature, K	Mass density, kg/m3	uncertainty
288.15	980.4	0.13
293.15	974.81	0.13
298.15	969.19	0.13
303.15	963.6	0.13
308.15	957.92	0.13

System: 1,4-dimethylbenzene; phases: Liquid, Gas
Property: Surface tension liquid-gas, N/m (Liquid); method: Drop volume
Temperature, K	Surface tension liquid-gas, N/m	uncertainty
298.15	0.02743	0.0002

System: 1,4-dimethylbenzene; phases: Liquid
Fixed: Pressure, kPa = 101.325
Property: Speed of sound, m/s (Liquid); method: Linear variable-path acoustic interferometer
Temperature, K	Speed of sound, m/s	uncertainty
288.15	1350.7	2
293.15	1329.6	2
298.15	1308.4	2
303.15	1287.4	1.9
308.15	1266.4	1.9

System: 1,4-dimethylbenzene; phases: Liquid
Fixed: Pressure, kPa = 101.325
Property: Mass density, kg/m3 (Liquid); method: Vibrating tube method
Temperature, K	Mass density, kg/m3	uncertainty
288.15	865.2	0.23
293.15	860.9	0.24
298.15	856.58	0.24
303.15	852.21	0.24
308.15	847.83	0.24

System: decane; phases: Liquid, Gas
Property: Surface tension liquid-gas, N/m (Liquid); method: Drop volume
Temperature, K	Surface tension liquid-gas, N/m	uncertainty
298.15	0.0231	0.00018

System: decane; phases: Liquid
Fixed: Pressure, kPa = 101.325
Property: Speed of sound, m/s (Liquid); method: Linear variable-path acoustic interferometer
Temperature, K	Speed of sound, m/s	uncertainty
288.15	1274.4	1.9
293.15	1254.8	1.9
298.15	1234.7	1.9
303.15	1214.7	1.9
308.15	1194.9	1.9

System: decane; phases: Liquid
Fixed: Pressure, kPa = 101.325
Property: Mass density, kg/m3 (Liquid); method: Vibrating tube method
Temperature, K	Mass density, kg/m3	uncertainty
288.15	733.62	0.24
293.15	729.86	0.24
298.15	726.09	0.24
303.15	722.3	0.25
308.15	718.51	0.25

System: diethyl carbonate + 1,4-dimethylbenzene; phases: Liquid, Gas
Fixed: Temperature, K = 298.15
Property: Surface tension liquid-gas, N/m (Liquid); method: Drop volume
Mole fraction of diethyl carbonate	Surface tension liquid-gas, N/m	uncertainty
0.05201	0.02727	0.00028
0.09983	0.02712	0.00028
0.20225	0.02685	0.00027
0.30633	0.02661	0.00027
0.4043	0.02639	0.00026
0.4446	0.02631	0.00026
0.50424	0.02619	0.00026
0.5936	0.02601	0.00026
0.70407	0.0258	0.00026
0.79944	0.02565	0.00025
0.89675	0.02552	0.00025

System: diethyl carbonate + 1,4-dimethylbenzene; phases: Liquid, Gas
Property: Speed of sound, m/s (Liquid); method: Linear variable-path acoustic interferometer
Temperature, K	Mole fraction of diethyl carbonate	Speed of sound, m/s	uncertainty
288.15	0.0509	1343.5	2
288.15	0.0985	1336.8	1.9
288.15	0.19752	1322.8	1.9
288.15	0.2974	1308.7	1.9
288.15	0.39832	1294.6	1.9
288.15	0.50232	1280.2	1.8
288.15	0.54847	1274	1.8
288.15	0.5968	1267.5	1.8
288.15	0.64638	1261	1.8
288.15	0.69922	1254.2	1.8
288.15	0.79762	1241.8	1.7
288.15	0.8515	1235.1	1.7
288.15	0.90001	1229.4	1.7
288.15	0.95066	1223.5	1.7
293.15	0.04951	1322.7	1.9
293.15	0.09841	1315.9	1.9
293.15	0.20069	1301.6	1.9
293.15	0.3004	1287.6	1.9
293.15	0.40171	1273.5	1.8
293.15	0.49966	1260	1.8
293.15	0.59764	1246.8	1.8
293.15	0.65002	1239.9	1.8
293.15	0.69993	1233.4	1.8
293.15	0.79691	1221.2	1.7
293.15	0.85216	1214.5	1.7
293.15	0.95162	1203.1	1.7
298.15	0.05081	1301.4	1.9
298.15	0.1564	1286.7	1.9
298.15	0.25814	1272.5	1.9
298.15	0.30522	1265.9	1.9
298.15	0.40211	1252.4	1.8
298.15	0.49412	1239.7	1.8
298.15	0.50143	1238.7	1.8
298.15	0.59664	1226	1.8
298.15	0.68962	1213.8	1.8
298.15	0.74593	1206.7	1.7
298.15	0.89868	1188.4	1.7
298.15	0.94921	1182.6	1.7
303.15	0.05001	1280.6	1.9
303.15	0.09883	1274	1.9
303.15	0.19714	1260.3	1.9
303.15	0.30676	1245	1.8
303.15	0.39081	1233.2	1.8
303.15	0.49904	1218.4	1.8
303.15	0.54822	1211.7	1.8
303.15	0.60114	1204.7	1.8
303.15	0.6472	1198.6	1.8
303.15	0.69794	1192.1	1.7
303.15	0.7962	1179.8	1.7
303.15	0.90072	1167.4	1.7
303.15	0.95101	1161.6	1.7
308.15	0.09736	1253.3	1.9
308.15	0.20451	1238.5	1.9
308.15	0.29626	1225.7	1.8
308.15	0.40462	1210.4	1.8
308.15	0.49547	1197.8	1.8
308.15	0.54784	1190.9	1.8
308.15	0.60576	1183.1	1.8
308.15	0.65699	1176.5	1.7
308.15	0.69359	1171.9	1.7
308.15	0.74683	1165.2	1.7
308.15	0.80217	1158.4	1.7
308.15	0.90351	1146.5	1.7

System: diethyl carbonate + 1,4-dimethylbenzene; phases: Liquid, Gas
Property: Mass density, kg/m3 (Liquid); method: Vibrating tube method
Temperature, K	Mole fraction of diethyl carbonate	Mass density, kg/m3	uncertainty
288.15	0.0509	871.12	0.23
288.15	0.0985	876.57	0.23
288.15	0.19752	887.94	0.21
288.15	0.2974	899.4	0.2
288.15	0.39832	910.97	0.19
288.15	0.50232	922.91	0.18
288.15	0.54847	928.22	0.17
288.15	0.5968	933.78	0.17
288.15	0.64638	939.5	0.17
288.15	0.69922	945.6	0.16
288.15	0.79762	956.98	0.15
288.15	0.8515	963.21	0.15
288.15	0.90001	968.83	0.14
288.15	0.95066	974.69	0.14
293.15	0.04951	866.58	0.23
293.15	0.09841	872.13	0.23
293.15	0.20069	883.74	0.21
293.15	0.3004	895.04	0.2
293.15	0.40171	906.52	0.19
293.15	0.49966	917.64	0.18
293.15	0.59764	928.79	0.17
293.15	0.65002	934.76	0.17
293.15	0.69993	940.46	0.16
293.15	0.79691	951.55	0.15
293.15	0.85216	957.87	0.15
293.15	0.95162	969.28	0.14
298.15	0.05081	862.33	0.23
298.15	0.1564	874.2	0.22
298.15	0.25814	885.6	0.21
298.15	0.30522	890.87	0.2
298.15	0.40211	901.73	0.19
298.15	0.49412	912.05	0.18
298.15	0.50143	912.87	0.18
298.15	0.59664	923.58	0.17
298.15	0.68962	934.06	0.16
298.15	0.74593	940.42	0.16
298.15	0.89868	957.7	0.15
298.15	0.94921	963.41	0.14
303.15	0.05001	857.79	0.23
303.15	0.09883	863.2	0.23
303.15	0.19714	874.11	0.22
303.15	0.30676	886.26	0.2
303.15	0.39081	895.57	0.19
303.15	0.49904	907.57	0.18
303.15	0.54822	913.03	0.18
303.15	0.60114	918.91	0.17
303.15	0.6472	924.05	0.17
303.15	0.69794	929.7	0.16
303.15	0.7962	940.68	0.16
303.15	0.90072	952.41	0.15
303.15	0.95101	958.07	0.14
308.15	0.09736	858.51	0.23
308.15	0.20451	870.25	0.21
308.15	0.29626	880.29	0.2
308.15	0.40462	892.15	0.19
308.15	0.49547	902.1	0.18
308.15	0.54784	907.85	0.18
308.15	0.60576	914.21	0.17
308.15	0.65699	919.84	0.17
308.15	0.69359	923.87	0.17
308.15	0.74683	929.74	0.16
308.15	0.80217	935.86	0.16
308.15	0.90351	947.12	0.15

System: diethyl carbonate + decane; phases: Liquid, Gas
Fixed: Temperature, K = 298.15
Property: Surface tension liquid-gas, N/m (Liquid); method: Drop volume
Mole fraction of diethyl carbonate	Surface tension liquid-gas, N/m	uncertainty
0.04972	0.02298	0.00026
0.09958	0.02289	0.00026
0.1989	0.02286	0.00026
0.29661	0.02284	0.00026
0.39592	0.02289	0.00025
0.51436	0.02297	0.00025
0.55681	0.02298	0.00025
0.59962	0.02304	0.00025
0.70003	0.02324	0.00025
0.78869	0.02358	0.00025
0.89865	0.02427	0.00025
0.95156	0.02476	0.00025

System: diethyl carbonate + decane; phases: Liquid, Gas
Fixed: Temperature, K = 303.15
Property: Speed of sound, m/s (Liquid); method: Linear variable-path acoustic interferometer
Mole fraction of diethyl carbonate	Speed of sound, m/s	uncertainty
0.0495	1207.8	1.9
0.09861	1201.1	1.9
0.1979	1188.8	1.9
0.30122	1177.8	1.8
0.39948	1168.5	1.8
0.504	1160.2	1.8
0.54773	1157.2	1.8
0.60151	1153.9	1.8
0.69902	1149.6	1.7
0.79899	1147.7	1.7
0.90024	1149.1	1.7
0.95001	1151.4	1.7

System: diethyl carbonate + decane; phases: Liquid, Gas
Fixed: Temperature, K = 303.15
Property: Mass density, kg/m3 (Liquid); method: Vibrating tube method
Mole fraction of diethyl carbonate	Mass density, kg/m3	uncertainty
0.0495	729.09	0.24
0.09861	736.12	0.24
0.1979	751.5	0.23
0.30122	769.28	0.22
0.39948	788	0.21
0.504	810.31	0.2
0.54773	820.39	0.2
0.60151	833.53	0.19
0.69902	859.54	0.18
0.79899	889.41	0.17
0.90024	924.32	0.17
0.95001	943.19	0.16

System: 1,4-dimethylbenzene + decane; phases: Liquid, Gas
Fixed: Temperature, K = 298.15
Property: Surface tension liquid-gas, N/m (Liquid); method: Drop volume
Mole fraction of 1,4-dimethylbenzene	Surface tension liquid-gas, N/m	uncertainty
0.09726	0.02321	0.00026
0.19999	0.0234	0.00027
0.29592	0.02361	0.00027
0.40466	0.02389	0.00027
0.49981	0.02423	0.00027
0.53744	0.02437	0.00027
0.6024	0.02466	0.00027
0.69619	0.02515	0.00027
0.80253	0.02573	0.00027
0.89137	0.02633	0.00028
0.95029	0.02679	0.00028

System: 1,4-dimethylbenzene + decane; phases: Liquid, Gas
Property: Speed of sound, m/s (Liquid); method: Linear variable-path acoustic interferometer
Temperature, K	Mole fraction of 1,4-dimethylbenzene	Speed of sound, m/s	uncertainty
288.15	0.1092	1276.2	1.9
288.15	0.1984	1278.7	1.9
288.15	0.3105	1282.7	1.9
288.15	0.3427	1284.1	1.9
288.15	0.4919	1292.3	1.9
288.15	0.54382	1295.8	1.9
288.15	0.5995	1300.1	1.9
288.15	0.72933	1312.2	2
288.15	0.78293	1318.2	2
288.15	0.89935	1333.7	2
288.15	0.94994	1341.9	2
293.15	0.1092	1256.7	1.9
293.15	0.1984	1259	1.9
293.15	0.3427	1264.3	1.9
293.15	0.4919	1272.3	1.9
293.15	0.54382	1275.7	1.9
293.15	0.5995	1279.9	1.9
293.15	0.72933	1291.8	1.9
293.15	0.78293	1297.8	1.9
293.15	0.89935	1312.9	2
293.15	0.94994	1320.9	2
293.18	0.3105	1262.9	1.9
298.15	0.1092	1236.5	1.9
298.15	0.1984	1238.7	1.9
298.15	0.3105	1242.7	1.9
298.15	0.3427	1244	1.9
298.15	0.4919	1251.8	1.9
298.15	0.54382	1255.3	1.9
298.15	0.5995	1259.3	1.9
298.15	0.72933	1271.1	1.9
298.15	0.78293	1276.9	1.9
298.15	0.89935	1291.9	1.9
298.15	0.94994	1299.8	1.9
303.15	0.1092	1216.6	1.9
303.15	0.1984	1218.8	1.9
303.15	0.3105	1222.5	1.9
303.15	0.3427	1223.9	1.9
303.15	0.4919	1231.6	1.9
303.15	0.54382	1235	1.9
303.15	0.5995	1239	1.9
303.15	0.72933	1250.6	1.9
303.15	0.78293	1256.3	1.9
303.15	0.89935	1271.3	1.9
303.15	0.94994	1278.9	1.9

System: 1,4-dimethylbenzene + decane; phases: Liquid, Gas
Property: Mass density, kg/m3 (Liquid); method: Vibrating tube method
Temperature, K	Mole fraction of 1,4-dimethylbenzene	Mass density, kg/m3	uncertainty
288.15	0.1092	742.78	0.24
288.15	0.1984	750.98	0.24
288.15	0.3105	762.21	0.24
288.15	0.3427	765.62	0.24
288.15	0.4919	782.82	0.24
288.15	0.54382	789.38	0.24
288.15	0.5995	796.78	0.24
288.15	0.72933	815.71	0.24
288.15	0.78293	824.32	0.24
288.15	0.89935	844.93	0.24
288.15	0.94994	854.78	0.24
293.15	0.1092	739.03	0.24
293.15	0.1984	747.15	0.24
293.15	0.3427	761.75	0.24
293.15	0.4919	778.88	0.24
293.15	0.54382	785.41	0.24
293.15	0.5995	792.78	0.24
293.15	0.72933	811.62	0.24
293.15	0.78293	820.21	0.24
293.15	0.89935	840.73	0.24
293.15	0.94994	850.54	0.24
293.18	0.3105	758.36	0.24
298.15	0.1092	735.23	0.24
298.15	0.1984	743.31	0.24
298.15	0.3105	754.46	0.24
298.15	0.3427	757.83	0.24
298.15	0.4919	774.88	0.24
298.15	0.54382	781.38	0.24
298.15	0.5995	788.72	0.24
298.15	0.72933	807.48	0.24
298.15	0.78293	816.03	0.24
298.15	0.89935	836.47	0.24
298.15	0.94994	846.25	0.24
303.15	0.1092	731.39	0.24
303.15	0.1984	739.42	0.24
303.15	0.3105	750.53	0.24
303.15	0.3427	753.87	0.24
303.15	0.4919	770.85	0.24
303.15	0.54382	777.33	0.24
303.15	0.5995	784.63	0.24
303.15	0.72933	803.32	0.24
303.15	0.78293	811.82	0.24
303.15	0.89935	832.18	0.24
303.15	0.94994	841.92	0.24

System: diethyl carbonate + 1,4-dimethylbenzene + decane; phases: Liquid, Gas
Fixed: Temperature, K = 298.15
Property: Surface tension liquid-gas, N/m (Liquid); method: Drop volume
Mole fraction of diethyl carbonate	Mole fraction of 1,4-dimethylbenzene	Surface tension liquid-gas, N/m	uncertainty
0.04948	0.9003	0.02674	0.00028
0.05033	0.04985	0.0231	0.00026
0.09775	0.70062	0.02543	0.00027
0.09791	0.29771	0.02371	0.00026
0.09811	0.79378	0.0261	0.00027
0.09903	0.49835	0.02439	0.00027
0.09954	0.19889	0.02342	0.00026
0.1	0.09732	0.02322	0.00026
0.10037	0.39924	0.02403	0.00026
0.10084	0.59561	0.02488	0.00027
0.19754	0.19811	0.02341	0.00026
0.1979	0.40277	0.02411	0.00026
0.19792	0.49988	0.02454	0.00026
0.19818	0.10175	0.02316	0.00026
0.19839	0.29883	0.02379	0.00026
0.20051	0.59796	0.02511	0.00027
0.20109	0.69881	0.02575	0.00027
0.2967	0.30037	0.02387	0.00026
0.29828	0.10126	0.02318	0.00026
0.29933	0.19769	0.02357	0.00026
0.30071	0.50093	0.02477	0.00026
0.30078	0.39372	0.0243	0.00026
0.30403	0.59791	0.02552	0.00026
0.39712	0.30145	0.02397	0.00026
0.39881	0.39781	0.02457	0.00026
0.39953	0.19777	0.0236	0.00026
0.40066	0.50659	0.02546	0.00026
0.40503	0.09594	0.02318	0.00025
0.49598	0.09626	0.02333	0.00025
0.49897	0.40124	0.02512	0.00026
0.50452	0.30853	0.02444	0.00026
0.50486	0.19418	0.02376	0.00025
0.601	0.09904	0.02359	0.00025
0.6023	0.19851	0.02416	0.00025
0.60498	0.30008	0.02498	0.00026
0.68223	0.1055	0.02385	0.00025
0.70081	0.19966	0.02467	0.00025
0.80135	0.09836	0.02452	0.00025
0.89673	0.05296	0.0248	0.00025

System: diethyl carbonate + 1,4-dimethylbenzene + decane; phases: Liquid, Gas
Property: Speed of sound, m/s (Liquid); method: Linear variable-path acoustic interferometer
Temperature, K	Mole fraction of diethyl carbonate	Mole fraction of 1,4-dimethylbenzene	Speed of sound, m/s	uncertainty
288.15	0.05012	0.89997	1335.7	2
288.15	0.05281	0.0515	1269.6	1.9
288.15	0.09831	0.70319	1306.9	1.9
288.15	0.09857	0.39797	1279.3	1.9
288.15	0.09905	0.10276	1264.9	1.9
288.15	0.09963	0.80209	1320.8	1.9
288.15	0.10055	0.49264	1285.6	1.9
288.15	0.10058	0.20309	1268.6	1.9
288.15	0.10107	0.59505	1294.9	1.9
288.15	0.10155	0.30167	1273.2	1.9
288.15	0.19887	0.40112	1271.3	1.9
288.15	0.19961	0.70141	1305.9	1.9
288.15	0.1997	0.29979	1264.1	1.9
288.15	0.20029	0.09831	1253.2	1.9
288.15	0.20074	0.20168	1258.2	1.9
288.15	0.20241	0.59773	1291	1.9
288.15	0.2146	0.46646	1276	1.9
288.15	0.29906	0.29902	1256.6	1.9
288.15	0.30069	0.20083	1249.6	1.9
288.15	0.30113	0.59765	1291	1.9
288.15	0.30164	0.09917	1243.5	1.8
288.15	0.30752	0.38888	1264.3	1.9
288.15	0.3142	0.48042	1274.4	1.9
288.15	0.39484	0.4061	1263.8	1.8
288.15	0.39663	0.19873	1242.8	1.8
288.15	0.40066	0.30191	1251.9	1.8
288.15	0.4014	0.10002	1235.5	1.8
288.15	0.40309	0.49639	1276.9	1.8
288.15	0.49974	0.20057	1238.1	1.8
288.15	0.50628	0.29562	1248.9	1.8
288.15	0.50818	0.10355	1229.4	1.8
288.15	0.51955	0.37677	1260.4	1.8
288.15	0.59994	0.19983	1235.8	1.8
288.15	0.60264	0.10227	1224.9	1.8
288.15	0.60446	0.2976	1249.9	1.8
288.15	0.69919	0.0999	1222.8	1.8
288.15	0.69933	0.20107	1237.2	1.8
288.15	0.80056	0.10074	1224.5	1.7
288.15	0.89917	0.05168	1220.8	1.7
293.15	0.05012	0.89997	1315.4	1.9
293.15	0.05281	0.0515	1250.1	1.9
293.15	0.09831	0.70319	1286.9	1.9
293.15	0.09857	0.39797	1259.6	1.9
293.15	0.09905	0.10276	1245.3	1.9
293.15	0.09963	0.80209	1300.5	1.9
293.15	0.10055	0.49264	1265.8	1.9
293.15	0.10058	0.20309	1249	1.9
293.15	0.10107	0.59505	1275	1.9
293.15	0.10155	0.30167	1253.6	1.9
293.15	0.19887	0.40112	1251.4	1.9
293.15	0.19961	0.70141	1285.7	1.9
293.15	0.1997	0.29979	1244.4	1.9
293.15	0.20029	0.09831	1233.6	1.9
293.15	0.20074	0.20168	1238.4	1.9
293.15	0.20241	0.59773	1270.9	1.9
293.15	0.2146	0.46646	1256	1.9
293.15	0.29906	0.29902	1236.7	1.8
293.15	0.30069	0.20083	1229.7	1.8
293.15	0.30113	0.59765	1270.7	1.9
293.15	0.30164	0.09917	1223.8	1.8
293.15	0.30752	0.38888	1244.3	1.8
293.15	0.3142	0.48042	1254.3	1.8
293.15	0.39484	0.4061	1243.6	1.8
293.15	0.39663	0.19873	1222.8	1.8
293.15	0.40066	0.30191	1231.9	1.8
293.15	0.4014	0.10002	1215.7	1.8
293.15	0.40309	0.49639	1256.6	1.8
293.15	0.49974	0.20057	1218.1	1.8
293.15	0.50628	0.29562	1228.8	1.8
293.15	0.50818	0.10355	1209.5	1.8
293.15	0.51955	0.37677	1240.1	1.8
293.15	0.59994	0.19983	1215.7	1.8
293.15	0.60264	0.10227	1204.8	1.8
293.15	0.60446	0.2976	1229.6	1.8
293.15	0.69919	0.0999	1202.7	1.7
293.15	0.69933	0.20107	1217	1.8
293.15	0.80056	0.10074	1204.2	1.7
293.15	0.89917	0.05168	1200.6	1.7
298.15	0.05012	0.89997	1294.6	1.9
298.15	0.05281	0.0515	1230	1.9
298.15	0.09831	0.70319	1266.3	1.9
298.15	0.09857	0.39797	1239.3	1.9
298.15	0.09905	0.10276	1225.2	1.9
298.15	0.09963	0.80209	1279.8	1.9
298.15	0.10055	0.49264	1245.5	1.9
298.15	0.10058	0.20309	1228.8	1.9
298.15	0.10107	0.59505	1254.5	1.9
298.15	0.10155	0.30167	1233.4	1.9
298.15	0.19887	0.40112	1231	1.9
298.15	0.19961	0.70141	1264.9	1.9
298.15	0.1997	0.29979	1224	1.9
298.15	0.20029	0.09831	1213.4	1.9
298.15	0.20074	0.20168	1218.2	1.9
298.15	0.20241	0.59773	1250.3	1.9
298.15	0.2146	0.46646	1235.6	1.9
298.15	0.29906	0.29902	1216.3	1.8
298.15	0.30069	0.20083	1209.4	1.8
298.15	0.30113	0.59765	1249.8	1.9
298.15	0.30164	0.09917	1203.5	1.8
298.15	0.30752	0.38888	1223.8	1.8
298.15	0.3142	0.48042	1233.7	1.8
298.15	0.39484	0.4061	1222.9	1.8
298.15	0.39663	0.19873	1202.4	1.8
298.15	0.40066	0.30191	1211.4	1.8
298.15	0.4014	0.10002	1195.3	1.8
298.15	0.40309	0.49639	1235.7	1.8
298.15	0.49974	0.20057	1197.6	1.8
298.15	0.50628	0.29562	1208.1	1.8
298.15	0.50818	0.10355	1189.1	1.8
298.15	0.51955	0.37677	1219.3	1.8
298.15	0.59994	0.19983	1195.1	1.8
298.15	0.60264	0.10227	1184.3	1.8
298.15	0.60446	0.2976	1208.8	1.8
298.15	0.69919	0.0999	1182.1	1.7
298.15	0.69933	0.20107	1196.2	1.7
298.15	0.80056	0.10074	1183.6	1.7
298.15	0.89917	0.05168	1179.8	1.7
303.15	0.05012	0.89997	1273.8	1.9
303.15	0.05281	0.0515	1210.1	1.9
303.15	0.09831	0.70319	1245.9	1.9
303.15	0.09857	0.39797	1219.2	1.9
303.15	0.09905	0.10276	1205.2	1.9
303.15	0.09963	0.80209	1259.1	1.9
303.15	0.10055	0.49264	1225.3	1.9
303.15	0.10058	0.20309	1208.8	1.9
303.15	0.10107	0.59505	1234.2	1.9
303.15	0.10155	0.30167	1213.3	1.9
303.15	0.19887	0.40112	1210.8	1.9
303.15	0.19961	0.70141	1244.2	1.9
303.15	0.1997	0.29979	1203.9	1.9
303.15	0.20029	0.09831	1193.3	1.8
303.15	0.20074	0.20168	1198.1	1.8
303.15	0.20241	0.59773	1229.8	1.9
303.15	0.2146	0.46646	1215.3	1.9
303.15	0.29906	0.29902	1196	1.8
303.15	0.30069	0.20083	1189.2	1.8
303.15	0.30113	0.59765	1229.2	1.8
303.15	0.30164	0.09917	1183.3	1.8
303.15	0.30752	0.38888	1203.5	1.8
303.15	0.3142	0.48042	1213.2	1.8
303.15	0.39484	0.4061	1202.5	1.8
303.15	0.39663	0.19873	1182.2	1.8
303.15	0.40066	0.30191	1191	1.8
303.15	0.4014	0.10002	1175.1	1.8
303.15	0.40309	0.49639	1215	1.8
303.15	0.49974	0.20057	1177.2	1.8
303.15	0.50628	0.29562	1187.6	1.8
303.15	0.50818	0.10355	1168.8	1.8
303.15	0.51955	0.37677	1198.6	1.8
303.15	0.59994	0.19983	1174.6	1.8
303.15	0.60264	0.10227	1163.9	1.7
303.15	0.60446	0.2976	1188.2	1.8
303.15	0.69919	0.0999	1161.7	1.7
303.15	0.69933	0.20107	1175.7	1.7
303.15	0.80056	0.10074	1163	1.7
303.15	0.89917	0.05168	1159.2	1.7
308.15	0.05012	0.89997	1253.2	1.9
308.15	0.05281	0.0515	1190.2	1.9
308.15	0.09831	0.70319	1225.5	1.9
308.15	0.09857	0.39797	1199.1	1.9
308.15	0.09905	0.10276	1185.2	1.9
308.15	0.09963	0.80209	1238.5	1.9
308.15	0.10055	0.49264	1205.2	1.9
308.15	0.10058	0.20309	1188.8	1.9
308.15	0.10107	0.59505	1214	1.9
308.15	0.10155	0.30167	1193.3	1.9
308.15	0.19887	0.40112	1190.6	1.8
308.15	0.19961	0.70141	1223.5	1.9
308.15	0.1997	0.29979	1183.7	1.8
308.15	0.20029	0.09831	1173.3	1.8
308.15	0.20074	0.20168	1178	1.8
308.15	0.20241	0.59773	1209.3	1.8
308.15	0.2146	0.46646	1195	1.8
308.15	0.29906	0.29902	1175.8	1.8
308.15	0.30069	0.20083	1169	1.8
308.15	0.30113	0.59765	1208.5	1.8
308.15	0.30164	0.09917	1163.2	1.8
308.15	0.30752	0.38888	1183.1	1.8
308.15	0.3142	0.48042	1192.7	1.8
308.15	0.39484	0.4061	1182	1.8
308.15	0.39663	0.19873	1161.9	1.8
308.15	0.40066	0.30191	1170.6	1.8
308.15	0.4014	0.10002	1154.9	1.8
308.15	0.40309	0.49639	1194.4	1.8
308.15	0.49974	0.20057	1156.9	1.8
308.15	0.50628	0.29562	1167.2	1.8
308.15	0.50818	0.10355	1148.5	1.8
308.15	0.51955	0.37677	1178	1.8
308.15	0.59994	0.19983	1154.2	1.7
308.15	0.60264	0.10227	1143.6	1.7
308.15	0.60446	0.2976	1167.6	1.7
308.15	0.69919	0.0999	1141.3	1.7
308.15	0.69933	0.20107	1155.1	1.7
308.15	0.80056	0.10074	1138.7	1.7
308.15	0.89917	0.05168	1138.7	1.7

System: diethyl carbonate + 1,4-dimethylbenzene + decane; phases: Liquid, Gas
Property: Mass density, kg/m3 (Liquid); method: Vibrating tube method
Temperature, K	Mole fraction of diethyl carbonate	Mole fraction of 1,4-dimethylbenzene	Mass density, kg/m3	uncertainty
288.15	0.05012	0.89997	860.44	0.24
288.15	0.05281	0.0515	745.53	0.24
288.15	0.09831	0.70319	837.06	0.24
288.15	0.09857	0.39797	791.01	0.24
288.15	0.09905	0.10276	757.63	0.24
288.15	0.09963	0.80209	855.98	0.24
288.15	0.10055	0.49264	804.27	0.24
288.15	0.10058	0.20309	768.33	0.24
288.15	0.10107	0.59505	819.72	0.24
288.15	0.10155	0.30167	779.67	0.24
288.15	0.19887	0.40112	813.37	0.23
288.15	0.19961	0.70141	866.32	0.23
288.15	0.1997	0.29979	799.21	0.23
288.15	0.20029	0.09831	774.57	0.23
288.15	0.20074	0.20168	786.76	0.23
288.15	0.20241	0.59773	846.87	0.23
288.15	0.2146	0.46646	827.39	0.23
288.15	0.29906	0.29902	821.54	0.22
288.15	0.30069	0.20083	807.44	0.22
288.15	0.30113	0.59765	876.55	0.22
288.15	0.30164	0.09917	794.18	0.22
288.15	0.30752	0.38888	838.22	0.22
288.15	0.3142	0.48042	856.67	0.22
288.15	0.39484	0.4061	865.74	0.21
288.15	0.39663	0.19873	829.26	0.21
288.15	0.40066	0.30191	847.74	0.21
288.15	0.4014	0.10002	815.33	0.21
288.15	0.40309	0.49639	887.44	0.21
288.15	0.49974	0.20057	856.3	0.2
288.15	0.50628	0.29562	876.64	0.2
288.15	0.50818	0.10355	838.33	0.21
288.15	0.51955	0.37677	898.99	0.2
288.15	0.59994	0.19983	885.55	0.19
288.15	0.60264	0.10227	866.55	0.19
288.15	0.60446	0.2976	909.31	0.19
288.15	0.69919	0.0999	895.43	0.19
288.15	0.69933	0.20107	918.95	0.18
288.15	0.80056	0.10074	929.96	0.17
288.15	0.89917	0.05168	954.18	0.17
293.15	0.05012	0.89997	856.06	0.24
293.15	0.05281	0.0515	741.64	0.24
293.15	0.09831	0.70319	832.73	0.24
293.15	0.09857	0.39797	786.88	0.24
293.15	0.09905	0.10276	753.66	0.24
293.15	0.09963	0.80209	851.57	0.24
293.15	0.10055	0.49264	800.08	0.24
293.15	0.10058	0.20309	764.29	0.24
293.15	0.10107	0.59505	815.47	0.24
293.15	0.10155	0.30167	775.6	0.24
293.15	0.19887	0.40112	809.07	0.23
293.15	0.19961	0.70141	861.79	0.23
293.15	0.1997	0.29979	794.97	0.23
293.15	0.20029	0.09831	770.44	0.23
293.15	0.20074	0.20168	782.57	0.23
293.15	0.20241	0.59773	842.42	0.23
293.15	0.2146	0.46646	823.01	0.23
293.15	0.29906	0.29902	817.13	0.22
293.15	0.30069	0.20083	803.08	0.22
293.15	0.30113	0.59765	871.9	0.22
293.15	0.30164	0.09917	789.89	0.22
293.15	0.30752	0.38888	833.73	0.22
293.15	0.3142	0.48042	852.1	0.22
293.15	0.39484	0.4061	861.07	0.21
293.15	0.39663	0.19873	824.75	0.21
293.15	0.40066	0.30191	843.14	0.21
293.15	0.4014	0.10002	810.88	0.21
293.15	0.40309	0.49639	882.67	0.21
293.15	0.49974	0.20057	851.6	0.2
293.15	0.50628	0.29562	871.85	0.2
293.15	0.50818	0.10355	833.71	0.2
293.15	0.51955	0.37677	894.1	0.2
293.15	0.59994	0.19983	880.65	0.19
293.15	0.60264	0.10227	861.72	0.19
293.15	0.60446	0.2976	904.31	0.19
293.15	0.69919	0.0999	890.41	0.19
293.15	0.69933	0.20107	913.84	0.18
293.15	0.80056	0.10074	924.72	0.18
293.15	0.89917	0.05168	948.78	0.17
298.15	0.05012	0.89997	851.69	0.24
298.15	0.05281	0.0515	737.75	0.24
298.15	0.09831	0.70319	828.4	0.24
298.15	0.09857	0.39797	782.76	0.24
298.15	0.09905	0.10276	749.68	0.24
298.15	0.09963	0.80209	847.17	0.24
298.15	0.10055	0.49264	795.89	0.24
298.15	0.10058	0.20309	760.27	0.24
298.15	0.10107	0.59505	811.2	0.24
298.15	0.10155	0.30167	771.52	0.24
298.15	0.19887	0.40112	804.76	0.23
298.15	0.19961	0.70141	857.26	0.23
298.15	0.1997	0.29979	790.72	0.23
298.15	0.20029	0.09831	766.31	0.23
298.15	0.20074	0.20168	778.39	0.23
298.15	0.20241	0.59773	837.97	0.23
298.15	0.2146	0.46646	818.63	0.23
298.15	0.29906	0.29902	812.71	0.22
298.15	0.30069	0.20083	798.73	0.22
298.15	0.30113	0.59765	867.23	0.22
298.15	0.30164	0.09917	785.59	0.22
298.15	0.30752	0.38888	829.23	0.22
298.15	0.3142	0.48042	847.51	0.22
298.15	0.39484	0.4061	856.39	0.21
298.15	0.39663	0.19873	820.22	0.21
298.15	0.40066	0.30191	838.53	0.21
298.15	0.4014	0.10002	806.41	0.21
298.15	0.40309	0.49639	877.88	0.21
298.15	0.49974	0.20057	846.87	0.2
298.15	0.50628	0.29562	867.03	0.2
298.15	0.50818	0.10355	829.07	0.2
298.15	0.51955	0.37677	889.17	0.2
298.15	0.59994	0.19983	875.72	0.19
298.15	0.60264	0.10227	856.88	0.19
298.15	0.60446	0.2976	899.26	0.19
298.15	0.69919	0.0999	885.37	0.19
298.15	0.69933	0.20107	908.7	0.18
298.15	0.80056	0.10074	919.47	0.18
298.15	0.89917	0.05168	943.34	0.17
303.15	0.05012	0.89997	847.27	0.24
303.15	0.05281	0.0515	733.8	0.24
303.15	0.09831	0.70319	824.03	0.24
303.15	0.09857	0.39797	778.57	0.24
303.15	0.09905	0.10276	745.65	0.24
303.15	0.09963	0.80209	842.72	0.24
303.15	0.10055	0.49264	791.64	0.24
303.15	0.10058	0.20309	756.17	0.24
303.15	0.10107	0.59505	806.9	0.24
303.15	0.10155	0.30167	767.37	0.24
303.15	0.19887	0.40112	800.4	0.23
303.15	0.19961	0.70141	852.69	0.23
303.15	0.1997	0.29979	786.43	0.23
303.15	0.20029	0.09831	762.14	0.23
303.15	0.20074	0.20168	774.15	0.23
303.15	0.20241	0.59773	833.47	0.23
303.15	0.2146	0.46646	814.2	0.23
303.15	0.29906	0.29902	808.25	0.22
303.15	0.30069	0.20083	794.33	0.22
303.15	0.30113	0.59765	862.55	0.22
303.15	0.30164	0.09917	781.25	0.22
303.15	0.30752	0.38888	824.69	0.22
303.15	0.3142	0.48042	842.89	0.22
303.15	0.39484	0.4061	851.67	0.21
303.15	0.39663	0.19873	815.65	0.21
303.15	0.40066	0.30191	833.87	0.21
303.15	0.4014	0.10002	801.9	0.21
303.15	0.40309	0.49639	873.05	0.21
303.15	0.49974	0.20057	842.11	0.2
303.15	0.50628	0.29562	862.17	0.2
303.15	0.50818	0.10355	824.39	0.2
303.15	0.51955	0.37677	884.21	0.2
303.15	0.59994	0.19983	870.77	0.19
303.15	0.60264	0.10227	851.99	0.19
303.15	0.60446	0.2976	894.2	0.19
303.15	0.69919	0.0999	880.3	0.19
303.15	0.69933	0.20107	903.53	0.18
303.15	0.80056	0.10074	914.18	0.18
303.15	0.89917	0.05168	937.89	0.18
308.15	0.05012	0.89997	842.95	0.24
308.15	0.05281	0.0515	730.01	0.24
308.15	0.09831	0.70319	819.76	0.24
308.15	0.09857	0.39797	774.51	0.24
308.15	0.09905	0.10276	741.75	0.24
308.15	0.09963	0.80209	838.38	0.24
308.15	0.10055	0.49264	787.53	0.24
308.15	0.10058	0.20309	752.23	0.24
308.15	0.10107	0.59505	802.7	0.24
308.15	0.10155	0.30167	763.38	0.24
308.15	0.19887	0.40112	796.16	0.23
308.15	0.19961	0.70141	848.21	0.23
308.15	0.1997	0.29979	782.25	0.23
308.15	0.20029	0.09831	758.09	0.23
308.15	0.20074	0.20168	770.04	0.23
308.15	0.20241	0.59773	829.07	0.23
308.15	0.2146	0.46646	809.88	0.23
308.15	0.29906	0.29902	803.89	0.22
308.15	0.30069	0.20083	790.04	0.22
308.15	0.30113	0.59765	857.94	0.22
308.15	0.30164	0.09917	777.03	0.22
308.15	0.30752	0.38888	820.26	0.22
308.15	0.3142	0.48042	838.37	0.21
308.15	0.39484	0.4061	847.04	0.21
308.15	0.39663	0.19873	811.19	0.21
308.15	0.40066	0.30191	829.32	0.21
308.15	0.4014	0.10002	797.51	0.21
308.15	0.40309	0.49639	868.32	0.21
308.15	0.49974	0.20057	837.45	0.2
308.15	0.50628	0.29562	857.41	0.2
308.15	0.50818	0.10355	819.81	0.2
308.15	0.51955	0.37677	879.33	0.2
308.15	0.59994	0.19983	865.88	0.19
308.15	0.60264	0.10227	847.21	0.19
308.15	0.60446	0.2976	889.21	0.19
308.15	0.69919	0.0999	875.3	0.18
308.15	0.69933	0.20107	898.42	0.18
308.15	0.80056	0.10074	908.94	0.18
308.15	0.89917	0.05168	932.46	0.18
