Measured thermophysical data. Fully automatized apparatus for determining speed of sound for liquids in the temperature and pressure interval (283.15-343.15) K and (0.1-95) MPa
Source: J. Chem. Thermodyn., 2017, 10.1016/j.jct.2016.09.022
Compound 1: water, H2O, InChI=1S/H2O/h1H2, purity 99.8%
Compound 2: methanol, CH4O, InChI=1S/CH4O/c1-2/h2H,1H3, purity 99.99%
Compound 3: hexane, C6H14, InChI=1S/C6H14/c1-3-5-6-4-2/h3-6H2,1-2H3, purity 99%
Compound 4: heptane, C7H16, InChI=1S/C7H16/c1-3-5-7-6-4-2/h3-7H2,1-2H3, purity 99%
Compound 5: octane, C8H18, InChI=1S/C8H18/c1-3-5-7-8-6-4-2/h3-8H2,1-2H3, purity 99.5%
Compound 6: toluene, C7H8, InChI=1S/C7H8/c1-7-5-3-2-4-6-7/h2-6H,1H3, purity 99.8%
Compound 7: ethanol, C2H6O, InChI=1S/C2H6O/c1-2-3/h3H,2H2,1H3, purity 99.9%
Compound 8: propan-1-ol, C3H8O, InChI=1S/C3H8O/c1-2-3-4/h4H,2-3H2,1H3, purity 99.7%

System: water; phases: Liquid
Property: Mass density, kg/m3 (Liquid); method: Vibrating tube method
Temperature, K	Pressure, kPa	Mass density, kg/m3	uncertainty
298.15	101.325	997	2

System: water; phases: Liquid
Property: Refractive index (Na D-line) (Liquid); method: Standard Abbe refractometry
Temperature, K	Pressure, kPa	Refractive index (Na D-line)	uncertainty
298.15	101.325	1.3326	0.0027

System: water; phases: Liquid
Fixed: Frequency, MHz = 1.5
Property: Speed of sound, m/s (Liquid); method: Single path-length method
Temperature, K	Pressure, kPa	Speed of sound, m/s	uncertainty
283.15	100	1447.281	2.906
283.15	5100	1455.916	2.941
283.15	10100	1463.815	2.955
283.15	20100	1479.881	2.987
283.15	30100	1496.155	3.021
283.15	40100	1513.41	3.056
283.15	50100	1530.392	3.09
283.15	60100	1548.025	3.125
283.15	70100	1565.362	3.159
283.15	80100	1582.726	3.193
283.15	90100	1600.107	3.228
283.15	95100	1608.679	3.244
293.15	100	1482.36	2.975
293.15	5100	1490.546	3.009
293.15	10100	1498.892	3.026
293.15	20100	1515.252	3.058
293.15	30100	1531.874	3.091
293.15	40100	1548.564	3.124
293.15	50100	1565.328	3.157
293.15	60100	1582.184	3.191
293.15	70100	1599.084	3.224
293.15	80100	1615.781	3.257
293.15	90100	1632.374	3.289
293.15	95100	1640.722	3.3
303.15	100	1509.146	3.028
303.15	5100	1517.537	3.062
303.15	10100	1525.916	3.079
303.15	20100	1542.718	3.112
303.15	30100	1559.503	3.145
303.15	40100	1576.286	3.178
303.15	50100	1593.097	3.211
303.15	60100	1609.755	3.244
303.15	70100	1626.251	3.277
303.15	80100	1642.638	3.309
303.15	90100	1659.049	3.341
303.15	95100	1667.288	3.351
313.15	100	1528.882	3.066
313.15	5100	1537.556	3.102
313.15	10100	1546.138	3.119
313.15	20100	1563.233	3.152
313.15	30100	1580.272	3.186
313.15	40100	1597.091	3.219
313.15	50100	1613.828	3.252
313.15	60100	1630.44	3.284
313.15	70100	1646.869	3.317
313.15	80100	1663.269	3.349
313.15	90100	1679.42	3.38
313.15	95100	1687.508	3.392
323.15	100	1542.567	3.093
323.15	5100	1551.475	3.13
323.15	10100	1560.245	3.148
323.15	20100	1577.728	3.181
323.15	30100	1595.006	3.215
323.15	40100	1612.167	3.249
323.15	50100	1629.019	3.282
323.15	60100	1645.651	3.314
323.15	70100	1662.263	3.347
323.15	80100	1678.338	3.379
323.15	90100	1694.882	3.411
323.15	95100	1702.911	3.422
333.15	100	1550.998	3.11
333.15	5100	1560.105	3.148
333.15	10100	1569.202	3.166
333.15	20100	1587.142	3.201
333.15	30100	1604.821	3.235
333.15	40100	1622.223	3.269
333.15	50100	1639.338	3.303
333.15	60100	1656.318	3.336
333.15	70100	1673.053	3.369
333.15	80100	1689.632	3.401
333.15	90100	1705.914	3.433
333.15	95100	1713.987	3.447
343.15	100	1554.805	3.117
343.15	5100	1564.961	3.161
343.15	10100	1574.395	3.177
343.15	20100	1592.825	3.213
343.15	30100	1610.786	3.248
343.15	40100	1628.601	3.282
343.15	50100	1646.091	3.317
343.15	60100	1663.947	3.352
343.15	70100	1680.976	3.385
343.15	80100	1697.382	3.417
343.15	90100	1714.23	3.451
343.15	95100	1722.964	3.47

System: methanol; phases: Liquid
Property: Mass density, kg/m3 (Liquid); method: Vibrating tube method
Temperature, K	Pressure, kPa	Mass density, kg/m3	uncertainty
298.15	101.325	786.5	1.6

System: methanol; phases: Liquid
Property: Refractive index (Na D-line) (Liquid); method: Standard Abbe refractometry
Temperature, K	Pressure, kPa	Refractive index (Na D-line)	uncertainty
298.15	101.325	1.3263	0.0027

System: methanol; phases: Liquid
Fixed: Frequency, MHz = 1.5
Property: Speed of sound, m/s (Liquid); method: Single path-length method
Temperature, K	Pressure, kPa	Speed of sound, m/s	uncertainty
283.15	100	1154.26	2.32
283.15	5100	1181.98	2.61
283.15	10100	1209.29	2.63
283.15	20100	1258.71	2.69
283.15	30100	1303.63	2.75
283.15	40100	1345.19	2.81
283.15	50100	1384.44	2.87
283.15	60100	1421.04	2.93
283.15	70100	1456.18	2.99
283.15	80100	1489.13	3.05
283.15	90100	1520.72	3.11
283.15	95100	1536.04	3.13
293.15	100	1120.57	2.26
293.15	5100	1149.23	2.56
293.15	10100	1176.24	2.57
293.15	20100	1227.42	2.65
293.15	30100	1274.21	2.7
293.15	40100	1316.78	2.76
293.15	50100	1357.02	2.83
293.15	60100	1394.91	2.89
293.15	70100	1430.82	2.95
293.15	80100	1464.66	3
293.15	90100	1496.67	3.06
293.15	95100	1512.29	3.1
303.15	100	1087.36	2.19
303.15	5100	1118.04	2.53
303.15	10100	1146.42	2.54
303.15	20100	1199.36	2.61
303.15	30100	1248.09	2.67
303.15	40100	1292.47	2.72
303.15	50100	1333.73	2.79
303.15	60100	1372.76	2.85
303.15	70100	1409.71	2.91
303.15	80100	1444.61	2.97
303.15	90100	1477.65	3.03
303.15	95100	1493.75	3.05
313.15	100	1054.55	2.13
313.15	5100	1086.97	2.51
313.15	10100	1116.85	2.5
313.15	20100	1171.08	2.57
313.15	30100	1221.49	2.63
313.15	40100	1267.28	2.69
313.15	50100	1309.67	2.75
313.15	60100	1349.4	2.81
313.15	70100	1387.14	2.87
313.15	80100	1422.65	2.93
313.15	90100	1456.3	2.99
313.15	95100	1472.58	3.02
323.15	100	1022.05	2.07
323.15	5100	1055.83	2.48
323.15	10100	1087.24	2.47
323.15	20100	1143.75	2.53
323.15	30100	1195.28	2.59
323.15	40100	1242.68	2.65
323.15	50100	1286.3	2.71
323.15	60100	1326.64	2.77
323.15	70100	1365.04	2.83
323.15	80100	1401.32	2.89
323.15	90100	1435.88	2.95
323.15	95100	1452.31	2.98
333.15	100	989.77	2
333.15	5100	1025.18	2.47
333.15	10100	1058.03	2.44
333.15	20100	1117.18	2.5
333.15	30100	1169.75	2.55
333.15	40100	1218.61	2.61
333.15	50100	1263.58	2.67
333.15	60100	1304.75	2.73
333.15	70100	1343.62	2.79
333.15	80100	1380.76	2.86
333.15	90100	1415.87	2.92
333.15	95100	1432.69	2.95
343.15	120	957.61	1.94
343.15	5100	994.42	2.45
343.15	10100	1028.62	2.42
343.15	20100	1090.56	2.47
343.15	30100	1144.92	2.52
343.15	40100	1194.88	2.58
343.15	50100	1241.05	2.64
343.15	60100	1283.55	2.7
343.15	70100	1323.14	2.76
343.15	80100	1361.13	2.82
343.15	90100	1396.78	2.88
343.15	95100	1413.96	2.91

System: hexane; phases: Liquid
Property: Mass density, kg/m3 (Liquid); method: Vibrating tube method
Temperature, K	Pressure, kPa	Mass density, kg/m3	uncertainty
298.15	101.325	654.9	1.3

System: hexane; phases: Liquid
Property: Refractive index (Na D-line) (Liquid); method: Standard Abbe refractometry
Temperature, K	Pressure, kPa	Refractive index (Na D-line)	uncertainty
298.15	101.325	1.3723	0.0028

System: hexane; phases: Liquid
Fixed: Frequency, MHz = 1.5
Property: Speed of sound, m/s (Liquid); method: Single path-length method
Temperature, K	Pressure, kPa	Speed of sound, m/s	uncertainty
283.15	100	1147.27	2.53
283.15	5100	1183.79	2.94
283.15	10100	1218.57	2.95
283.15	20100	1283.18	3.01
283.15	30100	1339.64	3.06
283.15	40100	1391.87	3.13
283.15	50100	1440.16	3.19
283.15	60100	1484.83	3.25
283.15	70100	1526.93	3.32
283.15	80100	1566.5	3.38
283.15	90100	1604.59	3.45
283.15	95100	1622.58	3.47
293.15	100	1102.76	2.45
293.15	5100	1141.89	2.91
293.15	10100	1177.19	2.9
293.15	20100	1243.43	2.96
293.15	30100	1302.39	3.01
293.15	40100	1355.95	3.07
293.15	50100	1405.89	3.14
293.15	60100	1452.35	3.2
293.15	70100	1495.56	3.27
293.15	80100	1536.68	3.33
293.15	90100	1575.43	3.4
293.15	95100	1594.06	3.43
303.15	100	1056.21	2.37
303.15	5100	1097.94	2.9
303.15	10100	1135.78	2.86
303.15	20100	1204.39	2.92
303.15	30100	1266.46	2.97
303.15	40100	1321.9	3.03
303.15	50100	1373.73	3.09
303.15	60100	1421.07	3.15
303.15	70100	1464.44	3.22
303.15	80100	1508.26	3.29
303.15	90100	1548	3.35
303.15	95100	1567.08	3.38
313.15	100	1011.56	2.29
313.15	5100	1055.9	2.89
313.15	10100	1096.39	2.83
313.15	20100	1167.82	2.88
313.15	30100	1231.79	2.93
313.15	40100	1289.31	2.98
313.15	50100	1341.4	3.04
313.15	60100	1390.26	3.1
313.15	70100	1435.6	3.17
313.15	80100	1478.35	3.23
313.15	90100	1519.59	3.3
313.15	95100	1539.49	3.34
323.15	100	966.77	2.22
323.15	5100	1013.62	2.89
323.15	10100	1056.66	2.81
323.15	20100	1131.81	2.85
323.15	30100	1197.64	2.88
323.15	40100	1256.94	2.94
323.15	50100	1311.03	3
323.15	60100	1361.26	3.06
323.15	70100	1408.2	3.12
323.15	80100	1451.47	3.19
323.15	90100	1492.96	3.26
323.15	95100	1512.59	3.29
333.15	100	923.14	2.14
333.15	5100	972.45	2.89
333.15	10100	1017.24	2.8
333.15	20100	1096.29	2.83
333.15	30100	1163.99	2.85
333.15	40100	1225.38	2.89
333.15	50100	1280.57	2.95
333.15	60100	1331.65	3.02
333.15	70100	1380.51	3.08
333.15	80100	1425.56	3.15
333.15	90100	1467.55	3.21
333.15	95100	1487.51	3.24
343.15	105	877.65	2.07
343.15	5100	931.79	2.92
343.15	10100	977.66	2.79
343.15	20100	1060.57	2.81
343.15	30100	1131.3	2.82
343.15	40100	1194.61	2.86
343.15	50100	1252.12	2.91
343.15	60100	1304.41	2.98
343.15	70100	1354.14	3.04
343.15	80100	1400.13	3.1
343.15	90100	1442.15	3.17
343.15	95100	1463.36	3.21

System: heptane; phases: Liquid
Property: Mass density, kg/m3 (Liquid); method: Vibrating tube method
Temperature, K	Pressure, kPa	Mass density, kg/m3	uncertainty
298.15	101.325	679.5	1.4

System: heptane; phases: Liquid
Property: Refractive index (Na D-line) (Liquid); method: Standard Abbe refractometry
Temperature, K	Pressure, kPa	Refractive index (Na D-line)	uncertainty
298.15	101.325	1.3852	0.0028

System: heptane; phases: Liquid
Fixed: Frequency, MHz = 1.5
Property: Speed of sound, m/s (Liquid); method: Single path-length method
Temperature, K	Pressure, kPa	Speed of sound, m/s	uncertainty
283.15	100	1197.19	2.62
283.15	5100	1231.54	2.98
283.15	10100	1263.81	2.98
283.15	20100	1323.19	3.05
283.15	30100	1376.66	3.11
283.15	40100	1426.26	3.17
283.15	50100	1472.46	3.24
283.15	60100	1515.58	3.3
283.15	70100	1556.14	3.36
283.15	80100	1593.77	3.42
283.15	90100	1629.66	3.48
283.15	95100	1646.42	3.51
293.15	100	1153.91	2.54
293.15	5100	1189.64	2.94
293.15	10100	1223.37	2.93
293.15	20100	1284.82	3
293.15	30100	1340.09	3.06
293.15	40100	1391.48	3.12
293.15	50100	1439.01	3.18
293.15	60100	1483.28	3.25
293.15	70100	1525.26	3.31
293.15	80100	1564.93	3.38
293.15	90100	1602.26	3.44
293.15	95100	1620.61	3.47
303.15	100	1111.39	2.46
303.15	5100	1148.84	2.9
303.15	10100	1184.09	2.89
303.15	20100	1248.72	2.96
303.15	30100	1306.36	3.01
303.15	40100	1359.2	3.07
303.15	50100	1408.48	3.14
303.15	60100	1454.53	3.2
303.15	70100	1497.43	3.27
303.15	80100	1538.26	3.33
303.15	90100	1576.95	3.4
303.15	95100	1594.98	3.42
313.15	100	1068.78	2.39
313.15	5100	1108.9	2.88
313.15	10100	1145.23	2.85
313.15	20100	1212.34	2.92
313.15	30100	1272.12	2.96
313.15	40100	1326.29	3.03
313.15	50100	1377.4	3.09
313.15	60100	1424.72	3.16
313.15	70100	1468.71	3.22
313.15	80100	1510.32	3.29
313.15	90100	1549.85	3.35
313.15	95100	1568.85	3.38
323.15	100	1025.86	2.31
323.15	5100	1068.64	2.87
323.15	10100	1107.29	2.82
323.15	20100	1176.65	2.88
323.15	30100	1239.02	2.93
323.15	40100	1295.29	2.98
323.15	50100	1346.72	3.04
323.15	60100	1395.22	3.11
323.15	70100	1440.13	3.17
323.15	80100	1482.61	3.24
323.15	90100	1522.84	3.31
323.15	95100	1542.25	3.34
333.15	100	983.91	2.24
333.15	5100	1028.78	2.87
333.15	10100	1069.81	2.8
333.15	20100	1141.9	2.85
333.15	30100	1206.39	2.89
333.15	40100	1264.63	2.94
333.15	50100	1317.38	3
333.15	60100	1366.64	3.07
333.15	70100	1412.89	3.13
333.15	80100	1455.95	3.19
333.15	90100	1496.72	3.26
333.15	95100	1516.38	3.3
343.15	100	942.89	2.17
343.15	5100	989.64	2.86
343.15	10100	1032.5	2.79
343.15	20100	1108.43	2.82
343.15	30100	1174.61	2.85
343.15	40100	1234.9	2.9
343.15	50100	1289.33	2.96
343.15	60100	1339.54	3.02
343.15	70100	1386.97	3.09
343.15	80100	1431.25	3.15
343.15	90100	1472.69	3.22
343.15	95100	1492.65	3.25

System: octane; phases: Liquid
Property: Mass density, kg/m3 (Liquid); method: Vibrating tube method
Temperature, K	Pressure, kPa	Mass density, kg/m3	uncertainty
298.15	101.325	698.4	1.4

System: octane; phases: Liquid
Property: Refractive index (Na D-line) (Liquid); method: Standard Abbe refractometry
Temperature, K	Pressure, kPa	Refractive index (Na D-line)	uncertainty
298.15	101.325	1.3951	0.0028

System: octane; phases: Liquid
Fixed: Frequency, MHz = 1.5
Property: Speed of sound, m/s (Liquid); method: Single path-length method
Temperature, K	Pressure, kPa	Speed of sound, m/s	uncertainty
283.15	100	1234.58	2.54
283.15	5100	1267.06	2.87
283.15	10100	1296.87	2.89
283.15	20100	1353.62	2.96
283.15	30100	1405.73	3.03
283.15	40100	1453.45	3.09
283.15	50100	1497.98	3.16
283.15	60100	1539.83	3.23
283.15	70100	1579.76	3.3
283.15	80100	1618.95	3.36
283.15	90100	1652.42	3.41
283.15	95100	1670.72	3.46
293.15	100	1193.74	2.46
293.15	5100	1227.94	2.83
293.15	10100	1259.45	2.83
293.15	20100	1317.25	2.91
293.15	30100	1370.38	2.97
293.15	40100	1419.61	3.04
293.15	50100	1465.58	3.11
293.15	60100	1508.42	3.17
293.15	70100	1549.02	3.24
293.15	80100	1587.34	3.3
293.15	90100	1623.92	3.37
293.15	95100	1641.84	3.41
303.15	100	1151.82	2.38
303.15	5100	1187.62	2.8
303.15	10100	1220.99	2.79
303.15	20100	1282.11	2.86
303.15	30100	1336.81	2.92
303.15	40100	1388.06	2.99
303.15	50100	1435.5	3.06
303.15	60100	1480.01	3.13
303.15	70100	1521.7	3.19
303.15	80100	1561.42	3.26
303.15	90100	1598.88	3.32
303.15	95100	1617	3.35
313.15	100	1112.07	2.3
313.15	5100	1148.97	2.76
313.15	10100	1183.44	2.75
313.15	20100	1247.34	2.82
313.15	30100	1303.76	2.87
313.15	40100	1356.4	2.94
313.15	50100	1405.08	3.01
313.15	60100	1450.73	3.08
313.15	70100	1493.22	3.14
313.15	80100	1533.64	3.21
313.15	90100	1571.88	3.27
313.15	95100	1590.18	3.31
323.15	100	1071.08	2.23
323.15	5100	1110.36	2.73
323.15	10100	1146.13	2.71
323.15	20100	1212.3	2.78
323.15	30100	1271.56	2.83
323.15	40100	1325.33	2.89
323.15	50100	1375.24	2.96
323.15	60100	1421.82	3.03
323.15	70100	1465.52	3.09
323.15	80100	1506.58	3.16
323.15	90100	1545.71	3.23
323.15	95100	1564.52	3.26
333.15	100	1030.88	2.15
333.15	5100	1072.38	2.72
333.15	10100	1110.11	2.68
333.15	20100	1178.21	2.74
333.15	30100	1239.76	2.79
333.15	40100	1295.04	2.85
333.15	50100	1346.15	2.91
333.15	60100	1393.88	2.98
333.15	70100	1438.49	3.05
333.15	80100	1480.2	3.11
333.15	90100	1519.75	3.18
333.15	95100	1538.99	3.22
343.15	100	990.7	2.08
343.15	5100	1034.29	2.71
343.15	10100	1074.24	2.65
343.15	20100	1144.98	2.71
343.15	30100	1208.69	2.75
343.15	40100	1265.87	2.81
343.15	50100	1318	2.87
343.15	60100	1367.82	2.94
343.15	70100	1412.81	3
343.15	80100	1455.47	3.07
343.15	90100	1495.95	3.14
343.15	95100	1515.25	3.17

System: toluene; phases: Liquid
Property: Mass density, kg/m3 (Liquid); method: Vibrating tube method
Temperature, K	Pressure, kPa	Mass density, kg/m3	uncertainty
298.15	101.325	862.2	1.7

System: toluene; phases: Liquid
Property: Refractive index (Na D-line) (Liquid); method: Standard Abbe refractometry
Temperature, K	Pressure, kPa	Refractive index (Na D-line)	uncertainty
298.15	101.325	1.494	0.003

System: toluene; phases: Liquid
Fixed: Frequency, MHz = 1.5
Property: Speed of sound, m/s (Liquid); method: Single path-length method
Temperature, K	Pressure, kPa	Speed of sound, m/s	uncertainty
283.15	100	1369.51	2.76
283.15	5100	1395.38	2.97
283.15	10100	1418.1	2.98
283.15	20100	1460.8	3.05
283.15	30100	1500.85	3.11
283.15	40100	1538.73	3.17
283.15	50100	1574.42	3.23
283.15	60100	1608.09	3.29
283.15	70100	1640.29	3.35
283.15	80100	1670.88	3.4
283.15	90100	1700.34	3.46
283.15	95100	1714.55	3.48
293.15	100	1327.93	2.68
293.15	5100	1352.22	2.88
293.15	10100	1375.95	2.91
293.15	20100	1420.51	2.98
293.15	30100	1462.01	3.04
293.15	40100	1500.94	3.11
293.15	50100	1537.87	3.17
293.15	60100	1572.39	3.23
293.15	70100	1605.21	3.28
293.15	80100	1636.98	3.34
293.15	90100	1667.11	3.4
293.15	95100	1682	3.43
303.15	100	1284.12	2.59
303.15	5100	1309.85	2.82
303.15	10100	1334.31	2.84
303.15	20100	1380.91	2.91
303.15	30100	1423.98	2.98
303.15	40100	1464.73	3.04
303.15	50100	1503.32	3.11
303.15	60100	1539.56	3.16
303.15	70100	1572.07	3.22
303.15	80100	1605.18	3.29
303.15	90100	1638.2	3.35
303.15	95100	1653.48	3.36
313.15	100	1241.88	2.51
313.15	5100	1269.05	2.76
313.15	10100	1294.48	2.77
313.15	20100	1341.02	2.85
313.15	30100	1386.97	2.92
313.15	40100	1429.51	2.98
313.15	50100	1468.89	3.05
313.15	60100	1506.41	3.11
313.15	70100	1542.65	3.17
313.15	80100	1576.13	3.23
313.15	90100	1607.44	3.28
313.15	95100	1621.25	3.3
323.15	100	1200.18	2.43
323.15	5100	1229.2	2.72
323.15	10100	1256.38	2.73
323.15	20100	1306.39	2.8
323.15	30100	1352.73	2.86
323.15	40100	1396.27	2.93
323.15	50100	1436.93	2.99
323.15	60100	1474.87	3.05
323.15	70100	1510.98	3.11
323.15	80100	1545.26	3.17
323.15	90100	1576.7	3.22
323.15	95100	1591.15	3.25
333.15	100	1156.56	2.34
333.15	5100	1187.4	2.67
333.15	10100	1215.93	2.67
333.15	20100	1268.07	2.74
333.15	30100	1315.7	2.8
333.15	40100	1360.31	2.87
333.15	50100	1402.68	2.93
333.15	60100	1441.37	2.99
333.15	70100	1478.19	3.05
333.15	80100	1513.09	3.11
333.15	90100	1546.52	3.17
333.15	95100	1563.01	3.21
343.15	100	1117.95	2.26
343.15	5100	1149.09	2.61
343.15	10100	1178.93	2.63
343.15	20100	1234.27	2.69
343.15	30100	1283.92	2.75
343.15	40100	1329.5	2.81
343.15	50100	1371.36	2.88
343.15	60100	1413.48	2.95
343.15	70100	1451.47	3
343.15	80100	1487.57	3.07
343.15	90100	1522.09	3.13
343.15	95100	1538.74	3.16

System: ethanol; phases: Liquid
Property: Mass density, kg/m3 (Liquid); method: Vibrating tube method
Temperature, K	Pressure, kPa	Mass density, kg/m3	uncertainty
298.15	101.325	785.1	1.6

System: ethanol; phases: Liquid
Property: Refractive index (Na D-line) (Liquid); method: Standard Abbe refractometry
Temperature, K	Pressure, kPa	Refractive index (Na D-line)	uncertainty
298.15	101.325	1.3593	0.0027

System: ethanol; phases: Liquid
Fixed: Frequency, MHz = 1.5
Property: Speed of sound, m/s (Liquid); method: Single path-length method
Temperature, K	Pressure, kPa	Speed of sound, m/s	uncertainty
283.15	100	1198.84	2.41
283.15	5100	1227.7	2.71
283.15	10100	1255.68	2.73
283.15	20100	1306.52	2.79
283.15	30100	1353.11	2.86
283.15	40100	1396.96	2.92
283.15	50100	1437.91	2.99
283.15	60100	1476.07	3.05
283.15	70100	1512.46	3.11
283.15	80100	1547.17	3.17
283.15	90100	1580.23	3.23
283.15	95100	1596.11	3.26
293.15	100	1163.83	2.35
293.15	5100	1193.54	2.67
293.15	10100	1222.49	2.68
293.15	20100	1275.62	2.75
293.15	30100	1323.65	2.81
293.15	40100	1368.68	2.88
293.15	50100	1410.66	2.94
293.15	60100	1449.87	3
293.15	70100	1486.84	3.06
293.15	80100	1522.12	3.12
293.15	90100	1555.67	3.18
293.15	95100	1571.78	3.22
303.15	100	1129.34	2.28
303.15	5100	1159.78	2.62
303.15	10100	1189.78	2.64
303.15	20100	1245.03	2.71
303.15	30100	1295	2.76
303.15	40100	1340.56	2.83
303.15	50100	1384.19	2.9
303.15	60100	1424.63	2.96
303.15	70100	1462.66	3.02
303.15	80100	1498.07	3.08
303.15	90100	1532.53	3.14
303.15	95100	1549.3	3.17
313.15	100	1094.68	2.21
313.15	5100	1127.68	2.59
313.15	10100	1157.37	2.59
313.15	20100	1214.72	2.67
313.15	30100	1266.47	2.72
313.15	40100	1313.46	2.79
313.15	50100	1358.16	2.85
313.15	60100	1399.1	2.91
313.15	70100	1438.39	2.98
313.15	80100	1475.72	3.04
313.15	90100	1510.08	3.1
313.15	95100	1526.42	3.13
323.15	100	1060.44	2.14
323.15	5100	1094.54	2.56
323.15	10100	1126.54	2.56
323.15	20100	1185.19	2.63
323.15	30100	1238.85	2.68
323.15	40100	1287.51	2.74
323.15	50100	1332.41	2.81
323.15	60100	1374.84	2.87
323.15	70100	1414.71	2.94
323.15	80100	1452	3
323.15	90100	1487.47	3.06
323.15	95100	1504.52	3.09
333.15	100	1026.96	2.08
333.15	5100	1062.72	2.54
333.15	10100	1096.32	2.53
333.15	20100	1156.86	2.59
333.15	30100	1212.1	2.65
333.15	40100	1262.31	2.71
333.15	50100	1310.5	2.77
333.15	60100	1351.2	2.83
333.15	70100	1391.89	2.9
333.15	80100	1429.61	2.96
333.15	90100	1466.1	3.02
333.15	95100	1483.5	3.06
343.15	100	992.92	2.02
343.15	5100	1030.23	2.53
343.15	10100	1065.78	2.51
343.15	20100	1129.05	2.56
343.15	30100	1185.76	2.61
343.15	40100	1237.47	2.67
343.15	50100	1284.94	2.73
343.15	60100	1328.82	2.79
343.15	70100	1370.25	2.86
343.15	80100	1409.49	2.92
343.15	90100	1446.29	2.99
343.15	95100	1464.12	3.02

System: propan-1-ol; phases: Liquid
Property: Mass density, kg/m3 (Liquid); method: Vibrating tube method
Temperature, K	Pressure, kPa	Mass density, kg/m3	uncertainty
298.15	101.325	799.5	1.6

System: propan-1-ol; phases: Liquid
Property: Refractive index (Na D-line) (Liquid); method: Standard Abbe refractometry
Temperature, K	Pressure, kPa	Refractive index (Na D-line)	uncertainty
298.15	101.325	1.383	0.0028

System: propan-1-ol; phases: Liquid
Fixed: Frequency, MHz = 1.5
Property: Speed of sound, m/s (Liquid); method: Single path-length method
Temperature, K	Pressure, kPa	Speed of sound, m/s	uncertainty
283.15	100	1260.28	2.55
283.15	5100	1287.8	2.81
283.15	10100	1313.68	2.83
283.15	20100	1362.33	2.9
283.15	30100	1407.88	2.97
283.15	40100	1450.32	3.03
283.15	50100	1490.18	3.09
283.15	60100	1527.38	3.16
283.15	70100	1563.24	3.22
283.15	80100	1597.21	3.28
283.15	90100	1630	3.34
283.15	95100	1645.7	3.37
293.15	100	1223.49	2.48
293.15	5100	1252.24	2.76
293.15	10100	1279.56	2.78
293.15	20100	1329.97	2.85
293.15	30100	1376.96	2.92
293.15	40100	1420.78	2.98
293.15	50100	1461.71	3.05
293.15	60100	1500.26	3.11
293.15	70100	1537.17	3.17
293.15	80100	1572.1	3.23
293.15	90100	1605.29	3.29
293.15	95100	1621.63	3.33
303.15	100	1189.2	2.41
303.15	5100	1219.56	2.73
303.15	10100	1248.2	2.74
303.15	20100	1300.92	2.81
303.15	30100	1349.07	2.87
303.15	40100	1394.32	2.94
303.15	50100	1436.61	3
303.15	60100	1476.16	3.07
303.15	70100	1513.66	3.13
303.15	80100	1549.54	3.19
303.15	90100	1583.6	3.25
303.15	95100	1600.09	3.28
313.15	100	1155.28	2.35
313.15	5100	1186.69	2.69
313.15	10100	1216.4	2.7
313.15	20100	1271.36	2.77
313.15	30100	1320.64	2.83
313.15	40100	1366.84	2.89
313.15	50100	1410.07	2.96
313.15	60100	1450.64	3.02
313.15	70100	1489.46	3.09
313.15	80100	1525.88	3.15
313.15	90100	1560.38	3.21
313.15	95100	1577.21	3.24
323.15	100	1121.68	2.28
323.15	5100	1153.79	2.65
323.15	10100	1184.57	2.66
323.15	20100	1241.65	2.73
323.15	30100	1293	2.79
323.15	40100	1340.18	2.85
323.15	50100	1384.58	2.92
323.15	60100	1426.43	2.98
323.15	70100	1465.08	3.04
323.15	80100	1502.27	3.11
323.15	90100	1537.53	3.17
323.15	95100	1554.43	3.2
333.15	100	1088.35	2.22
333.15	5100	1122.22	2.62
333.15	10100	1153.71	2.62
333.15	20100	1212.78	2.69
333.15	30100	1265.86	2.75
333.15	40100	1314.16	2.81
333.15	50100	1359.73	2.88
333.15	60100	1402.16	2.94
333.15	70100	1441.89	3
333.15	80100	1479.29	3.06
333.15	90100	1515.23	3.13
333.15	95100	1532.6	3.16
343.15	100	1054.38	2.15
343.15	5100	1090.25	2.6
343.15	10100	1123.39	2.59
343.15	20100	1183.94	2.66
343.15	30100	1239.19	2.71
343.15	40100	1289.22	2.77
343.15	50100	1335.47	2.84
343.15	60100	1379.01	2.9
343.15	70100	1419.94	2.96
343.15	80100	1458.17	3.03
343.15	90100	1497.22	3.1
343.15	95100	1512.2	3.1
