Measured thermophysical data. Study of thermodynamic properties of aqueous binary mixtures of L-threonine,  L-valine and L-arginine at low temperatures (T/K = 275.15, 279.15 and 283.15)
Source: J. Chem. Thermodyn., 2013, 10.1016/j.jct.2012.12.010
Compound 1: L-threonine, C4H9NO3, InChI=1S/C4H9NO3/c1-2(6)3(5)4(7)8/h2-3,6H,5H2,1H3,(H,7,8)/t2-,3+/m1/s1, purity 99%
Compound 2: L-valine, C5H11NO2, InChI=1S/C5H11NO2/c1-3(2)4(6)5(7)8/h3-4H,6H2,1-2H3,(H,7,8)/t4-/m0/s1, purity 99%
Compound 3: L-arginine, C6H14N4O2, InChI=1S/C6H14N4O2/c7-4(5(11)12)2-1-3-10-6(8)9/h4H,1-3,7H2,(H,11,12)(H4,8,9,10)/t4-/m0/s1, purity 99%
Compound 4: water, H2O, InChI=1S/H2O/h1H2, purity 99%

System: water; phases: Liquid
Fixed: Pressure, kPa = 101
Property: Mass density, kg/m3 (Liquid); method: Pycnometric method
Temperature, K	Mass density, kg/m3	uncertainty
275.15	999.94	0.47
279.15	999.94	0.47
283.15	999.7	0.46

System: water; phases: Liquid
Fixed: Pressure, kPa = 101
Property: Speed of sound, m/s (Liquid); method: Linear variable-path acoustic interferometer
Temperature, K	Speed of sound, m/s	uncertainty
275.15	1412.2	2.8
279.15	1430.6	2.8
283.15	1447.3	2.8

System: L-threonine + water; phases: Liquid
Fixed: Pressure, kPa = 101
Property: Mass density, kg/m3 (Liquid); method: Pycnometric method
Temperature, K	Molality, mol/kg of L-threonine	Mass density, kg/m3	uncertainty
275.15	0	999.94	0.47
275.15	0.0337	1001.56	0.48
275.15	0.0672	1003.12	0.48
275.15	0.1009	1004.6	0.48
275.15	0.1338	1006.09	0.48
275.15	0.1674	1007.23	0.48
275.15	0.2002	1008.62	0.48
275.15	0.2334	1010.1	0.48
275.15	0.2689	1011.67	0.48
275.15	0.3009	1012.89	0.48
275.15	0.3345	1014.39	0.48
275.15	0.3679	1015.8	0.48
275.15	0.4054	1017.24	0.48
279.15	0	999.94	0.47
279.15	0.0337	1001.55	0.47
279.15	0.0671	1002.96	0.47
279.15	0.101	1004.52	0.47
279.15	0.1342	1005.69	0.47
279.15	0.1665	1006.97	0.47
279.15	0.2002	1008.49	0.47
279.15	0.235	1009.98	0.47
279.15	0.2673	1011.46	0.47
279.15	0.2996	1012.62	0.47
279.15	0.3683	1015.5	0.48
279.15	0.4005	1016.91	0.48
283.15	0	999.7	0.46
283.15	0.0224	1000.69	0.46
283.15	0.0677	1002.52	0.46
283.15	0.101	1004.25	0.46
283.15	0.1362	1005.58	0.46
283.15	0.1665	1006.81	0.46
283.15	0.2005	1008.32	0.46
283.15	0.2345	1009.56	0.46
283.15	0.2725	1011.21	0.47
283.15	0.2996	1012.33	0.47
283.15	0.3351	1013.76	0.47
283.15	0.3677	1015.01	0.47
283.15	0.3928	1016.16	0.47

System: L-threonine + water; phases: Liquid
Fixed: Pressure, kPa = 101
Property: Speed of sound, m/s (Liquid); method: Linear variable-path acoustic interferometer
Temperature, K	Molality, mol/kg of L-threonine	Speed of sound, m/s	uncertainty
275.15	0	1412.2	2.8
275.15	0.0337	1415.3	2.8
275.15	0.0672	1418.7	2.8
275.15	0.1009	1422	2.8
275.15	0.1338	1425.3	2.8
275.15	0.1674	1428.6	2.8
275.15	0.2002	1431.8	2.7
275.15	0.2334	1435.1	2.7
275.15	0.2689	1438.6	2.7
275.15	0.3009	1441.8	2.7
275.15	0.3345	1445.1	2.7
275.15	0.3679	1448.4	2.7
275.15	0.4054	1452.2	2.7
279.15	0	1430.6	2.8
279.15	0.0337	1433.1	2.8
279.15	0.0671	1436.2	2.8
279.15	0.101	1439.3	2.8
279.15	0.1342	1442.3	2.8
279.15	0.1665	1445.3	2.8
279.15	0.2002	1448.4	2.8
279.15	0.235	1451.6	2.8
279.15	0.2673	1454.5	2.8
279.15	0.2996	1457.5	2.8
279.15	0.3683	1463.8	2.7
279.15	0.4005	1466.8	2.7
283.15	0	1447.3	2.8
283.15	0.0224	1449	2.8
283.15	0.0677	1453.1	2.8
283.15	0.101	1456.1	2.8
283.15	0.1362	1459.2	2.8
283.15	0.1665	1461.9	2.8
283.15	0.2005	1465	2.8
283.15	0.2345	1468.1	2.8
283.15	0.2725	1471.5	2.8
283.15	0.2996	1473.9	2.8
283.15	0.3351	1477.1	2.8
283.15	0.3677	1480	2.8
283.15	0.3928	1482.3	2.8

System: L-valine + water; phases: Liquid
Fixed: Pressure, kPa = 101
Property: Mass density, kg/m3 (Liquid); method: Pycnometric method
Temperature, K	Molality, mol/kg of L-valine	Mass density, kg/m3	uncertainty
275.15	0	999.94	0.47
275.15	0.034	1000.99	0.48
275.15	0.0672	1001.86	0.48
275.15	0.1028	1002.93	0.48
275.15	0.1349	1003.79	0.48
275.15	0.1675	1004.61	0.48
275.15	0.2021	1005.54	0.48
275.15	0.233	1006.4	0.48
275.15	0.2667	1007.34	0.48
275.15	0.3009	1008.25	0.48
275.15	0.3669	1009.99	0.48
275.15	0.4066	1011.08	0.48
279.15	0	999.94	0.47
279.15	0.0341	1000.9	0.47
279.15	0.0671	1001.87	0.47
279.15	0.1009	1002.75	0.47
279.15	0.1418	1003.8	0.47
279.15	0.1696	1004.51	0.47
279.15	0.2021	1005.51	0.47
279.15	0.2382	1006.36	0.47
279.15	0.2782	1007.44	0.47
279.15	0.2983	1007.95	0.47
279.15	0.3342	1008.96	0.47
279.15	0.3652	1009.77	0.47
279.15	0.3951	1010.57	0.47
283.15	0	999.7	0.46
283.15	0.0341	1000.61	0.46
283.15	0.0669	1001.41	0.46
283.15	0.1015	1002.33	0.46
283.15	0.1349	1003.08	0.46
283.15	0.1666	1004.17	0.46
283.15	0.2025	1005.15	0.46
283.15	0.2321	1006.04	0.46
283.15	0.2787	1007.06	0.46
283.15	0.297	1007.53	0.46
283.15	0.3314	1008.49	0.46
283.15	0.3663	1009.41	0.46
283.15	0.3972	1010.11	0.47

System: L-valine + water; phases: Liquid
Fixed: Pressure, kPa = 101
Property: Speed of sound, m/s (Liquid); method: Linear variable-path acoustic interferometer
Temperature, K	Molality, mol/kg of L-valine	Speed of sound, m/s	uncertainty
275.15	0	1412.2	2.8
275.15	0.034	1416.5	2.8
275.15	0.0672	1420.9	2.8
275.15	0.1028	1425.7	2.7
275.15	0.1349	1429.9	2.7
275.15	0.1675	1434.3	2.7
275.15	0.2021	1438.9	2.7
275.15	0.233	1443	2.7
275.15	0.2667	1447.5	2.7
275.15	0.3009	1452	2.7
275.15	0.3669	1460.8	2.7
275.15	0.4066	1466.1	2.7
279.15	0	1430.6	2.8
279.15	0.0341	1434.1	2.8
279.15	0.0671	1438.1	2.8
279.15	0.1009	1442.1	2.7
279.15	0.1418	1447	2.7
279.15	0.1696	1450.4	2.7
279.15	0.2021	1454.3	2.7
279.15	0.2382	1458.6	2.7
279.15	0.2782	1463.4	2.7
279.15	0.2983	1465.8	2.7
279.15	0.3342	1470.2	2.7
279.15	0.3652	1473.9	2.7
279.15	0.3951	1477.5	2.7
283.15	0	1447.3	2.8
283.15	0.0341	1450.7	2.8
283.15	0.0669	1454.2	2.8
283.15	0.1015	1458	2.7
283.15	0.1349	1461.6	2.7
283.15	0.1666	1465	2.7
283.15	0.2025	1468.9	2.7
283.15	0.2321	1472.1	2.7
283.15	0.2787	1477.1	2.7
283.15	0.297	1479.1	2.7
283.15	0.3314	1482.8	2.7
283.15	0.3663	1486.6	2.7
283.15	0.3972	1489.9	2.7

System: L-arginine + water; phases: Liquid
Fixed: Pressure, kPa = 101
Property: Mass density, kg/m3 (Liquid); method: Pycnometric method
Temperature, K	Molality, mol/kg of L-arginine	Mass density, kg/m3	uncertainty
275.15	0	999.94	0.47
275.15	0.0381	1002.25	0.48
275.15	0.0808	1004.4	0.48
275.15	0.1223	1006.6	0.48
275.15	0.1659	1008.86	0.48
275.15	0.2092	1010.74	0.48
275.15	0.2503	1012.81	0.48
275.15	0.2909	1014.82	0.48
275.15	0.3371	1017.05	0.48
275.15	0.3742	1018.75	0.49
275.15	0.4153	1020.74	0.49
275.15	0.4529	1022.49	0.49
275.15	0.5067	1024.97	0.49
279.15	0	999.94	0.47
279.15	0.0381	1002.12	0.47
279.15	0.0808	1004.33	0.47
279.15	0.1225	1005.88	0.47
279.15	0.1847	1009.11	0.47
279.15	0.2092	1010.49	0.47
279.15	0.25	1012.51	0.47
279.15	0.2932	1014.5	0.48
279.15	0.3459	1017.1	0.48
279.15	0.3742	1018.39	0.48
279.15	0.4177	1020.39	0.48
279.15	0.4601	1022.35	0.48
279.15	0.5176	1025.01	0.48
283.15	0	999.7	0.46
283.15	0.0379	1001.53	0.46
283.15	0.0806	1003.83	0.46
283.15	0.1228	1005.96	0.46
283.15	0.1755	1008.59	0.46
283.15	0.2052	1009.81	0.47
283.15	0.2496	1012.14	0.47
283.15	0.291	1014.12	0.47
283.15	0.3386	1016.31	0.47
283.15	0.3757	1017.99	0.47
283.15	0.416	1019.92	0.47
283.15	0.4566	1021.75	0.47
283.15	0.5031	1023.84	0.47

System: L-arginine + water; phases: Liquid
Fixed: Pressure, kPa = 101
Property: Speed of sound, m/s (Liquid); method: Linear variable-path acoustic interferometer
Temperature, K	Molality, mol/kg of L-arginine	Speed of sound, m/s	uncertainty
275.15	0	1412.2	2.8
275.15	0.0381	1416.9	2.8
275.15	0.0808	1422.5	2.8
275.15	0.1223	1427.9	2.7
275.15	0.1659	1433.5	2.7
275.15	0.2092	1439.2	2.7
275.15	0.2503	1444.5	2.7
275.15	0.2909	1449.8	2.7
275.15	0.3371	1455.8	2.7
275.15	0.3742	1460.6	2.7
275.15	0.4153	1465.9	2.7
275.15	0.4529	1470.8	2.7
275.15	0.5067	1477.8	2.7
279.15	0	1430.6	2.8
279.15	0.0381	1434.5	2.8
279.15	0.0808	1439.6	2.8
279.15	0.1225	1444.5	2.8
279.15	0.1847	1451.9	2.8
279.15	0.2092	1454.8	2.7
279.15	0.25	1459.7	2.7
279.15	0.2932	1464.8	2.7
279.15	0.3459	1471.1	2.7
279.15	0.3742	1474.4	2.7
279.15	0.4177	1479.6	2.7
279.15	0.4601	1484.6	2.7
279.15	0.5176	1491.4	2.7
283.15	0	1447.3	2.8
283.15	0.0379	1451.4	2.8
283.15	0.0806	1456.3	2.8
283.15	0.1228	1461.2	2.8
283.15	0.1755	1467.2	2.8
283.15	0.2052	1470.7	2.8
283.15	0.2496	1475.8	2.8
283.15	0.291	1480.5	2.8
283.15	0.3386	1486	2.8
283.15	0.3757	1490.3	2.8
283.15	0.416	1495	2.8
283.15	0.4566	1499.6	2.8
283.15	0.5031	1505	2.8
