Measured thermophysical data. Spectral emissivity and constant pressure heat capacity of liquid titanium measured by an electrostatic levitator
Source: J. Chem. Thermodyn., 2019, 10.1016/j.jct.2018.12.002
Compound 1: titanium, Ti, InChI=1S/Ti, purity 99.9%

System: titanium; phases: Liquid
Property: Molar heat capacity at constant pressure, J/K/mol (Liquid); method: Levitation methods
Temperature, K	Pressure, kPa	Molar heat capacity at constant pressure, J/K/mol	uncertainty
1943	101.325	44.9	4.3
