Measured thermophysical data. Application of Prigogine Flory Patterson theory to excess molar volume and speed of sound of 1-n-butyl-3-methylimidazolium hexafluorophosphate or 1-n-butyl-3-methylimidazolium tetrafluoroborate in methanol and acetonitrile
Source: J. Chem. Thermodyn., 2006, 10.1016/j.jct.2006.01.016
Compound 1: methanol, CH4O, InChI=1S/CH4O/c1-2/h2H,1H3, purity 99.9%
Compound 2: acetonitrile, C2H3N, InChI=1S/C2H3N/c1-2-3/h1H3, purity 99.9%
Compound 3: 1-butyl-3-methylimidazolium tetrafluoroborate, C8H15BF4N2, InChI=1S/C8H15N2.BF4/c1-3-4-5-10-7-6-9(2)8-10;2-1(3,4)5/h6-8H,3-5H2,1-2H3;/q+1;-1, purity 98%

System: methanol; phases: Liquid
Fixed: Pressure, kPa = 101
Property: Speed of sound, m/s (Liquid); method: FPINT::UFactor:16
Temperature, K	Speed of sound, m/s	uncertainty
303.15	1086.37	9.22
308.15	1070.11	9.12
313.15	1053.96	9.02
318.15	1037.91	8.92

System: methanol; phases: Liquid
Fixed: Pressure, kPa = 101
Property: Mass density, kg/m3 (Liquid); method: VIBTUB::UFactor:16
Temperature, K	Mass density, kg/m3	uncertainty
298.15	786.531	2.367
303.15	781.808	2.405
308.15	777.066	2.443
313.15	772.283	2.482
318.15	767.474	2.521

System: acetonitrile; phases: Liquid
Fixed: Pressure, kPa = 101
Property: Speed of sound, m/s (Liquid); method: FPINT::UFactor:16
Temperature, K	Speed of sound, m/s	uncertainty
298.15	1278.62	10.41
303.15	1258.73	10.29
308.15	1238.66	10.16
313.15	1218.52	10.04
318.15	1198.32	9.91

System: acetonitrile; phases: Liquid
Fixed: Pressure, kPa = 101
Property: Mass density, kg/m3 (Liquid); method: VIBTUB::UFactor:16
Temperature, K	Mass density, kg/m3	uncertainty
298.15	776.533	2.448
303.15	771.116	2.492
308.15	765.66	2.536
313.15	760.162	2.58
318.15	754.462	2.626

System: 1-butyl-3-methylimidazolium tetrafluoroborate; phases: Liquid
Fixed: Pressure, kPa = 101
Property: Speed of sound, m/s (Liquid); method: FPINT:UFactor:16
Temperature, K	Speed of sound, m/s	uncertainty
298.15	1576.05	12.41
303.15	1555.47	12.29
308.15	1543.92	12.21
313.15	1532.52	12.14
318.15	1521.19	12.07

System: 1-butyl-3-methylimidazolium tetrafluoroborate; phases: Liquid
Fixed: Pressure, kPa = 101
Property: Mass density, kg/m3 (Liquid); method: VIBTUB:UFactor:16
Temperature, K	Mass density, kg/m3	uncertainty
298.15	1201.42	3.771
303.15	1197.884	3.733
308.15	1194.346	3.696
313.15	1190.815	3.659
318.15	1187.294	3.621

System: methanol + 1-butyl-3-methylimidazolium tetrafluoroborate; phases: Liquid
Fixed: Pressure, kPa = 101
Property: Speed of sound, m/s (Liquid); method: FPINT:UFactor:16
Temperature, K	Mole fraction of 1-butyl-3-methylimidazolium tetrafluoroborate	Speed of sound, m/s	uncertainty
298.15	0.3516	1423.63	11.33
298.15	0.4958	1476.98	11.68
298.15	0.6961	1524.1	12.01
298.15	0.7982	1541.21	12.14
298.15	1	1576.05	12.41
303.15	0	1086.37	9.22
303.15	0.0086	1105.27	9.33
303.15	0.0473	1162.4	9.69
303.15	0.0989	1224.64	10.07
303.15	0.2027	1321.8	10.68
303.15	0.3516	1411.33	11.25
303.15	0.4958	1465.01	11.61
303.15	0.6961	1512.19	11.94
303.15	0.7982	1529.49	12.07
303.15	1	1555.47	12.29
308.15	0	1070.11	9.12
308.15	0.0086	1089.35	9.24
308.15	0.0473	1147.75	9.6
308.15	0.0989	1210.99	9.99
308.15	0.2027	1309.16	10.61
308.15	0.3516	1399.13	11.18
308.15	0.4958	1453.07	11.53
308.15	0.6961	1500.43	11.86
308.15	0.7982	1517.86	12
308.15	1	1543.92	12.21
313.15	0	1053.96	9.02
313.15	0.0086	1073.51	9.14
313.15	0.0473	1133.11	9.51
313.15	0.0989	1197.51	9.91
313.15	0.2027	1296.54	10.53
313.15	0.3516	1378	11.05
313.15	0.4958	1441.82	11.46
313.15	0.6961	1488.78	11.79
313.15	0.7982	1506.29	11.93
313.15	1	1532.52	12.14
318.15	0	1037.91	8.92
318.15	0.0086	1057.8	9.04
318.15	0.0473	1118.56	9.42
318.15	0.0989	1184.02	9.83
318.15	0.2027	1284.03	10.46
318.15	0.3516	1374.95	11.03
318.15	0.4958	1430.06	11.4
318.15	0.6961	1477.25	11.72
318.15	0.7982	1494.83	11.86
318.15	1	1521.19	12.07

System: methanol + 1-butyl-3-methylimidazolium tetrafluoroborate; phases: Liquid
Fixed: Pressure, kPa = 101
Property: Mass density, kg/m3 (Liquid); method: VIBTUB:UFactor:16
Temperature, K	Mole fraction of 1-butyl-3-methylimidazolium tetrafluoroborate	Mass density, kg/m3	uncertainty
298.15	0	786.531	2.367
298.15	0.0086	805.151	2.217
298.15	0.0473	871.093	1.69
298.15	0.0989	935.734	1.182
298.15	0.2027	1020.748	0.883
298.15	0.3516	1090.689	1.557
298.15	0.4958	1131.967	2.065
298.15	0.6961	1168.328	2.711
298.15	0.7982	1181.541	3.049
298.15	1	1201.42	3.771
303.15	0	781.808	2.405
303.15	0.0086	800.482	2.255
303.15	0.0473	866.582	1.727
303.15	0.0989	931.386	1.217
303.15	0.2027	1016.602	0.845
303.15	0.3516	1086.808	1.525
303.15	0.4958	1128.15	2.032
303.15	0.6961	1164.632	2.677
303.15	0.7982	1177.909	3.014
303.15	1	1197.884	3.733
308.15	0	777.066	2.443
308.15	0.0086	795.796	2.293
308.15	0.0473	862.063	1.763
308.15	0.0989	927.032	1.252
308.15	0.2027	1012.461	0.812
308.15	0.3516	1082.621	1.49
308.15	0.4958	1124.345	1.999
308.15	0.6961	1160.962	2.643
308.15	0.7982	1174.283	2.979
308.15	1	1194.346	3.696
313.15	0	772.283	2.482
313.15	0.0086	791.081	2.331
313.15	0.0473	857.529	1.8
313.15	0.0989	922.668	1.287
313.15	0.2027	1008.326	0.778
313.15	0.3516	1079.104	1.46
313.15	0.4958	1120.992	1.969
313.15	0.6961	1157.297	2.609
313.15	0.7982	1170.671	2.944
313.15	1	1190.815	3.659
318.15	0	767.474	2.521
318.15	0.0086	786.347	2.369
318.15	0.0473	852.979	1.839
318.15	0.0989	918.304	1.328
318.15	0.2027	1004.194	0.764
318.15	0.3516	1075.215	1.433
318.15	0.4958	1117.111	1.938
318.15	0.6961	1153.661	2.576
318.15	0.7982	1167.073	2.91
318.15	1	1187.294	3.621

System: acetonitrile + 1-butyl-3-methylimidazolium tetrafluoroborate; phases: Liquid
Fixed: Pressure, kPa = 101
Property: Speed of sound, m/s (Liquid); method: FPINT:UFactor:16
Temperature, K	Mole fraction of 1-butyl-3-methylimidazolium tetrafluoroborate	Speed of sound, m/s	uncertainty
298.15	0	1278.62	10.41
298.15	0.0103	1289.15	10.47
298.15	0.0442	1315.67	10.64
298.15	0.1032	1354.8	10.88
298.15	0.2015	1407.74	11.22
298.15	0.2931	1445.25	11.46
298.15	0.3935	1476.75	11.66
298.15	0.5352	1509.22	11.89
298.15	0.7043	1535.91	12.08
298.15	1	1576.05	12.41
303.15	0	1258.73	10.29
303.15	0.0103	1269.35	10.35
303.15	0.0442	1296.95	10.52
303.15	0.1032	1337.19	10.77
303.15	0.2015	1391.76	11.12
303.15	0.2931	1430.21	11.36
303.15	0.3935	1462.66	11.58
303.15	0.5352	1495.94	11.81
303.15	0.7043	1532.48	12.06
303.15	1	1555.47	12.29
308.15	0	1238.66	10.16
308.15	0.0103	1249.62	10.23
308.15	0.0442	1278.18	10.41
308.15	0.1032	1319.67	10.67
308.15	0.2015	1375.82	11.02
308.15	0.2931	1415.25	11.27
308.15	0.3935	1448.62	11.49
308.15	0.5352	1482.62	11.72
308.15	0.7043	1511.09	11.93
308.15	1	1543.92	12.21
313.15	0	1218.52	10.04
313.15	0.0103	1229.96	10.11
313.15	0.0442	1259.48	10.29
313.15	0.1032	1302.27	10.56
313.15	0.2015	1359.59	10.92
313.15	0.2931	1400.46	11.18
313.15	0.3935	1434.64	11.4
313.15	0.5352	1469.74	11.64
313.15	0.7043	1498.78	11.86
313.15	1	1532.52	12.14
318.15	0	1198.32	9.91
318.15	0.0103	1210.35	9.99
318.15	0.0442	1240.84	10.18
318.15	0.1032	1284.94	10.45
318.15	0.2015	1344.09	10.83
318.15	0.2931	1385.81	11.09
318.15	0.3935	1420.75	11.32
318.15	0.5352	1456.87	11.57
318.15	0.7043	1486.56	11.78
318.15	1	1521.19	12.07

System: acetonitrile + 1-butyl-3-methylimidazolium tetrafluoroborate; phases: Liquid
Fixed: Pressure, kPa = 101
Property: Mass density, kg/m3 (Liquid); method: VIBTUB:UFactor:16
Temperature, K	Mole fraction of 1-butyl-3-methylimidazolium tetrafluoroborate	Mass density, kg/m3	uncertainty
298.15	0	776.533	2.448
298.15	0.0103	794.416	2.304
298.15	0.0442	845.059	1.899
298.15	0.1032	913.689	1.36
298.15	0.2015	994.016	0.76
298.15	0.2931	1045.577	1.137
298.15	0.3935	1086.978	1.564
298.15	0.5352	1128.517	2.088
298.15	0.7043	1162.306	2.671
298.15	1	1201.42	3.771
303.15	0	771.116	2.492
303.15	0.0103	789.093	2.347
303.15	0.0442	839.982	1.94
303.15	0.1032	908.908	1.398
303.15	0.2015	989.579	0.795
303.15	0.2931	1041.358	1.103
303.15	0.3935	1082.93	1.531
303.15	0.5352	1124.64	2.054
303.15	0.7043	1158.572	2.636
303.15	1	1197.884	3.733
308.15	0	765.66	2.536
308.15	0.0103	783.745	2.39
308.15	0.0442	834.883	1.982
308.15	0.1032	904.123	1.437
308.15	0.2015	985.147	0.83
308.15	0.2931	1037.146	1.068
308.15	0.3935	1078.891	1.497
308.15	0.5352	1120.775	2.02
308.15	0.7043	1154.845	2.602
308.15	1	1194.346	3.696
313.15	0	760.162	2.58
313.15	0.0103	778.368	2.434
313.15	0.0442	829.765	2.023
313.15	0.1032	899.327	1.475
313.15	0.2015	980.715	0.865
313.15	0.2931	1032.939	1.034
313.15	0.3935	1074.862	1.463
313.15	0.5352	1116.92	1.986
313.15	0.7043	1151.133	2.567
313.15	1	1190.815	3.659
318.15	0	754.462	2.626
318.15	0.0103	772.971	2.478
318.15	0.0442	824.63	2.066
318.15	0.1032	894.531	1.518
318.15	0.2015	976.287	0.907
318.15	0.2931	1028.745	1.002
318.15	0.3935	1070.843	1.431
318.15	0.5352	1113.084	1.954
318.15	0.7043	1147.435	2.534
318.15	1	1187.294	3.621
