Measured thermophysical data. The standard molar enthalpies of formation and heat capacities of PbMoO4 (s) and Pb2MoO5 (s)
Source: J. Chem. Thermodyn., 2018, 10.1016/j.jct.2017.08.011
Compound 1: lead, Pb, InChI=1S/Pb
Compound 2: molybdenum, Mo, InChI=1S/Mo
Compound 3: oxygen, O2, InChI=1S/O2/c1-2
Compound 4: lead(II) molybdenum(VI) oxide, MoO4Pb, InChI=1S/Mo.4O.Pb/q+6;4*-2;+2, purity 99.98%
Compound 5: lead molybdenum oxide (Pb2MoO5), MoO5Pb2, InChI=1S/Mo.5O.2Pb/q;;4*-1;2*+2, purity 99.98%
Compound 6: molybdenum oxide (MoO3), MoO3, InChI=1S/Mo.3O/q+6;3*-2, purity 99.92%

System: lead(II) molybdenum(VI) oxide; phases: Crystal
Fixed: Pressure, kPa = 101.325
Property: Molar heat capacity at constant pressure, J/K/mol (Crystal); method: Small sample (50 mg) DSC
Temperature, K	Molar heat capacity at constant pressure, J/K/mol	uncertainty
313	118.2	4.4
353	123.8	4.5
403	128.7	4.5
453	132.4	4.5
503	135.4	4.5
553	137.9	4.5
603	140.6	4.6
653	142.9	4.6
703	145	4.6
753	146.9	4.6
798	148.1	4.6

System: lead molybdenum oxide (Pb2MoO5); phases: Crystal
Fixed: Pressure, kPa = 101.325
Property: Molar heat capacity at constant pressure, J/K/mol (Crystal); method: Small sample (50 mg) DSC
Temperature, K	Molar heat capacity at constant pressure, J/K/mol	uncertainty
308	169.3	6.6
353	177.1	6.7
403	183.9	6.7
453	189.8	6.8
503	194.6	6.8
553	199	6.8
603	204.4	6.8
653	209	6.9
703	212.7	6.9
753	215.6	6.9
798	218.2	6.9

System: molybdenum oxide (MoO3); phases: Crystal
Fixed: Pressure, kPa = 101.325
Property: Molar heat capacity at constant pressure, J/K/mol (Crystal); method: Small sample (50 mg) DSC
Temperature, K	Molar heat capacity at constant pressure, J/K/mol	uncertainty
318	74.9	2.5
353	77.7	2.6
403	81.8	2.7
453	85.1	2.8
503	87.7	2.9
553	89.8	3
603	91.9	3
653	93.9	3.1
703	95.7	3.2
753	96.7	3.2
763	96.8	3.2

Reaction: -1 lead + -1 molybdenum + 1 lead(II) molybdenum(VI) oxide + -2 oxygen
Property: Molar enthalpy of reaction, kJ/mol
-1059.6

Reaction: -2 lead + -1 molybdenum + 1 lead molybdenum oxide (Pb2MoO5) + -2.5 oxygen
Property: Molar enthalpy of reaction, kJ/mol
-1274.7
