Measured thermophysical data. Excess molar enthalpies and (vapour + liquid) equilibria for mixtures containing N,N-dialkylamides and a,x-dichloroalkanes
Source: J. Chem. Thermodyn., 2008, 10.1016/j.jct.2007.06.017
Compound 1: dimethylformamide, C3H7NO, InChI=1S/C3H7NO/c1-4(2)3-5/h3H,1-2H3, purity 99%
Compound 2: N,N-dimethylethanamide, C4H9NO, InChI=1S/C4H9NO/c1-4(6)5(2)3/h1-3H3, purity 99%
Compound 3: 1,2-dichloroethane, C2H4Cl2, InChI=1S/C2H4Cl2/c3-1-2-4/h1-2H2, purity 99.5%
Compound 4: 1,4-dichlorobutane, C4H8Cl2, InChI=1S/C4H8Cl2/c5-3-1-2-4-6/h1-4H2, purity 97%
Compound 5: 1,6-dichlorohexane, C6H12Cl2, InChI=1S/C6H12Cl2/c7-5-3-1-2-4-6-8/h1-6H2, purity 98%

System: dimethylformamide; phases: Liquid
Property: Mass density, kg/m3 (Liquid); method: VIBTUB:UFactor:6
Temperature, K	Pressure, kPa	Mass density, kg/m3	uncertainty
298.15	101.325	943.81	0.64

System: N,N-dimethylethanamide; phases: Liquid
Property: Mass density, kg/m3 (Liquid); method: VIBTUB:UFactor:6
Temperature, K	Pressure, kPa	Mass density, kg/m3	uncertainty
298.15	101.325	936.34	0.66

System: 1,2-dichloroethane; phases: Liquid, Gas
Property: Vapor or sublimation pressure, kPa (Liquid); method: Ebulliometric method (Recirculating still)
Temperature, K	Vapor or sublimation pressure, kPa	uncertainty
298.15	20.752	0.026

System: 1,2-dichloroethane; phases: Liquid
Property: Mass density, kg/m3 (Liquid); method: VIBTUB:UFactor:4
Temperature, K	Pressure, kPa	Mass density, kg/m3	uncertainty
298.15	101.325	1245.6	0.77

System: 1,4-dichlorobutane; phases: Liquid, Gas
Property: Vapor or sublimation pressure, kPa (Liquid); method: Ebulliometric method (Recirculating still)
Temperature, K	Vapor or sublimation pressure, kPa	uncertainty
323.15	2.205	0.012

System: 1,4-dichlorobutane; phases: Liquid
Property: Mass density, kg/m3 (Liquid); method: VIBTUB:UFactor:12
Temperature, K	Pressure, kPa	Mass density, kg/m3	uncertainty
298.15	101.325	1133.63	4.38

System: 1,6-dichlorohexane; phases: Liquid
Property: Mass density, kg/m3 (Liquid); method: VIBTUB:UFactor:8
Temperature, K	Pressure, kPa	Mass density, kg/m3	uncertainty
298.15	101.325	1063.7	1.76

System: dimethylformamide + 1,2-dichloroethane; phases: Liquid
Fixed: Pressure, kPa = 101
Property: Excess molar enthalpy (molar enthalpy of mixing), kJ/mol (Liquid); method: Flow calorimetry
Temperature, K	Mole fraction of dimethylformamide	Excess molar enthalpy (molar enthalpy of mixing), kJ/mol	uncertainty
298.15	0.054	-0.117	0.007
298.15	0.102	-0.246	0.006
298.15	0.2	-0.438	0.006
298.15	0.299	-0.575	0.007
298.15	0.398	-0.648	0.007
298.15	0.498	-0.663	0.007
298.15	0.6	-0.622	0.007
298.15	0.702	-0.531	0.006
298.15	0.805	-0.394	0.006
298.15	0.909	-0.202	0.006
298.15	0.961	-0.099	0.006
308.15	0.056	-0.132	0.006
308.15	0.106	-0.249	0.006
308.15	0.205	-0.457	0.007
308.15	0.304	-0.586	0.007
308.15	0.404	-0.652	0.007
308.15	0.504	-0.659	0.007
308.15	0.604	-0.613	0.007
308.15	0.704	-0.519	0.006
308.15	0.805	-0.379	0.006
308.15	0.906	-0.21	0.006
308.15	0.956	-0.104	0.006
308.15	0.976	-0.061	0.006

System: dimethylformamide + 1,4-dichlorobutane; phases: Liquid
Fixed: Pressure, kPa = 101
Property: Excess molar enthalpy (molar enthalpy of mixing), kJ/mol (Liquid); method: Flow calorimetry
Temperature, K	Mole fraction of dimethylformamide	Excess molar enthalpy (molar enthalpy of mixing), kJ/mol	uncertainty
298.15	0.057	-0.017	0.004
298.15	0.106	-0.028	0.004
298.15	0.204	-0.039	0.004
298.15	0.302	-0.048	0.004
298.15	0.402	-0.053	0.004
298.15	0.501	-0.056	0.004
298.15	0.6	-0.056	0.004
298.15	0.701	-0.052	0.004
298.15	0.801	-0.041	0.004
298.15	0.902	-0.024	0.004
298.15	0.952	-0.012	0.004
308.15	0.058	-0.018	0.004
308.15	0.107	-0.028	0.004
308.15	0.205	-0.04	0.004
308.15	0.303	-0.048	0.004
308.15	0.401	-0.054	0.004
308.15	0.5	-0.057	0.004
308.15	0.599	-0.056	0.004
308.15	0.698	-0.05	0.004
308.15	0.797	-0.04	0.004
308.15	0.896	-0.023	0.004
308.15	0.946	-0.012	0.004

System: dimethylformamide + 1,6-dichlorohexane; phases: Liquid
Fixed: Pressure, kPa = 101
Property: Excess molar enthalpy (molar enthalpy of mixing), kJ/mol (Liquid); method: Flow calorimetry
Temperature, K	Mole fraction of dimethylformamide	Excess molar enthalpy (molar enthalpy of mixing), kJ/mol	uncertainty
298.15	0.057	0.046	0.005
298.15	0.105	0.101	0.005
298.15	0.203	0.195	0.005
298.15	0.301	0.269	0.005
298.15	0.399	0.317	0.005
298.15	0.498	0.34	0.005
298.15	0.597	0.335	0.005
298.15	0.697	0.303	0.005
298.15	0.796	0.24	0.005
298.15	0.897	0.138	0.005
298.15	0.947	0.075	0.005
308.15	0.063	0.044	0.005
308.15	0.111	0.098	0.005
308.15	0.208	0.194	0.005
308.15	0.305	0.269	0.005
308.15	0.403	0.322	0.005
308.15	0.501	0.347	0.005
308.15	0.6	0.343	0.005
308.15	0.699	0.31	0.005
308.15	0.798	0.246	0.005
308.15	0.898	0.142	0.005
308.15	0.948	0.077	0.005
308.15	0.968	0.046	0.005

System: 1,2-dichloroethane + N,N-dimethylethanamide; phases: Liquid
Fixed: Pressure, kPa = 101
Property: Excess molar enthalpy (molar enthalpy of mixing), kJ/mol (Liquid); method: Flow calorimetry
Temperature, K	Mole fraction of N,N-dimethylethanamide	Excess molar enthalpy (molar enthalpy of mixing), kJ/mol	uncertainty
298.15	0.055	-0.161	0.008
298.15	0.104	-0.331	0.008
298.15	0.202	-0.586	0.008
298.15	0.3	-0.767	0.008
298.15	0.4	-0.865	0.008
298.15	0.5	-0.885	0.008
298.15	0.6	-0.831	0.008
298.15	0.702	-0.706	0.008
298.15	0.804	-0.522	0.007
298.15	0.907	-0.275	0.007
298.15	0.959	-0.136	0.007
308.15	0.055	-0.159	0.008
308.15	0.105	-0.339	0.008
308.15	0.204	-0.606	0.008
308.15	0.304	-0.794	0.008
308.15	0.404	-0.894	0.008
308.15	0.504	-0.913	0.008
308.15	0.605	-0.853	0.008
308.15	0.706	-0.722	0.008
308.15	0.806	-0.53	0.007
308.15	0.907	-0.277	0.007
308.15	0.958	-0.136	0.007
308.15	0.978	-0.084	0.007

System: 1,4-dichlorobutane + N,N-dimethylethanamide; phases: Liquid
Fixed: Pressure, kPa = 101
Property: Excess molar enthalpy (molar enthalpy of mixing), kJ/mol (Liquid); method: Flow calorimetry
Temperature, K	Mole fraction of N,N-dimethylethanamide	Excess molar enthalpy (molar enthalpy of mixing), kJ/mol	uncertainty
298.15	0.064	-0.058	0.005
298.15	0.113	-0.113	0.005
298.15	0.211	-0.188	0.005
298.15	0.309	-0.248	0.005
298.15	0.408	-0.292	0.005
298.15	0.506	-0.314	0.005
298.15	0.606	-0.311	0.005
298.15	0.705	-0.281	0.005
298.15	0.804	-0.219	0.005
298.15	0.904	-0.128	0.005
298.15	0.954	-0.065	0.005
308.15	0.037	-0.042	0.005
308.15	0.056	-0.066	0.005
308.15	0.105	-0.114	0.005
308.15	0.204	-0.199	0.005
308.15	0.302	-0.261	0.005
308.15	0.401	-0.304	0.005
308.15	0.5	-0.323	0.005
308.15	0.598	-0.32	0.005
308.15	0.698	-0.289	0.005
308.15	0.797	-0.226	0.005
308.15	0.896	-0.129	0.005
308.15	0.946	-0.068	0.005
308.15	0.966	-0.04	0.005

System: N,N-dimethylethanamide + 1,6-dichlorohexane; phases: Liquid
Fixed: Pressure, kPa = 101
Property: Excess molar enthalpy (molar enthalpy of mixing), kJ/mol (Liquid); method: Flow calorimetry
Temperature, K	Mole fraction of N,N-dimethylethanamide	Excess molar enthalpy (molar enthalpy of mixing), kJ/mol	uncertainty
298.15	0.116	0.009	0.004
298.15	0.212	0.04	0.004
298.15	0.309	0.064	0.004
298.15	0.407	0.081	0.004
298.15	0.504	0.09	0.004
298.15	0.602	0.091	0.004
298.15	0.7	0.084	0.004
298.15	0.798	0.067	0.004
298.15	0.897	0.04	0.004
298.15	0.946	0.021	0.004
308.15	0.062	0	0.004
308.15	0.111	0.012	0.004
308.15	0.208	0.045	0.004
308.15	0.305	0.068	0.004
308.15	0.403	0.086	0.004
308.15	0.502	0.095	0.004
308.15	0.6	0.097	0.004
308.15	0.699	0.088	0.004
308.15	0.798	0.07	0.004
308.15	0.898	0.042	0.004
308.15	0.948	0.021	0.004
308.15	0.968	0.012	0.004
