Measured thermophysical data. The molar surface Gibbs energy and its application 3: The aqueous solution of ionic liquids [Cnmim][OAc](n = 3, 5)
Source: J. Chem. Thermodyn., 2018, 10.1016/j.jct.2018.07.012
Compound 1: 1-propyl-3-methylimidazolium acetate, C9H16N2O2, InChI=1S/C7H13N2.C2H4O2/c1-3-4-9-6-5-8(2)7-9;1-2(3)4/h5-7H,3-4H2,1-2H3;1H3,(H,3,4)/q+1;/p-1
Compound 2: 1-methyl-3-pentylimidazolium acetate, C11H20N2O2, InChI=1S/C9H17N2.C2H4O2/c1-3-4-5-6-11-8-7-10(2)9-11;1-2(3)4/h7-9H,3-6H2,1-2H3;1H3,(H,3,4)/q+1;/p-1
Compound 3: water, H2O, InChI=1S/H2O/h1H2

System: 1-propyl-3-methylimidazolium acetate + water; phases: Liquid, Air at 1 atmosphere
Property: Surface tension liquid-gas, N/m (Liquid); method: Maximal bubble pressure
Temperature, K	Molality, mol/kg of 1-propyl-3-methylimidazolium acetate	Surface tension liquid-gas, N/m	uncertainty
288.15	0	0.0735	0.0005
288.15	0.0113	0.0734	0.0005
288.15	0.0172	0.0732	0.0005
288.15	0.0279	0.0728	0.0005
288.15	0.0446	0.0725	0.0005
288.15	0.1119	0.071	0.0005
288.15	0.1673	0.0698	0.0005
288.15	0.2244	0.0686	0.0005
288.15	0.2808	0.0674	0.0005
288.15	0.3352	0.0662	0.0005
288.15	0.3925	0.0651	0.0005
288.15	0.448	0.064	0.0005
288.15	0.5037	0.063	0.0005
293.15	0	0.0728	0.0005
293.15	0.0113	0.0726	0.0005
293.15	0.0172	0.0725	0.0005
293.15	0.0279	0.0721	0.0005
293.15	0.0446	0.0718	0.0005
293.15	0.1119	0.0705	0.0005
293.15	0.1673	0.069	0.0005
293.15	0.2244	0.0678	0.0005
293.15	0.2808	0.0667	0.0005
293.15	0.3352	0.0655	0.0005
293.15	0.3925	0.0644	0.0005
293.15	0.448	0.0633	0.0005
293.15	0.5037	0.0624	0.0005
298.15	0	0.072	0.0005
298.15	0.0113	0.0718	0.0005
298.15	0.0172	0.0716	0.0005
298.15	0.0279	0.0713	0.0005
298.15	0.0446	0.0709	0.0005
298.15	0.1119	0.0696	0.0005
298.15	0.1673	0.0684	0.0005
298.15	0.2244	0.067	0.0005
298.15	0.2808	0.066	0.0005
298.15	0.3352	0.0648	0.0005
298.15	0.3925	0.0637	0.0005
298.15	0.448	0.0626	0.0005
298.15	0.5037	0.0616	0.0005
303.15	0	0.0712	0.0005
303.15	0.0113	0.071	0.0005
303.15	0.0172	0.0708	0.0005
303.15	0.0279	0.0705	0.0005
303.15	0.0446	0.0701	0.0005
303.15	0.1119	0.0688	0.0005
303.15	0.1673	0.0676	0.0005
303.15	0.2244	0.0663	0.0005
303.15	0.2808	0.0651	0.0005
303.15	0.3352	0.064	0.0005
303.15	0.3925	0.0629	0.0005
303.15	0.448	0.0618	0.0005
303.15	0.5037	0.0609	0.0005
308.15	0	0.0704	0.0005
308.15	0.0113	0.0702	0.0005
308.15	0.0172	0.07	0.0005
308.15	0.0279	0.0697	0.0005
308.15	0.0446	0.0693	0.0005
308.15	0.1119	0.0681	0.0005
308.15	0.1673	0.0668	0.0005
308.15	0.2244	0.0654	0.0005
308.15	0.2808	0.0644	0.0005
308.15	0.3352	0.0633	0.0005
308.15	0.3925	0.0622	0.0005
308.15	0.448	0.0612	0.0005
308.15	0.5037	0.0602	0.0005
313.15	0	0.0696	0.0005
313.15	0.0113	0.0693	0.0005
313.15	0.0172	0.0691	0.0005
313.15	0.0279	0.0688	0.0005
313.15	0.0446	0.0685	0.0005
313.15	0.1119	0.0671	0.0005
313.15	0.1673	0.0659	0.0005
313.15	0.2244	0.0647	0.0005
313.15	0.2808	0.0636	0.0005
313.15	0.3352	0.0624	0.0005
313.15	0.3925	0.0614	0.0005
313.15	0.448	0.0604	0.0005
313.15	0.5037	0.0595	0.0005
318.15	0	0.0687	0.0005
318.15	0.0113	0.0685	0.0005
318.15	0.0172	0.0684	0.0005
318.15	0.0279	0.068	0.0005
318.15	0.0446	0.0677	0.0005
318.15	0.1119	0.0664	0.0005
318.15	0.1673	0.0652	0.0005
318.15	0.2244	0.0641	0.0005
318.15	0.2808	0.063	0.0005
318.15	0.3352	0.0619	0.0005
318.15	0.3925	0.0609	0.0005
318.15	0.448	0.0598	0.0005
318.15	0.5037	0.0589	0.0005

System: 1-propyl-3-methylimidazolium acetate + water; phases: Liquid
Fixed: Pressure, kPa = 100
Property: Mass density, kg/m3 (Liquid); method: Vibrating tube method
Temperature, K	Molality, mol/kg of 1-propyl-3-methylimidazolium acetate	Mass density, kg/m3	uncertainty
288.15	0	999.13	1.01
288.15	0.0113	1000.22	1
288.15	0.0172	1000.35	1
288.15	0.0279	1000.55	1
288.15	0.0446	1000.78	1
288.15	0.1119	1001.76	1
288.15	0.1673	1002.56	1
288.15	0.2244	1003.49	1
288.15	0.2808	1004.43	1
288.15	0.3352	1005.37	1
288.15	0.3925	1006.31	1
288.15	0.448	1007.25	1
288.15	0.5037	1007.98	1
293.15	0	998.23	1.01
293.15	0.0113	999.22	1
293.15	0.0172	999.35	1
293.15	0.0279	999.53	1
293.15	0.0446	999.76	1
293.15	0.1119	1000.68	1
293.15	0.1673	1001.46	1
293.15	0.2244	1002.37	1
293.15	0.2808	1003.28	1
293.15	0.3352	1004.16	1
293.15	0.3925	1005.08	1
293.15	0.448	1005.89	1
293.15	0.5037	1006.64	1
298.15	0	997.07	1
298.15	0.0113	997.99	1
298.15	0.0172	998.1	1
298.15	0.0279	998.25	1
298.15	0.0446	998.46	1
298.15	0.1119	999.35	1
298.15	0.1673	1000.14	1
298.15	0.2244	1001.01	1
298.15	0.2808	1001.86	1
298.15	0.3352	1002.67	1
298.15	0.3925	1003.62	1
298.15	0.448	1004.43	1
298.15	0.5037	1005.19	1
303.15	0	995.67	1
303.15	0.0113	996.54	1
303.15	0.0172	996.62	1
303.15	0.0279	996.78	1
303.15	0.0446	996.99	1
303.15	0.1119	997.84	1
303.15	0.1673	998.61	1
303.15	0.2244	999.46	1
303.15	0.2808	1000.3	1
303.15	0.3352	1001.12	1
303.15	0.3925	1001.97	1
303.15	0.448	1002.83	1
303.15	0.5037	1003.47	1
308.15	0	994.06	1
308.15	0.0113	994.86	1
308.15	0.0172	994.92	1
308.15	0.0279	995.09	1
308.15	0.0446	995.28	1
308.15	0.1119	996.14	1
308.15	0.1673	996.89	1
308.15	0.2244	997.74	1
308.15	0.2808	998.56	1
308.15	0.3352	999.31	1
308.15	0.3925	1000.19	1
308.15	0.448	1000.95	1
308.15	0.5037	1001.66	1
313.15	0	992.24	1
313.15	0.0113	992.97	1
313.15	0.0172	993.03	1
313.15	0.0279	993.19	1
313.15	0.0446	993.36	1
313.15	0.1119	994.21	1
313.15	0.1673	994.99	1
313.15	0.2244	995.82	1
313.15	0.2808	996.66	1
313.15	0.3352	997.38	1
313.15	0.3925	998.21	1
313.15	0.448	998.97	1
313.15	0.5037	999.65	1
318.15	0	990.25	1
318.15	0.0113	990.93	1
318.15	0.0172	991.01	1
318.15	0.0279	991.15	1
318.15	0.0446	991.33	1
318.15	0.1119	992.2	1
318.15	0.1673	992.92	1
318.15	0.2244	993.77	1
318.15	0.2808	994.56	1
318.15	0.3352	995.34	1
318.15	0.3925	996.12	1
318.15	0.448	996.87	1
318.15	0.5037	997.59	1

System: 1-methyl-3-pentylimidazolium acetate + water; phases: Liquid, Air at 1 atmosphere
Property: Surface tension liquid-gas, N/m (Liquid); method: Maximal bubble pressure
Temperature, K	Molality, mol/kg of 1-methyl-3-pentylimidazolium acetate	Surface tension liquid-gas, N/m	uncertainty
288.15	0	0.0735	0.0005
288.15	0.0113	0.0731	0.0005
288.15	0.0167	0.073	0.0005
288.15	0.0278	0.0727	0.0005
288.15	0.0448	0.0722	0.0005
288.15	0.1117	0.0707	0.0005
288.15	0.1681	0.0693	0.0005
288.15	0.2233	0.068	0.0005
288.15	0.2831	0.0667	0.0005
288.15	0.3358	0.0654	0.0005
288.15	0.3919	0.0641	0.0005
288.15	0.448	0.0629	0.0005
288.15	0.5032	0.0619	0.0005
293.15	0	0.0728	0.0005
293.15	0.0113	0.0724	0.0005
293.15	0.0167	0.0723	0.0005
293.15	0.0278	0.0719	0.0005
293.15	0.0448	0.0714	0.0005
293.15	0.1117	0.0699	0.0005
293.15	0.1681	0.0685	0.0005
293.15	0.2233	0.0674	0.0005
293.15	0.2831	0.066	0.0005
293.15	0.3358	0.0647	0.0005
293.15	0.3919	0.0635	0.0005
293.15	0.448	0.0622	0.0005
293.15	0.5032	0.0612	0.0005
298.15	0	0.072	0.0005
298.15	0.0113	0.0716	0.0005
298.15	0.0167	0.0714	0.0005
298.15	0.0278	0.0711	0.0005
298.15	0.0448	0.0707	0.0005
298.15	0.1117	0.0693	0.0005
298.15	0.1681	0.0679	0.0005
298.15	0.2233	0.0667	0.0005
298.15	0.2831	0.0654	0.0005
298.15	0.3358	0.0641	0.0005
298.15	0.3919	0.0629	0.0005
298.15	0.448	0.0617	0.0005
298.15	0.5032	0.0607	0.0005
303.15	0	0.0712	0.0005
303.15	0.0113	0.0708	0.0005
303.15	0.0167	0.0706	0.0005
303.15	0.0278	0.0704	0.0005
303.15	0.0448	0.0699	0.0005
303.15	0.1117	0.0685	0.0005
303.15	0.1681	0.067	0.0005
303.15	0.2233	0.0659	0.0005
303.15	0.2831	0.0646	0.0005
303.15	0.3358	0.0633	0.0005
303.15	0.3919	0.0621	0.0005
303.15	0.448	0.0608	0.0005
303.15	0.5032	0.0598	0.0005
308.15	0	0.0704	0.0005
308.15	0.0113	0.0699	0.0005
308.15	0.0167	0.0698	0.0005
308.15	0.0278	0.0695	0.0005
308.15	0.0448	0.0691	0.0005
308.15	0.1117	0.0676	0.0005
308.15	0.1681	0.0662	0.0005
308.15	0.2233	0.0651	0.0005
308.15	0.2831	0.0639	0.0005
308.15	0.3358	0.0627	0.0005
308.15	0.3919	0.0614	0.0005
308.15	0.448	0.0602	0.0005
308.15	0.5032	0.0592	0.0005
313.15	0	0.0696	0.0005
313.15	0.0113	0.0691	0.0005
313.15	0.0167	0.069	0.0005
313.15	0.0278	0.0687	0.0005
313.15	0.0448	0.0682	0.0005
313.15	0.1117	0.0668	0.0005
313.15	0.1681	0.0655	0.0005
313.15	0.2233	0.0644	0.0005
313.15	0.2831	0.0632	0.0005
313.15	0.3358	0.0619	0.0005
313.15	0.3919	0.0607	0.0005
313.15	0.448	0.0595	0.0005
313.15	0.5032	0.0586	0.0005
318.15	0	0.0687	0.0005
318.15	0.0113	0.0683	0.0005
318.15	0.0167	0.0682	0.0005
318.15	0.0278	0.0679	0.0005
318.15	0.0448	0.0675	0.0005
318.15	0.1117	0.0661	0.0005
318.15	0.1681	0.0648	0.0005
318.15	0.2233	0.0636	0.0005
318.15	0.2831	0.0623	0.0005
318.15	0.3358	0.0611	0.0005
318.15	0.3919	0.06	0.0005
318.15	0.448	0.0589	0.0005
318.15	0.5032	0.0579	0.0005

System: 1-methyl-3-pentylimidazolium acetate + water; phases: Liquid
Fixed: Pressure, kPa = 100
Property: Mass density, kg/m3 (Liquid); method: Vibrating tube method
Temperature, K	Molality, mol/kg of 1-methyl-3-pentylimidazolium acetate	Mass density, kg/m3	uncertainty
288.15	0	999.13	1
288.15	0.0113	1000.14	1
288.15	0.0167	1000.28	1
288.15	0.0278	1000.42	1
288.15	0.0448	1000.64	1
288.15	0.1117	1001.58	1
288.15	0.1681	1002.3	1
288.15	0.2233	1002.98	1
288.15	0.2831	1003.85	1
288.15	0.3358	1004.57	1
288.15	0.3919	1005.36	1
288.15	0.448	1006.14	1
288.15	0.5032	1006.89	1
293.15	0	998.23	1
293.15	0.0113	999.1	1
293.15	0.0167	999.21	1
293.15	0.0278	999.36	1
293.15	0.0448	999.54	1
293.15	0.1117	1000.47	1
293.15	0.1681	1001.12	1
293.15	0.2233	1001.89	1
293.15	0.2831	1002.69	1
293.15	0.3358	1003.38	1
293.15	0.3919	1004.16	1
293.15	0.448	1004.92	1
293.15	0.5032	1005.68	1
298.15	0	997.07	1
298.15	0.0113	997.82	1
298.15	0.0167	997.9	1
298.15	0.0278	998.08	1
298.15	0.0448	998.25	1
298.15	0.1117	999.05	1
298.15	0.1681	999.71	1
298.15	0.2233	1000.49	1
298.15	0.2831	1001.32	1
298.15	0.3358	1002.01	1
298.15	0.3919	1002.76	1
298.15	0.448	1003.5	1
298.15	0.5032	1004.2	1
303.15	0	995.67	1
303.15	0.0113	996.33	1
303.15	0.0167	996.39	1
303.15	0.0278	996.54	1
303.15	0.0448	996.73	1
303.15	0.1117	997.44	1
303.15	0.1681	998.19	1
303.15	0.2233	998.96	1
303.15	0.2831	999.76	1
303.15	0.3358	1000.44	1
303.15	0.3919	1001.15	1
303.15	0.448	1001.84	1
303.15	0.5032	1002.51	1
308.15	0	994.06	1
308.15	0.0113	994.67	1
308.15	0.0167	994.74	1
308.15	0.0278	994.85	1
308.15	0.0448	995.01	1
308.15	0.1117	995.82	1
308.15	0.1681	996.5	1
308.15	0.2233	997.24	1
308.15	0.2831	998.03	1
308.15	0.3358	998.7	1
308.15	0.3919	999.4	1
308.15	0.448	1000.08	1
308.15	0.5032	1000.73	1
313.15	0	992.24	1
313.15	0.0113	992.81	1
313.15	0.0167	992.88	1
313.15	0.0278	992.97	1
313.15	0.0448	993.11	1
313.15	0.1117	993.98	1
313.15	0.1681	994.62	1
313.15	0.2233	995.34	1
313.15	0.2831	996.08	1
313.15	0.3358	996.74	1
313.15	0.3919	997.43	1
313.15	0.448	998.1	1
313.15	0.5032	998.74	1
318.15	0	990.25	1
318.15	0.0113	990.79	1
318.15	0.0167	990.87	1
318.15	0.0278	990.95	1
318.15	0.0448	991.1	1
318.15	0.1117	991.99	1
318.15	0.1681	992.61	1
318.15	0.2233	993.28	1
318.15	0.2831	994.03	1
318.15	0.3358	994.67	1
318.15	0.3919	995.33	1
318.15	0.448	995.97	1
318.15	0.5032	996.58	1
