Measured thermophysical data. Density measurements for 2,3,3,3-tetrafluoroprop-1-ene (R1234yf)  and trans-1,3,3,3-tetrafluoropropene (R1234ze(E))
Source: J. Chem. Thermodyn., 2013, 10.1016/j.jct.2013.01.006
Compound 1: 1,1,1,2-tetrafluoroethane, C2H2F4, InChI=1S/C2H2F4/c3-1-2(4,5)6/h1H2, purity 99.9%
Compound 2: 2,3,3,3-tetrafluoro-1-propene, C3H2F4, InChI=1S/C3H2F4/c1-2(4)3(5,6)7/h1H2, purity 99.9%
Compound 3: trans-1,3,3,3-tetrafluoropropene, C3H2F4, InChI=1S/C3H2F4/c4-2-1-3(5,6)7/h1-2H/b2-1+, purity 99.9%

System: 1,1,1,2-tetrafluoroethane; phases: Liquid
Property: Mass density, kg/m3 (Liquid); method: Vibrating tube method
Temperature, K	Pressure, kPa	Mass density, kg/m3	uncertainty
303.26	1000	1188.74	0.7
283.52	1010	1262.83	0.53
323.07	1280	1102.44	1.03
343.05	2090	997.14	1.73
343.03	4990	1045.24	1.18
303.27	5000	1212.6	0.6
323.08	5000	1136.68	0.78
362.95	5000	921.91	2.16
283.53	5000	1279.7	0.52
283.54	10000	1298.2	0.51
323.08	10000	1170.98	0.62
343.02	10000	1097	0.78
362.95	10000	1012.79	1.11
303.28	10000	1237.15	0.54
303.29	19980	1275.91	0.56
283.54	20000	1329.16	0.58
343.02	20000	1162.16	0.58
362.96	20000	1101.23	0.65
323.09	20000	1220.67	0.56
343.02	39990	1241.93	0.63
283.54	39990	1376.78	0.81
362.97	40000	1196.59	0.6
323.12	40000	1287.6	0.69
303.29	40010	1332.33	0.75
323.11	60000	1335.02	0.95
362.98	60000	1257.2	0.78
303.3	60000	1374.15	1.06
343.02	60010	1295.73	0.86
283.54	60010	1413.66	1.16
303.3	79980	1408.2	1.49
323.11	80000	1372.84	1.38
362.99	80000	1302.95	1.21
343.03	80010	1337.58	1.28
283.54	80020	1444.29	1.61

System: 2,3,3,3-tetrafluoro-1-propene; phases: Liquid
Property: Mass density, kg/m3 (Liquid); method: Vibrating tube method
Temperature, K	Pressure, kPa	Mass density, kg/m3	uncertainty
283.51	1000	1145.11	0.6
293.43	1000	1111.44	0.68
303.3	1000	1077.2	0.78
283.5	3000	1155.63	0.58
293.43	3000	1123.79	0.63
303.3	3000	1092.22	0.72
313.3	3000	1054.12	0.84
323.17	3000	1014.55	1.04
333.08	3000	970.09	1.36
343.07	3000	917.18	1.96
353.02	3000	849.05	3.23
293.43	5000	1134.97	0.59
283.5	5000	1165.27	0.54
303.3	5000	1105.38	0.65
313.3	5000	1070.05	0.73
323.17	5000	1034.38	0.85
333.08	5000	995.64	1.02
343.07	5000	952.33	1.3
353.03	5000	902.77	1.75
362.96	5000	843.74	2.41
303.3	10000	1133.08	0.57
313.3	10000	1102.25	0.61
283.51	10000	1186.43	0.5
323.17	10000	1072.33	0.68
333.08	10000	1041.18	0.76
343.07	10000	1008.02	0.88
293.44	10000	1159.05	0.53
353.03	10000	973.22	1.04
362.96	10000	936.17	1.26
303.31	15000	1155.81	0.52
313.3	15000	1127.81	0.55
323.17	15000	1101.29	0.58
283.51	15000	1204.63	0.49
333.08	15000	1074.07	0.62
343.06	15000	1045.88	0.68
353.03	15000	1016.73	0.75
293.44	15000	1179.37	0.5
362.96	15000	986.89	0.83
313.31	20000	1149.23	0.52
283.52	20000	1220.62	0.5
323.17	20000	1125.01	0.53
293.44	20000	1196.95	0.5
333.08	20000	1100.37	0.55
343.06	20000	1075.15	0.58
303.3	20000	1175.21	0.51
353.03	20000	1049.45	0.62
362.96	20000	1023.49	0.67
293.45	25000	1212.64	0.51
313.31	25000	1167.84	0.5
323.17	25000	1145.33	0.51
333.08	25000	1122.55	0.52
343.03	25000	1099.43	0.54
283.52	25000	1235	0.52
353.03	25000	1075.98	0.55
303.3	25000	1192.3	0.51
362.96	25000	1052.55	0.58
283.53	30000	1248.1	0.55
293.45	30000	1226.8	0.53
323.16	30000	1163.21	0.51
333.08	30000	1141.81	0.51
313.31	30000	1184.38	0.51
343.04	30000	1120.26	0.51
353.03	30000	1098.53	0.51
303.3	30000	1207.61	0.53
362.96	30000	1076.97	0.52
323.17	40000	1193.69	0.55
283.53	40000	1271.31	0.63
333.08	40000	1174.38	0.53
293.45	40000	1251.77	0.61
343.04	40000	1155.06	0.52
313.32	40000	1212.87	0.57
353.03	40000	1135.71	0.52
303.3	40000	1234.24	0.59
362.96	40000	1116.69	0.51
293.45	50000	1273.28	0.71
323.17	50000	1219.3	0.63
333.08	50000	1201.52	0.6
283.53	50000	1291.52	0.74
343.05	50000	1183.7	0.58
313.32	50000	1237.08	0.65
303.3	50000	1257.07	0.68
353.03	50000	1166.05	0.56
362.96	50000	1148.71	0.54
293.45	60000	1292.28	0.83
323.17	60000	1241.51	0.73
343.05	60000	1208.19	0.67
283.53	60000	1309.52	0.88
353.03	60000	1191.81	0.63
313.32	60000	1258.24	0.76
303.3	60000	1277.12	0.8
333.08	60000	1224.88	0.69
362.96	60000	1175.67	0.61
323.17	69990	1261.48	0.98
303.31	69990	1295.36	1.03
353.03	69990	1214.55	0.91
283.53	69990	1325.92	1.09
343.05	70000	1230.04	0.94
293.44	70000	1309.56	1.06
333.08	70000	1245.82	0.95
313.32	70000	1277.17	1
362.96	70000	1199.47	0.9
313.31	79990	1294.04	1.11
353.03	79990	1234.41	0.98
283.54	79990	1340.69	1.25
323.16	80000	1279.1	1.07
333.08	80000	1264.16	1.04
303.31	80000	1311.51	1.16
293.43	80000	1324.88	1.2
343.05	80000	1249.14	1.01
362.96	80000	1220.08	0.96
353.03	89990	1252.33	1.08
283.54	89990	1354.31	1.43
293.43	89990	1339.25	1.37
362.96	89990	1238.55	1.04
313.32	90000	1309.49	1.27
333.08	90000	1280.84	1.16
323.16	90000	1295.16	1.21
343.05	90000	1266.4	1.12
303.31	90000	1326.38	1.33
353.02	99990	1268.7	1.22
283.54	99990	1367.01	1.62
303.31	99990	1340.07	1.5
333.08	99990	1296.14	1.33
323.16	100000	1309.92	1.38
343.06	100000	1282.22	1.27
313.31	100000	1323.74	1.44
293.42	100000	1352.4	1.56
362.96	100000	1255.48	1.17

System: trans-1,3,3,3-tetrafluoropropene; phases: Liquid
Property: Mass density, kg/m3 (Liquid); method: Vibrating tube method
Temperature, K	Pressure, kPa	Mass density, kg/m3	uncertainty
283.57	1000	1211.68	0.52
293.41	1000	1180.6	0.55
303.38	1000	1149.74	0.65
313.33	1000	1112.39	0.71
323.14	1000	1074.03	0.83
283.57	3000	1219.58	0.5
293.41	3000	1189.81	0.53
303.38	3000	1160.58	0.59
313.33	3000	1125.51	0.65
323.15	3000	1090.3	0.76
333.06	3000	1051.57	0.91
343.06	3000	1007.98	1.17
352.97	3000	957.49	1.61
362.93	3000	894.35	2.45
293.41	5000	1198.39	0.51
283.57	5000	1227.04	0.49
303.39	5000	1170.47	0.55
313.34	5000	1137.25	0.6
323.15	5000	1104.41	0.67
333.06	5000	1068.99	0.76
343.07	5000	1030.29	0.91
352.98	5000	987.78	1.14
362.93	5000	939.3	1.52
303.39	10000	1192.27	0.51
283.57	10000	1243.89	0.48
313.34	10000	1162.32	0.54
293.41	10000	1217.4	0.49
323.15	10000	1133.63	0.58
333.07	10000	1103.45	0.64
343.07	10000	1071.6	0.71
352.99	10000	1038.43	0.82
362.94	10000	1003.24	0.96
303.39	15000	1210.87	0.5
313.35	15000	1183.22	0.51
283.57	15000	1258.79	0.48
323.15	15000	1157.19	0.53
293.41	15000	1234.07	0.49
333.07	15000	1130.26	0.56
343.07	15000	1102.25	0.6
352.98	15000	1073.64	0.65
362.94	15000	1044.15	0.72
313.35	20000	1201.24	0.5
303.39	20000	1227.2	0.51
323.15	20000	1177.23	0.51
333.07	20000	1152.47	0.53
293.41	20000	1248.82	0.5
343.07	20000	1127.03	0.54
283.57	20000	1272.23	0.51
352.98	20000	1101.36	0.57
362.94	20000	1075.24	0.6
313.35	25000	1217.24	0.52
283.57	25000	1284.48	0.55
323.15	25000	1194.71	0.51
303.39	25000	1241.85	0.52
333.07	25000	1171.67	0.51
343.07	25000	1148.05	0.52
293.41	25000	1262.23	0.53
352.98	25000	1124.45	0.53
362.94	25000	1100.62	0.54
313.36	30000	1231.65	0.54
323.15	30000	1210.33	0.53
303.39	30000	1255.15	0.56
333.08	30000	1188.58	0.52
343.07	30000	1166.47	0.51
352.98	30000	1144.41	0.51
293.41	30000	1274.5	0.57
283.56	30000	1295.8	0.59
362.94	30000	1122.31	0.51
323.15	40000	1237.43	0.6
313.36	40000	1256.89	0.62
333.08	40000	1217.68	0.57
303.39	40000	1278.68	0.64
283.56	40000	1316.15	0.69
343.07	40000	1197.69	0.55
352.98	40000	1177.85	0.54
293.41	40000	1296.38	0.67
362.95	40000	1158.16	0.53
283.56	50000	1334.15	0.82
313.37	50000	1278.66	0.72
333.08	50000	1242.22	0.66
293.41	50000	1315.5	0.79
343.07	50000	1223.79	0.64
303.4	50000	1299.13	0.76
352.98	50000	1205.56	0.61
323.15	50000	1260.55	0.69
362.95	50000	1187.53	0.58
313.37	60000	1297.92	0.85
343.07	60000	1246.3	0.74
323.15	60000	1280.78	0.81
293.41	60000	1332.69	0.94
352.97	60000	1229.3	0.71
303.39	60000	1317.3	0.9
283.56	60000	1350.35	0.99
333.09	60000	1263.59	0.77
362.95	60000	1212.48	0.68
293.41	69990	1348.45	1.15
313.37	69990	1315.13	1.07
283.56	69990	1365.2	1.2
323.15	69990	1299.16	1.04
343.07	70000	1266.4	0.99
352.97	70000	1250.62	0.97
303.4	70000	1333.74	1.11
333.09	70000	1282.87	1.02
362.95	70010	1234.72	0.95
293.41	79990	1362.63	1.32
343.08	79990	1284.18	1.09
352.97	79990	1269.19	1.05
333.1	79990	1299.88	1.12
283.56	79990	1378.71	1.38
323.15	80000	1315.46	1.17
313.36	80000	1330.76	1.22
362.95	80000	1254.07	1.03
303.4	80010	1348.59	1.28
352.97	89990	1285.98	1.18
333.1	89990	1315.41	1.29
283.56	90000	1391.26	1.57
303.4	90000	1362.33	1.46
313.36	90000	1345.06	1.4
343.08	90000	1300.35	1.23
293.42	90000	1375.74	1.51
323.15	90000	1330.39	1.34
362.96	90000	1271.47	1.13
283.55	99990	1403.02	1.77
352.97	99990	1301.43	1.35
313.36	99990	1358.3	1.58
333.1	99990	1329.71	1.47
362.96	99990	1287.46	1.3
323.15	100000	1344.16	1.52
303.4	100000	1375.04	1.65
343.08	100000	1315.2	1.41
293.41	100010	1387.95	1.71
