Measured thermophysical data. Gas-phase enthalpies of formation of ethyl hydroxybenzoates: An experimental and theoretical approach
Source: J. Chem. Thermodyn., 2018, 10.1016/j.jct.2017.09.007
Compound 1: carbon dioxide, CO2, InChI=1S/CO2/c2-1-3
Compound 2: water, H2O, InChI=1S/H2O/h1H2
Compound 3: oxygen, O2, InChI=1S/O2/c1-2
Compound 4: ethyl 2-hydroxybenzoate, C9H10O3, InChI=1S/C9H10O3/c1-2-12-9(11)7-5-3-4-6-8(7)10/h3-6,10H,2H2,1H3, purity 99%
Compound 5: ethyl 3-hydroxybenzoate, C9H10O3, InChI=1S/C9H10O3/c1-2-12-9(11)7-4-3-5-8(10)6-7/h3-6,10H,2H2,1H3, purity 99%
Compound 6: ethyl 4-hydroxybenzoate, C9H10O3, InChI=1S/C9H10O3/c1-2-12-9(11)7-3-5-8(10)6-4-7/h3-6,10H,2H2,1H3, purity 99%
Compound 7: butanedioic acid, C4H6O4, InChI=1S/C4H6O4/c5-3(6)1-2-4(7)8/h1-2H2,(H,5,6)(H,7,8), purity 99%

System: ethyl 2-hydroxybenzoate; phases: Liquid, Gas
Property: Molar enthalpy of vaporization or sublimation, kJ/mol (Liquid); method: Derived by Second law
Temperature, K	Molar enthalpy of vaporization or sublimation, kJ/mol	uncertainty
310	65.3	1.3

System: ethyl 2-hydroxybenzoate; phases: Crystal, Liquid, Air at 1 atmosphere
Property: Normal melting temperature, K (Crystal); method: DTA
Normal melting temperature, K	uncertainty
274.48	0.53

System: ethyl 2-hydroxybenzoate; phases: Crystal, Liquid, Air at 1 atmosphere
Property: Molar enthalpy of transition or fusion, kJ/mol (Crystal); method: DSC
Molar enthalpy of transition or fusion, kJ/mol	uncertainty
24.2	0.61

System: ethyl 2-hydroxybenzoate; phases: Liquid
Property: Molar heat capacity at constant pressure, J/K/mol (Liquid); method: Small sample (50 mg) DSC
Pressure, kPa	Temperature, K	Molar heat capacity at constant pressure, J/K/mol	uncertainty
100	298.15	283.07	4.39

System: ethyl 3-hydroxybenzoate; phases: Liquid, Gas
Property: Molar enthalpy of vaporization or sublimation, kJ/mol (Liquid); method: Derived by Second law
Temperature, K	Molar enthalpy of vaporization or sublimation, kJ/mol	uncertainty
360	78.4	1.6

System: ethyl 3-hydroxybenzoate; phases: Crystal, Liquid, Air at 1 atmosphere
Property: Normal melting temperature, K (Crystal); method: DTA
Normal melting temperature, K	uncertainty
345.38	0.46

System: ethyl 3-hydroxybenzoate; phases: Crystal, Liquid, Air at 1 atmosphere
Property: Molar enthalpy of transition or fusion, kJ/mol (Crystal); method: DSC
Molar enthalpy of transition or fusion, kJ/mol	uncertainty
25.8	0.61

System: ethyl 3-hydroxybenzoate; phases: Crystal
Property: Molar heat capacity at constant pressure, J/K/mol (Crystal); method: Small sample (50 mg) DSC
Pressure, kPa	Temperature, K	Molar heat capacity at constant pressure, J/K/mol	uncertainty
100	298.15	217.22	3.37

System: ethyl 4-hydroxybenzoate; phases: Liquid, Gas
Property: Molar enthalpy of vaporization or sublimation, kJ/mol (Liquid); method: Derived by Second law
Temperature, K	Molar enthalpy of vaporization or sublimation, kJ/mol	uncertainty
400	72.7	1.3

System: ethyl 4-hydroxybenzoate; phases: Crystal, Liquid, Air at 1 atmosphere
Property: Normal melting temperature, K (Crystal); method: DTA
Normal melting temperature, K	uncertainty
388.85	0.45

System: ethyl 4-hydroxybenzoate; phases: Crystal, Liquid, Air at 1 atmosphere
Property: Molar enthalpy of transition or fusion, kJ/mol (Crystal); method: DSC
Molar enthalpy of transition or fusion, kJ/mol	uncertainty
27.49	0.63

System: ethyl 4-hydroxybenzoate; phases: Crystal
Property: Molar heat capacity at constant pressure, J/K/mol (Crystal); method: Small sample (50 mg) DSC
Pressure, kPa	Temperature, K	Molar heat capacity at constant pressure, J/K/mol	uncertainty
100	298.15	233.93	3.62

Reaction: -1 butanedioic acid + 4 carbon dioxide + 3 water + -3.5 oxygen
Property: Specific internal energy of reaction at constant volume, J/g
-12636.1

Reaction: -1 ethyl 2-hydroxybenzoate + 9 carbon dioxide + 5 water + -10 oxygen
Property: Specific internal energy of reaction at constant volume, J/g
-26444

Reaction: -1 ethyl 3-hydroxybenzoate + 9 carbon dioxide + 5 water + -10 oxygen
Property: Specific internal energy of reaction at constant volume, J/g
-26339.9

Reaction: -1 ethyl 4-hydroxybenzoate + 9 carbon dioxide + 5 water + -10 oxygen
Property: Specific internal energy of reaction at constant volume, J/g
-26296.5
