Measured thermophysical data. Isobaric vapor-liquid equilibrium of three binary systems containing dimethyl succinate, dimethyl glutarate and dimethyl adipate at 2, 5.2 and 8.3 kPa
Source: J. Chem. Thermodyn., 2019, 10.1016/j.jct.2019.02.006
Compound 1: dimethyl 1,4-butanedioate, C6H10O4, InChI=1S/C6H10O4/c1-9-5(7)3-4-6(8)10-2/h3-4H2,1-2H3
Compound 2: dimethyl pentanedioate, C7H12O4, InChI=1S/C7H12O4/c1-10-6(8)4-3-5-7(9)11-2/h3-5H2,1-2H3
Compound 3: dimethyl 1,6-hexanedioate, C8H14O4, InChI=1S/C8H14O4/c1-11-7(9)5-3-4-6-8(10)12-2/h3-6H2,1-2H3
Compound 4: cyclohexane, C6H12, InChI=1S/C6H12/c1-2-4-6-5-3-1/h1-6H2
Compound 5: heptane, C7H16, InChI=1S/C7H16/c1-3-5-7-6-4-2/h3-7H2,1-2H3

System: dimethyl 1,4-butanedioate; phases: Liquid, Gas
Property: Vapor or sublimation pressure, kPa (Liquid); method: Ebulliometric method (Recirculating still)
Temperature, K	Vapor or sublimation pressure, kPa	uncertainty
363.39	2	0.3
382.13	5.2	0.3
393.49	8.3	0.3

System: dimethyl pentanedioate; phases: Liquid, Gas
Property: Vapor or sublimation pressure, kPa (Liquid); method: Ebulliometric method (Recirculating still)
Temperature, K	Vapor or sublimation pressure, kPa	uncertainty
376.09	2	0.3
395.8	5.2	0.3
407.11	8.3	0.3

System: dimethyl 1,6-hexanedioate; phases: Liquid, Gas
Property: Vapor or sublimation pressure, kPa (Liquid); method: Ebulliometric method (Recirculating still)
Temperature, K	Vapor or sublimation pressure, kPa	uncertainty
390.98	2	0.3
410.82	5.2	0.3
422.47	8.3	0.3

System: cyclohexane; phases: Liquid, Gas
Property: Vapor or sublimation pressure, kPa (Liquid); method: Ebulliometric method (Recirculating still)
Temperature, K	Vapor or sublimation pressure, kPa	uncertainty
353.94	101.3	5.1

System: heptane; phases: Liquid, Gas
Property: Vapor or sublimation pressure, kPa (Liquid); method: Ebulliometric method (Recirculating still)
Temperature, K	Vapor or sublimation pressure, kPa	uncertainty
371.53	101.3	5.1

System: dimethyl 1,4-butanedioate + dimethyl pentanedioate; phases: Liquid, Gas
Property: Boiling temperature at pressure P, K (Liquid); method: Ebulliometric method (Recirculating still)
Mole fraction of dimethyl 1,4-butanedioate	Pressure, kPa	Boiling temperature at pressure P, K	uncertainty
0	2	376.09	2.03
0.0391	2	375.11	2.04
0.1347	2	373.13	2.02
0.2193	2	371.67	1.99
0.2845	2	370.72	1.99
0.3239	2	370.19	1.99
0.4018	2	369.03	1.99
0.5406	2	367.52	2
0.5989	2	366.78	2.01
0.6672	2	365.97	2.02
0.7326	2	365.24	2.02
0.8083	2	364.7	2.02
0.846	2	364.52	2.01
0.9377	2	363.85	2
1	2	363.39	1.95
0	5.2	395.8	1.74
0.0508	5.2	394.36	1.77
0.1174	5.2	392.77	1.78
0.2026	5.2	391.03	1.81
0.2405	5.2	390.47	1.7
0.2809	5.2	389.81	1.73
0.3703	5.2	388.7	1.73
0.5124	5.2	387	1.73
0.5901	5.2	386.22	1.72
0.6936	5.2	385.23	1.71
0.8017	5.2	384.33	1.73
0.8131	5.2	384.18	1.73
0.8605	5.2	383.85	1.71
0.9551	5.2	383.06	1.72
1	5.2	382.13	1.7
0	8.3	407.11	1.46
0.0572	8.3	405.52	1.54
0.1317	8.3	403.65	1.51
0.2121	8.3	402.1	1.49
0.2481	8.3	401.47	1.47
0.3139	8.3	400.51	1.47
0.3951	8.3	399.44	1.46
0.5102	8.3	398	1.45
0.5953	8.3	397.08	1.44
0.6964	8.3	396.1	1.44
0.7861	8.3	395.29	1.43
0.8003	8.3	395.13	1.43
0.8492	8.3	394.81	1.43
0.9383	8.3	394.07	1.43
1	8.3	393.49	1.46

System: dimethyl 1,4-butanedioate + dimethyl pentanedioate; phases: Gas, Liquid
Property: Mole fraction of dimethyl 1,4-butanedioate (Gas); method: Chromatography
Mole fraction of dimethyl 1,4-butanedioate	Pressure, kPa	Mole fraction of dimethyl 1,4-butanedioate	uncertainty
0	2	0	
0.0391	2	0.0829	0.0386
0.1347	2	0.2572	0.0351
0.2193	2	0.3835	0.0312
0.2845	2	0.4666	0.0288
0.3239	2	0.5111	0.0268
0.4018	2	0.5933	0.0246
0.5406	2	0.7105	0.0235
0.5989	2	0.7554	0.0224
0.6672	2	0.8022	0.0218
0.7326	2	0.845	0.0211
0.8083	2	0.8879	0.0208
0.846	2	0.9102	0.0209
0.9377	2	0.9637	0.0208
1	2	1	
0	5.2	0	
0.0508	5.2	0.1082	0.0388
0.1174	5.2	0.2261	0.0345
0.2026	5.2	0.3553	0.032
0.2405	5.2	0.4028	0.0281
0.2809	5.2	0.4484	0.026
0.3703	5.2	0.5384	0.0254
0.5124	5.2	0.6714	0.024
0.5901	5.2	0.7239	0.0222
0.6936	5.2	0.7996	0.0221
0.8017	5.2	0.8748	0.0218
0.8131	5.2	0.8813	0.0218
0.8605	5.2	0.9118	0.0213
0.9551	5.2	0.9718	0.0213
1	5.2	1	
0	8.3	0	
0.0572	8.3	0.1207	0.0381
0.1317	8.3	0.2464	0.0333
0.2121	8.3	0.3615	0.0309
0.2481	8.3	0.4065	0.0275
0.3139	8.3	0.4783	0.0262
0.3951	8.3	0.5581	0.0245
0.5102	8.3	0.6559	0.0236
0.5953	8.3	0.7241	0.0226
0.6964	8.3	0.7958	0.0221
0.7861	8.3	0.8584	0.0217
0.8003	8.3	0.8652	0.0217
0.8492	8.3	0.8979	0.0218
0.9383	8.3	0.9585	0.0217
1	8.3	1	

System: dimethyl 1,4-butanedioate + dimethyl 1,6-hexanedioate; phases: Liquid, Gas
Property: Boiling temperature at pressure P, K (Liquid); method: Ebulliometric method (Recirculating still)
Mole fraction of dimethyl 1,4-butanedioate	Pressure, kPa	Boiling temperature at pressure P, K	uncertainty
0	2	390.98	2.04
0.046	2	388.35	2.16
0.1508	2	383.43	2.02
0.2403	2	379.83	1.98
0.3444	2	376.35	2
0.416	2	374.21	2.01
0.499	2	372.46	1.99
0.5101	2	372.18	1.99
0.5746	2	370.96	2
0.6792	2	368.81	2.01
0.7372	2	367.52	2
0.8251	2	365.95	2.01
0.9026	2	364.3	2
0.9721	2	363.97	1.97
1	2	363.39	1.95
0	5.2	410.82	1.75
0.0375	5.2	407.99	2.09
0.1222	5.2	402.49	1.97
0.2301	5.2	398.13	1.84
0.3263	5.2	395.29	1.82
0.3763	5.2	393.98	1.71
0.4428	5.2	392.6	1.74
0.4871	5.2	391.51	1.71
0.5928	5.2	389.56	1.75
0.6687	5.2	388.01	1.79
0.7279	5.2	386.74	1.73
0.8126	5.2	385.21	1.74
0.9167	5.2	383.71	1.76
0.9767	5.2	382.63	1.77
1	5.2	382.13	1.7
0	8.3	422.47	1.48
0.0449	8.3	419.63	1.86
0.1597	8.3	412.82	1.81
0.2687	8.3	408.3	1.6
0.3393	8.3	406.13	1.54
0.4115	8.3	404.22	1.5
0.4547	8.3	403.17	1.5
0.4929	8.3	402.17	1.47
0.6217	8.3	399.75	1.46
0.6908	8.3	398.62	1.46
0.7726	8.3	397.42	1.49
0.8749	8.3	395.51	1.48
0.9164	8.3	394.96	1.48
0.973	8.3	393.92	1.49
1	8.3	393.49	1.46

System: dimethyl 1,4-butanedioate + dimethyl 1,6-hexanedioate; phases: Gas, Liquid
Property: Mole fraction of dimethyl 1,4-butanedioate (Gas); method: Chromatography
Mole fraction of dimethyl 1,4-butanedioate	Pressure, kPa	Mole fraction of dimethyl 1,4-butanedioate	uncertainty
0	2	0	
0.046	2	0.1778	0.0548
0.1508	2	0.4434	0.0419
0.2403	2	0.5812	0.0294
0.3444	2	0.6915	0.0254
0.416	2	0.7527	0.0226
0.499	2	0.8083	0.021
0.5101	2	0.8107	0.021
0.5746	2	0.8463	0.02
0.6792	2	0.8924	0.0194
0.7372	2	0.91006	0.01901
0.8251	2	0.941	0.0191
0.9026	2	0.9671	0.019
0.9721	2	0.9902	0.0098
1	2	1	
0	5.2	0	
0.0375	5.2	0.158	0.059
0.1222	5.2	0.3954	0.0427
0.2301	5.2	0.5709	0.0312
0.3263	5.2	0.6771	0.0262
0.3763	5.2	0.7236	0.0231
0.4428	5.2	0.7698	0.0219
0.4871	5.2	0.7994	0.021
0.5928	5.2	0.8591	0.0203
0.6687	5.2	0.8939	0.0195
0.7279	5.2	0.9181	0.0194
0.8126	5.2	0.9478	0.019
0.9167	5.2	0.9788	0.0187
0.9767	5.2	0.9943	0.0057
1	5.2	1	
0	8.3	0	
0.0449	8.3	0.1651	0.0522
0.1597	8.3	0.4451	0.0406
0.2687	8.3	0.6115	0.0305
0.3393	8.3	0.6851	0.0245
0.4115	8.3	0.7414	0.0227
0.4547	8.3	0.7721	0.0219
0.4929	8.3	0.7974	0.0206
0.6217	8.3	0.8648	0.0201
0.6908	8.3	0.8938	0.0195
0.7726	8.3	0.927	0.019
0.8749	8.3	0.9627	0.019
0.9164	8.3	0.975	0.019
0.973	8.3	0.9922	0.0078
1	8.3	1	

System: dimethyl pentanedioate + dimethyl 1,6-hexanedioate; phases: Liquid, Gas
Property: Boiling temperature at pressure P, K (Liquid); method: Ebulliometric method (Recirculating still)
Mole fraction of dimethyl pentanedioate	Pressure, kPa	Boiling temperature at pressure P, K	uncertainty
0	2	390.98	2.04
0.0311	2	390.42	2.04
0.0533	2	389.98	2.05
0.0958	2	388.96	2.05
0.1402	2	387.89	2.05
0.1788	2	387.12	2
0.2578	2	385.57	1.99
0.3863	2	383.19	1.98
0.4867	2	382.05	2
0.5604	2	381.05	2
0.6101	2	380.39	2
0.6821	2	379.55	2.01
0.7948	2	378.24	2.02
0.8938	2	377.24	2.02
1	2	376.09	2.03
0	5.2	410.82	1.75
0.0438	5.2	409.7	1.79
0.0895	5.2	408.53	1.77
0.198	5.2	405.7	1.78
0.2844	5.2	404.01	1.8
0.323	5.2	403.38	1.78
0.4006	5.2	402.16	1.81
0.4339	5.2	401.89	1.77
0.4699	5.2	401.41	1.81
0.5247	5.2	400.82	1.76
0.5748	5.2	400.01	1.74
0.6313	5.2	399.39	1.74
0.6923	5.2	398.82	1.74
0.7722	5.2	397.99	1.75
0.8701	5.2	396.96	1.75
1	5.2	395.8	1.74
0	8.3	422.47	1.46
0.0315	8.3	421.62	1.52
0.077	8.3	420.39	1.5
0.1919	8.3	417.75	1.5
0.2968	8.3	416.21	1.5
0.3684	8.3	415.11	1.52
0.4144	8.3	414.2	1.49
0.4964	8.3	413.17	1.48
0.5762	8.3	411.89	1.48
0.6171	8.3	411.48	1.47
0.6754	8.3	410.71	1.46
0.7641	8.3	409.66	1.45
0.7885	8.3	409.28	1.5
0.904	8.3	408.11	1.43
1	8.3	407.11	1.41
0.0444	10	426.12	1.34
0.1041	10	424.91	1.37
0.1685	10	423.67	1.42
0.2231	10	422.7	1.41
0.3068	10	421.27	1.38
0.3925	10	419.92	1.39
0.4687	10	418.79	1.37
0.5711	10	417.34	1.38
0.6245	10	416.61	1.37
0.6662	10	416.08	1.36
0.7486	10	414.95	1.36
0.785	10	414.61	1.36
0.8801	10	413.37	1.33
0.9344	10	412.72	1.33

System: dimethyl pentanedioate + dimethyl 1,6-hexanedioate; phases: Gas, Liquid
Property: Mole fraction of dimethyl pentanedioate (Gas); method: Chromatography
Mole fraction of dimethyl pentanedioate	Pressure, kPa	Mole fraction of dimethyl pentanedioate	uncertainty
0	2	0	
0.0311	2	0.0713	0.0429
0.0533	2	0.1149	0.0385
0.0958	2	0.1938	0.0359
0.1402	2	0.265	0.0328
0.1788	2	0.3199	0.0298
0.2578	2	0.4204	0.0275
0.3863	2	0.558	0.025
0.4867	2	0.6414	0.0235
0.5604	2	0.7014	0.023
0.6101	2	0.7376	0.0224
0.6821	2	0.7907	0.0222
0.7948	2	0.8701	0.0218
0.8938	2	0.9354	0.0213
1	2	1	
0	5.2	0	
0.0438	5.2	0.0964	0.0408
0.0895	5.2	0.1825	0.0341
0.198	5.2	0.3476	0.0313
0.2844	5.2	0.4575	0.0279
0.323	5.2	0.4935	0.0246
0.4006	5.2	0.5634	0.0242
0.4339	5.2	0.5907	0.0244
0.4699	5.2	0.6216	0.0234
0.5247	5.2	0.6663	0.0233
0.5748	5.2	0.7061	0.0226
0.6313	5.2	0.7449	0.0221
0.6923	5.2	0.787	0.0219
0.7722	5.2	0.8423	0.0219
0.8701	5.2	0.9102	0.022
1	5.2	1	
0	8.3	0	
0.0315	8.3	0.0676	0.0398
0.077	8.3	0.152	0.0334
0.1919	8.3	0.3218	0.0297
0.2968	8.3	0.439	0.027
0.3684	8.3	0.5109	0.0275
0.4144	8.3	0.5582	0.0235
0.4964	8.3	0.6281	0.0227
0.5762	8.3	0.6901	0.0237
0.6171	8.3	0.7226	0.0235
0.6754	8.3	0.7685	0.0225
0.7641	8.3	0.8368	0.0236
0.7885	8.3	0.8549	0.0263
0.904	8.3	0.9363	0.0217
1	8.3	1	
0.0444	10	0.0889	0.0344
0.1041	10	0.186	0.0334
0.1685	10	0.2822	0.0356
0.2231	10	0.3893	0.0296
0.3068	10	0.4659	0.0263
0.3925	10	0.5638	0.0273
0.4687	10	0.645	0.026
0.5711	10	0.7418	0.0253
0.6245	10	0.7873	0.0239
0.6662	10	0.8162	0.0233
0.7486	10	0.8774	0.0222
0.785	10	0.8916	0.021
0.8801	10	0.9468	0.0205
0.9344	10	0.9701	0.0197

System: cyclohexane + heptane; phases: Liquid, Gas
Fixed: Pressure, kPa = 101.3
Property: Boiling temperature at pressure P, K (Liquid); method: Ebulliometric method (Recirculating still)
Mole fraction of cyclohexane	Boiling temperature at pressure P, K	uncertainty
0	371.53	1
0.0801	369.87	1.1
0.1189	368.48	1.06
0.2483	366.42	1.06
0.315	364.85	1.07
0.3856	363.64	1.06
0.5133	361.21	1.05
0.6012	360.02	1.04
0.6833	358.57	1.04
0.7535	357.6	1.05
0.8746	355.41	1.04
1	353.94	1

System: cyclohexane + heptane; phases: Gas, Liquid
Fixed: Pressure, kPa = 101.3
Property: Mole fraction of cyclohexane (Gas); method: Chromatography
Mole fraction of cyclohexane	Mole fraction of cyclohexane	uncertainty
0	0	
0.0801	0.1237	0.0351
0.1189	0.2017	0.0281
0.2483	0.3341	0.0282
0.315	0.4418	0.0281
0.3856	0.4968	0.0261
0.5133	0.6416	0.0263
0.6012	0.7221	0.0242
0.6833	0.7924	0.0216
0.7535	0.8217	0.0226
0.8746	0.9321	0.0222
1	1	
