Measured thermophysical data. High-temperature, high-pressure viscosities and densities of toluene
Source: J. Chem. Thermodyn., 2017, 10.1016/j.jct.2017.07.015
Compound 1: toluene, C7H8, InChI=1S/C7H8/c1-7-5-3-2-4-6-7/h2-6H,1H3, purity 99.9%

System: toluene; phases: Liquid
Property: Mass density, kg/m3 (Liquid); method: Bellows volumetry
Temperature, K	Pressure, kPa	Mass density, kg/m3	uncertainty
295.9	15300	873.9	7
295.9	15300	873.9	7
295.9	36900	888.3	7.1
295.9	37000	888.3	7.1
295.9	56300	899.5	7.2
295.9	56300	899.5	7.2
295.9	77100	910.8	7.3
295.9	77100	910.8	7.3
295.9	92300	918.5	7.4
295.9	92300	918.5	7.4
295.9	112400	927.8	7.4
295.9	112500	927.9	7.4
295.9	113100	928	7.4
295.9	113100	927.9	7.4
295.9	132800	936.5	7.5
295.9	132800	936.5	7.5
295.9	154900	945.5	7.6
295.9	155000	945.5	7.6
305.1	8800	860.1	6.9
305.1	8800	860.1	6.9
305.1	71100	900.3	7.2
305.1	71100	900.3	7.2
305.1	71100	900.3	7.2
305.1	71100	900.3	7.2
305.1	125700	926.6	7.4
305.1	125700	926.6	7.4
305.1	174300	946.6	7.6
305.1	174500	946.6	7.6
323.4	21600	852.5	6.8
323.4	21700	852.5	6.8
323.4	31600	860.3	6.9
323.4	56700	877.1	7
323.4	56700	877.1	7
323.4	56700	877.1	7
323.4	77500	889.3	7.1
323.4	77600	889.4	7.1
323.4	110300	906.5	7.3
323.4	110400	906.5	7.3
323.4	133100	919.1	7.4
323.4	133100	919.2	7.4
323.4	149000	926	7.4
323.4	149100	926	7.4
323.4	153800	926	7.4
323.4	153900	926	7.4
323.4	153900	926	7.4
323.4	154000	926	7.4
323.4	182500	939.6	7.5
323.4	182500	939.5	7.5
323.4	202800	947.3	7.6
323.4	202900	947.4	7.6
323.4	219900	953.2	7.6
323.4	220100	953.3	7.6
323.4	223000	952.9	7.6
323.4	223300	952.9	7.6
347.3	9200	821.2	6.6
347.3	9200	821.3	6.6
347.3	35500	845.5	6.8
347.3	35600	845.6	6.8
347.3	82100	877.4	7
347.3	82200	877.4	7
347.3	106400	891.1	7.1
347.3	106500	891.1	7.1
347.3	140400	907.9	7.3
347.3	140400	907.9	7.3
347.3	140600	907.9	7.3
347.3	140700	907.9	7.3
347.3	160800	917.1	7.4
347.3	160800	917.1	7.4
347.3	182500	926.1	7.4
347.3	182500	926.1	7.4
347.3	182500	926.2	7.4
347.3	182600	926.2	7.4
347.3	204500	934.8	7.5
347.3	204800	934.8	7.5
392.5	16800	789.6	6.3
392.5	16800	789.7	6.3
392.5	35200	810.6	6.5
392.5	35200	810.6	6.5
392.5	35200	810.6	6.5
392.5	35300	810.6	6.5
392.5	48400	822.9	6.6
392.5	48500	822.9	6.6
392.5	64700	831.8	6.7
392.5	64800	832.6	6.7
392.5	78400	846.1	6.8
392.5	78500	846.2	6.8
392.5	90500	849.8	6.8
392.5	90600	850.6	6.8
392.5	113000	865.4	6.9
392.5	113100	866.2	6.9
392.5	133600	875.1	7
392.5	133700	875.9	7
392.5	154300	886.5	7.1
392.5	154400	886.6	7.1
392.5	174900	895.6	7.2
392.5	195100	904.6	7.3
392.5	195200	904.6	7.3
392.5	195200	905.4	7.3
392.5	216900	913.6	7.3
392.5	217100	914.4	7.3
392.5	238700	923.8	7.4
392.5	238900	924.7	7.4
392.5	258600	929.8	7.5
392.5	258900	930.7	7.5
392.5	279100	938.4	7.5
392.5	279700	939.3	7.5
421.5	10200	755.6	6.1
421.5	10300	755.7	6.1
421.5	21700	771.9	6.2
421.5	21900	772	6.2
421.5	36200	788.7	6.4
421.5	36200	788.8	6.4
421.5	49700	802.4	6.5
421.5	49800	802.5	6.5
421.5	70900	818.3	6.6
421.5	70900	818.7	6.6
421.5	87800	832.8	6.7
421.5	87800	832.4	6.7
421.5	106200	841.8	6.8
421.5	106200	842.1	6.8
421.5	121800	852	6.9
421.5	121800	851.6	6.9
421.5	133100	862	6.9
421.5	133200	862.1	6.9
421.5	139800	862.1	6.9
421.5	139900	865.9	7
421.5	160700	873.2	7
421.5	160700	873.3	7
421.5	175700	881.8	7.1
421.5	177600	881.7	7.1
421.5	188500	890.6	7.2
421.5	188700	890.5	7.2
421.5	196400	890.5	7.2
421.5	196500	890.4	7.2
421.5	216100	899.2	7.2
421.5	216200	899.2	7.2
421.5	237800	912	7.3
421.5	237900	911.7	7.3
421.5	258000	916.4	7.4
421.5	258400	916.5	7.4
421.5	274100	925.5	7.5
421.5	274400	925.6	7.5
421.5	296000	932.5	7.5
421.5	297900	932.7	7.5
451.8	18700	738.4	5.9
451.8	18800	738.7	6
451.8	43000	772.1	6.2
451.8	43100	772.1	6.2
451.8	43200	772.4	6.2
451.8	70500	799.4	6.4
451.8	70600	799.6	6.4
451.8	85500	812	6.5
451.8	85500	812.2	6.5
451.8	99500	822.4	6.6
451.8	99600	822.4	6.6
451.8	99600	822.7	6.6
451.8	112800	827.6	6.7
451.8	113000	827	6.7
451.8	116500	833.9	6.7
451.8	116600	834.2	6.7
451.8	133600	842	6.8
451.8	133600	842	6.8
451.8	133700	841.4	6.8
451.8	174900	865.2	7
451.8	175000	864.5	7
451.8	216400	885.3	7.1
451.8	216600	884.6	7.1
451.8	238400	896.6	7.2
451.8	259000	906	7.3
451.8	259300	905.4	7.3
451.8	279400	912.7	7.4
451.8	280100	913.6	7.4
451.8	280100	912.9	7.4
500.3	23600	700.8	5.6
500.3	23700	700.7	5.6
500.3	56400	751.7	6.1
500.3	56600	751.6	6.1
500.3	84300	780.6	6.3
500.3	84400	780.4	6.3
500.3	105100	797.7	6.4
500.3	105200	797.6	6.4
500.3	129700	810.6	6.5
500.3	129800	810.7	6.5
500.3	168300	836.2	6.7
500.3	168500	836.3	6.7
500.3	188400	847.4	6.8
500.3	188500	847.5	6.8
500.3	215100	860.8	6.9
500.3	215300	860.9	6.9
500.3	235700	871.9	7
500.3	235900	872	7
500.3	238600	871.9	7
500.3	238800	872	7
500.3	258100	881.8	7.1
500.3	258300	881.9	7.1
500.3	279600	890.2	7.2
500.3	280200	890.3	7.2
534.9	38300	697.6	5.6
534.9	38300	696.9	5.6
534.9	52600	721.7	5.8
534.9	52800	721	5.8
534.9	69500	743.2	6
534.9	69600	742.5	6
534.9	89900	764.7	6.2
534.9	89900	764.7	6.2
534.9	90000	764	6.2
534.9	90000	764	6.2
534.9	105800	778.7	6.3
534.9	105900	778	6.3
534.9	125700	794.4	6.4
534.9	125800	793.6	6.4
534.9	171000	819	6.6
534.9	171100	819	6.6
534.9	171300	820.8	6.6
534.9	211800	843.1	6.8
534.9	212000	844.9	6.8
534.9	237300	859.2	6.9
534.9	257400	865.2	7
534.9	257700	867.1	7
534.9	279600	876.8	7.1
534.9	280800	878.1	7.1

System: toluene; phases: Liquid
Property: Viscosity, Pa*s (Liquid); method: Falling or rolling sphere viscometry
Temperature, K	Pressure, kPa	Viscosity, Pa*s	uncertainty
295.9	15300	0.000627	2.6e-05
295.9	15300	0.000617	2.5e-05
295.9	36900	0.000736	3e-05
295.9	37000	0.000722	3e-05
295.9	56300	0.000847	3.5e-05
295.9	56300	0.000841	3.5e-05
295.9	77100	0.000956	4e-05
295.9	77100	0.000974	4.1e-05
295.9	92300	0.001047	4.4e-05
295.9	92300	0.001062	4.5e-05
295.9	112400	0.001198	5e-05
295.9	112500	0.001221	5.1e-05
295.9	113100	0.001218	5.1e-05
295.9	113100	0.001195	5e-05
295.9	132800	0.001356	5.7e-05
295.9	132800	0.00141	5.9e-05
295.9	154900	0.001528	6.4e-05
295.9	155000	0.001549	6.5e-05
299.1	3800	0.000556	2.3e-05
299.1	3800	0.000553	2.3e-05
299.1	3900	0.000554	2.3e-05
299.1	3900	0.000558	2.3e-05
299.1	10800	0.000586	2.4e-05
299.1	10800	0.000586	2.4e-05
299.1	10800	0.000587	2.4e-05
299.1	10800	0.000587	2.4e-05
299.1	18900	0.000625	2.6e-05
299.1	18900	0.000624	2.6e-05
299.1	18900	0.000624	2.6e-05
299.1	19000	0.00062	2.5e-05
299.1	24000	0.000646	2.6e-05
299.1	24000	0.000646	2.6e-05
299.1	24200	0.000642	2.6e-05
299.1	24300	0.000647	2.6e-05
299.1	31500	0.00068	2.8e-05
299.1	31500	0.000678	2.8e-05
299.1	31600	0.000681	2.8e-05
299.1	31700	0.000681	2.8e-05
299.1	31700	0.000684	2.8e-05
299.1	31800	0.000678	2.8e-05
323.4	21600	0.000489	2e-05
323.4	21700	0.000479	2e-05
323.4	31600	0.000524	2.1e-05
323.4	56700	0.000625	2.6e-05
323.4	56700	0.000627	2.6e-05
323.4	56700	0.000639	2.6e-05
323.4	77500	0.000725	3e-05
323.4	77600	0.000735	3.1e-05
323.4	110300	0.000875	3.7e-05
323.4	110400	0.000876	3.7e-05
323.4	133100	0.000955	4e-05
323.4	133100	0.000977	4.1e-05
323.4	149000	0.001059	4.4e-05
323.4	149100	0.001039	4.3e-05
323.4	153800	0.001092	4.6e-05
323.4	153900	0.001075	4.5e-05
323.4	153900	0.001106	4.6e-05
323.4	154000	0.001056	4.4e-05
323.4	182500	0.001228	5.1e-05
323.4	182500	0.001245	5.2e-05
323.4	202800	0.001364	5.7e-05
323.4	202900	0.001361	5.7e-05
323.4	219900	0.001467	6.1e-05
323.4	220100	0.001492	6.3e-05
323.4	223000	0.001556	6.5e-05
323.4	223300	0.001491	6.2e-05
324	4000	0.000427	1.7e-05
324	4100	0.000427	1.7e-05
324	4200	0.000422	1.7e-05
324	4200	0.000422	1.7e-05
324	7500	0.00044	1.8e-05
324	7600	0.000438	1.8e-05
324	7600	0.000437	1.8e-05
324	7700	0.000435	1.8e-05
324	16000	0.000461	1.9e-05
324	16000	0.000465	1.9e-05
324	16000	0.000464	1.9e-05
324	16200	0.000463	1.9e-05
324	16800	0.000471	1.9e-05
324	17000	0.000467	1.9e-05
324	22500	0.000488	2e-05
324	22500	0.000487	2e-05
324	22600	0.000485	2e-05
324	22700	0.000484	2e-05
324	36300	0.000539	2.2e-05
324	36400	0.000535	2.2e-05
324	36800	0.000537	2.2e-05
324	37000	0.000534	2.2e-05
324	37600	0.000539	2.2e-05
324	37800	0.000538	2.2e-05
324	48500	0.000578	2.4e-05
324	48500	0.000584	2.4e-05
324	48600	0.000578	2.4e-05
324	48700	0.000579	2.4e-05
324	58700	0.00062	2.5e-05
324	58800	0.000621	2.5e-05
324	58900	0.000614	2.5e-05
324	58900	0.000617	2.5e-05
324	60100	0.000627	2.6e-05
324	60300	0.000625	2.6e-05
347.3	9200	0.000353	1.4e-05
347.3	9200	0.000348	1.4e-05
347.3	35500	0.000432	1.8e-05
347.3	35600	0.000425	1.7e-05
347.3	82100	0.000594	2.5e-05
347.3	82200	0.000586	2.4e-05
347.3	106400	0.000662	2.8e-05
347.3	106500	0.000673	2.8e-05
347.3	140400	0.000789	3.3e-05
347.3	140400	0.000802	3.3e-05
347.3	140600	0.000808	3.4e-05
347.3	140700	0.000795	3.3e-05
347.3	160800	0.000866	3.6e-05
347.3	160800	0.00088	3.7e-05
347.3	182500	0.000972	4.1e-05
347.3	182500	0.000976	4.1e-05
347.3	182500	0.000948	4e-05
347.3	182600	0.000951	4e-05
347.3	204500	0.001061	4.4e-05
347.3	204800	0.001053	4.4e-05
348.1	3500	0.000343	1.4e-05
348.1	3900	0.000345	1.4e-05
348.1	3900	0.000347	1.4e-05
348.1	4200	0.000342	1.4e-05
348.1	9300	0.000362	1.5e-05
348.1	9400	0.000362	1.5e-05
348.1	9500	0.000358	1.5e-05
348.1	9500	0.000358	1.5e-05
348.1	14800	0.000378	1.5e-05
348.1	14900	0.000377	1.5e-05
348.1	15100	0.000373	1.5e-05
348.1	15100	0.000373	1.5e-05
348.1	28700	0.000415	1.7e-05
348.1	28800	0.000414	1.7e-05
348.1	29000	0.000411	1.7e-05
348.1	29000	0.000411	1.7e-05
348.1	29200	0.000414	1.7e-05
348.1	29400	0.000412	1.7e-05
348.1	44000	0.00046	1.9e-05
348.1	44000	0.000457	1.9e-05
348.1	44300	0.000454	1.9e-05
348.1	44300	0.000454	1.9e-05
348.1	55700	0.000491	2e-05
348.1	55800	0.000492	2e-05
348.1	55900	0.000493	2e-05
348.1	56000	0.000486	2e-05
348.1	56100	0.000488	2e-05
348.1	56300	0.000487	2e-05
348.1	71000	0.000537	2.2e-05
348.1	71000	0.000536	2.2e-05
348.1	71300	0.000533	2.2e-05
348.1	71300	0.000531	2.2e-05
348.1	85500	0.00058	2.4e-05
348.1	85500	0.00058	2.4e-05
348.1	85800	0.000575	2.4e-05
348.1	85800	0.000575	2.4e-05
373.8	10500	0.0003	1.2e-05
373.8	10500	0.000301	1.2e-05
373.8	10500	0.000301	1.2e-05
373.8	10700	0.0003	1.2e-05
373.8	10700	0.000299	1.2e-05
373.8	10800	0.0003	1.2e-05
373.8	21100	0.000327	1.3e-05
373.8	21200	0.000325	1.3e-05
373.8	21200	0.000325	1.3e-05
373.8	21300	0.000321	1.3e-05
373.8	21500	0.000323	1.3e-05
373.8	21500	0.000323	1.3e-05
373.8	35500	0.000358	1.5e-05
373.8	35800	0.000359	1.5e-05
373.8	35800	0.000357	1.5e-05
373.8	35800	0.000355	1.4e-05
373.8	36000	0.000357	1.5e-05
373.8	36100	0.000354	1.4e-05
373.8	57900	0.000412	1.7e-05
373.8	57900	0.000411	1.7e-05
373.8	58200	0.000408	1.7e-05
373.8	58200	0.000408	1.7e-05
373.8	70500	0.00044	1.8e-05
373.8	70600	0.000435	1.8e-05
373.8	70900	0.000437	1.8e-05
373.8	71000	0.000434	1.8e-05
373.8	85200	0.000474	2e-05
373.8	85200	0.000475	2e-05
373.8	85500	0.000471	2e-05
373.8	85500	0.000471	2e-05
373.8	103500	0.00052	2.2e-05
373.8	103900	0.000519	2.2e-05
373.8	104700	0.000524	2.2e-05
373.8	104800	0.000525	2.2e-05
373.8	105000	0.00052	2.2e-05
373.8	105100	0.000521	2.2e-05
373.8	125900	0.000579	2.4e-05
373.8	125900	0.000579	2.4e-05
373.8	126200	0.000576	2.4e-05
373.8	126300	0.000577	2.4e-05
373.8	145700	0.000632	2.6e-05
373.8	145800	0.000637	2.6e-05
373.8	146100	0.000629	2.6e-05
373.8	146200	0.000629	2.6e-05
374.7	3200	0.000266	1.1e-05
374.7	3400	0.000265	1.1e-05
374.7	6900	0.000275	1.1e-05
374.7	7100	0.000274	1.1e-05
374.7	13500	0.000293	1.2e-05
374.7	13800	0.000292	1.2e-05
374.7	20400	0.000309	1.3e-05
374.7	20900	0.000307	1.3e-05
374.7	27300	0.000328	1.3e-05
374.7	27500	0.000325	1.3e-05
374.7	33500	0.00034	1.4e-05
374.7	33900	0.000339	1.4e-05
374.7	48200	0.000377	1.5e-05
374.7	48600	0.000374	1.5e-05
392.5	16800	0.000269	1.1e-05
392.5	16800	0.00027	1.1e-05
392.5	35200	0.000308	1.3e-05
392.5	35200	0.00032	1.3e-05
392.5	35200	0.000311	1.3e-05
392.5	35300	0.000306	1.2e-05
392.5	48400	0.000337	1.4e-05
392.5	48500	0.000331	1.3e-05
392.5	64700	0.000379	1.5e-05
392.5	64800	0.00038	1.5e-05
392.5	78400	0.000408	1.7e-05
392.5	78500	0.000409	1.7e-05
392.5	90500	0.000438	1.8e-05
392.5	90600	0.000438	1.8e-05
392.5	113000	0.000493	2e-05
392.5	113100	0.000497	2.1e-05
392.5	133600	0.000542	2.3e-05
392.5	133700	0.000539	2.2e-05
392.5	154300	0.000601	2.5e-05
392.5	154400	0.000601	2.5e-05
392.5	174900	0.000655	2.7e-05
392.5	195100	0.000704	2.9e-05
392.5	195200	0.000701	2.9e-05
392.5	195200	0.000707	2.9e-05
392.5	216900	0.000758	3.2e-05
392.5	217100	0.000756	3.1e-05
392.5	238700	0.000817	3.4e-05
392.5	238900	0.000823	3.4e-05
392.5	258600	0.000874	3.6e-05
392.5	258900	0.000884	3.7e-05
392.5	279100	0.000933	3.9e-05
392.5	279700	0.000939	3.9e-05
421.5	49700	0.000297	1.2e-05
421.5	49800	0.000292	1.2e-05
421.5	70900	0.000335	1.4e-05
421.5	70900	0.000338	1.4e-05
421.5	87800	0.000369	1.5e-05
421.5	87800	0.000369	1.5e-05
421.5	106200	0.000401	1.7e-05
421.5	106200	0.000409	1.7e-05
421.5	121800	0.000432	1.8e-05
421.5	121800	0.000432	1.8e-05
421.5	133100	0.000455	1.9e-05
421.5	133200	0.000455	1.9e-05
421.5	139800	0.000469	2e-05
421.5	139900	0.000469	2e-05
421.5	160700	0.000511	2.1e-05
421.5	160700	0.000511	2.1e-05
421.5	175700	0.000542	2.3e-05
421.5	177600	0.000546	2.3e-05
421.5	188500	0.000569	2.4e-05
421.5	188700	0.00057	2.4e-05
421.5	196400	0.000586	2.4e-05
421.5	196500	0.000586	2.4e-05
421.5	216100	0.000629	2.6e-05
421.5	216200	0.000629	2.6e-05
421.5	237800	0.000676	2.8e-05
421.5	237900	0.000676	2.8e-05
421.5	258000	0.000721	3e-05
421.5	258400	0.000722	3e-05
421.5	274100	0.000757	3.2e-05
421.5	274400	0.000758	3.2e-05
421.5	296000	0.000808	3.4e-05
421.5	297900	0.000812	3.4e-05
423.7	90500	0.000366	1.5e-05
423.7	90600	0.000366	1.5e-05
423.7	90900	0.000357	1.5e-05
423.7	90900	0.000357	1.5e-05
423.7	97400	0.000377	1.6e-05
423.7	97900	0.000373	1.6e-05
423.7	111800	0.000403	1.7e-05
423.7	112000	0.000402	1.7e-05
423.7	112300	0.000398	1.7e-05
423.7	112400	0.000398	1.7e-05
423.7	117200	0.000412	1.7e-05
423.7	117800	0.000408	1.7e-05
423.7	134800	0.000449	1.9e-05
423.7	135000	0.000449	1.9e-05
423.7	135300	0.000436	1.8e-05
423.7	135600	0.000435	1.8e-05
423.7	136500	0.000445	1.9e-05
423.7	137100	0.000443	1.8e-05
423.7	153700	0.000481	2e-05
423.7	153700	0.000474	2e-05
423.7	154000	0.000477	2e-05
423.7	154100	0.000482	2e-05
423.7	174200	0.000507	2.1e-05
423.7	175400	0.000516	2.2e-05
423.7	187900	0.00055	2.3e-05
423.7	188700	0.000543	2.3e-05
423.7	188800	0.000549	2.3e-05
423.7	189500	0.000544	2.3e-05
423.7	207400	0.000586	2.4e-05
423.7	208400	0.000582	2.4e-05
423.7	209300	0.000586	2.4e-05
423.7	209400	0.000593	2.5e-05
423.7	210400	0.000594	2.5e-05
423.7	210400	0.000586	2.4e-05
423.7	220900	0.00061	2.5e-05
423.7	221600	0.000619	2.6e-05
423.7	223100	0.000615	2.6e-05
423.7	223200	0.000623	2.6e-05
425.1	9600	0.000212	9e-06
425.1	9600	0.000214	9e-06
425.1	9900	0.00021	9e-06
425.1	9900	0.000211	9e-06
425.1	21200	0.000236	1e-05
425.1	21200	0.000234	1e-05
425.1	35800	0.000265	1.1e-05
425.1	36200	0.000262	1.1e-05
425.1	54500	0.000301	1.2e-05
425.1	54800	0.000299	1.2e-05
425.1	54800	0.000303	1.2e-05
425.1	55200	0.000303	1.2e-05
425.1	62300	0.000317	1.3e-05
425.1	62300	0.000317	1.3e-05
425.1	62700	0.000315	1.3e-05
425.1	62700	0.000317	1.3e-05
425.1	84000	0.00036	1.5e-05
425.1	84500	0.000357	1.5e-05
425.1	104800	0.000401	1.7e-05
425.1	104900	0.000398	1.7e-05
425.1	119600	0.000428	1.8e-05
425.1	134600	0.00046	1.9e-05
451.8	85500	0.000311	1.3e-05
451.8	85500	0.000314	1.3e-05
451.8	99500	0.000332	1.4e-05
451.8	99600	0.000333	1.4e-05
451.8	99600	0.000329	1.4e-05
451.8	112800	0.000357	1.5e-05
451.8	113000	0.000355	1.5e-05
451.8	116500	0.000363	1.5e-05
451.8	116600	0.000367	1.5e-05
451.8	133600	0.000394	1.6e-05
451.8	133600	0.000395	1.6e-05
451.8	133700	0.000402	1.7e-05
451.8	174900	0.000461	1.9e-05
451.8	175000	0.000461	1.9e-05
451.8	216400	0.000531	2.2e-05
451.8	216600	0.000542	2.3e-05
451.8	238400	0.000589	2.5e-05
451.8	259000	0.000606	2.5e-05
451.8	259300	0.00061	2.5e-05
451.8	279400	0.000647	2.7e-05
451.8	280100	0.000643	2.7e-05
451.8	280100	0.000643	2.7e-05
476.3	175500	0.000407	1.7e-05
476.3	175800	0.000407	1.7e-05
476.3	175800	0.000402	1.7e-05
476.3	176100	0.000401	1.7e-05
476.3	187200	0.000423	1.8e-05
476.3	187300	0.000419	1.7e-05
476.3	188100	0.00042	1.7e-05
476.3	188100	0.00042	1.7e-05
476.3	189800	0.000429	1.8e-05
476.3	190600	0.000425	1.8e-05
476.3	200600	0.000444	1.8e-05
476.3	201300	0.000446	1.9e-05
476.3	201500	0.000441	1.8e-05
476.3	202700	0.000439	1.8e-05
476.3	223900	0.000476	2e-05
476.3	225500	0.000474	2e-05
476.3	177600	0.000419	1.7e-05
477.1	2800	0.00014	6e-06
477.1	3000	0.000141	6e-06
477.1	11300	0.000158	6e-06
477.1	11600	0.000157	6e-06
477.1	21500	0.000177	7e-06
477.1	21800	0.000173	7e-06
477.1	28700	0.000187	8e-06
477.1	28900	0.000188	8e-06
477.1	29000	0.000185	8e-06
477.1	29200	0.000185	8e-06
477.1	30100	0.000189	8e-06
477.1	30500	0.000183	7e-06
477.1	34100	0.000197	8e-06
477.1	34500	0.000191	8e-06
477.1	40000	0.000206	8e-06
477.1	40300	0.000203	8e-06
477.1	46800	0.000217	9e-06
477.1	46900	0.000215	9e-06
477.1	47000	0.000212	9e-06
477.1	47100	0.000214	9e-06
477.1	55600	0.000229	9e-06
477.1	55900	0.000227	9e-06
477.1	68100	0.000249	1e-05
477.1	68200	0.000246	1e-05
477.1	81900	0.000271	1.1e-05
477.1	82200	0.000268	1.1e-05
477.1	108700	0.000313	1.3e-05
477.1	108800	0.000308	1.3e-05
479.3	56900	0.000229	9e-06
479.3	57400	0.000234	1e-05
479.3	88700	0.000279	1.2e-05
479.3	89200	0.000283	1.2e-05
479.3	136600	0.000355	1.5e-05
479.3	136700	0.000353	1.5e-05
479.3	136900	0.000357	1.5e-05
479.3	137000	0.000354	1.5e-05
479.3	158800	0.000391	1.6e-05
479.3	158800	0.000389	1.6e-05
500.3	168500	0.000362	1.5e-05
500.3	188400	0.00039	1.6e-05
500.3	188500	0.000386	1.6e-05
500.3	215100	0.000426	1.8e-05
500.3	215300	0.000424	1.8e-05
500.3	235700	0.00045	1.9e-05
500.3	235900	0.000445	1.9e-05
500.3	238600	0.000455	1.9e-05
500.3	238800	0.000448	1.9e-05
500.3	258100	0.000481	2e-05
500.3	258300	0.000477	2e-05
500.3	279600	0.000513	2.1e-05
500.3	280200	0.000506	2.1e-05
531.2	4200	9.8e-05	4e-06
531.2	4300	0.0001	4e-06
531.2	9500	0.000109	4e-06
531.2	9500	0.000113	5e-06
531.2	9800	0.000116	5e-06
531.2	9800	0.000114	5e-06
531.2	15000	0.000119	5e-06
531.2	15000	0.000122	5e-06
531.2	15300	0.000124	5e-06
531.2	15400	0.000126	5e-06
531.2	19200	0.000131	5e-06
531.2	19200	0.000134	5e-06
531.2	19600	0.000133	5e-06
531.2	19600	0.000135	6e-06
531.2	26600	0.000145	6e-06
531.2	27000	0.000145	6e-06
531.2	39000	0.000163	7e-06
531.2	39300	0.000162	7e-06
531.2	40300	0.000165	7e-06
531.2	40800	0.000163	7e-06
531.2	55500	0.000185	8e-06
531.2	56000	0.000183	7e-06
531.2	56700	0.000186	8e-06
531.2	56800	0.000186	8e-06
531.2	57200	0.000181	7e-06
531.2	57300	0.000183	7e-06
531.2	64700	0.000197	8e-06
531.2	64900	0.000197	8e-06
531.2	65100	0.0002	8e-06
531.2	65100	0.000197	8e-06
531.2	65400	0.000193	8e-06
531.2	65500	0.000195	8e-06
532.3	16300	0.000129	5e-06
532.3	48700	0.000176	7e-06
532.3	49200	0.000172	7e-06
532.3	65000	0.000195	8e-06
532.3	65400	0.000193	8e-06
532.3	107400	0.000248	1e-05
532.3	108400	0.000253	1.1e-05
532.3	134500	0.000281	1.2e-05
532.3	161000	0.00031	1.3e-05
532.3	162800	0.000318	1.3e-05
532.3	196700	0.000358	1.5e-05
532.3	198600	0.000357	1.5e-05
534.9	171000	0.00033	1.4e-05
534.9	171100	0.000329	1.4e-05
534.9	171300	0.00033	1.4e-05
534.9	211800	0.000371	1.5e-05
534.9	212000	0.000375	1.6e-05
534.9	237300	0.0004	1.7e-05
534.9	257400	0.000422	1.8e-05
534.9	257700	0.000426	1.8e-05
534.9	279600	0.000445	1.8e-05
534.9	280800	0.000443	1.8e-05
