Measured thermophysical data. Densities and dynamic viscosities of ionic liquids having 1-butyl-3-methylimidazolium cation with different anions and bis(trifluoromethylsulfonyl)imide anion with different cations in the temperature range (283.15 to 363.15) K
Source: J. Chem. Thermodyn., 2018, 10.1016/j.jct.2017.08.032
Compound 1: 1-butyl-3-methylimidazolium hexafluorophosphate, C8H15F6N2P, InChI=1S/C8H15N2.F6P/c1-3-4-5-10-7-6-9(2)8-10;1-7(2,3,4,5)6/h6-8H,3-5H2,1-2H3;/q+1;-1, purity 99%
Compound 2: 1-butyl-3-methyl-1H-imidazolium ethyl sulfate, C10H20N2O4S, InChI=1S/C8H15N2.C2H6O4S/c1-3-4-5-10-7-6-9(2)8-10;1-2-6-7(3,4)5/h6-8H,3-5H2,1-2H3;2H2,1H3,(H,3,4,5)/q+1;/p-1, purity 99%
Compound 3: 1-butyl-3-methylimidazolium bis(trifluoromethylsulfonyl)imide, C10H15F6N3O4S2, InChI=1S/C8H15N2.C2F6NO4S2/c1-3-4-5-10-7-6-9(2)8-10;3-1(4,5)14(10,11)9-15(12,13)2(6,7)8/h6-8H,3-5H2,1-2H3;/q+1;-1, purity 99%
Compound 4: 1-methyl-1-propylpiperidinium bis(trifluoromethylsulfonyl)imide, C11H20F6N2O4S2, InChI=1S/C9H20N.C2F6NO4S2/c1-3-7-10(2)8-5-4-6-9-10;3-1(4,5)14(10,11)9-15(12,13)2(6,7)8/h3-9H2,1-2H3;/q+1;-1, purity 99%
Compound 5: 1-ethyl-3-methylimidazolium bis((trifluoromethyl)sulfonyl)imide, C8H11F6N3O4S2, InChI=1S/C6H11N2.C2F6NO4S2/c1-3-8-5-4-7(2)6-8;3-1(4,5)14(10,11)9-15(12,13)2(6,7)8/h4-6H,3H2,1-2H3;/q+1;-1, purity 99%
Compound 6: choline bis(trifluoromethylsulfonyl)imide, C7H14F6N2O5S2, InChI=1S/C5H14NO.C2F6NO4S2/c1-6(2,3)4-5-7;3-1(4,5)14(10,11)9-15(12,13)2(6,7)8/h7H,4-5H2,1-3H3;/q+1;-1
Compound 7: 1-butyl-3-methylimidazolium trifluoromethanesulfonate, C9H15F3N2O3S, InChI=1S/C8H15N2.CHF3O3S/c1-3-4-5-10-7-6-9(2)8-10;2-1(3,4)8(5,6)7/h6-8H,3-5H2,1-2H3;(H,5,6,7)/q+1;/p-1, purity 99%

System: 1-butyl-3-methylimidazolium hexafluorophosphate; phases: Liquid
Fixed: Pressure, kPa = 101.325
Property: Mass density, kg/m3 (Liquid); method: Vibrating tube method
Temperature, K	Mass density, kg/m3	uncertainty
283.15	1380	10
293.15	1372	10
303.15	1363	10
313.15	1354	10
323.15	1346	10
333.15	1339	10
343.15	1332	10
353.15	1323	10
363.15	1314	10

System: 1-butyl-3-methylimidazolium hexafluorophosphate; phases: Liquid
Fixed: Pressure, kPa = 101.325
Property: Viscosity, Pa*s (Liquid); method: Falling or rolling sphere viscometry
Temperature, K	Viscosity, Pa*s	uncertainty
283.15	0.7795	0.073
293.15	0.3451	0.0249
303.15	0.1851	0.0106
313.15	0.1096	0.0052
323.15	0.0697	0.00292
333.15	0.04659	0.00192
343.15	0.03267	0.00134
353.15	0.02385	0.00098
363.15	0.01803	0.00074

System: 1-butyl-3-methyl-1H-imidazolium ethyl sulfate; phases: Liquid
Fixed: Pressure, kPa = 101.325
Property: Mass density, kg/m3 (Liquid); method: Vibrating tube method
Temperature, K	Mass density, kg/m3	uncertainty
283.15	1193	10
293.15	1186	10
303.15	1180	10
313.15	1173	10
323.15	1166	10
333.15	1160	10
343.15	1153	10
353.15	1146	10
363.15	1139	10

System: 1-butyl-3-methyl-1H-imidazolium ethyl sulfate; phases: Liquid
Fixed: Pressure, kPa = 101.325
Property: Viscosity, Pa*s (Liquid); method: Falling or rolling sphere viscometry
Temperature, K	Viscosity, Pa*s	uncertainty
283.15	0.6721	0.0602
293.15	0.334	0.0238
303.15	0.181	0.0103
313.15	0.1103	0.0052
323.15	0.07037	0.00295
333.15	0.04741	0.00195
343.15	0.03367	0.00138
353.15	0.02488	0.00102
363.15	0.01911	0.00078

System: 1-butyl-3-methylimidazolium bis(trifluoromethylsulfonyl)imide; phases: Liquid
Fixed: Pressure, kPa = 101.325
Property: Mass density, kg/m3 (Liquid); method: Vibrating tube method
Temperature, K	Mass density, kg/m3	uncertainty
283.15	1448	10
293.15	1438	10
303.15	1428	10
313.15	1418	10
323.15	1408	10
333.15	1399	10
343.15	1390	10
353.15	1379	10
363.15	1370	10

System: 1-butyl-3-methylimidazolium bis(trifluoromethylsulfonyl)imide; phases: Liquid
Fixed: Pressure, kPa = 101.325
Property: Viscosity, Pa*s (Liquid); method: Falling or rolling sphere viscometry
Temperature, K	Viscosity, Pa*s	uncertainty
283.15	0.08806	0.00388
293.15	0.05417	0.0022
303.15	0.03588	0.00148
313.15	0.02532	0.00104
323.15	0.01869	0.00077
333.15	0.01434	0.00059
343.15	0.01122	0.00046
353.15	0.00899	0.00037
363.15	0.00738	0.0003

System: 1-methyl-1-propylpiperidinium bis(trifluoromethylsulfonyl)imide; phases: Metastable liquid
Fixed: Pressure, kPa = 101.325
Property: Mass density, kg/m3 (Metastable liquid); method: Vibrating tube method
Temperature, K	Mass density, kg/m3	uncertainty
283.15	1422	10
293.15	1413	10
303.15	1404	10
313.15	1395	10
323.15	1386	10
333.15	1379	10
343.15	1371	10
353.15	1363	10
363.15	1353	10

System: 1-methyl-1-propylpiperidinium bis(trifluoromethylsulfonyl)imide; phases: Metastable liquid
Fixed: Pressure, kPa = 101.325
Property: Viscosity, Pa*s (Metastable liquid); method: Falling or rolling sphere viscometry
Temperature, K	Viscosity, Pa*s	uncertainty
283.15	0.3503	0.0253
293.15	0.1744	0.0098
303.15	0.09968	0.00457
313.15	0.06211	0.00255
323.15	0.04078	0.00168
333.15	0.02914	0.0012
343.15	0.02136	0.00088
353.15	0.01625	0.00067
363.15	0.01275	0.00052

System: 1-ethyl-3-methylimidazolium bis((trifluoromethyl)sulfonyl)imide; phases: Liquid
Fixed: Pressure, kPa = 101.325
Property: Mass density, kg/m3 (Liquid); method: Vibrating tube method
Temperature, K	Mass density, kg/m3	uncertainty
283.15	1531	10
293.15	1521	10
303.15	1510	10
313.15	1500	10
323.15	1491	10
333.15	1483	10
343.15	1474	10
353.15	1465	10
363.15	1455	10

System: 1-ethyl-3-methylimidazolium bis((trifluoromethyl)sulfonyl)imide; phases: Liquid
Fixed: Pressure, kPa = 101.325
Property: Viscosity, Pa*s (Liquid); method: Falling or rolling sphere viscometry
Temperature, K	Viscosity, Pa*s	uncertainty
283.15	0.05617	0.00228
293.15	0.03723	0.00153
303.15	0.02655	0.00109
313.15	0.0196	0.0008
323.15	0.01501	0.00062
333.15	0.01184	0.00049
343.15	0.00957	0.00039
353.15	0.0079	0.00032
363.15	0.00665	0.00027

System: choline bis(trifluoromethylsulfonyl)imide; phases: Metastable liquid
Fixed: Pressure, kPa = 101.325
Property: Mass density, kg/m3 (Metastable liquid); method: Vibrating tube method
Temperature, K	Mass density, kg/m3	uncertainty
293.15	1539	10
303.15	1530	10
313.15	1520	10
323.15	1511	10
333.15	1504	10
343.15	1495	10
353.15	1486	10
363.15	1476	10

System: choline bis(trifluoromethylsulfonyl)imide; phases: Metastable liquid
Fixed: Pressure, kPa = 101.325
Property: Viscosity, Pa*s (Metastable liquid); method: Falling or rolling sphere viscometry
Temperature, K	Viscosity, Pa*s	uncertainty
293.15	0.1879	0.0108
303.15	0.1115	0.0053
313.15	0.07105	0.00298
323.15	0.04794	0.00197
333.15	0.03409	0.0014
343.15	0.0256	0.00105
353.15	0.01961	0.0008
363.15	0.01543	0.00063

System: 1-butyl-3-methylimidazolium trifluoromethanesulfonate; phases: Liquid
Fixed: Pressure, kPa = 101.325
Property: Mass density, kg/m3 (Liquid); method: Vibrating tube method
Temperature, K	Mass density, kg/m3	uncertainty
283.15	1309	10
293.15	1301	10
303.15	1293	10
313.15	1285	10
323.15	1277	10
333.15	1270	10
343.15	1262	10
353.15	1254	10
363.15	1247	10

System: 1-butyl-3-methylimidazolium trifluoromethanesulfonate; phases: Liquid
Fixed: Pressure, kPa = 101.325
Property: Viscosity, Pa*s (Liquid); method: Falling or rolling sphere viscometry
Temperature, K	Viscosity, Pa*s	uncertainty
283.15	0.1833	0.0104
293.15	0.1065	0.005
303.15	0.06658	0.00276
313.15	0.04445	0.00183
323.15	0.03117	0.00128
333.15	0.02281	0.00094
343.15	0.01724	0.00071
353.15	0.01348	0.00055
363.15	0.01073	0.00044
