Measured thermophysical data. Thermochemistry of phase transitions of aromatic amines: Estimation of the sublimation enthalpy at 298.15 K through the fusion enthalpy
Source: J. Chem. Thermodyn., 2017, 10.1016/j.jct.2017.06.017
Compound 1: aniline, C6H7N, InChI=1S/C6H7N/c7-6-4-2-1-3-5-6/h1-5H,7H2, purity 97%
Compound 2: 4-methylaniline, C7H9N, InChI=1S/C7H9N/c1-6-2-4-7(8)5-3-6/h2-5H,8H2,1H3, purity 97%
Compound 3: 4-chlorobenzenamine, C6H6ClN, InChI=1S/C6H6ClN/c7-5-1-3-6(8)4-2-5/h1-4H,8H2, purity 97%
Compound 4: 1,3-benzenediamine, C6H8N2, InChI=1S/C6H8N2/c7-5-2-1-3-6(8)4-5/h1-4H,7-8H2, purity 98%
Compound 5: 4-acetylaniline, C8H9NO, InChI=1S/C8H9NO/c1-6(10)7-2-4-8(9)5-3-7/h2-5H,9H2,1H3, purity 99%
Compound 6: 2-naphthalenamine, C10H9N, InChI=1S/C10H9N/c11-10-6-5-8-3-1-2-4-9(8)7-10/h1-7H,11H2, purity 98%
Compound 7: 4-nitrobenzenamine, C6H6N2O2, InChI=1S/C6H6N2O2/c7-5-1-3-6(4-2-5)8(9)10/h1-4H,7H2, purity 99%
Compound 8: benzene, C6H6, InChI=1S/C6H6/c1-2-4-6-5-3-1/h1-6H, purity 99%

System: aniline + benzene; phases: Liquid
Property: Molar enthalpy of solution, kJ/mol (Liquid); method: Titration calorimetry
Mole fraction of aniline	Pressure, kPa	Temperature, K	Molar enthalpy of solution, kJ/mol	uncertainty
0	100	298.15	4.68	0.23

System: benzene + 4-methylaniline; phases: Liquid
Property: Molar enthalpy of solution, kJ/mol (Liquid); method: Power-compensation calorimetry
Mole fraction of 4-methylaniline	Pressure, kPa	Temperature, K	Molar enthalpy of solution, kJ/mol	uncertainty
0	100	298.15	21.56	0.47

System: benzene + 4-chlorobenzenamine; phases: Liquid
Property: Molar enthalpy of solution, kJ/mol (Liquid); method: Power-compensation calorimetry
Mole fraction of 4-chlorobenzenamine	Pressure, kPa	Temperature, K	Molar enthalpy of solution, kJ/mol	uncertainty
0	100	298.15	21.51	0.22

System: benzene + 1,3-benzenediamine; phases: Liquid
Property: Molar enthalpy of solution, kJ/mol (Liquid); method: Power-compensation calorimetry
Mole fraction of 1,3-benzenediamine	Pressure, kPa	Temperature, K	Molar enthalpy of solution, kJ/mol	uncertainty
0	100	298.15	23.84	0.28

System: benzene + 4-acetylaniline; phases: Liquid
Property: Molar enthalpy of solution, kJ/mol (Liquid); method: Power-compensation calorimetry
Mole fraction of 4-acetylaniline	Pressure, kPa	Temperature, K	Molar enthalpy of solution, kJ/mol	uncertainty
0	100	298.15	25.27	0.39

System: benzene + 2-naphthalenamine; phases: Liquid
Property: Molar enthalpy of solution, kJ/mol (Liquid); method: Power-compensation calorimetry
Mole fraction of 2-naphthalenamine	Pressure, kPa	Temperature, K	Molar enthalpy of solution, kJ/mol	uncertainty
0	100	298.15	25.84	0.29

System: benzene + 4-nitrobenzenamine; phases: Liquid
Property: Molar enthalpy of solution, kJ/mol (Liquid); method: Power-compensation calorimetry
Mole fraction of 4-nitrobenzenamine	Pressure, kPa	Temperature, K	Molar enthalpy of solution, kJ/mol	uncertainty
0	100	298.15	25.27	0.29
