Measured thermophysical data. Effect of temperature on volumetric and viscometric properties of some non-steroidal anti-inflammatory drugs in aprotic solvents
Source: J. Chem. Thermodyn., 2010, 10.1016/j.jct.2010.03.009
Compound 1: 2-hydroxybenzamide, C7H7NO2, InChI=1S/C7H7NO2/c8-7(10)5-3-1-2-4-6(5)9/h1-4,9H,(H2,8,10)
Compound 2: dimethyl sulfoxide, C2H6OS, InChI=1S/C2H6OS/c1-4(2)3/h1-2H3

System: 2-hydroxybenzamide + dimethyl sulfoxide; phases: Liquid
Fixed: Pressure, kPa = 101
Property: Viscosity, Pa*s (Liquid); method: Capillary tube (Ostwald; Ubbelohde) method
Temperature, K	Molality, mol/kg of 2-hydroxybenzamide	Viscosity, Pa*s	uncertainty
293.15	0.0069	0.0022764	1.36e-05
293.15	0.0091	0.0022795	1.36e-05
293.15	0.0114	0.0022823	1.36e-05
293.15	0.0137	0.0022848	1.36e-05
293.15	0.016	0.0022874	1.36e-05
293.15	0.0183	0.0022895	1.37e-05
293.15	0.0229	0.0022939	1.37e-05
298.15	0.0069	0.0020344	1.25e-05
298.15	0.0091	0.0020382	1.25e-05
298.15	0.0114	0.0020418	1.25e-05
298.15	0.0137	0.0020452	1.25e-05
298.15	0.016	0.0020481	1.26e-05
298.15	0.0183	0.0020508	1.26e-05
298.15	0.0229	0.0020562	1.26e-05
303.15	0.0069	0.0018805	1.18e-05
303.15	0.0091	0.0018839	1.18e-05
303.15	0.0114	0.0018867	1.18e-05
303.15	0.0137	0.0018895	1.18e-05
303.15	0.016	0.0018919	1.19e-05
303.15	0.0183	0.0018945	1.19e-05
303.15	0.0229	0.0018989	1.19e-05
308.15	0.0069	0.0017316	1.12e-05
308.15	0.0091	0.0017374	1.12e-05
308.15	0.0114	0.0017425	1.12e-05
308.15	0.0137	0.0017472	1.13e-05
308.15	0.016	0.0017516	1.13e-05
308.15	0.0183	0.0017556	1.13e-05
308.15	0.0229	0.001763	1.13e-05
310.15	0.0069	0.0016444	1.08e-05
310.15	0.0091	0.0016451	1.08e-05
310.15	0.0114	0.0016459	1.08e-05
310.15	0.0137	0.0016466	1.09e-05
310.15	0.016	0.0016472	1.09e-05
310.15	0.0183	0.0016478	1.09e-05
310.15	0.0229	0.0016489	1.09e-05
313.15	0.0069	0.0015634	1.05e-05
313.15	0.0091	0.0015643	1.05e-05
313.15	0.0114	0.0015651	1.05e-05
313.15	0.0137	0.0015659	1.05e-05
313.15	0.016	0.0015667	1.05e-05
313.15	0.0183	0.0015674	1.05e-05
313.15	0.0229	0.0015688	1.05e-05

System: 2-hydroxybenzamide + dimethyl sulfoxide; phases: Liquid
Fixed: Pressure, kPa = 101
Property: Mass density, kg/m3 (Liquid); method: Vibrating tube method
Temperature, K	Molality, mol/kg of 2-hydroxybenzamide	Mass density, kg/m3	uncertainty
293.15	0.0069	1100.595	0.094
293.15	0.0091	1100.661	0.094
293.15	0.0114	1100.721	0.093
293.15	0.0137	1100.781	0.093
293.15	0.016	1100.831	0.091
293.15	0.0183	1100.861	0.091
293.15	0.0229	1100.918	0.091
298.15	0.0069	1095.594	0.092
298.15	0.0091	1095.642	0.09
298.15	0.0114	1095.679	0.089
298.15	0.0137	1095.715	0.089
298.15	0.016	1095.755	0.089
298.15	0.0183	1095.785	0.088
298.15	0.0229	1095.795	0.088
303.15	0.0069	1090.557	0.088
303.15	0.0091	1090.595	0.088
303.15	0.0114	1090.635	0.087
303.15	0.0137	1090.665	0.087
303.15	0.016	1090.689	0.086
303.15	0.0183	1090.703	0.086
303.15	0.0229	1090.731	0.087
308.15	0.0069	1085.513	0.086
308.15	0.0091	1085.561	0.086
308.15	0.0114	1085.591	0.086
308.15	0.0137	1085.633	0.086
308.15	0.016	1085.665	0.085
308.15	0.0183	1085.695	0.085
308.15	0.0229	1085.725	0.084
310.15	0.0069	1083.501	0.086
310.15	0.0091	1083.545	0.085
310.15	0.0114	1083.575	0.084
310.15	0.0137	1083.599	0.084
310.15	0.016	1083.625	0.084
310.15	0.0183	1083.655	0.084
310.15	0.0229	1083.665	0.084
313.15	0.0069	1080.475	0.084
313.15	0.0091	1080.515	0.084
313.15	0.0114	1080.545	0.083
313.15	0.0137	1080.575	0.083
313.15	0.016	1080.595	0.083
313.15	0.0183	1080.624	0.083
313.15	0.0229	1080.645	0.082
