Measured thermophysical data. Volumetric properties of (N,N-dimethylformamide + aliphatic diethers) at Temperatures ranging from (298.15 to 358.15) K
Source: J. Chem. Thermodyn., 2005, 10.1016/j.jct.2005.01.002
Compound 1: dimethylformamide, C3H7NO, InChI=1S/C3H7NO/c1-4(2)3-5/h3H,1-2H3, purity 99.8%
Compound 2: diethyl ether, C4H10O, InChI=1S/C4H10O/c1-3-5-4-2/h3-4H2,1-2H3, purity 99%
Compound 3: dipropyl ether, C6H14O, InChI=1S/C6H14O/c1-3-5-7-6-4-2/h3-6H2,1-2H3, purity 99%
Compound 4: diisopropyl ether, C6H14O, InChI=1S/C6H14O/c1-5(2)7-6(3)4/h5-6H,1-4H3, purity 99%
Compound 5: dibutyl ether, C8H18O, InChI=1S/C8H18O/c1-3-5-7-9-8-6-4-2/h3-8H2,1-2H3, purity 99%
Compound 6: dipentyl ether, C10H22O, InChI=1S/C10H22O/c1-3-5-7-9-11-10-8-6-4-2/h3-10H2,1-2H3, purity 99%

System: dimethylformamide; phases: Liquid
Fixed: Pressure, kPa = 101.325
Property: Mass density, kg/m3 (Liquid); method: VIBTUB:UFactor:3
Temperature, K	Mass density, kg/m3	uncertainty
298.15	943.85	0.23
313.15	930.98	0.25
328.15	915.07	0.27
343.15	900.41	0.29
358.15	885.68	0.32

System: diethyl ether; phases: Liquid
Property: Mass density, kg/m3 (Liquid); method: VIBTUB:UFactor:3
Temperature, K	Pressure, kPa	Mass density, kg/m3	uncertainty
298.15	101.325	707.79	0.68

System: dipropyl ether; phases: Liquid
Fixed: Pressure, kPa = 101.325
Property: Mass density, kg/m3 (Liquid); method: VIBTUB:UFactor:3
Temperature, K	Mass density, kg/m3	uncertainty
298.15	741.94	0.64
313.15	727.87	0.66
328.15	713.73	0.67
343.15	699.61	0.69
358.15	684.92	0.7

System: diisopropyl ether; phases: Liquid
Fixed: Pressure, kPa = 101.325
Property: Mass density, kg/m3 (Liquid); method: VIBTUB:UFactor:3
Temperature, K	Mass density, kg/m3	uncertainty
298.15	718.51	0.66
313.15	702.59	0.68
328.15	686.2	0.7

System: dibutyl ether; phases: Liquid
Fixed: Pressure, kPa = 101.325
Property: Mass density, kg/m3 (Liquid); method: VIBTUB:UFactor:3
Temperature, K	Mass density, kg/m3	uncertainty
298.15	764.08	0.62
313.15	750.92	0.63
328.15	737.68	0.65
343.15	724.25	0.66
358.15	710.54	0.68

System: dipentyl ether; phases: Liquid
Fixed: Pressure, kPa = 101.325
Property: Mass density, kg/m3 (Liquid); method: VIBTUB:UFactor:4
Temperature, K	Mass density, kg/m3	uncertainty
298.15	778.96	0.73
313.15	768.65	0.75
328.15	756.32	0.77
343.15	743.97	0.79
358.15	731.37	0.81

System: diethyl ether + dimethylformamide; phases: Liquid
Fixed: Temperature, K = 298.15
Fixed: Pressure, kPa = 101
Property: Mass density, kg/m3 (Liquid); method: VIBTUB:UFactor:3
Mole fraction of dimethylformamide	Mass density, kg/m3	uncertainty
0.0575	720.7	0.65
0.1033	730.11	0.63
0.1606	742.64	0.61
0.2076	752.93	0.59
0.2524	762.76	0.57
0.2979	772.93	0.56
0.3683	788.85	0.53
0.4058	797.64	0.52
0.4414	805.85	0.5
0.4932	818.09	0.48
0.5094	821.95	0.48
0.53	826.82	0.47
0.5595	833.95	0.45
0.6229	849.26	0.42
0.643	854.21	0.41
0.717	872.52	0.37
0.7584	882.84	0.35
0.8124	896.81	0.33
0.8523	906.61	0.31
0.9295	926.56	0.27
0.9655	936.09	0.25

System: dimethylformamide + dipropyl ether; phases: Liquid
Fixed: Pressure, kPa = 101
Property: Mass density, kg/m3 (Liquid); method: VIBTUB:UFactor:3
Temperature, K	Mole fraction of dimethylformamide	Mass density, kg/m3	uncertainty
298.15	0.0499	749.01	0.62
298.15	0.1072	756.74	0.6
298.15	0.1515	763.14	0.59
298.15	0.2129	772.12	0.57
298.15	0.2528	778.22	0.56
298.15	0.3142	787.82	0.54
298.15	0.3508	793.89	0.52
298.15	0.3895	800.55	0.51
298.15	0.4353	808.57	0.5
298.15	0.4788	816.49	0.48
298.15	0.5053	821.46	0.47
298.15	0.5243	825.12	0.47
298.15	0.5454	829.23	0.46
298.15	0.6019	840.66	0.43
298.15	0.6475	850.32	0.41
298.15	0.7054	863.22	0.39
298.15	0.7502	873.74	0.36
298.15	0.79	883.5	0.34
298.15	0.8514	899.37	0.31
298.15	0.9075	914.86	0.28
298.15	0.9594	933.76	0.25
313.15	0.0499	735.06	0.63
313.15	0.1072	742.84	0.62
313.15	0.1515	749.17	0.6
313.15	0.2129	758.15	0.58
313.15	0.2528	764.23	0.57
313.15	0.3142	773.92	0.55
313.15	0.3508	780	0.54
313.15	0.3895	786.59	0.53
313.15	0.4353	794.67	0.51
313.15	0.4788	802.63	0.5
313.15	0.5053	807.64	0.49
313.15	0.5243	811.32	0.48
313.15	0.5454	815.46	0.47
313.15	0.6019	826.99	0.45
313.15	0.6475	836.74	0.43
313.15	0.7054	849.75	0.4
313.15	0.7502	860.32	0.38
313.15	0.79	870.11	0.36
313.15	0.8514	886.42	0.33
313.15	0.9075	902.16	0.3
313.15	0.9594	921.32	0.27
328.15	0.0499	720.89	0.65
328.15	0.1072	728.72	0.63
328.15	0.1515	735.12	0.62
328.15	0.2129	743.94	0.6
328.15	0.2528	749.93	0.59
328.15	0.3142	759.52	0.57
328.15	0.3508	765.58	0.56
328.15	0.3895	772.07	0.54
328.15	0.4353	780.13	0.53
328.15	0.4788	788.03	0.51
328.15	0.5053	793.01	0.51
328.15	0.5243	796.66	0.5
328.15	0.5454	800.8	0.49
328.15	0.6019	812.28	0.47
328.15	0.6475	821.98	0.45
328.15	0.7054	834.83	0.42
328.15	0.7502	845.39	0.4
328.15	0.79	854.95	0.38
328.15	0.8514	871.19	0.35
328.15	0.9075	886.61	0.32
328.15	0.9594	905.81	0.29
343.15	0.0499	706.81	0.66
343.15	0.1072	714.64	0.65
343.15	0.1515	720.81	0.63
343.15	0.2129	729.67	0.61
343.15	0.2528	735.72	0.6
343.15	0.3142	745.25	0.58
343.15	0.3508	751.24	0.57
343.15	0.3895	757.74	0.56
343.15	0.4353	765.72	0.55
343.15	0.4788	773.58	0.53
343.15	0.5053	778.54	0.52
343.15	0.5243	782.18	0.52
343.15	0.5454	786.3	0.51
343.15	0.6019	797.75	0.48
343.15	0.6475	807.43	0.47
343.15	0.7054	820.5	0.44
343.15	0.7502	830.97	0.42
343.15	0.79	840.56	0.4
343.15	0.8514	856.91	0.37
343.15	0.9075	872.33	0.34
343.15	0.9594	891.47	0.31
358.15	0.0499	692.16	0.68
358.15	0.1072	699.96	0.66
358.15	0.1515	706.1	0.65
358.15	0.2129	714.89	0.63
358.15	0.2528	720.91	0.62
358.15	0.3142	730.4	0.6
358.15	0.3508	736.39	0.59
358.15	0.3895	742.88	0.58
358.15	0.4353	750.85	0.56
358.15	0.4788	758.7	0.55
358.15	0.5053	763.66	0.54
358.15	0.5243	767.29	0.53
358.15	0.5454	771.4	0.53
358.15	0.6019	782.85	0.5
358.15	0.6475	792.53	0.48
358.15	0.7054	805.64	0.46
358.15	0.7502	816.13	0.44
358.15	0.79	825.74	0.42
358.15	0.8514	842.07	0.39
358.15	0.9075	857.58	0.36
358.15	0.9594	876.94	0.33

System: dimethylformamide + diisopropyl ether; phases: Liquid
Fixed: Pressure, kPa = 101
Property: Mass density, kg/m3 (Liquid); method: VIBTUB:UFactor:3
Temperature, K	Mole fraction of dimethylformamide	Mass density, kg/m3	uncertainty
298.15	0.0551	726.89	0.64
298.15	0.0998	733.84	0.63
298.15	0.1567	742.64	0.61
298.15	0.2133	751.81	0.59
298.15	0.2581	759.64	0.58
298.15	0.3049	767.92	0.56
298.15	0.3548	777.09	0.54
298.15	0.4003	785.84	0.53
298.15	0.4401	793.67	0.51
298.15	0.4868	803.29	0.5
298.15	0.5049	807.13	0.49
298.15	0.5285	812.21	0.48
298.15	0.5548	818.02	0.47
298.15	0.6182	832.62	0.44
298.15	0.653	840.97	0.42
298.15	0.7137	856.34	0.39
298.15	0.7611	869.01	0.37
298.15	0.801	880.32	0.35
298.15	0.8447	893.01	0.32
298.15	0.9027	911.02	0.29
298.15	0.9502	926.7	0.26
313.15	0.0551	711.08	0.66
313.15	0.0998	718.04	0.64
313.15	0.1567	726.81	0.63
313.15	0.2133	736.08	0.61
313.15	0.2581	743.93	0.59
313.15	0.3049	752.25	0.58
313.15	0.3548	761.49	0.56
313.15	0.4003	770.29	0.55
313.15	0.4401	778.18	0.53
313.15	0.4868	787.92	0.52
313.15	0.5049	791.8	0.51
313.15	0.5285	796.95	0.5
313.15	0.5548	802.83	0.49
313.15	0.6182	817.65	0.46
313.15	0.653	826.05	0.44
313.15	0.7137	841.67	0.41
313.15	0.7611	854.62	0.39
313.15	0.801	866.12	0.37
313.15	0.8447	879.09	0.34
313.15	0.9027	897.56	0.31
313.15	0.9502	913.74	0.28
328.15	0.0551	694.81	0.67
328.15	0.0998	701.68	0.66
328.15	0.1567	710.25	0.64
328.15	0.2133	719.61	0.63
328.15	0.2581	727.41	0.61
328.15	0.3049	735.75	0.6
328.15	0.3548	744.95	0.58
328.15	0.4003	753.71	0.56
328.15	0.4401	761.59	0.55
328.15	0.4868	771.3	0.54
328.15	0.5049	775.18	0.53
328.15	0.5285	780.34	0.52
328.15	0.5548	786.22	0.51
328.15	0.6182	801.09	0.48
328.15	0.653	809.51	0.46
328.15	0.7137	825.18	0.43
328.15	0.7611	838.24	0.41
328.15	0.801	849.8	0.39
328.15	0.8447	862.93	0.36
328.15	0.9027	881.59	0.33
328.15	0.9502	897.98	0.3

System: dimethylformamide + dibutyl ether; phases: Liquid
Fixed: Pressure, kPa = 101
Property: Mass density, kg/m3 (Liquid); method: VIBTUB:UFactor:3
Temperature, K	Mole fraction of dimethylformamide	Mass density, kg/m3	uncertainty
298.15	0.0483	768.21	0.6
298.15	0.0806	771.19	0.59
298.15	0.1337	776.54	0.58
298.15	0.1611	779.45	0.57
298.15	0.216	785.37	0.55
298.15	0.2552	789.82	0.54
298.15	0.3265	798.49	0.52
298.15	0.3518	801.74	0.51
298.15	0.4154	810.36	0.49
298.15	0.4691	818.19	0.48
298.15	0.4967	822.42	0.47
298.15	0.5034	823.48	0.47
298.15	0.5397	829.38	0.45
298.15	0.5629	833.28	0.45
298.15	0.6021	840.17	0.43
298.15	0.6412	847.47	0.42
298.15	0.7062	860.67	0.39
298.15	0.7531	871.09	0.37
298.15	0.7913	880.22	0.35
298.15	0.8441	893.79	0.32
298.15	0.9109	913.14	0.28
298.15	0.9585	928.55	0.26
298.15	0.9861	938.53	0.24
313.15	0.0483	755.06	0.61
313.15	0.0806	758.08	0.61
313.15	0.1337	763.46	0.59
313.15	0.1611	766.34	0.58
313.15	0.216	772.37	0.57
313.15	0.2552	776.88	0.56
313.15	0.3265	785.61	0.54
313.15	0.3518	788.88	0.53
313.15	0.4154	797.56	0.51
313.15	0.4691	805.41	0.49
313.15	0.4967	809.67	0.49
313.15	0.5034	810.72	0.48
313.15	0.5397	816.63	0.47
313.15	0.5629	820.54	0.46
313.15	0.6021	827.48	0.45
313.15	0.6412	834.8	0.43
313.15	0.7062	847.95	0.4
313.15	0.7531	858.35	0.38
313.15	0.7913	867.43	0.36
313.15	0.8441	881.03	0.34
313.15	0.9109	900.24	0.3
313.15	0.9585	915.55	0.27
313.15	0.9861	925.65	0.26
328.15	0.0483	741.79	0.63
328.15	0.0806	744.82	0.62
328.15	0.1337	750.07	0.6
328.15	0.1611	752.91	0.6
328.15	0.216	759.03	0.58
328.15	0.2552	763.5	0.57
328.15	0.3265	772.16	0.55
328.15	0.3518	775.39	0.54
328.15	0.4154	783.96	0.52
328.15	0.4691	791.73	0.51
328.15	0.4967	795.93	0.5
328.15	0.5034	796.98	0.5
328.15	0.5397	802.8	0.49
328.15	0.5629	806.67	0.48
328.15	0.6021	813.49	0.46
328.15	0.6412	820.71	0.45
328.15	0.7062	833.65	0.42
328.15	0.7531	843.87	0.4
328.15	0.7913	852.7	0.38
328.15	0.8441	866.01	0.36
328.15	0.9109	884.81	0.32
328.15	0.9585	900.12	0.3
328.15	0.9861	909.84	0.28
343.15	0.0483	728.37	0.64
343.15	0.0806	731.39	0.63
343.15	0.1337	736.74	0.62
343.15	0.1611	739.58	0.61
343.15	0.216	745.62	0.6
343.15	0.2552	750.06	0.59
343.15	0.3265	758.64	0.57
343.15	0.3518	761.84	0.56
343.15	0.4154	770.41	0.54
343.15	0.4691	778.14	0.52
343.15	0.4967	782.32	0.52
343.15	0.5034	783.36	0.51
343.15	0.5397	789.15	0.5
343.15	0.5629	793	0.49
343.15	0.6021	799.78	0.48
343.15	0.6412	806.96	0.47
343.15	0.7062	819.8	0.44
343.15	0.7531	829.89	0.42
343.15	0.7913	838.8	0.4
343.15	0.8441	852.04	0.38
343.15	0.9109	870.69	0.34
343.15	0.9585	885.8	0.32
343.15	0.9861	895.29	0.3
358.15	0.0483	714.7	0.65
358.15	0.0806	717.74	0.65
358.15	0.1337	723.01	0.63
358.15	0.1611	725.78	0.63
358.15	0.216	731.77	0.61
358.15	0.2552	736.2	0.6
358.15	0.3265	744.72	0.58
358.15	0.3518	747.98	0.57
358.15	0.4154	756.42	0.56
358.15	0.4691	764.11	0.54
358.15	0.4967	768.26	0.53
358.15	0.5034	769.29	0.53
358.15	0.5397	775.04	0.52
358.15	0.5629	778.87	0.51
358.15	0.6021	785.63	0.5
358.15	0.6412	792.77	0.48
358.15	0.7062	805.47	0.46
358.15	0.7531	815.71	0.44
358.15	0.7913	824.68	0.42
358.15	0.8441	838.01	0.4
358.15	0.9109	856.54	0.36
358.15	0.9585	871.37	0.34
358.15	0.9861	880.68	0.32

System: dimethylformamide + dipentyl ether; phases: Liquid
Fixed: Pressure, kPa = 101
Property: Mass density, kg/m3 (Liquid); method: VIBTUB:UFactor:3
Temperature, K	Mole fraction of dimethylformamide	Mass density, kg/m3	uncertainty
298.15	0.0416	781.66	0.59
298.15	0.1163	787.12	0.57
298.15	0.1609	790.65	0.56
298.15	0.217	795.39	0.54
298.15	0.2456	797.91	0.54
298.15	0.3011	803.14	0.52
298.15	0.3542	808.53	0.51
298.15	0.4097	814.65	0.49
298.15	0.457	820.29	0.48
298.15	0.5002	825.83	0.46
298.15	0.5187	828.35	0.46
298.15	0.5486	832.57	0.45
298.15	0.6123	842.35	0.42
298.15	0.6525	849.15	0.41
298.15	0.7141	860.63	0.39
298.15	0.7678	872.03	0.36
298.15	0.8272	886.29	0.33
298.15	0.8585	894.75	0.32
298.15	0.9152	911.86	0.29
298.15	0.9534	924.96	0.26
313.15	0.0416	771.34	0.6
313.15	0.1163	776.77	0.58
313.15	0.1609	780.27	0.57
313.15	0.217	784.95	0.55
313.15	0.2456	787.44	0.55
313.15	0.3011	792.61	0.53
313.15	0.3542	797.94	0.52
313.15	0.4097	803.99	0.5
313.15	0.457	809.57	0.49
313.15	0.5002	815.04	0.48
313.15	0.5187	817.52	0.47
313.15	0.5486	821.67	0.46
313.15	0.6123	831.31	0.44
313.15	0.6525	837.99	0.42
313.15	0.7141	849.31	0.4
313.15	0.7678	860.55	0.38
313.15	0.8272	874.58	0.35
313.15	0.8585	882.91	0.33
313.15	0.9152	899.77	0.3
313.15	0.9534	912.63	0.28
328.15	0.0416	759.02	0.61
328.15	0.1163	764.39	0.59
328.15	0.1609	767.84	0.58
328.15	0.217	772.41	0.57
328.15	0.2456	774.88	0.56
328.15	0.3011	779.97	0.55
328.15	0.3542	785.21	0.53
328.15	0.4097	791.14	0.52
328.15	0.457	796.61	0.5
328.15	0.5002	801.98	0.49
328.15	0.5187	804.42	0.49
328.15	0.5486	808.5	0.48
328.15	0.6123	817.97	0.45
328.15	0.6525	824.54	0.44
328.15	0.7141	835.68	0.42
328.15	0.7678	846.65	0.39
328.15	0.8272	860.43	0.37
328.15	0.8585	868.61	0.35
328.15	0.9152	885.03	0.32
328.15	0.9534	897.96	0.3
343.15	0.0416	746.76	0.62
343.15	0.1163	752.03	0.61
343.15	0.1609	755.43	0.59
343.15	0.217	759.94	0.58
343.15	0.2456	762.38	0.57
343.15	0.3011	767.39	0.56
343.15	0.3542	772.57	0.54
343.15	0.4097	778.42	0.53
343.15	0.457	783.81	0.52
343.15	0.5002	789.12	0.51
343.15	0.5187	791.51	0.5
343.15	0.5486	795.54	0.49
343.15	0.6123	804.87	0.47
343.15	0.6525	811.37	0.46
343.15	0.7141	822.37	0.43
343.15	0.7678	833.17	0.41
343.15	0.8272	846.76	0.39
343.15	0.8585	854.86	0.37
343.15	0.9152	871.15	0.34
343.15	0.9534	883.55	0.32
358.15	0.0416	734.14	0.64
358.15	0.1163	739.41	0.62
358.15	0.1609	742.78	0.61
358.15	0.217	747.25	0.59
358.15	0.2456	749.67	0.59
358.15	0.3011	754.63	0.57
358.15	0.3542	759.74	0.56
358.15	0.4097	765.54	0.55
358.15	0.457	770.89	0.53
358.15	0.5002	776.12	0.52
358.15	0.5187	778.49	0.52
358.15	0.5486	782.47	0.51
358.15	0.6123	791.69	0.49
358.15	0.6525	798.06	0.47
358.15	0.7141	808.9	0.45
358.15	0.7678	819.65	0.43
358.15	0.8272	833.11	0.4
358.15	0.8585	840.93	0.39
358.15	0.9152	857.02	0.36
358.15	0.9534	869.17	0.34
