Measured thermophysical data. (Liquid + liquid) equilibria of {heptane + xylene + N-formylmorpholine} ternary system
Source: J. Chem. Thermodyn., 2007, 10.1016/j.jct.2007.05.001
Compound 1: heptane, C7H16, InChI=1S/C7H16/c1-3-5-7-6-4-2/h3-7H2,1-2H3
Compound 2: 1,3-dimethylbenzene, C8H10, InChI=1S/C8H10/c1-7-4-3-5-8(2)6-7/h3-6H,1-2H3
Compound 3: N-formylmorpholine, C5H9NO2, InChI=1S/C5H9NO2/c7-5-6-1-3-8-4-2-6/h5H,1-4H2

System: heptane; phases: Liquid
Property: Refractive index (Na D-line) (Liquid); method: Standard Abbe refractometry
Temperature, K	Pressure, kPa	Refractive index (Na D-line)	uncertainty
293.1	101.325	1.5024	0.0008

System: 1,3-dimethylbenzene; phases: Liquid
Property: Refractive index (Na D-line) (Liquid); method: Standard Abbe refractometry
Temperature, K	Pressure, kPa	Refractive index (Na D-line)	uncertainty
293.1	101.325	1.4943	0.0008

System: N-formylmorpholine; phases: Liquid
Property: Refractive index (Na D-line) (Liquid); method: Standard Abbe refractometry
Temperature, K	Pressure, kPa	Refractive index (Na D-line)	uncertainty
293.1	101.325	1.484	0.0008

System: 1,3-dimethylbenzene + heptane + N-formylmorpholine; phases: Liquid mixture 1, Liquid mixture 2
Fixed: Pressure, kPa = 101
Property: Mole fraction of 1,3-dimethylbenzene (Liquid mixture 1); method: Chromatography
Property: Mole fraction of heptane (Liquid mixture 2); method: Chromatography
Property: Mole fraction of 1,3-dimethylbenzene (Liquid mixture 2); method: Chromatography
Temperature, K	Mole fraction of heptane	Mole fraction of 1,3-dimethylbenzene	uncertainty	Mole fraction of heptane	uncertainty	Mole fraction of 1,3-dimethylbenzene	uncertainty
298.15	0.7972	0.1745	0.0014	0.0344	0.0006	0.0683	
298.15	0.6549	0.2981	0.0023	0.0396	0.0007	0.1224	
298.15	0.5438	0.3887	0.003	0.0442	0.0007	0.1671	
298.15	0.4567	0.4532	0.0035	0.0481	0.0007	0.2046	
298.15	0.4086	0.4858	0.0038	0.0505	0.0007	0.2269	
298.15	0.3623	0.5143	0.0038	0.0529	0.0007	0.25	
313.15	0.7953	0.1712	0.0014	0.0405	0.0007	0.0712	
313.15	0.6527	0.2928	0.0023	0.0471	0.0007	0.1284	
313.15	0.5407	0.3812	0.003	0.053	0.0007	0.1766	
313.15	0.4519	0.4441	0.0034	0.0584	0.0007	0.2181	
313.15	0.4023	0.4753	0.0037	0.0619	0.0007	0.2433	
313.15	0.354	0.502	0.0039	0.0658	0.0008	0.2699	
313.15	0.3207	0.5176	0.0037	0.0688	0.0008	0.29	
333.15	0.7915	0.1674	0.0013	0.0499	0.0007	0.0749	
333.15	0.6483	0.286	0.0022	0.0585	0.0007	0.1363	
333.15	0.5344	0.3716	0.0029	0.0669	0.0008	0.1892	
333.15	0.4428	0.4314	0.0033	0.0752	0.0008	0.236	
333.15	0.3905	0.4603	0.0036	0.081	0.0008	0.2654	
333.15	0.3382	0.4837	0.0037	0.088	0.0009	0.2978	
333.15	0.3019	0.4955	0.0038	0.094	0.0009	0.3226	
353.15	0.7863	0.1637	0.0013	0.0606	0.0007	0.0783	
353.15	0.6419	0.2794	0.0022	0.0718	0.0008	0.1436	
353.15	0.5255	0.362	0.0028	0.0833	0.0008	0.2011	
353.15	0.4298	0.4184	0.0032	0.0957	0.0009	0.2536	
353.15	0.3734	0.4442	0.0034	0.1053	0.001	0.2878	
353.15	0.3143	0.4622	0.0036	0.1185	0.001	0.3278	
353.15	0.2705	0.4668	0.0036	0.1321	0.0011	0.3608	
