Measured thermophysical data. Vapour liquid equilibria of monocaprylin plus palmitic acid or methyl stearate at P = (1.20 and 2.50) kPa by using DSC technique
Source: J. Chem. Thermodyn., 2015, 10.1016/j.jct.2015.07.033
Compound 1: 2,3-dihydroxypropyl octanoate, C11H22O4, InChI=1S/C11H22O4/c1-2-3-4-5-6-7-11(14)15-9-10(13)8-12/h10,12-13H,2-9H2,1H3, purity 99%
Compound 2: hexadecanoic acid, C16H32O2, InChI=1S/C16H32O2/c1-2-3-4-5-6-7-8-9-10-11-12-13-14-15-16(17)18/h2-15H2,1H3,(H,17,18), purity 99%
Compound 3: methyl octadecanoate, C19H38O2, InChI=1S/C19H38O2/c1-3-4-5-6-7-8-9-10-11-12-13-14-15-16-17-18-19(20)21-2/h3-18H2,1-2H3, purity 99%

System: 2,3-dihydroxypropyl octanoate; phases: Liquid, Gas
Property: Boiling temperature at pressure P, K (Liquid); method: DSC
Pressure, kPa	Boiling temperature at pressure P, K	uncertainty
1.2	462.94	2.23
2.5	480.41	3.16

System: hexadecanoic acid; phases: Liquid, Gas
Property: Boiling temperature at pressure P, K (Liquid); method: DSC
Pressure, kPa	Boiling temperature at pressure P, K	uncertainty
1.2	483.15	2.21
2.5	498.35	2.67

System: methyl octadecanoate; phases: Liquid, Gas
Property: Boiling temperature at pressure P, K (Liquid); method: DSC
Pressure, kPa	Boiling temperature at pressure P, K	uncertainty
1.2	475.97	2.39
2.5	493.38	3.17

System: hexadecanoic acid + 2,3-dihydroxypropyl octanoate; phases: Liquid, Gas
Property: Boiling temperature at pressure P, K (Liquid); method: DSC
Pressure, kPa	Mole fraction of 2,3-dihydroxypropyl octanoate	Boiling temperature at pressure P, K	uncertainty
1.2	0	483.15	2.44
1.2	0.0554	478.11	2.27
1.2	0.0991	475.96	2.3
1.2	0.1938	472.16	2.34
1.2	0.3035	468.14	2.65
1.2	0.4065	466.36	2.35
1.2	0.4991	464.66	2.35
1.2	0.6033	464.24	2.28
1.2	0.7016	463.47	2.33
1.2	0.7852	463.08	2.45
1.2	0.9031	462.67	2.33
1.2	1	462.94	2.2
2.5	0	498.35	1.66
2.5	0.0554	494.1	1.79
2.5	0.0991	491.78	1.74
2.5	0.1938	488.9	1.92
2.5	0.3035	486.66	1.66
2.5	0.4065	485.43	1.92
2.5	0.4991	483.4	1.63
2.5	0.6033	482.02	1.84
2.5	0.7016	480.97	1.85
2.5	0.7852	480.35	1.79
2.5	0.9031	480.07	1.76
2.5	1	480.41	1.83

System: methyl octadecanoate + 2,3-dihydroxypropyl octanoate; phases: Liquid, Gas
Property: Boiling temperature at pressure P, K (Liquid); method: DSC
Pressure, kPa	Mole fraction of 2,3-dihydroxypropyl octanoate	Boiling temperature at pressure P, K	uncertainty
1.2	0	475.97	2.37
1.2	0.1018	472.1	2.3
1.2	0.1993	469.5	2.27
1.2	0.3099	465.48	2.29
1.2	0.4007	462.15	2.36
1.2	0.5005	461.78	2.4
1.2	0.6018	461.29	2.36
1.2	0.7022	461.24	2.2
1.2	0.797	461.65	2.2
1.2	0.8938	462.1	2.37
1.2	1	462.94	2.2
2.5	0	493.38	1.87
2.5	0.1018	491.26	1.87
2.5	0.1993	487.88	1.94
2.5	0.3099	483.97	1.91
2.5	0.4007	480.07	1.82
2.5	0.5005	479.07	1.68
2.5	0.6018	478.6	1.77
2.5	0.7022	478.66	1.63
2.5	0.797	478.97	1.85
2.5	0.8938	479.4	1.7
2.5	1	480.41	1.83
