Measured thermophysical data. Heat capacity and thermodynamic functions of crystalline and amorphous forms of the metal organic framework zinc 2-ethylimidazolate, Zn(EtIm) 2
Source: J. Chem. Thermodyn., 2018, 10.1016/j.jct.2017.10.002
Compound 1: zinc(II) 2-ethylimidazolide, C10H14N4Zn, InChI=1S/2C5H7N2.Zn/c2*1-2-5-6-3-4-7-5;/h2*3-4H,2H2,1H3;/q2*-1;+2

System: zinc(II) 2-ethylimidazolide; phases: Crystal
Fixed: Pressure, kPa = 101.325
Property: Molar heat capacity at constant pressure, J/K/mol (Crystal); method: RELAXCAL
Temperature, K	Molar heat capacity at constant pressure, J/K/mol	uncertainty
1.8366	0.045031	0.003447
1.914	0.049774	0.003716
1.9996	0.058905	0.004175
2.0896	0.067219	0.004574
2.183	0.076966	0.005036
2.2829	0.087652	0.005568
2.4109	0.10313	0.00644
2.5119	0.11827	0.00713
2.6152	0.13498	0.00798
2.7335	0.15584	0.00911
2.8602	0.17267	0.01004
2.979	0.19336	0.01108
3.109	0.22539	0.01284
3.2479	0.25255	0.01424
3.3879	0.29877	0.01679
3.536	0.33312	0.0186
3.6911	0.38874	0.02157
3.8532	0.4343	0.02405
4.0239	0.49064	0.02707
4.2036	0.52878	0.02915
4.3853	0.61934	0.03402
4.5799	0.69923	0.03825
4.784	0.78728	0.04291
4.9949	0.86819	0.0472
5.2168	0.96801	0.05267
5.4469	1.1214	0.0607
5.6871	1.2283	0.0665
5.9333	1.3414	0.0725
6.1892	1.5383	0.083
6.4654	1.6562	0.0893
6.7516	1.8632	0.1003
7.0493	2.0799	0.1119
7.3574	2.3216	0.1249
7.6858	2.4883	0.1337
8.018	2.7828	0.1494
8.3665	3.0926	0.1658
8.7335	3.3588	0.18
9.118	3.7379	0.2003
9.5144	3.9523	0.2118
9.9309	4.4285	0.2371
10.353	4.8228	0.1969
10.771	5.2307	0.2134
11.243	5.7011	0.2325
11.74	6.2141	0.2533
12.261	6.7437	0.2748
12.807	7.3401	0.299
13.372	7.9653	0.3243
13.961	8.6499	0.3521
14.574	9.3555	0.3808
15.218	10.139	0.413
15.726	10.737	0.437
17.174	12.581	0.512
18.777	14.669	0.596
20.5	16.985	0.69
22.429	19.559	0.795
24.489	22.583	0.918
26.76	25.805	1.049
29.244	29.643	1.205
31.947	33.909	1.378
34.904	38.584	1.568
38.128	43.675	1.774
41.657	49.383	2.006
45.514	55.555	2.257
49.72	62.239	2.528
54.325	68.859	2.797
59.352	76.532	3.109
64.857	84.436	3.43
70.865	93.098	3.782
77.428	102.26	4.15
84.614	111.93	4.55
92.467	120.62	4.9
101.04	129.19	5.25
111.16	139.25	5.66
121.23	149.18	6.06
131.28	157.12	6.38
141.42	164.9	6.7
151.47	173.16	7.03
161.61	180.61	7.34
171.67	188.03	7.64
181.77	196.44	7.98
191.86	203.36	8.26
202.01	211.73	8.6
212.09	218.97	8.89
222.12	225.68	9.17
232.21	233.03	9.47
242.28	240.2	9.76
252.44	248.76	10.1
262.53	256.2	10.41
272.61	264.93	10.76
282.6	274.43	11.15
292.77	282.45	11.47
302.88	291.43	11.84

System: zinc(II) 2-ethylimidazolide; phases: Glass
Fixed: Pressure, kPa = 101.325
Property: Molar heat capacity at constant pressure, J/K/mol (Glass); method: RELAXCAL
Temperature, K	Molar heat capacity at constant pressure, J/K/mol	uncertainty
1.839	0.035808	0.002763
1.9149	0.041422	0.003147
2.0013	0.046872	0.003554
2.0911	0.053482	0.003881
2.1845	0.062122	0.004142
2.2851	0.071377	0.004675
2.4166	0.084486	0.005341
2.5091	0.095655	0.005839
2.6464	0.11243	0.00667
2.7376	0.12544	0.00741
2.8678	0.1481	0.00858
2.9862	0.17116	0.00975
3.1219	0.19056	0.01094
3.2637	0.22323	0.01267
3.3973	0.25335	0.01431
3.5512	0.28377	0.01605
3.6994	0.33066	0.01845
3.8615	0.3658	0.02037
4.0328	0.43426	0.02411
4.2127	0.48593	0.02683
4.3975	0.54847	0.03022
4.588	0.62279	0.03417
4.7968	0.70757	0.03877
5.0085	0.81379	0.04432
5.2275	0.89281	0.04865
5.4575	1.0223	0.0556
5.6991	1.1697	0.0634
5.9525	1.2779	0.0692
6.2042	1.457	0.0787
6.4788	1.6126	0.087
6.7648	1.8094	0.0974
7.0625	1.9813	0.1066
7.3717	2.2484	0.1209
7.6979	2.4279	0.1304
8.0343	2.7027	0.1451
8.3886	3.0285	0.1625
8.7529	3.2688	0.1754
9.1356	3.6047	0.1932
9.5356	4.0327	0.2161
9.953	4.3556	0.2333
10.351	4.7409	0.1935
10.775	5.1722	0.2111
11.252	5.6574	0.2307
11.754	6.1715	0.2516
12.272	6.7313	0.2743
12.814	7.3223	0.2983
13.383	7.9662	0.3244
13.972	8.6604	0.3526
14.587	9.3948	0.3824
15.226	10.179	0.414
15.736	10.791	0.439
17.184	12.665	0.515
18.787	14.775	0.601
20.51	17.105	0.695
22.428	19.761	0.803
24.504	22.962	0.933
26.769	26.226	1.066
29.247	30.216	1.228
31.941	34.676	1.409
34.904	39.272	1.596
38.129	43.787	1.779
41.657	49.231	2
45.516	55.247	2.244
49.725	61.574	2.501
54.318	68.041	2.764
59.349	75.284	3.058
64.851	82.763	3.362
70.86	90.788	3.688
77.424	99.43	4.039
84.607	108.29	4.4
92.46	116.45	4.73
101.04	124.6	5.06
111.15	133.87	5.44
121.21	142.99	5.81
131.26	150.5	6.11
141.38	158.36	6.43
151.43	166.3	6.76
161.56	173.36	7.04
171.6	180.21	7.32
181.69	187.69	7.62
191.77	195.38	7.94
201.91	202.56	8.23
211.98	209.72	8.52
221.99	216.74	8.8
232.05	223.82	9.09
242.11	230.23	9.35
252.26	238.21	9.68
262.32	245.55	9.97
272.38	253.18	10.28
282.34	261.68	10.63
292.48	268.78	10.92
302.54	275.95	11.21

System: zinc(II) 2-ethylimidazolide; phases: Crystal
Fixed: Pressure, kPa = 101.325
Property: Molar heat capacity at constant pressure, J/K/mol (Crystal); method: RELAXCAL
Temperature, K	Molar heat capacity at constant pressure, J/K/mol	uncertainty
1.8323	0.049299	0.003756
1.8799	0.052127	0.004019
1.9317	0.055591	0.004211
1.9893	0.060299	0.004566
2.0511	0.065888	0.004846
2.1181	0.073523	0.005318
2.1897	0.081771	0.005455
2.2647	0.091603	0.006002
2.3456	0.10352	0.00652
2.4883	0.12579	0.00765
2.6103	0.14752	0.00878
2.7394	0.17086	0.01002
2.858	0.19397	0.0112
2.9857	0.22163	0.01275
3.1182	0.25292	0.01448
3.259	0.28984	0.01651
3.4066	0.33265	0.01872
3.5617	0.38096	0.02131
3.7367	0.44161	0.02455
3.9164	0.50788	0.02814
4.093	0.57757	0.03187
4.2882	0.65877	0.03625
4.4752	0.74158	0.04059
4.6733	0.83297	0.04549
4.8848	0.93621	0.05099
5.1045	1.0508	0.0571
5.3407	1.1798	0.064
5.5835	1.3261	0.0718
5.8365	1.4786	0.0799
6.1002	1.6514	0.0891
6.4065	1.86	0.1002
6.6849	2.0568	0.1108
6.9797	2.2772	0.1225
7.2957	2.5238	0.1357
7.6274	2.797	0.1503
7.9755	3.0919	0.166
8.3389	3.4144	0.1831
8.7183	3.7602	0.2016
9.1146	4.1415	0.222
9.529	4.5494	0.2437
10.116	5.1663	0.2109
10.59	5.6559	0.2307
11.06	6.1702	0.2516
11.537	6.6767	0.2722
12.059	7.2987	0.2974
12.593	7.9301	0.323
13.154	8.6157	0.3509
13.737	9.3427	0.3804
14.347	10.141	0.413
14.986	10.974	0.447
15.49	11.63	0.473
16.94	13.586	0.553
18.517	15.737	0.64
20.194	17.807	0.724
22.137	20.77	0.844
24.215	23.643	0.961
26.435	26.908	1.093
28.91	30.227	1.228
31.618	34.045	1.383
34.578	38.372	1.559
37.807	42.998	1.747
41.34	47.771	1.941
45.201	53.792	2.185
49.413	59.458	2.415
54.019	65.546	2.663
59.058	72.122	2.93
64.56	79.285	3.221
70.563	86.789	3.525
77.133	95.123	3.864
84.265	104	4.22
92.128	112.13	4.55
100.71	118.91	4.83
110.81	128.62	5.22
120.85	137.96	5.6
130.99	145.58	5.91
141.06	152.68	6.2
151.12	159.89	6.49
161.25	166.65	6.77
171.35	173.33	7.04
181.43	180.52	7.33
191.5	187.51	7.62
201.6	194.57	7.9
211.69	200.92	8.16
221.78	207.56	8.43
231.87	213.47	8.67
241.95	220.69	8.96
252.04	227.71	9.25
262.15	234.66	9.53
272.26	239.9	9.74
282.33	249.22	10.12
292.42	254.66	10.34
302.52	265.92	10.8

System: zinc(II) 2-ethylimidazolide; phases: Crystal
Fixed: Pressure, kPa = 101.325
Property: Molar heat capacity at constant pressure, J/K/mol (Crystal); method: RELAXCAL
Temperature, K	Molar heat capacity at constant pressure, J/K/mol	uncertainty
1.8361	0.016381	0.001245
1.9162	0.018805	0.001422
2.0045	0.021707	0.001581
2.0989	0.024687	0.001731
2.1974	0.028167	0.001866
2.3014	0.032725	0.002117
2.4097	0.038883	0.002431
2.516	0.043521	0.002639
2.639	0.0517	0.003057
2.7438	0.056598	0.003318
2.8537	0.065987	0.003852
2.9919	0.074812	0.004296
3.1063	0.084458	0.004849
3.2458	0.098334	0.00562
3.3948	0.11269	0.00638
3.5371	0.1275	0.00717
3.6923	0.14323	0.00803
3.8533	0.16929	0.0094
4.023	0.19106	0.01061
4.2026	0.22336	0.01233
4.3898	0.24814	0.01374
4.5774	0.28147	0.01553
4.7818	0.31478	0.01732
4.9945	0.35987	0.01971
5.2173	0.40581	0.02209
5.4485	0.48646	0.02652
5.6859	0.55226	0.03007
5.9362	0.614	0.03334
6.1952	0.65314	0.03547
6.4644	0.78554	0.04245
6.7517	0.8975	0.04845
7.0487	1.0068	0.0545
7.3573	1.1154	0.0603
7.6805	1.2732	0.0687
8.0158	1.4584	0.0786
8.366	1.6605	0.0894
8.7369	1.8594	0.0999
9.1173	2.1104	0.1133
9.5183	2.3363	0.1254
9.9353	2.5942	0.1391
10.351	2.8739	0.1176
10.77	3.1869	0.1303
11.241	3.5498	0.1451
11.74	3.9673	0.162
12.26	4.3987	0.1795
12.806	4.8956	0.1997
13.373	5.4258	0.2212
13.96	6.0061	0.2448
14.572	6.6272	0.27
15.218	7.3185	0.298
15.725	7.8649	0.3203
17.175	9.5509	0.3887
18.767	11.497	0.468
20.499	13.709	0.557
22.417	16.313	0.663
24.488	19.451	0.791
26.75	22.612	0.919
29.234	26.383	1.072
31.941	30.76	1.25
34.895	35.554	1.445
38.118	40.859	1.66
41.646	46.749	1.899
45.502	53.14	2.159
49.71	60.007	2.438
54.312	67.153	2.728
59.344	74.944	3.044
64.848	83.056	3.374
70.854	91.721	3.726
77.42	100.73	4.09
84.602	109.85	4.46
92.456	118.78	4.82
101.03	127.27	5.17
111.15	136.95	5.56
121.21	146.05	5.93
131.27	153.88	6.25
141.4	162.12	6.59
151.46	170.21	6.91
161.59	177.25	7.2
171.65	184.06	7.48
181.74	192.24	7.81
191.83	199.47	8.1
201.98	207.07	8.41
212.06	214.46	8.71
222.09	221.43	8.99
232.17	228.3	9.27
242.25	235.6	9.57
252.41	243.81	9.9
262.49	251.06	10.2
272.57	259.14	10.53
282.56	268.2	10.89
292.71	275.78	11.2
302.81	283.82	11.53

System: zinc(II) 2-ethylimidazolide; phases: Crystal
Fixed: Pressure, kPa = 101.325
Property: Molar heat capacity at constant pressure, J/K/mol (Crystal); method: RELAXCAL
Temperature, K	Molar heat capacity at constant pressure, J/K/mol	uncertainty
1	0.01077	0.00111
2	0.05817	0.00366
3	0.20384	0.01166
4	0.47619	0.0263
5	0.87731	0.04774
6	1.401	0.0757
7	2.0372	0.1096
8	2.7717	0.1488
9	3.5883	0.1923
10	4.4818	0.1829
15	9.8713	0.4017
20	16.281	0.662
25	23.295	0.947
30	30.786	1.251
35	38.68	1.572
40	46.78	1.9
45	54.786	2.226
50	62.49	2.539
60	77.477	3.147
70	92.036	3.739
80	105.47	4.28
90	117.61	4.78
100	128.56	5.22
110	138.51	5.63
120	147.68	6
130	156.24	6.35
140	164.35	6.68
150	172.14	6.99
160	179.71	7.3
170	187.14	7.6
180	194.49	7.9
190	201.82	8.2
200	209.16	8.5
210	216.56	8.8
220	224.03	9.1
230	231.6	9.41
240	239.29	9.72
250	247.11	10.04
260	255.08	10.36
270	263.21	10.69
273.15	265.8	10.8
280	271.5	11.03
290	279.96	11.37
298.15	287	11.66
300	288.61	11.72

System: zinc(II) 2-ethylimidazolide; phases: Crystal
Fixed: Pressure, kPa = 101.325
Property: Molar entropy, J/K/mol (Crystal); method: RELAXCAL
Temperature, K	Molar entropy, J/K/mol	uncertainty
1	0.008161	0.000747
2	0.02628	0.0022
3	0.07338	0.00604
4	0.16621	0.01352
5	0.31321	0.02533
6	0.51767	0.04172
7	0.78005	0.06273
8	1.099	0.0883
9	1.4718	0.1181
10	1.8955	0.1158
15	4.6862	0.2858
20	8.3861	0.5112
25	12.763	0.778
30	17.666	1.077
35	23	1.402
40	28.693	1.748
45	34.667	2.112
50	40.841	2.489
60	53.559	3.263
70	66.607	4.058
80	79.788	4.862
90	92.924	5.662
100	105.89	6.45
110	118.62	7.23
120	131.07	7.99
130	143.23	8.73
140	155.11	9.45
150	166.72	10.16
160	178.07	10.85
170	189.19	11.53
180	200.09	12.19
190	210.8	12.84
200	221.34	13.49
210	231.73	14.12
220	241.97	14.74
230	252.1	15.36
240	262.12	15.97
250	272.04	16.58
260	281.89	17.18
270	291.67	17.77
273.15	294.74	17.96
280	301.39	18.36
290	311.06	18.95
298.15	318.92	19.43
300	320.7	19.54

System: zinc(II) 2-ethylimidazolide; phases: Crystal
Fixed: Pressure, kPa = 101.325
Property: Molar enthalpy, kJ/mol (Crystal); method: RELAXCAL
Temperature, K	Molar enthalpy, kJ/mol	uncertainty
1	4.398e-06	6.2e-07
2	3.31e-05	2.32e-06
3	0.0001541	9.4e-06
4	0.0004833	2.77e-05
5	0.001149	6.4e-05
6	0.002279	0.000125
7	0.003989	0.000217
8	0.006386	0.000345
9	0.009559	0.000515
10	0.01359	0.00056
15	0.04891	0.002
20	0.11398	0.00464
25	0.21271	0.00865
30	0.34773	0.01414
35	0.52125	0.02119
40	0.73488	0.02987
45	0.98889	0.04018
50	1.2822	0.0521
60	1.9821	0.0805
70	2.8304	0.115
80	3.819	0.1551
90	4.9354	0.2005
100	6.1672	0.2505
110	7.5033	0.3048
120	8.9348	0.3629
130	10.455	0.425
140	12.058	0.49
150	13.741	0.558
160	15.5	0.63
170	17.335	0.704
180	19.243	0.782
190	21.224	0.862
200	23.279	0.946
210	25.408	1.032
220	27.611	1.122
230	29.889	1.214
240	32.243	1.31
250	34.675	1.409
260	37.186	1.511
270	39.777	1.616
273.15	40.61	1.65
280	42.45	1.724
290	45.208	1.836
298.15	47.518	1.93
300	48.05	1.952

System: zinc(II) 2-ethylimidazolide; phases: Glass
Fixed: Pressure, kPa = 101.325
Property: Molar heat capacity at constant pressure, J/K/mol (Glass); method: RELAXCAL
Temperature, K	Molar heat capacity at constant pressure, J/K/mol	uncertainty
1	0.01063	0.00094
2	0.04827	0.00302
3	0.16804	0.00969
4	0.41582	0.02309
5	0.80294	0.04381
6	1.3212	0.0715
7	1.9563	0.1053
8	2.6894	0.1444
9	3.5108	0.1882
10	4.4135	0.1802
15	9.8866	0.4023
20	16.431	0.668
25	23.652	0.961
30	31.35	1.274
35	39.248	1.595
40	46.977	1.908
45	54.359	2.208
50	61.683	2.506
60	76.221	3.096
70	89.936	3.653
80	102.42	4.16
90	113.66	4.62
100	123.8	5.03
110	133.08	5.41
120	141.69	5.76
130	149.79	6.08
140	157.54	6.4
150	165.02	6.7
160	172.32	7
170	179.51	7.29
180	186.63	7.58
190	193.72	7.87
200	200.81	8.16
210	207.92	8.45
220	215.06	8.74
230	222.25	9.03
240	229.49	9.32
250	236.79	9.62
260	244.16	9.92
270	251.6	10.22
273.15	253.96	10.32
280	259.1	10.52
290	266.68	10.83
298.15	272.9	11.09
300	274.31	11.14

System: zinc(II) 2-ethylimidazolide; phases: Glass
Fixed: Pressure, kPa = 101.325
Property: Molar entropy, J/K/mol (Glass); method: RELAXCAL
Temperature, K	Molar entropy, J/K/mol	uncertainty
1	0.008253	0.000736
2	0.0244	0.00203
3	0.06286	0.00517
4	0.14182	0.01155
5	0.27364	0.02215
6	0.46396	0.03741
7	0.71392	0.05744
8	1.022	0.0821
9	1.3853	0.1112
10	1.8013	0.1101
15	4.5785	0.2793
20	8.2996	0.506
25	12.731	0.776
30	17.718	1.08
35	23.144	1.41
40	28.893	1.761
45	34.855	2.124
50	40.96	2.496
60	53.504	3.26
70	66.297	4.04
80	79.136	4.822
90	91.86	5.597
100	104.37	6.36
110	116.61	7.11
120	128.56	7.83
130	140.23	8.54
140	151.61	9.24
150	162.74	9.92
160	173.62	10.58
170	184.28	11.23
180	194.75	11.87
190	205.03	12.49
200	215.14	13.11
210	225.11	13.72
220	234.95	14.32
230	244.67	14.91
240	254.28	15.49
250	263.8	16.07
260	273.23	16.65
270	282.58	17.22
273.15	285.51	17.4
280	291.87	17.78
290	301.09	18.35
298.15	308.57	18.8
300	310.26	18.9

System: zinc(II) 2-ethylimidazolide; phases: Glass
Fixed: Pressure, kPa = 101.325
Property: Molar enthalpy, kJ/mol (Glass); method: RELAXCAL
Temperature, K	Molar enthalpy, kJ/mol	uncertainty
1	4.423e-06	5.59e-07
2	2.975e-05	2.02e-06
3	0.0001286	7.8e-06
4	0.0004089	2.35e-05
5	0.001007	5.6e-05
6	0.002059	0.000113
7	0.003688	0.000201
8	0.006003	0.000325
9	0.009097	0.000491
10	0.01305	0.00054
15	0.04822	0.00197
20	0.11368	0.00463
25	0.21365	0.00869
30	0.351	0.01427
35	0.52749	0.02144
40	0.74319	0.0302
45	0.99665	0.0405
50	1.2867	0.0523
60	1.9769	0.0803
70	2.8086	0.1141
80	3.7715	0.1532
90	4.8529	0.1971
100	6.041	0.2454
110	7.326	0.2976
120	8.7003	0.3534
130	10.158	0.413
140	11.695	0.475
150	13.308	0.541
160	14.995	0.609
170	16.754	0.681
180	18.585	0.755
190	20.487	0.832
200	22.459	0.912
210	24.503	0.995
220	26.618	1.081
230	28.804	1.17
240	31.063	1.262
250	33.394	1.356
260	35.799	1.454
270	38.278	1.555
273.15	39.074	1.587
280	40.831	1.659
290	43.46	1.765
298.15	45.659	1.855
300	46.165	1.875

System: zinc(II) 2-ethylimidazolide; phases: Crystal
Fixed: Pressure, kPa = 101.325
Property: Molar heat capacity at constant pressure, J/K/mol (Crystal); method: RELAXCAL
Temperature, K	Molar heat capacity at constant pressure, J/K/mol	uncertainty
1	0.01368	0.00122
2	0.06231	0.00394
3	0.22573	0.01296
4	0.53863	0.02977
5	0.99623	0.0542
6	1.5854	0.0856
7	2.2942	0.1234
8	3.1131	0.1671
9	4.0288	0.2159
10	5.0293	0.2053
15	10.957	0.446
20	17.739	0.721
25	24.789	1.007
30	31.854	1.294
35	38.901	1.58
40	45.993	1.868
45	53.174	2.16
50	60.35	2.452
60	73.506	2.986
70	86.375	3.509
80	98.347	3.995
90	109.29	4.44
100	119.26	4.84
110	128.39	5.22
120	136.82	5.56
130	144.69	5.88
140	152.15	6.18
150	159.28	6.47
160	166.18	6.75
170	172.92	7.02
180	179.56	7.29
190	186.14	7.56
200	192.7	7.83
210	199.27	8.09
220	205.88	8.36
230	212.55	8.63
240	219.29	8.91
250	226.12	9.19
260	233.06	9.47
270	240.1	9.75
273.15	242.35	9.84
280	247.27	10.04
290	254.56	10.34
298.15	260.6	10.59
300	261.99	10.64

System: zinc(II) 2-ethylimidazolide; phases: Crystal
Fixed: Pressure, kPa = 101.325
Property: Molar entropy, J/K/mol (Crystal); method: RELAXCAL
Temperature, K	Molar entropy, J/K/mol	uncertainty
1	0.012	0.00104
2	0.03219	0.00268
3	0.08353	0.00687
4	0.18773	0.01528
5	0.35451	0.02867
6	0.58632	0.04725
7	0.88246	0.07097
8	1.2411	0.0997
9	1.6598	0.1332
10	2.1353	0.1305
15	5.2519	0.3203
20	9.321	0.5682
25	14.035	0.855
30	19.179	1.169
35	24.619	1.5
40	30.276	1.845
45	36.107	2.2
50	42.082	2.564
60	54.27	3.307
70	66.577	4.057
80	78.904	4.808
90	91.129	5.553
100	103.17	6.29
110	114.97	7.01
120	126.51	7.71
130	137.77	8.39
140	148.77	9.06
150	159.51	9.72
160	170.01	10.36
170	180.29	10.99
180	190.36	11.6
190	200.25	12.2
200	209.96	12.79
210	219.52	13.38
220	228.95	13.95
230	238.24	14.52
240	247.43	15.08
250	256.52	15.63
260	265.53	16.18
270	274.45	16.72
273.15	277.25	16.89
280	283.31	17.26
290	292.12	17.8
298.15	299.26	18.23
300	300.87	18.33

System: zinc(II) 2-ethylimidazolide; phases: Crystal
Fixed: Pressure, kPa = 101.325
Property: Molar enthalpy, kJ/mol (Crystal); method: RELAXCAL
Temperature, K	Molar enthalpy, kJ/mol	uncertainty
1	6.198e-06	7.16e-07
2	3.792e-05	2.6e-06
3	0.00017	1.04e-05
4	0.0005396	3.09e-05
5	0.001296	7.2e-05
6	0.002576	0.000141
7	0.004506	0.000245
8	0.007201	0.000389
9	0.01076	0.00058
10	0.01529	0.00063
15	0.05472	0.00223
20	0.12625	0.00514
25	0.23253	0.00946
30	0.37415	0.01521
35	0.55104	0.0224
40	0.76324	0.03102
45	1.0111	0.0411
50	1.295	0.0526
60	1.9655	0.0799
70	2.7655	0.1123
80	3.69	0.1499
90	4.729	0.1921
100	5.8726	0.2386
110	7.1115	0.2889
120	8.438	0.3428
130	9.8459	0.4
140	11.33	0.46
150	12.888	0.524
160	14.515	0.59
170	16.211	0.659
180	17.973	0.73
190	19.802	0.804
200	21.696	0.881
210	23.656	0.961
220	25.682	1.043
230	27.774	1.128
240	29.933	1.216
250	32.16	1.306
260	34.456	1.4
270	36.821	1.496
273.15	37.581	1.527
280	39.258	1.595
290	41.767	1.697
298.15	43.866	1.782
300	44.35	1.802

System: zinc(II) 2-ethylimidazolide; phases: Crystal
Fixed: Pressure, kPa = 101.325
Property: Molar heat capacity at constant pressure, J/K/mol (Crystal); method: RELAXCAL
Temperature, K	Molar heat capacity at constant pressure, J/K/mol	uncertainty
1	0.002912	0.000404
2	0.02153	0.00136
3	0.076	0.00438
4	0.18722	0.01041
5	0.36736	0.0201
6	0.62606	0.03398
7	0.98168	0.05304
8	1.4457	0.0779
9	2.0043	0.1077
10	2.6515	0.1085
15	7.0635	0.2877
20	13.064	0.531
25	20.1	0.817
30	27.697	1.125
35	35.64	1.448
40	43.915	1.784
45	52.397	2.129
50	60.382	2.453
60	75.981	3.087
70	90.675	3.683
80	103.93	4.22
90	115.76	4.7
100	126.37	5.13
110	136.02	5.53
120	144.91	5.89
130	153.25	6.23
140	161.18	6.55
150	168.81	6.86
160	176.23	7.16
170	183.53	7.46
180	190.75	7.75
190	197.94	8.04
200	205.14	8.33
210	212.36	8.63
220	219.65	8.92
230	227.01	9.22
240	234.46	9.52
250	242.01	9.83
260	249.68	10.14
270	257.46	10.46
273.15	259.94	10.56
280	265.38	10.78
290	273.43	11.11
298.15	280.09	11.38
300	281.62	11.44

System: zinc(II) 2-ethylimidazolide; phases: Crystal
Fixed: Pressure, kPa = 101.325
Property: Molar entropy, J/K/mol (Crystal); method: RELAXCAL
Temperature, K	Molar entropy, J/K/mol	uncertainty
1	0.001172	0.000158
2	0.007535	0.000649
3	0.02496	0.00207
4	0.06052	0.00494
5	0.12029	0.00975
6	0.20885	0.01686
7	0.33059	0.02662
8	0.49088	0.03947
9	0.69251	0.05563
10	0.93643	0.05727
15	2.7836	0.1699
20	5.6058	0.3418
25	9.2626	0.5646
30	13.593	0.828
35	18.455	1.125
40	23.75	1.447
45	29.412	1.792
50	35.353	2.154
60	47.746	2.909
70	60.579	3.691
80	73.569	4.483
90	86.506	5.271
100	99.261	6.048
110	111.76	6.81
120	123.99	7.55
130	135.92	8.28
140	147.57	8.99
150	158.95	9.68
160	170.08	10.36
170	180.98	11.03
180	191.68	11.68
190	202.19	12.32
200	212.52	12.95
210	222.71	13.57
220	232.75	14.18
230	242.68	14.79
240	252.5	15.38
250	262.22	15.98
260	271.86	16.56
270	281.43	17.15
273.15	284.43	17.33
280	290.94	17.73
290	300.39	18.3
298.15	308.06	18.77
300	309.8	18.88

System: zinc(II) 2-ethylimidazolide; phases: Crystal
Fixed: Pressure, kPa = 101.325
Property: Molar enthalpy, kJ/mol (Crystal); method: RELAXCAL
Temperature, K	Molar enthalpy, kJ/mol	uncertainty
1	8.044e-07	2.084e-07
2	1.1e-05	8e-07
3	5.579e-05	3.43e-06
4	0.000182	1.05e-05
5	0.0004532	2.54e-05
6	0.0009429	5.19e-05
7	0.001737	9.5e-05
8	0.002943	0.00016
9	0.00466	0.000252
10	0.006981	0.000287
15	0.0305	0.00125
20	0.08027	0.00327
25	0.16286	0.00663
30	0.28219	0.01148
35	0.44039	0.0179
40	0.63915	0.02598
45	0.87991	0.03576
50	1.1622	0.0472
60	1.8443	0.0749
70	2.6787	0.1088
80	3.653	0.1484
90	4.7525	0.1931
100	5.9641	0.2423
110	7.2767	0.2956
120	8.6819	0.3527
130	10.173	0.413
140	11.746	0.477
150	13.396	0.544
160	15.121	0.614
170	16.92	0.687
180	18.791	0.763
190	20.735	0.842
200	22.75	0.924
210	24.838	1.009
220	26.998	1.097
230	29.231	1.187
240	31.538	1.281
250	33.92	1.378
260	36.379	1.478
270	38.914	1.581
273.15	39.729	1.614
280	41.528	1.687
290	44.222	1.796
298.15	46.478	1.888
300	46.997	1.909
