Measured thermophysical data. Structural and interactional studies of homologous series of a,x-alkanediols in N,N-dimethylformamide
Source: J. Chem. Thermodyn., 2007, 10.1016/j.jct.2006.10.004
Compound 1: 1,2-ethanediol, C2H6O2, InChI=1S/C2H6O2/c3-1-2-4/h3-4H,1-2H2, purity 99.5%
Compound 2: propan-1,3-diol, C3H8O2, InChI=1S/C3H8O2/c4-2-1-3-5/h4-5H,1-3H2, purity 99%
Compound 3: 1,5-pentanediol, C5H12O2, InChI=1S/C5H12O2/c6-4-2-1-3-5-7/h6-7H,1-5H2, purity 96%
Compound 4: dimethylformamide, C3H7NO, InChI=1S/C3H7NO/c1-4(2)3-5/h3H,1-2H3, purity 99.9%

System: 1,2-ethanediol; phases: Liquid
Property: Mass density, kg/m3 (Liquid); method: VIBTUB:UFactor:8
Temperature, K	Pressure, kPa	Mass density, kg/m3	uncertainty
308.15	101.325	1102.9	0.64

System: 1,2-ethanediol; phases: Liquid
Property: Viscosity, Pa*s (Liquid); method: CAPTUB:UFactor:8
Temperature, K	Pressure, kPa	Viscosity, Pa*s	uncertainty
308.15	101.325	0.011354	0.000428

System: 1,2-ethanediol; phases: Liquid
Property: Speed of sound, m/s (Liquid); method: PULSEH:UFactor:4
Temperature, K	Pressure, kPa	Speed of sound, m/s	uncertainty
308.15	101.325	1633.36	3.23

System: propan-1,3-diol; phases: Liquid
Property: Mass density, kg/m3 (Liquid); method: VIBTUB:UFactor:8
Temperature, K	Pressure, kPa	Mass density, kg/m3	uncertainty
308.15	101.325	1042.7	0.6

System: propan-1,3-diol; phases: Liquid
Property: Viscosity, Pa*s (Liquid); method: CAPTUB:UFactor:8
Temperature, K	Pressure, kPa	Viscosity, Pa*s	uncertainty
308.15	101.325	0.026438	0.000965

System: propan-1,3-diol; phases: Liquid
Property: Speed of sound, m/s (Liquid); method: PULSEH:UFactor:4
Temperature, K	Pressure, kPa	Speed of sound, m/s	uncertainty
308.15	101.325	1604.47	3.3

System: 1,5-pentanediol; phases: Liquid
Property: Mass density, kg/m3 (Liquid); method: VIBTUB:UFactor:8
Temperature, K	Pressure, kPa	Mass density, kg/m3	uncertainty
308.15	101.325	974.3	3.5

System: 1,5-pentanediol; phases: Liquid
Property: Viscosity, Pa*s (Liquid); method: CAPTUB:UFactor:8
Temperature, K	Pressure, kPa	Viscosity, Pa*s	uncertainty
308.15	101.325	0.063997	0.002898

System: 1,5-pentanediol; phases: Liquid
Property: Speed of sound, m/s (Liquid); method: PULSEH:UFactor:4
Temperature, K	Pressure, kPa	Speed of sound, m/s	uncertainty
308.15	101.325	1566.12	5.05

System: dimethylformamide; phases: Liquid
Property: Mass density, kg/m3 (Liquid); method: VIBTUB:UFactor:8
Temperature, K	Pressure, kPa	Mass density, kg/m3	uncertainty
308.15	101.325	935.55	0.46

System: dimethylformamide; phases: Liquid
Property: Viscosity, Pa*s (Liquid); method: CAPTUB:UFactor:8
Temperature, K	Pressure, kPa	Viscosity, Pa*s	uncertainty
308.15	101.325	0.00071	3.7e-05

System: dimethylformamide; phases: Liquid
Property: Speed of sound, m/s (Liquid); method: PULSEH:UFactor:4
Temperature, K	Pressure, kPa	Speed of sound, m/s	uncertainty
308.15	101.325	1426.03	2.87

System: dimethylformamide + 1,2-ethanediol; phases: Liquid
Fixed: Pressure, kPa = 101
Fixed: Temperature, K = 308.15
Property: Viscosity, Pa*s (Liquid); method: CAPTUB:UFactor:8
Mole fraction of 1,2-ethanediol	Viscosity, Pa*s	uncertainty
0.0257	0.000758	3.9e-05
0.0458	0.000816	4.1e-05
0.0974	0.000872	4.4e-05
0.1921	0.001151	5.6e-05
0.2919	0.001453	6.9e-05
0.3822	0.001814	8.4e-05
0.4917	0.002392	0.000109
0.5882	0.003131	0.000141
0.6889	0.004137	0.000183
0.783	0.005498	0.000235
0.885	0.007454	0.000299
0.9484	0.00902	0.00035
0.968	0.010483	0.000399

System: dimethylformamide + 1,2-ethanediol; phases: Liquid
Fixed: Pressure, kPa = 101
Fixed: Temperature, K = 308.15
Property: Speed of sound, m/s (Liquid); method: PULSEH:UFactor:4
Mole fraction of 1,2-ethanediol	Speed of sound, m/s	uncertainty
0.0269	1429.41	2.88
0.048	1432.93	2.89
0.0974	1442.21	2.9
0.1921	1460.78	2.93
0.2919	1480.25	2.96
0.3822	1496.72	2.99
0.4917	1518.39	3.03
0.5882	1537.48	3.06
0.6889	1558.15	3.1
0.783	1579.28	3.13
0.885	1604.16	3.18
0.9484	1619.47	3.2
0.968	1624.51	3.21

System: dimethylformamide + 1,2-ethanediol; phases: Liquid
Fixed: Pressure, kPa = 101
Fixed: Temperature, K = 308.15
Property: Excess molar volume, m3/mol (Liquid); method: DIRDIL:UFactor:4
Mole fraction of 1,2-ethanediol	Excess molar volume, m3/mol	uncertainty
0.0406	-3.4e-08	2.9e-08
0.0927	-7.5e-08	6.1e-08
0.1471	-1.29e-07	1.04e-07
0.2062	-1.72e-07	1.38e-07
0.2622	-2.12e-07	1.7e-07
0.325	-2.37e-07	1.9e-07
0.3579	-2.38e-07	1.91e-07
0.4128	-2.55e-07	2.04e-07
0.4745	-2.58e-07	2.07e-07
0.5681	-2.68e-07	2.15e-07
0.6039	-2.62e-07	2.1e-07
0.6336	-2.53e-07	2.03e-07
0.6639	-2.46e-07	1.97e-07
0.6975	-2.3e-07	1.84e-07
0.7271	-2.19e-07	1.75e-07
0.7454	-2.06e-07	1.65e-07
0.7778	-1.91e-07	1.53e-07
0.8061	-1.73e-07	1.39e-07
0.8268	-1.56e-07	1.25e-07
0.8428	-1.48e-07	1.19e-07
0.853	-1.4e-07	1.12e-07
0.8656	-1.3e-07	1.04e-07
0.8786	-1.21e-07	9.7e-08
0.8867	-1.14e-07	9.2e-08
0.8926	-1.08e-07	8.7e-08
0.8998	-1.02e-07	8.2e-08
0.9039	-9.9e-08	8e-08
0.9126	-9.1e-08	7.3e-08
0.9175	-7.8e-08	6.3e-08
0.9225	-6.8e-08	5.5e-08
0.988	-1.6e-08	1.5e-08

System: dimethylformamide + propan-1,3-diol; phases: Liquid
Fixed: Pressure, kPa = 101
Fixed: Temperature, K = 308.15
Property: Viscosity, Pa*s (Liquid); method: CAPTUB:UFactor:8
Mole fraction of propan-1,3-diol	Viscosity, Pa*s	uncertainty
0.0229	0.00076	3.9e-05
0.0468	0.000834	4.2e-05
0.0914	0.000904	4.5e-05
0.2048	0.001267	6.1e-05
0.3032	0.001748	8.2e-05
0.397	0.0024	0.00011
0.4994	0.003516	0.000157
0.597	0.005056	0.000222
0.699	0.007606	0.000305
0.7983	0.011934	0.000449
0.9001	0.017745	0.00065
0.9477	0.020437	0.000746

System: dimethylformamide + propan-1,3-diol; phases: Liquid
Fixed: Pressure, kPa = 101
Fixed: Temperature, K = 308.15
Property: Speed of sound, m/s (Liquid); method: PULSEH:UFactor:4
Mole fraction of propan-1,3-diol	Speed of sound, m/s	uncertainty
0.0229	1428.33	2.88
0.0468	1433.07	2.89
0.0914	1441.86	2.9
0.2048	1463.11	2.94
0.3032	1479.92	2.98
0.397	1496.27	3.02
0.4994	1513.84	3.06
0.597	1531.84	3.1
0.699	1550.87	3.15
0.7983	1569.6	3.2
0.9001	1588.8	3.25
0.9477	1597.69	3.28
0.9716	1602.18	3.29

System: dimethylformamide + propan-1,3-diol; phases: Liquid
Fixed: Pressure, kPa = 101
Fixed: Temperature, K = 308.15
Property: Excess molar volume, m3/mol (Liquid); method: DIRDIL:UFactor:4
Mole fraction of propan-1,3-diol	Excess molar volume, m3/mol	uncertainty
0.0012	-1e-09	9e-09
0.032	-2.7e-08	2.3e-08
0.0409	-3.4e-08	2.9e-08
0.0656	-4.8e-08	3.9e-08
0.0767	-6.1e-08	5e-08
0.1025	-7.9e-08	6.4e-08
0.1202	-8.8e-08	7.1e-08
0.1428	-1.06e-07	8.5e-08
0.1658	-1.18e-07	9.5e-08
0.1866	-1.37e-07	1.1e-07
0.2236	-1.53e-07	1.23e-07
0.236	-1.6e-07	1.28e-07
0.2789	-1.91e-07	1.53e-07
0.2946	-1.93e-07	1.55e-07
0.3063	-1.97e-07	1.58e-07
0.3332	-2.05e-07	1.64e-07
0.3479	-2.12e-07	1.7e-07
0.3871	-2.24e-07	1.79e-07
0.4089	-2.28e-07	1.83e-07
0.4308	-2.33e-07	1.87e-07
0.4703	-2.39e-07	1.91e-07
0.4922	-2.39e-07	1.91e-07
0.524	-2.42e-07	1.94e-07
0.5706	-2.4e-07	1.92e-07
0.5831	-2.38e-07	1.91e-07
0.5951	-2.35e-07	1.88e-07
0.616	-2.35e-07	1.88e-07
0.6248	-2.32e-07	1.86e-07
0.6448	-2.28e-07	1.83e-07
0.6738	-2.21e-07	1.77e-07
0.685	-2.16e-07	1.73e-07
0.6985	-2.12e-07	1.7e-07
0.7097	-2.05e-07	1.64e-07
0.7206	-2.01e-07	1.61e-07
0.7302	-1.98e-07	1.59e-07
0.7409	-1.95e-07	1.56e-07
0.7489	-1.92e-07	1.54e-07
0.75	-1.78e-07	1.43e-07
0.7812	-1.65e-07	1.32e-07
0.7906	-1.59e-07	1.28e-07
0.8001	-1.52e-07	1.22e-07
0.8137	-1.47e-07	1.18e-07
0.84	-1.3e-07	1.04e-07
0.87	-1.1e-07	8.8e-08
0.89	-1e-07	8e-08
0.9169	-8.6e-08	6.9e-08
0.9329	-7.4e-08	6e-08
0.9397	-6.8e-08	5.5e-08
0.9454	-6.3e-08	5.1e-08
0.9494	-6e-08	4.9e-08
0.9518	-5.7e-08	4.6e-08
0.9549	-5.5e-08	4.5e-08
0.9578	-6e-08	4.9e-08
0.9652	-3.6e-08	3e-08
0.9787	-2.8e-08	2.4e-08
0.9852	-2.4e-08	2.1e-08
0.9912	-1.8e-08	1.7e-08
0.9951	-1.4e-08	1.4e-08

System: dimethylformamide + 1,5-pentanediol; phases: Liquid
Fixed: Pressure, kPa = 101
Fixed: Temperature, K = 308.15
Property: Viscosity, Pa*s (Liquid); method: CAPTUB:UFactor:8
Mole fraction of 1,5-pentanediol	Viscosity, Pa*s	uncertainty
0.025	0.000759	3.9e-05
0.0483	0.000826	4.2e-05
0.1005	0.001025	5.1e-05
0.1877	0.001446	6.9e-05
0.2971	0.002284	0.000105
0.388	0.003676	0.000166
0.4882	0.005774	0.000251
0.586	0.009073	0.000368
0.6875	0.014586	0.000573
0.7802	0.02271	0.000895
0.9446	0.049906	0.002099
0.9714	0.056425	0.001856

System: dimethylformamide + 1,5-pentanediol; phases: Liquid
Fixed: Pressure, kPa = 101
Fixed: Temperature, K = 308.15
Property: Speed of sound, m/s (Liquid); method: PULSEH:UFactor:4
Mole fraction of 1,5-pentanediol	Speed of sound, m/s	uncertainty
0.025	1429.41	2.88
0.0483	1432.49	2.9
0.1005	1439.68	2.94
0.1877	1452.08	3.03
0.2971	1467.23	3.19
0.388	1479.71	3.37
0.4882	1494.18	3.59
0.586	1508.36	3.83
0.6875	1522.39	4.11
0.7802	1535.99	4.37
0.9035	1553.24	4.75
0.9446	1558.28	4.88
0.9714	1562	4.96

System: dimethylformamide + 1,5-pentanediol; phases: Liquid
Fixed: Pressure, kPa = 101
Fixed: Temperature, K = 308.15
Property: Excess molar volume, m3/mol (Liquid); method: DIRDIL:UFactor:4
Mole fraction of 1,5-pentanediol	Excess molar volume, m3/mol	uncertainty
0.0004	-1e-09	9e-09
0.0104	-3e-09	9e-09
0.0152	-6e-09	1e-08
0.0271	-1.1e-08	1.2e-08
0.0426	-2.2e-08	2e-08
0.0512	-2.6e-08	2.2e-08
0.0536	-2.4e-08	2.1e-08
0.1514	-6.5e-08	5.3e-08
0.1786	-6.7e-08	5.4e-08
0.2004	-7.3e-08	5.9e-08
0.2307	-9.3e-08	7.5e-08
0.2637	-1.02e-07	8.2e-08
0.3598	-1.25e-07	1e-07
0.3918	-1.3e-07	1.04e-07
0.4216	-1.29e-07	1.04e-07
0.4638	-1.29e-07	1.04e-07
0.5058	-1.31e-07	1.05e-07
0.553	-1.3e-07	1.04e-07
0.5781	-1.27e-07	1.02e-07
0.6147	-1.21e-07	9.7e-08
0.6468	-1.21e-07	9.7e-08
0.6714	-1.16e-07	9.3e-08
0.6825	-1.16e-07	9.3e-08
0.6906	-1.14e-07	9.2e-08
0.7061	-1.11e-07	8.9e-08
0.7387	-9.7e-08	7.8e-08
0.8637	-7.9e-08	6.4e-08
0.9078	-6.5e-08	5.3e-08
0.9447	-4.9e-08	4e-08
0.9785	-2.5e-08	2.2e-08
