Measured thermophysical data. Surface thermodynamics of DMA2P, DMA2P-MEA and DMA2P-PZ aqueous solutions
Source: J. Chem. Thermodyn., 2017, 10.1016/j.jct.2016.12.022
Compound 1: 1-(dimethylamino)-2-propanol, C5H13NO, InChI=1S/C5H13NO/c1-5(7)4-6(2)3/h5,7H,4H2,1-3H3, purity 98%
Compound 2: 2-aminoethan-1-ol, C2H7NO, InChI=1S/C2H7NO/c3-1-2-4/h4H,1-3H2, purity 99.5%
Compound 3: piperazine, C4H10N2, InChI=1S/C4H10N2/c1-2-6-4-3-5-1/h5-6H,1-4H2, purity 99.5%
Compound 4: water, H2O, InChI=1S/H2O/h1H2, purity 99.9%

System: 1-(dimethylamino)-2-propanol; phases: Liquid, Air at 1 atmosphere
Property: Surface tension liquid-gas, N/m (Liquid); method: Wilhemy plate method
Temperature, K	Surface tension liquid-gas, N/m	uncertainty
303.2	0.024	0.0004
313.2	0.0227	0.0004
323.2	0.0214	0.0004

System: water; phases: Liquid, Air at 1 atmosphere
Property: Surface tension liquid-gas, N/m (Liquid); method: Wilhemy plate method
Temperature, K	Surface tension liquid-gas, N/m	uncertainty
298.2	0.0719	0.0003

System: 1-(dimethylamino)-2-propanol + water; phases: Liquid, Air at 1 atmosphere
Property: Surface tension liquid-gas, N/m (Liquid); method: Wilhemy plate method
Temperature, K	Mass fraction of 1-(dimethylamino)-2-propanol	Surface tension liquid-gas, N/m	uncertainty
303.2	0.1	0.0451	0.0006
303.2	0.2	0.0399	0.0006
303.2	0.3	0.0362	0.0005
303.2	0.4	0.0336	0.0004
303.2	0.5	0.0316	0.0004
303.2	0.6	0.0298	0.0004
303.2	0.7	0.0284	0.0004
303.2	0.8	0.0271	0.0004
303.2	0.9	0.0259	0.0004
303.2	1	0.024	0.0004
313.2	0.1	0.0434	0.0006
313.2	0.2	0.0378	0.0005
313.2	0.3	0.0346	0.0004
313.2	0.4	0.0323	0.0004
313.2	0.5	0.0304	0.0004
313.2	0.6	0.0288	0.0004
313.2	0.7	0.0273	0.0004
313.2	0.8	0.026	0.0004
313.2	0.9	0.0246	0.0004
313.2	1	0.0227	0.0004
323.2	0.1	0.0419	0.0007
323.2	0.2	0.0362	0.0005
323.2	0.3	0.0332	0.0004
323.2	0.4	0.0308	0.0004
323.2	0.5	0.0291	0.0004
323.2	0.6	0.0274	0.0004
323.2	0.7	0.0262	0.0004
323.2	0.8	0.0246	0.0004
323.2	0.9	0.0235	0.0004
323.2	1	0.0214	0.0004

System: 1-(dimethylamino)-2-propanol + 2-aminoethan-1-ol + water; phases: Liquid, Air at 1 atmosphere
Property: Surface tension liquid-gas, N/m (Liquid); method: Wilhemy plate method
Temperature, K	Mass fraction of 1-(dimethylamino)-2-propanol	Mass fraction of 2-aminoethan-1-ol	Surface tension liquid-gas, N/m	uncertainty
303.2	0.3	0.05	0.0356	0.0004
303.2	0.3	0.1	0.0353	0.0004
303.2	0.3	0.15	0.035	0.0004
303.2	0.4	0.05	0.0329	0.0004
303.2	0.4	0.1	0.0326	0.0004
303.2	0.4	0.15	0.0322	0.0004
303.2	0.5	0.05	0.031	0.0004
303.2	0.5	0.1	0.0306	0.0004
303.2	0.5	0.15	0.0301	0.0004
313.2	0.3	0.05	0.0342	0.0004
313.2	0.3	0.1	0.0339	0.0004
313.2	0.3	0.15	0.0336	0.0004
313.2	0.4	0.05	0.0318	0.0004
313.2	0.4	0.1	0.0315	0.0004
313.2	0.4	0.15	0.0311	0.0004
313.2	0.5	0.05	0.0299	0.0004
313.2	0.5	0.1	0.0295	0.0004
313.2	0.5	0.15	0.0291	0.0004
323.2	0.3	0.05	0.0329	0.0004
323.2	0.3	0.1	0.0326	0.0004
323.2	0.3	0.15	0.0323	0.0004
323.2	0.4	0.05	0.0306	0.0004
323.2	0.4	0.1	0.0304	0.0004
323.2	0.4	0.15	0.03	0.0004
323.2	0.5	0.05	0.0289	0.0004
323.2	0.5	0.1	0.0285	0.0004
323.2	0.5	0.15	0.0281	0.0004

System: 1-(dimethylamino)-2-propanol + piperazine + water; phases: Liquid, Air at 1 atmosphere
Property: Surface tension liquid-gas, N/m (Liquid); method: Wilhemy plate method
Temperature, K	Mass fraction of 1-(dimethylamino)-2-propanol	Mass fraction of piperazine	Surface tension liquid-gas, N/m	uncertainty
303.2	0.3	0.025	0.0359	0.0004
303.2	0.3	0.05	0.0356	0.0004
303.2	0.3	0.075	0.0352	0.0004
303.2	0.4	0.025	0.0332	0.0004
303.2	0.4	0.05	0.0328	0.0004
303.2	0.4	0.075	0.0324	0.0004
303.2	0.5	0.025	0.0312	0.0004
303.2	0.5	0.05	0.0308	0.0004
303.2	0.5	0.075	0.0305	0.0004
313.2	0.3	0.025	0.0344	0.0004
313.2	0.3	0.05	0.0341	0.0004
313.2	0.3	0.075	0.0337	0.0004
313.2	0.4	0.025	0.0319	0.0004
313.2	0.4	0.05	0.0316	0.0004
313.2	0.4	0.075	0.0312	0.0004
313.2	0.5	0.025	0.03	0.0004
313.2	0.5	0.05	0.0297	0.0004
313.2	0.5	0.075	0.0294	0.0004
323.2	0.3	0.025	0.033	0.0004
323.2	0.3	0.05	0.0327	0.0004
323.2	0.3	0.075	0.0323	0.0004
323.2	0.4	0.025	0.0306	0.0004
323.2	0.4	0.05	0.0303	0.0004
323.2	0.4	0.075	0.03	0.0004
323.2	0.5	0.025	0.0288	0.0004
323.2	0.5	0.05	0.0285	0.0004
323.2	0.5	0.075	0.0282	0.0004
