Measured thermophysical data. Volumetric properties of binary mixtures of ethers and acetonitrile: Experimental results and application of the Prigogine Flory Patterson theory
Source: J. Chem. Thermodyn., 2008, 10.1016/j.jct.2007.09.007
Compound 1: acetonitrile, C2H3N, InChI=1S/C2H3N/c1-2-3/h1H3, purity 99.9%
Compound 2: 1,4-dioxane, C4H8O2, InChI=1S/C4H8O2/c1-2-6-4-3-5-1/h1-4H2, purity 99.5%
Compound 3: diisopropyl ether, C6H14O, InChI=1S/C6H14O/c1-5(2)7-6(3)4/h5-6H,1-4H3, purity 99%
Compound 4: dibutyl ether, C8H18O, InChI=1S/C8H18O/c1-3-5-7-9-8-6-4-2/h3-8H2,1-2H3, purity 99%
Compound 5: tetrahydrofuran, C4H8O, InChI=1S/C4H8O/c1-2-4-5-3-1/h1-4H2, purity 99.5%

System: acetonitrile; phases: Liquid
Fixed: Pressure, kPa = 101.325
Property: Mass density, kg/m3 (Liquid); method: VIBTUB:UFactor:2
Temperature, K	Mass density, kg/m3	uncertainty
288.15	787.38	0.23
293.15	782.01	0.24
298.15	776.62	0.24
303.15	771.19	0.25

System: 1,4-dioxane; phases: Liquid
Fixed: Pressure, kPa = 101.325
Property: Mass density, kg/m3 (Liquid); method: VIBTUB:UFactor:4
Temperature, K	Mass density, kg/m3	uncertainty
288.15	1038.78	0.24
293.15	1033.16	0.23
298.15	1027.51	0.22
303.15	1021.84	0.21

System: diisopropyl ether; phases: Liquid
Fixed: Pressure, kPa = 101.325
Property: Mass density, kg/m3 (Liquid); method: VIBTUB:UFactor:6
Temperature, K	Mass density, kg/m3	uncertainty
288.15	728.82	0.94
293.15	723.67	0.95
298.15	718.46	0.96
303.15	713.21	0.97

System: dibutyl ether; phases: Liquid
Fixed: Pressure, kPa = 101.325
Property: Mass density, kg/m3 (Liquid); method: VIBTUB:UFactor:6
Temperature, K	Mass density, kg/m3	uncertainty
288.15	772.33	0.85
293.15	768.07	0.86
298.15	763.76	0.87
303.15	759.43	0.88

System: tetrahydrofuran; phases: Liquid
Fixed: Pressure, kPa = 101.325
Property: Mass density, kg/m3 (Liquid); method: VIBTUB:UFactor:4
Temperature, K	Mass density, kg/m3	uncertainty
288.15	892.86	0.33
293.15	887.52	0.34
298.15	882.04	0.35
303.15	876.54	0.36

System: acetonitrile + dibutyl ether; phases: Liquid
Fixed: Pressure, kPa = 100
Property: Mass density, kg/m3 (Liquid); method: VIBTUB:UFactor:4
Temperature, K	Mole fraction of dibutyl ether	Mass density, kg/m3	uncertainty
288.15	0.02	786.5	0.46
288.15	0.0339	785.97	0.46
288.15	0.0514	785.31	0.46
288.15	0.096	783.78	0.47
288.15	0.1542	782.12	0.47
288.15	0.1891	781.24	0.48
288.15	0.2048	780.89	0.48
288.15	0.2371	780.21	0.48
288.15	0.2433	780.08	0.48
288.15	0.254	779.88	0.48
288.15	0.2763	779.47	0.48
288.15	0.3218	778.71	0.49
288.15	0.3456	778.33	0.49
288.15	0.3553	778.18	0.49
288.15	0.4008	777.55	0.5
288.15	0.4461	777.02	0.5
288.15	0.4902	776.53	0.51
288.15	0.5653	775.78	0.52
288.15	0.5808	775.64	0.52
288.15	0.6292	775.21	0.53
288.15	0.6996	774.64	0.54
288.15	0.7545	774.22	0.55
288.15	0.8041	773.84	0.56
288.15	0.8421	773.56	0.57
288.15	0.8638	773.4	0.57
288.15	0.9076	773.09	0.58
288.15	0.95	772.82	0.59
288.15	0.9777	772.59	0.59
288.15	0.9902	772.49	0.6
293.15	0.02	781.19	0.47
293.15	0.0339	780.66	0.47
293.15	0.0514	780.03	0.47
293.15	0.096	778.6	0.47
293.15	0.1542	777.03	0.48
293.15	0.1891	776.24	0.48
293.15	0.2048	775.91	0.48
293.15	0.2371	775.27	0.49
293.15	0.2433	775.16	0.49
293.15	0.254	774.97	0.49
293.15	0.2763	774.58	0.49
293.15	0.3218	773.86	0.5
293.15	0.3456	773.51	0.5
293.15	0.3553	773.39	0.5
293.15	0.4008	772.8	0.5
293.15	0.4461	772.3	0.51
293.15	0.4902	771.85	0.52
293.15	0.5653	771.18	0.53
293.15	0.5808	771.05	0.53
293.15	0.6292	770.68	0.53
293.15	0.6996	770.17	0.55
293.15	0.7545	769.79	0.56
293.15	0.8041	769.45	0.56
293.15	0.8421	769.21	0.57
293.15	0.8638	769.06	0.58
293.15	0.9076	768.76	0.58
293.15	0.95	768.49	0.59
293.15	0.9777	768.29	0.6
293.15	0.9902	768.2	0.6
298.15	0.02	775.84	0.48
298.15	0.0339	775.34	0.48
298.15	0.0514	774.76	0.48
298.15	0.096	773.41	0.48
298.15	0.1542	771.94	0.49
298.15	0.1891	771.18	0.49
298.15	0.2048	770.88	0.49
298.15	0.2371	770.29	0.5
298.15	0.2433	770.18	0.5
298.15	0.254	770	0.5
298.15	0.2763	769.65	0.5
298.15	0.3218	768.99	0.5
298.15	0.3456	768.67	0.51
298.15	0.3553	768.55	0.51
298.15	0.4008	768.01	0.51
298.15	0.4461	767.57	0.52
298.15	0.4902	767.15	0.52
298.15	0.5653	766.56	0.53
298.15	0.5808	766.44	0.53
298.15	0.6292	766.11	0.54
298.15	0.6996	765.64	0.55
298.15	0.7545	765.3	0.56
298.15	0.8041	765	0.57
298.15	0.8421	764.78	0.58
298.15	0.8638	764.65	0.58
298.15	0.9076	764.38	0.59
298.15	0.95	764.12	0.6
298.15	0.9777	763.95	0.6
298.15	0.9902	763.86	0.61
303.15	0.02	770.48	0.49
303.15	0.0339	770.01	0.49
303.15	0.0514	769.46	0.49
303.15	0.096	768.2	0.49
303.15	0.1542	766.82	0.5
303.15	0.1891	766.12	0.5
303.15	0.2048	765.83	0.5
303.15	0.2371	765.28	0.5
303.15	0.2433	765.18	0.5
303.15	0.254	765.01	0.5
303.15	0.2763	764.68	0.51
303.15	0.3218	764.07	0.51
303.15	0.3456	763.78	0.51
303.15	0.3553	763.68	0.51
303.15	0.4008	763.2	0.52
303.15	0.4461	762.79	0.52
303.15	0.4902	762.42	0.53
303.15	0.5653	761.87	0.54
303.15	0.5808	761.78	0.54
303.15	0.6292	761.48	0.55
303.15	0.6996	761.1	0.56
303.15	0.7545	760.8	0.57
303.15	0.8041	760.54	0.58
303.15	0.8421	760.34	0.58
303.15	0.8638	760.23	0.59
303.15	0.9076	759.98	0.6
303.15	0.95	759.75	0.6
303.15	0.9777	759.6	0.61
303.15	0.9902	759.52	0.61

System: acetonitrile + tetrahydrofuran; phases: Liquid
Fixed: Pressure, kPa = 100
Property: Mass density, kg/m3 (Liquid); method: VIBTUB:UFactor:3
Temperature, K	Mole fraction of tetrahydrofuran	Mass density, kg/m3	uncertainty
288.15	0.0053	788.34	0.34
288.15	0.0104	789.18	0.34
288.15	0.0197	790.72	0.34
288.15	0.0294	792.28	0.34
288.15	0.0389	793.83	0.34
288.15	0.0993	803.2	0.33
288.15	0.1598	812.11	0.32
288.15	0.1978	817.43	0.31
288.15	0.2441	823.65	0.31
288.15	0.2845	828.9	0.3
288.15	0.3445	836.2	0.29
288.15	0.4022	842.91	0.29
288.15	0.4545	848.62	0.28
288.15	0.4995	853.35	0.28
288.15	0.5298	856.4	0.28
288.15	0.5552	858.94	0.27
288.15	0.6054	863.65	0.27
288.15	0.6405	866.78	0.27
288.15	0.6603	868.52	0.27
288.15	0.6976	871.74	0.27
288.15	0.747	875.76	0.26
288.15	0.8003	879.84	0.26
288.15	0.8179	881.06	0.26
288.15	0.8537	883.67	0.26
288.15	0.8975	886.63	0.26
288.15	0.9502	890	0.26
288.15	0.9671	890.93	0.26
288.15	0.9745	891.4	0.26
288.15	0.9854	892.01	0.26
288.15	0.9877	892.14	0.26
288.15	0.994	892.51	0.26
293.15	0.0053	783	0.35
293.15	0.0104	783.84	0.35
293.15	0.0197	785.35	0.35
293.15	0.0294	786.96	0.35
293.15	0.0389	788.5	0.34
293.15	0.0993	797.8	0.33
293.15	0.1598	806.78	0.33
293.15	0.1978	812.02	0.32
293.15	0.2441	818.27	0.31
293.15	0.2845	823.5	0.31
293.15	0.3445	830.81	0.3
293.15	0.4022	837.51	0.29
293.15	0.4545	843.24	0.29
293.15	0.4995	847.94	0.29
293.15	0.5298	851.03	0.28
293.15	0.5552	853.51	0.28
293.15	0.6054	858.25	0.28
293.15	0.6405	861.42	0.28
293.15	0.6603	863.15	0.27
293.15	0.6976	866.29	0.27
293.15	0.747	870.32	0.27
293.15	0.8003	874.36	0.27
293.15	0.8179	875.68	0.27
293.15	0.8537	878.23	0.27
293.15	0.8975	881.19	0.27
293.15	0.9502	884.59	0.26
293.15	0.9671	885.55	0.26
293.15	0.9745	886.03	0.26
293.15	0.9854	886.65	0.26
293.15	0.9877	886.76	0.26
293.15	0.994	887.12	0.26
298.15	0.0053	777.57	0.36
298.15	0.0104	778.44	0.36
298.15	0.0197	779.94	0.35
298.15	0.0294	781.56	0.35
298.15	0.0389	783.1	0.35
298.15	0.0993	792.41	0.34
298.15	0.1598	801.3	0.33
298.15	0.1978	806.63	0.33
298.15	0.2441	812.84	0.32
298.15	0.2845	818.1	0.31
298.15	0.3445	825.36	0.31
298.15	0.4022	832.02	0.3
298.15	0.4545	837.79	0.3
298.15	0.4995	842.49	0.29
298.15	0.5298	845.55	0.29
298.15	0.5552	848.07	0.29
298.15	0.6054	852.78	0.28
298.15	0.6405	855.96	0.28
298.15	0.6603	857.69	0.28
298.15	0.6976	860.83	0.28
298.15	0.747	864.86	0.28
298.15	0.8003	868.9	0.27
298.15	0.8179	870.22	0.27
298.15	0.8537	872.77	0.27
298.15	0.8975	875.76	0.27
298.15	0.9502	879.13	0.27
298.15	0.9671	880.09	0.27
298.15	0.9745	880.56	0.27
298.15	0.9854	881.17	0.27
298.15	0.9877	881.29	0.27
298.15	0.994	881.66	0.27
303.15	0.0053	772.17	0.36
303.15	0.0104	773.01	0.36
303.15	0.0197	774.52	0.36
303.15	0.0294	776.11	0.36
303.15	0.0389	777.67	0.36
303.15	0.0993	786.97	0.35
303.15	0.1598	795.84	0.34
303.15	0.1978	801.18	0.33
303.15	0.2441	807.39	0.33
303.15	0.2845	812.64	0.32
303.15	0.3445	819.91	0.31
303.15	0.4022	826.57	0.31
303.15	0.4545	832.34	0.3
303.15	0.4995	837.08	0.3
303.15	0.5298	840.1	0.3
303.15	0.5552	842.6	0.29
303.15	0.6054	847.29	0.29
303.15	0.6405	850.47	0.29
303.15	0.6603	852.2	0.29
303.15	0.6976	855.34	0.28
303.15	0.747	859.36	0.28
303.15	0.8003	863.41	0.28
303.15	0.8179	864.73	0.28
303.15	0.8537	867.28	0.28
303.15	0.8975	870.25	0.28
303.15	0.9502	873.61	0.28
303.15	0.9671	874.59	0.28
303.15	0.9745	875.07	0.28
303.15	0.9854	875.7	0.28
303.15	0.9877	875.8	0.28
303.15	0.994	876.13	0.28

System: acetonitrile + 1,4-dioxane; phases: Liquid
Fixed: Pressure, kPa = 100
Property: Mass density, kg/m3 (Liquid); method: VIBTUB:UFactor:3
Temperature, K	Mole fraction of 1,4-dioxane	Mass density, kg/m3	uncertainty
288.15	0.0046	789.4	0.35
288.15	0.0101	791.73	0.35
288.15	0.0249	797.92	0.34
288.15	0.0336	801.42	0.34
288.15	0.0497	808.04	0.33
288.15	0.0627	813.27	0.32
288.15	0.1106	831.43	0.3
288.15	0.1643	850.48	0.28
288.15	0.2127	866.78	0.26
288.15	0.2853	889.43	0.24
288.15	0.3355	904	0.22
288.15	0.4341	930.27	0.2
288.15	0.4807	941.65	0.18
288.15	0.5277	952.67	0.17
288.15	0.5828	964.93	0.16
288.15	0.6385	976.54	0.15
288.15	0.6845	985.67	0.14
288.15	0.7278	993.97	0.14
288.15	0.777	1002.84	0.14
288.15	0.8181	1010.08	0.15
288.15	0.8703	1018.77	0.16
288.15	0.9145	1025.86	0.17
288.15	0.9604	1032.84	0.18
288.15	0.9652	1033.57	0.19
288.15	0.9757	1035.18	0.19
288.15	0.9817	1036.07	0.19
288.15	0.99	1037.29	0.19
288.15	0.9954	1038.08	0.19
293.15	0.0046	784.08	0.36
293.15	0.0101	786.38	0.36
293.15	0.0249	792.61	0.35
293.15	0.0336	796.07	0.34
293.15	0.0497	802.72	0.34
293.15	0.0627	807.95	0.33
293.15	0.1106	826.1	0.31
293.15	0.1643	845.16	0.29
293.15	0.2127	861.44	0.27
293.15	0.2853	884.08	0.24
293.15	0.3355	898.64	0.23
293.15	0.4341	924.89	0.2
293.15	0.4807	936.29	0.19
293.15	0.5277	947.29	0.18
293.15	0.5828	959.51	0.17
293.15	0.6385	971.14	0.16
293.15	0.6845	980.25	0.15
293.15	0.7278	988.54	0.14
293.15	0.777	997.35	0.14
293.15	0.8181	1004.61	0.14
293.15	0.8703	1013.28	0.15
293.15	0.9145	1020.33	0.17
293.15	0.9604	1027.29	0.18
293.15	0.9652	1027.98	0.18
293.15	0.9757	1029.58	0.18
293.15	0.9817	1030.46	0.18
293.15	0.99	1031.66	0.19
293.15	0.9954	1032.48	0.19
298.15	0.0046	778.69	0.36
298.15	0.0101	780.98	0.36
298.15	0.0249	787.21	0.35
298.15	0.0336	790.67	0.35
298.15	0.0497	797.32	0.34
298.15	0.0627	802.55	0.34
298.15	0.1106	820.71	0.32
298.15	0.1643	839.75	0.29
298.15	0.2127	856.05	0.28
298.15	0.2853	878.67	0.25
298.15	0.3355	893.23	0.23
298.15	0.4341	919.46	0.21
298.15	0.4807	930.86	0.2
298.15	0.5277	941.85	0.18
298.15	0.5828	954.06	0.17
298.15	0.6385	965.66	0.16
298.15	0.6845	974.76	0.16
298.15	0.7278	983.03	0.15
298.15	0.777	991.82	0.14
298.15	0.8181	999.06	0.14
298.15	0.8703	1007.7	0.15
298.15	0.9145	1014.73	0.16
298.15	0.9604	1021.66	0.17
298.15	0.9652	1022.35	0.17
298.15	0.9757	1023.93	0.17
298.15	0.9817	1024.82	0.18
298.15	0.99	1025.99	0.18
298.15	0.9954	1026.83	0.18
303.15	0.0046	773.26	0.37
303.15	0.0101	775.56	0.37
303.15	0.0249	781.78	0.36
303.15	0.0336	785.24	0.36
303.15	0.0497	791.89	0.35
303.15	0.0627	797.13	0.34
303.15	0.1106	815.28	0.32
303.15	0.1643	834.33	0.3
303.15	0.2127	850.62	0.28
303.15	0.2853	873.24	0.26
303.15	0.3355	887.8	0.24
303.15	0.4341	914.02	0.21
303.15	0.4807	925.4	0.2
303.15	0.5277	936.38	0.19
303.15	0.5828	948.58	0.18
303.15	0.6385	960.16	0.17
303.15	0.6845	969.25	0.16
303.15	0.7278	977.5	0.15
303.15	0.777	986.28	0.15
303.15	0.8181	993.5	0.14
303.15	0.8703	1002.12	0.14
303.15	0.9145	1009.11	0.15
303.15	0.9604	1016.03	0.16
303.15	0.9652	1016.71	0.16
303.15	0.9757	1018.3	0.17
303.15	0.9817	1019.17	0.17
303.15	0.99	1020.36	0.17
303.15	0.9954	1021.18	0.17

System: acetonitrile + diisopropyl ether; phases: Liquid
Fixed: Pressure, kPa = 100
Property: Mass density, kg/m3 (Liquid); method: VIBTUB:UFactor:4
Temperature, K	Mole fraction of diisopropyl ether	Mass density, kg/m3	uncertainty
288.15	0.0072	786.61	0.46
288.15	0.015	785.8	0.46
288.15	0.0247	784.84	0.46
288.15	0.0308	784.29	0.46
288.15	0.0381	783.55	0.47
288.15	0.0482	782.56	0.47
288.15	0.0991	777.78	0.48
288.15	0.1496	773.32	0.49
288.15	0.2511	765.5	0.5
288.15	0.3069	761.73	0.51
288.15	0.3507	758.83	0.52
288.15	0.4104	755.28	0.53
288.15	0.4513	752.87	0.54
288.15	0.5132	749.57	0.55
288.15	0.56	747.13	0.56
288.15	0.6429	743.32	0.58
288.15	0.6938	741.1	0.59
288.15	0.76	738.32	0.6
288.15	0.8129	736.2	0.61
288.15	0.8449	735	0.62
288.15	0.904	732.62	0.63
288.15	0.9509	730.9	0.64
288.15	0.963	730.42	0.64
288.15	0.9685	730.2	0.65
288.15	0.9815	729.68	0.65
288.15	0.9887	729.4	0.65
288.15	0.9945	729.15	0.65
293.15	0.0072	781.29	0.47
293.15	0.015	780.49	0.47
293.15	0.0247	779.54	0.47
293.15	0.0308	778.97	0.47
293.15	0.0381	778.25	0.47
293.15	0.0482	777.27	0.48
293.15	0.0991	772.47	0.48
293.15	0.1496	768.06	0.49
293.15	0.2511	760.24	0.51
293.15	0.3069	756.5	0.52
293.15	0.3507	753.58	0.53
293.15	0.4104	750.02	0.54
293.15	0.4513	747.67	0.55
293.15	0.5132	744.35	0.56
293.15	0.56	741.91	0.57
293.15	0.6429	738.15	0.58
293.15	0.6938	735.9	0.59
293.15	0.76	733.12	0.61
293.15	0.8129	731.02	0.62
293.15	0.8449	729.8	0.62
293.15	0.904	727.46	0.64
293.15	0.9509	725.75	0.65
293.15	0.963	725.28	0.65
293.15	0.9685	725.06	0.65
293.15	0.9815	724.52	0.66
293.15	0.9887	724.27	0.66
293.15	0.9945	724.02	0.66
298.15	0.0072	775.9	0.48
298.15	0.015	775.1	0.48
298.15	0.0247	774.15	0.48
298.15	0.0308	773.59	0.48
298.15	0.0381	772.87	0.48
298.15	0.0482	771.89	0.48
298.15	0.0991	767.11	0.49
298.15	0.1496	762.72	0.5
298.15	0.2511	754.91	0.52
298.15	0.3069	751.18	0.53
298.15	0.3507	748.27	0.54
298.15	0.4104	744.74	0.55
298.15	0.4513	742.35	0.56
298.15	0.5132	739.06	0.57
298.15	0.56	736.63	0.58
298.15	0.6429	732.87	0.59
298.15	0.6938	730.64	0.6
298.15	0.76	727.83	0.61
298.15	0.8129	725.76	0.63
298.15	0.8449	724.53	0.63
298.15	0.904	722.22	0.64
298.15	0.9509	720.52	0.66
298.15	0.963	720.05	0.66
298.15	0.9685	719.83	0.66
298.15	0.9815	719.32	0.66
298.15	0.9887	719.05	0.66
298.15	0.9945	718.81	0.67
303.15	0.0072	770.47	0.49
303.15	0.015	769.68	0.49
303.15	0.0247	768.74	0.49
303.15	0.0308	768.17	0.49
303.15	0.0381	767.46	0.49
303.15	0.0482	766.48	0.49
303.15	0.0991	761.72	0.5
303.15	0.1496	757.34	0.51
303.15	0.2511	749.55	0.53
303.15	0.3069	745.83	0.54
303.15	0.3507	742.93	0.55
303.15	0.4104	739.4	0.56
303.15	0.4513	737.04	0.56
303.15	0.5132	733.73	0.57
303.15	0.56	731.3	0.58
303.15	0.6429	727.55	0.6
303.15	0.6938	725.33	0.61
303.15	0.76	722.53	0.62
303.15	0.8129	720.46	0.63
303.15	0.8449	719.26	0.64
303.15	0.904	716.94	0.65
303.15	0.9509	715.25	0.66
303.15	0.963	714.78	0.66
303.15	0.9685	714.56	0.67
303.15	0.9815	714.06	0.67
303.15	0.9887	713.79	0.67
303.15	0.9945	713.55	0.67
