Measured thermophysical data. Ammonium based ionic liquids act as compatible solvents for glycine peptides
Source: J. Chem. Thermodyn., 2013, 10.1016/j.jct.2012.07.009
Compound 1: 2-aminoacetic acid, C2H5NO2, InChI=1S/C2H5NO2/c3-1-2(4)5/h1,3H2,(H,4,5), purity 99%
Compound 2: water, H2O, InChI=1S/H2O/h1H2, purity 99.9%
Compound 3: triethylammonium dihydrogen phosphate, C6H18NO4P, InChI=1S/C6H15N.H3O4P/c1-4-7(5-2)6-3;1-5(2,3)4/h4-6H2,1-3H3;(H3,1,2,3,4), purity 99%
Compound 4: diethylammonium hydrogen sulfate, C4H13NO4S, InChI=1S/C4H11N.H2O4S/c1-3-5-4-2;1-5(2,3)4/h5H,3-4H2,1-2H3;(H2,1,2,3,4), purity 99%
Compound 5: triethylammonium hydrogen sulfate, C6H17NO4S, InChI=1S/C6H15N.H2O4S/c1-4-7(5-2)6-3;1-5(2,3)4/h4-6H2,1-3H3;(H2,1,2,3,4), purity 99%
Compound 6: N-(carboxymethyl)glycine, C4H7NO4, InChI=1S/C4H7NO4/c6-3(7)1-5-2-4(8)9/h5H,1-2H2,(H,6,7)(H,8,9), purity 99%
Compound 7: 2,5-diketopiperazine, C4H6N2O2, InChI=1S/C4H6N2O2/c7-3-1-5-4(8)2-6-3/h1-2H2,(H,5,8)(H,6,7), purity 99%

System: 2-aminoacetic acid + water + triethylammonium dihydrogen phosphate; phases: Liquid mixture 1, Liquid
Fixed: Pressure, kPa = 101
Fixed: Temperature, K = 298.15
Property: Mass fraction of 2-aminoacetic acid (Liquid mixture 1); method: UV-vis spectrophotometry
Solvent: Mass fraction of triethylammonium dihydrogen phosphate	Mass fraction of 2-aminoacetic acid	uncertainty
0.123	0.129	0.004
0.1901	0.076	0.002
0.259	0.043	0.001

System: 2-aminoacetic acid + water + triethylammonium dihydrogen phosphate; phases: Liquid mixture 1, Liquid
Fixed: Temperature, K = 298.15
Fixed: Pressure, kPa = 101
Property: Mass density, kg/m3 (Liquid mixture 1); method: Vibrating tube method
Solvent: Mass fraction of triethylammonium dihydrogen phosphate	Mass density, kg/m3	uncertainty
0.123	1078.43	0.2
0.1901	1109.01	0.22
0.259	1125.01	0.22

System: 2-aminoacetic acid + water + triethylammonium dihydrogen phosphate; phases: Liquid
Fixed: Temperature, K = 298.15
Fixed: Pressure, kPa = 101
Property: Mass density, kg/m3 (Liquid); method: Vibrating tube method
Solvent: Mass fraction of triethylammonium dihydrogen phosphate	Mass ratio of solute to solvent of 2-aminoacetic acid	Mass density, kg/m3	uncertainty
0.123	0.085	1054.13	0.19
0.123	0.092	1058.33	0.19
0.123	0.0989	1062.18	0.2
0.123	0.109	1067.5	0.2
0.123	0.1133	1069.87	0.2
0.123	0.1221	1074.71	0.2
0.1901	0.0249	1103.72	0.21
0.1901	0.036	1104.84	0.22
0.1901	0.0479	1106.08	0.22
0.1901	0.058	1107.05	0.22
0.1901	0.068	1108.13	0.22
0.1901	0.0748	1108.82	0.22
0.259	0.0152	1108.29	0.22
0.259	0.0259	1114.75	0.22
0.259	0.0324	1118.6	0.22
0.259	0.0367	1121.18	0.22
0.259	0.0409	1123.72	0.22
0.259	0.0455	1125.06	0.22

System: 2-aminoacetic acid + water + diethylammonium hydrogen sulfate; phases: Liquid mixture 1, Liquid
Fixed: Pressure, kPa = 101
Fixed: Temperature, K = 298.15
Property: Mass fraction of 2-aminoacetic acid (Liquid mixture 1); method: UV-vis spectrophotometry
Solvent: Mass fraction of diethylammonium hydrogen sulfate	Mass fraction of 2-aminoacetic acid	uncertainty
0.113	0.072	0.002
0.178	0.028	0.001
0.239	0.011	0.001

System: 2-aminoacetic acid + water + diethylammonium hydrogen sulfate; phases: Liquid mixture 1, Liquid
Fixed: Temperature, K = 298.15
Fixed: Pressure, kPa = 101
Property: Mass density, kg/m3 (Liquid mixture 1); method: Vibrating tube method
Solvent: Mass fraction of diethylammonium hydrogen sulfate	Mass density, kg/m3	uncertainty
0.113	1124.82	0.22
0.178	1205.35	0.27
0.239	1268.85	0.31

System: 2-aminoacetic acid + water + diethylammonium hydrogen sulfate; phases: Liquid
Fixed: Temperature, K = 298.15
Fixed: Pressure, kPa = 101
Property: Mass density, kg/m3 (Liquid); method: Vibrating tube method
Solvent: Mass fraction of diethylammonium hydrogen sulfate	Mass ratio of solute to solvent of 2-aminoacetic acid	Mass density, kg/m3	uncertainty
0.113	0.036	1096.22	0.21
0.113	0.047	1104.96	0.22
0.113	0.058	1113.48	0.22
0.113	0.0619	1116.23	0.22
0.113	0.0712	1122.81	0.22
0.178	0.0119	1162.69	0.24
0.178	0.0152	1170.67	0.25
0.178	0.0179	1178.76	0.25
0.178	0.0249	1197.06	0.26
0.178	0.0271	1202.9	0.26
0.239	0.0059	1245.48	0.29
0.239	0.0072	1251.4	0.29
0.239	0.0085	1257.18	0.3
0.239	0.0098	1263.42	0.3
0.239	0.0107	1267.27	0.3

System: 2-aminoacetic acid + water + triethylammonium hydrogen sulfate; phases: Liquid mixture 1, Liquid
Fixed: Pressure, kPa = 101
Fixed: Temperature, K = 298.15
Property: Mass fraction of 2-aminoacetic acid (Liquid mixture 1); method: UV-vis spectrophotometry
Solvent: Mass fraction of triethylammonium hydrogen sulfate	Mass fraction of 2-aminoacetic acid	uncertainty
0.121	0.098	0.003
0.186	0.048	0.002
0.246	0.021	0.001

System: 2-aminoacetic acid + water + triethylammonium hydrogen sulfate; phases: Liquid mixture 1, Liquid
Fixed: Temperature, K = 298.15
Fixed: Pressure, kPa = 101
Property: Mass density, kg/m3 (Liquid mixture 1); method: Vibrating tube method
Solvent: Mass fraction of triethylammonium hydrogen sulfate	Mass density, kg/m3	uncertainty
0.121	1092.02	0.21
0.186	1100.02	0.21
0.246	1141.43	0.23

System: 2-aminoacetic acid + water + triethylammonium hydrogen sulfate; phases: Liquid
Fixed: Temperature, K = 298.15
Fixed: Pressure, kPa = 101
Property: Mass density, kg/m3 (Liquid); method: Vibrating tube method
Solvent: Mass fraction of triethylammonium hydrogen sulfate	Mass ratio of solute to solvent of 2-aminoacetic acid	Mass density, kg/m3	uncertainty
0.121	0.0464	1046.37	0.19
0.121	0.0554	1054.34	0.19
0.121	0.0705	1067.47	0.2
0.121	0.0805	1076.69	0.2
0.121	0.0949	1088.74	0.21
0.186	0.0191	1012.31	0.17
0.186	0.0255	1031.75	0.18
0.186	0.0318	1050.61	0.19
0.186	0.0378	1067.66	0.2
0.186	0.0453	1092.02	0.21
0.246	0.0113	1127.89	0.23
0.246	0.0135	1130.74	0.23
0.246	0.015	1132.89	0.23
0.246	0.0175	1136.27	0.23
0.246	0.0199	1139.97	0.23

System: N-(carboxymethyl)glycine + water + triethylammonium dihydrogen phosphate; phases: Liquid mixture 1, Liquid
Fixed: Pressure, kPa = 101
Fixed: Temperature, K = 298.15
Property: Mass fraction of N-(carboxymethyl)glycine (Liquid mixture 1); method: UV-vis spectrophotometry
Solvent: Mass fraction of triethylammonium dihydrogen phosphate	Mass fraction of N-(carboxymethyl)glycine	uncertainty
0.123	0.071	0.002
0.19	0.037	0.001
0.259	0.018	0.001

System: N-(carboxymethyl)glycine + water + triethylammonium dihydrogen phosphate; phases: Liquid mixture 1, Liquid
Fixed: Temperature, K = 298.15
Fixed: Pressure, kPa = 101
Property: Mass density, kg/m3 (Liquid mixture 1); method: Vibrating tube method
Solvent: Mass fraction of triethylammonium dihydrogen phosphate	Mass density, kg/m3	uncertainty
0.123	1102.02	0.21
0.19	1105.92	0.22
0.259	1110.17	0.22

System: N-(carboxymethyl)glycine + water + triethylammonium dihydrogen phosphate; phases: Liquid
Fixed: Temperature, K = 298.15
Fixed: Pressure, kPa = 101
Property: Mass density, kg/m3 (Liquid); method: Vibrating tube method
Solvent: Mass fraction of triethylammonium dihydrogen phosphate	Mass ratio of solute to solvent of N-(carboxymethyl)glycine	Mass density, kg/m3	uncertainty
0.123	0.0239	1057.02	0.19
0.123	0.036	1068.62	0.2
0.123	0.047	1079.52	0.2
0.123	0.058	1089.25	0.21
0.123	0.0619	1093.35	0.21
0.123	0.0674	1098.33	0.21
0.1901	0.019	1047.86	0.19
0.1901	0.025	1067.12	0.2
0.1901	0.0279	1076.83	0.2
0.1901	0.03	1083.51	0.21
0.1901	0.0328	1092.17	0.21
0.1901	0.0357	1101.01	0.21
0.259	0.0041	1042.66	0.19
0.259	0.0075	1059.51	0.19
0.259	0.0112	1077.97	0.2
0.259	0.0145	1094.22	0.21
0.259	0.0172	1104.99	0.22
0.259	0.0194	1110.2	0.22

System: N-(carboxymethyl)glycine + water + diethylammonium hydrogen sulfate; phases: Liquid mixture 1, Liquid
Fixed: Pressure, kPa = 101
Fixed: Temperature, K = 298.15
Property: Mass fraction of N-(carboxymethyl)glycine (Liquid mixture 1); method: UV-vis spectrophotometry
Solvent: Mass fraction of diethylammonium hydrogen sulfate	Mass fraction of N-(carboxymethyl)glycine	uncertainty
0.113	0.097	0.003
0.178	0.055	0.002
0.239	0.033	0.001

System: N-(carboxymethyl)glycine + water + diethylammonium hydrogen sulfate; phases: Liquid mixture 1, Liquid
Fixed: Temperature, K = 298.15
Fixed: Pressure, kPa = 101
Property: Mass density, kg/m3 (Liquid mixture 1); method: Vibrating tube method
Solvent: Mass fraction of diethylammonium hydrogen sulfate	Mass density, kg/m3	uncertainty
0.113	1113.13	0.22
0.178	1148.7	0.24
0.239	1159.01	0.24

System: N-(carboxymethyl)glycine + water + diethylammonium hydrogen sulfate; phases: Liquid
Fixed: Temperature, K = 298.15
Fixed: Pressure, kPa = 101
Property: Mass density, kg/m3 (Liquid); method: Vibrating tube method
Solvent: Mass fraction of diethylammonium hydrogen sulfate	Mass ratio of solute to solvent of N-(carboxymethyl)glycine	Mass density, kg/m3	uncertainty
0.113	0.0361	1043.72	0.19
0.113	0.0515	1061.6	0.2
0.113	0.0554	1066.76	0.2
0.113	0.0705	1083.49	0.21
0.113	0.0805	1094.92	0.21
0.113	0.0949	1110.58	0.22
0.178	0.0192	1110.98	0.22
0.178	0.025	1117.08	0.22
0.178	0.0339	1126.65	0.23
0.178	0.0419	1134.98	0.23
0.178	0.0519	1145.35	0.23
0.239	0.0114	977.94	0.17
0.239	0.0189	1044.05	0.19
0.239	0.024	1085.42	0.21
0.239	0.0279	1118.41	0.22
0.239	0.0315	1147.57	0.24

System: N-(carboxymethyl)glycine + water + triethylammonium hydrogen sulfate; phases: Liquid mixture 1, Liquid
Fixed: Pressure, kPa = 101
Fixed: Temperature, K = 298.15
Property: Mass fraction of N-(carboxymethyl)glycine (Liquid mixture 1); method: UV-vis spectrophotometry
Solvent: Mass fraction of triethylammonium hydrogen sulfate	Mass fraction of N-(carboxymethyl)glycine	uncertainty
0.121	0.123	0.004
0.186	0.087	0.003
0.246	0.057	0.002

System: N-(carboxymethyl)glycine + water + triethylammonium hydrogen sulfate; phases: Liquid mixture 1, Liquid
Fixed: Temperature, K = 298.15
Fixed: Pressure, kPa = 101
Property: Mass density, kg/m3 (Liquid mixture 1); method: Vibrating tube method
Solvent: Mass fraction of triethylammonium hydrogen sulfate	Mass density, kg/m3	uncertainty
0.121	1168.35	0.25
0.186	1199.19	0.26
0.246	1279.5	0.31

System: N-(carboxymethyl)glycine + water + triethylammonium hydrogen sulfate; phases: Liquid
Fixed: Temperature, K = 298.15
Fixed: Pressure, kPa = 101
Property: Mass density, kg/m3 (Liquid); method: Vibrating tube method
Solvent: Mass fraction of triethylammonium hydrogen sulfate	Mass ratio of solute to solvent of N-(carboxymethyl)glycine	Mass density, kg/m3	uncertainty
0.121	0.0847	1122.44	0.22
0.121	0.0927	1131.84	0.23
0.121	0.1035	1144.46	0.23
0.121	0.1151	1159.29	0.24
0.121	0.1209	1166.13	0.24
0.186	0.0377	1055.96	0.19
0.186	0.0529	1097.29	0.21
0.186	0.0656	1135.94	0.23
0.186	0.0751	1164.3	0.24
0.186	0.084	1190.38	0.26
0.246	0.0192	1119.13	0.22
0.246	0.0282	1156.58	0.24
0.246	0.0363	1191.68	0.26
0.246	0.0465	1234.23	0.28
0.246	0.0537	1265.3	0.3

System: 2,5-diketopiperazine + water + triethylammonium dihydrogen phosphate; phases: Liquid mixture 1, Liquid
Fixed: Pressure, kPa = 101
Fixed: Temperature, K = 298.15
Property: Mass fraction of 2,5-diketopiperazine (Liquid mixture 1); method: UV-vis spectrophotometry
Solvent: Mass fraction of triethylammonium dihydrogen phosphate	Mass fraction of 2,5-diketopiperazine	uncertainty
0.123	0.0131	0.0004
0.19	0.0104	0.00031
0.259	0.00822	0.00025

System: 2,5-diketopiperazine + water + triethylammonium dihydrogen phosphate; phases: Liquid mixture 1, Liquid
Fixed: Temperature, K = 298.15
Fixed: Pressure, kPa = 101
Property: Mass density, kg/m3 (Liquid mixture 1); method: Vibrating tube method
Solvent: Mass fraction of triethylammonium dihydrogen phosphate	Mass density, kg/m3	uncertainty
0.123	1004.23	0.17
0.1901	1101.03	0.21
0.259	1110.46	0.22

System: 2,5-diketopiperazine + water + triethylammonium dihydrogen phosphate; phases: Liquid
Fixed: Temperature, K = 298.15
Fixed: Pressure, kPa = 101
Property: Mass density, kg/m3 (Liquid); method: Vibrating tube method
Solvent: Mass fraction of triethylammonium dihydrogen phosphate	Mass ratio of solute to solvent of 2,5-diketopiperazine	Mass density, kg/m3	uncertainty
0.123	0.0077	1000.47	0.17
0.123	0.0098	1001.94	0.17
0.123	0.0109	1002.7	0.17
0.123	0.0121	1003.47	0.17
0.123	0.0127	1003.94	0.17
0.1901	0.0078	1064.31	0.2
0.1901	0.0085	1075.52	0.2
0.1901	0.0093	1086.4	0.21
0.1901	0.0097	1091.6	0.21
0.1901	0.0102	1097.95	0.21
0.259	0.0066	1083.16	0.21
0.259	0.0067	1086.43	0.21
0.259	0.0074	1098.44	0.21
0.259	0.0079	1105.07	0.22
0.259	0.008	1108.22	0.22

System: 2,5-diketopiperazine + water + diethylammonium hydrogen sulfate; phases: Liquid mixture 1, Liquid
Fixed: Pressure, kPa = 101
Fixed: Temperature, K = 298.15
Property: Mass fraction of 2,5-diketopiperazine (Liquid mixture 1); method: UV-vis spectrophotometry
Solvent: Mass fraction of diethylammonium hydrogen sulfate	Mass fraction of 2,5-diketopiperazine	uncertainty
0.113	0.0109	0.0003
0.178	0.00739	0.00022
0.239	0.00521	0.00016

System: 2,5-diketopiperazine + water + diethylammonium hydrogen sulfate; phases: Liquid mixture 1, Liquid
Fixed: Temperature, K = 298.15
Fixed: Pressure, kPa = 101
Property: Mass density, kg/m3 (Liquid mixture 1); method: Vibrating tube method
Solvent: Mass fraction of diethylammonium hydrogen sulfate	Mass density, kg/m3	uncertainty
0.113	1001.87	0.17
0.178	1065.66	0.2
0.239	1115.23	0.22

System: 2,5-diketopiperazine + water + diethylammonium hydrogen sulfate; phases: Liquid
Fixed: Temperature, K = 298.15
Fixed: Pressure, kPa = 101
Property: Mass density, kg/m3 (Liquid); method: Vibrating tube method
Solvent: Mass fraction of diethylammonium hydrogen sulfate	Mass ratio of solute to solvent of 2,5-diketopiperazine	Mass density, kg/m3	uncertainty
0.113	0.0056	752.56	0.2
0.113	0.0077	847.7	0.19
0.113	0.0086	897.7	0.18
0.113	0.0099	957.67	0.17
0.113	0.0104	979.8	0.17
0.113	0.0113	1001.91	0.17
0.178	0.0026	1057.86	0.19
0.178	0.0038	1059.73	0.19
0.178	0.0051	1061.88	0.2
0.178	0.0058	1063.18	0.2
0.178	0.0071	1065.14	0.2
0.239	0.0025	1075.92	0.2
0.239	0.0033	1088.73	0.21
0.239	0.004	1098.89	0.21
0.239	0.0045	1104.27	0.21
0.239	0.005	1112.47	0.22

System: 2,5-diketopiperazine + water + triethylammonium hydrogen sulfate; phases: Liquid mixture 1, Liquid
Fixed: Pressure, kPa = 101
Fixed: Temperature, K = 298.15
Property: Mass fraction of 2,5-diketopiperazine (Liquid mixture 1); method: UV-vis spectrophotometry
Solvent: Mass fraction of triethylammonium hydrogen sulfate	Mass fraction of 2,5-diketopiperazine	uncertainty
0.121	0.0098	0.00029
0.186	0.00659	0.0002
0.246	0.00402	0.00012

System: 2,5-diketopiperazine + water + triethylammonium hydrogen sulfate; phases: Liquid mixture 1, Liquid
Fixed: Temperature, K = 298.15
Fixed: Pressure, kPa = 101
Property: Mass density, kg/m3 (Liquid mixture 1); method: Vibrating tube method
Solvent: Mass fraction of triethylammonium hydrogen sulfate	Mass density, kg/m3	uncertainty
0.121	1000.69	0.17
0.186	1021.39	0.18
0.246	1123.44	0.22

System: 2,5-diketopiperazine + water + triethylammonium hydrogen sulfate; phases: Liquid
Fixed: Temperature, K = 298.15
Fixed: Pressure, kPa = 101
Property: Mass density, kg/m3 (Liquid); method: Vibrating tube method
Solvent: Mass fraction of triethylammonium hydrogen sulfate	Mass ratio of solute to solvent of 2,5-diketopiperazine	Mass density, kg/m3	uncertainty
0.121	0.007	997.92	0.17
0.121	0.0076	998.56	0.17
0.121	0.0083	999.21	0.17
0.121	0.009	999.92	0.17
0.121	0.0095	1000.43	0.17
0.121	0.01	1000.7	0.17
0.186	0.0034	1012.77	0.17
0.186	0.0043	1015.44	0.18
0.186	0.0051	1017.39	0.18
0.186	0.0057	1019.14	0.18
0.186	0.0063	1020.75	0.18
0.186	0.0067	1021.43	0.18
0.246	0.0013	1095.67	0.21
0.246	0.0022	1105.97	0.22
0.246	0.0031	1113.89	0.22
0.246	0.0035	1119	0.22
0.246	0.0038	1121.9	0.22
0.246	0.0041	1123.46	0.22

System: 2-aminoacetic acid + water; phases: Liquid mixture 1, Liquid
Property: Mass fraction of 2-aminoacetic acid (Liquid mixture 1); method: UV-vis spectrophotometry
Pressure, kPa	Temperature, K	Mass fraction of 2-aminoacetic acid	uncertainty
101	298.15	0.2509	0.0075

System: 2-aminoacetic acid + water; phases: Liquid mixture 1, Liquid
Property: Mass density, kg/m3 (Liquid mixture 1); method: Vibrating tube method
Temperature, K	Pressure, kPa	Mass density, kg/m3	uncertainty
298.15	101	1082.99	0.18

System: 2-aminoacetic acid + water; phases: Liquid
Fixed: Temperature, K = 298.15
Fixed: Pressure, kPa = 101
Property: Mass density, kg/m3 (Liquid); method: Vibrating tube method
Mass ratio of solute to solvent of 2-aminoacetic acid	Mass density, kg/m3	uncertainty
0.1072	1039.03	0.16
0.1494	1051.67	0.16
0.1778	1060.02	0.17
0.2042	1068.38	0.17
0.2232	1074.06	0.17
0.2433	1080.28	0.17

System: N-(carboxymethyl)glycine + water; phases: Liquid mixture 1, Liquid
Property: Mass fraction of N-(carboxymethyl)glycine (Liquid mixture 1); method: UV-vis spectrophotometry
Pressure, kPa	Temperature, K	Mass fraction of N-(carboxymethyl)glycine	uncertainty
101	298.15	0.2275	0.0068

System: N-(carboxymethyl)glycine + water; phases: Liquid mixture 1, Liquid
Property: Mass density, kg/m3 (Liquid mixture 1); method: Vibrating tube method
Temperature, K	Pressure, kPa	Mass density, kg/m3	uncertainty
298.15	101	1077.31	0.17

System: N-(carboxymethyl)glycine + water; phases: Liquid
Fixed: Temperature, K = 298.15
Fixed: Pressure, kPa = 101
Property: Mass density, kg/m3 (Liquid); method: Vibrating tube method
Mass ratio of solute to solvent of N-(carboxymethyl)glycine	Mass density, kg/m3	uncertainty
0.1079	1027.42	0.16
0.1403	1040.98	0.16
0.1768	1056.44	0.17
0.1982	1065.68	0.17
0.2153	1072.61	0.17
0.2301	1077.43	0.17

System: 2,5-diketopiperazine + water; phases: Liquid mixture 1, Liquid
Property: Mass fraction of 2,5-diketopiperazine (Liquid mixture 1); method: UV-vis spectrophotometry
Pressure, kPa	Temperature, K	Mass fraction of 2,5-diketopiperazine	uncertainty
101	298.15	0.0168	0.0005

System: 2,5-diketopiperazine + water; phases: Liquid mixture 1, Liquid
Property: Mass density, kg/m3 (Liquid mixture 1); method: Vibrating tube method
Temperature, K	Pressure, kPa	Mass density, kg/m3	uncertainty
298.15	101	1002.5	0.15

System: 2,5-diketopiperazine + water; phases: Liquid
Fixed: Temperature, K = 298.15
Fixed: Pressure, kPa = 101
Property: Mass density, kg/m3 (Liquid); method: Vibrating tube method
Mass ratio of solute to solvent of 2,5-diketopiperazine	Mass density, kg/m3	uncertainty
0.0025	998.08	0.15
0.0053	998.93	0.15
0.0101	1000.45	0.15
0.0134	1001.53	0.15
0.016	1002.32	0.15
