Measured thermophysical data. Ternary (liquid + liquid) equilibria for (water + 1-propanol + dimethyl carbonate, or diethyl carbonate) systems at several temperatures
Source: J. Chem. Thermodyn., 2013, 10.1016/j.jct.2013.04.002
Compound 1: propan-1-ol, C3H8O, InChI=1S/C3H8O/c1-2-3-4/h4H,2-3H2,1H3, purity 98.5%
Compound 2: dimethyl carbonate, C3H6O3, InChI=1S/C3H6O3/c1-5-3(4)6-2/h1-2H3, purity 99%
Compound 3: water, H2O, InChI=1S/H2O/h1H2, purity 99.8%
Compound 4: diethyl carbonate, C5H10O3, InChI=1S/C5H10O3/c1-3-7-5(6)8-4-2/h3-4H2,1-2H3, purity 99%

System: propan-1-ol + dimethyl carbonate + water; phases: Liquid mixture 1, Liquid mixture 2
Fixed: Pressure, kPa = 101
Property: Mole fraction of propan-1-ol (Liquid mixture 1); method: Chromatography
Property: Mole fraction of propan-1-ol (Liquid mixture 2); method: Chromatography
Property: Mole fraction of water (Liquid mixture 2); method: Chromatography
Temperature, K	Mole fraction of water	Mole fraction of propan-1-ol	uncertainty	Mole fraction of propan-1-ol	uncertainty	Mole fraction of water	uncertainty
293.15	0.1497	0		0		0.9675	
313.15	0.1874	0		0		0.968	
293.15	0.3043	0.0841	0.0063	0.0229	0.0071	0.9378	
308.15	0.2499	0.0428	0.0065	0.0109	0.0074	0.9512	
293.15	0.3441	0.1003	0.0063	0.0261	0.007	0.9323	
293.15	0.3879	0.1109	0.0061	0.0295	0.0069	0.9267	
293.15	0.441	0.1172	0.0061	0.0332	0.0068	0.9197	
303.15	0.4107	0.102	0.0062	0.0251	0.0069	0.9295	
303.15	0.2474	0.0441	0.0064	0.0117	0.0074	0.9513	
303.15	0.3097	0.0651	0.0065	0.0173	0.0073	0.943	
303.15	0.4712	0.112	0.0061	0.0306	0.0067	0.9203	
313.15	0.4571	0.092	0.0061	0.0246	0.0065	0.9258	
303.15	0.5708	0.1121	0.0061	0.0386	0.0066	0.9026	
303.15	0.1702	0		0		0.9672	
303.15	0.2171	0.0304	0.0067	0.0085	0.0074	0.9543	
308.15	0.2711	0.0528	0.0064	0.0129	0.0073	0.9454	
308.15	0.4707	0.0927	0.0062	0.0274	0.0067	0.9231	
308.15	0.1924	0.0189	0.0102	0.0051	0.0051	0.9586	
293.15	0.1961	0.0385	0.0075	0.0118	0.0077	0.955	
308.15	0.1787	0		0		0.9675	
308.15	0.3138	0.0653	0.0063	0.0159	0.0072	0.944	
308.15	0.3548	0.0771	0.0062	0.0188	0.0071	0.9393	
313.15	0.2092	0.0191	0.0067	0.0047	0.0047	0.9601	
308.15	0.4058	0.0854	0.0061	0.022	0.0068	0.9342	
313.15	0.4182	0.0851	0.0061	0.0216	0.0067	0.9329	
303.15	0.372	0.0951	0.0064	0.026	0.007	0.9302	
313.15	0.266	0.0397	0.0064	0.0095	0.0072	0.954	
313.15	0.2971	0.0532	0.0064	0.0124	0.0071	0.9484	
313.15	0.3363	0.066	0.0064	0.0154	0.0069	0.9439	
293.15	0.241	0.0671	0.0065	0.018	0.0071	0.9449	
313.15	0.3642	0.0764	0.0062	0.0179	0.007	0.9391	

System: propan-1-ol + diethyl carbonate + water; phases: Liquid mixture 2, Liquid mixture 1
Fixed: Pressure, kPa = 101
Property: Mole fraction of propan-1-ol (Liquid mixture 2); method: Chromatography
Property: Mole fraction of propan-1-ol (Liquid mixture 1); method: Chromatography
Property: Mole fraction of water (Liquid mixture 1); method: Chromatography
Temperature, K	Mole fraction of water	Mole fraction of propan-1-ol	uncertainty	Mole fraction of propan-1-ol	uncertainty	Mole fraction of water	uncertainty
293.15	0.9974	0		0		0.0539	
308.15	0.9622	0.0336	0.0081	0.2651	0.0071	0.349	
308.15	0.9888	0.0081	0.0081	0.0453	0.0134	0.1109	
298.15	0.9779	0.0192	0.0083	0.1102	0.009	0.1222	
308.15	0.9812	0.0156	0.0084	0.0956	0.0106	0.1334	
308.15	0.9754	0.0212	0.0084	0.1464	0.0078	0.1746	
308.15	0.971	0.0254	0.0083	0.184	0.0075	0.2364	
293.15	0.9786	0.0179	0.0083	0.0783	0.0105	0.1028	
308.15	0.9681	0.0281	0.0081	0.2206	0.0078	0.2742	
308.15	0.9974	0		0		0.0857	
313.15	0.9661	0.0291	0.0081	0.2428	0.007	0.3159	
303.15	0.9762	0.0207	0.0083	0.1363	0.0087	0.1657	
313.15	0.9628	0.0318	0.0079	0.263	0.007	0.3559	
313.15	0.9972	0		0		0.0928	
313.15	0.9893	0.0074	0.0074	0.0483	0.0157	0.1169	
298.15	0.9699	0.0265	0.0082	0.1787	0.0079	0.2004	
313.15	0.9834	0.0131	0.0083	0.0968	0.0107	0.1322	
313.15	0.9771	0.0191	0.0082	0.1485	0.0081	0.1796	
313.15	0.973	0.0228	0.0082	0.1882	0.0076	0.2338	
313.15	0.9693	0.0262	0.008	0.2226	0.0074	0.2805	
293.15	0.9717	0.0247	0.0085	0.1257	0.0091	0.1409	
293.15	0.9664	0.0302	0.0084	0.1747	0.0083	0.1882	
303.15	0.9895	0.008	0.008	0.0413	0.0128	0.1019	
293.15	0.9618	0.0348	0.0084	0.2085	0.0074	0.2298	
293.15	0.9577	0.0385	0.0083	0.2381	0.0071	0.2802	
293.15	0.9543	0.0417	0.0082	0.2583	0.007	0.3194	
298.15	0.9892	0.0082	0.0082	0.0385	0.0126	0.0785	
298.15	0.9637	0.0325	0.0086	0.2301	0.0075	0.2659	
298.15	0.9606	0.036	0.0085	0.2656	0.0069	0.3231	
298.15	0.9573	0.0395	0.0088	0.2852	0.0066	0.3842	
298.15	0.9975	0		0		0.0601	
303.15	0.9603	0.0358	0.0084	0.2631	0.007	0.3418	
303.15	0.9821	0.0151	0.0083	0.0869	0.0104	0.1238	
293.15	0.9876	0.0094	0.0083	0.0321	0.0114	0.076	
303.15	0.9708	0.0257	0.0083	0.1818	0.0081	0.215	
303.15	0.967	0.0293	0.0083	0.2168	0.0075	0.2583	
303.15	0.9975	0		0		0.0778	
303.15	0.9634	0.0328	0.0082	0.2416	0.0071	0.299	
308.15	0.9651	0.0309	0.0082	0.2429	0.0072	0.31	

System: dimethyl carbonate + water; phases: Liquid mixture 2, Liquid mixture 1
Fixed: Pressure, kPa = 101
Property: Mole fraction of water (Liquid mixture 2); method: Chromatography
Temperature, K	Mole fraction of water	uncertainty
293.15	0.9675	0.006
313.15	0.968	0.006
303.15	0.9672	0.006
308.15	0.9675	0.006

System: dimethyl carbonate + water; phases: Liquid mixture 1, Liquid mixture 2
Fixed: Pressure, kPa = 101
Property: Mole fraction of water (Liquid mixture 1); method: Chromatography
Temperature, K	Mole fraction of water	uncertainty
293.15	0.1497	0.0061
313.15	0.1874	0.0061
303.15	0.1702	0.0061
308.15	0.1787	0.0061

System: diethyl carbonate + water; phases: Liquid mixture 1, Liquid mixture 2
Fixed: Pressure, kPa = 101
Property: Mole fraction of water (Liquid mixture 1); method: Chromatography
Temperature, K	Mole fraction of water	uncertainty
293.15	0.0539	0.006
308.15	0.0857	0.006
313.15	0.0928	0.006
298.15	0.0601	0.006
303.15	0.0778	0.006

System: diethyl carbonate + water; phases: Liquid mixture 2, Liquid mixture 1
Fixed: Pressure, kPa = 101
Property: Mole fraction of water (Liquid mixture 2); method: Chromatography
Temperature, K	Mole fraction of water	uncertainty
293.15	0.9974	0.0026
308.15	0.9974	0.0026
313.15	0.9972	0.0028
298.15	0.9975	0.0025
303.15	0.9975	0.0025
