Measured thermophysical data. Gibbs free energy of formation of rhodium sulfides
Source: J. Chem. Thermodyn., 2014, 10.1016/j.jct.2013.10.011
Compound 1: sulfur (S2), S2, InChI=1S/S2/c1-2
Compound 2: rhodium, Rh, InChI=1S/Rh, purity 99.95%
Compound 3: sulfur, S, InChI=1S/S
Compound 4: rhodium sulfide (Rh2S3), Rh2S3, InChI=1S/2Rh.3S/q2*+3;3*-2

Reaction: -2 rhodium + 1 rhodium sulfide (Rh2S3) + -1.5 sulfur (S2)
Property: Molar Gibbs energy of reaction, kJ/mol
-191.4
-188.53
-183.59
-168.66
-167.63
-156.95
-145.47
-134.44
-128.93
-124.79
-121.35
-114.69
-111.01

Reaction: -2 rhodium + -3 sulfur + 1 rhodium sulfide (Rh2S3)
Property: Molar enthalpy of reaction, kJ/mol
-226.2
