Measured thermophysical data. Solubility and critical surface in the system propionic acid-ethanol-ethyl propionate-water at 293.15, 303.15 and 313.15 K
Source: J. Chem. Thermodyn., 2019, 10.1016/j.jct.2018.12.026
Compound 1: propanoic acid, C3H6O2, InChI=1S/C3H6O2/c1-2-3(4)5/h2H2,1H3,(H,4,5), purity 98%
Compound 2: ethanol, C2H6O, InChI=1S/C2H6O/c1-2-3/h3H,2H2,1H3, purity 96%
Compound 3: ethyl propanoate, C5H10O2, InChI=1S/C5H10O2/c1-3-5(6)7-4-2/h3-4H2,1-2H3, purity 98%
Compound 4: water, H2O, InChI=1S/H2O/h1H2

System: propanoic acid; phases: Liquid, Gas
Property: Normal boiling temperature, K (Liquid); method: Ebulliometric method (Recirculating still)
Normal boiling temperature, K	uncertainty
414.35	0.2

System: propanoic acid; phases: Liquid
Property: Refractive index (Na D-line) (Liquid); method: Standard Abbe refractometry
Temperature, K	Pressure, kPa	Refractive index (Na D-line)	uncertainty
293.15	101.325	1.3872	0.0008

System: ethanol; phases: Liquid, Gas
Property: Normal boiling temperature, K (Liquid); method: Ebulliometric method (Recirculating still)
Normal boiling temperature, K	uncertainty
351.55	0.2

System: ethanol; phases: Liquid
Property: Refractive index (Na D-line) (Liquid); method: Standard Abbe refractometry
Temperature, K	Pressure, kPa	Refractive index (Na D-line)	uncertainty
293.15	101.325	1.3608	0.0009

System: ethyl propanoate; phases: Liquid, Gas
Property: Normal boiling temperature, K (Liquid); method: Ebulliometric method (Recirculating still)
Normal boiling temperature, K	uncertainty
372.25	0.2

System: ethyl propanoate; phases: Liquid
Property: Refractive index (Na D-line) (Liquid); method: Standard Abbe refractometry
Temperature, K	Pressure, kPa	Refractive index (Na D-line)	uncertainty
293.15	101.325	1.3839	0.0005

System: water; phases: Liquid, Gas
Property: Normal boiling temperature, K (Liquid); method: Ebulliometric method (Recirculating still)
Normal boiling temperature, K	uncertainty
373.15	0.2

System: water; phases: Liquid
Property: Refractive index (Na D-line) (Liquid); method: Standard Abbe refractometry
Temperature, K	Pressure, kPa	Refractive index (Na D-line)	uncertainty
293.15	101.325	1.333	0.0005

System: ethyl propanoate + water; phases: Liquid mixture 1, Liquid mixture 2
Fixed: Pressure, kPa = 101.3
Property: Mole fraction of ethyl propanoate (Liquid mixture 1); method: Titration method
Temperature, K	Mole fraction of ethyl propanoate	uncertainty
293.15	0.005	0.005
293.15	0.939	0.01
303.15	0.004	0.004
303.15	0.92	0.01
313.15	0.004	0.004
313.15	0.901	0.01

System: propanoic acid + ethyl propanoate + water; phases: Liquid mixture 1, Liquid mixture 2
Fixed: Pressure, kPa = 101.3
Property: Mole fraction of ethyl propanoate (Liquid mixture 1); method: Titration method
Temperature, K	Mole fraction of propanoic acid	Mole fraction of ethyl propanoate	uncertainty
293.15	0.08	0.83	0.011
293.15	0.109	0.775	0.012
293.15	0.168	0.655	0.014
293.15	0.198	0.602	0.015
293.15	0.223	0.544	0.016
293.15	0.265	0.461	0.016
293.15	0.283	0.368	0.014
293.15	0.293	0.272	0.013
293.15	0.294	0.232	0.012
293.15	0.293	0.198	0.011
293.15	0.273	0.165	0.011
293.15	0.215	0.096	0.01
293.15	0.2	0.083	0.01
293.15	0.181	0.069	0.01
293.15	0.164	0.057	0.01
293.15	0.15	0.048	0.01
293.15	0.137	0.04	0.01
293.15	0.122	0.031	0.01
303.15	0.14	0.711	0.013
303.15	0.165	0.648	0.014
303.15	0.205	0.569	0.016
303.15	0.235	0.489	0.017
303.15	0.263	0.417	0.015
303.15	0.291	0.347	0.014
303.15	0.289	0.251	0.012
303.15	0.275	0.21	0.012
303.15	0.268	0.184	0.011
303.15	0.265	0.175	0.011
303.15	0.247	0.142	0.011
303.15	0.231	0.12	0.011
303.15	0.208	0.096	0.01
303.15	0.202	0.091	0.01
303.15	0.166	0.062	0.01
303.15	0.138	0.043	0.01
303.15	0.13	0.037	0.01
303.15	0.104	0.023	0.01
313.15	0.042	0.842	0.011
313.15	0.069	0.786	0.012
313.15	0.099	0.716	0.013
313.15	0.134	0.659	0.014
313.15	0.169	0.587	0.015
313.15	0.193	0.53	0.017
313.15	0.226	0.452	0.016
313.15	0.249	0.39	0.015
313.15	0.264	0.329	0.014
313.15	0.267	0.248	0.012
313.15	0.254	0.179	0.011
313.15	0.196	0.094	0.01
313.15	0.174	0.076	0.01
313.15	0.151	0.057	0.01
313.15	0.137	0.047	0.01
313.15	0.117	0.033	0.01
313.15	0.099	0.023	0.01

System: propanoic acid + ethyl propanoate + water; phases: Liquid mixture 2, Liquid mixture 1
Fixed: Pressure, kPa = 101.3
Property: Mole fraction of ethyl propanoate (Liquid mixture 2); method: Titration method
Property: Mole fraction of ethyl propanoate (Liquid mixture 1); method: Titration method
Property: Mole fraction of propanoic acid (Liquid mixture 1); method: Titration method
Temperature, K	Mole fraction of propanoic acid	Mole fraction of ethyl propanoate	uncertainty	Mole fraction of ethyl propanoate	uncertainty	Mole fraction of propanoic acid	uncertainty
293.15	0.164	0.057	0.01	0.057	0.01	0.164	
303.15	0.159	0.059	0.01	0.059	0.01	0.159	
313.15	0.152	0.062	0.01	0.062	0.01	0.152	

System: ethanol + ethyl propanoate + water; phases: Liquid mixture 1, Liquid mixture 2
Fixed: Pressure, kPa = 101.3
Property: Mole fraction of ethyl propanoate (Liquid mixture 1); method: Titration method
Temperature, K	Mole fraction of ethanol	Mole fraction of ethyl propanoate	uncertainty
293.15	0.123	0.806	0.011
293.15	0.159	0.736	0.012
293.15	0.196	0.656	0.014
293.15	0.232	0.588	0.015
293.15	0.25	0.537	0.016
293.15	0.27	0.476	0.017
293.15	0.291	0.427	0.016
293.15	0.304	0.376	0.015
293.15	0.31	0.289	0.013
293.15	0.305	0.262	0.012
293.15	0.298	0.219	0.012
293.15	0.282	0.171	0.011
293.15	0.248	0.108	0.01
293.15	0.23	0.08	0.01
293.15	0.215	0.059	0.01
293.15	0.204	0.046	0.01
303.15	0.161	0.706	0.013
303.15	0.189	0.651	0.014
303.15	0.228	0.579	0.016
303.15	0.256	0.511	0.017
303.15	0.282	0.447	0.016
303.15	0.291	0.403	0.015
303.15	0.3	0.344	0.014
303.15	0.301	0.308	0.013
303.15	0.298	0.247	0.012
303.15	0.288	0.2	0.012
303.15	0.267	0.149	0.011
303.15	0.259	0.134	0.011
303.15	0.241	0.106	0.01
303.15	0.223	0.081	0.01
303.15	0.204	0.057	0.01
303.15	0.198	0.051	0.01
303.15	0.166	0.027	0.01
303.15	0.148	0.019	0.01
313.15	0.116	0.777	0.012
313.15	0.142	0.718	0.013
313.15	0.194	0.623	0.015
313.15	0.229	0.555	0.016
313.15	0.263	0.476	0.017
313.15	0.277	0.419	0.016
313.15	0.289	0.365	0.014
313.15	0.294	0.331	0.014
313.15	0.295	0.275	0.013
313.15	0.288	0.225	0.012
313.15	0.283	0.203	0.012
313.15	0.275	0.178	0.011
313.15	0.259	0.145	0.011
313.15	0.252	0.132	0.011
313.15	0.234	0.106	0.01
313.15	0.219	0.084	0.01
313.15	0.203	0.065	0.01
313.15	0.194	0.054	0.01
313.15	0.185	0.046	0.01
313.15	0.175	0.038	0.01
313.15	0.169	0.034	0.01
313.15	0.158	0.027	0.01

System: ethanol + ethyl propanoate + water; phases: Liquid mixture 2, Liquid mixture 1
Fixed: Pressure, kPa = 101.3
Property: Mole fraction of ethyl propanoate (Liquid mixture 2); method: Titration method
Property: Mole fraction of ethyl propanoate (Liquid mixture 1); method: Titration method
Property: Mole fraction of ethanol (Liquid mixture 1); method: Titration method
Temperature, K	Mole fraction of ethanol	Mole fraction of ethyl propanoate	uncertainty	Mole fraction of ethyl propanoate	uncertainty	Mole fraction of ethanol	uncertainty
293.15	0.195	0.039	0.01	0.039	0.01	0.195	
303.15	0.189	0.045	0.01	0.045	0.01	0.189	
313.15	0.186	0.048	0.01	0.048	0.01	0.186	
