Measured thermophysical data. Determination of the vaporisation enthalpies and estimation of the polarity for 1-alkyl-3-methylimidazolium propionate {[Cnmim][Pro](n = 2, 3)} ionic liquids
Source: J. Chem. Thermodyn., 2014, 10.1016/j.jct.2013.11.004
Compound 1: 1-ethyl-3-methylimidazolium propionate, C9H16N2O2, InChI=1S/C6H11N2.C3H6O2/c1-3-8-5-4-7(2)6-8;1-2-3(4)5/h4-6H,3H2,1-2H3;2H2,1H3,(H,4,5)/q+1;/p-1
Compound 2: 1-propyl-3-methylimidazolium propionate, C10H18N2O2, InChI=1S/C7H13N2.C3H6O2/c1-3-4-9-6-5-8(2)7-9;1-2-3(4)5/h5-7H,3-4H2,1-2H3;2H2,1H3,(H,4,5)/q+1;/p-1

System: 1-ethyl-3-methylimidazolium propionate; phases: Glass, Liquid, Air at 1 atmosphere
Property: Triple point temperature, K (Glass); method: DTA
Triple point temperature, K	uncertainty
189.98	4.02

System: 1-ethyl-3-methylimidazolium propionate; phases: Liquid, Gas
Property: Molar enthalpy of vaporization or sublimation, kJ/mol (Liquid); method: Derived by Second law
Temperature, K	Molar enthalpy of vaporization or sublimation, kJ/mol	uncertainty
438.15	111.1	5.1

System: 1-propyl-3-methylimidazolium propionate; phases: Glass, Liquid, Air at 1 atmosphere
Property: Triple point temperature, K (Glass); method: DTA
Triple point temperature, K	uncertainty
190.23	4.02

System: 1-propyl-3-methylimidazolium propionate; phases: Liquid, Gas
Property: Molar enthalpy of vaporization or sublimation, kJ/mol (Liquid); method: Derived by Second law
Temperature, K	Molar enthalpy of vaporization or sublimation, kJ/mol	uncertainty
443.15	115.8	5.1
