Measured thermophysical data. Solubilities of sulfuryl fluoride in propylene carbonate, tributyl phosphate and N-methylpyrrolidone
Source: J. Chem. Thermodyn., 2018, 10.1016/j.jct.2018.05.007
Compound 1: sulfuryl difluoride, F2O2S, InChI=1S/F2O2S/c1-5(2,3)4, purity 99.9%
Compound 2: 4-methyl-1,3-dioxolan-2-one, C4H6O3, InChI=1S/C4H6O3/c1-3-2-6-4(5)7-3/h3H,2H2,1H3, purity 99%
Compound 3: tributyl phosphate, C12H27O4P, InChI=1S/C12H27O4P/c1-4-7-10-14-17(13,15-11-8-5-2)16-12-9-6-3/h4-12H2,1-3H3, purity 99%
Compound 4: N-methylpyrrolidone, C5H9NO, InChI=1S/C5H9NO/c1-6-4-2-3-5(6)7/h2-4H2,1H3, purity 99.5%
Compound 5: carbon dioxide, CO2, InChI=1S/CO2/c2-1-3, purity 99.9%

System: sulfuryl difluoride + 4-methyl-1,3-dioxolan-2-one; phases: Liquid, Gas
Property: Mole fraction of sulfuryl difluoride (Liquid); method: volumetric method
Pressure, kPa of sulfuryl difluoride	Temperature, K	Mole fraction of sulfuryl difluoride	uncertainty
44	293.15	0.00475	0.00021
111	293.15	0.01204	0.00022
204.5	293.15	0.02231	0.00025
317	293.15	0.03501	0.0003
412.2	293.15	0.04589	0.00035
501.9	293.15	0.05624	0.0004
51	298.15	0.00504	0.0002
112.9	298.15	0.01125	0.00021
208.6	298.15	0.0208	0.00023
305.6	298.15	0.03058	0.00027
407.3	298.15	0.04108	0.00032
507.6	298.15	0.05148	0.00037
51.4	303.15	0.00472	0.0002
111.4	303.15	0.01025	0.0002
208.7	303.15	0.01927	0.00023
310.9	303.15	0.02861	0.00026
404.1	303.15	0.03729	0.0003
509.8	303.15	0.04713	0.00034
53.2	308.15	0.00444	0.00019
110.1	308.15	0.00927	0.0002
211.6	308.15	0.01782	0.00022
306.1	308.15	0.02571	0.00024
409.7	308.15	0.0345	0.00028
506.2	308.15	0.04261	0.00032
55.8	313.15	0.00433	0.00019
115.8	313.15	0.00894	0.00019
213.7	313.15	0.0165	0.00021
313.5	313.15	0.02412	0.00023
413	313.15	0.03182	0.00026
511.3	313.15	0.03938	0.0003

System: sulfuryl difluoride + tributyl phosphate; phases: Liquid, Gas
Property: Mole fraction of sulfuryl difluoride (Liquid); method: volumetric method
Pressure, kPa of sulfuryl difluoride	Temperature, K	Mole fraction of sulfuryl difluoride	uncertainty
48.5	293.15	0.01855	0.00076
112.9	293.15	0.04304	0.00079
206.2	293.15	0.07854	0.00088
301.2	293.15	0.11439	0.00102
403	293.15	0.15261	0.00119
504.4	293.15	0.19043	0.00138
49.1	298.15	0.01823	0.00075
107.2	298.15	0.03842	0.00076
197.1	298.15	0.06874	0.00083
298.7	298.15	0.103	0.00095
401.6	298.15	0.13711	0.0011
506.1	298.15	0.1722	0.00128
49	303.15	0.01594	0.00072
109.7	303.15	0.03516	0.00074
205.4	303.15	0.06534	0.00081
311.7	303.15	0.09776	0.00091
401.2	303.15	0.12505	0.00103
501.1	303.15	0.15504	0.00117
53.3	308.15	0.01547	0.0007
113.8	308.15	0.03322	0.00072
210.7	308.15	0.06076	0.00078
305.8	308.15	0.08704	0.00086
410.5	308.15	0.1159	0.00097
506.4	308.15	0.14222	0.0011
54.1	313.15	0.01418	0.00069
113.2	313.15	0.02993	0.0007
215.3	313.15	0.0568	0.00076
323.8	313.15	0.0845	0.00084
409.2	313.15	0.10621	0.00092
513.8	313.15	0.1319	0.00104

System: sulfuryl difluoride + N-methylpyrrolidone; phases: Liquid, Gas
Property: Mole fraction of sulfuryl difluoride (Liquid); method: volumetric method
Pressure, kPa of sulfuryl difluoride	Temperature, K	Mole fraction of sulfuryl difluoride	uncertainty
57.1	293.15	0.0059	0.00019
109.9	293.15	0.01139	0.0002
199	293.15	0.02083	0.00023
305	293.15	0.0323	0.00027
406.5	293.15	0.04375	0.00032
500.4	293.15	0.05468	0.00038
53.8	298.15	0.00515	0.00018
112.4	298.15	0.01082	0.00019
209.8	298.15	0.02025	0.00022
307.6	298.15	0.02999	0.00026
410.1	298.15	0.04052	0.00031
493.8	298.15	0.04941	0.00035
55.2	303.15	0.00479	0.00018
114.2	303.15	0.00995	0.00019
205.3	303.15	0.01805	0.00021
304.6	303.15	0.02705	0.00024
402.8	303.15	0.03604	0.00028
497.8	303.15	0.0451	0.00033
56.1	308.15	0.00448	0.00017
112.1	308.15	0.00902	0.00018
207.9	308.15	0.01682	0.0002
305.4	308.15	0.02479	0.00023
406.5	308.15	0.03324	0.00026
507.9	308.15	0.04182	0.0003
50.6	313.15	0.00373	0.00017
115.5	313.15	0.00855	0.00017
211.4	313.15	0.01575	0.00019
307.9	313.15	0.023	0.00022
410.6	313.15	0.03095	0.00025
514	313.15	0.03905	0.00029

System: carbon dioxide + 4-methyl-1,3-dioxolan-2-one; phases: Liquid, Gas
Property: Mole fraction of carbon dioxide (Liquid); method: volumetric method
Pressure, kPa of carbon dioxide	Temperature, K	Mole fraction of carbon dioxide	uncertainty
45.8	298.15	0.00555	0.00019
101.4	298.15	0.01247	0.0002
197	298.15	0.02405	0.00023
292.4	298.15	0.0355	0.00028
396.9	298.15	0.04791	0.00034
493.9	298.15	0.05933	0.0004
531	298.15	0.06377	0.00043
44.9	313.15	0.00431	0.00017
104.1	313.15	0.00996	0.00018
192.4	313.15	0.01816	0.0002
273.9	313.15	0.0258	0.00023
385.1	313.15	0.03613	0.00027
481.3	313.15	0.04538	0.00032
533.6	313.15	0.05022	0.00034
