Measured thermophysical data. Solubility measurements in Na-F-CO3-HCO3-H2O system at (308.15 and 323.15) K and development of a Pitzer-based equilibrium model for the Na-F-Cl-SO4-CO3-HCO3-H2O system
Source: J. Chem. Thermodyn., 2019, 10.1016/j.jct.2018.10.029
Compound 1: sodium fluoride, FNa, InChI=1S/FH.Na/h1H;/q;+1/p-1, purity 99.9%
Compound 2: sodium carbonate, CNa2O3, InChI=1S/CH2O3.2Na/c2-1(3)4;;/h(H2,2,3,4);;/q;2*+1/p-2, purity 99.6%
Compound 3: sodium bicarbonate, CHNaO3, InChI=1S/CH2O3.Na/c2-1(3)4;/h(H2,2,3,4);/q;+1/p-1, purity 99.5%
Compound 4: water, H2O, InChI=1S/H2O/h1H2, purity 99.9%

System: sodium fluoride + sodium carbonate + water; phases: Liquid, Crystal
Fixed: Pressure, kPa = 88.79
Property: Mass fraction of sodium fluoride (Liquid); method: Ion-selective electrode method
Temperature, K	Mass fraction of sodium carbonate	Mass fraction of sodium fluoride	uncertainty
323.15	0	0.03977	0.00126
323.15	0.04695	0.02835	0.00095
323.15	0.09344	0.02107	0.00308
323.15	0.13743	0.01539	0.00288
323.15	0.17042	0.01256	0.00173
323.15	0.19878	0.00973	0.00164
323.15	0.2307	0.00781	0.00055
323.15	0.26541	0.0073	0.00097
323.15	0.28735	0.00506	0.0012
323.15	0.3033	0.00417	0.00148
308.15	0	0.03941	0.00086
308.15	0.04468	0.02735	0.00246
308.15	0.0958	0.02041	0.00226
308.15	0.14428	0.01472	0.00205
308.15	0.17484	0.01197	0.0014
308.15	0.20788	0.00984	0.00137
308.15	0.24964	0.0082	0.00125
308.15	0.27581	0.00655	0.00091
308.15	0.29877	0.00578	0.00052
308.15	0.32579	0.00486	0.00087
308.15	0.01075	0.03614	0.00111

System: sodium fluoride + sodium carbonate + water; phases: Liquid, Crystal of intercomponent compound 1
Fixed: Pressure, kPa = 88.79
Property: Mass fraction of sodium carbonate (Liquid); method: Titration method
Temperature, K	Mass fraction of sodium fluoride	Mass fraction of sodium carbonate	uncertainty
323.15	0.00417	0.3033	0.01449
323.15	0.00299	0.31304	0.01084
323.15	0	0.32719	0.01244
308.15	0.00486	0.32579	0.01651
308.15	0.00281	0.33203	0.00927
308.15	0	0.33361	0.01462

System: sodium carbonate + sodium bicarbonate + water; phases: Liquid, Crystal
Fixed: Pressure, kPa = 88.79
Property: Mass fraction of sodium bicarbonate (Liquid); method: Titration method
Temperature, K	Mass fraction of sodium carbonate	Mass fraction of sodium bicarbonate	uncertainty
323.15	0.01702	0.11945	0.00446
308.15	0.0219	0.09283	0.00734

System: sodium fluoride + water; phases: Liquid, Crystal
Fixed: Pressure, kPa = 88.79
Property: Mass fraction of sodium fluoride (Liquid); method: Ion-selective electrode method
Temperature, K	Mass fraction of sodium fluoride	uncertainty
323.15	0.03977	0.00126
308.15	0.03941	0.00086

System: sodium carbonate + water; phases: Liquid, Crystal of intercomponent compound 1
Fixed: Pressure, kPa = 88.79
Property: Mass fraction of sodium carbonate (Liquid); method: Titration method
Temperature, K	Mass fraction of sodium carbonate	uncertainty
323.15	0.32719	0.01244
308.15	0.33361	0.01462
