Measured thermophysical data. Solubility of N2O and CO2 in non-aqueous systems of monoethanolamine and glycol ethers: Measurements and model representation
Source: J. Chem. Thermodyn., 2019, 10.1016/j.jct.2019.05.017
Compound 1: nitrous oxide, N2O, InChI=1S/N2O/c1-2-3, purity 99.9%
Compound 2: 2-methoxyethan-1-ol, C3H8O2, InChI=1S/C3H8O2/c1-5-3-2-4/h4H,2-3H2,1H3, purity 99.89%
Compound 3: 2-aminoethan-1-ol, C2H7NO, InChI=1S/C2H7NO/c3-1-2-4/h4H,1-3H2, purity 99.12%
Compound 4: 2-ethoxyethan-1-ol, C4H10O2, InChI=1S/C4H10O2/c1-2-6-4-3-5/h5H,2-4H2,1H3, purity 99.18%
Compound 5: carbon dioxide, CO2, InChI=1S/CO2/c2-1-3, purity 99.99%

System: 2-methoxyethan-1-ol; phases: Liquid
Fixed: Pressure, kPa = 101.3
Property: Mass density, kg/m3 (Liquid); method: Vibrating tube method
Temperature, K	Mass density, kg/m3	uncertainty
283.15	974.7	2
288.15	969.9	2
293.15	964.7	2
298.15	960.1	2
303.15	955.5	2
308.15	950.9	2
313.15	946.2	2
318.15	941.5	2
323.15	936.7	2
328.15	932	2
333.15	927.2	2

System: 2-aminoethan-1-ol; phases: Liquid
Fixed: Pressure, kPa = 101.3
Property: Mass density, kg/m3 (Liquid); method: Vibrating tube method
Temperature, K	Mass density, kg/m3	uncertainty
303.15	1008.8	2
313.15	1000.9	2

System: 2-ethoxyethan-1-ol; phases: Liquid
Fixed: Pressure, kPa = 101.3
Property: Mass density, kg/m3 (Liquid); method: Vibrating tube method
Temperature, K	Mass density, kg/m3	uncertainty
293.15	929.7	2
298.15	925.2	2
303.15	920.7	2
308.15	916.1	2
313.15	911.5	2
318.15	906.8	2
323.15	902.1	2
328.15	897.4	2
333.15	892.6	2

System: nitrous oxide + 2-methoxyethan-1-ol; phases: Liquid, Gas
Property: Molality, mol/kg of nitrous oxide (Liquid); method: Volumetric method
Pressure, kPa of nitrous oxide	Temperature, K	Molality, mol/kg of nitrous oxide	uncertainty
99.25	293.15	0.1221	0.0026
75.6	298.15	0.0851	0.0025
124.1	298.15	0.1406	0.0026
110.89	303.15	0.117	0.0026
84.32	308.15	0.0817	0.0025
138.76	308.15	0.135	0.0026
85.39	313.15	0.0779	0.0025
121.9	313.15	0.1116	0.0026
85.88	318.15	0.0737	0.0025
135.58	318.15	0.1164	0.0025
93.09	323.15	0.0751	0.0025
132.84	323.15	0.1072	0.0025
93.67	328.15	0.0711	0.0025
147.06	328.15	0.1124	0.0025
100.91	333.15	0.0725	0.0025
143.88	333.15	0.1036	0.0025

System: nitrous oxide + 2-methoxyethan-1-ol + 2-aminoethan-1-ol; phases: Liquid, Gas
Fixed: Solvent: Mass fraction of 2-aminoethan-1-ol = 0.31
Property: Molality, mol/kg of nitrous oxide (Liquid); method: Volumetric method
Pressure, kPa of nitrous oxide	Temperature, K	Molality, mol/kg of nitrous oxide	uncertainty
85.16	293.15	0.0743	0.0025
135.42	293.15	0.1194	0.0026
74.16	298.15	0.0605	0.0025
128.81	298.15	0.106	0.0025
94.02	303.15	0.0706	0.0025
149.7	303.15	0.1133	0.0025
81.58	308.15	0.0577	0.0024
141.92	308.15	0.101	0.0025
102.69	313.15	0.0674	0.0025
163.67	313.15	0.1081	0.0025
88.74	318.15	0.0553	0.0024
154.6	318.15	0.0966	0.0025
91.23	323.15	0.0534	0.0024
149.04	323.15	0.0877	0.0025
94.54	328.15	0.0524	0.0024
154.55	328.15	0.0861	0.0025
97.81	333.15	0.0515	0.0024
160.13	333.15	0.0845	0.0025

System: 2-aminoethan-1-ol + 2-methoxyethan-1-ol; phases: Liquid
Fixed: Pressure, kPa = 101.3
Fixed: Mass fraction of 2-aminoethan-1-ol = 0.31
Property: Mass density, kg/m3 (Liquid); method: Vibrating tube method
Temperature, K	Mass density, kg/m3	uncertainty
293.15	985.5	2
298.15	981.1	2
303.15	976.8	2
308.15	972.5	2
313.15	968.1	2
318.15	963.7	2
323.15	959.2	2
328.15	954.8	2
333.15	950.3	2

System: 2-aminoethan-1-ol + 2-ethoxyethan-1-ol; phases: Liquid
Fixed: Pressure, kPa = 101.3
Fixed: Mass fraction of 2-aminoethan-1-ol = 0.318
Property: Mass density, kg/m3 (Liquid); method: Vibrating tube method
Temperature, K	Mass density, kg/m3	uncertainty
293.15	960.2	2
298.15	956	2
303.15	951.7	2
308.15	947.4	2
313.15	943	2
318.15	938.7	2
323.15	934.3	2
328.15	929.8	2
333.15	925.4	2

System: nitrous oxide + 2-ethoxyethan-1-ol; phases: Liquid, Gas
Property: Molality, mol/kg of nitrous oxide (Liquid); method: Volumetric method
Pressure, kPa of nitrous oxide	Temperature, K	Molality, mol/kg of nitrous oxide	uncertainty
59.02	293.15	0.0775	0.0025
110.4	293.15	0.1465	0.0027
70.14	298.15	0.0854	0.0025
117.82	298.15	0.1454	0.0027
66.1	303.15	0.0743	0.0025
123.87	303.15	0.1402	0.0026
77.89	308.15	0.082	0.0025
131.32	308.15	0.1393	0.0026
73.15	313.15	0.0714	0.0025
137	313.15	0.1347	0.0026
85.51	318.15	0.079	0.0025
144.57	318.15	0.134	0.0026
85.1	323.15	0.0739	0.0025
132.1	323.15	0.1161	0.0025
88.61	328.15	0.0727	0.0025
137.8	328.15	0.1142	0.0025
92.3	333.15	0.0714	0.0025
143.93	333.15	0.1121	0.0025

System: nitrous oxide + 2-ethoxyethan-1-ol + 2-aminoethan-1-ol; phases: Liquid, Gas
Fixed: Solvent: Mass fraction of 2-aminoethan-1-ol = 0.318
Property: Molality, mol/kg of nitrous oxide (Liquid); method: Volumetric method
Pressure, kPa of nitrous oxide	Temperature, K	Molality, mol/kg of nitrous oxide	uncertainty
65.19	293.15	0.0609	0.0025
117.88	293.15	0.1109	0.0025
81.27	298.15	0.0702	0.0025
123	298.15	0.1065	0.0025
72.18	303.15	0.0579	0.0025
130.51	303.15	0.1055	0.0025
89.32	308.15	0.067	0.0025
135.11	308.15	0.1018	0.0025
79.08	313.15	0.0553	0.0024
143.11	313.15	0.1007	0.0025
97.26	318.15	0.0643	0.0025
147.25	318.15	0.0975	0.0025
75.75	323.15	0.0472	0.0024
144.46	323.15	0.0907	0.0025
78.52	328.15	0.0463	0.0024
149.81	328.15	0.089	0.0025
81.28	333.15	0.0455	0.0024
155.03	333.15	0.0873	0.0025

System: carbon dioxide + 2-methoxyethan-1-ol; phases: Liquid, Gas
Property: Molality, mol/kg of carbon dioxide (Liquid); method: Volumetric method
Pressure, kPa of carbon dioxide	Temperature, K	Molality, mol/kg of carbon dioxide	uncertainty
88.86	283.15	0.1714	0.0029
120.59	283.15	0.2335	0.003
96.39	288.15	0.1673	0.0029
131.13	288.15	0.2276	0.003
94.18	293.15	0.1463	0.0028
67.39	298.15	0.0957	0.0026
120.66	298.15	0.1728	0.0028
108.51	303.15	0.1394	0.0026
140.58	303.15	0.1822	0.0027
76.99	308.15	0.0914	0.0026
137.76	308.15	0.1652	0.0027
78.6	313.15	0.0854	0.0025
87.59	318.15	0.0869	0.0025
133.98	318.15	0.1341	0.0026
87.31	323.15	0.0819	0.0025
130.74	323.15	0.1231	0.0026
95.77	328.15	0.0837	0.0025
146.67	328.15	0.1291	0.0026
95.91	333.15	0.0788	0.0025
143.68	333.15	0.1185	0.0025

System: carbon dioxide + 2-ethoxyethan-1-ol; phases: Liquid, Gas
Property: Molality, mol/kg of carbon dioxide (Liquid); method: Volumetric method
Pressure, kPa of carbon dioxide	Temperature, K	Molality, mol/kg of carbon dioxide	uncertainty
64.09	293.15	0.0933	0.0026
103.79	293.15	0.1531	0.0027
63.21	298.15	0.0839	0.0026
108.53	298.15	0.1452	0.0027
73.36	303.15	0.0888	0.0026
120.1	303.15	0.1458	0.0026
71.26	308.15	0.0802	0.0025
122.75	308.15	0.1384	0.0026
82.1	313.15	0.085	0.0025
134.62	313.15	0.1395	0.0026
79.3	318.15	0.0768	0.0025
136.47	318.15	0.1326	0.0026
76.67	323.15	0.07	0.0025
127.85	323.15	0.1165	0.0026
80.24	328.15	0.0686	0.0025
133.77	328.15	0.1143	0.0025
83.8	333.15	0.0673	0.0025
139.41	333.15	0.1122	0.0025

System: nitrous oxide + 2-aminoethan-1-ol; phases: Liquid, Gas
Property: Molality, mol/kg of nitrous oxide (Liquid); method: Volumetric method
Pressure, kPa of nitrous oxide	Temperature, K	Molality, mol/kg of nitrous oxide	uncertainty
133.9	303.15	0.0461	0.0024
90.86	313.15	0.0277	0.0024

System: carbon dioxide + 2-ethoxyethan-1-ol + 2-aminoethan-1-ol; phases: Liquid, Gas
Fixed: Solvent: Mass fraction of 2-aminoethan-1-ol = 0.318
Property: Molality, mol/kg of carbon dioxide (Liquid); method: Volumetric method
Pressure, kPa of carbon dioxide	Temperature, K	Molality, mol/kg of carbon dioxide	uncertainty
0.5	313	1.36	0.004
1.54	313	2.005	0.008
3.51	313	2.174	0.009
5.39	313	2.264	0.009
9.4	313	2.352	0.01
19.22	313	2.438	0.01
34.83	313	2.512	0.011
62.87	313	2.597	0.011
101.58	313	2.675	0.012
179.5	313	2.794	0.013
20.84	373	0.594	0.003
29.21	373	0.811	0.002
43.84	373	1.064	0.003
63.89	373	1.285	0.004
93.87	373	1.496	0.005
157.13	373	1.743	0.006
227.45	373	1.9	0.007
257.76	373	1.974	0.007
