Measured thermophysical data. 3,4,5-Trimethoxyphenol: A combined experimental and theoretical thermochemical investigation of its antioxidant capacity
Source: J. Chem. Thermodyn., 2008, 10.1016/j.jct.2007.11.006
Compound 1: carbon dioxide, CO2, InChI=1S/CO2/c2-1-3
Compound 2: water, H2O, InChI=1S/H2O/h1H2
Compound 3: oxygen, O2, InChI=1S/O2/c1-2
Compound 4: 3,4,5-trimethoxyphenol, C9H12O4, InChI=1S/C9H12O4/c1-11-7-4-6(10)5-8(12-2)9(7)13-3/h4-5,10H,1-3H3, purity 97%

System: 3,4,5-trimethoxyphenol; phases: Crystal, Liquid, Air at 1 atmosphere
Property: Molar enthalpy of transition or fusion, kJ/mol (Crystal); method: DSC
Molar enthalpy of transition or fusion, kJ/mol	uncertainty
31.94	2.72

System: 3,4,5-trimethoxyphenol; phases: Crystal, Liquid, Air at 1 atmosphere
Property: Normal melting temperature, K (Crystal); method: DTA
Normal melting temperature, K	uncertainty
420.17	0.43

System: 3,4,5-trimethoxyphenol; phases: Crystal, Gas
Property: Molar enthalpy of vaporization or sublimation, kJ/mol (Crystal); method: Drop sublimation at initial T = 411 K and adjusted to 298.15 K
Temperature, K	Molar enthalpy of vaporization or sublimation, kJ/mol	uncertainty
298.15	125.3	6.2

System: 3,4,5-trimethoxyphenol; phases: Crystal
Property: Mass density, kg/m3 (Crystal); method: mass of pellet and dimensions
Temperature, K	Pressure, kPa	Mass density, kg/m3	uncertainty
298.1	101.325	1080	10

Reaction: -1 3,4,5-trimethoxyphenol + 9 carbon dioxide + 6 water + -10 oxygen
Property: Specific internal energy of reaction at constant volume, J/g
-25032.1
