Measured thermophysical data. Volumetric, ultrasonic, and viscometric behaviour of glycine, DL-alanine, and L-valine in aqueous 1,4-butanediol solutions at different temperatures
Source: J. Chem. Thermodyn., 2009, 10.1016/j.jct.2008.09.008
Compound 1: 2-aminoacetic acid, C2H5NO2, InChI=1S/C2H5NO2/c3-1-2(4)5/h1,3H2,(H,4,5), purity 99.7%
Compound 2: DL-2-aminopropanoic acid, C3H7NO2, InChI=1S/C3H7NO2/c1-2(4)3(5)6/h2H,4H2,1H3,(H,5,6), purity 99%
Compound 3: L-valine, C5H11NO2, InChI=1S/C5H11NO2/c1-3(2)4(6)5(7)8/h3-4H,6H2,1-2H3,(H,7,8)/t4-/m0/s1, purity 99%
Compound 4: 1,4-butanediol, C4H10O2, InChI=1S/C4H10O2/c5-3-1-2-4-6/h5-6H,1-4H2, purity 99.9%
Compound 5: water, H2O, InChI=1S/H2O/h1H2

System: 1,4-butanediol + water; phases: Liquid
Fixed: Pressure, kPa = 101
Property: Viscosity, Pa*s (Liquid); method: Capillary tube (Ostwald; Ubbelohde) method
Temperature, K	Mass fraction of 1,4-butanediol	Viscosity, Pa*s	uncertainty
298.15	0.2	0.003421	1.9e-05
298.15	0.4	0.006454	3.4e-05
303.15	0.2	0.002966	1.7e-05
303.15	0.4	0.005738	3.1e-05
308.15	0.2	0.002542	1.5e-05
308.15	0.4	0.004993	2.8e-05
313.15	0.2	0.002142	1.3e-05
313.15	0.4	0.004221	2.4e-05
318.15	0.2	0.001774	1.1e-05
318.15	0.4	0.003421	2e-05

System: 1,4-butanediol + water; phases: Liquid
Fixed: Pressure, kPa = 101
Property: Speed of sound, m/s (Liquid); method: Linear variable-path acoustic interferometer
Temperature, K	Mass fraction of 1,4-butanediol	Speed of sound, m/s	uncertainty
298.15	0.2	1605.3	1.8
298.15	0.4	1684.2	1.9
303.15	0.2	1606.6	1.8
303.15	0.4	1677.4	1.8
308.15	0.2	1607.8	1.8
308.15	0.4	1670.7	1.8
313.15	0.2	1608.5	1.8
313.15	0.4	1664	2
318.15	0.2	1609.3	1.8
318.15	0.4	1657.2	1.8

System: 1,4-butanediol + water; phases: Liquid
Fixed: Pressure, kPa = 101
Property: Mass density, kg/m3 (Liquid); method: Pycnometric method
Temperature, K	Mass fraction of 1,4-butanediol	Mass density, kg/m3	uncertainty
298.15	0.2	1004.93	0.25
298.15	0.4	1013.41	0.25
303.15	0.2	1002.93	0.26
303.15	0.4	1010.75	0.26
308.15	0.2	1000.79	0.27
308.15	0.4	1008.04	0.27
313.15	0.2	998.53	0.28
313.15	0.4	1005.28	0.28
318.15	0.2	996.15	0.29
318.15	0.4	1002.46	0.29

System: 2-aminoacetic acid + 1,4-butanediol + water; phases: Liquid
Fixed: Pressure, kPa = 101
Fixed: Solvent: Mass fraction of 1,4-butanediol = 0.2
Property: Viscosity, Pa*s (Liquid); method: Capillary tube (Ostwald; Ubbelohde) method
Temperature, K	Molality, mol/kg of 2-aminoacetic acid	Viscosity, Pa*s	uncertainty
298.15	0	0.003421	1.9e-05
298.15	0.025	0.003443	1.9e-05
298.15	0.05	0.003465	2e-05
298.15	0.075	0.003488	2e-05
298.15	0.1	0.003511	2e-05
298.15	0.125	0.003534	2e-05
298.15	0.15	0.003556	2e-05
298.15	0.2	0.003602	2e-05
298.15	0.25	0.003646	2e-05
303.15	0	0.002966	1.7e-05
303.15	0.025	0.002987	1.7e-05
303.15	0.05	0.003007	1.7e-05
303.15	0.075	0.003028	1.7e-05
303.15	0.1	0.00305	1.7e-05
303.15	0.125	0.003071	1.7e-05
303.15	0.15	0.003092	1.8e-05
303.15	0.2	0.003135	1.8e-05
303.15	0.25	0.003179	1.8e-05
308.15	0	0.002542	1.5e-05
308.15	0.025	0.002561	1.5e-05
308.15	0.05	0.002581	1.5e-05
308.15	0.075	0.0026	1.5e-05
308.15	0.1	0.002619	1.5e-05
308.15	0.125	0.00264	1.5e-05
308.15	0.15	0.00266	1.5e-05
308.15	0.2	0.0027	1.5e-05
308.15	0.25	0.002739	1.6e-05
313.15	0	0.002142	1.2e-05
313.15	0.025	0.002159	1.3e-05
313.15	0.05	0.002177	1.3e-05
313.15	0.075	0.002195	1.3e-05
313.15	0.1	0.002213	1.3e-05
313.15	0.125	0.002231	1.3e-05
313.15	0.15	0.002249	1.3e-05
313.15	0.2	0.002285	1.3e-05
313.15	0.25	0.002321	1.3e-05
318.15	0	0.001774	1.1e-05
318.15	0.025	0.001789	1.1e-05
318.15	0.05	0.001805	1.1e-05
318.15	0.075	0.001821	1.1e-05
318.15	0.1	0.001837	1.1e-05
318.15	0.125	0.001853	1.1e-05
318.15	0.15	0.001869	1.1e-05
318.15	0.2	0.001901	1.1e-05
318.15	0.25	0.001934	1.1e-05

System: 2-aminoacetic acid + 1,4-butanediol + water; phases: Liquid
Fixed: Pressure, kPa = 101
Fixed: Solvent: Mass fraction of 1,4-butanediol = 0.4
Property: Viscosity, Pa*s (Liquid); method: Capillary tube (Ostwald; Ubbelohde) method
Temperature, K	Molality, mol/kg of 2-aminoacetic acid	Viscosity, Pa*s	uncertainty
298.15	0	0.006454	3.3e-05
298.15	0.025	0.006478	3.3e-05
298.15	0.05	0.00651	3.4e-05
298.15	0.075	0.006544	3.4e-05
298.15	0.1	0.006578	3.4e-05
298.15	0.125	0.006614	3.4e-05
298.15	0.15	0.00665	3.4e-05
298.15	0.2	0.006724	3.4e-05
298.15	0.25	0.006799	3.5e-05
303.15	0	0.005738	3e-05
303.15	0.025	0.005762	3.1e-05
303.15	0.05	0.005792	3.1e-05
303.15	0.075	0.005824	3.1e-05
303.15	0.1	0.005857	3.1e-05
303.15	0.125	0.005892	3.1e-05
303.15	0.15	0.005927	3.1e-05
303.15	0.2	0.005999	3.2e-05
303.15	0.25	0.006071	3.2e-05
308.15	0	0.004993	2.8e-05
308.15	0.025	0.005016	2.8e-05
308.15	0.05	0.005045	2.8e-05
308.15	0.075	0.005076	2.8e-05
308.15	0.1	0.005108	2.8e-05
308.15	0.125	0.005141	2.8e-05
308.15	0.15	0.005174	2.8e-05
308.15	0.2	0.005241	2.9e-05
308.15	0.25	0.00531	2.9e-05
313.15	0	0.004221	2.4e-05
313.15	0.025	0.004242	2.4e-05
313.15	0.05	0.00427	2.4e-05
313.15	0.075	0.004298	2.4e-05
313.15	0.1	0.004328	2.4e-05
313.15	0.125	0.004358	2.4e-05
313.15	0.15	0.004389	2.4e-05
313.15	0.2	0.004452	2.5e-05
313.15	0.25	0.004515	2.5e-05
318.15	0	0.003421	1.9e-05
318.15	0.025	0.00344	2e-05
318.15	0.05	0.003464	2e-05
318.15	0.075	0.00349	2e-05
318.15	0.1	0.003516	2e-05
318.15	0.125	0.003543	2e-05
318.15	0.15	0.00357	2e-05
318.15	0.2	0.003625	2.1e-05
318.15	0.25	0.003682	2.1e-05

System: 2-aminoacetic acid + 1,4-butanediol + water; phases: Liquid
Fixed: Pressure, kPa = 101
Fixed: Solvent: Mass fraction of 1,4-butanediol = 0.4
Property: Speed of sound, m/s (Liquid); method: Linear variable-path acoustic interferometer
Temperature, K	Molality, mol/kg of 2-aminoacetic acid	Speed of sound, m/s	uncertainty
298.15	0	1684.2	1.9
298.15	0.025	1685.2	1.9
298.15	0.05	1686.4	1.9
298.15	0.075	1687.8	1.9
298.15	0.1	1689.2	1.9
298.15	0.125	1690.8	1.9
298.15	0.15	1692.5	1.9
298.15	0.2	1696.1	1.9
298.15	0.25	1699.9	1.9
303.15	0	1677.4	1.8
303.15	0.025	1678.3	1.8
303.15	0.05	1679.4	1.8
303.15	0.075	1680.6	1.9
303.15	0.1	1681.9	1.9
303.15	0.125	1683.3	1.9
303.15	0.15	1684.8	1.9
303.15	0.2	1688	2
303.15	0.25	1691.4	1.9
308.15	0	1670.7	1.8
308.15	0.025	1671.5	1.8
308.15	0.05	1672.5	1.8
308.15	0.075	1673.6	1.8
308.15	0.1	1674.7	1.8
308.15	0.125	1675.9	1.8
308.15	0.15	1677.3	1.8
308.15	0.2	1680.2	1.9
308.15	0.25	1683.3	1.9
313.15	0	1664	2
313.15	0.025	1664.7	1.8
313.15	0.05	1665.6	1.8
313.15	0.075	1666.6	1.8
313.15	0.1	1667.6	1.8
313.15	0.125	1668.7	1.8
313.15	0.15	1669.9	1.8
313.15	0.2	1672.4	1.8
313.15	0.25	1675.2	1.8
318.15	0	1657.2	1.8
318.15	0.025	1657.8	1.8
318.15	0.05	1658.6	1.8
318.15	0.075	1659.4	1.8
318.15	0.1	1660.3	1.8
318.15	0.125	1661.3	1.8
318.15	0.15	1662.4	1.8
318.15	0.2	1664.7	1.8
318.15	0.25	1667.1	1.8

System: 2-aminoacetic acid + 1,4-butanediol + water; phases: Liquid
Fixed: Pressure, kPa = 101
Fixed: Solvent: Mass fraction of 1,4-butanediol = 0.2
Property: Speed of sound, m/s (Liquid); method: Linear variable-path acoustic interferometer
Temperature, K	Molality, mol/kg of 2-aminoacetic acid	Speed of sound, m/s	uncertainty
298.15	0	1605.3	1.8
298.15	0.025	1606.9	1.8
298.15	0.05	1608.7	1.8
298.15	0.075	1610.6	1.8
298.15	0.1	1612.6	1.8
298.15	0.125	1614.7	1.8
298.15	0.15	1616.9	1.8
298.15	0.2	1621.5	1.8
298.15	0.25	1626.4	1.8
303.15	0	1606.6	1.8
303.15	0.025	1608.1	1.8
303.15	0.05	1609.8	1.8
303.15	0.075	1611.6	1.8
303.15	0.1	1613.5	1.8
303.15	0.125	1615.5	1.8
303.15	0.15	1617.6	1.8
303.15	0.2	1622	1.8
303.15	0.25	1626.8	1.8
308.15	0	1607.8	1.8
308.15	0.025	1609.2	1.8
308.15	0.05	1610.8	1.8
308.15	0.075	1612.5	1.8
308.15	0.1	1614.3	1.8
308.15	0.125	1616.2	1.8
308.15	0.15	1618.2	1.8
308.15	0.2	1622.4	1.8
308.15	0.25	1627	1.8
313.15	0	1608.5	1.8
313.15	0.025	1609.8	1.8
313.15	0.05	1611.3	1.8
313.15	0.075	1612.9	1.8
313.15	0.1	1614.6	1.8
313.15	0.125	1616.4	1.8
313.15	0.15	1618.3	1.8
313.15	0.2	1622.4	1.8
313.15	0.25	1626.8	1.8
318.15	0	1609.3	1.8
318.15	0.025	1610.5	1.8
318.15	0.05	1611.9	1.8
318.15	0.075	1613.4	1.8
318.15	0.1	1615.1	1.8
318.15	0.125	1616.8	1.8
318.15	0.15	1618.6	1.8
318.15	0.2	1622.6	1.8
318.15	0.25	1626.7	1.8

System: 2-aminoacetic acid + 1,4-butanediol + water; phases: Liquid
Fixed: Pressure, kPa = 101
Fixed: Solvent: Mass fraction of 1,4-butanediol = 0.4
Property: Mass density, kg/m3 (Liquid); method: Pycnometric method
Molality, mol/kg of 2-aminoacetic acid	Temperature, K	Mass density, kg/m3	uncertainty
0	298.15	1013.41	0.26
0	303.15	1010.75	0.27
0	308.15	1008.04	0.28
0	313.15	1005.28	0.29
0	318.15	1002.46	0.3
0.025	298.15	1014.1	0.26
0.025	303.15	1011.44	0.27
0.025	308.15	1008.73	0.28
0.025	313.15	1005.97	0.29
0.025	318.15	1003.15	0.3
0.05	298.15	1014.77	0.26
0.05	303.15	1012.11	0.27
0.05	308.15	1009.4	0.28
0.05	313.15	1006.64	0.29
0.05	318.15	1003.82	0.31
0.075	298.15	1015.43	0.26
0.075	303.15	1012.77	0.27
0.075	308.15	1010.06	0.28
0.075	313.15	1007.3	0.29
0.075	318.15	1004.48	0.31
0.1	298.15	1016.07	0.26
0.1	303.15	1013.41	0.27
0.1	308.15	1010.7	0.28
0.1	313.15	1007.94	0.29
0.1	318.15	1005.12	0.3
0.125	298.15	1016.69	0.26
0.125	303.15	1014.03	0.27
0.125	308.15	1011.32	0.28
0.125	313.15	1008.56	0.29
0.125	318.15	1005.74	0.3
0.15	298.15	1017.3	0.26
0.15	303.15	1014.64	0.27
0.15	308.15	1011.93	0.28
0.15	313.15	1009.17	0.29
0.15	318.15	1006.35	0.3
0.2	298.15	1018.47	0.26
0.2	303.15	1015.81	0.27
0.2	308.15	1013.1	0.28
0.2	313.15	1010.34	0.29
0.2	318.15	1007.52	0.3
0.25	298.15	1019.58	0.26
0.25	303.15	1016.92	0.27
0.25	308.15	1014.21	0.28
0.25	313.15	1011.45	0.29
0.25	318.15	1008.63	0.3

System: 2-aminoacetic acid + 1,4-butanediol + water; phases: Liquid
Fixed: Pressure, kPa = 101
Fixed: Solvent: Mass fraction of 1,4-butanediol = 0.2
Property: Mass density, kg/m3 (Liquid); method: Pycnometric method
Molality, mol/kg of 2-aminoacetic acid	Temperature, K	Mass density, kg/m3	uncertainty
0	298.15	1004.93	0.25
0	303.15	1002.93	0.26
0	308.15	1000.79	0.28
0	313.15	998.53	0.29
0	318.15	996.15	0.3
0.025	298.15	1005.67	0.25
0.025	303.15	1003.67	0.26
0.025	308.15	1001.53	0.28
0.025	313.15	999.27	0.29
0.025	318.15	996.89	0.3
0.05	298.15	1006.4	0.27
0.05	303.15	1004.4	0.26
0.05	308.15	1002.26	0.28
0.05	313.15	1000	0.29
0.05	318.15	997.62	0.3
0.075	298.15	1007.12	0.25
0.075	303.15	1005.12	0.26
0.075	308.15	1002.98	0.28
0.075	313.15	1000.72	0.29
0.075	318.15	998.34	0.3
0.1	298.15	1007.83	0.26
0.1	303.15	1005.83	0.27
0.1	308.15	1003.69	0.28
0.1	313.15	1001.43	0.29
0.1	318.15	999.05	0.3
0.125	298.15	1008.53	0.25
0.125	303.15	1006.53	0.27
0.125	308.15	1004.39	0.28
0.125	313.15	1002.13	0.29
0.125	318.15	999.75	0.3
0.15	298.15	1009.22	0.25
0.15	303.15	1007.22	0.27
0.15	308.15	1005.08	0.28
0.15	313.15	1002.82	0.29
0.15	318.15	1000.44	0.3
0.2	298.15	1010.57	0.26
0.2	303.15	1008.58	0.27
0.2	308.15	1006.44	0.28
0.2	313.15	1004.17	0.29
0.2	318.15	1001.8	0.3
0.25	298.15	1011.88	0.26
0.25	303.15	1009.88	0.27
0.25	308.15	1007.75	0.28
0.25	313.15	1005.48	0.29
0.25	318.15	1003.11	0.3

System: 1,4-butanediol + DL-2-aminopropanoic acid + water; phases: Liquid
Fixed: Pressure, kPa = 101
Fixed: Solvent: Mass fraction of 1,4-butanediol = 0.2
Property: Viscosity, Pa*s (Liquid); method: Capillary tube (Ostwald; Ubbelohde) method
Temperature, K	Molality, mol/kg of DL-2-aminopropanoic acid	Viscosity, Pa*s	uncertainty
298.15	0.025	0.003439	2e-05
298.15	0.05	0.003457	2e-05
298.15	0.075	0.003476	2.1e-05
298.15	0.1	0.003495	2.1e-05
298.15	0.125	0.003514	2.1e-05
298.15	0.15	0.003533	2.1e-05
298.15	0.2	0.003571	2.1e-05
298.15	0.25	0.003609	2.1e-05
303.15	0.025	0.002983	1.8e-05
303.15	0.05	0.003	1.8e-05
303.15	0.075	0.003018	1.8e-05
303.15	0.1	0.003035	1.8e-05
303.15	0.125	0.003054	1.8e-05
303.15	0.15	0.003072	1.8e-05
303.15	0.2	0.003108	1.9e-05
303.15	0.25	0.003144	1.9e-05
308.15	0.025	0.002558	1.5e-05
308.15	0.05	0.002574	1.6e-05
308.15	0.075	0.002591	1.6e-05
308.15	0.1	0.002608	1.6e-05
308.15	0.125	0.002625	1.6e-05
308.15	0.15	0.002642	1.6e-05
308.15	0.2	0.002676	1.6e-05
308.15	0.25	0.002711	1.6e-05
313.15	0.025	0.002156	1.3e-05
313.15	0.05	0.002171	1.3e-05
313.15	0.075	0.002186	1.3e-05
313.15	0.1	0.002201	1.3e-05
313.15	0.125	0.002216	1.3e-05
313.15	0.15	0.002232	1.4e-05
313.15	0.2	0.002262	1.4e-05
313.15	0.25	0.002294	1.4e-05
318.15	0.025	0.001786	1.1e-05
318.15	0.05	0.001799	1.1e-05
318.15	0.075	0.001813	1.1e-05
318.15	0.1	0.001826	1.1e-05
318.15	0.125	0.00184	1.1e-05
318.15	0.15	0.001854	1.1e-05
318.15	0.2	0.001881	1.2e-05
318.15	0.25	0.001909	1.2e-05

System: 1,4-butanediol + DL-2-aminopropanoic acid + water; phases: Liquid
Fixed: Pressure, kPa = 101
Fixed: Solvent: Mass fraction of 1,4-butanediol = 0.4
Property: Viscosity, Pa*s (Liquid); method: Capillary tube (Ostwald; Ubbelohde) method
Temperature, K	Molality, mol/kg of DL-2-aminopropanoic acid	Viscosity, Pa*s	uncertainty
298.15	0.025	0.006463	3.5e-05
298.15	0.05	0.006487	3.5e-05
298.15	0.075	0.006514	3.6e-05
298.15	0.1	0.006542	3.6e-05
298.15	0.125	0.006571	3.6e-05
298.15	0.15	0.006602	3.6e-05
298.15	0.2	0.006663	3.6e-05
298.15	0.25	0.006726	3.6e-05
303.15	0.025	0.005748	3.2e-05
303.15	0.05	0.005771	3.2e-05
303.15	0.075	0.005798	3.2e-05
303.15	0.1	0.005825	3.3e-05
303.15	0.125	0.005854	3.3e-05
303.15	0.15	0.005883	3.3e-05
303.15	0.2	0.005945	3.3e-05
303.15	0.25	0.006008	3.3e-05
308.15	0.025	0.005004	2.9e-05
308.15	0.05	0.005026	2.9e-05
308.15	0.075	0.005052	2.9e-05
308.15	0.1	0.005078	2.9e-05
308.15	0.125	0.005105	3e-05
308.15	0.15	0.005133	3e-05
308.15	0.2	0.005191	3e-05
308.15	0.25	0.005252	3e-05
313.15	0.025	0.004232	2.5e-05
313.15	0.05	0.004253	2.5e-05
313.15	0.075	0.004276	2.5e-05
313.15	0.1	0.0043	2.5e-05
313.15	0.125	0.004326	2.5e-05
313.15	0.15	0.004352	2.6e-05
313.15	0.2	0.004406	2.6e-05
313.15	0.25	0.00446	2.6e-05
318.15	0.025	0.003431	2e-05
318.15	0.05	0.00345	2.1e-05
318.15	0.075	0.00347	2.1e-05
318.15	0.1	0.003492	2.1e-05
318.15	0.125	0.003514	2.1e-05
318.15	0.15	0.003536	2.1e-05
318.15	0.2	0.003582	2.1e-05
318.15	0.25	0.00363	2.2e-05

System: 1,4-butanediol + DL-2-aminopropanoic acid + water; phases: Liquid
Fixed: Pressure, kPa = 101
Fixed: Solvent: Mass fraction of 1,4-butanediol = 0.2
Property: Speed of sound, m/s (Liquid); method: Linear variable-path acoustic interferometer
Temperature, K	Molality, mol/kg of DL-2-aminopropanoic acid	Speed of sound, m/s	uncertainty
298.15	0.025	1606.3	1.8
298.15	0.05	1607.5	1.8
298.15	0.075	1608.8	1.8
298.15	0.1	1610.1	1.8
298.15	0.125	1611.5	1.8
298.15	0.15	1613	1.8
298.15	0.2	1616.1	1.8
298.15	0.25	1619.4	1.8
303.15	0.025	1607.5	1.8
303.15	0.05	1608.5	1.8
303.15	0.075	1609.7	1.8
303.15	0.1	1611	1.8
303.15	0.125	1612.3	1.8
303.15	0.15	1613.7	1.8
303.15	0.2	1616.6	1.8
303.15	0.25	1619.8	1.8
308.15	0.025	1608.6	1.8
308.15	0.05	1609.5	1.8
308.15	0.075	1610.6	1.8
308.15	0.1	1611.7	1.8
308.15	0.125	1612.9	1.8
308.15	0.15	1614.2	1.8
308.15	0.2	1616.9	1.8
308.15	0.25	1619.9	1.8
313.15	0.025	1609.2	1.8
313.15	0.05	1610	1.8
313.15	0.075	1611	1.8
313.15	0.1	1612	1.8
313.15	0.125	1613	1.8
313.15	0.15	1614.2	1.8
313.15	0.2	1616.6	1.8
313.15	0.25	1619.2	1.8
318.15	0.025	1609.9	1.8
318.15	0.05	1610.6	1.8
318.15	0.075	1611.4	1.8
318.15	0.1	1612.3	1.8
318.15	0.125	1613.2	1.8
318.15	0.15	1614.2	1.8
318.15	0.2	1616.4	1.8
318.15	0.25	1618.8	1.8

System: 1,4-butanediol + DL-2-aminopropanoic acid + water; phases: Liquid
Fixed: Pressure, kPa = 101
Fixed: Solvent: Mass fraction of 1,4-butanediol = 0.4
Property: Speed of sound, m/s (Liquid); method: Linear variable-path acoustic interferometer
Temperature, K	Molality, mol/kg of DL-2-aminopropanoic acid	Speed of sound, m/s	uncertainty
298.15	0.025	1685	1.9
298.15	0.05	1686	1.9
298.15	0.075	1687.1	1.9
298.15	0.1	1688.3	1.9
298.15	0.125	1689.6	1.9
298.15	0.15	1691	1.9
298.15	0.2	1693.9	1.9
298.15	0.25	1697	1.9
303.15	0.025	1678.1	1.9
303.15	0.05	1679	1.9
303.15	0.075	1680	1.9
303.15	0.1	1681.1	1.9
303.15	0.125	1682.3	1.9
303.15	0.15	1683.6	1.9
303.15	0.2	1686.3	1.9
303.15	0.25	1689.2	1.9
308.15	0.025	1671.3	1.9
308.15	0.05	1672.1	1.9
308.15	0.075	1673	1.9
308.15	0.1	1674	1.9
308.15	0.125	1675.1	1.9
308.15	0.15	1676.2	1.9
308.15	0.2	1678.7	1.9
308.15	0.25	1681.3	1.9
313.15	0.025	1664.5	1.9
313.15	0.05	1665.2	1.9
313.15	0.075	1666	1.9
313.15	0.1	1666.9	1.9
313.15	0.125	1667.9	1.9
313.15	0.15	1668.9	1.9
313.15	0.2	1671.2	1.9
313.15	0.25	1673.6	1.9
318.15	0.025	1657.6	1.9
318.15	0.05	1658.2	1.9
318.15	0.075	1658.9	1.9
318.15	0.1	1659.7	1.9
318.15	0.125	1660.6	1.9
318.15	0.15	1661.5	1.9
318.15	0.2	1663.6	1.9
318.15	0.25	1665.8	1.9

System: 1,4-butanediol + DL-2-aminopropanoic acid + water; phases: Liquid
Fixed: Pressure, kPa = 101
Fixed: Solvent: Mass fraction of 1,4-butanediol = 0.2
Property: Mass density, kg/m3 (Liquid); method: Pycnometric method
Molality, mol/kg of DL-2-aminopropanoic acid	Temperature, K	Mass density, kg/m3	uncertainty
0.025	298.15	1005.62	0.28
0.025	303.15	1003.62	0.29
0.025	308.15	1001.48	0.3
0.025	313.15	999.22	0.31
0.025	318.15	996.84	0.32
0.05	298.15	1006.3	0.29
0.05	303.15	1004.3	0.29
0.05	308.15	1002.16	0.3
0.05	313.15	999.9	0.31
0.05	318.15	997.52	0.33
0.075	298.15	1006.98	0.28
0.075	303.15	1004.98	0.29
0.075	308.15	1002.84	0.3
0.075	313.15	1000.58	0.31
0.075	318.15	998.2	0.32
0.1	298.15	1007.65	0.28
0.1	303.15	1005.65	0.29
0.1	308.15	1003.51	0.3
0.1	313.15	1001.25	0.31
0.1	318.15	998.87	0.32
0.125	298.15	1008.32	0.28
0.125	303.15	1006.32	0.29
0.125	308.15	1004.18	0.3
0.125	313.15	1001.92	0.31
0.125	318.15	999.54	0.32
0.15	298.15	1008.98	0.28
0.15	303.15	1006.98	0.29
0.15	308.15	1004.84	0.3
0.15	313.15	1002.58	0.31
0.15	318.15	1000.2	0.32
0.2	298.15	1010.29	0.28
0.2	303.15	1008.29	0.29
0.2	308.15	1006.15	0.3
0.2	313.15	1003.89	0.31
0.2	318.15	1001.51	0.32
0.25	298.15	1011.58	0.28
0.25	303.15	1009.58	0.29
0.25	308.15	1007.44	0.3
0.25	313.15	1005.18	0.31
0.25	318.15	1002.8	0.32

System: 1,4-butanediol + DL-2-aminopropanoic acid + water; phases: Liquid
Fixed: Pressure, kPa = 101
Fixed: Solvent: Mass fraction of 1,4-butanediol = 0.4
Property: Mass density, kg/m3 (Liquid); method: Pycnometric method
Molality, mol/kg of DL-2-aminopropanoic acid	Temperature, K	Mass density, kg/m3	uncertainty
0.025	298.15	1014.02	0.28
0.025	303.15	1011.36	0.29
0.025	308.15	1008.65	0.3
0.025	313.15	1005.89	0.31
0.025	318.15	1003.07	0.32
0.05	298.15	1014.62	0.32
0.05	303.15	1011.96	0.29
0.05	308.15	1009.25	0.3
0.05	313.15	1006.49	0.31
0.05	318.15	1003.67	0.36
0.075	298.15	1015.22	0.28
0.075	303.15	1012.56	0.29
0.075	308.15	1009.85	0.3
0.075	313.15	1007.09	0.31
0.075	318.15	1004.27	0.33
0.1	298.15	1015.82	0.28
0.1	303.15	1013.16	0.29
0.1	308.15	1010.45	0.3
0.1	313.15	1007.69	0.31
0.1	318.15	1004.87	0.33
0.125	298.15	1016.41	0.28
0.125	303.15	1013.75	0.29
0.125	308.15	1011.04	0.3
0.125	313.15	1008.28	0.31
0.125	318.15	1005.46	0.33
0.15	298.15	1017	0.28
0.15	303.15	1014.34	0.29
0.15	308.15	1011.63	0.3
0.15	313.15	1008.87	0.32
0.15	318.15	1006.05	0.33
0.2	298.15	1018.15	0.29
0.2	303.15	1015.49	0.29
0.2	308.15	1012.78	0.3
0.2	313.15	1010.02	0.32
0.2	318.15	1007.2	0.33
0.25	298.15	1019.3	0.28
0.25	303.15	1016.64	0.29
0.25	308.15	1013.93	0.31
0.25	313.15	1011.17	0.32
0.25	318.15	1008.35	0.33

System: L-valine + 1,4-butanediol + water; phases: Liquid
Fixed: Pressure, kPa = 101
Fixed: Solvent: Mass fraction of 1,4-butanediol = 0.4
Property: Viscosity, Pa*s (Liquid); method: Capillary tube (Ostwald; Ubbelohde) method
Temperature, K	Molality, mol/kg of L-valine	Viscosity, Pa*s	uncertainty
298.15	0.025	0.006458	3.5e-05
298.15	0.05	0.006475	3.5e-05
298.15	0.075	0.006495	3.5e-05
298.15	0.1	0.006518	3.6e-05
298.15	0.125	0.006542	3.6e-05
298.15	0.15	0.00657	3.6e-05
298.15	0.2	0.006621	3.6e-05
298.15	0.25	0.006676	3.6e-05
303.15	0.025	0.005743	3.2e-05
303.15	0.05	0.005761	3.2e-05
303.15	0.075	0.005783	3.2e-05
303.15	0.1	0.005807	3.3e-05
303.15	0.125	0.005831	3.3e-05
303.15	0.15	0.005857	3.3e-05
303.15	0.2	0.005908	3.3e-05
303.15	0.25	0.005961	3.3e-05
308.15	0.025	0.004999	2.9e-05
308.15	0.05	0.005019	2.9e-05
308.15	0.075	0.00504	2.9e-05
308.15	0.1	0.005065	2.9e-05
308.15	0.125	0.005088	2.9e-05
308.15	0.15	0.005114	3e-05
308.15	0.2	0.005162	3e-05
308.15	0.25	0.005215	3e-05
313.15	0.025	0.004228	2.5e-05
313.15	0.05	0.004247	2.5e-05
313.15	0.075	0.004267	2.5e-05
313.15	0.1	0.00429	2.5e-05
313.15	0.125	0.004312	2.5e-05
313.15	0.15	0.004337	2.5e-05
313.15	0.2	0.004382	2.6e-05
313.15	0.25	0.004428	2.6e-05
318.15	0.025	0.003428	2e-05
318.15	0.05	0.003445	2.1e-05
318.15	0.075	0.003463	2.1e-05
318.15	0.1	0.003484	2.1e-05
318.15	0.125	0.003504	2.1e-05
318.15	0.15	0.003524	2.1e-05
318.15	0.2	0.003565	2.1e-05
318.15	0.25	0.003605	2.1e-05

System: L-valine + 1,4-butanediol + water; phases: Liquid
Fixed: Pressure, kPa = 101
Fixed: Solvent: Mass fraction of 1,4-butanediol = 0.2
Property: Viscosity, Pa*s (Liquid); method: Capillary tube (Ostwald; Ubbelohde) method
Temperature, K	Molality, mol/kg of L-valine	Viscosity, Pa*s	uncertainty
298.15	0.025	0.003431	2e-05
298.15	0.05	0.003446	2e-05
298.15	0.075	0.003462	2e-05
298.15	0.1	0.003478	2.1e-05
298.15	0.125	0.003494	2.1e-05
298.15	0.15	0.00351	2.1e-05
298.15	0.2	0.003543	2.1e-05
298.15	0.25	0.003578	2.1e-05
303.15	0.025	0.002976	1.8e-05
303.15	0.05	0.00299	1.8e-05
303.15	0.075	0.003005	1.8e-05
303.15	0.1	0.00302	1.8e-05
303.15	0.125	0.003035	1.8e-05
303.15	0.15	0.00305	1.8e-05
303.15	0.2	0.003081	1.8e-05
303.15	0.25	0.003115	1.9e-05
308.15	0.025	0.002552	1.5e-05
308.15	0.05	0.002565	1.5e-05
308.15	0.075	0.002579	1.6e-05
308.15	0.1	0.002593	1.6e-05
308.15	0.125	0.002607	1.6e-05
308.15	0.15	0.002622	1.6e-05
308.15	0.2	0.002652	1.6e-05
308.15	0.25	0.002682	1.6e-05
313.15	0.025	0.002151	1.3e-05
313.15	0.05	0.002163	1.3e-05
313.15	0.075	0.002175	1.3e-05
313.15	0.1	0.002188	1.3e-05
313.15	0.125	0.002201	1.3e-05
313.15	0.15	0.002215	1.3e-05
313.15	0.2	0.002242	1.4e-05
313.15	0.25	0.002269	1.4e-05
318.15	0.025	0.001782	1.1e-05
318.15	0.05	0.001793	1.1e-05
318.15	0.075	0.001804	1.1e-05
318.15	0.1	0.001815	1.1e-05
318.15	0.125	0.001827	1.1e-05
318.15	0.15	0.001839	1.1e-05
318.15	0.2	0.001863	1.2e-05
318.15	0.25	0.001887	1.2e-05

System: L-valine + 1,4-butanediol + water; phases: Liquid
Fixed: Pressure, kPa = 101
Fixed: Solvent: Mass fraction of 1,4-butanediol = 0.2
Property: Speed of sound, m/s (Liquid); method: Linear variable-path acoustic interferometer
Temperature, K	Molality, mol/kg of L-valine	Speed of sound, m/s	uncertainty
298.15	0.025	1605.6	1.8
298.15	0.05	1606.1	1.8
298.15	0.075	1606.6	1.8
298.15	0.1	1607.3	1.8
298.15	0.125	1608	1.8
298.15	0.15	1608.8	1.8
298.15	0.2	1610.6	1.8
298.15	0.25	1612.6	1.8
303.15	0.025	1606.8	1.8
303.15	0.05	1607.2	1.8
303.15	0.075	1607.7	1.8
303.15	0.1	1608.3	1.8
303.15	0.125	1609	1.8
303.15	0.15	1609.7	1.8
303.15	0.2	1611.4	1.8
303.15	0.25	1613.4	1.8
308.15	0.025	1607.9	1.8
308.15	0.05	1608.3	1.8
308.15	0.075	1608.7	1.8
308.15	0.1	1609.2	1.8
308.15	0.125	1609.8	1.8
308.15	0.15	1610.5	1.8
308.15	0.2	1612.1	1.8
308.15	0.25	1613.9	1.8
313.15	0.025	1608.6	1.8
313.15	0.05	1608.8	1.8
313.15	0.075	1609.2	1.8
313.15	0.1	1609.6	1.8
313.15	0.125	1610.2	1.8
313.15	0.15	1610.9	1.8
313.15	0.2	1612.4	1.8
313.15	0.25	1614.2	1.8
318.15	0.025	1609.3	1.8
318.15	0.05	1609.5	1.8
318.15	0.075	1609.8	1.8
318.15	0.1	1610.2	1.8
318.15	0.125	1610.7	1.8
318.15	0.15	1611.3	1.8
318.15	0.2	1612.7	1.8
318.15	0.25	1614.3	1.8

System: L-valine + 1,4-butanediol + water; phases: Liquid
Fixed: Pressure, kPa = 101
Fixed: Solvent: Mass fraction of 1,4-butanediol = 0.4
Property: Speed of sound, m/s (Liquid); method: Linear variable-path acoustic interferometer
Temperature, K	Molality, mol/kg of L-valine	Speed of sound, m/s	uncertainty
298.15	0.025	1684.5	1.9
298.15	0.05	1685	1.9
298.15	0.075	1685.6	1.9
298.15	0.1	1686.3	1.9
298.15	0.125	1687.1	1.9
298.15	0.15	1688	1.9
298.15	0.2	1689.9	1.9
298.15	0.25	1692.1	1.9
303.15	0.025	1677.6	1.9
303.15	0.05	1678	1.9
303.15	0.075	1678.5	1.9
303.15	0.1	1679.1	1.9
303.15	0.125	1679.8	1.9
303.15	0.15	1680.6	1.9
303.15	0.2	1682.4	1.9
303.15	0.25	1684.4	1.9
308.15	0.025	1670.8	1.9
308.15	0.05	1671.1	1.9
308.15	0.075	1671.5	1.9
308.15	0.1	1672	1.9
308.15	0.125	1672.6	1.9
308.15	0.15	1673.3	1.9
308.15	0.2	1674.9	1.9
308.15	0.25	1676.7	1.9
313.15	0.025	1664	1.9
313.15	0.05	1664.2	1.9
313.15	0.075	1664.5	1.9
313.15	0.1	1664.9	1.9
313.15	0.125	1665.4	1.9
313.15	0.15	1666	1.9
313.15	0.2	1667.4	1.9
313.15	0.25	1669	1.9
318.15	0.025	1657.1	1.9
318.15	0.05	1657.2	1.9
318.15	0.075	1657.4	1.9
318.15	0.1	1657.8	1.9
318.15	0.125	1658.2	1.9
318.15	0.15	1658.7	1.9
318.15	0.2	1659.9	1.9
318.15	0.25	1661.4	1.9

System: L-valine + 1,4-butanediol + water; phases: Liquid
Fixed: Pressure, kPa = 101
Fixed: Solvent: Mass fraction of 1,4-butanediol = 0.2
Property: Mass density, kg/m3 (Liquid); method: Pycnometric method
Molality, mol/kg of L-valine	Temperature, K	Mass density, kg/m3	uncertainty
0.025	298.15	1005.5	0.28
0.025	303.15	1003.5	0.29
0.025	308.15	1001.36	0.3
0.025	313.15	999.1	0.31
0.025	318.15	996.72	0.32
0.05	298.15	1006.06	0.29
0.05	303.15	1004.06	0.29
0.05	308.15	1001.92	0.3
0.05	313.15	999.66	0.31
0.05	318.15	997.28	0.33
0.075	298.15	1006.62	0.28
0.075	303.15	1004.62	0.29
0.075	308.15	1002.48	0.3
0.075	313.15	1000.22	0.31
0.075	318.15	997.84	0.32
0.1	298.15	1007.17	0.28
0.1	303.15	1005.17	0.29
0.1	308.15	1003.03	0.3
0.1	313.15	1000.77	0.31
0.1	318.15	998.39	0.32
0.125	298.15	1007.72	0.28
0.125	303.15	1005.72	0.29
0.125	308.15	1003.58	0.3
0.125	313.15	1001.32	0.31
0.125	318.15	998.94	0.32
0.15	298.15	1008.27	0.28
0.15	303.15	1006.27	0.29
0.15	308.15	1004.13	0.3
0.15	313.15	1001.87	0.31
0.15	318.15	999.49	0.32
0.2	298.15	1009.34	0.28
0.2	303.15	1007.34	0.29
0.2	308.15	1005.2	0.3
0.2	313.15	1002.94	0.31
0.2	318.15	1000.56	0.32
0.25	298.15	1010.4	0.28
0.25	303.15	1008.4	0.29
0.25	308.15	1006.26	0.3
0.25	313.15	1004	0.31
0.25	318.15	1001.62	0.32

System: L-valine + 1,4-butanediol + water; phases: Liquid
Fixed: Pressure, kPa = 101
Fixed: Solvent: Mass fraction of 1,4-butanediol = 0.4
Property: Mass density, kg/m3 (Liquid); method: Pycnometric method
Molality, mol/kg of L-valine	Temperature, K	Mass density, kg/m3	uncertainty
0.025	298.15	1013.95	0.28
0.025	303.15	1011.29	0.29
0.025	308.15	1008.58	0.3
0.025	313.15	1005.82	0.31
0.025	318.15	1003	0.32
0.05	298.15	1014.47	0.28
0.05	303.15	1011.81	0.29
0.05	308.15	1009.1	0.3
0.05	313.15	1006.34	0.31
0.05	318.15	1003.52	0.33
0.075	298.15	1014.99	0.28
0.075	303.15	1012.33	0.29
0.075	308.15	1009.62	0.3
0.075	313.15	1006.86	0.31
0.075	318.15	1004.04	0.33
0.1	298.15	1015.5	0.3
0.1	303.15	1012.84	0.29
0.1	308.15	1010.13	0.3
0.1	313.15	1007.37	0.31
0.1	318.15	1004.55	0.33
0.125	298.15	1016	0.28
0.125	303.15	1013.34	0.29
0.125	308.15	1010.63	0.3
0.125	313.15	1007.87	0.31
0.125	318.15	1005.05	0.32
0.15	298.15	1016.49	0.28
0.15	303.15	1013.83	0.29
0.15	308.15	1011.12	0.3
0.15	313.15	1008.36	0.31
0.15	318.15	1005.54	0.33
0.2	298.15	1017.45	0.28
0.2	303.15	1014.79	0.29
0.2	308.15	1012.08	0.3
0.2	313.15	1009.32	0.31
0.2	318.15	1006.5	0.32
0.25	298.15	1018.38	0.28
0.25	303.15	1015.72	0.29
0.25	308.15	1013.01	0.3
0.25	313.15	1010.25	0.32
0.25	318.15	1007.43	0.33
