Measured thermophysical data. Experiments and model for the surface tension of (MDEA + [Bmim][BF4]) and (MDEA + [Bmim][Br]) aqueous solutions
Source: J. Chem. Thermodyn., 2014, 10.1016/j.jct.2013.11.024
Compound 1: 1-butyl-3-methylimidazolium tetrafluoroborate, C8H15BF4N2, InChI=1S/C8H15N2.BF4/c1-3-4-5-10-7-6-9(2)8-10;2-1(3,4)5/h6-8H,3-5H2,1-2H3;/q+1;-1, purity 99%
Compound 2: 1-butyl-3-methylimidazolium bromide, C8H15BrN2, InChI=1S/C8H15N2.BrH/c1-3-4-5-10-7-6-9(2)8-10;/h6-8H,3-5H2,1-2H3;1H/q+1;/p-1, purity 99%
Compound 3: N-methyldiethanolamine, C5H13NO2, InChI=1S/C5H13NO2/c1-6(2-4-7)3-5-8/h7-8H,2-5H2,1H3, purity 99.5%
Compound 4: water, H2O, InChI=1S/H2O/h1H2

System: 1-butyl-3-methylimidazolium tetrafluoroborate; phases: Liquid, Air at 1 atmosphere
Property: Surface tension liquid-gas, N/m (Liquid); method: Wilhemy plate principle
Temperature, K	Surface tension liquid-gas, N/m	uncertainty
293.2	0.0448	0.001
303.2	0.0441	0.001
313.2	0.0435	0.001
323.2	0.0426	0.001

System: water + 1-butyl-3-methylimidazolium tetrafluoroborate; phases: Liquid, Air at 1 atmosphere
Property: Surface tension liquid-gas, N/m (Liquid); method: Wilhemy plate principle
Temperature, K	Mass fraction of 1-butyl-3-methylimidazolium tetrafluoroborate	Surface tension liquid-gas, N/m	uncertainty
293.2	0.05	0.0535	0.001
293.2	0.1	0.0486	0.001
293.2	0.2	0.0453	0.001
293.2	0.3	0.0455	0.001
293.2	0.4	0.0457	0.001
293.2	0.5	0.0458	0.001
293.2	0.6	0.046	0.001
293.2	0.7	0.0461	0.001
293.2	0.8	0.046	0.001
293.2	0.9	0.0457	0.001
293.2	1	0.0448	0.001
303.2	0.05	0.0529	0.001
303.2	0.1	0.0483	0.001
303.2	0.2	0.0452	0.001
303.2	0.3	0.0452	0.001
303.2	0.4	0.0455	0.001
303.2	0.5	0.0455	0.001
303.2	0.6	0.0456	0.001
303.2	0.7	0.0455	0.001
303.2	0.8	0.0452	0.001
303.2	0.9	0.0446	0.001
303.2	1	0.0441	0.001
313.2	0.05	0.0503	0.001
313.2	0.1	0.0475	0.001
313.2	0.2	0.0446	0.001
313.2	0.3	0.0449	0.001
313.2	0.4	0.0453	0.001
313.2	0.5	0.0451	0.001
313.2	0.6	0.0451	0.001
313.2	0.7	0.0442	0.001
313.2	0.8	0.0443	0.001
313.2	0.9	0.0438	0.001
313.2	1	0.0435	0.001
323.2	0.05	0.0485	0.001
323.2	0.1	0.0467	0.001
323.2	0.2	0.0426	0.001
323.2	0.3	0.0441	0.001
323.2	0.4	0.0448	0.001
323.2	0.5	0.0445	0.001
323.2	0.6	0.0443	0.001
323.2	0.7	0.0435	0.001
323.2	0.8	0.0434	0.001
323.2	0.9	0.043	0.001
323.2	1	0.0426	0.001

System: N-methyldiethanolamine + water + 1-butyl-3-methylimidazolium tetrafluoroborate; phases: Liquid, Air at 1 atmosphere
Property: Surface tension liquid-gas, N/m (Liquid); method: Wilhemy plate principle
Temperature, K	Mass fraction of N-methyldiethanolamine	Mass fraction of 1-butyl-3-methylimidazolium tetrafluoroborate	Surface tension liquid-gas, N/m	uncertainty
293.2	0.35	0.05	0.0514	0.001
293.2	0.35	0.1	0.0491	0.001
293.2	0.35	0.15	0.0476	0.001
293.2	0.4	0.05	0.0508	0.001
293.2	0.4	0.1	0.049	0.001
293.2	0.4	0.15	0.0475	0.001
293.2	0.45	0.05	0.0502	0.001
293.2	0.45	0.1	0.0484	0.001
293.2	0.45	0.15	0.0472	0.001
303.2	0.35	0.05	0.0498	0.001
303.2	0.35	0.1	0.0484	0.001
303.2	0.35	0.15	0.047	0.001
303.2	0.4	0.05	0.0495	0.001
303.2	0.4	0.1	0.048	0.001
303.2	0.4	0.15	0.0468	0.001
303.2	0.45	0.05	0.0487	0.001
303.2	0.45	0.1	0.0473	0.001
303.2	0.45	0.15	0.0463	0.001
313.2	0.35	0.05	0.0481	0.001
313.2	0.35	0.1	0.0467	0.001
313.2	0.35	0.15	0.046	0.001
313.2	0.4	0.05	0.0477	0.001
313.2	0.4	0.1	0.0465	0.001
313.2	0.4	0.15	0.0458	0.001
313.2	0.45	0.05	0.0468	0.001
313.2	0.45	0.1	0.0457	0.001
313.2	0.45	0.15	0.0446	0.001
323.2	0.35	0.05	0.0464	0.001
323.2	0.35	0.1	0.0454	0.001
323.2	0.35	0.15	0.0448	0.001
323.2	0.4	0.05	0.0458	0.001
323.2	0.4	0.1	0.0451	0.001
323.2	0.4	0.15	0.0444	0.001
323.2	0.45	0.05	0.0447	0.001
323.2	0.45	0.1	0.0441	0.001
323.2	0.45	0.15	0.0432	0.001

System: water + 1-butyl-3-methylimidazolium bromide; phases: Liquid, Air at 1 atmosphere
Property: Surface tension liquid-gas, N/m (Liquid); method: Wilhemy plate principle
Temperature, K	Mass fraction of 1-butyl-3-methylimidazolium bromide	Surface tension liquid-gas, N/m	uncertainty
293.2	0.05	0.0655	0.001
293.2	0.1	0.0644	0.001
293.2	0.15	0.0626	0.001
293.2	0.2	0.0612	0.001
293.2	0.3	0.0586	0.001
293.2	0.4	0.0549	0.001
293.2	0.5	0.0531	0.001
293.2	0.6	0.0508	0.001
293.2	0.7	0.0492	0.001
303.2	0.05	0.0644	0.001
303.2	0.1	0.0623	0.001
303.2	0.15	0.0595	0.001
303.2	0.2	0.0573	0.001
303.2	0.3	0.0542	0.001
303.2	0.4	0.0527	0.001
303.2	0.5	0.0515	0.001
303.2	0.6	0.0489	0.001
303.2	0.7	0.0474	0.001
313.2	0.05	0.0601	0.001
313.2	0.1	0.0589	0.001
313.2	0.15	0.0578	0.001
313.2	0.2	0.0561	0.001
313.2	0.3	0.0524	0.001
313.2	0.4	0.0512	0.001
313.2	0.5	0.0502	0.001
313.2	0.6	0.0468	0.001
313.2	0.7	0.0455	0.001
323.2	0.05	0.0585	0.001
323.2	0.1	0.0574	0.001
323.2	0.15	0.0561	0.001
323.2	0.2	0.0525	0.001
323.2	0.3	0.0501	0.001
323.2	0.4	0.0474	0.001
323.2	0.5	0.0467	0.001
323.2	0.6	0.0457	0.001
323.2	0.7	0.044	0.001

System: N-methyldiethanolamine + water + 1-butyl-3-methylimidazolium bromide; phases: Liquid, Air at 1 atmosphere
Property: Surface tension liquid-gas, N/m (Liquid); method: Wilhemy plate principle
Temperature, K	Mass fraction of N-methyldiethanolamine	Mass fraction of 1-butyl-3-methylimidazolium bromide	Surface tension liquid-gas, N/m	uncertainty
293.2	0.35	0.05	0.0529	0.001
293.2	0.35	0.1	0.052	0.001
293.2	0.35	0.15	0.0514	0.001
293.2	0.4	0.05	0.0519	0.001
293.2	0.4	0.1	0.0511	0.001
293.2	0.4	0.15	0.0499	0.001
293.2	0.45	0.05	0.0508	0.001
293.2	0.45	0.1	0.0498	0.001
293.2	0.45	0.15	0.0486	0.001
303.2	0.35	0.05	0.0511	0.001
303.2	0.35	0.1	0.05	0.001
303.2	0.35	0.15	0.0488	0.001
303.2	0.4	0.05	0.05	0.001
303.2	0.4	0.1	0.0492	0.001
303.2	0.4	0.15	0.0477	0.001
303.2	0.45	0.05	0.0487	0.001
303.2	0.45	0.1	0.0476	0.001
303.2	0.45	0.15	0.0468	0.001
313.2	0.35	0.05	0.0486	0.001
313.2	0.35	0.1	0.0478	0.001
313.2	0.35	0.15	0.0473	0.001
313.2	0.4	0.05	0.0481	0.001
313.2	0.4	0.1	0.0471	0.001
313.2	0.4	0.15	0.0462	0.001
313.2	0.45	0.05	0.0466	0.001
313.2	0.45	0.1	0.0459	0.001
313.2	0.45	0.15	0.0449	0.001
323.2	0.35	0.05	0.0464	0.001
323.2	0.35	0.1	0.046	0.001
323.2	0.35	0.15	0.0452	0.001
323.2	0.4	0.05	0.0459	0.001
323.2	0.4	0.1	0.0454	0.001
323.2	0.4	0.15	0.0446	0.001
323.2	0.45	0.05	0.0443	0.001
323.2	0.45	0.1	0.0439	0.001
323.2	0.45	0.15	0.0431	0.001
