Measured thermophysical data. Liquid density of oxygenated additive 2-propanol at pressures up to 140 MPa and from 293.15 K to 403.15 K
Source: J. Chem. Thermodyn., 2012, 10.1016/j.jct.2012.05.016
Compound 1: propan-2-ol, C3H8O, InChI=1S/C3H8O/c1-3(2)4/h3-4H,1-2H3, purity 99.9%

System: propan-2-ol; phases: Liquid
Property: Mass density, kg/m3 (Liquid); method: Vibrating tube method
Temperature, K	Pressure, kPa	Mass density, kg/m3	uncertainty
293.15	100	785	1
293.15	10000	793.2	1
293.15	20000	800.6	1
293.15	30000	807.4	1
293.15	40000	813.7	1.1
293.15	50000	819.6	1.1
293.15	60000	825.1	1.1
293.15	70000	830.4	1.1
293.15	80000	835.3	1.1
293.15	90000	840.1	1.2
293.15	100000	844.6	1.2
293.15	110000	848.9	1.2
293.15	120000	853.1	1.2
293.15	130000	857.1	1.2
293.15	140000	861	1.3
303.15	100	776.6	1
303.15	10000	785.3	1
303.15	20000	793.3	1
303.15	30000	800.2	1
303.15	40000	806.9	1.1
303.15	50000	813.1	1.1
303.15	60000	818.9	1.1
303.15	70000	824.3	1.1
303.15	80000	829.1	1.2
303.15	90000	834.2	1.2
303.15	100000	838.8	1.2
303.15	110000	843.1	1.2
303.15	120000	847.3	1.2
303.15	130000	851.4	1.3
303.15	140000	855.2	1.3
313.15	100	767.8	1
313.15	10000	777.1	1
313.15	20000	785.4	1
313.15	30000	792.9	1.1
313.15	40000	799.8	1.1
313.15	50000	806.2	1.1
313.15	60000	812.1	1.1
313.15	70000	817.6	1.1
313.15	80000	822.8	1.2
313.15	90000	827.8	1.2
313.15	100000	832.6	1.2
313.15	110000	837.3	1.2
313.15	120000	841.5	1.3
313.15	130000	845.8	1.3
313.15	140000	849.7	1.3
323.15	100	758.7	1
323.15	10000	768.6	1
323.15	20000	777.3	1
323.15	30000	785.2	1.1
323.15	40000	792.4	1.1
323.15	50000	799	1
323.15	60000	805.2	1.1
323.15	70000	811	1.1
323.15	80000	816.4	1.2
323.15	90000	821.6	1.2
323.15	100000	826.6	1.2
323.15	110000	831.3	1.2
323.15	120000	835.7	1.3
323.15	130000	840	1.3
323.15	140000	844.2	1.3
333.15	100	749.2	1
333.15	10000	759.7	1
333.15	20000	769.1	1
333.15	30000	777.4	1.1
333.15	40000	785	1
333.15	50000	792	1
333.15	60000	798.5	1.1
333.15	70000	804.5	1.2
333.15	80000	810.1	1.2
333.15	90000	815.6	1.2
333.15	100000	820.6	1.2
333.15	110000	825.4	1.3
333.15	120000	830	1.3
333.15	130000	834.4	1.3
333.15	140000	838.5	1.3
343.15	100	738.8	1
343.15	10000	750.2	1
343.15	20000	760.1	1
343.15	30000	768.8	1.1
343.15	40000	776.8	1.1
343.15	50000	784.1	1.1
343.15	60000	790.9	1.1
343.15	70000	797.1	1.2
343.15	80000	803	1.2
343.15	90000	808.6	1.2
343.15	100000	813.9	1.3
343.15	110000	818.9	1.3
343.15	120000	823.8	1.3
343.15	130000	828.3	1.3
343.15	140000	832.7	1.4
353.15	100	728.3	1
353.15	10000	740.5	1
353.15	20000	751.1	1
353.15	30000	760.6	1.1
353.15	40000	768.9	1.1
353.15	50000	776.6	1.1
353.15	60000	783.7	1.2
353.15	70000	790.3	1.2
353.15	80000	796.4	1.2
353.15	90000	802.1	1.2
353.15	100000	807.5	1.3
353.15	110000	812.6	1.3
353.15	120000	817.5	1.3
353.15	130000	822.3	1.4
353.15	140000	826.7	1.4
363.15	10000	730.2	1
363.15	20000	741.7	1
363.15	30000	751.7	1.1
363.15	40000	760.6	1.1
363.15	50000	768.7	1.1
363.15	60000	776	1.2
363.15	70000	782.8	1.2
363.15	80000	789.2	1.2
363.15	90000	795.2	1.3
363.15	100000	800.8	1.3
363.15	110000	806.2	1.3
363.15	120000	811.3	1.3
363.15	130000	816.2	1.4
363.15	140000	820.8	1.4
373.15	10000	719.5	1
373.15	20000	731.9	1.1
373.15	30000	742.6	1.1
373.15	40000	752.1	1.1
373.15	50000	760.5	1.1
373.15	60000	768.2	1.2
373.15	70000	775.4	1.2
373.15	80000	782.1	1.2
373.15	90000	788.4	1.3
373.15	100000	794.2	1.3
373.15	110000	799.8	1.3
373.15	120000	805	1.4
373.15	130000	810	1.4
373.15	140000	814.7	1.4
383.15	10000	708	1
383.15	20000	721.5	1.1
383.15	30000	732.9	1.1
383.15	40000	743.1	1.1
383.15	50000	752	1.1
383.15	60000	760.1	1.2
383.15	70000	767.6	1.2
383.15	80000	774.6	1.2
383.15	90000	781	1.3
383.15	100000	787.1	1.3
383.15	110000	792.8	1.4
383.15	120000	798.3	1.4
383.15	130000	803.5	1.4
383.15	140000	808.5	1.4
393.15	10000	696.3	1
393.15	20000	710.9	1.1
393.15	30000	723.2	1.1
393.15	40000	733.7	1.1
393.15	50000	743.1	1.2
393.15	60000	751.7	1.2
393.15	70000	759.6	1.2
393.15	80000	766.6	1.3
393.15	90000	773.6	1.3
393.15	100000	779.9	1.3
393.15	110000	785.9	1.4
393.15	120000	791.5	1.4
393.15	130000	796.8	1.4
393.15	140000	801.6	1.5
403.15	10000	683.7	1
403.15	20000	699.5	1.1
403.15	30000	712.8	1.1
403.15	40000	724.1	1.1
403.15	50000	734.2	1.2
403.15	60000	743.2	1.2
403.15	70000	751.4	1.2
403.15	80000	758.9	1.3
403.15	90000	766	1.3
403.15	100000	772.5	1.4
403.15	110000	778.7	1.4
403.15	120000	784.5	1.4
403.15	130000	790.1	1.5
403.15	140000	795.4	1.5
