Measured thermophysical data. Salting-out effect of NaCl and KCl on the ternary LLE data for the systems of (water + propionic acid + isopropyl methyl ketone) and of (water + propionic acid + isobutyl methyl ketone)
Source: J. Chem. Thermodyn., 2004, 10.1016/j.jct.2003.11.011
Compound 1: propanoic acid, C3H6O2, InChI=1S/C3H6O2/c1-2-3(4)5/h2H2,1H3,(H,4,5), purity 99%
Compound 2: 3-methyl-2-butanone, C5H10O, InChI=1S/C5H10O/c1-4(2)5(3)6/h4H,1-3H3, purity 98%
Compound 3: 4-methylpentan-2-one, C6H12O, InChI=1S/C6H12O/c1-5(2)4-6(3)7/h5H,4H2,1-3H3, purity 99%
Compound 4: water, H2O, InChI=1S/H2O/h1H2

System: propanoic acid + 3-methyl-2-butanone + water; phases: Liquid mixture 1, Liquid mixture 2
Fixed: Pressure, kPa = 101.3
Property: Mass fraction of propanoic acid (Liquid mixture 1); method: TITR:UFactor:2
Property: Mass fraction of 3-methyl-2-butanone (Liquid mixture 2); method: TITR:UFactor:2
Property: Mass fraction of propanoic acid (Liquid mixture 2); method: TITR:UFactor:2
Temperature, K	Mass fraction of 3-methyl-2-butanone	Mass fraction of propanoic acid	uncertainty	Mass fraction of 3-methyl-2-butanone	uncertainty	Mass fraction of propanoic acid	uncertainty
303.15	0.9515	0	0.01	0.0465	0.0037	0	
303.15	0.9019	0.0362	0.0029	0.0523	0.0042	0.0122	
303.15	0.8178	0.1048	0.0084	0.0533	0.0043	0.0323	
303.15	0.7104	0.1819	0.0146	0.0542	0.0043	0.061	
303.15	0.6131	0.2551	0.0204	0.0563	0.0045	0.0949	
303.15	0.5061	0.3132	0.0251	0.0681	0.0054	0.1312	
303.15	0.3452	0.3387	0.0271	0.0874	0.007	0.1876	
313.15	0.9518	0	0.01	0.0457	0.0037	0	
313.15	0.8953	0.0333	0.0027	0.052	0.004	0.0112	
313.15	0.8266	0.0967	0.0077	0.0522	0.0042	0.0302	
313.15	0.7269	0.178	0.014	0.0554	0.0044	0.0594	
313.15	0.6371	0.2478	0.0198	0.0611	0.0049	0.0927	
313.15	0.4912	0.317	0.025	0.0699	0.0056	0.1327	
313.15	0.3407	0.3373	0.027	0.0946	0.0076	0.1793	
323.15	0.953	0	0.01	0.0447	0.0036	0	
323.15	0.8911	0.036	0.003	0.0532	0.0043	0.0118	
323.15	0.8228	0.0968	0.0077	0.0534	0.0043	0.0322	
323.15	0.7209	0.1808	0.0145	0.0541	0.0043	0.0609	
323.15	0.6041	0.248	0.02	0.0621	0.005	0.1014	
323.15	0.4912	0.2995	0.024	0.0734	0.0059	0.1317	
323.15	0.3313	0.3365	0.0269	0.1012	0.0081	0.1873	

System: propanoic acid + 4-methylpentan-2-one + water; phases: Liquid mixture 1, Liquid mixture 2
Fixed: Pressure, kPa = 101.3
Property: Mass fraction of propanoic acid (Liquid mixture 1); method: TITR:UFactor:2
Property: Mass fraction of 4-methylpentan-2-one (Liquid mixture 2); method: TITR:UFactor:2
Property: Mass fraction of propanoic acid (Liquid mixture 2); method: TITR:UFactor:2
Temperature, K	Mass fraction of 4-methylpentan-2-one	Mass fraction of propanoic acid	uncertainty	Mass fraction of 4-methylpentan-2-one	uncertainty	Mass fraction of propanoic acid	uncertainty
303.15	0.9807	0	0.0001	0.0137	0.0022	0	
303.15	0.9285	0.0507	0.0041	0.014	0.0022	0.014	
303.15	0.877	0.0853	0.0068	0.017	0.0027	0.0317	
303.15	0.767	0.1647	0.0132	0.0186	0.003	0.0641	
303.15	0.5788	0.3042	0.0243	0.022	0.0035	0.1239	
303.15	0.3888	0.4005	0.032	0.0362	0.0058	0.2006	
303.15	0.1996	0.3903	0.0312	0.1052	0.0168	0.3295	
313.15	0.9806	0	0.0001	0.014	0.0022	0	
313.15	0.9293	0.0492	0.0039	0.0141	0.0023	0.0135	
313.15	0.8791	0.0943	0.0075	0.0143	0.0023	0.0354	
313.15	0.7907	0.1685	0.0135	0.0167	0.0027	0.0662	
313.15	0.6914	0.2494	0.02	0.0186	0.003	0.1009	
313.15	0.5768	0.3141	0.0251	0.0215	0.0034	0.1273	
313.15	0.4668	0.3746	0.03	0.0273	0.0044	0.174	
323.15	0.9802	0	0.0001	0.0142	0.0023	0	
323.15	0.9336	0.0459	0.0037	0.0143	0.0023	0.0138	
323.15	0.802	0.1622	0.013	0.0187	0.003	0.0643	
323.15	0.7059	0.2389	0.0191	0.019	0.003	0.0959	
323.15	0.621	0.2969	0.0238	0.0205	0.0033	0.127	
323.15	0.4684	0.3574	0.0286	0.0264	0.0042	0.1641	
323.15	0.8932	0.085	0.0068	0.0145	0.0023	0.033	
