Measured thermophysical data. Experimental and modeling study of liquid phase equilibria for (water + phosphoric acid + sec-alcohols) systems
Source: J. Chem. Thermodyn., 2019, 10.1016/j.jct.2019.04.005
Compound 1: pentan-2-ol, C5H12O, InChI=1S/C5H12O/c1-3-4-5(2)6/h5-6H,3-4H2,1-2H3, purity 98%
Compound 2: 4-methyl-2-pentanol, C6H14O, InChI=1S/C6H14O/c1-5(2)4-6(3)7/h5-7H,4H2,1-3H3, purity 98%
Compound 3: water, H2O, InChI=1S/H2O/h1H2
Compound 4: phosphoric acid, H3O4P, InChI=1S/H3O4P/c1-5(2,3)4/h(H3,1,2,3,4), purity 99.9%

System: pentan-2-ol; phases: Liquid
Property: Refractive index (Na D-line) (Liquid); method: Standard Abbe refractometry
Temperature, K	Pressure, kPa	Refractive index (Na D-line)	uncertainty
298.2	101.325	1.4049	0.003

System: pentan-2-ol; phases: Liquid
Property: Mass density, kg/m3 (Liquid); method: Vibrating tube method
Temperature, K	Pressure, kPa	Mass density, kg/m3	uncertainty
298.2	101.325	805.3	2.09

System: 4-methyl-2-pentanol; phases: Liquid
Property: Refractive index (Na D-line) (Liquid); method: Standard Abbe refractometry
Temperature, K	Pressure, kPa	Refractive index (Na D-line)	uncertainty
298.2	101.325	1.4101	0.003

System: 4-methyl-2-pentanol; phases: Liquid
Property: Mass density, kg/m3 (Liquid); method: Vibrating tube method
Temperature, K	Pressure, kPa	Mass density, kg/m3	uncertainty
298.2	101.325	803.77	2.09

System: water; phases: Liquid
Property: Refractive index (Na D-line) (Liquid); method: Standard Abbe refractometry
Temperature, K	Pressure, kPa	Refractive index (Na D-line)	uncertainty
298.2	101.325	1.3325	0.003

System: water; phases: Liquid
Property: Mass density, kg/m3 (Liquid); method: Vibrating tube method
Temperature, K	Pressure, kPa	Mass density, kg/m3	uncertainty
298.2	101.325	997.01	2.01

System: phosphoric acid + water; phases: Liquid
Property: Refractive index (Na D-line) (Liquid); method: Standard Abbe refractometry
Mass fraction of phosphoric acid	Temperature, K	Pressure, kPa	Refractive index (Na D-line)	uncertainty
0.85	298.2	100	1.432	0.003

System: phosphoric acid + water; phases: Liquid
Property: Mass density, kg/m3 (Liquid); method: Vibrating tube method
Mass fraction of phosphoric acid	Temperature, K	Pressure, kPa	Mass density, kg/m3	uncertainty
0.85	298.2	100	1682.7	2.2

System: pentan-2-ol + phosphoric acid + water; phases: Liquid mixture 1, Liquid mixture 2
Fixed: Pressure, kPa = 100
Property: Mass fraction of phosphoric acid (Liquid mixture 1); method: Titration method
Temperature, K	Mass fraction of water	Mass fraction of phosphoric acid	uncertainty
298.2	0.9576	0	
298.2	0.8985	0.0603	0.0101
298.2	0.8156	0.1461	0.0108
298.2	0.7177	0.2436	0.0121
298.2	0.6248	0.3442	0.014
298.2	0.4862	0.483	0.0169
298.2	0.3871	0.5816	0.0155
298.2	0.2454	0.7237	0.0127
298.2	0.2101	0.7236	0.0127
298.2	0.1619	0.656	0.014
298.2	0.1525	0.626	0.0146
298.2	0.1246	0.518	0.0169
298.2	0.1141	0.4414	0.016
298.2	0.1052	0.3099	0.0133
298.2	0.096	0.2312	0.0119
298.2	0.0887	0.1491	0.0109
298.2	0.094	0.0468	0.0101
298.2	0.1067	0	
308.2	0.9599	0	
308.2	0.9095	0.0498	0.0101
308.2	0.8133	0.1542	0.0109
308.2	0.7184	0.2527	0.0123
308.2	0.627	0.344	0.014
308.2	0.4827	0.4885	0.0171
308.2	0.3874	0.584	0.0154
308.2	0.2474	0.7168	0.0128
308.2	0.2043	0.7036	0.013
308.2	0.1731	0.6616	0.0138
308.2	0.1499	0.627	0.0145
308.2	0.1234	0.5299	0.0166
308.2	0.1135	0.4445	0.0161
308.2	0.1003	0.3197	0.0135
308.2	0.0957	0.2263	0.0119
308.2	0.092	0.1452	0.0108
308.2	0.0915	0.0593	0.0101
308.2	0.109	0	
318.2	0.9593	0	
318.2	0.9075	0.0539	0.0101
318.2	0.8139	0.1532	0.0109
318.2	0.7199	0.2513	0.0123
318.2	0.6261	0.3451	0.014
318.2	0.491	0.4804	0.0169
318.2	0.3934	0.5776	0.0156
318.2	0.2402	0.7119	0.0129
318.2	0.1705	0.6663	0.0138
318.2	0.1637	0.657	0.0139
318.2	0.1458	0.6297	0.0145
318.2	0.1291	0.5215	0.0168
318.2	0.1193	0.4452	0.0161
318.2	0.1078	0.3137	0.0134
318.2	0.1056	0.2216	0.0118
318.2	0.0896	0.1373	0.0107
318.2	0.0916	0.0651	0.0102
318.2	0.1122	0	

System: pentan-2-ol + phosphoric acid + water; phases: Liquid mixture 2, Liquid mixture 1
Fixed: Pressure, kPa = 100
Property: Mass fraction of water (Liquid mixture 2); method: Titration method
Property: Mass fraction of phosphoric acid (Liquid mixture 1); method: Titration method
Property: Mass fraction of water (Liquid mixture 1); method: Titration method
Temperature, K	Mass fraction of phosphoric acid	Mass fraction of water	uncertainty	Mass fraction of phosphoric acid	uncertainty	Mass fraction of water	uncertainty
298.2	0.017	0.096	0.01	0.144	0.011	0.818	
298.2	0.038	0.098	0.01	0.228	0.012	0.736	
298.2	0.066	0.097	0.01	0.289	0.013	0.68	
298.2	0.096	0.096	0.01	0.339	0.014	0.628	
298.2	0.122	0.089	0.01	0.38	0.015	0.587	
298.2	0.15	0.087	0.01	0.414	0.015	0.552	
308.2	0.019	0.095	0.01	0.154	0.011	0.808	
308.2	0.039	0.101	0.01	0.244	0.012	0.725	
308.2	0.066	0.096	0.01	0.298	0.013	0.674	
308.2	0.098	0.093	0.01	0.348	0.014	0.622	
308.2	0.132	0.091	0.01	0.4	0.015	0.569	
308.2	0.158	0.091	0.01	0.435	0.016	0.535	
318.2	0.018	0.098	0.01	0.15	0.011	0.814	
318.2	0.039	0.101	0.01	0.233	0.012	0.741	
318.2	0.068	0.097	0.01	0.297	0.013	0.676	
318.2	0.098	0.094	0.01	0.356	0.014	0.617	
318.2	0.123	0.092	0.01	0.393	0.015	0.575	
318.2	0.153	0.09	0.01	0.429	0.016	0.537	

System: 4-methyl-2-pentanol + phosphoric acid + water; phases: Liquid mixture 1, Liquid mixture 2
Fixed: Pressure, kPa = 100
Property: Mass fraction of phosphoric acid (Liquid mixture 1); method: Titration method
Temperature, K	Mass fraction of water	Mass fraction of phosphoric acid	uncertainty
298.2	0.9864	0	
298.2	0.918	0.0686	0.0102
298.2	0.8833	0.1032	0.0104
298.2	0.7308	0.2576	0.0124
298.2	0.6493	0.3391	0.0139
298.2	0.5033	0.4852	0.017
298.2	0.4001	0.5884	0.0153
298.2	0.2489	0.7395	0.0124
298.2	0.2078	0.7808	0.0118
298.2	0.0356	0.7675	0.012
298.2	0.0286	0.7184	0.0128
298.2	0.029	0.5825	0.0155
298.2	0.0282	0.4814	0.0169
298.2	0.0282	0.3473	0.014
298.2	0.0352	0.2577	0.0124
298.2	0.0418	0.1534	0.0109
298.2	0.0483	0.0604	0.0101
298.2	0.0514	0	
308.2	0.9845	0	
308.2	0.9308	0.0537	0.0101
308.2	0.8306	0.1539	0.0109
308.2	0.7266	0.258	0.0124
308.2	0.6388	0.3455	0.014
308.2	0.4995	0.4833	0.0169
308.2	0.4022	0.5803	0.0155
308.2	0.256	0.7266	0.0126
308.2	0.1928	0.7898	0.0116
308.2	0.0355	0.7704	0.0119
308.2	0.0286	0.7164	0.0128
308.2	0.0286	0.5721	0.0157
308.2	0.0283	0.4922	0.0171
308.2	0.0285	0.3458	0.014
308.2	0.0353	0.24	0.0121
308.2	0.0416	0.1088	0.0105
308.2	0.0459	0.0676	0.0102
308.2	0.0564	0	
318.2	0.9843	0	
318.2	0.9334	0.0511	0.0101
318.2	0.8297	0.1547	0.0109
318.2	0.7215	0.2631	0.0125
318.2	0.6433	0.3413	0.0139
318.2	0.4871	0.4954	0.0172
318.2	0.4015	0.5812	0.0155
318.2	0.2544	0.7282	0.0126
318.2	0.2077	0.7751	0.0119
318.2	0.0444	0.7484	0.0123
318.2	0.035	0.7191	0.0128
318.2	0.0361	0.5781	0.0156
318.2	0.0356	0.4787	0.0168
318.2	0.0377	0.3378	0.0138
318.2	0.0419	0.2514	0.0123
318.2	0.0463	0.1543	0.0109
318.2	0.0489	0.0521	0.0101
318.2	0.0585	0	

System: 4-methyl-2-pentanol + phosphoric acid + water; phases: Liquid mixture 2, Liquid mixture 1
Fixed: Pressure, kPa = 100
Property: Mass fraction of water (Liquid mixture 2); method: Titration method
Property: Mass fraction of phosphoric acid (Liquid mixture 1); method: Titration method
Property: Mass fraction of water (Liquid mixture 1); method: Titration method
Temperature, K	Mass fraction of phosphoric acid	Mass fraction of water	uncertainty	Mass fraction of phosphoric acid	uncertainty	Mass fraction of water	uncertainty
298.2	0.008	0.047	0.01	0.144	0.011	0.843	
298.2	0.018	0.047	0.01	0.198	0.011	0.789	
298.2	0.034	0.047	0.01	0.25	0.012	0.737	
298.2	0.045	0.048	0.01	0.309	0.013	0.678	
298.2	0.088	0.048	0.01	0.411	0.015	0.576	
298.2	0.127	0.048	0.01	0.477	0.017	0.511	
308.2	0.011	0.049	0.01	0.153	0.011	0.828	
308.2	0.019	0.053	0.01	0.21	0.012	0.773	
308.2	0.028	0.056	0.01	0.26	0.012	0.724	
308.2	0.043	0.05	0.01	0.312	0.013	0.672	
308.2	0.081	0.046	0.01	0.383	0.015	0.599	
308.2	0.12	0.042	0.01	0.469	0.017	0.512	
318.2	0.012	0.049	0.01	0.159	0.011	0.824	
318.2	0.02	0.049	0.01	0.205	0.012	0.778	
318.2	0.034	0.048	0.01	0.267	0.013	0.716	
318.2	0.049	0.049	0.01	0.315	0.013	0.667	
318.2	0.086	0.048	0.01	0.401	0.015	0.577	
318.2	0.125	0.047	0.01	0.475	0.017	0.501	

System: pentan-2-ol + water; phases: Liquid mixture 1, Liquid mixture 2
Fixed: Pressure, kPa = 100
Property: Mass fraction of water (Liquid mixture 1); method: Titration method
Temperature, K	Mass fraction of water	uncertainty
298.2	0.9576	0.01
298.2	0.1067	0.0198
308.2	0.9599	0.01
308.2	0.109	0.0101
318.2	0.9593	0.01
318.2	0.1122	0.0197

System: 4-methyl-2-pentanol + water; phases: Liquid mixture 1, Liquid mixture 2
Fixed: Pressure, kPa = 100
Property: Mass fraction of water (Liquid mixture 1); method: Titration method
Temperature, K	Mass fraction of water	uncertainty
298.2	0.9864	0.01
298.2	0.0514	0.0212
308.2	0.9845	0.01
308.2	0.0564	0.01
318.2	0.9843	0.01
318.2	0.0585	0.0211
