Measured thermophysical data. Thermodynamic study of (alkyl esters + a,x-alkyl dihalides)III. HE m and V E m for 20 binary mixtures {xCu-1H2u-1CO2C4H9 + (1 - x)a,x-ClCH2(CH2)v-2CH2Cl}, where u = 1 to 4, a = 1 and v = x = 2 to 6
Source: J. Chem. Thermodyn., 2006, 10.1016/j.jct.2005.11.003
Compound 1: butyl methanoate, C5H10O2, InChI=1S/C5H10O2/c1-2-3-4-7-5-6/h5H,2-4H2,1H3, purity 97%
Compound 2: butyl propanoate, C7H14O2, InChI=1S/C7H14O2/c1-3-5-6-9-7(8)4-2/h3-6H2,1-2H3, purity 99%
Compound 3: butyl ethanoate, C6H12O2, InChI=1S/C6H12O2/c1-3-4-5-8-6(2)7/h3-5H2,1-2H3, purity 98.5%
Compound 4: butyl butanoate, C8H16O2, InChI=1S/C8H16O2/c1-3-5-7-10-8(9)6-4-2/h3-7H2,1-2H3, purity 99%
Compound 5: 1,2-dichloroethane, C2H4Cl2, InChI=1S/C2H4Cl2/c3-1-2-4/h1-2H2, purity 99.5%
Compound 6: 1,3-dichloropropane, C3H6Cl2, InChI=1S/C3H6Cl2/c4-2-1-3-5/h1-3H2, purity 99%
Compound 7: 1,4-dichlorobutane, C4H8Cl2, InChI=1S/C4H8Cl2/c5-3-1-2-4-6/h1-4H2, purity 99%
Compound 8: 1,5-dichloropentane, C5H10Cl2, InChI=1S/C5H10Cl2/c6-4-2-1-3-5-7/h1-5H2, purity 99%
Compound 9: 1,6-dichlorohexane, C6H12Cl2, InChI=1S/C6H12Cl2/c7-5-3-1-2-4-6-8/h1-6H2, purity 98%

System: butyl methanoate; phases: Liquid
Property: Refractive index (Na D-line) (Liquid); method: ABBE:UFactor:2
Temperature, K	Pressure, kPa	Refractive index (Na D-line)	uncertainty
298.15	101.325	1.387	0.0012

System: butyl methanoate; phases: Liquid
Property: Mass density, kg/m3 (Liquid); method: VIBTUB:UFactor:8
Temperature, K	Pressure, kPa	Mass density, kg/m3	uncertainty
298.15	101.325	888.17	1.58

System: butyl propanoate; phases: Liquid
Property: Refractive index (Na D-line) (Liquid); method: ABBE:UFactor:2
Temperature, K	Pressure, kPa	Refractive index (Na D-line)	uncertainty
298.15	101.325	1.399	0.001

System: butyl propanoate; phases: Liquid
Property: Mass density, kg/m3 (Liquid); method: VIBTUB:UFactor:8
Temperature, K	Pressure, kPa	Mass density, kg/m3	uncertainty
298.15	101.325	871.08	0.96

System: butyl ethanoate; phases: Liquid
Property: Refractive index (Na D-line) (Liquid); method: ABBE:UFactor:2
Temperature, K	Pressure, kPa	Refractive index (Na D-line)	uncertainty
298.15	101.325	1.3918	0.001

System: butyl ethanoate; phases: Liquid
Property: Mass density, kg/m3 (Liquid); method: VIBTUB:UFactor:8
Temperature, K	Pressure, kPa	Mass density, kg/m3	uncertainty
298.15	101.325	876.4	1.07

System: butyl butanoate; phases: Liquid
Property: Refractive index (Na D-line) (Liquid); method: ABBE:UFactor:2
Temperature, K	Pressure, kPa	Refractive index (Na D-line)	uncertainty
298.15	101.325	1.404	0.001

System: butyl butanoate; phases: Liquid
Property: Mass density, kg/m3 (Liquid); method: VIBTUB:UFactor:8
Temperature, K	Pressure, kPa	Mass density, kg/m3	uncertainty
298.15	101.325	864.84	0.98

System: 1,2-dichloroethane + butyl methanoate; phases: Liquid
Fixed: Pressure, kPa = 101
Fixed: Temperature, K = 298.15
Property: Excess molar enthalpy (molar enthalpy of mixing), kJ/mol (Liquid); method: CALVET:UFactor:4
Mole fraction of butyl methanoate	Excess molar enthalpy (molar enthalpy of mixing), kJ/mol	uncertainty
0.0384	0.0072	0.0033
0.0884	0.0032	0.0032
0.1406	-0.0158	0.0036
0.2002	-0.0433	0.0044
0.254	-0.0755	0.0054
0.3052	-0.1087	0.0065
0.35	-0.1377	0.0074
0.3874	-0.162	0.0081
0.4396	-0.1826	0.0088
0.4751	-0.1962	0.0092
0.5277	-0.2049	0.0094
0.5938	-0.1899	0.009
0.6645	-0.1812	0.0087
0.741	-0.16	0.0081
0.8303	-0.1215	0.0069
0.9138	-0.0737	0.0054

System: 1,2-dichloroethane + butyl methanoate; phases: Liquid
Fixed: Pressure, kPa = 101
Fixed: Temperature, K = 298.15
Property: Mass density, kg/m3 (Liquid); method: VIBTUB:UFactor:4
Mole fraction of butyl methanoate	Mass density, kg/m3	uncertainty
0.0423	1223.68	0.61
0.0859	1202	0.62
0.1303	1180.75	0.64
0.1772	1159.35	0.67
0.2251	1138.25	0.7
0.2748	1117.45	0.74
0.3271	1096.31	0.78
0.382	1075.28	0.83
0.4376	1054.83	0.88
0.497	1034.05	0.93
0.5604	1012.84	0.99
0.6255	992.02	1.05
0.6925	971.62	1.12
0.7638	950.97	1.19
0.8379	930.45	1.26
0.9173	909.53	1.33

System: 1,3-dichloropropane + butyl methanoate; phases: Liquid
Fixed: Pressure, kPa = 101
Fixed: Temperature, K = 298.15
Property: Excess molar enthalpy (molar enthalpy of mixing), kJ/mol (Liquid); method: CALVET:UFactor:4
Mole fraction of butyl methanoate	Excess molar enthalpy (molar enthalpy of mixing), kJ/mol	uncertainty
0.046	0.0124	0.0035
0.0992	0.0176	0.0036
0.1566	0.0147	0.0036
0.2391	0.0064	0.0033
0.2953	-0.0041	0.0032
0.3467	-0.0164	0.0036
0.3972	-0.0344	0.0042
0.4442	-0.0544	0.0048
0.4874	-0.073	0.0054
0.5293	-0.0858	0.0058
0.5696	-0.0893	0.0059
0.6134	-0.0916	0.0059
0.6636	-0.0909	0.0059
0.7143	-0.0893	0.0059
0.7798	-0.0804	0.0056
0.8596	-0.0594	0.0049
0.9334	-0.0327	0.0041

System: 1,3-dichloropropane + butyl methanoate; phases: Liquid
Fixed: Pressure, kPa = 101
Fixed: Temperature, K = 298.15
Property: Mass density, kg/m3 (Liquid); method: VIBTUB:UFactor:4
Mole fraction of butyl methanoate	Mass density, kg/m3	uncertainty
0.0501	1161.72	0.75
0.101	1144.33	0.78
0.1527	1127.13	0.81
0.2078	1109.19	0.85
0.2601	1092.54	0.89
0.3145	1075.53	0.92
0.3712	1058.26	0.96
0.487	1024.07	1.04
0.6083	989.86	1.13
0.6701	973.02	1.18
0.7342	955.9	1.23
0.7984	939.11	1.27
0.8657	921.98	1.32
0.9315	905.54	1.36

System: 1,4-dichlorobutane + butyl methanoate; phases: Liquid
Fixed: Pressure, kPa = 101
Fixed: Temperature, K = 298.15
Property: Excess molar enthalpy (molar enthalpy of mixing), kJ/mol (Liquid); method: CALVET:UFactor:4
Mole fraction of butyl methanoate	Excess molar enthalpy (molar enthalpy of mixing), kJ/mol	uncertainty
0.049	0.0288	0.004
0.1112	0.0469	0.0046
0.1816	0.0572	0.0049
0.2472	0.0633	0.0051
0.3099	0.0576	0.0049
0.3701	0.0463	0.0045
0.4257	0.0328	0.0041
0.4725	0.0153	0.0036
0.5121	0.0003	0.0031
0.5471	-0.0099	0.0034
0.5819	-0.0217	0.0038
0.6245	-0.0346	0.0042
0.6718	-0.0435	0.0045
0.7351	-0.0513	0.0047
0.8039	-0.045	0.0045
0.8728	-0.0337	0.0042
0.9412	-0.0176	0.0037

System: 1,4-dichlorobutane + butyl methanoate; phases: Liquid
Fixed: Pressure, kPa = 101
Fixed: Temperature, K = 298.15
Property: Mass density, kg/m3 (Liquid); method: VIBTUB:UFactor:4
Mole fraction of butyl methanoate	Mass density, kg/m3	uncertainty
0.0582	1119.16	0.7
0.1167	1104.56	0.75
0.1724	1090.7	0.79
0.2316	1075.99	0.84
0.286	1062.54	0.88
0.345	1047.97	0.92
0.4055	1033.06	0.97
0.522	1004.48	1.06
0.5808	990.11	1.1
0.6408	975.5	1.15
0.6992	961.32	1.2
0.76	946.59	1.24
0.8183	932.5	1.28
0.8774	918.24	1.33
0.9363	904.07	1.37

System: butyl methanoate + 1,5-dichloropentane; phases: Liquid
Fixed: Pressure, kPa = 101
Fixed: Temperature, K = 298.15
Property: Excess molar enthalpy (molar enthalpy of mixing), kJ/mol (Liquid); method: CALVET:UFactor:4
Mole fraction of butyl methanoate	Excess molar enthalpy (molar enthalpy of mixing), kJ/mol	uncertainty
0.069	0.0472	0.0046
0.1384	0.0749	0.0054
0.2122	0.0962	0.0061
0.2809	0.1047	0.0063
0.3459	0.1046	0.0063
0.4058	0.0973	0.0061
0.4619	0.0857	0.0058
0.4922	0.0701	0.0053
0.5374	0.0519	0.0047
0.5877	0.0466	0.0045
0.6417	0.0345	0.0042
0.7001	0.0305	0.0041
0.7618	0.0239	0.0038
0.8234	0.0153	0.0036
0.8876	0.0086	0.0034
0.9487	0.0044	0.0032

System: butyl methanoate + 1,5-dichloropentane; phases: Liquid
Fixed: Pressure, kPa = 101
Fixed: Temperature, K = 298.15
Property: Mass density, kg/m3 (Liquid); method: VIBTUB:UFactor:4
Mole fraction of butyl methanoate	Mass density, kg/m3	uncertainty
0.0616	1083.81	0.67
0.126	1071.76	0.72
0.1909	1059.46	0.77
0.2522	1047.68	0.82
0.3138	1035.64	0.88
0.3757	1023.39	0.93
0.4364	1011.18	0.98
0.4966	998.9	1.02
0.5548	986.84	1.07
0.6137	974.47	1.12
0.6701	962.48	1.17
0.7247	950.68	1.21
0.7822	938.09	1.25
0.8374	925.86	1.3
0.8906	913.92	1.33
0.9443	901.66	1.37

System: butyl methanoate + 1,6-dichlorohexane; phases: Liquid
Fixed: Pressure, kPa = 101
Fixed: Temperature, K = 298.15
Property: Excess molar enthalpy (molar enthalpy of mixing), kJ/mol (Liquid); method: CALVET:UFactor:4
Mole fraction of butyl methanoate	Excess molar enthalpy (molar enthalpy of mixing), kJ/mol	uncertainty
0.0701	0.0539	0.0048
0.1508	0.0949	0.006
0.2299	0.1246	0.007
0.3026	0.1389	0.0074
0.371	0.1416	0.0075
0.434	0.1349	0.0073
0.491	0.1216	0.0069
0.5401	0.1065	0.0064
0.5778	0.0923	0.006
0.6131	0.0835	0.0057
0.6659	0.0722	0.0053
0.7195	0.0668	0.0052
0.7775	0.0573	0.0049
0.8372	0.0441	0.0045
0.8968	0.029	0.004
0.9528	0.0131	0.0035

System: butyl methanoate + 1,6-dichlorohexane; phases: Liquid
Fixed: Pressure, kPa = 101
Fixed: Temperature, K = 298.15
Property: Mass density, kg/m3 (Liquid); method: VIBTUB:UFactor:4
Mole fraction of butyl methanoate	Mass density, kg/m3	uncertainty
0.0782	1052.81	1.14
0.1483	1042.74	1.16
0.2157	1032.73	1.18
0.2827	1022.46	1.21
0.3478	1012.18	1.23
0.4104	1002.02	1.24
0.5319	981.37	1.28
0.5893	971.18	1.3
0.6457	960.88	1.32
0.7539	940.28	1.35
0.8053	930.03	1.36
0.9044	909.61	1.39
0.9513	899.53	1.4

System: 1,2-dichloroethane + butyl propanoate; phases: Liquid
Fixed: Pressure, kPa = 101
Fixed: Temperature, K = 298.15
Property: Mass density, kg/m3 (Liquid); method: VIBTUB:UFactor:4
Mole fraction of butyl propanoate	Mass density, kg/m3	uncertainty
0.0334	1222.24	0.57
0.0679	1199.39	0.55
0.1032	1177.4	0.52
0.1419	1154.78	0.5
0.1821	1132.96	0.48
0.2255	1110.88	0.46
0.2719	1088.82	0.44
0.3218	1066.84	0.43
0.3754	1044.9	0.41
0.4321	1023.34	0.4
0.4959	1001.02	0.4
0.5617	979.72	0.42
0.636	957.49	0.44
0.7142	936.1	0.46
0.804	913.62	0.49
0.8938	893.14	0.52

System: 1,3-dichloropropane + butyl propanoate; phases: Liquid
Fixed: Pressure, kPa = 101
Fixed: Temperature, K = 298.15
Property: Mass density, kg/m3 (Liquid); method: VIBTUB:UFactor:4
Mole fraction of butyl propanoate	Mass density, kg/m3	uncertainty
0.0407	1159.66	0.7
0.1229	1123.34	0.65
0.2119	1087.43	0.61
0.2612	1068.85	0.59
0.3653	1032.69	0.55
0.4229	1014.17	0.53
0.4801	996.73	0.52
0.5422	978.78	0.52
0.6802	942.1	0.52
0.7534	924.3	0.53
0.9139	888.6	0.54

System: 1,4-dichlorobutane + butyl propanoate; phases: Liquid
Fixed: Pressure, kPa = 101
Fixed: Temperature, K = 298.15
Property: Mass density, kg/m3 (Liquid); method: VIBTUB:UFactor:4
Mole fraction of butyl propanoate	Mass density, kg/m3	uncertainty
0.0475	1117.36	0.64
0.0925	1102.34	0.63
0.1874	1072.01	0.59
0.239	1056.26	0.58
0.29	1041.21	0.56
0.3443	1025.65	0.54
0.4006	1010.07	0.53
0.5171	979.4	0.52
0.5798	963.71	0.52
0.6418	948.74	0.52
0.7075	933.4	0.52
0.8474	902.46	0.53
0.8829	894.96	0.54
0.9206	887.11	0.54
0.9575	879.61	0.54

System: butyl propanoate + 1,5-dichloropentane; phases: Liquid
Fixed: Pressure, kPa = 101
Fixed: Temperature, K = 298.15
Property: Mass density, kg/m3 (Liquid); method: VIBTUB:UFactor:4
Mole fraction of butyl propanoate	Mass density, kg/m3	uncertainty
0.0528	1081.66	0.6
0.1047	1068.55	0.59
0.1575	1055.43	0.57
0.2116	1042.24	0.56
0.3217	1016.04	0.54
0.3799	1002.5	0.52
0.4359	989.71	0.52
0.5529	963.57	0.52
0.6167	949.63	0.52
0.6773	936.67	0.52
0.7411	923.24	0.53
0.8045	910.15	0.53
0.8667	897.51	0.54
0.9333	884.23	0.54

System: butyl propanoate + 1,6-dichlorohexane; phases: Liquid
Fixed: Pressure, kPa = 101
Fixed: Temperature, K = 298.15
Property: Mass density, kg/m3 (Liquid); method: VIBTUB:UFactor:4
Mole fraction of butyl propanoate	Mass density, kg/m3	uncertainty
0.0591	1052.23	1.06
0.1161	1041.11	1.02
0.1728	1030.03	0.97
0.2284	1019.22	0.93
0.345	996.62	0.85
0.4083	984.38	0.81
0.4668	973.12	0.78
0.5258	961.74	0.74
0.6403	939.75	0.68
0.6994	928.38	0.66
0.7645	915.95	0.63
0.8173	905.83	0.61
0.8835	893.21	0.58
0.9423	882.05	0.56

System: 1,2-dichloroethane + butyl ethanoate; phases: Liquid
Fixed: Pressure, kPa = 101
Fixed: Temperature, K = 298.15
Property: Mass density, kg/m3 (Liquid); method: VIBTUB:UFactor:4
Mole fraction of butyl ethanoate	Mass density, kg/m3	uncertainty
0.0359	1223.55	0.58
0.0733	1201.71	0.56
0.1139	1178.94	0.55
0.1559	1156.86	0.53
0.1988	1135.53	0.53
0.2456	1113.51	0.52
0.2953	1091.52	0.52
0.3469	1070.08	0.52
0.4021	1048.45	0.52
0.4599	1027.18	0.53
0.5233	1005.31	0.54
0.5883	984.3	0.56
0.6585	963	0.59
0.7344	941.52	0.63
0.8173	919.59	0.66
0.9013	898.96	0.7

System: butyl ethanoate + 1,3-dichloropropane; phases: Liquid
Fixed: Pressure, kPa = 101
Fixed: Temperature, K = 298.15
Property: Mass density, kg/m3 (Liquid); method: VIBTUB:UFactor:4
Mole fraction of butyl ethanoate	Mass density, kg/m3	uncertainty
0.046	1159.83	0.71
0.0904	1142.04	0.7
0.1361	1124.29	0.69
0.1839	1106.48	0.68
0.2336	1088.53	0.67
0.2841	1070.96	0.66
0.3935	1035.06	0.65
0.5106	999.49	0.65
0.6371	964.06	0.67
0.7043	946.37	0.68
0.7737	928.82	0.7
0.8467	911.1	0.71
0.923	893.45	0.72

System: 1,4-dichlorobutane + butyl ethanoate; phases: Liquid
Fixed: Pressure, kPa = 101
Fixed: Temperature, K = 298.15
Property: Mass density, kg/m3 (Liquid); method: VIBTUB:UFactor:4
Mole fraction of butyl ethanoate	Mass density, kg/m3	uncertainty
0.0529	1117.81	0.66
0.1035	1102.8	0.65
0.1569	1087.25	0.65
0.2092	1072.35	0.65
0.2638	1057.04	0.64
0.3207	1041.46	0.64
0.3754	1026.74	0.64
0.4326	1011.67	0.64
0.4906	996.66	0.64
0.5505	981.49	0.65
0.6125	966.12	0.66
0.6735	951.29	0.68
0.7365	936.28	0.69
0.8011	921.17	0.7
0.8692	905.6	0.71
0.9352	890.8	0.73

System: butyl ethanoate + 1,5-dichloropentane; phases: Liquid
Fixed: Pressure, kPa = 101
Fixed: Temperature, K = 298.15
Property: Mass density, kg/m3 (Liquid); method: VIBTUB:UFactor:4
Mole fraction of butyl ethanoate	Mass density, kg/m3	uncertainty
0.0558	1082.62	0.62
0.1119	1070.12	0.62
0.1697	1057.27	0.62
0.2268	1044.6	0.62
0.3432	1018.88	0.62
0.4608	993.04	0.63
0.5786	967.32	0.66
0.6957	941.92	0.68
0.8167	915.81	0.7
0.8757	903.13	0.71
0.9364	890.15	0.73

System: butyl ethanoate + 1,6-dichlorohexane; phases: Liquid
Fixed: Pressure, kPa = 101
Fixed: Temperature, K = 298.15
Property: Mass density, kg/m3 (Liquid); method: VIBTUB:UFactor:4
Mole fraction of butyl ethanoate	Mass density, kg/m3	uncertainty
0.0673	1052.28	1.08
0.1308	1041.35	1.04
0.1929	1030.53	1.01
0.2552	1019.5	0.99
0.3164	1008.57	0.96
0.3768	997.63	0.93
0.4368	986.64	0.91
0.4966	975.54	0.89
0.554	964.77	0.87
0.6113	953.89	0.85
0.6692	942.75	0.83
0.7252	931.87	0.81
0.7823	920.59	0.79
0.8912	898.78	0.76
0.9466	887.47	0.75

System: 1,2-dichloroethane + butyl butanoate; phases: Liquid
Fixed: Pressure, kPa = 101
Fixed: Temperature, K = 298.15
Property: Mass density, kg/m3 (Liquid); method: VIBTUB:UFactor:4
Mole fraction of butyl butanoate	Mass density, kg/m3	uncertainty
0.0297	1221.83	0.57
0.0605	1198.84	0.55
0.0933	1176.2	0.52
0.1275	1153.91	0.49
0.1649	1131.5	0.47
0.2054	1109	0.45
0.2498	1086.2	0.43
0.2967	1064.01	0.42
0.3484	1041.64	0.4
0.4037	1019.73	0.39
0.4652	997.47	0.39
0.5324	975.45	0.41
0.605	953.73	0.43
0.6862	931.87	0.46
0.7785	909.66	0.49
0.8821	887.38	0.52

System: butyl butanoate + 1,3-dichloropropane; phases: Liquid
Fixed: Pressure, kPa = 101
Fixed: Temperature, K = 298.15
Property: Mass density, kg/m3 (Liquid); method: VIBTUB:UFactor:4
Mole fraction of butyl butanoate	Mass density, kg/m3	uncertainty
0.0357	1159.7	0.7
0.0715	1141.38	0.67
0.1103	1122.7	0.65
0.1503	1104.39	0.63
0.1936	1085.72	0.61
0.2376	1067.78	0.59
0.2869	1048.84	0.57
0.3371	1030.74	0.55
0.3921	1012.12	0.53
0.4496	993.89	0.52
0.5117	975.49	0.52
0.5785	957.03	0.52
0.6494	938.78	0.52
0.7262	920.43	0.53
0.8114	901.61	0.53
0.8978	884.02	0.54

System: butyl butanoate + 1,4-dichlorobutane; phases: Liquid
Fixed: Pressure, kPa = 101
Fixed: Temperature, K = 298.15
Property: Mass density, kg/m3 (Liquid); method: VIBTUB:UFactor:4
Mole fraction of butyl butanoate	Mass density, kg/m3	uncertainty
0.0415	1117.54	0.64
0.0836	1101.67	0.63
0.1727	1070.09	0.59
0.2202	1054.28	0.57
0.322	1022.51	0.54
0.3752	1006.99	0.53
0.4319	991.17	0.52
0.4904	975.58	0.52
0.554	959.43	0.52
0.6186	943.82	0.52
0.7579	912.57	0.53
0.8338	896.78	0.54
0.9131	881.09	0.54

System: butyl butanoate + 1,5-dichloropentane; phases: Liquid
Fixed: Pressure, kPa = 101
Fixed: Temperature, K = 298.15
Property: Mass density, kg/m3 (Liquid); method: VIBTUB:UFactor:4
Mole fraction of butyl butanoate	Mass density, kg/m3	uncertainty
0.0481	1081.06	0.6
0.0957	1067.51	0.59
0.1451	1053.83	0.57
0.1939	1040.72	0.56
0.2465	1026.89	0.55
0.3533	1000.09	0.52
0.4105	986.32	0.52
0.5282	959.19	0.52
0.6536	932.02	0.52
0.7875	904.75	0.53
0.8568	891.25	0.54

System: butyl butanoate + 1,6-dichlorohexane; phases: Liquid
Fixed: Pressure, kPa = 101
Fixed: Temperature, K = 298.15
Property: Mass density, kg/m3 (Liquid); method: VIBTUB:UFactor:4
Mole fraction of butyl butanoate	Mass density, kg/m3	uncertainty
0.0545	1051.6	1.06
0.1071	1040.01	1.02
0.16	1028.52	0.98
0.2136	1017	0.94
0.2692	1005.25	0.9
0.3239	993.9	0.86
0.3815	982.05	0.82
0.439	970.43	0.79
0.5565	947.09	0.72
0.6826	922.79	0.66
0.7398	911.99	0.64
0.803	900.24	0.61
0.8726	887.54	0.59
0.9323	876.78	0.57
