Measured thermophysical data. Measurement and modelling of water activity of aqueous poly(ethylene glycol) or poly(propylene glycol) + sodium potassium tartrate and corresponding binary salt solutions
Source: J. Chem. Thermodyn., 2016, 10.1016/j.jct.2016.04.022
Compound 1: potassium sodium (2R,3R)-2,3-dihydroxybutanedioate (1:1:1), C4H4KNaO6, InChI=1S/C4H6O6.K.Na/c5-1(3(7)8)2(6)4(9)10;;/h1-2,5-6H,(H,7,8)(H,9,10);;/q;2*+1/p-2/t1-,2-;;/m1../s1, purity 99.5%
Compound 2: water, H2O, InChI=1S/H2O/h1H2

System: potassium sodium (2R,3R)-2,3-dihydroxybutanedioate (1:1:1) + water; phases: Liquid
Fixed: Pressure, kPa = 100
Property: (Relative) activity of water (Liquid); method: Chemical equilibration / Heterogeneous equilibration
Temperature, K	Molality, mol/kg of potassium sodium (2R,3R)-2,3-dihydroxybutanedioate (1:1:1)	(Relative) activity of water	uncertainty
298.15	0.3016	0.988	0.002
298.15	0.441	0.9828	0.002
298.15	0.5324	0.9793	0.002
298.15	0.6698	0.9742	0.002
298.15	0.7526	0.9712	0.002
298.15	0.8726	0.9669	0.002
298.15	0.9432	0.9643	0.002
298.15	1.2367	0.9536	0.002
298.15	1.4343	0.9464	0.002
298.15	1.6473	0.9385	0.002
298.15	1.7892	0.9332	0.002
298.15	1.9375	0.9277	0.002
298.15	2.0715	0.922	0.002
308.15	0.283	0.9881	0.002
308.15	0.361	0.9853	0.002
308.15	0.5116	0.9796	0.002
308.15	0.5901	0.9767	0.002
308.15	0.7786	0.9698	0.002
308.15	0.9233	0.9644	0.002
308.15	1.1046	0.9578	0.002
308.15	1.2348	0.9529	0.002
308.15	1.4634	0.9445	0.002
308.15	1.6166	0.9389	0.002
308.15	1.696	0.936	0.002
308.15	1.7101	0.9355	0.002
308.15	1.7189	0.9351	0.002
308.15	1.7781	0.9329	0.002
308.15	1.8805	0.9289	0.002
308.15	2.0402	0.9224	0.002
308.15	2.0888	0.9204	0.002
308.15	2.241	0.9142	0.002
318.15	0.3226	0.9859	0.002
318.15	0.487	0.9797	0.002
318.15	0.51	0.9789	0.002
318.15	0.6396	0.9743	0.002
318.15	0.7242	0.9713	0.002
318.15	0.8884	0.9652	0.002
318.15	0.9463	0.9631	0.002
318.15	0.9665	0.9624	0.002
318.15	1.103	0.957	0.002
318.15	1.1431	0.9555	0.002
318.15	1.2187	0.9525	0.002
318.15	1.3941	0.9455	0.002
318.15	1.4972	0.9412	0.002
318.15	1.6345	0.9356	0.002
318.15	1.87	0.9256	0.002
318.15	1.9063	0.9241	0.002
318.15	2.1002	0.9153	0.002
318.15	2.4807	0.8958	0.002
298.15	0.1766	0.9924	0.002
298.15	0.3399	0.9863	0.002
298.15	0.3751	0.9844	0.002
298.15	0.4872	0.9807	0.002
298.15	0.5438	0.9785	0.002
298.15	0.6114	0.9759	0.002
298.15	0.3274	0.9862	0.002
298.15	0.3323	0.986	0.002
298.15	0.389	0.9844	0.002
298.15	0.4487	0.9823	0.002
298.15	0.4538	0.9821	0.002
298.15	0.5121	0.98	0.002
298.15	0.5927	0.9764	0.002
298.15	0.6272	0.9748	0.002
