Measured thermophysical data. Liquid-liquid equilibria for azeotropic mixture of methyl tert-butyl ether and methanol with ionic liquids at different temperatures
Source: J. Chem. Thermodyn., 2019, 10.1016/j.jct.2018.12.029
Compound 1: 2-methoxy-2-methylpropane, C5H12O, InChI=1S/C5H12O/c1-5(2,3)6-4/h1-4H3, purity 99%
Compound 2: methanol, CH4O, InChI=1S/CH4O/c1-2/h2H,1H3, purity 99.8%
Compound 3: 1-butyl-3-methylimidazolium hydrogen sulfate, C8H16N2O4S, InChI=1S/C8H15N2.H2O4S/c1-3-4-5-10-7-6-9(2)8-10;1-5(2,3)4/h6-8H,3-5H2,1-2H3;(H2,1,2,3,4)/q+1;/p-1, purity 98%
Compound 4: 1-methylimidazolium hydrogen sulfate, C4H8N2O4S, InChI=1S/C4H6N2.H2O4S/c1-6-3-2-5-4-6;1-5(2,3)4/h2-4H,1H3;(H2,1,2,3,4), purity 98%

System: 2-methoxy-2-methylpropane + methanol + 1-butyl-3-methylimidazolium hydrogen sulfate; phases: Liquid mixture 2, Liquid mixture 1
Fixed: Pressure, kPa = 101.325
Property: Mass fraction of 2-methoxy-2-methylpropane (Liquid mixture 2); method: Chromatography
Property: Mass fraction of methanol (Liquid mixture 1); method: Chromatography
Property: Mass fraction of 2-methoxy-2-methylpropane (Liquid mixture 1); method: Chromatography
Temperature, K	Mass fraction of methanol	Mass fraction of 2-methoxy-2-methylpropane	uncertainty	Mass fraction of methanol	uncertainty	Mass fraction of 2-methoxy-2-methylpropane	uncertainty
278.15	0.0435	0.0106	0.0106	0.024	0.0238	0.9758	
278.15	0.0806	0.02	0.02	0.0449	0.0238	0.9549	
278.15	0.1085	0.0292	0.0238	0.0613	0.0238	0.9382	
278.15	0.1809	0.0436	0.0238	0.1052	0.0238	0.8915	
278.15	0.2121	0.0519	0.0238	0.1456	0.0238	0.8462	
278.15	0.2716	0.0857	0.0238	0.1977	0.0238	0.79	
278.15	0.3339	0.1385	0.0238	0.2692	0.0239	0.6832	
278.15	0.3776	0.2133	0.0238	0.3217	0.0239	0.5655	
298.15	0.0293	0.0095	0.0095	0.0185	0.0185	0.9708	
298.15	0.0766	0.0188	0.0188	0.0437	0.0238	0.9523	
298.15	0.1345	0.029	0.0238	0.0729	0.0238	0.9231	
298.15	0.2042	0.0534	0.0238	0.1211	0.0238	0.8726	
298.15	0.2712	0.0922	0.0238	0.1731	0.0238	0.8111	
298.15	0.3178	0.1339	0.0238	0.2172	0.0238	0.7424	
298.15	0.3529	0.2289	0.0239	0.2933	0.0239	0.5997	
318.15	0.0386	0.0093	0.0093	0.0126	0.0126	0.9855	
318.15	0.1063	0.0168	0.0168	0.0348	0.0238	0.9633	
318.15	0.1484	0.0298	0.0238	0.0618	0.0238	0.9349	
318.15	0.2089	0.0615	0.0238	0.11	0.0238	0.8826	
318.15	0.2783	0.1278	0.0238	0.1806	0.0238	0.7656	
318.15	0.3426	0.2053	0.0238	0.253	0.0239	0.654	

System: 2-methoxy-2-methylpropane + methanol + 1-methylimidazolium hydrogen sulfate; phases: Liquid mixture 2, Liquid mixture 1
Fixed: Pressure, kPa = 101.325
Property: Mass fraction of 2-methoxy-2-methylpropane (Liquid mixture 2); method: Chromatography
Property: Mass fraction of methanol (Liquid mixture 1); method: Chromatography
Property: Mass fraction of 2-methoxy-2-methylpropane (Liquid mixture 1); method: Chromatography
Temperature, K	Mass fraction of methanol	Mass fraction of 2-methoxy-2-methylpropane	uncertainty	Mass fraction of methanol	uncertainty	Mass fraction of 2-methoxy-2-methylpropane	uncertainty
278.15	0.0981	0.0049	0.0049	0.1327	0.0238	0.8673	
278.15	0.1217	0.0051	0.0051	0.1779	0.0238	0.8221	
278.15	0.1482	0.0086	0.0086	0.217	0.0238	0.7821	
278.15	0.1697	0.0107	0.0107	0.2711	0.0239	0.7273	
278.15	0.2126	0.0176	0.0176	0.3442	0.0239	0.6508	
278.15	0.2233	0.0192	0.0192	0.3625	0.0239	0.6324	
278.15	0.2555	0.0245	0.0238	0.4383	0.024	0.5445	
278.15	0.282	0.0268	0.0238	0.4888	0.024	0.4839	
298.15	0.0596	0.005	0.005	0.0684	0.0238	0.9305	
298.15	0.1093	0.0069	0.0069	0.1495	0.0238	0.8485	
298.15	0.1385	0.0079	0.0079	0.2079	0.0238	0.786	
298.15	0.1843	0.0088	0.0088	0.2969	0.0239	0.6983	
298.15	0.2186	0.0157	0.0157	0.3531	0.0239	0.6262	
298.15	0.2426	0.0176	0.0176	0.3995	0.024	0.5786	
318.15	0.104	0.0037	0.0037	0.105	0.0238	0.8942	
318.15	0.1378	0.0052	0.0052	0.1577	0.0238	0.84	
318.15	0.1644	0.0054	0.0054	0.1954	0.0238	0.8009	
318.15	0.1951	0.0082	0.0082	0.2348	0.0239	0.7575	
318.15	0.2189	0.0091	0.0091	0.2793	0.0239	0.7065	
318.15	0.2631	0.0169	0.0169	0.3585	0.0239	0.6156	
318.15	0.3031	0.0199	0.0199	0.4074	0.024	0.5469	
