Measured thermophysical data. Thermodynamic interactions in binary mixtures of anisole with ethanol, propan-1-ol, propan-2-ol, butan-1-ol, pentan-1-ol, and 3-methylbutan-1-ol at T = (298.15, 303.15, and 308.15) K
Source: J. Chem. Thermodyn., 2006, 10.1016/j.jct.2006.03.018
Compound 1: anisole, C7H8O, InChI=1S/C7H8O/c1-8-7-5-3-2-4-6-7/h2-6H,1H3, purity 99.5%
Compound 2: ethanol, C2H6O, InChI=1S/C2H6O/c1-2-3/h3H,2H2,1H3, purity 99.9%
Compound 3: propan-1-ol, C3H8O, InChI=1S/C3H8O/c1-2-3-4/h4H,2-3H2,1H3, purity 99.5%
Compound 4: propan-2-ol, C3H8O, InChI=1S/C3H8O/c1-3(2)4/h3-4H,1-2H3, purity 99.5%
Compound 5: butan-1-ol, C4H10O, InChI=1S/C4H10O/c1-2-3-4-5/h5H,2-4H2,1H3, purity 99%
Compound 6: pentan-1-ol, C5H12O, InChI=1S/C5H12O/c1-2-3-4-5-6/h6H,2-5H2,1H3, purity 99%
Compound 7: 3-methylbutan-1-ol, C5H12O, InChI=1S/C5H12O/c1-5(2)3-4-6/h5-6H,3-4H2,1-2H3, purity 99%

System: anisole; phases: Liquid
Fixed: Pressure, kPa = 101.325
Property: Refractive index (Na D-line) (Liquid); method: ABBE:UFactor:16
Temperature, K	Refractive index (Na D-line)	uncertainty
298.15	1.5137	0.005
303.15	1.5113	0.005
308.15	1.5088	0.005

System: anisole; phases: Liquid
Fixed: Pressure, kPa = 101
Property: Viscosity, Pa*s (Liquid); method: CAPTUB::UFactor:16
Temperature, K	Viscosity, Pa*s	uncertainty
298.15	0.000988	0.000126
303.15	0.000913	0.000118
308.15	0.000854	0.000111

System: anisole; phases: Liquid
Property: Speed of sound, m/s (Liquid); method: LVPAI::UFactor:64
Pressure, kPa	Temperature, K	Speed of sound, m/s	uncertainty
101	298.15	1412	95

System: anisole; phases: Liquid
Fixed: Pressure, kPa = 101
Property: Mass density, kg/m3 (Liquid); method: VIBTUB::UFactor:32
Temperature, K	Mass density, kg/m3	uncertainty
298.15	989.15	1.57
303.15	984.45	1.62
308.15	979.73	1.68

System: ethanol; phases: Liquid
Fixed: Pressure, kPa = 101.325
Property: Refractive index (Na D-line) (Liquid); method: ABBE::UFactor:16
Temperature, K	Refractive index (Na D-line)	uncertainty
298.15	1.3591	0.005
303.15	1.3572	0.005
308.15	1.355	0.005

System: ethanol; phases: Liquid
Fixed: Pressure, kPa = 101
Property: Viscosity, Pa*s (Liquid); method: CAPTUB::UFactor:16
Temperature, K	Viscosity, Pa*s	uncertainty
298.15	0.001073	0.000135
303.15	0.000971	0.000124
308.15	0.000889	0.000115

System: ethanol; phases: Liquid
Property: Speed of sound, m/s (Liquid); method: LVPAI::UFactor:64
Pressure, kPa	Temperature, K	Speed of sound, m/s	uncertainty
101	298.15	1161	82

System: ethanol; phases: Liquid
Fixed: Pressure, kPa = 101
Property: Mass density, kg/m3 (Liquid); method: VIBTUB::UFactor:32
Temperature, K	Mass density, kg/m3	uncertainty
298.15	785.91	3.67
303.15	781.6	3.73
308.15	777.26	3.78

System: propan-1-ol; phases: Liquid
Fixed: Pressure, kPa = 101.325
Property: Refractive index (Na D-line) (Liquid); method: ABBE::UFactor:16
Temperature, K	Refractive index (Na D-line)	uncertainty
298.15	1.3826	0.005
303.15	1.3808	0.005
308.15	1.3782	0.005

System: propan-1-ol; phases: Liquid
Fixed: Pressure, kPa = 101
Property: Viscosity, Pa*s (Liquid); method: CAPTUB::UFactor:16
Temperature, K	Viscosity, Pa*s	uncertainty
298.15	0.001792	0.000215
303.15	0.001706	0.000205
308.15	0.001518	0.000185

System: propan-1-ol; phases: Liquid
Property: Speed of sound, m/s (Liquid); method: LVPAI::UFactor:32
Pressure, kPa	Temperature, K	Speed of sound, m/s	uncertainty
101	298.15	1206	42

System: propan-1-ol; phases: Liquid
Fixed: Pressure, kPa = 101
Property: Mass density, kg/m3 (Liquid); method: VIBTUB::UFactor:32
Temperature, K	Mass density, kg/m3	uncertainty
298.15	799.96	3.53
303.15	795.93	3.58
308.15	791.86	3.63

System: propan-2-ol; phases: Liquid
Fixed: Pressure, kPa = 101.325
Property: Refractive index (Na D-line) (Liquid); method: ABBE::UFactor:16
Temperature, K	Refractive index (Na D-line)	uncertainty
298.15	1.3745	0.005
303.15	1.3721	0.005
308.15	1.3702	0.005

System: propan-2-ol; phases: Liquid
Fixed: Pressure, kPa = 101
Property: Viscosity, Pa*s (Liquid); method: CAPTUB::UFactor:16
Temperature, K	Viscosity, Pa*s	uncertainty
298.15	0.002042	0.000242
303.15	0.001755	0.000211
308.15	0.001521	0.000185

System: propan-2-ol; phases: Liquid
Property: Speed of sound, m/s (Liquid); method: LVPAI::UFactor:32
Pressure, kPa	Temperature, K	Speed of sound, m/s	uncertainty
101	298.15	1141	41

System: propan-2-ol; phases: Liquid
Fixed: Pressure, kPa = 101
Property: Mass density, kg/m3 (Liquid); method: VIBTUB::UFactor:32
Temperature, K	Mass density, kg/m3	uncertainty
298.15	781.36	3.76
303.15	777.09	3.81
308.15	772.75	3.87

System: butan-1-ol; phases: Liquid
Fixed: Pressure, kPa = 101.325
Property: Refractive index (Na D-line) (Liquid); method: ABBE::UFactor:16
Temperature, K	Refractive index (Na D-line)	uncertainty
298.15	1.3968	0.005
303.15	1.3944	0.005
308.15	1.3923	0.005

System: butan-1-ol; phases: Liquid
Fixed: Pressure, kPa = 101
Property: Viscosity, Pa*s (Liquid); method: CAPTUB::UFactor:16
Temperature, K	Viscosity, Pa*s	uncertainty
298.15	0.002585	0.000302
303.15	0.002284	0.000269
308.15	0.001981	0.000236

System: butan-1-ol; phases: Liquid
Property: Speed of sound, m/s (Liquid); method: LVPAI::UFactor:32
Pressure, kPa	Temperature, K	Speed of sound, m/s	uncertainty
101	298.15	1246	43

System: butan-1-ol; phases: Liquid
Fixed: Pressure, kPa = 101
Property: Mass density, kg/m3 (Liquid); method: VIBTUB::UFactor:128
Temperature, K	Mass density, kg/m3	uncertainty
298.15	806.12	13.8
303.15	802.28	13.99
308.15	798.41	14.19

System: pentan-1-ol; phases: Liquid
Fixed: Pressure, kPa = 101.325
Property: Refractive index (Na D-line) (Liquid); method: ABBE::UFactor:16
Temperature, K	Refractive index (Na D-line)	uncertainty
298.15	1.4073	0.005
303.15	1.405	0.005
308.15	1.4032	0.005

System: pentan-1-ol; phases: Liquid
Fixed: Pressure, kPa = 101
Property: Viscosity, Pa*s (Liquid); method: CAPTUB::UFactor:16
Temperature, K	Viscosity, Pa*s	uncertainty
298.15	0.003403	0.00039
303.15	0.002959	0.000342
308.15	0.002581	0.000301

System: pentan-1-ol; phases: Liquid
Property: Speed of sound, m/s (Liquid); method: LVPAI::UFactor:32
Pressure, kPa	Temperature, K	Speed of sound, m/s	uncertainty
101	298.15	1286	44

System: pentan-1-ol; phases: Liquid
Fixed: Pressure, kPa = 101
Property: Mass density, kg/m3 (Liquid); method: VIBTUB::UFactor:32
Temperature, K	Mass density, kg/m3	uncertainty
298.15	810.92	3.49
303.15	807.23	3.53
308.15	803.52	3.58

System: 3-methylbutan-1-ol; phases: Liquid
Fixed: Pressure, kPa = 101.325
Property: Refractive index (Na D-line) (Liquid); method: ABBE::UFactor:16
Temperature, K	Refractive index (Na D-line)	uncertainty
298.15	1.405	0.0025
303.15	1.403	0.0025
308.15	1.3782	0.02

System: 3-methylbutan-1-ol; phases: Liquid
Fixed: Pressure, kPa = 101
Property: Viscosity, Pa*s (Liquid); method: CAPTUB::UFactor:16
Temperature, K	Viscosity, Pa*s	uncertainty
298.15	0.003835	0.000437
303.15	0.003261	0.000375
308.15	0.001518	0.001

System: 3-methylbutan-1-ol; phases: Liquid
Property: Speed of sound, m/s (Liquid); method: LVPAI::UFactor:32
Pressure, kPa	Temperature, K	Speed of sound, m/s	uncertainty
101	298.15	1241	43

System: 3-methylbutan-1-ol; phases: Liquid
Fixed: Pressure, kPa = 101
Property: Mass density, kg/m3 (Liquid); method: VIBTUB::UFactor:64
Temperature, K	Mass density, kg/m3	uncertainty
298.15	807.2	6.94
303.15	803.45	7.03
308.15	791.86	7.32

System: ethanol + anisole; phases: Liquid
Fixed: Pressure, kPa = 101
Fixed: Temperature, K = 298.15
Property: Speed of sound, m/s (Liquid); method: LVPAI:UFactor:64
Mole fraction of anisole	Speed of sound, m/s	uncertainty
0	1161	82
0.0998	1178	83
0.1985	1226	86
0.2976	1277	88
0.3973	1290	89
0.5008	1301	89
0.5968	1314	90
0.7015	1326	91
0.7935	1340	91
0.9014	1355	92
1	1412	95

System: ethanol + anisole; phases: Liquid
Fixed: Pressure, kPa = 101
Property: Viscosity, Pa*s (Liquid); method: CAPTUB:UFactor:16
Temperature, K	Mole fraction of anisole	Viscosity, Pa*s	uncertainty
298.15	0	0.001073	0.000135
298.15	0.0998	0.000995	0.000127
298.15	0.1985	0.000934	0.00012
298.15	0.2976	0.00091	0.000117
298.15	0.3973	0.000881	0.000114
298.15	0.5008	0.000882	0.000114
298.15	0.5968	0.000849	0.000111
298.15	0.7015	0.000894	0.000116
298.15	0.7935	0.000897	0.000116
298.15	0.9014	0.000923	0.000119
298.15	1	0.000988	0.000126
303.15	0	0.000971	0.000124
303.15	0.0998	0.000908	0.000117
303.15	0.1985	0.000851	0.000111
303.15	0.2976	0.000829	0.000108
303.15	0.3973	0.000813	0.000107
303.15	0.5008	0.000807	0.000106
303.15	0.5968	0.000784	0.000103
303.15	0.7015	0.000832	0.000109
303.15	0.7935	0.00083	0.000109
303.15	0.9014	0.000858	0.000112
303.15	1	0.000913	0.000118
308.15	0	0.000889	0.000115
308.15	0.0998	0.000831	0.000109
308.15	0.1985	0.000777	0.000103
308.15	0.2976	0.000768	0.000102
308.15	0.3973	0.000747	9.9e-05
308.15	0.5008	0.000749	0.0001
308.15	0.5968	0.000727	9.7e-05
308.15	0.7015	0.000774	0.000102
308.15	0.7935	0.000772	0.000102
308.15	0.9014	0.000792	0.000104
308.15	1	0.000854	0.000111

System: ethanol + anisole; phases: Liquid
Fixed: Pressure, kPa = 101
Property: Refractive index (Na D-line) (Liquid); method: ABBE:UFactor:16
Temperature, K	Mole fraction of anisole	Refractive index (Na D-line)	uncertainty
298.15	0	1.3591	0.005
298.15	0.0998	1.3856	0.005
298.15	0.1985	1.4085	0.005
298.15	0.2976	1.4284	0.005
298.15	0.3973	1.4459	0.005
298.15	0.5008	1.461	0.005
298.15	0.5968	1.4737	0.005
298.15	0.7015	1.4864	0.005
298.15	0.7935	1.4955	0.005
298.15	0.9014	1.5046	0.005
298.15	1	1.5137	0.005
303.15	0	1.3572	0.005
303.15	0.0998	1.3838	0.005
303.15	0.1985	1.4066	0.005
303.15	0.2976	1.4261	0.005
303.15	0.3973	1.4428	0.005
303.15	0.5008	1.4586	0.005
303.15	0.5968	1.4711	0.005
303.15	0.7015	1.4842	0.005
303.15	0.7935	1.4934	0.005
303.15	0.9014	1.5031	0.005
303.15	1	1.5113	0.005
308.15	0	1.355	0.005
308.15	0.0998	1.3814	0.005
308.15	0.1985	1.4039	0.005
308.15	0.2976	1.4241	0.005
308.15	0.3973	1.4402	0.005
308.15	0.5008	1.4567	0.005
308.15	0.5968	1.4695	0.005
308.15	0.7015	1.4816	0.005
308.15	0.7935	1.4907	0.005
308.15	0.9014	1.5008	0.005
308.15	1	1.5088	0.005

System: ethanol + anisole; phases: Liquid
Fixed: Pressure, kPa = 101
Property: Mass density, kg/m3 (Liquid); method: VIBTUB:UFactor:32
Temperature, K	Mole fraction of anisole	Mass density, kg/m3	uncertainty
298.15	0	785.91	3.67
298.15	0.0998	822.6	3.22
298.15	0.1985	852.71	2.86
298.15	0.2976	878.53	2.55
298.15	0.3973	900.47	2.31
298.15	0.5008	920.46	2.1
298.15	0.5968	936.53	1.94
298.15	0.7015	952.42	1.8
298.15	0.7935	964.6	1.71
298.15	0.9014	977.99	1.62
298.15	1	989.15	1.57
303.15	0	781.6	3.73
303.15	0.0998	818.11	3.28
303.15	0.1985	848.12	2.91
303.15	0.2976	873.84	2.61
303.15	0.3973	895.73	2.37
303.15	0.5008	915.68	2.15
303.15	0.5968	931.73	2
303.15	0.7015	947.62	1.86
303.15	0.7935	960.01	1.76
303.15	0.9014	973.42	1.67
303.15	1	984.45	1.62
308.15	0	777.26	3.78
308.15	0.0998	813.62	3.33
308.15	0.1985	843.52	2.97
308.15	0.2976	869.14	2.67
308.15	0.3973	890.99	2.42
308.15	0.5008	910.89	2.21
308.15	0.5968	926.92	2.06
308.15	0.7015	942.81	1.91
308.15	0.7935	955.42	1.82
308.15	0.9014	968.84	1.73
308.15	1	979.73	1.68

System: propan-1-ol + anisole; phases: Liquid
Fixed: Pressure, kPa = 101
Fixed: Temperature, K = 298.15
Property: Speed of sound, m/s (Liquid); method: LVPAI:UFactor:32
Mole fraction of anisole	Speed of sound, m/s	uncertainty
0	1206	42
0.1036	1223	43
0.2003	1232	43
0.3055	1258	44
0.4053	1278	44
0.5096	1297	45
0.6015	1314	45
0.7071	1330	45
0.8023	1350	46
0.8939	1370	46
1	1412	47

System: propan-1-ol + anisole; phases: Liquid
Fixed: Pressure, kPa = 101
Property: Viscosity, Pa*s (Liquid); method: CAPTUB:UFactor:16
Temperature, K	Mole fraction of anisole	Viscosity, Pa*s	uncertainty
298.15	0	0.001792	0.000215
298.15	0.1036	0.001564	0.00019
298.15	0.2003	0.001352	0.000166
298.15	0.3055	0.001166	0.000146
298.15	0.4053	0.001069	0.000135
298.15	0.5096	0.001003	0.000128
298.15	0.6015	0.000989	0.000126
298.15	0.7071	0.000947	0.000122
298.15	0.8023	0.000943	0.000121
298.15	0.8939	0.000932	0.00012
298.15	1	0.000988	0.000126
303.15	0	0.001706	0.000205
303.15	0.1036	0.001392	0.000171
303.15	0.2003	0.001198	0.000149
303.15	0.3055	0.001094	0.000138
303.15	0.4053	0.00098	0.000125
303.15	0.5096	0.000921	0.000119
303.15	0.6015	0.000903	0.000117
303.15	0.7071	0.000859	0.000112
303.15	0.8023	0.000861	0.000112
303.15	0.8939	0.000869	0.000113
303.15	1	0.000913	0.000118
308.15	0	0.001518	0.000185
308.15	0.1036	0.001242	0.000154
308.15	0.2003	0.001078	0.000136
308.15	0.3055	0.000961	0.000123
308.15	0.4053	0.000879	0.000114
308.15	0.5096	0.000838	0.000109
308.15	0.6015	0.000821	0.000108
308.15	0.7071	0.000802	0.000106
308.15	0.8023	0.000795	0.000105
308.15	0.8939	0.000792	0.000104
308.15	1	0.000854	0.000111

System: propan-1-ol + anisole; phases: Liquid
Fixed: Pressure, kPa = 101
Property: Refractive index (Na D-line) (Liquid); method: ABBE:UFactor:16
Temperature, K	Mole fraction of anisole	Refractive index (Na D-line)	uncertainty
298.15	0	1.3826	0.005
298.15	0.1036	1.4013	0.005
298.15	0.2003	1.4176	0.005
298.15	0.3055	1.4284	0.005
298.15	0.4053	1.4459	0.005
298.15	0.5096	1.461	0.005
298.15	0.6015	1.4737	0.005
298.15	0.7071	1.4864	0.005
298.15	0.8023	1.4955	0.005
298.15	0.8939	1.5046	0.005
298.15	1	1.5137	0.005
303.15	0	1.3808	0.005
303.15	0.1036	1.3989	0.005
303.15	0.2003	1.4153	0.005
303.15	0.3055	1.4314	0.005
303.15	0.4053	1.4458	0.005
303.15	0.5096	1.4578	0.005
303.15	0.6015	1.4704	0.005
303.15	0.7071	1.482	0.005
303.15	0.8023	1.493	0.005
303.15	0.8939	1.5014	0.005
303.15	1	1.5113	0.005
308.15	0	1.3782	0.005
308.15	0.1036	1.3966	0.005
308.15	0.2003	1.4129	0.005
308.15	0.3055	1.4287	0.005
308.15	0.4053	1.4426	0.005
308.15	0.5096	1.4542	0.005
308.15	0.6015	1.4673	0.005
308.15	0.7071	1.4793	0.005
308.15	0.8023	1.4897	0.005
308.15	0.8939	1.499	0.005
308.15	1	1.5088	0.005

System: propan-1-ol + anisole; phases: Liquid
Fixed: Pressure, kPa = 101
Property: Mass density, kg/m3 (Liquid); method: VIBTUB:UFactor:32
Temperature, K	Mole fraction of anisole	Mass density, kg/m3	uncertainty
298.15	0	799.96	3.53
298.15	0.1036	816.88	3.33
298.15	0.2003	835.8	3.11
298.15	0.3055	856.97	2.88
298.15	0.4053	876.55	2.66
298.15	0.5096	897.74	2.44
298.15	0.6015	915.39	2.25
298.15	0.7071	934.31	2.07
298.15	0.8023	952.23	1.9
298.15	0.8939	970.23	1.73
298.15	1	989.15	1.57
303.15	0	795.93	3.58
303.15	0.1036	812.68	3.38
303.15	0.2003	831.49	3.17
303.15	0.3055	852.54	2.93
303.15	0.4053	872.04	2.72
303.15	0.5096	893.14	2.49
303.15	0.6015	910.74	2.31
303.15	0.7071	929.62	2.12
303.15	0.8023	947.51	1.95
303.15	0.8939	965.5	1.78
303.15	1	984.45	1.62
308.15	0	791.86	3.63
308.15	0.1036	808.48	3.44
308.15	0.2003	827.18	3.22
308.15	0.3055	848.11	2.99
308.15	0.4053	867.53	2.77
308.15	0.5096	888.55	2.55
308.15	0.6015	906.1	2.37
308.15	0.7071	924.94	2.18
308.15	0.8023	942.78	2.01
308.15	0.8939	960.74	1.84
308.15	1	979.73	1.68

System: propan-2-ol + anisole; phases: Liquid
Fixed: Pressure, kPa = 101
Fixed: Temperature, K = 298.15
Property: Speed of sound, m/s (Liquid); method: LVPAI:UFactor:32
Mole fraction of anisole	Speed of sound, m/s	uncertainty
0	1141	41
0.0964	1168	41
0.1995	1195	42
0.2995	1223	43
0.3965	1250	43
0.4947	1277	44
0.5932	1304	45
0.6966	1331	45
0.8069	1358	46
0.9052	1384	47
1	1412	47

System: propan-2-ol + anisole; phases: Liquid
Fixed: Pressure, kPa = 101
Property: Viscosity, Pa*s (Liquid); method: CAPTUB:UFactor:16
Temperature, K	Mole fraction of anisole	Viscosity, Pa*s	uncertainty
298.15	0	0.002042	0.000242
298.15	0.0964	0.001526	0.000185
298.15	0.1995	0.001236	0.000154
298.15	0.2995	0.001111	0.00014
298.15	0.3965	0.001019	0.00013
298.15	0.4947	0.000959	0.000123
298.15	0.5932	0.000942	0.000121
298.15	0.6966	0.00091	0.000118
298.15	0.8069	0.000879	0.000114
298.15	0.9052	0.000847	0.000111
298.15	1	0.000988	0.000126
303.15	0	0.001755	0.000211
303.15	0.0964	0.001335	0.000164
303.15	0.1995	0.001101	0.000139
303.15	0.2995	0.001	0.000127
303.15	0.3965	0.000923	0.000119
303.15	0.4947	0.000872	0.000113
303.15	0.5932	0.000864	0.000112
303.15	0.6966	0.000837	0.000109
303.15	0.8069	0.00081	0.000106
303.15	0.9052	0.000783	0.000103
303.15	1	0.000913	0.000118
308.15	0	0.001521	0.000185
308.15	0.0964	0.001178	0.000147
308.15	0.1995	0.000988	0.000126
308.15	0.2995	0.000906	0.000117
308.15	0.3965	0.000838	0.000109
308.15	0.4947	0.000798	0.000105
308.15	0.5932	0.000792	0.000104
308.15	0.6966	0.000775	0.000103
308.15	0.8069	0.000742	9.9e-05
308.15	0.9052	0.00072	9.6e-05
308.15	1	0.000854	0.000111

System: propan-2-ol + anisole; phases: Liquid
Fixed: Pressure, kPa = 101
Property: Refractive index (Na D-line) (Liquid); method: ABBE:UFactor:16
Temperature, K	Mole fraction of anisole	Refractive index (Na D-line)	uncertainty
298.15	0	1.3745	0.005
298.15	0.0964	1.3925	0.005
298.15	0.1995	1.4115	0.005
298.15	0.2995	1.4275	0.005
298.15	0.3965	1.4427	0.005
298.15	0.4947	1.4571	0.005
298.15	0.5932	1.4701	0.005
298.15	0.6966	1.482	0.005
298.15	0.8069	1.495	0.005
298.15	0.9052	1.5049	0.005
298.15	1	1.5137	0.005
303.15	0	1.3721	0.005
303.15	0.0964	1.3901	0.005
303.15	0.1995	1.4075	0.005
303.15	0.2995	1.4244	0.005
303.15	0.3965	1.4399	0.005
303.15	0.4947	1.4535	0.005
303.15	0.5932	1.467	0.005
303.15	0.6966	1.4793	0.005
303.15	0.8069	1.4923	0.005
303.15	0.9052	1.5018	0.005
303.15	1	1.5113	0.005
308.15	0	1.3702	0.005
308.15	0.0964	1.3879	0.005
308.15	0.1995	1.4064	0.005
308.15	0.2995	1.4226	0.005
308.15	0.3965	1.438	0.005
308.15	0.4947	1.451	0.005
308.15	0.5932	1.465	0.005
308.15	0.6966	1.4763	0.005
308.15	0.8069	1.4884	0.005
308.15	0.9052	1.4999	0.005
308.15	1	1.5088	0.005

System: propan-2-ol + anisole; phases: Liquid
Fixed: Pressure, kPa = 101
Property: Mass density, kg/m3 (Liquid); method: VIBTUB:UFactor:32
Temperature, K	Mole fraction of anisole	Mass density, kg/m3	uncertainty
298.15	0	781.36	3.76
298.15	0.0964	809.04	3.43
298.15	0.1995	836.66	3.1
298.15	0.2995	861.3	2.82
298.15	0.3965	882.77	2.58
298.15	0.4947	903.09	2.37
298.15	0.5932	921.89	2.17
298.15	0.6966	940.52	1.99
298.15	0.8069	958.9	1.82
298.15	0.9052	974.58	1.68
298.15	1	989.15	1.57
303.15	0	777.09	3.81
303.15	0.0964	804.55	3.48
303.15	0.1995	832.04	3.16
303.15	0.2995	856.56	2.88
303.15	0.3965	877.97	2.64
303.15	0.4947	898.25	2.43
303.15	0.5932	917.04	2.23
303.15	0.6966	935.67	2.05
303.15	0.8069	954.07	1.88
303.15	0.9052	969.52	1.74
303.15	1	984.45	1.62
308.15	0	772.75	3.87
308.15	0.0964	799.99	3.54
308.15	0.1995	827.34	3.22
308.15	0.2995	851.78	2.94
308.15	0.3965	873.12	2.7
308.15	0.4947	893.38	2.48
308.15	0.5932	912.14	2.29
308.15	0.6966	930.78	2.1
308.15	0.8069	949.22	1.93
308.15	0.9052	965.01	1.8
308.15	1	979.73	1.68

System: butan-1-ol + anisole; phases: Liquid
Fixed: Pressure, kPa = 101
Fixed: Temperature, K = 298.15
Property: Speed of sound, m/s (Liquid); method: LVPAI:UFactor:32
Mole fraction of anisole	Speed of sound, m/s	uncertainty
0	1246	43
0.1064	1258	44
0.1923	1276	44
0.2988	1298	45
0.3972	1314	45
0.493	1334	45
0.5968	1347	46
0.7834	1364	46
0.8332	1376	47
0.892	1390	47
1	1412	47

System: butan-1-ol + anisole; phases: Liquid
Fixed: Pressure, kPa = 101
Property: Viscosity, Pa*s (Liquid); method: CAPTUB:UFactor:16
Temperature, K	Mole fraction of anisole	Viscosity, Pa*s	uncertainty
298.15	0	0.002585	0.000302
298.15	0.1064	0.002015	0.000239
298.15	0.1923	0.001702	0.000205
298.15	0.2988	0.001409	0.000173
298.15	0.3972	0.001285	0.000159
298.15	0.493	0.001129	0.000142
298.15	0.5968	0.001063	0.000135
298.15	0.7834	0.000985	0.000126
298.15	0.8332	0.000968	0.000124
298.15	0.892	0.000962	0.000123
298.15	1	0.000988	0.000126
303.15	0	0.002284	0.000269
303.15	0.1064	0.001778	0.000213
303.15	0.1923	0.001511	0.000184
303.15	0.2988	0.001261	0.000156
303.15	0.3972	0.001145	0.000144
303.15	0.493	0.001041	0.000132
303.15	0.5968	0.000968	0.000124
303.15	0.7834	0.000907	0.000117
303.15	0.8332	0.000893	0.000116
303.15	0.892	0.000884	0.000115
303.15	1	0.000913	0.000118
308.15	0	0.001981	0.000236
308.15	0.1064	0.001576	0.000191
308.15	0.1923	0.001352	0.000166
308.15	0.2988	0.001136	0.000143
308.15	0.3972	0.001051	0.000133
308.15	0.493	0.000939	0.000121
308.15	0.5968	0.000886	0.000115
308.15	0.7834	0.000844	0.00011
308.15	0.8332	0.000824	0.000108
308.15	0.892	0.000822	0.000108
308.15	1	0.000854	0.000111

System: butan-1-ol + anisole; phases: Liquid
Fixed: Pressure, kPa = 101
Property: Refractive index (Na D-line) (Liquid); method: ABBE:UFactor:16
Temperature, K	Mole fraction of anisole	Refractive index (Na D-line)	uncertainty
298.15	0	1.3968	0.005
298.15	0.1064	1.4108	0.005
298.15	0.1923	1.4221	0.005
298.15	0.2988	1.4354	0.005
298.15	0.3972	1.4473	0.005
298.15	0.493	1.4586	0.005
298.15	0.5968	1.4719	0.02
298.15	0.7834	1.4848	0.02
298.15	0.8332	1.4911	0.005
298.15	0.892	1.5027	0.005
298.15	1	1.5137	0.005
303.15	0	1.3944	0.005
303.15	0.1064	1.4069	0.005
303.15	0.1923	1.4197	0.005
303.15	0.2988	1.4332	0.005
303.15	0.3972	1.4449	0.005
303.15	0.493	1.4563	0.005
303.15	0.5968	1.4679	0.02
303.15	0.7834	1.4822	0.02
303.15	0.8332	1.4888	0.005
303.15	0.892	1.5005	0.005
303.15	1	1.5113	0.005
308.15	0	1.3923	0.005
308.15	0.1064	1.4031	0.005
308.15	0.1923	1.4173	0.005
308.15	0.2988	1.4307	0.005
308.15	0.3972	1.4421	0.005
308.15	0.493	1.4535	0.005
308.15	0.5968	1.4651	0.02
308.15	0.7834	1.4795	0.02
308.15	0.8332	1.4858	0.005
308.15	0.892	1.4966	0.005
308.15	1	1.5088	0.005

System: butan-1-ol + anisole; phases: Liquid
Fixed: Pressure, kPa = 101
Property: Mass density, kg/m3 (Liquid); method: VIBTUB:UFactor:128
Temperature, K	Mole fraction of anisole	Mass density, kg/m3	uncertainty
298.15	0	806.12	13.8
298.15	0.1064	824.95	12.88
298.15	0.1923	841.43	12.07
298.15	0.2988	861.78	11.08
298.15	0.3972	880.06	10.19
298.15	0.493	897.25	9.36
298.15	0.5968	922.83	8.12
298.15	0.7834	930.28	25
298.15	0.8332	957.86	6.44
298.15	0.892	969.05	5.91
298.15	1	989.15	4.95
303.15	0	802.28	13.99
303.15	0.1064	820.92	13.08
303.15	0.1923	837.28	12.28
303.15	0.2988	857.49	11.29
303.15	0.3972	875.69	10.41
303.15	0.493	892.77	9.58
303.15	0.5968	918.26	8.34
303.15	0.7834	925.7	25
303.15	0.8332	953.17	6.67
303.15	0.892	964.35	6.14
303.15	1	984.45	5.18
308.15	0	798.41	14.19
308.15	0.1064	816.89	13.28
308.15	0.1923	833.12	12.49
308.15	0.2988	853.21	11.51
308.15	0.3972	871.31	10.63
308.15	0.493	888.3	9.8
308.15	0.5968	913.66	8.57
308.15	0.7834	921.11	25
308.15	0.8332	948.47	6.91
308.15	0.892	959.64	6.37
308.15	1	979.73	5.41

System: pentan-1-ol + anisole; phases: Liquid
Fixed: Pressure, kPa = 101
Fixed: Temperature, K = 298.15
Property: Speed of sound, m/s (Liquid); method: LVPAI:UFactor:32
Mole fraction of anisole	Speed of sound, m/s	uncertainty
0	1286	44
0.1013	1298	45
0.2032	1311	45
0.3022	1324	45
0.3946	1336	46
0.4912	1350	46
0.5984	1361	46
0.6976	1374	46
0.7965	1388	47
0.8974	1395	47
1	1412	47

System: pentan-1-ol + anisole; phases: Liquid
Fixed: Pressure, kPa = 101
Property: Viscosity, Pa*s (Liquid); method: CAPTUB:UFactor:16
Temperature, K	Mole fraction of anisole	Viscosity, Pa*s	uncertainty
298.15	0	0.003403	0.00039
298.15	0.1013	0.002677	0.000312
298.15	0.2032	0.002005	0.000238
298.15	0.3022	0.001743	0.00021
298.15	0.3946	0.001513	0.000184
298.15	0.4912	0.001318	0.000163
298.15	0.5984	0.00118	0.000147
298.15	0.6976	0.001092	0.000138
298.15	0.7965	0.001004	0.000128
298.15	0.8974	0.000955	0.000123
298.15	1	0.000988	0.000126
303.15	0	0.002959	0.000342
303.15	0.1013	0.002332	0.000274
303.15	0.2032	0.001773	0.000213
303.15	0.3022	0.001545	0.000188
303.15	0.3946	0.001359	0.000167
303.15	0.4912	0.001195	0.000149
303.15	0.5984	0.001072	0.000136
303.15	0.6976	0.000999	0.000127
303.15	0.7965	0.000927	0.000119
303.15	0.8974	0.00088	0.000114
303.15	1	0.000913	0.000118
308.15	0	0.002581	0.000301
308.15	0.1013	0.002051	0.000243
308.15	0.2032	0.001575	0.000191
308.15	0.3022	0.001384	0.00017
308.15	0.3946	0.001219	0.000152
308.15	0.4912	0.001091	0.000138
308.15	0.5984	0.000979	0.000125
308.15	0.6976	0.000916	0.000118
308.15	0.7965	0.000853	0.000111
308.15	0.8974	0.000919	0.000119
308.15	1	0.000854	0.000111

System: pentan-1-ol + anisole; phases: Liquid
Fixed: Pressure, kPa = 101
Property: Refractive index (Na D-line) (Liquid); method: ABBE:UFactor:16
Temperature, K	Mole fraction of anisole	Refractive index (Na D-line)	uncertainty
298.15	0	1.4073	0.005
298.15	0.1013	1.4091	0.005
298.15	0.2032	1.4166	0.005
298.15	0.3022	1.4237	0.005
298.15	0.3946	1.4333	0.005
298.15	0.4912	1.4429	0.005
298.15	0.5984	1.4561	0.005
298.15	0.6976	1.4667	0.005
298.15	0.7965	1.4807	0.005
298.15	0.8974	1.4963	0.005
298.15	1	1.5137	0.005
303.15	0	1.405	0.005
303.15	0.1013	1.4066	0.005
303.15	0.2032	1.4138	0.005
303.15	0.3022	1.4219	0.005
303.15	0.3946	1.4302	0.005
303.15	0.4912	1.4401	0.005
303.15	0.5984	1.4533	0.005
303.15	0.6976	1.4642	0.005
303.15	0.7965	1.4778	0.005
303.15	0.8974	1.4934	0.005
303.15	1	1.5113	0.005
308.15	0	1.4032	0.005
308.15	0.1013	1.404	0.005
308.15	0.2032	1.4112	0.005
308.15	0.3022	1.4201	0.005
308.15	0.3946	1.4272	0.005
308.15	0.4912	1.4379	0.005
308.15	0.5984	1.451	0.005
308.15	0.6976	1.4616	0.005
308.15	0.7965	1.4747	0.005
308.15	0.8974	1.491	0.005
308.15	1	1.5088	0.005

System: pentan-1-ol + anisole; phases: Liquid
Fixed: Pressure, kPa = 101
Property: Mass density, kg/m3 (Liquid); method: VIBTUB:UFactor:32
Temperature, K	Mole fraction of anisole	Mass density, kg/m3	uncertainty
298.15	0	810.92	3.49
298.15	0.1013	828.63	3.29
298.15	0.2032	846.67	3.08
298.15	0.3022	864.26	2.89
298.15	0.3946	880.67	2.71
298.15	0.4912	897.83	2.52
298.15	0.5984	916.91	2.31
298.15	0.6976	934.59	2.13
298.15	0.7965	952.41	1.94
298.15	0.8974	970.59	1.75
298.15	1	989.15	1.57
303.15	0	807.23	3.53
303.15	0.1013	824.77	3.33
303.15	0.2032	842.67	3.13
303.15	0.3022	860.11	2.94
303.15	0.3946	876.42	2.76
303.15	0.4912	893.47	2.57
303.15	0.5984	912.45	2.37
303.15	0.6976	930.04	2.18
303.15	0.7965	947.78	2
303.15	0.8974	965.9	1.81
303.15	1	984.45	1.62
308.15	0	803.52	3.58
308.15	0.1013	820.91	3.38
308.15	0.2032	838.66	3.18
308.15	0.3022	855.96	2.99
308.15	0.3946	872.17	2.81
308.15	0.4912	889.11	2.62
308.15	0.5984	907.98	2.42
308.15	0.6976	925.49	2.24
308.15	0.7965	943.15	2.05
308.15	0.8974	961.2	1.86
308.15	1	979.73	1.68

System: anisole + 3-methylbutan-1-ol; phases: Liquid
Fixed: Pressure, kPa = 101
Fixed: Temperature, K = 298.15
Property: Speed of sound, m/s (Liquid); method: LVPAI:UFactor:32
Mole fraction of anisole	Speed of sound, m/s	uncertainty
0	1241	43
0.103	1258	44
0.2001	1275	44
0.3022	1292	44
0.3995	1309	45
0.4944	1327	45
0.5995	1344	46
0.6915	1361	46
0.8022	1378	47
0.9044	1394	47
1	1412	47

System: anisole + 3-methylbutan-1-ol; phases: Liquid
Fixed: Pressure, kPa = 101
Property: Viscosity, Pa*s (Liquid); method: CAPTUB:UFactor:16
Temperature, K	Mole fraction of anisole	Viscosity, Pa*s	uncertainty
298.15	0	0.003835	0.000437
298.15	0.103	0.002766	0.000321
298.15	0.2001	0.002153	0.000254
298.15	0.3022	0.001736	0.000209
298.15	0.3995	0.00143	0.000175
298.15	0.4944	0.001254	0.000156
298.15	0.5995	0.001136	0.000143
298.15	0.6915	0.001046	0.000133
298.15	0.8022	0.001005	0.000128
298.15	0.9044	0.000956	0.000123
298.15	1	0.000988	0.000126
303.15	0	0.003261	0.000375
303.15	0.103	0.002408	0.000282
303.15	0.2001	0.001885	0.000225
303.15	0.3022	0.001544	0.000188
303.15	0.3995	0.001253	0.000156
303.15	0.4944	0.001135	0.000142
303.15	0.5995	0.00103	0.000131
303.15	0.6915	0.000956	0.000123
303.15	0.8022	0.000938	0.000121
303.15	0.9044	0.000881	0.000114
303.15	1	0.000913	0.000118
308.15	0	0.001518	0.001
308.15	0.1036	0.001242	0.001
308.15	0.2003	0.001078	0.001
308.15	0.3055	0.000961	0.001
308.15	0.4053	0.000879	0.001
308.15	0.5096	0.000838	0.001
308.15	0.6015	0.000821	0.001
308.15	0.7071	0.000802	0.001
308.15	0.8023	0.000795	0.001
308.15	0.9044	0.000792	0.001
308.15	1	0.000854	0.001

System: anisole + 3-methylbutan-1-ol; phases: Liquid
Fixed: Pressure, kPa = 101
Property: Refractive index (Na D-line) (Liquid); method: ABBE:UFactor:16
Temperature, K	Mole fraction of anisole	Refractive index (Na D-line)	uncertainty
298.15	0	1.405	0.0025
298.15	0.103	1.4159	0.0025
298.15	0.2001	1.4269	0.0025
298.15	0.3022	1.4378	0.0025
298.15	0.3995	1.4487	0.0025
298.15	0.4944	1.4579	0.0025
298.15	0.5995	1.4688	0.0025
298.15	0.6915	1.4797	0.0025
298.15	0.8022	1.4906	0.0025
298.15	0.9044	1.5015	0.0025
298.15	1	1.5137	0.0025
303.15	0	1.403	0.0025
303.15	0.103	1.4138	0.0025
303.15	0.2001	1.4247	0.0025
303.15	0.3022	1.4355	0.0025
303.15	0.3995	1.4463	0.0025
303.15	0.4944	1.4575	0.0025
303.15	0.5995	1.468	0.0025
303.15	0.6915	1.4788	0.0025
303.15	0.8022	1.4896	0.0025
303.15	0.9044	1.5005	0.0025
303.15	1	1.5113	0.0025
308.15	0	1.3782	0.02
308.15	0.1036	1.3966	0.02
308.15	0.2003	1.4129	0.02
308.15	0.3055	1.4287	0.02
308.15	0.4053	1.4426	0.02
308.15	0.5096	1.4542	0.02
308.15	0.6015	1.4673	0.02
308.15	0.7071	1.4793	0.02
308.15	0.8023	1.4897	0.02
308.15	0.9044	1.499	0.02
308.15	1	1.5088	0.02

System: anisole + 3-methylbutan-1-ol; phases: Liquid
Fixed: Pressure, kPa = 101
Property: Mass density, kg/m3 (Liquid); method: VIBTUB:UFactor:64
Temperature, K	Mole fraction of anisole	Mass density, kg/m3	uncertainty
298.15	0	807.2	6.94
298.15	0.103	825.87	6.49
298.15	0.2001	843.32	6.08
298.15	0.3022	861.74	5.64
298.15	0.3995	879.31	5.23
298.15	0.4944	896.5	4.82
298.15	0.5995	915.66	4.38
298.15	0.6915	932.47	3.99
298.15	0.8022	952.8	3.52
298.15	0.9044	971.6	3.09
298.15	1	989.15	2.69
303.15	0	803.45	7.03
303.15	0.103	821.94	6.59
303.15	0.2001	839.25	6.18
303.15	0.3022	857.55	5.74
303.15	0.3995	875.01	5.33
303.15	0.4944	892.11	4.93
303.15	0.5995	911.16	4.49
303.15	0.6915	929.01	4.07
303.15	0.8022	948.15	3.63
303.15	0.9044	966.9	3.2
303.15	1	984.45	2.81
308.15	0	791.86	7.32
308.15	0.1036	808.48	6.92
308.15	0.2003	827.18	6.47
308.15	0.3055	848.11	5.98
308.15	0.4053	867.53	5.52
308.15	0.5096	888.55	5.02
308.15	0.6015	906.1	4.61
308.15	0.7071	924.94	4.17
308.15	0.8023	942.78	3.76
308.15	0.9044	960.74	3.35
308.15	1	979.73	2.92
