Measured thermophysical data. p, Vm, T) measurements of (octane + benzene) at temperatures from (298.15 to 328.15) K and at pressures up to 40 MPa
Source: J. Chem. Thermodyn., 2008, 10.1016/j.jct.2007.11.009
Compound 1: octane, C8H18, InChI=1S/C8H18/c1-3-5-7-8-6-4-2/h3-8H2,1-2H3
Compound 2: benzene, C6H6, InChI=1S/C6H6/c1-2-4-6-5-3-1/h1-6H

System: octane; phases: Liquid
Property: Refractive index (Na D-line) (Liquid); method: Standard Abbe refractometry
Temperature, K	Pressure, kPa	Refractive index (Na D-line)	uncertainty
298.15	101.325	1.395	0.0007

System: octane; phases: Liquid
Property: Mass density, kg/m3 (Liquid); method: Vibrating tube method
Pressure, kPa	Temperature, K	Mass density, kg/m3	uncertainty
100	298.15	698.7	0.3
100	308.15	690.8	0.3
100	318.15	682.8	0.3
100	328.15	674.5	0.3
2130	298.15	700.4	0.3
2130	308.15	692.6	0.3
2130	318.15	684.7	0.3
2130	328.15	676.6	0.3
4150	298.15	702.2	0.3
4150	308.15	694.4	0.3
4150	318.15	686.7	0.3
4150	328.15	678.7	0.3
6180	298.15	703.8	0.3
6180	308.15	696.2	0.3
6180	318.15	688.6	0.3
6180	328.15	680.7	0.3
8210	298.15	705.4	0.3
8210	308.15	698	0.3
8210	318.15	690.4	0.3
8210	328.15	682.6	0.3
10230	298.15	707	0.3
10230	308.15	699.7	0.3
10230	318.15	692.2	0.3
10230	328.15	684.6	0.3
11250	298.15	707.8	0.3
11250	308.15	700.5	0.3
11250	318.15	693.1	0.4
11250	328.15	685.5	0.4
12260	298.15	708.6	0.4
12260	308.15	701.3	0.4
12260	318.15	694	0.4
12260	328.15	686.4	0.4
14290	298.15	710.1	0.4
14290	308.15	703	0.4
14290	318.15	695.7	0.4
14290	328.15	688.3	0.4
16310	298.15	711.7	0.4
16310	308.15	704.5	0.4
16310	318.15	697.4	0.4
16310	328.15	690.1	0.4
18340	298.15	713.1	0.4
18340	308.15	706.1	0.4
18340	318.15	699.1	0.4
18340	328.15	691.8	0.4
20370	298.15	714.6	0.4
20370	308.15	707.6	0.4
20370	318.15	700.7	0.4
20370	328.15	693.6	0.4
22390	298.15	715.9	0.4
22390	308.15	709.1	0.4
22390	318.15	702.3	0.4
22390	328.15	695.2	0.5
24420	298.15	717.4	0.4
24420	308.15	710.6	0.5
24420	318.15	703.9	0.5
24420	328.15	696.9	0.5
26450	298.15	718.8	0.5
26450	308.15	712	0.5
26450	318.15	705.4	0.5
26450	328.15	698.5	0.5
28470	298.15	720.1	0.5
28470	308.15	713.4	0.5
28470	318.15	706.9	0.5
28470	328.15	700	0.5
29490	298.15	720.8	0.5
29490	308.15	714.1	0.5
29490	318.15	707.6	0.5
29490	328.15	700.8	0.5
30500	298.15	721.4	0.5
30500	308.15	714.8	0.5
30500	318.15	708.3	0.5
30500	328.15	701.6	0.5
32530	298.15	722.7	0.5
32530	308.15	716.2	0.5
32530	318.15	709.7	0.5
32530	328.15	703	0.6
34550	298.15	724	0.5
34550	308.15	717.5	0.6
34550	318.15	711.2	0.6
34550	328.15	704.5	0.6
36580	298.15	725.3	0.6
36580	308.15	718.8	0.6
36580	318.15	712.5	0.6
36580	328.15	706	0.6
38600	298.15	726.5	0.6
38600	308.15	720.2	0.6
38600	318.15	713.9	0.6
38600	328.15	707.4	0.6
39620	298.15	727.1	0.6
39620	308.15	720.8	0.6
39620	318.15	714.6	0.6
39620	328.15	708.1	0.6

System: benzene; phases: Liquid
Property: Refractive index (Na D-line) (Liquid); method: Standard Abbe refractometry
Temperature, K	Pressure, kPa	Refractive index (Na D-line)	uncertainty
298.15	101.325	1.4979	0.0007

System: benzene; phases: Liquid
Property: Mass density, kg/m3 (Liquid); method: Vibrating tube method
Pressure, kPa	Temperature, K	Mass density, kg/m3	uncertainty
100	298.15	873.5	0.2
100	308.15	862.9	0.2
100	318.15	852.3	0.2
100	328.15	841.5	0.2
2130	298.15	875.1	0.2
2130	308.15	864.7	0.2
2130	318.15	854.2	0.2
2130	328.15	843.6	0.2
4150	298.15	876.7	0.2
4150	308.15	866.4	0.2
4150	318.15	856.1	0.2
4150	328.15	845.6	0.2
6180	298.15	878.4	0.2
6180	308.15	868.2	0.2
6180	318.15	857.9	0.2
6180	328.15	847.5	0.2
8210	298.15	879.9	0.2
8210	308.15	869.9	0.2
8210	318.15	859.7	0.2
8210	328.15	849.5	0.3
10230	298.15	881.5	0.2
10230	308.15	871.6	0.3
10230	318.15	861.5	0.3
10230	328.15	851.3	0.3
11250	298.15	882.3	0.2
11250	308.15	872.4	0.3
11250	318.15	862.4	0.3
11250	328.15	852.3	0.3
12260	298.15	883.1	0.3
12260	308.15	873.2	0.3
12260	318.15	863.2	0.3
12260	328.15	853.2	0.3
14290	298.15	884.6	0.3
14290	308.15	874.8	0.3
14290	318.15	865	0.3
14290	328.15	855	0.3
16310	298.15	886.1	0.3
16310	308.15	876.4	0.3
16310	318.15	866.6	0.3
16310	328.15	856.8	0.3
18340	298.15	887.6	0.3
18340	308.15	878	0.3
18340	318.15	868.3	0.3
18340	328.15	858.6	0.3
20370	298.15	889.1	0.3
20370	308.15	879.5	0.3
20370	318.15	869.9	0.3
20370	328.15	860.3	0.3
22390	298.15	890.5	0.3
22390	308.15	881.1	0.3
22390	318.15	871.6	0.3
22390	328.15	862	0.3
24420	298.15	892	0.3
24420	308.15	882.6	0.3
24420	318.15	873.2	0.3
24420	328.15	863.7	0.3
26450	298.15	893.4	0.3
26450	308.15	884	0.3
26450	318.15	874.7	0.3
26450	328.15	865.3	0.3
28470	298.15	894.7	0.3
28470	308.15	885.5	0.3
28470	318.15	876.2	0.3
28470	328.15	866.9	0.3
29490	298.15	895.4	0.3
29490	308.15	886.2	0.3
29490	318.15	877	0.3
29490	328.15	867.8	0.3
30500	298.15	896.1	0.3
30500	308.15	886.9	0.3
30500	318.15	877.8	0.3
30500	328.15	868.6	0.3
32530	298.15	897.5	0.3
32530	308.15	888.4	0.3
32530	318.15	879.2	0.3
32530	328.15	870.1	0.3
34550	298.15	898.8	0.3
34550	308.15	889.7	0.3
34550	318.15	880.7	0.3
34550	328.15	871.7	0.3
36580	298.15	900.1	0.3
36580	308.15	891.1	0.3
36580	318.15	882.1	0.3
36580	328.15	873.1	0.3
38600	298.15	901.4	0.3
38600	308.15	892.5	0.3
38600	318.15	883.6	0.3
38600	328.15	874.7	0.3
39620	298.15	902	0.3
39620	308.15	893.2	0.3
39620	318.15	884.3	0.3
39620	328.15	875.4	0.3

System: benzene + octane; phases: Liquid
Property: Mass density, kg/m3 (Liquid); method: Vibrating tube method
Mole fraction of octane	Pressure, kPa	Temperature, K	Mass density, kg/m3	uncertainty
0	100	298.15	873.5	0.2
0	100	308.15	862.9	0.2
0	100	318.15	852.3	0.2
0	100	328.15	841.5	0.2
0	2130	298.15	875.1	0.2
0	2130	308.15	864.7	0.2
0	2130	318.15	854.2	0.2
0	2130	328.15	843.6	0.2
0	4150	298.15	876.7	0.2
0	4150	308.15	866.4	0.2
0	4150	318.15	856.1	0.2
0	4150	328.15	845.6	0.2
0	6180	298.15	878.4	0.2
0	6180	308.15	868.2	0.2
0	6180	318.15	857.9	0.2
0	6180	328.15	847.5	0.2
0	8210	298.15	879.9	0.2
0	8210	308.15	869.9	0.2
0	8210	318.15	859.7	0.2
0	8210	328.15	849.5	0.3
0	10230	298.15	881.5	0.2
0	10230	308.15	871.6	0.3
0	10230	318.15	861.5	0.3
0	10230	328.15	851.3	0.3
0	11250	298.15	882.3	0.2
0	11250	308.15	872.4	0.3
0	11250	318.15	862.4	0.3
0	11250	328.15	852.3	0.3
0	12260	298.15	883.1	0.3
0	12260	308.15	873.2	0.3
0	12260	318.15	863.2	0.3
0	12260	328.15	853.2	0.3
0	14290	298.15	884.6	0.3
0	14290	308.15	874.8	0.3
0	14290	318.15	865	0.3
0	14290	328.15	855	0.3
0	16310	298.15	886.1	0.3
0	16310	308.15	876.4	0.3
0	16310	318.15	866.6	0.3
0	16310	328.15	856.8	0.3
0	18340	298.15	887.6	0.3
0	18340	308.15	878	0.3
0	18340	318.15	868.3	0.3
0	18340	328.15	858.6	0.3
0	20370	298.15	889.1	0.3
0	20370	308.15	879.5	0.3
0	20370	318.15	869.9	0.3
0	20370	328.15	860.3	0.3
0	22390	298.15	890.5	0.3
0	22390	308.15	881.1	0.3
0	22390	318.15	871.6	0.3
0	22390	328.15	862	0.3
0	24420	298.15	892	0.3
0	24420	308.15	882.6	0.3
0	24420	318.15	873.2	0.3
0	24420	328.15	863.7	0.3
0	26450	298.15	893.4	0.3
0	26450	308.15	884	0.3
0	26450	318.15	874.7	0.3
0	26450	328.15	865.3	0.3
0	28470	298.15	894.7	0.3
0	28470	308.15	885.5	0.3
0	28470	318.15	876.2	0.3
0	28470	328.15	866.9	0.3
0	29490	298.15	895.4	0.3
0	29490	308.15	886.2	0.3
0	29490	318.15	877	0.3
0	29490	328.15	867.8	0.3
0	30500	298.15	896.1	0.3
0	30500	308.15	886.9	0.3
0	30500	318.15	877.8	0.3
0	30500	328.15	868.6	0.3
0	32530	298.15	897.5	0.3
0	32530	308.15	888.4	0.3
0	32530	318.15	879.2	0.3
0	32530	328.15	870.1	0.3
0	34550	298.15	898.8	0.3
0	34550	308.15	889.7	0.3
0	34550	318.15	880.7	0.3
0	34550	328.15	871.7	0.3
0	36580	298.15	900.1	0.3
0	36580	308.15	891.1	0.3
0	36580	318.15	882.1	0.3
0	36580	328.15	873.1	0.3
0	38600	298.15	901.4	0.3
0	38600	308.15	892.5	0.3
0	38600	318.15	883.6	0.3
0	38600	328.15	874.7	0.3
0	39620	298.15	902	0.3
0	39620	308.15	893.2	0.3
0	39620	318.15	884.3	0.3
0	39620	328.15	875.4	0.3
0.10969	100	298.15	838.3	0.2
0.10969	100	308.15	828.4	0.2
0.10969	100	318.15	818.2	0.2
0.10969	100	328.15	807.9	0.2
0.10969	2130	298.15	839.9	0.2
0.10969	2130	308.15	830.2	0.2
0.10969	2130	318.15	820.2	0.2
0.10969	2130	328.15	810	0.2
0.10969	4150	298.15	841.6	0.2
0.10969	4150	308.15	832	0.2
0.10969	4150	318.15	822.1	0.3
0.10969	4150	328.15	812.1	0.3
0.10969	6180	298.15	843.3	0.3
0.10969	6180	308.15	833.7	0.3
0.10969	6180	318.15	824	0.3
0.10969	6180	328.15	814.1	0.3
0.10969	8210	298.15	844.9	0.3
0.10969	8210	308.15	835.5	0.3
0.10969	8210	318.15	825.8	0.3
0.10969	8210	328.15	816.1	0.3
0.10969	10230	298.15	846.5	0.3
0.10969	10230	308.15	837.2	0.3
0.10969	10230	318.15	827.7	0.3
0.10969	10230	328.15	818	0.3
0.10969	11250	298.15	847.3	0.3
0.10969	11250	308.15	838	0.3
0.10969	11250	318.15	828.6	0.3
0.10969	11250	328.15	818.9	0.3
0.10969	12260	298.15	848.1	0.3
0.10969	12260	308.15	838.8	0.3
0.10969	12260	318.15	829.4	0.3
0.10969	12260	328.15	819.9	0.3
0.10969	14290	298.15	849.7	0.3
0.10969	14290	308.15	840.5	0.3
0.10969	14290	318.15	831.2	0.3
0.10969	14290	328.15	821.7	0.3
0.10969	16310	298.15	851.2	0.3
0.10969	16310	308.15	842.1	0.3
0.10969	16310	318.15	832.9	0.3
0.10969	16310	328.15	823.6	0.3
0.10969	18340	298.15	852.7	0.3
0.10969	18340	308.15	843.7	0.3
0.10969	18340	318.15	834.6	0.3
0.10969	18340	328.15	825.3	0.3
0.10969	20370	298.15	854.2	0.3
0.10969	20370	308.15	845.3	0.3
0.10969	20370	318.15	836.2	0.3
0.10969	20370	328.15	827.1	0.3
0.10969	22390	298.15	855.7	0.3
0.10969	22390	308.15	846.8	0.3
0.10969	22390	318.15	837.9	0.3
0.10969	22390	328.15	828.8	0.3
0.10969	24420	298.15	857.1	0.3
0.10969	24420	308.15	848.3	0.3
0.10969	24420	318.15	839.5	0.3
0.10969	24420	328.15	830.5	0.3
0.10969	26450	298.15	858.5	0.3
0.10969	26450	308.15	849.8	0.3
0.10969	26450	318.15	841	0.3
0.10969	26450	328.15	832.2	0.3
0.10969	28470	298.15	859.9	0.3
0.10969	28470	308.15	851.3	0.3
0.10969	28470	318.15	842.6	0.3
0.10969	28470	328.15	833.8	0.3
0.10969	29490	298.15	860.6	0.3
0.10969	29490	308.15	852	0.3
0.10969	29490	318.15	843.3	0.3
0.10969	29490	328.15	834.6	0.3
0.10969	30500	298.15	861.3	0.3
0.10969	30500	308.15	852.7	0.3
0.10969	30500	318.15	844.1	0.3
0.10969	30500	328.15	835.4	0.4
0.10969	32530	298.15	862.6	0.3
0.10969	32530	308.15	854.2	0.3
0.10969	32530	318.15	845.6	0.4
0.10969	32530	328.15	837	0.4
0.10969	34550	298.15	864	0.3
0.10969	34550	308.15	855.5	0.3
0.10969	34550	318.15	847.1	0.4
0.10969	34550	328.15	838.5	0.4
0.10969	36580	298.15	865.3	0.3
0.10969	36580	308.15	856.9	0.4
0.10969	36580	318.15	848.5	0.4
0.10969	36580	328.15	840	0.4
0.10969	38600	298.15	866.6	0.4
0.10969	38600	308.15	858.3	0.4
0.10969	38600	318.15	850	0.4
0.10969	38600	328.15	841.5	0.4
0.10969	39620	298.15	867.3	0.4
0.10969	39620	308.15	859	0.4
0.10969	39620	318.15	850.7	0.4
0.10969	39620	328.15	842.3	0.5
0.2036	100	298.15	813.5	0.2
0.2036	100	308.15	803.9	0.2
0.2036	100	318.15	794.1	0.2
0.2036	100	328.15	784.5	0.2
0.2036	2130	298.15	815.2	0.2
0.2036	2130	308.15	805.7	0.2
0.2036	2130	318.15	796.1	0.2
0.2036	2130	328.15	786.7	0.3
0.2036	4150	298.15	816.9	0.3
0.2036	4150	308.15	807.5	0.3
0.2036	4150	318.15	798.1	0.3
0.2036	4150	328.15	788.7	0.3
0.2036	6180	298.15	818.6	0.3
0.2036	6180	308.15	809.3	0.3
0.2036	6180	318.15	800	0.3
0.2036	6180	328.15	790.8	0.3
0.2036	8210	298.15	820.2	0.3
0.2036	8210	308.15	811.1	0.3
0.2036	8210	318.15	801.9	0.3
0.2036	8210	328.15	792.8	0.3
0.2036	10230	298.15	821.8	0.3
0.2036	10230	308.15	812.8	0.3
0.2036	10230	318.15	803.7	0.3
0.2036	10230	328.15	794.7	0.3
0.2036	11250	298.15	822.7	0.3
0.2036	11250	308.15	813.7	0.3
0.2036	11250	318.15	804.6	0.3
0.2036	11250	328.15	795.7	0.3
0.2036	12260	298.15	823.5	0.3
0.2036	12260	308.15	814.5	0.3
0.2036	12260	318.15	805.5	0.3
0.2036	12260	328.15	796.6	0.3
0.2036	14290	298.15	825.1	0.3
0.2036	14290	308.15	816.2	0.3
0.2036	14290	318.15	807.3	0.3
0.2036	14290	328.15	798.5	0.3
0.2036	16310	298.15	826.6	0.3
0.2036	16310	308.15	817.8	0.3
0.2036	16310	318.15	809	0.3
0.2036	16310	328.15	800.4	0.3
0.2036	18340	298.15	828.1	0.3
0.2036	18340	308.15	819.5	0.3
0.2036	18340	318.15	810.7	0.3
0.2036	18340	328.15	802.1	0.3
0.2036	20370	298.15	829.6	0.3
0.2036	20370	308.15	821	0.3
0.2036	20370	318.15	812.4	0.3
0.2036	20370	328.15	803.9	0.3
0.2036	22390	298.15	831.1	0.3
0.2036	22390	308.15	822.6	0.3
0.2036	22390	318.15	814.1	0.3
0.2036	22390	328.15	805.7	0.3
0.2036	24420	298.15	832.6	0.3
0.2036	24420	308.15	824.1	0.3
0.2036	24420	318.15	815.7	0.3
0.2036	24420	328.15	807.4	0.4
0.2036	26450	298.15	834	0.3
0.2036	26450	308.15	825.6	0.3
0.2036	26450	318.15	817.3	0.4
0.2036	26450	328.15	809.1	0.4
0.2036	28470	298.15	835.4	0.3
0.2036	28470	308.15	827.1	0.4
0.2036	28470	318.15	818.8	0.4
0.2036	28470	328.15	810.7	0.4
0.2036	29490	298.15	836.1	0.3
0.2036	29490	308.15	827.8	0.4
0.2036	29490	318.15	819.6	0.4
0.2036	29490	328.15	811.5	0.4
0.2036	30500	298.15	836.8	0.4
0.2036	30500	308.15	828.6	0.4
0.2036	30500	318.15	820.4	0.4
0.2036	30500	328.15	812.3	0.4
0.2036	32530	298.15	838.1	0.4
0.2036	32530	308.15	830	0.4
0.2036	32530	318.15	821.9	0.4
0.2036	32530	328.15	813.9	0.4
0.2036	34550	298.15	839.5	0.4
0.2036	34550	308.15	831.4	0.4
0.2036	34550	318.15	823.4	0.4
0.2036	34550	328.15	815.5	0.4
0.2036	36580	298.15	840.8	0.4
0.2036	36580	308.15	832.8	0.4
0.2036	36580	318.15	824.8	0.4
0.2036	36580	328.15	817	0.4
0.2036	38600	298.15	842.1	0.4
0.2036	38600	308.15	834.2	0.4
0.2036	38600	318.15	826.3	0.4
0.2036	38600	328.15	818.5	0.4
0.2036	39620	298.15	842.7	0.4
0.2036	39620	308.15	834.9	0.4
0.2036	39620	318.15	827	0.4
0.2036	39620	328.15	819.1	0.5
0.29835	100	298.15	792.3	0.2
0.29835	100	308.15	783	0.2
0.29835	100	318.15	773.6	0.2
0.29835	100	328.15	764.1	0.2
0.29835	2130	298.15	794	0.3
0.29835	2130	308.15	784.9	0.3
0.29835	2130	318.15	775.6	0.3
0.29835	2130	328.15	766.2	0.3
0.29835	4150	298.15	795.7	0.3
0.29835	4150	308.15	786.7	0.3
0.29835	4150	318.15	777.6	0.3
0.29835	4150	328.15	768.3	0.3
0.29835	6180	298.15	797.4	0.3
0.29835	6180	308.15	788.5	0.3
0.29835	6180	318.15	779.5	0.3
0.29835	6180	328.15	770.4	0.3
0.29835	8210	298.15	799.1	0.3
0.29835	8210	308.15	790.3	0.3
0.29835	8210	318.15	781.4	0.3
0.29835	8210	328.15	772.4	0.3
0.29835	10230	298.15	800.7	0.3
0.29835	10230	308.15	792	0.3
0.29835	10230	318.15	783.3	0.3
0.29835	10230	328.15	774.4	0.3
0.29835	11250	298.15	801.5	0.3
0.29835	11250	308.15	792.9	0.3
0.29835	11250	318.15	784.2	0.3
0.29835	11250	328.15	775.3	0.3
0.29835	12260	298.15	802.4	0.3
0.29835	12260	308.15	793.7	0.3
0.29835	12260	318.15	785.1	0.3
0.29835	12260	328.15	776.3	0.3
0.29835	14290	298.15	803.9	0.3
0.29835	14290	308.15	795.4	0.3
0.29835	14290	318.15	786.8	0.3
0.29835	14290	328.15	778.2	0.3
0.29835	16310	298.15	805.5	0.3
0.29835	16310	308.15	797	0.3
0.29835	16310	318.15	788.6	0.3
0.29835	16310	328.15	780.1	0.3
0.29835	18340	298.15	807	0.3
0.29835	18340	308.15	798.7	0.3
0.29835	18340	318.15	790.3	0.3
0.29835	18340	328.15	781.9	0.3
0.29835	20370	298.15	808.5	0.3
0.29835	20370	308.15	800.3	0.3
0.29835	20370	318.15	792	0.3
0.29835	20370	328.15	783.6	0.3
0.29835	22390	298.15	810	0.3
0.29835	22390	308.15	801.8	0.3
0.29835	22390	318.15	793.6	0.4
0.29835	22390	328.15	785.4	0.4
0.29835	24420	298.15	811.5	0.4
0.29835	24420	308.15	803.4	0.4
0.29835	24420	318.15	795.3	0.4
0.29835	24420	328.15	787.1	0.4
0.29835	26450	298.15	812.9	0.4
0.29835	26450	308.15	804.9	0.4
0.29835	26450	318.15	796.8	0.4
0.29835	26450	328.15	788.8	0.4
0.29835	28470	298.15	814.3	0.4
0.29835	28470	308.15	806.4	0.4
0.29835	28470	318.15	798.5	0.4
0.29835	28470	328.15	790.4	0.4
0.29835	29490	298.15	815	0.4
0.29835	29490	308.15	807.1	0.4
0.29835	29490	318.15	799.2	0.4
0.29835	29490	328.15	791.2	0.4
0.29835	30500	298.15	815.7	0.4
0.29835	30500	308.15	807.8	0.4
0.29835	30500	318.15	799.9	0.4
0.29835	30500	328.15	792	0.4
0.29835	32530	298.15	817	0.4
0.29835	32530	308.15	809.2	0.4
0.29835	32530	318.15	801.4	0.4
0.29835	32530	328.15	793.6	0.4
0.29835	34550	298.15	818.4	0.4
0.29835	34550	308.15	810.6	0.4
0.29835	34550	318.15	802.9	0.4
0.29835	34550	328.15	795.2	0.4
0.29835	36580	298.15	819.7	0.4
0.29835	36580	308.15	812	0.4
0.29835	36580	318.15	804.4	0.4
0.29835	36580	328.15	796.7	0.4
0.29835	38600	298.15	821	0.4
0.29835	38600	308.15	813.4	0.4
0.29835	38600	318.15	805.8	0.4
0.29835	38600	328.15	798.2	0.5
0.29835	39620	298.15	821.6	0.5
0.29835	39620	308.15	814.1	0.5
0.29835	39620	318.15	806.5	0.5
0.29835	39620	328.15	798.9	0.5
0.40689	100	298.15	771.6	0.2
0.40689	100	308.15	762.6	0.2
0.40689	100	318.15	753.6	0.2
0.40689	100	328.15	744.3	0.3
0.40689	2130	298.15	773.3	0.3
0.40689	2130	308.15	764.5	0.3
0.40689	2130	318.15	755.6	0.3
0.40689	2130	328.15	746.5	0.3
0.40689	4150	298.15	775.1	0.3
0.40689	4150	308.15	766.3	0.3
0.40689	4150	318.15	757.6	0.3
0.40689	4150	328.15	748.6	0.3
0.40689	6180	298.15	776.8	0.3
0.40689	6180	308.15	768.2	0.3
0.40689	6180	318.15	759.5	0.3
0.40689	6180	328.15	750.7	0.3
0.40689	8210	298.15	778.5	0.3
0.40689	8210	308.15	770	0.3
0.40689	8210	318.15	761.4	0.3
0.40689	8210	328.15	752.7	0.3
0.40689	10230	298.15	780.1	0.3
0.40689	10230	308.15	771.7	0.3
0.40689	10230	318.15	763.3	0.3
0.40689	10230	328.15	754.7	0.3
0.40689	11250	298.15	780.9	0.3
0.40689	11250	308.15	772.6	0.3
0.40689	11250	318.15	764.2	0.3
0.40689	11250	328.15	755.6	0.3
0.40689	12260	298.15	781.7	0.3
0.40689	12260	308.15	773.4	0.3
0.40689	12260	318.15	765.1	0.3
0.40689	12260	328.15	756.6	0.3
0.40689	14290	298.15	783.4	0.3
0.40689	14290	308.15	775.1	0.3
0.40689	14290	318.15	766.9	0.3
0.40689	14290	328.15	758.5	0.3
0.40689	16310	298.15	784.9	0.3
0.40689	16310	308.15	776.7	0.3
0.40689	16310	318.15	768.6	0.3
0.40689	16310	328.15	760.4	0.3
0.40689	18340	298.15	786.4	0.3
0.40689	18340	308.15	778.4	0.3
0.40689	18340	318.15	770.3	0.3
0.40689	18340	328.15	762.2	0.4
0.40689	20370	298.15	788	0.3
0.40689	20370	308.15	780	0.4
0.40689	20370	318.15	772	0.4
0.40689	20370	328.15	763.9	0.4
0.40689	22390	298.15	789.4	0.4
0.40689	22390	308.15	781.5	0.4
0.40689	22390	318.15	773.7	0.4
0.40689	22390	328.15	765.7	0.4
0.40689	24420	298.15	790.8	0.4
0.40689	24420	308.15	783.1	0.4
0.40689	24420	318.15	775.3	0.4
0.40689	24420	328.15	767.4	0.4
0.40689	26450	298.15	792.3	0.4
0.40689	26450	308.15	784.6	0.4
0.40689	26450	318.15	776.9	0.4
0.40689	26450	328.15	769.1	0.4
0.40689	28470	298.15	793.7	0.4
0.40689	28470	308.15	786	0.4
0.40689	28470	318.15	778.5	0.4
0.40689	28470	328.15	770.7	0.4
0.40689	29490	298.15	794.3	0.4
0.40689	29490	308.15	786.8	0.4
0.40689	29490	318.15	779.2	0.4
0.40689	29490	328.15	771.5	0.4
0.40689	30500	298.15	795	0.4
0.40689	30500	308.15	787.5	0.4
0.40689	30500	318.15	780	0.4
0.40689	30500	328.15	772.3	0.4
0.40689	32530	298.15	796.4	0.4
0.40689	32530	308.15	788.9	0.4
0.40689	32530	318.15	781.5	0.4
0.40689	32530	328.15	773.9	0.4
0.40689	34550	298.15	797.8	0.4
0.40689	34550	308.15	790.3	0.4
0.40689	34550	318.15	783	0.4
0.40689	34550	328.15	775.4	0.5
0.40689	36580	298.15	799.1	0.4
0.40689	36580	308.15	791.7	0.4
0.40689	36580	318.15	784.4	0.5
0.40689	36580	328.15	777	0.5
0.40689	38600	298.15	800.4	0.4
0.40689	38600	308.15	793.1	0.5
0.40689	38600	318.15	785.9	0.5
0.40689	38600	328.15	778.4	0.5
0.40689	39620	298.15	801	0.5
0.40689	39620	308.15	793.7	0.5
0.40689	39620	318.15	786.6	0.5
0.40689	39620	328.15	779.2	0.5
0.5027	100	298.15	755.7	0.2
0.5027	100	308.15	747	0.3
0.5027	100	318.15	738.1	0.3
0.5027	100	328.15	729.2	0.3
0.5027	2130	298.15	757.4	0.3
0.5027	2130	308.15	748.8	0.3
0.5027	2130	318.15	740.1	0.3
0.5027	2130	328.15	731.4	0.3
0.5027	4150	298.15	759.2	0.3
0.5027	4150	308.15	750.7	0.3
0.5027	4150	318.15	742.1	0.3
0.5027	4150	328.15	733.5	0.3
0.5027	6180	298.15	760.9	0.3
0.5027	6180	308.15	752.5	0.3
0.5027	6180	318.15	744	0.3
0.5027	6180	328.15	735.6	0.3
0.5027	8210	298.15	762.5	0.3
0.5027	8210	308.15	754.3	0.3
0.5027	8210	318.15	745.9	0.3
0.5027	8210	328.15	737.6	0.3
0.5027	10230	298.15	764.2	0.3
0.5027	10230	308.15	756.1	0.3
0.5027	10230	318.15	747.8	0.3
0.5027	10230	328.15	739.6	0.3
0.5027	11250	298.15	765	0.3
0.5027	11250	308.15	756.9	0.3
0.5027	11250	318.15	748.7	0.3
0.5027	11250	328.15	740.6	0.3
0.5027	12260	298.15	765.8	0.3
0.5027	12260	308.15	757.8	0.3
0.5027	12260	318.15	749.6	0.3
0.5027	12260	328.15	741.5	0.3
0.5027	14290	298.15	767.4	0.3
0.5027	14290	308.15	759.5	0.3
0.5027	14290	318.15	751.4	0.3
0.5027	14290	328.15	743.4	0.3
0.5027	16310	298.15	769	0.3
0.5027	16310	308.15	761.1	0.3
0.5027	16310	318.15	753.2	0.3
0.5027	16310	328.15	745.3	0.4
0.5027	18340	298.15	770.5	0.3
0.5027	18340	308.15	762.7	0.4
0.5027	18340	318.15	754.9	0.4
0.5027	18340	328.15	747.1	0.4
0.5027	20370	298.15	772	0.4
0.5027	20370	308.15	764.3	0.4
0.5027	20370	318.15	756.6	0.4
0.5027	20370	328.15	748.9	0.4
0.5027	22390	298.15	773.4	0.4
0.5027	22390	308.15	765.8	0.4
0.5027	22390	318.15	758.2	0.4
0.5027	22390	328.15	750.6	0.4
0.5027	24420	298.15	774.9	0.4
0.5027	24420	308.15	767.4	0.4
0.5027	24420	318.15	759.8	0.4
0.5027	24420	328.15	752.3	0.4
0.5027	26450	298.15	776.3	0.4
0.5027	26450	308.15	768.9	0.4
0.5027	26450	318.15	761.4	0.4
0.5027	26450	328.15	754	0.4
0.5027	28470	298.15	777.7	0.4
0.5027	28470	308.15	770.4	0.4
0.5027	28470	318.15	763	0.4
0.5027	28470	328.15	755.6	0.4
0.5027	29490	298.15	778.4	0.4
0.5027	29490	308.15	771.1	0.4
0.5027	29490	318.15	763.7	0.4
0.5027	29490	328.15	756.4	0.4
0.5027	30500	298.15	779.1	0.4
0.5027	30500	308.15	771.8	0.4
0.5027	30500	318.15	764.5	0.4
0.5027	30500	328.15	757.2	0.4
0.5027	32530	298.15	780.4	0.4
0.5027	32530	308.15	773.2	0.4
0.5027	32530	318.15	766	0.5
0.5027	32530	328.15	758.8	0.5
0.5027	34550	298.15	781.8	0.4
0.5027	34550	308.15	774.6	0.5
0.5027	34550	318.15	767.5	0.5
0.5027	34550	328.15	760.3	0.5
0.5027	36580	298.15	783.1	0.5
0.5027	36580	308.15	776	0.5
0.5027	36580	318.15	768.9	0.5
0.5027	36580	328.15	761.8	0.5
0.5027	38600	298.15	784.4	0.5
0.5027	38600	308.15	777.3	0.5
0.5027	38600	318.15	770.4	0.5
0.5027	38600	328.15	763.3	0.5
0.5027	39620	298.15	785	0.5
0.5027	39620	308.15	778	0.5
0.5027	39620	318.15	771.1	0.5
0.5027	39620	328.15	764	0.5
0.59035	100	298.15	743	0.3
0.59035	100	308.15	734.5	0.3
0.59035	100	318.15	725.8	0.3
0.59035	100	328.15	717	0.3
0.59035	2130	298.15	744.8	0.3
0.59035	2130	308.15	736.4	0.3
0.59035	2130	318.15	727.8	0.3
0.59035	2130	328.15	719.1	0.3
0.59035	4150	298.15	746.5	0.3
0.59035	4150	308.15	738.2	0.3
0.59035	4150	318.15	729.8	0.3
0.59035	4150	328.15	721.2	0.3
0.59035	6180	298.15	748.2	0.3
0.59035	6180	308.15	740	0.3
0.59035	6180	318.15	731.7	0.3
0.59035	6180	328.15	723.3	0.3
0.59035	8210	298.15	749.9	0.3
0.59035	8210	308.15	741.8	0.3
0.59035	8210	318.15	733.6	0.3
0.59035	8210	328.15	725.3	0.3
0.59035	10230	298.15	751.5	0.3
0.59035	10230	308.15	743.6	0.3
0.59035	10230	318.15	735.5	0.3
0.59035	10230	328.15	727.3	0.3
0.59035	11250	298.15	752.3	0.3
0.59035	11250	308.15	744.4	0.3
0.59035	11250	318.15	736.4	0.3
0.59035	11250	328.15	728.3	0.3
0.59035	12260	298.15	753.2	0.3
0.59035	12260	308.15	745.3	0.3
0.59035	12260	318.15	737.3	0.3
0.59035	12260	328.15	729.2	0.3
0.59035	14290	298.15	754.7	0.3
0.59035	14290	308.15	747	0.3
0.59035	14290	318.15	739.1	0.3
0.59035	14290	328.15	731.1	0.3
0.59035	16310	298.15	756.3	0.3
0.59035	16310	308.15	748.6	0.4
0.59035	16310	318.15	740.8	0.4
0.59035	16310	328.15	733	0.4
0.59035	18340	298.15	757.8	0.4
0.59035	18340	308.15	750.2	0.4
0.59035	18340	318.15	742.5	0.4
0.59035	18340	328.15	734.8	0.4
0.59035	20370	298.15	759.3	0.4
0.59035	20370	308.15	751.8	0.4
0.59035	20370	318.15	744.2	0.4
0.59035	20370	328.15	736.6	0.4
0.59035	22390	298.15	760.8	0.4
0.59035	22390	308.15	753.3	0.4
0.59035	22390	318.15	745.8	0.4
0.59035	22390	328.15	738.3	0.4
0.59035	24420	298.15	762.2	0.4
0.59035	24420	308.15	754.8	0.4
0.59035	24420	318.15	747.4	0.4
0.59035	24420	328.15	740	0.4
0.59035	26450	298.15	763.6	0.4
0.59035	26450	308.15	756.3	0.4
0.59035	26450	318.15	749	0.4
0.59035	26450	328.15	741.6	0.4
0.59035	28470	298.15	765	0.4
0.59035	28470	308.15	757.8	0.4
0.59035	28470	318.15	750.6	0.4
0.59035	28470	328.15	743.2	0.5
0.59035	29490	298.15	765.7	0.4
0.59035	29490	308.15	758.5	0.4
0.59035	29490	318.15	751.4	0.4
0.59035	29490	328.15	744	0.5
0.59035	30500	298.15	766.4	0.4
0.59035	30500	308.15	759.2	0.4
0.59035	30500	318.15	752.1	0.5
0.59035	30500	328.15	744.8	0.5
0.59035	32530	298.15	767.7	0.5
0.59035	32530	308.15	760.7	0.5
0.59035	32530	318.15	753.6	0.5
0.59035	32530	328.15	746.4	0.5
0.59035	34550	298.15	769.1	0.5
0.59035	34550	308.15	762	0.5
0.59035	34550	318.15	755.1	0.5
0.59035	34550	328.15	747.9	0.5
0.59035	36580	298.15	770.4	0.5
0.59035	36580	308.15	763.4	0.5
0.59035	36580	318.15	756.5	0.5
0.59035	36580	328.15	749.4	0.5
0.59035	38600	298.15	771.7	0.5
0.59035	38600	308.15	764.7	0.5
0.59035	38600	318.15	757.9	0.5
0.59035	38600	328.15	750.9	0.5
0.59035	39620	298.15	772.3	0.5
0.59035	39620	308.15	765.4	0.5
0.59035	39620	318.15	758.6	0.5
0.59035	39620	328.15	751.6	0.6
0.69888	100	298.15	729.1	0.3
0.69888	100	308.15	720.8	0.3
0.69888	100	318.15	712.4	0.3
0.69888	100	328.15	704	0.3
0.69888	2130	298.15	730.9	0.3
0.69888	2130	308.15	722.7	0.3
0.69888	2130	318.15	714.4	0.3
0.69888	2130	328.15	706.1	0.3
0.69888	4150	298.15	732.6	0.3
0.69888	4150	308.15	724.5	0.3
0.69888	4150	318.15	716.4	0.3
0.69888	4150	328.15	708.2	0.3
0.69888	6180	298.15	734.3	0.3
0.69888	6180	308.15	726.3	0.3
0.69888	6180	318.15	718.3	0.3
0.69888	6180	328.15	710.3	0.3
0.69888	8210	298.15	735.9	0.3
0.69888	8210	308.15	728.1	0.3
0.69888	8210	318.15	720.2	0.3
0.69888	8210	328.15	712.3	0.3
0.69888	10230	298.15	737.6	0.3
0.69888	10230	308.15	729.9	0.3
0.69888	10230	318.15	722	0.3
0.69888	10230	328.15	714.3	0.3
0.69888	11250	298.15	738.4	0.3
0.69888	11250	308.15	730.7	0.3
0.69888	11250	318.15	722.9	0.3
0.69888	11250	328.15	715.2	0.3
0.69888	12260	298.15	739.2	0.3
0.69888	12260	308.15	731.6	0.3
0.69888	12260	318.15	723.8	0.3
0.69888	12260	328.15	716.2	0.3
0.69888	14290	298.15	740.8	0.3
0.69888	14290	308.15	733.2	0.3
0.69888	14290	318.15	725.6	0.4
0.69888	14290	328.15	718.1	0.4
0.69888	16310	298.15	742.4	0.4
0.69888	16310	308.15	734.8	0.4
0.69888	16310	318.15	727.3	0.4
0.69888	16310	328.15	719.9	0.4
0.69888	18340	298.15	743.8	0.4
0.69888	18340	308.15	736.5	0.4
0.69888	18340	318.15	729	0.4
0.69888	18340	328.15	721.7	0.4
0.69888	20370	298.15	745.3	0.4
0.69888	20370	308.15	738	0.4
0.69888	20370	318.15	730.7	0.4
0.69888	20370	328.15	723.4	0.4
0.69888	22390	298.15	746.8	0.4
0.69888	22390	308.15	739.6	0.4
0.69888	22390	318.15	732.3	0.4
0.69888	22390	328.15	725.1	0.4
0.69888	24420	298.15	748.2	0.4
0.69888	24420	308.15	741.1	0.4
0.69888	24420	318.15	733.9	0.4
0.69888	24420	328.15	726.8	0.4
0.69888	26450	298.15	749.6	0.4
0.69888	26450	308.15	742.6	0.4
0.69888	26450	318.15	735.5	0.4
0.69888	26450	328.15	728.5	0.5
0.69888	28470	298.15	751	0.4
0.69888	28470	308.15	744	0.5
0.69888	28470	318.15	737	0.5
0.69888	28470	328.15	730.1	0.5
0.69888	29490	298.15	751.7	0.4
0.69888	29490	308.15	744.8	0.5
0.69888	29490	318.15	737.8	0.5
0.69888	29490	328.15	730.9	0.5
0.69888	30500	298.15	752.4	0.5
0.69888	30500	308.15	745.5	0.5
0.69888	30500	318.15	738.5	0.5
0.69888	30500	328.15	731.7	0.5
0.69888	32530	298.15	753.7	0.5
0.69888	32530	308.15	746.9	0.5
0.69888	32530	318.15	740	0.5
0.69888	32530	328.15	733.2	0.5
0.69888	34550	298.15	755	0.5
0.69888	34550	308.15	748.3	0.5
0.69888	34550	318.15	741.5	0.5
0.69888	34550	328.15	734.7	0.5
0.69888	36580	298.15	756.4	0.5
0.69888	36580	308.15	749.6	0.5
0.69888	36580	318.15	742.9	0.5
0.69888	36580	328.15	736.2	0.5
0.69888	38600	298.15	757.6	0.5
0.69888	38600	308.15	750.9	0.5
0.69888	38600	318.15	744.3	0.5
0.69888	38600	328.15	737.7	0.6
0.69888	39620	298.15	758.2	0.5
0.69888	39620	308.15	751.6	0.5
0.69888	39620	318.15	745	0.6
0.69888	39620	328.15	738.4	0.6
0.7964	100	298.15	718.2	0.3
0.7964	100	308.15	709.9	0.3
0.7964	100	318.15	701.5	0.3
0.7964	100	328.15	693.3	0.3
0.7964	2130	298.15	719.9	0.3
0.7964	2130	308.15	711.8	0.3
0.7964	2130	318.15	703.5	0.3
0.7964	2130	328.15	695.5	0.3
0.7964	4150	298.15	721.7	0.3
0.7964	4150	308.15	713.7	0.3
0.7964	4150	318.15	705.5	0.3
0.7964	4150	328.15	697.6	0.3
0.7964	6180	298.15	723.4	0.3
0.7964	6180	308.15	715.5	0.3
0.7964	6180	318.15	707.4	0.3
0.7964	6180	328.15	699.7	0.3
0.7964	8210	298.15	725	0.3
0.7964	8210	308.15	717.2	0.3
0.7964	8210	318.15	709.3	0.3
0.7964	8210	328.15	701.7	0.3
0.7964	10230	298.15	726.7	0.3
0.7964	10230	308.15	719	0.3
0.7964	10230	318.15	711.1	0.3
0.7964	10230	328.15	703.7	0.3
0.7964	11250	298.15	727.5	0.3
0.7964	11250	308.15	719.8	0.3
0.7964	11250	318.15	712	0.3
0.7964	11250	328.15	704.6	0.3
0.7964	12260	298.15	728.3	0.3
0.7964	12260	308.15	720.7	0.3
0.7964	12260	318.15	713	0.3
0.7964	12260	328.15	705.6	0.3
0.7964	14290	298.15	729.8	0.4
0.7964	14290	308.15	722.3	0.4
0.7964	14290	318.15	714.7	0.4
0.7964	14290	328.15	707.4	0.4
0.7964	16310	298.15	731.4	0.4
0.7964	16310	308.15	723.9	0.4
0.7964	16310	318.15	716.4	0.4
0.7964	16310	328.15	709.3	0.4
0.7964	18340	298.15	732.9	0.4
0.7964	18340	308.15	725.5	0.4
0.7964	18340	318.15	718.1	0.4
0.7964	18340	328.15	711.2	0.4
0.7964	20370	298.15	734.4	0.4
0.7964	20370	308.15	727.1	0.4
0.7964	20370	318.15	719.8	0.4
0.7964	20370	328.15	713	0.4
0.7964	22390	298.15	735.8	0.4
0.7964	22390	308.15	728.6	0.4
0.7964	22390	318.15	721.4	0.4
0.7964	22390	328.15	714.5	0.4
0.7964	24420	298.15	737.2	0.4
0.7964	24420	308.15	730.1	0.4
0.7964	24420	318.15	723	0.4
0.7964	24420	328.15	716.2	0.5
0.7964	26450	298.15	738.7	0.4
0.7964	26450	308.15	731.6	0.4
0.7964	26450	318.15	724.5	0.5
0.7964	26450	328.15	717.8	0.5
0.7964	28470	298.15	740	0.5
0.7964	28470	308.15	733	0.5
0.7964	28470	318.15	726.1	0.5
0.7964	28470	328.15	719.4	0.5
0.7964	29490	298.15	740.7	0.5
0.7964	29490	308.15	733.7	0.5
0.7964	29490	318.15	726.8	0.5
0.7964	29490	328.15	720.1	0.5
0.7964	30500	298.15	741.4	0.5
0.7964	30500	308.15	734.4	0.5
0.7964	30500	318.15	727.5	0.5
0.7964	30500	328.15	720.9	0.5
0.7964	32530	298.15	742.7	0.5
0.7964	32530	308.15	735.8	0.5
0.7964	32530	318.15	729	0.5
0.7964	32530	328.15	722.5	0.5
0.7964	34550	298.15	744.1	0.5
0.7964	34550	308.15	737.2	0.5
0.7964	34550	318.15	730.5	0.5
0.7964	34550	328.15	724	0.5
0.7964	36580	298.15	745.4	0.5
0.7964	36580	308.15	738.5	0.5
0.7964	36580	318.15	731.9	0.5
0.7964	36580	328.15	725.5	0.6
0.7964	38600	298.15	746.5	0.5
0.7964	38600	308.15	739.9	0.6
0.7964	38600	318.15	733.3	0.6
0.7964	38600	328.15	726.9	0.6
0.7964	39620	298.15	747.1	0.6
0.7964	39620	308.15	740.6	0.6
0.7964	39620	318.15	734	0.6
0.7964	39620	328.15	727.6	0.6
0.90403	100	298.15	707.3	0.3
0.90403	100	308.15	699.3	0.3
0.90403	100	318.15	691.1	0.3
0.90403	100	328.15	683	0.3
0.90403	2130	298.15	709.1	0.3
0.90403	2130	308.15	701.1	0.3
0.90403	2130	318.15	693.1	0.3
0.90403	2130	328.15	685.1	0.3
0.90403	4150	298.15	710.8	0.3
0.90403	4150	308.15	703	0.3
0.90403	4150	318.15	695.1	0.3
0.90403	4150	328.15	687.2	0.3
0.90403	6180	298.15	712.4	0.3
0.90403	6180	308.15	704.8	0.3
0.90403	6180	318.15	696.9	0.3
0.90403	6180	328.15	689.2	0.3
0.90403	8210	298.15	714.1	0.3
0.90403	8210	308.15	706.5	0.3
0.90403	8210	318.15	698.8	0.3
0.90403	8210	328.15	691.2	0.3
0.90403	10230	298.15	715.7	0.3
0.90403	10230	308.15	708.3	0.3
0.90403	10230	318.15	700.6	0.3
0.90403	10230	328.15	693.2	0.3
0.90403	11250	298.15	716.5	0.3
0.90403	11250	308.15	709.1	0.3
0.90403	11250	318.15	701.5	0.3
0.90403	11250	328.15	694.1	0.3
0.90403	12260	298.15	717.3	0.3
0.90403	12260	308.15	709.9	0.3
0.90403	12260	318.15	702.4	0.4
0.90403	12260	328.15	695	0.4
0.90403	14290	298.15	718.8	0.4
0.90403	14290	308.15	711.6	0.4
0.90403	14290	318.15	704.2	0.4
0.90403	14290	328.15	696.9	0.4
0.90403	16310	298.15	720.4	0.4
0.90403	16310	308.15	713.1	0.4
0.90403	16310	318.15	705.9	0.4
0.90403	16310	328.15	698.7	0.4
0.90403	18340	298.15	721.9	0.4
0.90403	18340	308.15	714.8	0.4
0.90403	18340	318.15	707.5	0.4
0.90403	18340	328.15	700.5	0.4
0.90403	20370	298.15	723.3	0.4
0.90403	20370	308.15	716.3	0.4
0.90403	20370	318.15	709.2	0.4
0.90403	20370	328.15	702.2	0.4
0.90403	22390	298.15	724.8	0.4
0.90403	22390	308.15	717.8	0.4
0.90403	22390	318.15	710.8	0.4
0.90403	22390	328.15	703.9	0.4
0.90403	24420	298.15	726.2	0.4
0.90403	24420	308.15	719.3	0.4
0.90403	24420	318.15	712.4	0.5
0.90403	24420	328.15	705.6	0.5
0.90403	26450	298.15	727.5	0.5
0.90403	26450	308.15	720.8	0.5
0.90403	26450	318.15	713.9	0.5
0.90403	26450	328.15	707.2	0.5
0.90403	28470	298.15	728.9	0.5
0.90403	28470	308.15	722.2	0.5
0.90403	28470	318.15	715.4	0.5
0.90403	28470	328.15	708.8	0.5
0.90403	29490	298.15	729.6	0.5
0.90403	29490	308.15	722.9	0.5
0.90403	29490	318.15	716.1	0.5
0.90403	29490	328.15	709.6	0.5
0.90403	30500	298.15	730.2	0.5
0.90403	30500	308.15	723.6	0.5
0.90403	30500	318.15	716.9	0.5
0.90403	30500	328.15	710.3	0.5
0.90403	32530	298.15	731.5	0.5
0.90403	32530	308.15	725	0.5
0.90403	32530	318.15	718.3	0.5
0.90403	32530	328.15	711.9	0.5
0.90403	34550	298.15	732.9	0.5
0.90403	34550	308.15	726.3	0.5
0.90403	34550	318.15	719.7	0.5
0.90403	34550	328.15	713.4	0.6
0.90403	36580	298.15	734.2	0.5
0.90403	36580	308.15	727.7	0.6
0.90403	36580	318.15	721.1	0.6
0.90403	36580	328.15	714.8	0.6
0.90403	38600	298.15	735.4	0.6
0.90403	38600	308.15	729	0.6
0.90403	38600	318.15	722.5	0.6
0.90403	38600	328.15	716.2	0.6
0.90403	39620	298.15	736	0.6
0.90403	39620	308.15	729.7	0.6
0.90403	39620	318.15	723.2	0.6
0.90403	39620	328.15	716.9	0.6
1	100	298.15	698.7	0.3
1	100	308.15	690.8	0.3
1	100	318.15	682.8	0.3
1	100	328.15	674.5	0.3
1	2130	298.15	700.4	0.3
1	2130	308.15	692.6	0.3
1	2130	318.15	684.7	0.3
1	2130	328.15	676.6	0.3
1	4150	298.15	702.2	0.3
1	4150	308.15	694.4	0.3
1	4150	318.15	686.7	0.3
1	4150	328.15	678.7	0.3
1	6180	298.15	703.8	0.3
1	6180	308.15	696.2	0.3
1	6180	318.15	688.6	0.3
1	6180	328.15	680.7	0.3
1	8210	298.15	705.4	0.3
1	8210	308.15	698	0.3
1	8210	318.15	690.4	0.3
1	8210	328.15	682.6	0.3
1	10230	298.15	707	0.3
1	10230	308.15	699.7	0.3
1	10230	318.15	692.2	0.3
1	10230	328.15	684.6	0.3
1	11250	298.15	707.8	0.3
1	11250	308.15	700.5	0.3
1	11250	318.15	693.1	0.4
1	11250	328.15	685.5	0.4
1	12260	298.15	708.6	0.4
1	12260	308.15	701.3	0.4
1	12260	318.15	694	0.4
1	12260	328.15	686.4	0.4
1	14290	298.15	710.1	0.4
1	14290	308.15	703	0.4
1	14290	318.15	695.7	0.4
1	14290	328.15	688.3	0.4
1	16310	298.15	711.7	0.4
1	16310	308.15	704.5	0.4
1	16310	318.15	697.4	0.4
1	16310	328.15	690.1	0.4
1	18340	298.15	713.1	0.4
1	18340	308.15	706.1	0.4
1	18340	318.15	699.1	0.4
1	18340	328.15	691.8	0.4
1	20370	298.15	714.6	0.4
1	20370	308.15	707.6	0.4
1	20370	318.15	700.7	0.4
1	20370	328.15	693.6	0.4
1	22390	298.15	715.9	0.4
1	22390	308.15	709.1	0.4
1	22390	318.15	702.3	0.4
1	22390	328.15	695.2	0.5
1	24420	298.15	717.4	0.4
1	24420	308.15	710.6	0.5
1	24420	318.15	703.9	0.5
1	24420	328.15	696.9	0.5
1	26450	298.15	718.8	0.5
1	26450	308.15	712	0.5
1	26450	318.15	705.4	0.5
1	26450	328.15	698.5	0.5
1	28470	298.15	720.1	0.5
1	28470	308.15	713.4	0.5
1	28470	318.15	706.9	0.5
1	28470	328.15	700	0.5
1	29490	298.15	720.8	0.5
1	29490	308.15	714.1	0.5
1	29490	318.15	707.6	0.5
1	29490	328.15	700.8	0.5
1	30500	298.15	721.4	0.5
1	30500	308.15	714.8	0.5
1	30500	318.15	708.3	0.5
1	30500	328.15	701.6	0.5
1	32530	298.15	722.7	0.5
1	32530	308.15	716.2	0.5
1	32530	318.15	709.7	0.5
1	32530	328.15	703	0.6
1	34550	298.15	724	0.5
1	34550	308.15	717.5	0.6
1	34550	318.15	711.2	0.6
1	34550	328.15	704.5	0.6
1	36580	298.15	725.3	0.6
1	36580	308.15	718.8	0.6
1	36580	318.15	712.5	0.6
1	36580	328.15	706	0.6
1	38600	298.15	726.5	0.6
1	38600	308.15	720.2	0.6
1	38600	318.15	713.9	0.6
1	38600	328.15	707.4	0.6
1	39620	298.15	727.1	0.6
1	39620	308.15	720.8	0.6
1	39620	318.15	714.6	0.6
1	39620	328.15	708.1	0.6
