Measured thermophysical data. Determination and correlation of solubility and solution thermodynamics of oxiracetam in three (alcohol + water) binary solvents
Source: J. Chem. Thermodyn., 2016, 10.1016/j.jct.2015.11.007
Compound 1: 4-hydroxy-2-oxo-1-pyrrolidineacetamide, C6H10N2O3, InChI=1S/C6H10N2O3/c7-5(10)3-8-2-4(9)1-6(8)11/h4,9H,1-3H2,(H2,7,10), purity 99.6%
Compound 2: methanol, CH4O, InChI=1S/CH4O/c1-2/h2H,1H3, purity 99.5%
Compound 3: ethanol, C2H6O, InChI=1S/C2H6O/c1-2-3/h3H,2H2,1H3, purity 99.7%
Compound 4: propan-2-ol, C3H8O, InChI=1S/C3H8O/c1-3(2)4/h3-4H,1-2H3, purity 99.7%
Compound 5: water, H2O, InChI=1S/H2O/h1H2

System: 4-hydroxy-2-oxo-1-pyrrolidineacetamide; phases: Crystal, Liquid, Air at 1 atmosphere
Property: Normal melting temperature, K (Crystal); method: DTA
Normal melting temperature, K	uncertainty
445.28	0.61

System: 4-hydroxy-2-oxo-1-pyrrolidineacetamide; phases: Crystal, Liquid, Air at 1 atmosphere
Property: Molar enthalpy of transition or fusion, kJ/mol (Crystal); method: DSC
Molar enthalpy of transition or fusion, kJ/mol	uncertainty
34.69	1.36

System: methanol + water + 4-hydroxy-2-oxo-1-pyrrolidineacetamide; phases: Liquid, Crystal
Fixed: Pressure, kPa = 100
Property: Mole fraction of 4-hydroxy-2-oxo-1-pyrrolidineacetamide (Liquid); method: gravimetric
Temperature, K	Solvent: Mole fraction of methanol	Mole fraction of 4-hydroxy-2-oxo-1-pyrrolidineacetamide	uncertainty
283.15	0.3	0.02118	0.00215
283.15	0.4	0.01585	0.00164
283.15	0.5	0.01248	0.00131
283.15	0.6	0.00893	0.00097
283.15	0.7	0.00669	0.00074
283.15	0.8	0.00456	0.00054
283.15	0.9	0.00311	0.00041
288.15	0.3	0.02431	0.00246
288.15	0.4	0.02003	0.00204
288.15	0.5	0.01565	0.00163
288.15	0.6	0.01168	0.00126
288.15	0.7	0.00819	0.00093
288.15	0.8	0.00549	0.00066
288.15	0.9	0.00371	0.00049
293.15	0.3	0.0288	0.00292
293.15	0.4	0.02312	0.00236
293.15	0.5	0.01844	0.00191
293.15	0.6	0.01367	0.00147
293.15	0.7	0.00967	0.0011
293.15	0.8	0.00629	0.00076
293.15	0.9	0.00443	0.00055
298.15	0.3	0.03396	0.00343
298.15	0.4	0.02816	0.00287
298.15	0.5	0.0221	0.00229
298.15	0.6	0.01676	0.00179
298.15	0.7	0.01189	0.00134
298.15	0.8	0.00809	0.00096
298.15	0.9	0.00546	0.00073
303.15	0.3	0.03837	0.00388
303.15	0.4	0.03258	0.00331
303.15	0.5	0.02553	0.00265
303.15	0.6	0.01944	0.00207
303.15	0.7	0.01432	0.00161
303.15	0.8	0.00918	0.00112
303.15	0.9	0.00632	0.00079
308.15	0.3	0.04585	0.00463
308.15	0.4	0.03839	0.0039
308.15	0.5	0.03074	0.00317
308.15	0.6	0.0242	0.00258
308.15	0.7	0.01654	0.00189
308.15	0.8	0.01139	0.00135
308.15	0.9	0.00783	0.00102

System: ethanol + water + 4-hydroxy-2-oxo-1-pyrrolidineacetamide; phases: Liquid, Crystal
Fixed: Pressure, kPa = 100
Property: Mole fraction of 4-hydroxy-2-oxo-1-pyrrolidineacetamide (Liquid); method: gravimetric
Temperature, K	Solvent: Mole fraction of ethanol	Mole fraction of 4-hydroxy-2-oxo-1-pyrrolidineacetamide	uncertainty
283.15	0.3	0.01908	0.00194
283.15	0.4	0.01548	0.00159
283.15	0.5	0.01077	0.00116
283.15	0.6	0.00696	0.0008
283.15	0.7	0.00433	0.00054
283.15	0.8	0.00241	0.00034
283.15	0.9	0.00134	0.00024
288.15	0.3	0.0233	0.00237
288.15	0.4	0.01773	0.00183
288.15	0.5	0.01254	0.00135
288.15	0.6	0.00826	0.00095
288.15	0.7	0.00503	0.00063
288.15	0.8	0.00295	0.00041
288.15	0.9	0.00159	0.00029
293.15	0.3	0.02806	0.00285
293.15	0.4	0.02142	0.00221
293.15	0.5	0.01525	0.00163
293.15	0.6	0.01023	0.00116
293.15	0.7	0.00634	0.00078
293.15	0.8	0.00377	0.00052
293.15	0.9	0.00192	0.00038
298.15	0.3	0.03327	0.00337
298.15	0.4	0.02543	0.00262
298.15	0.5	0.01834	0.00196
298.15	0.6	0.01236	0.0014
298.15	0.7	0.00763	0.00094
298.15	0.8	0.0045	0.00062
298.15	0.9	0.00236	0.00046
303.15	0.3	0.03826	0.0039
303.15	0.4	0.02852	0.00295
303.15	0.5	0.02119	0.00225
303.15	0.6	0.01385	0.00158
303.15	0.7	0.00883	0.00108
303.15	0.8	0.0051	0.00071
303.15	0.9	0.00274	0.0005
308.15	0.3	0.04559	0.00463
308.15	0.4	0.03492	0.00361
308.15	0.5	0.02535	0.00271
308.15	0.6	0.01672	0.00191
308.15	0.7	0.01041	0.00129
308.15	0.8	0.00609	0.00084
308.15	0.9	0.00332	0.0006

System: propan-2-ol + water + 4-hydroxy-2-oxo-1-pyrrolidineacetamide; phases: Liquid, Crystal
Fixed: Pressure, kPa = 100
Property: Mole fraction of 4-hydroxy-2-oxo-1-pyrrolidineacetamide (Liquid); method: gravimetric
Temperature, K	Solvent: Mole fraction of propan-2-ol	Mole fraction of 4-hydroxy-2-oxo-1-pyrrolidineacetamide	uncertainty
283.15	0.3	0.01719	0.00175
283.15	0.4	0.01242	0.00129
283.15	0.5	0.00841	0.00091
283.15	0.6	0.00564	0.00063
283.15	0.7	0.00367	0.00045
283.15	0.8	0.002	0.00028
283.15	0.9	0.00125	0.00018
288.15	0.3	0.01983	0.00203
288.15	0.4	0.01428	0.00149
288.15	0.5	0.00964	0.00105
288.15	0.6	0.00638	0.00072
288.15	0.7	0.00413	0.0005
288.15	0.8	0.00242	0.00033
288.15	0.9	0.00143	0.00022
293.15	0.3	0.02431	0.00248
293.15	0.4	0.01733	0.00181
293.15	0.5	0.01201	0.0013
293.15	0.6	0.00796	0.0009
293.15	0.7	0.00513	0.00062
293.15	0.8	0.00306	0.00041
293.15	0.9	0.00184	0.00029
298.15	0.3	0.02854	0.00291
298.15	0.4	0.02026	0.00212
298.15	0.5	0.01403	0.00151
298.15	0.6	0.00936	0.00105
298.15	0.7	0.00615	0.00073
298.15	0.8	0.00383	0.0005
298.15	0.9	0.00222	0.00036
303.15	0.3	0.03362	0.00343
303.15	0.4	0.02432	0.00253
303.15	0.5	0.01684	0.00181
303.15	0.6	0.01125	0.00128
303.15	0.7	0.00702	0.00085
303.15	0.8	0.00456	0.00057
303.15	0.9	0.00279	0.00043
308.15	0.3	0.03921	0.00399
308.15	0.4	0.02804	0.00293
308.15	0.5	0.01956	0.0021
308.15	0.6	0.0131	0.00148
308.15	0.7	0.00842	0.00101
308.15	0.8	0.00527	0.00068
308.15	0.9	0.00317	0.00049
