Measured thermophysical data. Density, viscosity and excess properties in the trihexyltetradecylphosphonium chloride ionic liquid/methanol cosolvent system
Source: J. Chem. Thermodyn., 2016, 10.1016/j.jct.2015.09.030
Compound 1: trihexyl(tetradecyl)phosphonium chloride, C32H68ClP, InChI=1S/C32H68P.ClH/c1-5-9-13-17-18-19-20-21-22-23-24-28-32-33(29-25-14-10-6-2,30-26-15-11-7-3)31-27-16-12-8-4;/h5-32H2,1-4H3;1H/q+1;/p-1, purity 97%
Compound 2: methanol, CH4O, InChI=1S/CH4O/c1-2/h2H,1H3, purity 99.9%

System: trihexyl(tetradecyl)phosphonium chloride; phases: Liquid
Fixed: Pressure, kPa = 101.325
Property: Mass density, kg/m3 (Liquid); method: Vibrating tube method
Temperature, K	Mass density, kg/m3	uncertainty
290.15	897.5	6.2
293.15	895.8	6.2
295.15	894.6	6.2
298.15	892.8	6.2
303.15	889.8	6.2
308.15	886.9	6.2
313.15	883.9	6.2
318.15	880.8	6.2
323.15	878	6.2

System: trihexyl(tetradecyl)phosphonium chloride; phases: Liquid
Fixed: Pressure, kPa = 101.325
Property: Viscosity, Pa*s (Liquid); method: Falling or rolling sphere viscometry
Temperature, K	Viscosity, Pa*s	uncertainty
293.15	1.996	0.303
298.15	1.683	0.249
303.15	1.174	0.164
308.15	0.8241	0.1094
313.15	0.5937	0.0751
318.15	0.3999	0.0478
323.15	0.3259	0.0379
295.15	1.996	0.303

System: methanol; phases: Liquid
Fixed: Pressure, kPa = 100
Property: Mass density, kg/m3 (Liquid); method: Vibrating tube method
Temperature, K	Mass density, kg/m3	uncertainty
290.15	797.3	6
293.15	793.5	6
295.15	790.8	6
298.15	786.8	6
303.15	781.4	6
308.15	777.3	6
313.15	772.1	6
318.15	767.7	6
323.15	762.1	6

System: methanol; phases: Liquid
Fixed: Pressure, kPa = 100
Property: Viscosity, Pa*s (Liquid); method: Falling or rolling sphere viscometry
Temperature, K	Viscosity, Pa*s	uncertainty
290.15	0.0006069	6.08e-05
293.15	0.0005853	5.87e-05
295.15	0.0005571	5.59e-05
298.15	0.0005446	5.46e-05
303.15	0.0005122	5.14e-05
308.15	0.0004794	4.81e-05
313.15	0.0004508	4.52e-05
318.15	0.0004317	4.33e-05
323.15	0.0004051	4.06e-05

System: methanol + trihexyl(tetradecyl)phosphonium chloride; phases: Liquid
Fixed: Pressure, kPa = 100
Property: Mass density, kg/m3 (Liquid); method: Vibrating tube method
Temperature, K	Mole fraction of trihexyl(tetradecyl)phosphonium chloride	Mass density, kg/m3	uncertainty
290.15	0	797.3	6
290.15	0.0156	815.9	6
290.15	0.0351	832.7	6
290.15	0.056	845.2	6
290.15	0.0811	856.7	6
290.15	0.1271	869.2	6
290.15	0.2092	880.2	6
290.15	0.3681	889.1	6
290.15	0.4851	891.6	6
290.15	0.6453	894.2	6
290.15	0.7844	895.8	6.1
290.15	0.8997	896.8	6.1
290.15	1	897.5	6.2
293.15	0	793.5	6
293.15	0.0156	813.3	6
293.15	0.0351	830.4	6
293.15	0.056	842.9	6
293.15	0.0811	854.5	6
293.15	0.1271	867.2	6
293.15	0.2092	878.2	6
293.15	0.3681	887.2	6
293.15	0.4851	889.9	6
293.15	0.6453	892.5	6
293.15	0.7844	894	6.1
293.15	0.8997	895.1	6.1
293.15	1	895.8	6.2
295.15	0	790.8	6
295.15	0.0156	811.2	6
295.15	0.0351	828.8	6
295.15	0.056	841.4	6
295.15	0.0811	853.1	6
295.15	0.1271	865.8	6
295.15	0.2092	876.9	6
295.15	0.3681	885.9	6
295.15	0.4851	888.9	6
295.15	0.6453	891.4	6
295.15	0.7844	892.9	6.1
295.15	0.8997	894	6.1
295.15	1	894.6	6.2
298.15	0	786.8	6
298.15	0.0156	809.1	6
298.15	0.0351	826.4	6
298.15	0.056	839.2	6
298.15	0.0811	851	6
298.15	0.1271	863.8	6
298.15	0.2092	875	6
298.15	0.3681	884	6
298.15	0.4851	887.1	6
298.15	0.6453	889.7	6
298.15	0.7844	891.2	6.1
298.15	0.8997	892.1	6.1
298.15	1	892.8	6.2
303.15	0	781.4	6
303.15	0.0156	804.8	6
303.15	0.0351	822.4	6
303.15	0.056	835.4	6
303.15	0.0811	847.4	6
303.15	0.1271	860.4	6
303.15	0.2092	871.8	6
303.15	0.3681	880.9	6
303.15	0.4851	884	6
303.15	0.6453	886.7	6
303.15	0.7844	888.2	6.1
303.15	0.8997	889.1	6.1
303.15	1	889.8	6.2
308.15	0	777.3	6
308.15	0.0156	800.5	6
308.15	0.0351	818.5	6
308.15	0.056	831.6	6
308.15	0.0811	843.9	6
308.15	0.1271	857.1	6
308.15	0.2092	868.5	6
308.15	0.3681	877.8	6
308.15	0.4851	881	6
308.15	0.6453	883.7	6
308.15	0.7844	885.3	6.1
308.15	0.8997	886.2	6.1
308.15	1	886.9	6.2
313.15	0	772.1	6
313.15	0.0156	796.3	6
313.15	0.0351	814.5	6
313.15	0.056	827.9	6
313.15	0.0811	828.8	6
313.15	0.1271	840.3	6
313.15	0.2092	865.3	6
313.15	0.3681	874.5	6
313.15	0.4851	878.6	6
313.15	0.6453	880.8	6
313.15	0.7844	882.6	6.1
313.15	0.8997	883.2	6.1
313.15	1	883.9	6.2

System: methanol + trihexyl(tetradecyl)phosphonium chloride; phases: Liquid
Fixed: Pressure, kPa = 100
Property: Viscosity, Pa*s (Liquid); method: Falling or rolling sphere viscometry
Temperature, K	Mole fraction of trihexyl(tetradecyl)phosphonium chloride	Viscosity, Pa*s	uncertainty
295.15	0	0.000557	5.6e-05
295.15	0.0156	0.001033	0.000104
295.15	0.0351	0.001798	0.00018
295.15	0.056	0.00334	0.000336
295.15	0.0811	0.006279	0.000632
295.15	0.1271	0.01565	0.00158
295.15	0.2092	0.04536	0.00459
295.15	0.3681	0.173	0.0186
295.15	0.4851	0.4015	0.048
295.15	0.6453	0.8204	0.1087
295.15	0.7844	1.285	0.182
295.15	0.8997	1.687	0.25
295.15	1	1.996	0.303
298.15	0	0.000544	5.5e-05
298.15	0.0156	0.000988	9.9e-05
298.15	0.0351	0.001695	0.00017
298.15	0.056	0.003092	0.000311
298.15	0.0811	0.005794	0.000583
298.15	0.1271	0.01429	0.00144
298.15	0.2092	0.0402	0.00406
298.15	0.3681	0.1492	0.0158
298.15	0.4851	0.3392	0.0396
298.15	0.6453	0.67	0.0861
298.15	0.7844	1.046	0.144
298.15	0.8997	1.392	0.2
298.15	1	1.683	0.249
303.15	0	0.000512	5.1e-05
303.15	0.0156	0.000911	9.1e-05
303.15	0.0351	0.001542	0.000155
303.15	0.056	0.002704	0.000272
303.15	0.0811	0.005089	0.000512
303.15	0.1271	0.01228	0.00124
303.15	0.2092	0.03324	0.00336
303.15	0.3681	0.1162	0.0121
303.15	0.4851	0.2555	0.0288
303.15	0.6453	0.4864	0.0597
303.15	0.7844	0.7445	0.0973
303.15	0.8997	0.9786	0.1334
303.15	1	1.174	0.164
308.15	0	0.000479	4.8e-05
308.15	0.0156	0.000842	8.4e-05
308.15	0.0351	0.001407	0.000141
308.15	0.056	0.002287	0.00023
308.15	0.0811	0.004496	0.000452
308.15	0.1271	0.01064	0.00107
308.15	0.2092	0.02772	0.0028
308.15	0.3681	0.09086	0.00929
308.15	0.4851	0.1973	0.0215
308.15	0.6453	0.3633	0.0428
308.15	0.7844	0.5431	0.0678
308.15	0.8997	0.7	0.0907
308.15	1	0.8241	0.1094
313.15	0	0.000451	4.5e-05
313.15	0.0156	0.00079	7.9e-05
313.15	0.0351	0.001289	0.000129
313.15	0.056	0.001901	0.000191
313.15	0.0811	0.004071	0.00041
313.15	0.1271	0.009437	0.000949
313.15	0.2092	0.02332	0.00235
313.15	0.3681	0.08139	0.00827
313.15	0.4851	0.1515	0.0161
313.15	0.6453	0.2714	0.0308
313.15	0.7844	0.3968	0.0474
313.15	0.8997	0.5057	0.0625
313.15	1	0.5937	0.0751
