Measured thermophysical data. Viscosity studies of (L-alanine-, L-proline, L-valine, L-leucine + aqueous KCl/KNO3) solutions at different temperatures
Source: J. Chem. Thermodyn., 2008, 10.1016/j.jct.2008.07.019
Compound 1: (S)-2-aminopropanoic acid, C3H7NO2, InChI=1S/C3H7NO2/c1-2(4)3(5)6/h2H,4H2,1H3,(H,5,6)/t2-/m0/s1, purity 99%
Compound 2: L-proline, C5H9NO2, InChI=1S/C5H9NO2/c7-5(8)4-2-1-3-6-4/h4,6H,1-3H2,(H,7,8)/t4-/m0/s1, purity 99%
Compound 3: L-valine, C5H11NO2, InChI=1S/C5H11NO2/c1-3(2)4(6)5(7)8/h3-4H,6H2,1-2H3,(H,7,8)/t4-/m0/s1, purity 99%
Compound 4: L-leucine, C6H13NO2, InChI=1S/C6H13NO2/c1-4(2)3-5(7)6(8)9/h4-5H,3,7H2,1-2H3,(H,8,9)/t5-/m0/s1, purity 99%
Compound 5: potassium chloride, ClK, InChI=1S/ClH.K/h1H;/q;+1/p-1
Compound 6: potassium nitrate, KNO3, InChI=1S/K.NO3/c;2-1(3)4/q+1;-1
Compound 7: water, H2O, InChI=1S/H2O/h1H2

System: potassium chloride + water; phases: Liquid
Fixed: Pressure, kPa = 101
Fixed: Amount concentration (molarity), mol/dm3 of potassium chloride = 2
Property: Viscosity, Pa*s (Liquid); method: CAPTUB:UFactor:4
Temperature, K	Viscosity, Pa*s	uncertainty
298.15	0.000887	2.23e-05
303.15	0.0008552	2.16e-05
308.15	0.0007658	1.97e-05
313.15	0.0006995	1.82e-05
318.15	0.0006492	1.71e-05
323.15	0.0006037	1.62e-05

System: water + potassium nitrate; phases: Liquid
Fixed: Pressure, kPa = 101
Fixed: Amount concentration (molarity), mol/dm3 of potassium nitrate = 2
Property: Viscosity, Pa*s (Liquid); method: CAPTUB:UFactor:4
Temperature, K	Viscosity, Pa*s	uncertainty
298.15	0.0009118	2.28e-05
303.15	0.0008404	2.13e-05
308.15	0.0007619	1.96e-05
313.15	0.0006989	1.82e-05
318.15	0.00064	1.69e-05
323.15	0.0005929	1.59e-05
323.15	0.0005829	1.57e-05

System: (S)-2-aminopropanoic acid + potassium chloride + water; phases: Liquid
Fixed: Pressure, kPa = 101
Fixed: Solvent: Amount concentration (molarity), mol/dm3 of potassium chloride = 2
Property: Viscosity, Pa*s (Liquid); method: CAPTUB:UFactor:4
Temperature, K	Molality, mol/kg of (S)-2-aminopropanoic acid	Viscosity, Pa*s	uncertainty
298.15	0	0.000887	2.25e-05
298.15	0.1857	0.0009376	2.36e-05
298.15	0.3762	0.0009863	2.46e-05
298.15	0.5714	0.001044	2.59e-05
298.15	0.7706	0.0011074	2.72e-05
298.15	0.9751	0.0011556	2.83e-05
298.15	1.1864	0.0012636	3.06e-05
298.15	1.4044	0.001366	3.28e-05
303.15	0	0.0008552	2.18e-05
303.15	0.1857	0.0008874	2.25e-05
303.15	0.3762	0.0009137	2.3e-05
303.15	0.5714	0.0009647	2.41e-05
303.15	0.7706	0.0010159	2.53e-05
303.15	0.9751	0.0010744	2.65e-05
303.15	1.1864	0.0011799	2.88e-05
303.15	1.4044	0.0012483	3.03e-05
308.15	0	0.0007658	1.98e-05
308.15	0.1857	0.000799	2.05e-05
308.15	0.3762	0.0008359	2.13e-05
308.15	0.5714	0.0008821	2.24e-05
308.15	0.7706	0.0009316	2.34e-05
308.15	0.9751	0.0009744	2.44e-05
308.15	1.1864	0.0010653	2.63e-05
308.15	1.4044	0.0011474	2.81e-05
313.15	0	0.0006995	1.84e-05
313.15	0.1857	0.0007362	1.92e-05
313.15	0.3762	0.0007643	1.98e-05
313.15	0.5714	0.0008017	2.06e-05
313.15	0.7706	0.0008489	2.16e-05
313.15	0.9751	0.0008868	2.25e-05
313.15	1.1864	0.0009529	2.39e-05
313.15	1.4044	0.00103	2.56e-05
318.15	0	0.0006492	1.73e-05
318.15	0.1857	0.0006788	1.79e-05
318.15	0.3762	0.0007136	1.87e-05
318.15	0.5714	0.0007411	1.93e-05
318.15	0.7706	0.0007824	2.02e-05
318.15	0.9751	0.0008185	2.1e-05
318.15	1.1864	0.0008814	2.23e-05
318.15	1.4044	0.0009556	2.39e-05
323.15	0	0.0006037	1.63e-05
323.15	0.1857	0.0006247	1.67e-05
323.15	0.3762	0.0006537	1.74e-05
323.15	0.5714	0.0006849	1.81e-05
323.15	0.7706	0.0007241	1.89e-05
323.15	0.9751	0.0007554	1.96e-05
323.15	1.1864	0.0008094	2.08e-05
323.15	1.4044	0.0008776	2.23e-05

System: (S)-2-aminopropanoic acid + water + potassium nitrate; phases: Liquid
Fixed: Pressure, kPa = 101
Fixed: Solvent: Amount concentration (molarity), mol/dm3 of potassium nitrate = 2
Property: Viscosity, Pa*s (Liquid); method: CAPTUB:UFactor:4
Temperature, K	Molality, mol/kg of (S)-2-aminopropanoic acid	Viscosity, Pa*s	uncertainty
298.15	0	0.0009118	2.3e-05
298.15	0.1802	0.0009592	2.4e-05
298.15	0.3649	0.000998	2.49e-05
298.15	0.5543	0.0010337	2.56e-05
298.15	0.7494	0.0010943	2.7e-05
298.15	0.9499	0.0011709	2.86e-05
298.15	1.1542	0.0012285	2.99e-05
298.15	1.365	0.0012871	3.11e-05
303.15	0	0.0008404	2.14e-05
303.15	0.1802	0.0008639	2.2e-05
303.15	0.3649	0.0009039	2.28e-05
303.15	0.5543	0.0009438	2.37e-05
303.15	0.7494	0.001009	2.51e-05
303.15	0.9499	0.0010623	2.63e-05
303.15	1.1542	0.0011084	2.73e-05
303.15	1.365	0.0011552	2.83e-05
308.15	0	0.0007619	1.97e-05
308.15	0.1802	0.0007936	2.04e-05
308.15	0.3649	0.000829	2.12e-05
308.15	0.5543	0.0008586	2.18e-05
308.15	0.7494	0.0009216	2.32e-05
308.15	0.9499	0.000988	2.47e-05
308.15	1.1542	0.0010351	2.57e-05
308.15	1.365	0.0010828	2.67e-05
313.15	0	0.0006989	1.84e-05
313.15	0.1802	0.0007301	1.9e-05
313.15	0.3649	0.0007594	1.97e-05
313.15	0.5543	0.000788	2.03e-05
313.15	0.7494	0.0008508	2.17e-05
313.15	0.9499	0.0008937	2.26e-05
313.15	1.1542	0.0009328	2.35e-05
313.15	1.365	0.0009739	2.43e-05
318.15	0	0.00064	1.71e-05
318.15	0.1802	0.0006778	1.79e-05
318.15	0.3649	0.0007039	1.85e-05
318.15	0.5543	0.0007295	1.9e-05
318.15	0.7494	0.0007722	2e-05
318.15	0.9499	0.0008079	2.07e-05
318.15	1.1542	0.0008478	2.16e-05
318.15	1.365	0.0008873	2.25e-05
323.15	0	0.0005929	1.6e-05
323.15	0.1802	0.0006232	1.67e-05
323.15	0.3649	0.0006489	1.73e-05
323.15	0.5543	0.0006743	1.78e-05
323.15	0.7494	0.0007132	1.87e-05
323.15	0.9499	0.0007421	1.93e-05
323.15	1.1542	0.00077	1.99e-05
323.15	1.365	0.0008033	2.06e-05

System: L-proline + potassium chloride + water; phases: Liquid
Fixed: Pressure, kPa = 101
Fixed: Solvent: Amount concentration (molarity), mol/dm3 of potassium chloride = 2
Property: Viscosity, Pa*s (Liquid); method: CAPTUB:UFactor:4
Temperature, K	Molality, mol/kg of L-proline	Viscosity, Pa*s	uncertainty
298.15	0	0.000887	2.25e-05
298.15	0.1871	0.0009302	2.34e-05
298.15	0.3813	0.0009926	2.48e-05
298.15	0.5829	0.0010514	2.6e-05
298.15	0.7925	0.0011078	2.73e-05
298.15	1.0104	0.0011673	2.85e-05
298.15	1.2376	0.0012268	2.98e-05
298.15	1.4741	0.0012799	3.1e-05
303.15	0	0.0008552	2.18e-05
303.15	0.1871	0.0008658	2.2e-05
303.15	0.3813	0.000926	2.33e-05
303.15	0.5829	0.0009799	2.45e-05
303.15	0.7925	0.001038	2.57e-05
303.15	1.0104	0.0010966	2.7e-05
303.15	1.2376	0.0011553	2.83e-05
303.15	1.4741	0.0012145	2.96e-05
308.15	0	0.0007658	1.98e-05
308.15	0.1871	0.0007941	2.04e-05
308.15	0.3813	0.0008484	2.16e-05
308.15	0.5829	0.0008979	2.27e-05
308.15	0.7925	0.0009545	2.39e-05
308.15	1.0104	0.0010058	2.5e-05
308.15	1.2376	0.0010573	2.62e-05
308.15	1.4741	0.0011092	2.73e-05
313.15	0	0.0006995	1.84e-05
313.15	0.1871	0.0007273	1.9e-05
313.15	0.3813	0.0007702	1.99e-05
313.15	0.5829	0.0008163	2.09e-05
313.15	0.7925	0.0008708	2.21e-05
313.15	1.0104	0.0009215	2.32e-05
313.15	1.2376	0.0009724	2.43e-05
313.15	1.4741	0.0010237	2.54e-05
318.15	0	0.0006492	1.73e-05
318.15	0.1871	0.0006742	1.78e-05
318.15	0.3813	0.0007142	1.87e-05
318.15	0.5829	0.0007505	1.95e-05
318.15	0.7925	0.0008006	2.06e-05
318.15	1.0104	0.000851	2.17e-05
318.15	1.2376	0.0009017	2.28e-05
318.15	1.4741	0.0009526	2.39e-05
323.15	0	0.0006037	1.63e-05
323.15	0.1871	0.0006216	1.67e-05
323.15	0.3813	0.0006597	1.75e-05
323.15	0.5829	0.000697	1.83e-05
323.15	0.7925	0.0007371	1.92e-05
323.15	1.0104	0.0007815	2.02e-05
323.15	1.2376	0.0008262	2.11e-05
323.15	1.4741	0.0008697	2.21e-05

System: L-proline + water + potassium nitrate; phases: Liquid
Fixed: Pressure, kPa = 101
Fixed: Solvent: Amount concentration (molarity), mol/dm3 of potassium nitrate = 2
Property: Viscosity, Pa*s (Liquid); method: CAPTUB:UFactor:4
Temperature, K	Molality, mol/kg of L-proline	Viscosity, Pa*s	uncertainty
298.15	0	0.0009118	2.3e-05
298.15	0.1814	0.0009169	2.31e-05
298.15	0.3694	0.0009908	2.47e-05
298.15	0.5646	0.0010622	2.63e-05
298.15	0.7673	0.0011376	2.79e-05
298.15	0.9779	0.0012105	2.95e-05
298.15	1.1969	0.0012852	3.11e-05
298.15	1.4249	0.0013632	3.28e-05
303.15	0	0.0008404	2.14e-05
303.15	0.1814	0.0008582	2.18e-05
303.15	0.3694	0.0009271	2.33e-05
303.15	0.5646	0.0009893	2.47e-05
303.15	0.7673	0.001046	2.59e-05
303.15	0.9779	0.0011203	2.75e-05
303.15	1.1969	0.0011948	2.91e-05
303.15	1.4249	0.0012699	3.08e-05
308.15	0	0.0007619	1.97e-05
308.15	0.1814	0.0007782	2.01e-05
308.15	0.3694	0.0008362	2.14e-05
308.15	0.5646	0.0008945	2.26e-05
308.15	0.7673	0.000951	2.38e-05
308.15	0.9779	0.001017	2.53e-05
308.15	1.1969	0.0010821	2.67e-05
308.15	1.4249	0.0011466	2.81e-05
313.15	0	0.0006989	1.84e-05
313.15	0.1814	0.000724	1.89e-05
313.15	0.3694	0.0007659	1.98e-05
313.15	0.5646	0.0008088	2.08e-05
313.15	0.7673	0.0008688	2.21e-05
313.15	0.9779	0.0009157	2.31e-05
313.15	1.1969	0.0009741	2.44e-05
313.15	1.4249	0.0010223	2.54e-05
318.15	0	0.00064	1.71e-05
318.15	0.1814	0.0006731	1.78e-05
318.15	0.3694	0.000712	1.86e-05
318.15	0.5646	0.0007504	1.95e-05
318.15	0.7673	0.0007975	2.05e-05
318.15	0.9779	0.0008364	2.14e-05
318.15	1.1969	0.0008937	2.26e-05
318.15	1.4249	0.000943	2.37e-05
323.15	0	0.0005829	1.58e-05
323.15	0.1814	0.0006249	1.67e-05
323.15	0.3694	0.0006571	1.75e-05
323.15	0.5646	0.0006915	1.82e-05
323.15	0.7673	0.0007318	1.91e-05
323.15	0.9779	0.0007723	2e-05
323.15	1.1969	0.0008227	2.11e-05
323.15	1.4249	0.0008587	2.18e-05

System: L-valine + potassium chloride + water; phases: Liquid
Fixed: Pressure, kPa = 101
Fixed: Solvent: Amount concentration (molarity), mol/dm3 of potassium chloride = 2
Property: Viscosity, Pa*s (Liquid); method: CAPTUB:UFactor:4
Temperature, K	Molality, mol/kg of L-valine	Viscosity, Pa*s	uncertainty
298.15	0	0.000887	2.25e-05
298.15	0.0184	0.0009009	2.28e-05
298.15	0.0369	0.0009145	2.31e-05
298.15	0.0554	0.0009282	2.34e-05
298.15	0.0927	0.0009559	2.4e-05
298.15	0.1303	0.0009846	2.46e-05
298.15	0.1682	0.0010135	2.52e-05
298.15	0.1873	0.0010271	2.55e-05
303.15	0	0.0008552	2.18e-05
303.15	0.0184	0.000865	2.2e-05
303.15	0.0369	0.0008762	2.22e-05
303.15	0.0554	0.0008867	2.24e-05
303.15	0.0927	0.0009078	2.29e-05
303.15	0.1303	0.000928	2.33e-05
303.15	0.1682	0.0009497	2.38e-05
303.15	0.1873	0.0009601	2.4e-05
308.15	0	0.0007658	1.98e-05
308.15	0.0184	0.0007756	2e-05
308.15	0.0369	0.0007847	2.02e-05
308.15	0.0554	0.0007938	2.04e-05
308.15	0.0927	0.0008121	2.08e-05
308.15	0.1303	0.0008302	2.12e-05
308.15	0.1682	0.0008486	2.16e-05
308.15	0.1873	0.0008577	2.18e-05
313.15	0	0.0006995	1.84e-05
313.15	0.0184	0.0007159	1.87e-05
313.15	0.0369	0.0007243	1.89e-05
313.15	0.0554	0.0007327	1.91e-05
313.15	0.0927	0.0007494	1.95e-05
313.15	0.1303	0.0007661	1.98e-05
313.15	0.1682	0.0007829	2.02e-05
313.15	0.1873	0.0007913	2.04e-05
318.15	0	0.0006492	1.73e-05
318.15	0.0184	0.0006589	1.75e-05
318.15	0.0369	0.0006667	1.77e-05
318.15	0.0554	0.0006743	1.78e-05
323.15	0	0.0006037	1.63e-05
323.15	0.0184	0.00062	1.66e-05
323.15	0.0369	0.000627	1.68e-05
323.15	0.0554	0.0006339	1.69e-05
323.15	0.0927	0.0006478	1.73e-05
323.15	0.1303	0.0006616	1.76e-05
323.15	0.1682	0.0006756	1.79e-05
323.15	0.1873	0.0006826	1.8e-05

System: L-valine + water + potassium nitrate; phases: Liquid
Fixed: Pressure, kPa = 101
Fixed: Solvent: Amount concentration (molarity), mol/dm3 of potassium nitrate = 2
Property: Viscosity, Pa*s (Liquid); method: CAPTUB:UFactor:4
Temperature, K	Molality, mol/kg of L-valine	Viscosity, Pa*s	uncertainty
298.15	0	0.0009118	2.3e-05
298.15	0.0178	0.0009273	2.33e-05
298.15	0.0357	0.0009415	2.36e-05
298.15	0.0537	0.0009557	2.39e-05
298.15	0.0898	0.0009718	2.43e-05
298.15	0.1264	0.0009854	2.46e-05
298.15	0.1814	0.0010163	2.53e-05
303.15	0	0.0008404	2.14e-05
303.15	0.0178	0.0008547	2.18e-05
303.15	0.0357	0.0008676	2.2e-05
303.15	0.0537	0.000882	2.23e-05
303.15	0.0898	0.0008978	2.27e-05
303.15	0.1264	0.0009138	2.3e-05
303.15	0.163	0.0009284	2.34e-05
303.15	0.1814	0.0009442	2.37e-05
308.15	0	0.0007619	1.97e-05
308.15	0.0178	0.0007761	2e-05
308.15	0.0357	0.0007905	2.04e-05
308.15	0.0537	0.0008048	2.07e-05
308.15	0.0898	0.0008191	2.1e-05
308.15	0.1264	0.0008355	2.13e-05
308.15	0.163	0.0008498	2.16e-05
308.15	0.1814	0.0008653	2.2e-05
313.15	0	0.0006989	1.84e-05
313.15	0.0178	0.0007131	1.87e-05
313.15	0.0357	0.0007273	1.9e-05
313.15	0.0537	0.0007414	1.93e-05
313.15	0.0898	0.000757	1.96e-05
313.15	0.1264	0.0007719	2e-05
313.15	0.163	0.0007874	2.03e-05
313.15	0.1814	0.0008013	2.06e-05
318.15	0	0.00064	1.71e-05
318.15	0.0178	0.0006499	1.73e-05
318.15	0.0357	0.0006584	1.75e-05
318.15	0.0537	0.0006683	1.77e-05
318.15	0.0898	0.0006798	1.79e-05
318.15	0.1264	0.0006903	1.82e-05
318.15	0.163	0.0007071	1.85e-05
318.15	0.1814	0.0007183	1.88e-05
323.15	0	0.0005929	1.6e-05
323.15	0.0178	0.0006027	1.63e-05
323.15	0.0357	0.0006113	1.65e-05
323.15	0.0537	0.0006072	1.64e-05
323.15	0.0898	0.0006174	1.66e-05
323.15	0.1264	0.0006287	1.68e-05
323.15	0.163	0.0006399	1.71e-05
323.15	0.1814	0.0006499	1.73e-05

System: L-leucine + potassium chloride + water; phases: Liquid
Fixed: Pressure, kPa = 101
Fixed: Solvent: Amount concentration (molarity), mol/dm3 of potassium chloride = 2
Property: Viscosity, Pa*s (Liquid); method: CAPTUB:UFactor:4
Temperature, K	Molality, mol/kg of L-leucine	Viscosity, Pa*s	uncertainty
298.15	0	0.000887	2.25e-05
298.15	0.0184	0.0009027	2.28e-05
298.15	0.0369	0.0009199	2.32e-05
298.15	0.0555	0.0009432	2.37e-05
298.15	0.0741	0.000954	2.39e-05
298.15	0.0928	0.0009711	2.43e-05
298.15	0.1117	0.0009883	2.47e-05
298.15	0.1306	0.0010005	2.49e-05
303.15	0	0.0008552	2.18e-05
303.15	0.0184	0.0008691	2.21e-05
303.15	0.0369	0.0008843	2.24e-05
303.15	0.0555	0.0008982	2.27e-05
303.15	0.0741	0.0009135	2.3e-05
303.15	0.0928	0.0009273	2.33e-05
303.15	0.1117	0.0009413	2.36e-05
303.15	0.1306	0.0009551	2.39e-05
308.15	0	0.0007658	1.98e-05
308.15	0.0184	0.0007796	2.01e-05
308.15	0.0369	0.0007935	2.04e-05
308.15	0.0555	0.0008087	2.08e-05
308.15	0.0741	0.0008227	2.11e-05
308.15	0.0928	0.0008365	2.14e-05
308.15	0.1117	0.0008504	2.17e-05
308.15	0.1306	0.0008643	2.2e-05
313.15	0	0.0006995	1.84e-05
313.15	0.0184	0.0007118	1.86e-05
313.15	0.0369	0.0007222	1.89e-05
313.15	0.0555	0.0007325	1.91e-05
313.15	0.0741	0.0007429	1.93e-05
313.15	0.0928	0.0007533	1.95e-05
313.15	0.1117	0.0007636	1.98e-05
313.15	0.1306	0.0007739	2e-05
318.15	0	0.0006492	1.73e-05
318.15	0.0184	0.0006562	1.74e-05
318.15	0.0369	0.0006645	1.76e-05
318.15	0.0555	0.0006714	1.78e-05
318.15	0.0741	0.0006797	1.79e-05
318.15	0.0928	0.0006867	1.81e-05
318.15	0.1117	0.0006937	1.82e-05
318.15	0.1306	0.0007019	1.84e-05
323.15	0	0.0006037	1.63e-05
323.15	0.0184	0.0006119	1.65e-05
323.15	0.0369	0.0006268	1.68e-05
323.15	0.0555	0.0006337	1.69e-05
323.15	0.0741	0.000642	1.71e-05
323.15	0.0928	0.0006489	1.73e-05
323.15	0.1117	0.0006544	1.74e-05
323.15	0.1306	0.0006626	1.76e-05

System: L-leucine + water + potassium nitrate; phases: Liquid
Fixed: Pressure, kPa = 101
Fixed: Solvent: Amount concentration (molarity), mol/dm3 of potassium nitrate = 2
Property: Viscosity, Pa*s (Liquid); method: CAPTUB:UFactor:4
Temperature, K	Molality, mol/kg of L-leucine	Viscosity, Pa*s	uncertainty
298.15	0	0.0009118	2.3e-05
298.15	0.0178	0.0009202	2.32e-05
298.15	0.0358	0.0009377	2.36e-05
298.15	0.0538	0.0009552	2.39e-05
298.15	0.0719	0.0009728	2.43e-05
298.15	0.09	0.0009904	2.47e-05
298.15	0.1083	0.0010079	2.51e-05
298.15	0.1266	0.0010255	2.55e-05
303.15	0	0.0008404	2.14e-05
303.15	0.0178	0.0008531	2.17e-05
303.15	0.0358	0.0008673	2.2e-05
303.15	0.0538	0.0008815	2.23e-05
303.15	0.0719	0.0008958	2.26e-05
303.15	0.09	0.0009119	2.3e-05
303.15	0.1083	0.0009256	2.33e-05
303.15	0.1266	0.0009399	2.36e-05
308.15	0	0.0007619	1.97e-05
308.15	0.0178	0.0007817	2.02e-05
308.15	0.0358	0.0007959	2.05e-05
308.15	0.0538	0.0008101	2.08e-05
308.15	0.0719	0.0008243	2.11e-05
308.15	0.09	0.0008386	2.14e-05
308.15	0.1083	0.0008527	2.17e-05
308.15	0.1266	0.000867	2.2e-05
313.15	0	0.0006989	1.84e-05
313.15	0.0178	0.0007116	1.86e-05
313.15	0.0358	0.0007221	1.89e-05
313.15	0.0538	0.0007327	1.91e-05
313.15	0.0719	0.0007433	1.93e-05
313.15	0.09	0.0007539	1.96e-05
313.15	0.1083	0.0007645	1.98e-05
313.15	0.1266	0.0007752	2e-05
318.15	0	0.00064	1.71e-05
318.15	0.0178	0.0006525	1.73e-05
318.15	0.0358	0.000661	1.75e-05
318.15	0.0538	0.0006715	1.78e-05
318.15	0.0719	0.0006821	1.8e-05
318.15	0.09	0.0006926	1.82e-05
318.15	0.1083	0.0007102	1.86e-05
318.15	0.1266	0.0007208	1.88e-05
323.15	0	0.0005929	1.6e-05
323.15	0.0178	0.0006033	1.63e-05
323.15	0.0358	0.0006116	1.65e-05
323.15	0.0538	0.0006199	1.66e-05
323.15	0.0719	0.0006284	1.68e-05
323.15	0.09	0.0006375	1.7e-05
323.15	0.1083	0.0006466	1.72e-05
323.15	0.1266	0.000655	1.74e-05
