Measured thermophysical data. Density characteristics of CO2-CH4 binary mixtures at temperatures from (300 to 308.15) K and pressures from (2 to 18) MPa
Source: J. Chem. Thermodyn., 2017, 10.1016/j.jct.2016.11.009
Compound 1: carbon dioxide, CO2, InChI=1S/CO2/c2-1-3, purity 99.999%
Compound 2: methane, CH4, InChI=1S/CH4/h1H4, purity 99.999%
Compound 3: nitrogen, N2, InChI=1S/N2/c1-2, purity 99.999%

System: nitrogen; phases: Gas
Property: Mass density, kg/m3 (Gas); method: Buoyancy - hydrostatic balance with magnetic suspension - one sinker
Temperature, K	Pressure, kPa	Mass density, kg/m3	uncertainty
304.03	17990	190.64	0.041
304.1	16877	180.004	0.073
304.15	15984	171.278	0.042
304.16	14927	160.84	0.048
304.17	13944	150.964	0.04
304.11	12948	140.851	0.042
304.15	11901	129.994	0.026
304.16	10861	119.075	0.026
304.23	9837	108.209	0.035
304.13	8812	97.213	0.066
304.15	7820	86.489	0.035
304.11	6796	75.316	0.062
304.12	5782	64.151	0.039
304.14	4379	48.633	0.04
304.15	2926	32.502	0.021
304.88	18305	192.939	0.047
304.73	16296	173.901	0.036
304.77	14270	153.864	0.028
304.75	12245	133.207	0.031
304.78	10988	120.097	0.039
304.83	10043	110.076	0.027
304.75	8937	98.306	0.104
304.83	8012	88.26	0.03
304.66	7983	88.017	0.023
304.69	7136	78.822	0.023
304.89	6933	76.521	0.02
304.82	5885	65.065	0.018
305.04	4986	55.132	0.02
305.17	4987	55.12	0.028
304.77	4983	55.145	0.017
304.66	3534	39.15	0.019
304.88	3013	33.353	0.015
304.8	3016	33.394	0.018
304.55	2607	28.885	0.02

System: methane + carbon dioxide; phases: Fluid (supercritical or subcritical phases)
Property: Mass density, kg/m3 (Fluid (supercritical or subcritical phases)); method: Buoyancy - hydrostatic balance with magnetic suspension - one sinker
Mole fraction of carbon dioxide	Temperature, K	Pressure, kPa	Mass density, kg/m3	uncertainty
0.0998	299.98	2118	16.647	0.154
0.0998	300.02	2964	23.652	0.171
0.0998	299.99	4192	34.275	0.226
0.0998	299.98	4383	35.981	0.234
0.0998	300.04	6260	53.19	0.344
0.0998	300	6399	54.523	0.361
0.0998	300	7624	66.394	0.446
0.0998	300.07	9277	82.984	0.548
0.0998	299.98	9722	87.624	0.595
0.0998	300.03	11790	109.201	0.767
0.0998	299.97	13852	130.843	0.974
0.0998	299.99	14986	142.483	1.034
0.0998	300.07	16598	158.42	1.269
0.0998	300.02	18000	171.73	1.278
0.0998	303.12	3001	23.673	0.176
0.0998	303.18	4002	32.139	0.213
0.0998	303.15	5000	40.895	0.265
0.0998	303.16	6006	50.034	0.335
0.0998	303.19	7000	59.247	0.389
0.0998	303.14	8002	68.892	0.467
0.0998	303.11	9000	78.724	0.537
0.0998	303.15	10004	88.738	0.609
0.0998	303.12	11000	98.851	0.7
0.0998	303.1	12003	109.095	0.759
0.0998	303.17	14997	139.317	1.011
0.0998	303.11	18001	167.945	1.22
0.0998	305.16	3003	23.496	0.175
0.0998	305.16	4003	31.879	0.217
0.0998	305.23	5002	40.525	0.269
0.0998	305.11	5997	49.434	0.322
0.0998	305.13	6992	58.605	0.384
0.0998	305.15	7998	68.122	0.449
0.0998	305.13	9002	77.799	0.516
0.0998	305.17	10003	87.669	0.6
0.0998	305.17	10999	97.609	0.672
0.0998	305.09	12002	107.694	0.746
0.0998	305.16	14996	137.438	0.969
0.0998	305.17	18001	165.624	1.197
0.0998	308.15	3000	23.193	0.172
0.0998	308.17	3998	31.42	0.207
0.0998	308.21	5001	39.985	0.265
0.0998	308.19	6002	48.761	0.325
0.0998	308.15	6999	57.796	0.377
0.0998	308.24	8000	67.015	0.452
0.0998	308.17	9004	76.501	0.506
0.0998	308.18	9999	86.118	0.573
0.0998	308.13	11000	95.867	0.642
0.0998	308.16	11997	105.588	0.712
0.0998	308.15	14997	134.77	0.949
0.0998	308.12	18004	162.496	1.171
0.2017	300	3662	34.438	0.211
0.2017	299.99	4000	37.902	0.227
0.2017	300.01	5001	48.462	0.288
0.2017	299.99	6002	59.46	0.361
0.2017	299.97	6997	70.838	0.43
0.2017	299.96	7999	82.733	0.509
0.2017	299.95	9002	95.03	0.611
0.2017	299.99	10005	107.622	0.697
0.2017	300.01	11000	120.384	0.817
0.2017	299.99	12000	133.357	0.906
0.2017	300	14999	171.971	1.224
0.2017	299.99	18001	207.683	1.513
0.2017	303.13	3999	37.359	0.223
0.2017	303.17	4998	47.685	0.286
0.2017	303.17	6001	58.474	0.353
0.2017	303.13	6999	69.612	0.424
0.2017	303.18	7999	81.148	0.513
0.2017	303.17	9001	93.089	0.579
0.2017	303.22	9998	105.223	0.68
0.2017	303.2	10996	117.65	0.768
0.2017	303.13	11999	130.323	0.881
0.2017	303.19	15005	167.871	1.186
0.2017	303.11	17996	202.897	1.469
0.2017	305.18	4001	37.03	0.22
0.2017	305.18	5001	47.235	0.282
0.2017	305.22	6000	57.81	0.349
0.2017	305.19	7000	68.786	0.418
0.2017	305.16	8002	80.173	0.492
0.2017	305.19	9001	91.841	0.57
0.2017	305.2	10000	103.792	0.668
0.2017	305.15	11001	116.026	0.774
0.2017	305.15	11998	128.322	0.865
0.2017	305.18	14999	165.099	1.163
0.2017	305.16	18000	199.543	1.411
0.2017	308.16	4002	36.486	0.223
0.2017	308.14	5002	46.531	0.278
0.2017	308.18	6001	56.895	0.342
0.2017	308.18	6999	67.631	0.41
0.2017	308.11	7996	78.731	0.482
0.2017	308.13	9004	90.207	0.572
0.2017	308.13	10002	101.87	0.669
0.2017	308.14	11000	113.723	0.735
0.2017	308.2	11998	125.636	0.84
0.2017	308.16	15001	161.57	1.103
0.2017	308.12	18001	195.388	1.369
0.3997	299.99	4003	48.763	0.267
0.3997	300.06	5002	62.85	0.364
0.3997	299.93	5997	77.827	0.428
0.3997	299.96	7003	93.846	0.54
0.3997	299.97	8000	110.726	0.648
0.3997	299.98	8997	128.548	0.811
0.3997	300.21	10004	147.143	0.951
0.3997	300	10995	166.796	1.127
0.3997	299.96	12001	186.929	1.277
0.3997	300.02	15007	246.022	1.784
0.3997	300.05	18002	297.591	2.137
0.3997	303.16	4001	48.004	0.292
0.3997	303.13	4999	61.796	0.334
0.3997	303.18	5999	76.379	0.417
0.3997	303.18	6996	91.801	0.524
0.3997	303.16	8000	108.241	0.626
0.3997	303.2	8999	125.402	0.78
0.3997	303.21	9999	143.458	0.882
0.3997	303.2	10993	162.067	1.069
0.3997	303.15	12001	181.298	1.243
0.3997	303.29	15006	237.974	1.663
0.3997	303.21	17999	288.435	2.047
0.3997	305.1	4001	47.504	0.255
0.3997	305.18	4996	60.999	0.319
0.3997	305.18	6000	75.426	0.411
0.3997	305.18	7002	90.651	0.5
0.3997	305.22	8006	106.718	0.615
0.3997	305.16	8998	123.489	0.722
0.3997	305.18	9997	141.056	0.862
0.3997	305.08	11001	159.477	1.018
0.3997	305.15	12006	178.104	1.182
0.3997	305.13	14994	233.75	1.621
0.3997	305.24	17994	283.653	1.953
0.3997	308.26	4003	46.849	0.251
0.3997	308.16	5006	60.225	0.324
0.3997	308.14	6001	74.193	0.416
0.3997	308.22	7001	88.937	0.519
0.3997	308.13	8003	104.538	0.58
0.3997	308.15	8996	120.739	0.7
0.3997	308.17	9994	137.721	0.834
0.3997	308.08	10996	155.394	0.755
0.3997	308.23	12000	173.174	1.106
0.3997	308.14	14996	227.135	1.561
0.3997	308.16	17997	276.178	1.89
0.6015	299.61	4220	65.102	0.326
0.6015	299.96	5002	79.746	0.4
0.6015	299.94	6004	100.404	0.534
0.6015	299.98	7000	123.126	0.742
0.6015	299.98	8002	148.65	0.962
0.6015	300.01	9002	176.866	1.339
0.6015	300.02	9996	207.768	1.68
0.6015	300.03	10998	241.279	2.112
0.6015	299.99	12004	275.504	2.496
0.6015	300.04	14998	367.75	3.043
0.6015	300	17997	433.882	3.221
0.6015	303.14	3995	59.469	0.294
0.6015	303.16	5009	77.914	0.389
0.6015	303.23	6005	97.567	0.514
0.6015	303.14	7004	119.411	0.687
0.6015	303.15	8006	143.46	0.88
0.6015	303.16	8999	169.77	1.124
0.6015	303.15	9999	198.747	1.457
0.6015	303.1	11000	229.981	1.831
0.6015	303.19	12002	261.85	2.187
0.6015	303.22	15003	352.168	2.835
0.6015	303.14	17999	420.157	3.09
0.6015	305.15	3979	58.587	0.288
0.6015	305.14	5001	76.729	0.382
0.6015	305.15	6000	96.024	0.504
0.6015	305.17	6999	117.142	0.651
0.6015	305.18	8000	140.462	0.831
0.6015	305.15	9004	165.984	1.11
0.6015	305.22	10006	193.541	1.391
0.6015	305.13	11012	223.4	1.749
0.6015	305.19	12005	253.791	2.066
0.6015	305.16	15000	340.932	2.75
0.6015	305.1	17995	408.107	3.084
0.6015	308.16	4004	57.94	0.284
0.6015	308.22	5006	75.217	0.373
0.6015	308.14	5997	93.812	0.49
0.6015	308.11	7002	114.28	0.629
0.6015	308.12	8003	136.504	0.797
0.6015	308.14	8998	160.546	1.026
0.6015	308.16	10002	186.699	1.274
0.6015	308.13	11001	214.588	1.559
0.6015	308.14	12002	243.454	1.937
0.6015	308.13	15007	328.628	2.628
0.6015	308.19	18000	395.269	2.919
0.7985	300.02	3999	74.633	0.359
0.7985	299.99	4997	99.658	0.495
0.7985	299.97	5996	129.225	0.733
0.7985	300.02	6996	165.378	1.106
0.7985	300	8000	212.092	1.806
0.7985	300.01	8998	274.617	3.219
0.7985	299.98	10003	353.847	4.589
0.7985	299.98	10997	428.638	5.139
0.7985	300.04	12001	485.736	5.15
0.7985	300.07	14999	584.129	4.602
0.7985	300.06	17999	637.414	4.417
0.7985	303.16	4000	73.078	0.341
0.7985	303.2	5001	97.235	0.478
0.7985	303.13	6004	125.434	0.676
0.7985	303.21	7002	158.82	0.971
0.7985	303.16	7994	200.301	1.469
0.7985	303.11	9001	254.341	2.393
0.7985	303.12	10001	320.908	3.642
0.7985	303.15	11003	391.279	4.571
0.7985	303.13	11860	444.556	4.783
0.7985	303.15	14998	561.073	4.536
0.7985	303.1	18071	621.015	4.301
0.7985	305.11	3997	72.035	0.335
0.7985	305.12	5006	95.778	0.471
0.7985	305.11	6003	122.855	0.663
0.7985	305.17	7000	154.794	0.946
0.7985	305.24	8000	193.79	1.382
0.7985	305.19	9001	243.07	2.124
0.7985	305.23	10000	303.258	3.177
0.7985	305.2	11001	369.844	4.118
0.7985	305.18	11999	429.815	4.539
0.7985	305.14	14994	546.063	4.522
0.7985	305.18	18002	608.035	4.343
0.7985	308.16	4006	70.911	0.331
0.7985	308.17	5006	93.74	0.444
0.7985	308.19	6002	119.651	0.642
0.7985	308.21	7002	149.932	0.882
0.7985	308.18	8000	185.875	1.237
0.7985	308.16	9001	229.843	1.82
0.7985	308.22	10003	282.745	2.674
0.7985	308.14	11000	342.357	2.914
0.7985	308.12	11997	401.005	4.14
0.7985	308.13	15001	523.511	4.435
0.7985	308.17	18002	590.479	4.329
0.8988	300.1	4310	90.757	0.425
0.8988	300.04	5006	112.111	0.597
0.8988	300.03	5996	149.398	0.972
0.8988	299.98	7004	203.104	1.875
0.8988	299.96	8008	302.149	5.298
0.8988	299.98	8997	483.358	9.915
0.8988	300.02	10011	582.856	7.707
0.8988	299.97	10986	631.428	6.625
0.8988	299.99	12017	664.349	7.368
0.8988	299.95	15006	723.669	6.36
0.8988	300.03	17999	760.577	5.867
0.8988	303.11	4004	80.364	0.387
0.8988	303.17	5005	108.149	0.54
0.8988	303.26	6002	141.868	0.841
0.8988	303.18	7001	186.521	1.414
0.8988	303.16	8016	253.316	3.047
0.8988	303.16	8992	374.284	7.764
0.8988	303.07	10005	522.742	7.854
0.8988	303.07	11007	588.449	6.884
0.8988	303.29	11998	626.792	6.342
0.8988	303.21	15000	701.018	5.223
0.8988	303.17	18000	742.988	4.967
0.8988	305.12	3998	79.325	0.383
0.8988	305.2	5004	106.835	0.573
0.8988	305.23	6002	139.912	0.936
0.8988	305.13	6994	182.804	1.27
0.8988	305.04	7997	244.829	2.558
0.8988	305.21	8996	345.688	5.748
0.8988	305.06	9978	474.418	7.867
0.8988	305.16	10996	555.932	7.09
0.8988	305.2	11998	604.408	6.411
0.8988	305.21	15000	683.999	5.353
0.8988	305.01	18003	732.397	4.909
0.8988	308.23	4004	78.335	0.352
0.8988	308.22	5002	104.568	0.51
0.8988	308.23	5998	135.871	0.801
0.8988	308.06	6995	175.453	1.179
0.8988	308.05	7997	229.008	2.108
0.8988	308.09	8982	306.981	4.052
0.8988	308.16	9993	417.764	6.756
0.8988	308.24	11004	513.225	6.881
0.8988	308.34	11928	563.033	6.284
0.8988	308.26	14998	660.797	5.383
0.8988	308.11	18002	711.774	5.161
