Measured thermophysical data. Volumetric, acoustic and viscometric investigation of ceftriaxone disodium in aqueous solutions of 1-propanol and 2-propanol
Source: J. Chem. Thermodyn., 2019, 10.1016/j.jct.2019.105880
Compound 1: disodium ceftriaxone, C18H16N8Na2O7S3, InChI=1S/C18H18N8O7S3.2Na/c1-25-18(22-12(28)13(29)23-25)36-4-6-3-34-15-9(14(30)26(15)10(6)16(31)32)21-11(27)8(24-33-2)7-5-35-17(19)20-7;;/h5,9,15H,3-4H2,1-2H3,(H5,19,20,21,23,27,29,31,32);;/q;2*+1/p-2/b24-8-;;/t9-,15-;;/m1../s1, purity 99%
Compound 2: propan-1-ol, C3H8O, InChI=1S/C3H8O/c1-2-3-4/h4H,2-3H2,1H3, purity 99.7%
Compound 3: propan-2-ol, C3H8O, InChI=1S/C3H8O/c1-3(2)4/h3-4H,1-2H3, purity 99.5%
Compound 4: water, H2O, InChI=1S/H2O/h1H2

System: disodium ceftriaxone + water + propan-1-ol; phases: Liquid
Fixed: Pressure, kPa = 100
Property: Mass density, kg/m3 (Liquid); method: Vibrating tube method
Temperature, K	Solvent: Mass fraction of propan-1-ol	Molality, mol/kg of disodium ceftriaxone	Mass density, kg/m3	uncertainty
288.15	0.1	0	985.245	1.466
288.15	0.1	0.0334	994.793	1.479
288.15	0.1	0.051	999.71	1.473
288.15	0.1	0.0751	1006.252	1.477
288.15	0.1	0.1017	1013.446	1.48
288.15	0.1	0.1298	1020.862	1.491
288.15	0.1	0.1755	1032.549	1.492
288.15	0.1	0.2008	1038.735	1.502
288.15	0.1	0.2382	1047.928	1.516
288.15	0.2	0	971.452	1.639
288.15	0.2	0.0188	976.809	1.801
288.15	0.2	0.0471	984.701	1.636
288.15	0.2	0.0777	993.006	1.636
288.15	0.2	0.1382	1008.841	1.649
288.15	0.2	0.1703	1016.997	1.649
288.15	0.2	0.2044	1025.394	1.643
288.15	0.2	0.2389	1033.721	1.649
288.15	0.2	0.2632	1039.334	1.761
288.15	0.3	0	954.251	1.91
288.15	0.3	0.0468	967.345	1.915
288.15	0.3	0.076	975.258	1.916
288.15	0.3	0.1068	983.483	2.032
288.15	0.3	0.138	991.432	1.915
288.15	0.3	0.1709	999.84	1.917
288.15	0.3	0.2045	1008.194	1.912
288.15	0.3	0.2404	1016.844	1.912
288.15	0.3	0.2638	1022.499	1.902
288.15	0.4	0	934.617	2.025
288.15	0.4	0.0471	947.68	2.043
288.15	0.4	0.076	955.495	2.042
288.15	0.4	0.1075	963.807	2.049
288.15	0.4	0.1379	971.695	2.036
288.15	0.4	0.1701	979.821	2.042
288.15	0.4	0.2032	988.06	2.047
288.15	0.4	0.2397	996.854	2.043
288.15	0.4	0.2636	1002.471	2.053
293.15	0.1	0	983.869	1.561
293.15	0.1	0.0334	993.298	1.569
293.15	0.1	0.051	998.148	1.564
293.15	0.1	0.0751	1004.68	1.56
293.15	0.1	0.1017	1011.738	1.568
293.15	0.1	0.1298	1019.029	1.563
293.15	0.1	0.1755	1030.698	1.561
293.15	0.1	0.2008	1036.889	1.568
293.15	0.1	0.2382	1046.028	1.586
293.15	0.2	0	969.02	1.729
293.15	0.2	0.0188	974.359	1.866
293.15	0.2	0.0471	982.201	1.726
293.15	0.2	0.0777	990.503	1.726
293.15	0.2	0.1382	1006.313	1.732
293.15	0.2	0.1703	1014.465	1.732
293.15	0.2	0.2044	1022.813	1.726
293.15	0.2	0.2389	1031.035	1.723
293.15	0.2	0.2632	1036.691	1.857
293.15	0.3	0	950.883	1.953
293.15	0.3	0.0468	963.897	1.957
293.15	0.3	0.076	971.808	1.958
293.15	0.3	0.1068	979.848	2.028
293.15	0.3	0.138	987.885	1.955
293.15	0.3	0.1709	996.259	1.958
293.15	0.3	0.2045	1004.601	1.954
293.15	0.3	0.2404	1013.388	1.947
293.15	0.3	0.2638	1018.819	1.941
293.15	0.4	0	931.255	2.027
293.15	0.4	0.0471	944.313	2.034
293.15	0.4	0.076	952.113	2.034
293.15	0.4	0.1075	960.45	2.022
293.15	0.4	0.1379	968.345	2.017
293.15	0.4	0.1701	976.445	2.024
293.15	0.4	0.2032	984.616	2.026
293.15	0.4	0.2397	993.457	2.037
293.15	0.4	0.2636	999.101	2.028
298.15	0.1	0	982.336	1.663
298.15	0.1	0.0334	991.716	1.667
298.15	0.1	0.051	996.538	1.662
298.15	0.1	0.0751	1002.987	1.657
298.15	0.1	0.1017	1010.027	1.661
298.15	0.1	0.1298	1017.342	1.655
298.15	0.1	0.1755	1028.845	1.649
298.15	0.1	0.2008	1034.93	1.647
298.15	0.1	0.2382	1044.023	1.651
298.15	0.2	0	966.338	1.789
298.15	0.2	0.0188	971.66	1.92
298.15	0.2	0.0471	979.493	1.789
298.15	0.2	0.0777	987.752	1.785
298.15	0.2	0.1382	1003.513	1.793
298.15	0.2	0.1703	1011.642	1.79
298.15	0.2	0.2044	1020.013	1.777
298.15	0.2	0.2389	1028.3	1.772
298.15	0.2	0.2632	1033.922	1.889
298.15	0.3	0	948.039	1.99
298.15	0.3	0.0468	960.992	1.993
298.15	0.3	0.076	968.876	1.993
298.15	0.3	0.1068	976.879	2.062
298.15	0.3	0.138	984.922	1.987
298.15	0.3	0.1709	993.192	1.99
298.15	0.3	0.2045	1001.582	1.985
298.15	0.3	0.2404	1010.387	1.982
298.15	0.3	0.2638	1015.753	1.977
298.15	0.4	0	927.818	2.082
298.15	0.4	0.0471	940.867	2.085
298.15	0.4	0.076	948.656	2.083
298.15	0.4	0.1075	956.999	2.068
298.15	0.4	0.1379	964.881	2.064
298.15	0.4	0.1701	972.959	2.061
298.15	0.4	0.2032	981.177	2.07
298.15	0.4	0.2397	989.986	2.082
298.15	0.4	0.2636	995.562	2.067
303.15	0.1	0	980.428	1.747
303.15	0.1	0.0334	989.75	1.74
303.15	0.1	0.051	994.534	1.735
303.15	0.1	0.0751	1000.958	1.728
303.15	0.1	0.1017	1007.973	1.731
303.15	0.1	0.1298	1015.252	1.72
303.15	0.1	0.1755	1026.666	1.706
303.15	0.1	0.2008	1032.771	1.703
303.15	0.1	0.2382	1041.754	1.71
303.15	0.2	0	963.667	1.838
303.15	0.2	0.0188	968.977	1.957
303.15	0.2	0.0471	976.798	1.834
303.15	0.2	0.0777	985.035	1.834
303.15	0.2	0.1382	1000.751	1.837
303.15	0.2	0.1703	1008.914	1.834
303.15	0.2	0.2044	1017.271	1.825
303.15	0.2	0.2389	1025.495	1.816
303.15	0.2	0.2632	1031.11	1.931
303.15	0.3	0	945.132	2.027
303.15	0.3	0.0468	958.038	2.029
303.15	0.3	0.076	965.831	2.028
303.15	0.3	0.1068	973.887	2.105
303.15	0.3	0.138	981.905	2.021
303.15	0.3	0.1709	990.099	2.026
303.15	0.3	0.2045	998.437	2.021
303.15	0.3	0.2404	1007.19	2.014
303.15	0.3	0.2638	1012.52	2.008
303.15	0.4	0	924.386	2.133
303.15	0.4	0.0471	937.412	2.136
303.15	0.4	0.076	945.216	2.124
303.15	0.4	0.1075	953.538	2.115
303.15	0.4	0.1379	961.401	2.111
303.15	0.4	0.1701	969.485	2.1
303.15	0.4	0.2032	977.689	2.104
303.15	0.4	0.2397	986.523	2.113
303.15	0.4	0.2636	992.078	2.093

System: disodium ceftriaxone + water + propan-1-ol; phases: Liquid
Fixed: Pressure, kPa = 100
Property: Viscosity, Pa*s (Liquid); method: Falling or rolling sphere viscometry
Temperature, K	Solvent: Mass fraction of propan-1-ol	Molality, mol/kg of disodium ceftriaxone	Viscosity, Pa*s	uncertainty
288.15	0.1	0	0.00182	0.000142
288.15	0.1	0.0334	0.001938	0.000152
288.15	0.1	0.051	0.002007	0.000155
288.15	0.1	0.0751	0.002092	0.000162
288.15	0.1	0.1017	0.002236	0.00017
288.15	0.1	0.1298	0.00239	0.000182
288.15	0.1	0.1755	0.002634	0.000195
288.15	0.1	0.2008	0.002852	0.000209
288.15	0.1	0.2382	0.0032	0.000228
288.15	0.2	0	0.002723	0.000179
288.15	0.2	0.0188	0.002808	0.000179
288.15	0.2	0.0471	0.00296	0.000195
288.15	0.2	0.0777	0.003129	0.000206
288.15	0.2	0.1382	0.003537	0.000232
288.15	0.2	0.1703	0.003756	0.000247
288.15	0.2	0.2044	0.004074	0.000266
288.15	0.2	0.2389	0.004414	0.000286
288.15	0.2	0.2632	0.00466	0.000297
288.15	0.3	0	0.003208	0.000199
288.15	0.3	0.0468	0.003513	0.000216
288.15	0.3	0.076	0.003717	0.000229
288.15	0.3	0.1068	0.003947	0.00024
288.15	0.3	0.138	0.004214	0.000259
288.15	0.3	0.1709	0.004533	0.000279
288.15	0.3	0.2045	0.004873	0.0003
288.15	0.3	0.2404	0.005293	0.000326
288.15	0.3	0.2638	0.005589	0.000346
288.15	0.4	0	0.003575	0.000219
288.15	0.4	0.0471	0.003718	0.000226
288.15	0.4	0.076	0.003947	0.00024
288.15	0.4	0.1075	0.004191	0.000255
288.15	0.4	0.1379	0.004489	0.000273
288.15	0.4	0.1701	0.004806	0.000292
288.15	0.4	0.2032	0.005181	0.000315
288.15	0.4	0.2397	0.005627	0.000344
288.15	0.4	0.2636	0.006168	0.000378
293.15	0.1	0	0.001545	0.000115
293.15	0.1	0.0334	0.001658	0.000124
293.15	0.1	0.051	0.001723	0.000128
293.15	0.1	0.0751	0.001786	0.000132
293.15	0.1	0.1017	0.001904	0.000138
293.15	0.1	0.1298	0.002024	0.000147
293.15	0.1	0.1755	0.002244	0.000159
293.15	0.1	0.2008	0.002414	0.00017
293.15	0.1	0.2382	0.002681	0.000184
293.15	0.2	0	0.002232	0.000145
293.15	0.2	0.0188	0.002302	0.000146
293.15	0.2	0.0471	0.002452	0.000159
293.15	0.2	0.0777	0.002567	0.000167
293.15	0.2	0.1382	0.002892	0.000188
293.15	0.2	0.1703	0.003064	0.0002
293.15	0.2	0.2044	0.003333	0.000216
293.15	0.2	0.2389	0.003602	0.000233
293.15	0.2	0.2632	0.0038	0.00024
293.15	0.3	0	0.002618	0.000162
293.15	0.3	0.0468	0.002871	0.000176
293.15	0.3	0.076	0.003036	0.000187
293.15	0.3	0.1068	0.003236	0.000196
293.15	0.3	0.138	0.003454	0.000213
293.15	0.3	0.1709	0.003702	0.000228
293.15	0.3	0.2045	0.003991	0.000246
293.15	0.3	0.2404	0.004325	0.000266
293.15	0.3	0.2638	0.004575	0.000283
293.15	0.4	0	0.00292	0.00018
293.15	0.4	0.0471	0.003045	0.000186
293.15	0.4	0.076	0.00323	0.000197
293.15	0.4	0.1075	0.003433	0.000209
293.15	0.4	0.1379	0.003712	0.000226
293.15	0.4	0.1701	0.003938	0.00024
293.15	0.4	0.2032	0.004273	0.000261
293.15	0.4	0.2397	0.004593	0.000281
293.15	0.4	0.2636	0.005019	0.000309
298.15	0.1	0	0.001333	9.5e-05
298.15	0.1	0.0334	0.00144	0.000103
298.15	0.1	0.051	0.001475	0.000105
298.15	0.1	0.0751	0.001541	0.00011
298.15	0.1	0.1017	0.001638	0.000115
298.15	0.1	0.1298	0.001758	0.000123
298.15	0.1	0.1755	0.001929	0.000135
298.15	0.1	0.2008	0.002069	0.000142
298.15	0.1	0.2382	0.00229	0.000154
298.15	0.2	0	0.001852	0.00012
298.15	0.2	0.0188	0.001908	0.00012
298.15	0.2	0.0471	0.00203	0.00013
298.15	0.2	0.0777	0.002138	0.000138
298.15	0.2	0.1382	0.00241	0.000155
298.15	0.2	0.1703	0.002604	0.000168
298.15	0.2	0.2044	0.002777	0.000179
298.15	0.2	0.2389	0.003	0.000192
298.15	0.2	0.2632	0.003159	0.0002
298.15	0.3	0	0.002174	0.000135
298.15	0.3	0.0468	0.002387	0.000147
298.15	0.3	0.076	0.002528	0.000156
298.15	0.3	0.1068	0.00269	0.000163
298.15	0.3	0.138	0.00287	0.000177
298.15	0.3	0.1709	0.00308	0.000189
298.15	0.3	0.2045	0.00331	0.000204
298.15	0.3	0.2404	0.003584	0.000221
298.15	0.3	0.2638	0.003784	0.000234
298.15	0.4	0	0.002436	0.00015
298.15	0.4	0.0471	0.002532	0.000154
298.15	0.4	0.076	0.00269	0.000164
298.15	0.4	0.1075	0.00286	0.000174
298.15	0.4	0.1379	0.003061	0.000187
298.15	0.4	0.1701	0.003276	0.0002
298.15	0.4	0.2032	0.003524	0.000215
298.15	0.4	0.2397	0.003816	0.000233
298.15	0.4	0.2636	0.00417	0.000257
303.15	0.1	0	0.001156	8.1e-05
303.15	0.1	0.0334	0.001235	8.7e-05
303.15	0.1	0.051	0.001284	9e-05
303.15	0.1	0.0751	0.00134	9.4e-05
303.15	0.1	0.1017	0.001427	9.8e-05
303.15	0.1	0.1298	0.001513	0.000105
303.15	0.1	0.1755	0.001668	0.000114
303.15	0.1	0.2008	0.001786	0.000121
303.15	0.1	0.2382	0.001995	0.000132
303.15	0.2	0	0.001567	0.000101
303.15	0.2	0.0188	0.001615	0.000102
303.15	0.2	0.0471	0.001717	0.00011
303.15	0.2	0.0777	0.001822	0.000117
303.15	0.2	0.1382	0.00205	0.000132
303.15	0.2	0.1703	0.002197	0.000142
303.15	0.2	0.2044	0.002348	0.00015
303.15	0.2	0.2389	0.002535	0.000162
303.15	0.2	0.2632	0.002669	0.000169
303.15	0.3	0	0.001841	0.000114
303.15	0.3	0.0468	0.002016	0.000124
303.15	0.3	0.076	0.002141	0.000132
303.15	0.3	0.1068	0.002286	0.000139
303.15	0.3	0.138	0.002421	0.000149
303.15	0.3	0.1709	0.00262	0.000161
303.15	0.3	0.2045	0.002795	0.000172
303.15	0.3	0.2404	0.003022	0.000186
303.15	0.3	0.2638	0.003186	0.000197
303.15	0.4	0	0.002056	0.000126
303.15	0.4	0.0471	0.002142	0.000131
303.15	0.4	0.076	0.002273	0.000138
303.15	0.4	0.1075	0.002407	0.000146
303.15	0.4	0.1379	0.002571	0.000156
303.15	0.4	0.1701	0.002769	0.000168
303.15	0.4	0.2032	0.002982	0.000182
303.15	0.4	0.2397	0.003236	0.000198
303.15	0.4	0.2636	0.003489	0.000213

System: disodium ceftriaxone + water + propan-1-ol; phases: Liquid
Fixed: Pressure, kPa = 100
Fixed: Frequency, MHz = 3
Property: Speed of sound, m/s (Liquid); method: Single path-length method
Temperature, K	Solvent: Mass fraction of propan-1-ol	Molality, mol/kg of disodium ceftriaxone	Speed of sound, m/s	uncertainty
288.15	0.1	0	1564.36	3.1
288.15	0.1	0.0334	1570.96	3.08
288.15	0.1	0.051	1574.51	3.09
288.15	0.1	0.0751	1579.02	3.06
288.15	0.1	0.1017	1583.62	3.05
288.15	0.1	0.1298	1588.39	3.14
288.15	0.1	0.1755	1596	3.08
288.15	0.1	0.2008	1600.08	3.04
288.15	0.1	0.2382	1605.76	3.01
288.15	0.2	0	1587.41	3.02
288.15	0.2	0.0188	1591.22	3.86
288.15	0.2	0.0471	1596.53	2.65
288.15	0.2	0.0777	1601.88	2.71
288.15	0.2	0.1382	1613.32	2.72
288.15	0.2	0.1703	1617.9	2.77
288.15	0.2	0.2044	1622.85	2.82
288.15	0.2	0.2389	1627.74	2.8
288.15	0.2	0.2632	1630.89	6.44
288.15	0.3	0	1533.46	5.49
288.15	0.3	0.0468	1540.62	5.64
288.15	0.3	0.076	1544.66	5.72
288.15	0.3	0.1068	1549.02	5.46
288.15	0.3	0.138	1553.99	5.93
288.15	0.3	0.1709	1558.65	5.99
288.15	0.3	0.2045	1562.61	6.06
288.15	0.3	0.2404	1567.86	6.13
288.15	0.3	0.2638	1569.96	6.17
288.15	0.4	0	1485.74	5.2
288.15	0.4	0.0471	1491.63	5.33
288.15	0.4	0.076	1495.02	5.38
288.15	0.4	0.1075	1498.76	5.45
288.15	0.4	0.1379	1502.1	5.59
288.15	0.4	0.1701	1505.38	5.7
288.15	0.4	0.2032	1508.8	5.75
288.15	0.4	0.2397	1512.48	5.91
288.15	0.4	0.2636	1514.62	5.9
293.15	0.1	0	1570.14	2.39
293.15	0.1	0.0334	1576.33	2.35
293.15	0.1	0.051	1579.72	2.35
293.15	0.1	0.0751	1583.89	2.34
293.15	0.1	0.1017	1588.5	2.34
293.15	0.1	0.1298	1592.98	2.28
293.15	0.1	0.1755	1600.26	2.27
293.15	0.1	0.2008	1604.16	2.25
293.15	0.1	0.2382	1609.64	2.29
293.15	0.2	0	1581.59	3.13
293.15	0.2	0.0188	1584.79	4.34
293.15	0.2	0.0471	1589.71	3.1
293.15	0.2	0.0777	1595.03	3.14
293.15	0.2	0.1382	1603.7	3.2
293.15	0.2	0.1703	1608.57	3.24
293.15	0.2	0.2044	1613.31	3.26
293.15	0.2	0.2389	1619.23	3.31
293.15	0.2	0.2632	1622.43	6.46
293.15	0.3	0	1526.46	5.61
293.15	0.3	0.0468	1532.9	5.74
293.15	0.3	0.076	1536.96	5.82
293.15	0.3	0.1068	1541	5.57
293.15	0.3	0.138	1545.11	5.92
293.15	0.3	0.1709	1549.92	5.99
293.15	0.3	0.2045	1554.5	6.06
293.15	0.3	0.2404	1558.18	6.18
293.15	0.3	0.2638	1561.34	6.24
293.15	0.4	0	1477.19	5.36
293.15	0.4	0.0471	1482.71	5.44
293.15	0.4	0.076	1485.96	5.52
293.15	0.4	0.1075	1489.42	5.57
293.15	0.4	0.1379	1492.62	5.64
293.15	0.4	0.1701	1496.1	5.78
293.15	0.4	0.2032	1499.29	5.89
293.15	0.4	0.2397	1502.93	5.92
293.15	0.4	0.2636	1504.82	6.03
298.15	0.1	0	1574.31	2.08
298.15	0.1	0.0334	1580.09	2.07
298.15	0.1	0.051	1583.27	2.07
298.15	0.1	0.0751	1587.3	2.07
298.15	0.1	0.1017	1591.6	2.07
298.15	0.1	0.1298	1595.95	2.07
298.15	0.1	0.1755	1603.1	2.07
298.15	0.1	0.2008	1606.79	2.07
298.15	0.1	0.2382	1612.15	2.07
298.15	0.2	0	1575.5	3.51
298.15	0.2	0.0188	1578.49	4.65
298.15	0.2	0.0471	1583.09	3.52
298.15	0.2	0.0777	1587.78	3.56
298.15	0.2	0.1382	1596.08	3.63
298.15	0.2	0.1703	1601.24	3.69
298.15	0.2	0.2044	1605.77	3.71
298.15	0.2	0.2389	1610.72	3.74
298.15	0.2	0.2632	1613.97	6.54
298.15	0.3	0	1519.61	5.76
298.15	0.3	0.0468	1525.65	5.87
298.15	0.3	0.076	1529.51	5.94
298.15	0.3	0.1068	1533.48	5.76
298.15	0.3	0.138	1537.32	6.03
298.15	0.3	0.1709	1541.36	6.12
298.15	0.3	0.2045	1545.78	6.18
298.15	0.3	0.2404	1550.01	6.26
298.15	0.3	0.2638	1552.2	6.32
298.15	0.4	0	1467.96	5.57
298.15	0.4	0.0471	1473.2	5.65
298.15	0.4	0.076	1476.27	5.71
298.15	0.4	0.1075	1479.69	5.78
298.15	0.4	0.1379	1482.82	5.84
298.15	0.4	0.1701	1485.96	5.91
298.15	0.4	0.2032	1489.24	6.02
298.15	0.4	0.2397	1492.61	6.1
298.15	0.4	0.2636	1494.55	6.12
303.15	0.1	0	1577.41	2.21
303.15	0.1	0.0334	1582.83	2.24
303.15	0.1	0.051	1585.8	2.24
303.15	0.1	0.0751	1589.53	2.26
303.15	0.1	0.1017	1593.83	2.26
303.15	0.1	0.1298	1597.98	2.31
303.15	0.1	0.1755	1604.68	2.31
303.15	0.1	0.2008	1608.25	2.34
303.15	0.1	0.2382	1613.5	2.33
303.15	0.2	0	1569.54	3.97
303.15	0.2	0.0188	1572.26	4.84
303.15	0.2	0.0471	1576.47	3.93
303.15	0.2	0.0777	1580.83	3.96
303.15	0.2	0.1382	1588.86	4.03
303.15	0.2	0.1703	1593.61	4.09
303.15	0.2	0.2044	1597.83	4.13
303.15	0.2	0.2389	1602.91	4.17
303.15	0.2	0.2632	1606.01	6.53
303.15	0.3	0	1512.62	5.92
303.15	0.3	0.0468	1518.4	6.02
303.15	0.3	0.076	1522.33	6.07
303.15	0.3	0.1068	1525.77	6
303.15	0.3	0.138	1529.73	6.16
303.15	0.3	0.1709	1533.62	6.25
303.15	0.3	0.2045	1537.36	6.28
303.15	0.3	0.2404	1541.21	6.38
303.15	0.3	0.2638	1544.13	6.43
303.15	0.4	0	1458.62	5.78
303.15	0.4	0.0471	1463.45	5.87
303.15	0.4	0.076	1466.49	5.96
303.15	0.4	0.1075	1469.67	5.99
303.15	0.4	0.1379	1472.67	6.07
303.15	0.4	0.1701	1475.68	6.14
303.15	0.4	0.2032	1479.02	6.19
303.15	0.4	0.2397	1482.36	6.24
303.15	0.4	0.2636	1484.31	6.33

System: disodium ceftriaxone + water + propan-2-ol; phases: Liquid
Fixed: Pressure, kPa = 100
Property: Mass density, kg/m3 (Liquid); method: Vibrating tube method
Temperature, K	Solvent: Mass fraction of propan-2-ol	Molality, mol/kg of disodium ceftriaxone	Mass density, kg/m3	uncertainty
288.15	0.1	0	983.401	1.275
288.15	0.1	0.0539	998.873	1.293
288.15	0.1	0.0917	1009.361	1.318
288.15	0.1	0.1313	1019.875	1.346
288.15	0.1	0.1732	1030.805	1.344
288.15	0.1	0.2159	1041.406	1.372
288.15	0.1	0.2615	1052.635	1.403
288.15	0.2	0	971.675	1.529
288.15	0.2	0.0559	987.364	1.544
288.15	0.2	0.0938	997.545	1.561
288.15	0.2	0.1333	1007.794	1.565
288.15	0.2	0.1754	1018.655	1.587
288.15	0.2	0.2179	1029.028	1.604
288.15	0.2	0.2656	1040.468	1.625
288.15	0.3	0	954.62	1.776
288.15	0.3	0.0539	969.597	1.806
288.15	0.3	0.0918	979.743	1.801
288.15	0.3	0.1315	990.164	1.8
288.15	0.3	0.1739	1000.754	1.832
288.15	0.3	0.2166	1010.952	1.846
288.15	0.3	0.262	1021.578	1.866
293.15	0.1	0	982.158	1.367
293.15	0.1	0.0539	997.468	1.392
293.15	0.1	0.0917	1007.885	1.413
293.15	0.1	0.1313	1018.256	1.432
293.15	0.1	0.1732	1029.117	1.43
293.15	0.1	0.2159	1039.545	1.447
293.15	0.1	0.2615	1050.755	1.476
293.15	0.2	0	969.345	1.606
293.15	0.2	0.0559	984.905	1.624
293.15	0.2	0.0938	995.035	1.635
293.15	0.2	0.1333	1005.232	1.644
293.15	0.2	0.1754	1016.05	1.664
293.15	0.2	0.2179	1026.377	1.676
293.15	0.2	0.2656	1037.752	1.694
293.15	0.3	0	951.686	1.855
293.15	0.3	0.0539	966.529	1.868
293.15	0.3	0.0918	976.698	1.87
293.15	0.3	0.1315	986.887	1.87
293.15	0.3	0.1739	997.431	1.907
293.15	0.3	0.2166	1007.579	1.917
293.15	0.3	0.262	1018.307	1.943
298.15	0.1	0	980.642	1.466
298.15	0.1	0.0539	995.821	1.489
298.15	0.1	0.0917	1006.16	1.5
298.15	0.1	0.1313	1016.376	1.517
298.15	0.1	0.1732	1027.238	1.518
298.15	0.1	0.2159	1037.567	1.523
298.15	0.1	0.2615	1048.709	1.553
298.15	0.2	0	966.771	1.703
298.15	0.2	0.0559	982.218	1.72
298.15	0.2	0.0938	992.374	1.735
298.15	0.2	0.1333	1002.502	1.738
298.15	0.2	0.1754	1013.207	1.762
298.15	0.2	0.2179	1023.576	1.762
298.15	0.2	0.2656	1034.862	1.787
298.15	0.3	0	948.106	1.911
298.15	0.3	0.0539	962.851	1.942
298.15	0.3	0.0918	972.878	1.952
298.15	0.3	0.1315	983.046	1.957
298.15	0.3	0.1739	993.515	1.982
298.15	0.3	0.2166	1003.816	2.001
298.15	0.3	0.262	1014.327	2.003
303.15	0.1	0	978.882	1.55
303.15	0.1	0.0539	993.957	1.569
303.15	0.1	0.0917	1004.232	1.581
303.15	0.1	0.1313	1014.342	1.599
303.15	0.1	0.1732	1025.144	1.581
303.15	0.1	0.2159	1035.386	1.603
303.15	0.1	0.2615	1046.437	1.629
303.15	0.2	0	964.199	1.763
303.15	0.2	0.0559	979.499	1.779
303.15	0.2	0.0938	989.532	1.794
303.15	0.2	0.1333	999.648	1.797
303.15	0.2	0.1754	1010.382	1.815
303.15	0.2	0.2179	1020.61	1.816
303.15	0.2	0.2656	1031.86	1.835
303.15	0.3	0	945.121	1.971
303.15	0.3	0.0539	959.749	1.995
303.15	0.3	0.0918	969.732	2.002
303.15	0.3	0.1315	979.771	2.007
303.15	0.3	0.1739	990.305	2.041
303.15	0.3	0.2166	1000.516	2.046
303.15	0.3	0.262	1011.013	2.056

System: disodium ceftriaxone + water + propan-2-ol; phases: Liquid
Fixed: Pressure, kPa = 100
Fixed: Frequency, MHz = 3
Property: Speed of sound, m/s (Liquid); method: Single path-length method
Temperature, K	Solvent: Mass fraction of propan-2-ol	Molality, mol/kg of disodium ceftriaxone	Speed of sound, m/s	uncertainty
288.15	0.1	0	1573.71	6.82
288.15	0.1	0.0539	1583.92	6.19
288.15	0.1	0.0917	1590.3	5.83
288.15	0.1	0.1313	1596.93	5.47
288.15	0.1	0.1732	1603.97	5.11
288.15	0.1	0.2159	1610.93	4.78
288.15	0.1	0.2615	1617.84	4.45
288.15	0.2	0	1638.6	2.31
288.15	0.2	0.0559	1642.29	2.12
288.15	0.2	0.0938	1645.07	2.11
288.15	0.2	0.1333	1647.85	2.09
288.15	0.2	0.1754	1650.91	2.08
288.15	0.2	0.2179	1654.09	2.1
288.15	0.2	0.2656	1657.73	2.19
288.15	0.3	0	1586.87	5.58
288.15	0.3	0.0539	1592.61	5.38
288.15	0.3	0.0918	1596.37	5.3
288.15	0.3	0.1315	1599.48	5.26
288.15	0.3	0.1739	1602.55	5.27
288.15	0.3	0.2166	1605.24	5.3
288.15	0.3	0.262	1608.01	5.37
293.15	0.1	0	1578.94	5.5
293.15	0.1	0.0539	1588.8	4.97
293.15	0.1	0.0917	1594.87	4.68
293.15	0.1	0.1313	1601.56	4.39
293.15	0.1	0.1732	1608.06	4.09
293.15	0.1	0.2159	1614.86	3.81
293.15	0.1	0.2615	1621.38	3.58
293.15	0.2	0	1629.42	2.14
293.15	0.2	0.0559	1633.78	2.12
293.15	0.2	0.0938	1636.96	2.15
293.15	0.2	0.1333	1640.07	2.19
293.15	0.2	0.1754	1643.37	2.25
293.15	0.2	0.2179	1646.67	2.33
293.15	0.2	0.2656	1650.61	2.42
293.15	0.3	0	1574.71	5.85
293.15	0.3	0.0539	1580.81	5.68
293.15	0.3	0.0918	1584.65	5.61
293.15	0.3	0.1315	1588.29	5.58
293.15	0.3	0.1739	1591.18	5.61
293.15	0.3	0.2166	1593.86	5.65
293.15	0.3	0.262	1596.92	5.74
298.15	0.1	0	1582.94	4.31
298.15	0.1	0.0539	1592.32	3.9
298.15	0.1	0.0917	1598.13	3.68
298.15	0.1	0.1313	1604.73	3.44
298.15	0.1	0.1732	1610.77	3.21
298.15	0.1	0.2159	1617.42	3.01
298.15	0.1	0.2615	1623.6	2.84
298.15	0.2	0	1620.23	2.35
298.15	0.2	0.0559	1625.17	2.38
298.15	0.2	0.0938	1628.61	2.43
298.15	0.2	0.1333	1631.96	2.5
298.15	0.2	0.1754	1635.47	2.59
298.15	0.2	0.2179	1638.98	2.7
298.15	0.2	0.2656	1643.16	2.81
298.15	0.3	0	1562.8	6.15
298.15	0.3	0.0539	1569.11	5.99
298.15	0.3	0.0918	1573.2	5.92
298.15	0.3	0.1315	1577.18	5.9
298.15	0.3	0.1739	1579.92	5.93
298.15	0.3	0.2166	1583.12	5.99
298.15	0.3	0.262	1585.76	6.1
303.15	0.1	0	1585.73	3.28
303.15	0.1	0.0539	1594.82	3
303.15	0.1	0.0917	1600.24	2.85
303.15	0.1	0.1313	1606.73	2.68
303.15	0.1	0.1732	1612.52	2.54
303.15	0.1	0.2159	1618.91	2.4
303.15	0.1	0.2615	1625.08	2.31
303.15	0.2	0	1611	2.83
303.15	0.2	0.0559	1616.39	2.84
303.15	0.2	0.0938	1620.21	2.87
303.15	0.2	0.1333	1623.48	2.96
303.15	0.2	0.1754	1627.5	3.06
303.15	0.2	0.2179	1630.9	3.18
303.15	0.2	0.2656	1635.49	3.3
303.15	0.3	0	1549.6	6.48
303.15	0.3	0.0539	1556.31	6.34
303.15	0.3	0.0918	1560.86	6.3
303.15	0.3	0.1315	1564.62	6.25
303.15	0.3	0.1739	1567.8	6.31
303.15	0.3	0.2166	1571.05	6.34
303.15	0.3	0.262	1574.23	6.45

System: disodium ceftriaxone + water + propan-2-ol; phases: Liquid
Fixed: Pressure, kPa = 100
Property: Viscosity, Pa*s (Liquid); method: Falling or rolling sphere viscometry
Temperature, K	Solvent: Mass fraction of propan-2-ol	Molality, mol/kg of disodium ceftriaxone	Viscosity, Pa*s	uncertainty
288.15	0.1	0	0.001936	0.000164
288.15	0.1	0.0539	0.002161	0.000178
288.15	0.1	0.0917	0.002334	0.000191
288.15	0.1	0.1313	0.002535	0.000208
288.15	0.1	0.1732	0.002778	0.000225
288.15	0.1	0.2159	0.00306	0.000247
288.15	0.1	0.2615	0.00341	0.000275
288.15	0.2	0	0.003087	0.000214
288.15	0.2	0.0559	0.00339	0.000234
288.15	0.2	0.0938	0.003643	0.000251
288.15	0.2	0.1333	0.003953	0.000272
288.15	0.2	0.1754	0.004294	0.000297
288.15	0.2	0.2179	0.00473	0.000325
288.15	0.2	0.2656	0.005254	0.000361
288.15	0.3	0	0.004014	0.00026
288.15	0.3	0.0539	0.004415	0.000287
288.15	0.3	0.0918	0.004731	0.000308
288.15	0.3	0.1315	0.005129	0.000334
288.15	0.3	0.1739	0.005641	0.000368
288.15	0.3	0.2166	0.006155	0.000401
288.15	0.3	0.262	0.006825	0.000444
293.15	0.1	0	0.001633	0.000129
293.15	0.1	0.0539	0.001815	0.000142
293.15	0.1	0.0917	0.001955	0.000153
293.15	0.1	0.1313	0.002121	0.000164
293.15	0.1	0.1732	0.002325	0.000178
293.15	0.1	0.2159	0.002561	0.000195
293.15	0.1	0.2615	0.002844	0.000215
293.15	0.2	0	0.002485	0.000169
293.15	0.2	0.0559	0.002742	0.000186
293.15	0.2	0.0938	0.002948	0.0002
293.15	0.2	0.1333	0.003171	0.000215
293.15	0.2	0.1754	0.00346	0.000235
293.15	0.2	0.2179	0.003783	0.000256
293.15	0.2	0.2656	0.004206	0.000284
293.15	0.3	0	0.003172	0.000207
293.15	0.3	0.0539	0.00349	0.000227
293.15	0.3	0.0918	0.003746	0.000243
293.15	0.3	0.1315	0.004056	0.000264
293.15	0.3	0.1739	0.004457	0.00029
293.15	0.3	0.2166	0.00486	0.000317
293.15	0.3	0.262	0.005378	0.000353
298.15	0.1	0	0.001395	0.000106
298.15	0.1	0.0539	0.001559	0.000117
298.15	0.1	0.0917	0.00167	0.000125
298.15	0.1	0.1313	0.001808	0.000133
298.15	0.1	0.1732	0.00198	0.000146
298.15	0.1	0.2159	0.002176	0.00016
298.15	0.1	0.2615	0.002409	0.000176
298.15	0.2	0	0.002045	0.000137
298.15	0.2	0.0559	0.002256	0.00015
298.15	0.2	0.0938	0.002427	0.000162
298.15	0.2	0.1333	0.002583	0.000173
298.15	0.2	0.1754	0.002849	0.00019
298.15	0.2	0.2179	0.003119	0.000208
298.15	0.2	0.2656	0.003454	0.00023
298.15	0.3	0	0.002555	0.000165
298.15	0.3	0.0539	0.002821	0.000182
298.15	0.3	0.0918	0.003034	0.000195
298.15	0.3	0.1315	0.003283	0.000213
298.15	0.3	0.1739	0.003603	0.000232
298.15	0.3	0.2166	0.003925	0.000253
298.15	0.3	0.262	0.004337	0.000281
303.15	0.1	0	0.001208	8.9e-05
303.15	0.1	0.0539	0.00134	9.7e-05
303.15	0.1	0.0917	0.00144	0.000104
303.15	0.1	0.1313	0.00156	0.000113
303.15	0.1	0.1732	0.001704	0.000122
303.15	0.1	0.2159	0.001872	0.000134
303.15	0.1	0.2615	0.002066	0.000149
303.15	0.2	0	0.00171	0.000113
303.15	0.2	0.0559	0.001883	0.000124
303.15	0.2	0.0938	0.002026	0.000134
303.15	0.2	0.1333	0.002185	0.000144
303.15	0.2	0.1754	0.002374	0.000156
303.15	0.2	0.2179	0.002596	0.000171
303.15	0.2	0.2656	0.002893	0.00019
303.15	0.3	0	0.002105	0.000133
303.15	0.3	0.0539	0.002328	0.000148
303.15	0.3	0.0918	0.002507	0.00016
303.15	0.3	0.1315	0.002708	0.000172
303.15	0.3	0.1739	0.0029	0.000185
303.15	0.3	0.2166	0.003231	0.000206
303.15	0.3	0.262	0.00357	0.000227

System: water + propan-1-ol; phases: Liquid
Fixed: Pressure, kPa = 100
Property: Mass density, kg/m3 (Liquid); method: Vibrating tube method
Temperature, K	Mass fraction of propan-1-ol	Mass density, kg/m3	uncertainty
288.15	0.1	985.245	1.437
288.15	0.2	971.452	1.601
288.15	0.3	954.251	1.885
288.15	0.4	934.617	2.005
293.15	0.1	983.869	1.533
293.15	0.2	969.02	1.698
293.15	0.3	950.883	1.931
293.15	0.4	931.255	2.007
298.15	0.1	982.336	1.637
298.15	0.2	966.338	1.762
298.15	0.3	948.039	1.968
298.15	0.4	927.818	2.062
303.15	0.1	980.428	1.724
303.15	0.2	963.667	1.81
303.15	0.3	945.132	2.005
303.15	0.4	924.386	2.114

System: water + propan-1-ol; phases: Liquid
Fixed: Pressure, kPa = 100
Property: Viscosity, Pa*s (Liquid); method: Falling or rolling sphere viscometry
Temperature, K	Mass fraction of propan-1-ol	Viscosity, Pa*s	uncertainty
288.15	0.1	0.00182	0.000142
288.15	0.2	0.002723	0.000179
288.15	0.3	0.003208	0.000198
288.15	0.4	0.003575	0.000219
293.15	0.1	0.001545	0.000115
293.15	0.2	0.002232	0.000145
293.15	0.3	0.002618	0.000162
293.15	0.4	0.00292	0.00018
298.15	0.1	0.001333	9.5e-05
298.15	0.2	0.001852	0.00012
298.15	0.3	0.002174	0.000135
298.15	0.4	0.002436	0.00015
303.15	0.1	0.001156	8.1e-05
303.15	0.2	0.001567	0.000101
303.15	0.3	0.001841	0.000114
303.15	0.4	0.002056	0.000126

System: water + propan-1-ol; phases: Liquid
Fixed: Pressure, kPa = 100
Fixed: Frequency, MHz = 3
Property: Speed of sound, m/s (Liquid); method: Single path-length method
Temperature, K	Mass fraction of propan-1-ol	Speed of sound, m/s	uncertainty
288.15	0.1	1564.36	3.06
288.15	0.2	1587.41	2.54
288.15	0.3	1533.46	5.47
288.15	0.4	1485.74	5.18
293.15	0.1	1570.14	2.34
293.15	0.2	1581.59	2.97
293.15	0.3	1526.46	5.6
293.15	0.4	1477.19	5.34
298.15	0.1	1574.31	2.02
298.15	0.2	1575.5	3.4
298.15	0.3	1519.61	5.74
298.15	0.4	1467.96	5.55
303.15	0.1	1577.41	2.16
303.15	0.2	1569.54	3.81
303.15	0.3	1512.62	5.9
303.15	0.4	1458.62	5.76

System: water + propan-2-ol; phases: Liquid
Fixed: Pressure, kPa = 100
Property: Mass density, kg/m3 (Liquid); method: Vibrating tube method
Temperature, K	Mass fraction of propan-2-ol	Mass density, kg/m3	uncertainty
288.15	0.1	983.401	1.24
288.15	0.2	971.675	1.494
288.15	0.3	954.62	1.753
293.15	0.1	982.158	1.334
293.15	0.2	969.345	1.576
293.15	0.3	951.686	1.833
298.15	0.1	980.642	1.437
298.15	0.2	966.771	1.676
298.15	0.3	948.106	1.89
303.15	0.1	978.882	1.522
303.15	0.2	964.199	1.736
303.15	0.3	945.121	1.95

System: water + propan-2-ol; phases: Liquid
Fixed: Pressure, kPa = 100
Fixed: Frequency, MHz = 3
Property: Speed of sound, m/s (Liquid); method: Single path-length method
Temperature, K	Mass fraction of propan-2-ol	Speed of sound, m/s	uncertainty
288.15	0.1	1573.71	6.79
288.15	0.2	1638.6	2.13
288.15	0.3	1586.87	5.55
293.15	0.1	1578.94	5.47
293.15	0.2	1629.42	2.03
293.15	0.3	1574.71	5.82
298.15	0.1	1582.94	4.27
298.15	0.2	1620.23	2.26
298.15	0.3	1562.8	6.13
303.15	0.1	1585.73	3.23
303.15	0.2	1611	2.71
303.15	0.3	1549.6	6.46

System: water + propan-2-ol; phases: Liquid
Fixed: Pressure, kPa = 100
Property: Viscosity, Pa*s (Liquid); method: Falling or rolling sphere viscometry
Temperature, K	Mass fraction of propan-2-ol	Viscosity, Pa*s	uncertainty
288.15	0.1	0.001936	0.000164
288.15	0.2	0.003087	0.000214
288.15	0.3	0.004014	0.00026
293.15	0.1	0.001633	0.000129
293.15	0.2	0.002485	0.000169
293.15	0.3	0.003172	0.000206
298.15	0.1	0.001395	0.000105
298.15	0.2	0.002045	0.000137
298.15	0.3	0.002555	0.000164
303.15	0.1	0.001208	8.9e-05
303.15	0.2	0.00171	0.000113
303.15	0.3	0.002105	0.000133
