Measured thermophysical data. Benchmark thermodynamic properties of alkanediamines: Experimental and theoretical study
Source: J. Chem. Thermodyn., 2015, 10.1016/j.jct.2015.03.011
Compound 1: 1,2-propanediamine, C3H10N2, InChI=1S/C3H10N2/c1-3(5)2-4/h3H,2,4-5H2,1H3, purity 99%
Compound 2: 2-methyl-1,2-propanediamine, C4H12N2, InChI=1S/C4H12N2/c1-4(2,6)3-5/h3,5-6H2,1-2H3, purity 97%

System: 1,2-propanediamine; phases: Liquid, Gas
Property: Vapor or sublimation pressure, kPa (Liquid); method: Transpiration method
Temperature, K	Vapor or sublimation pressure, kPa	uncertainty
273.8	0.2726	0.0172
274.9	0.2967	0.0188
276.6	0.3411	0.0213
277	0.3482	0.0216
279.1	0.4011	0.0252
279.7	0.4205	0.0263
281.3	0.4594	0.029
282.7	0.5281	0.0332
283.2	0.5245	0.0321
285.3	0.6214	0.0384
285.7	0.6306	0.0389
287.3	0.72	0.0454
288.7	0.7897	0.0498
289.2	0.8316	0.0524
291.2	0.9464	0.0589
291.7	0.9537	0.0601
293.1	1.0694	0.0674
294.7	1.1866	0.0743
295.2	1.2339	0.0769
297.1	1.3568	0.0844
297.6	1.4218	0.0894
299.1	1.559	0.0976
299.6	1.629	0.1029
301.2	1.8201	0.1134
301.7	1.8402	0.1158
303.2	2.0745	0.13
303.7	2.099	0.1307
305.7	2.3542	0.1465

System: 2-methyl-1,2-propanediamine; phases: Liquid, Gas
Property: Vapor or sublimation pressure, kPa (Liquid); method: Transpiration method
Temperature, K	Vapor or sublimation pressure, kPa	uncertainty
276	0.2878	0.0184
276.6	0.3031	0.0192
277.6	0.3267	0.0208
278.1	0.3442	0.0216
279.3	0.3687	0.0231
280.6	0.405	0.0256
282.4	0.4569	0.0287
282.4	0.4785	0.0302
283.2	0.492	0.0309
284.5	0.5301	0.0332
284.5	0.548	0.0342
286	0.5853	0.0371
288.4	0.7053	0.0444
290.4	0.7971	0.0501
292.5	0.9233	0.058
294.3	1.0517	0.0657
295.9	1.1437	0.072
297.2	1.2991	0.0815
299	1.4218	0.0889
300.3	1.5749	0.099
302	1.7522	0.1094
304.6	2.037	0.1271
306.1	2.2468	0.1404
307.6	2.4513	0.1528
308.7	2.6196	0.1633
