Measured thermophysical data. Thermodynamics of Cr2O3, FeCr2O4, ZnCr2O4, and CoCr2O4
Source: J. Chem. Thermodyn., 2007, 10.1016/j.jct.2007.03.001
Compound 1: chromic oxide, Cr2O3, InChI=1S/2Cr.3O/q2*+3;3*-2
Compound 2: iron(II) chromium(III) tetraoxide, Cr2FeO4, InChI=1S/2Cr.Fe.4O/q2*+3;+2;4*-2
Compound 3: zinc(II) chromium(III) oxide, Cr2O4Zn, InChI=1S/2Cr.4O.Zn/q2*+3;4*-2;+2
Compound 4: dichromium(III) cobalt(II) oxide, CoCr2O4, InChI=1S/Co.2Cr.4O/q+2;2*+3;4*-2

System: chromic oxide; phases: Crystal
Fixed: Pressure, kPa = 101.325
Property: Molar heat capacity at constant pressure, J/K/mol (Crystal); method: Large sample (1 g) DSC
Temperature, K	Molar heat capacity at constant pressure, J/K/mol	uncertainty
400	109.085	2.182
410	109.615	2.192
420	110.119	2.202
430	110.6	2.212
440	111.059	2.221
450	111.497	2.23
460	111.916	2.238
470	112.318	2.246
480	112.702	2.254
490	113.072	2.261
500	113.426	2.269
510	113.767	2.275
520	114.095	2.282
530	114.41	2.288
540	114.714	2.294
550	115.008	2.3
560	115.291	2.306
570	115.564	2.311
580	115.828	2.317
590	116.083	2.322
600	116.33	2.327
610	116.569	2.331
620	116.8	2.336
630	117.025	2.341
640	117.242	2.345
650	117.453	2.349
660	117.658	2.353
670	117.857	2.357
680	118.05	2.361
690	118.238	2.365
700	118.42	2.368
710	118.598	2.372
720	118.77	2.375
730	118.938	2.379
740	119.102	2.382
750	119.262	2.385
760	119.417	2.388
770	119.568	2.391
780	119.716	2.394
790	119.86	2.397
800	120.001	2.4
810	120.138	2.403
820	120.272	2.405
830	120.403	2.408
840	120.531	2.411
850	120.656	2.413
860	120.778	2.416
870	120.897	2.418
880	121.014	2.42
890	121.128	2.423
900	121.24	2.425
910	121.349	2.427
920	121.456	2.429
930	121.561	2.431
940	121.664	2.433
950	121.764	2.435
960	121.863	2.437
970	121.96	2.439
980	122.054	2.441
990	122.147	2.443
1000	122.238	2.445
1010	122.327	2.447
1020	122.415	2.448
1030	122.501	2.45
1040	122.585	2.452
1050	122.668	2.453
1060	122.75	2.455
1070	122.829	2.457
1080	122.908	2.458
1090	122.985	2.46
1100	123.061	2.461
1110	123.135	2.463
1120	123.208	2.464
1130	123.28	2.466
1140	123.351	2.467
1150	123.42	2.468
1160	123.489	2.47
1170	123.556	2.471
1180	123.622	2.472
1190	123.687	2.474
1200	123.751	2.475
1210	123.814	2.476
1220	123.876	2.478
1230	123.937	2.479
1240	123.998	2.48
1250	124.057	2.481
1260	124.115	2.482
1270	124.173	2.483
1280	124.229	2.485
1290	124.285	2.486
1300	124.34	2.487
1310	124.395	2.488
1320	124.448	2.489
1330	124.501	2.49
1340	124.553	2.491
1350	124.604	2.492
1360	124.655	2.493
1370	124.705	2.494

System: iron(II) chromium(III) tetraoxide; phases: Crystal
Fixed: Pressure, kPa = 101.325
Property: Molar heat capacity at constant pressure, J/K/mol (Crystal); method: Large sample (1 g) DSC
Temperature, K	Molar heat capacity at constant pressure, J/K/mol	uncertainty
200	143.708	2.874
210	144.721	2.894
220	145.655	2.913
230	146.521	2.93
240	147.331	2.947
250	148.09	2.962
260	148.805	2.976
270	149.483	2.99
280	150.126	3.003
290	150.74	3.015
300	151.326	3.027
310	151.889	3.038
320	152.429	3.049
330	152.95	3.059
340	153.453	3.069
350	153.94	3.079
360	154.411	3.088
370	154.869	3.097
380	155.313	3.106
390	155.746	3.115
400	156.168	3.123
410	156.579	3.132
420	156.981	3.14
430	157.373	3.147
440	157.757	3.155
450	158.133	3.163
460	158.502	3.17
470	158.863	3.177
480	159.217	3.184
490	159.565	3.191
500	159.907	3.198
510	160.243	3.205
520	160.573	3.211
530	160.898	3.218
540	161.217	3.224
550	161.532	3.231
560	161.842	3.237
570	162.147	3.243
580	162.448	3.249
590	162.744	3.255
600	163.037	3.261
610	163.325	3.267
620	163.61	3.272
630	163.89	3.278
640	164.167	3.283
650	164.441	3.289
660	164.71	3.294
670	164.977	3.3
680	165.24	3.305
690	165.5	3.31
700	165.757	3.315
710	166.01	3.32
720	166.261	3.325
730	166.508	3.33
740	166.753	3.335
750	166.995	3.34
760	167.234	3.345
770	167.47	3.349
780	167.704	3.354
790	167.935	3.359
800	168.163	3.363
810	168.389	3.368
820	168.612	3.372
830	168.833	3.377
840	169.051	3.381
850	169.266	3.385
860	169.48	3.39
870	169.691	3.394
880	169.899	3.398
890	170.105	3.402
900	170.309	3.406
910	170.511	3.41
920	170.71	3.414
930	170.908	3.418
940	171.103	3.422
950	171.296	3.426
960	171.486	3.43
970	171.675	3.434
980	171.861	3.437
990	172.045	3.441
1000	172.228	3.445
1010	172.408	3.448
1020	172.586	3.452
1030	172.762	3.455
1040	172.936	3.459
1050	173.108	3.462
1060	173.278	3.466
1070	173.446	3.469
1080	173.612	3.472
1090	173.776	3.476
1100	173.938	3.479
1110	174.098	3.482
1120	174.257	3.485
1130	174.413	3.488
1140	174.568	3.491
1150	174.72	3.494
1160	174.871	3.497
1170	175.02	3.5
1180	175.167	3.503
1190	175.312	3.506
1200	175.455	3.509
1210	175.596	3.512
1220	175.736	3.515
1230	175.874	3.517
1240	176.01	3.52
1250	176.144	3.523
1260	176.276	3.526
1270	176.407	3.528
1280	176.536	3.531
1290	176.662	3.533
1300	176.788	3.536
1310	176.911	3.538
1320	177.033	3.541
1330	177.153	3.543
1340	177.271	3.545
1350	177.387	3.548
1360	177.502	3.55
1370	177.615	3.552
1380	177.726	3.555
1390	177.836	3.557
1400	177.943	3.559
1410	178.049	3.561
1420	178.154	3.563
1430	178.256	3.565
1440	178.357	3.567
1450	178.457	3.569
1460	178.554	3.571
1470	178.65	3.573

System: zinc(II) chromium(III) oxide; phases: Crystal
Fixed: Pressure, kPa = 101.325
Property: Molar heat capacity at constant pressure, J/K/mol (Crystal); method: Large sample (1 g) DSC
Temperature, K	Molar heat capacity at constant pressure, J/K/mol	uncertainty
250	115.474	2.309
260	119.225	2.385
270	122.551	2.451
280	125.517	2.51
290	128.176	2.564
300	130.572	2.611
310	132.74	2.655
320	134.712	2.694
330	136.513	2.73
340	138.165	2.763
350	139.688	2.794
360	141.096	2.822
370	142.403	2.848
380	143.621	2.872
390	144.761	2.895
400	145.831	2.917
410	146.839	2.937
420	147.791	2.956
430	148.693	2.974
440	149.551	2.991
450	150.368	3.007
460	151.15	3.023
470	151.899	3.038
480	152.618	3.052
490	153.311	3.066
500	153.979	3.08
510	154.625	3.093
520	155.252	3.105
530	155.859	3.117
540	156.45	3.129
550	157.025	3.141
560	157.587	3.152
570	158.135	3.163
580	158.67	3.173
590	159.195	3.184
600	159.709	3.194
610	160.214	3.204
620	160.71	3.214
630	161.197	3.224
640	161.677	3.234
650	162.149	3.243
660	162.614	3.252
670	163.073	3.261
680	163.526	3.271
690	163.972	3.279
700	164.414	3.288
710	164.85	3.297
720	165.281	3.306
730	165.708	3.314
740	166.13	3.323
750	166.547	3.331
760	166.961	3.339
770	167.37	3.347
780	167.776	3.356
790	168.178	3.364
800	168.576	3.372
810	168.97	3.379
820	169.362	3.387
830	169.749	3.395
840	170.134	3.403
850	170.515	3.41
860	170.893	3.418
870	171.269	3.425
880	171.641	3.433
890	172.01	3.44
900	172.376	3.448
910	172.739	3.455
920	173.099	3.462
930	173.457	3.469
940	173.811	3.476
950	174.163	3.483
960	174.512	3.49
970	174.859	3.497
980	175.202	3.504
990	175.543	3.511
1000	175.881	3.518
1010	176.216	3.524
1020	176.549	3.531
1030	176.879	3.538
1040	177.206	3.544
1050	177.53	3.551
1060	177.852	3.557
1070	178.171	3.563
1080	178.487	3.57
1090	178.801	3.576
1100	179.112	3.582
1110	179.42	3.588
1120	179.726	3.595
1130	180.028	3.601
1140	180.328	3.607
1150	180.626	3.613
1160	180.92	3.618
1170	181.212	3.624
1180	181.501	3.63
1190	181.787	3.636
1200	182.071	3.641
1210	182.352	3.647
1220	182.629	3.653
1230	182.905	3.658
1240	183.177	3.664
1250	183.446	3.669
1260	183.713	3.674
1270	183.977	3.68
1280	184.238	3.685
1290	184.496	3.69
1300	184.752	3.695
1310	185.004	3.7
1320	185.254	3.705
1330	185.5	3.71
1340	185.744	3.715
1350	185.985	3.72
1360	186.223	3.724
1370	186.458	3.729
1380	186.69	3.734
1390	186.919	3.738
1400	187.145	3.743
1410	187.369	3.747
1420	187.589	3.752
1430	187.806	3.756
1440	188.021	3.76
1450	188.232	3.765
1460	188.44	3.769
1470	188.645	3.773
1480	188.848	3.777
1490	189.047	3.781
1500	189.243	3.785
1510	189.436	3.789
1520	189.626	3.793
1530	189.813	3.796
1540	189.997	3.8
1550	190.178	3.804
1560	190.356	3.807
1570	190.53	3.811
1580	190.702	3.814
1590	190.87	3.817
1600	191.035	3.821
1610	191.198	3.824
1620	191.357	3.827
1630	191.512	3.83
1640	191.665	3.833
1650	191.815	3.836
1660	191.961	3.839

System: dichromium(III) cobalt(II) oxide; phases: Crystal
Fixed: Pressure, kPa = 101.325
Property: Molar heat capacity at constant pressure, J/K/mol (Crystal); method: Large sample (1 g) DSC
Temperature, K	Molar heat capacity at constant pressure, J/K/mol	uncertainty
250	113.82	2.276
260	117.517	2.35
270	120.841	2.417
280	123.842	2.477
290	126.563	2.531
300	129.04	2.581
310	131.303	2.626
320	133.378	2.668
330	135.286	2.706
340	137.046	2.741
350	138.675	2.774
360	140.187	2.804
370	141.593	2.832
380	142.903	2.858
390	144.129	2.883
400	145.276	2.906
410	146.354	2.927
420	147.367	2.947
430	148.322	2.966
440	149.224	2.984
450	150.077	3.002
460	150.885	3.018
470	151.651	3.033
480	152.38	3.048
490	153.073	3.061
500	153.734	3.075
510	154.365	3.087
520	154.968	3.099
530	155.544	3.111
540	156.097	3.122
550	156.627	3.133
560	157.136	3.143
570	157.625	3.153
580	158.095	3.162
590	158.548	3.171
600	158.985	3.18
610	159.407	3.188
620	159.814	3.196
630	160.208	3.204
640	160.589	3.212
650	160.958	3.219
660	161.315	3.226
670	161.662	3.233
680	161.998	3.24
690	162.325	3.247
700	162.642	3.253
710	162.951	3.259
720	163.251	3.265
730	163.543	3.271
740	163.828	3.277
750	164.106	3.282
760	164.377	3.288
770	164.641	3.293
780	164.899	3.298
790	165.151	3.303
800	165.397	3.308
810	165.638	3.313
820	165.874	3.317
830	166.104	3.322
840	166.33	3.327
850	166.551	3.331
860	166.768	3.335
870	166.98	3.34
880	167.188	3.344
890	167.392	3.348
900	167.593	3.352
910	167.789	3.356
920	167.983	3.36
930	168.172	3.363
940	168.359	3.367
950	168.542	3.371
960	168.722	3.374
970	168.899	3.378
980	169.074	3.381
990	169.245	3.385
1000	169.414	3.388
1010	169.58	3.392
1020	169.744	3.395
1030	169.905	3.398
1040	170.064	3.401
1050	170.22	3.404
1060	170.374	3.407
1070	170.526	3.411
1080	170.676	3.414
1090	170.824	3.416
1100	170.97	3.419
1110	171.114	3.422
1120	171.256	3.425
1130	171.396	3.428
1140	171.534	3.431
1150	171.671	3.433
1160	171.806	3.436
1170	171.939	3.439
1180	172.07	3.441
1190	172.2	3.444
1200	172.329	3.447
1210	172.455	3.449
1220	172.581	3.452
1230	172.705	3.454
1240	172.827	3.457
1250	172.948	3.459
1260	173.068	3.461
1270	173.187	3.464
1280	173.304	3.466
1290	173.419	3.468
1300	173.534	3.471
1310	173.647	3.473
1320	173.76	3.475
1330	173.871	3.477
1340	173.98	3.48
1350	174.089	3.482
1360	174.197	3.484
1370	174.303	3.486
