Measured thermophysical data. Thermodynamic properties of (tetradecane + benzene, + toluene, + chlorobenzene, + bromobenzene, + anisole) binary mixtures at T = (298.15, 303.15, and 308.15) K
Source: J. Chem. Thermodyn., 2006, 10.1016/j.jct.2005.10.022
Compound 1: ethanol, C2H6O, InChI=1S/C2H6O/c1-2-3/h3H,2H2,1H3, purity 99.9%
Compound 2: propan-1-ol, C3H8O, InChI=1S/C3H8O/c1-2-3-4/h4H,2-3H2,1H3, purity 99.5%
Compound 3: propan-2-ol, C3H8O, InChI=1S/C3H8O/c1-3(2)4/h3-4H,1-2H3, purity 99.5%
Compound 4: butan-1-ol, C4H10O, InChI=1S/C4H10O/c1-2-3-4-5/h5H,2-4H2,1H3, purity 99%
Compound 5: pentan-1-ol, C5H12O, InChI=1S/C5H12O/c1-2-3-4-5-6/h6H,2-5H2,1H3, purity 99%
Compound 6: 3-methylbutan-1-ol, C5H12O, InChI=1S/C5H12O/c1-5(2)3-4-6/h5-6H,3-4H2,1-2H3, purity 99%
Compound 7: 1,3,5-trimethylbenzene, C9H12, InChI=1S/C9H12/c1-7-4-8(2)6-9(3)5-7/h4-6H,1-3H3, purity 99%

System: ethanol; phases: Liquid
Fixed: Pressure, kPa = 101.325
Property: Refractive index (Na D-line) (Liquid); method: Standard Abbe refractometry
Temperature, K	Refractive index (Na D-line)	uncertainty
298.15	1.3591	0.0003
303.15	1.3572	0.0003
308.15	1.355	0.0003

System: ethanol; phases: Liquid
Fixed: Pressure, kPa = 203
Property: Viscosity, Pa*s (Liquid); method: Schott-Gerate viscometer model AVS 350
Temperature, K	Viscosity, Pa*s	uncertainty
298.15	0.001073	1e-06
303.15	0.000971	1e-06
308.15	0.000889	1e-06

System: ethanol; phases: Liquid
Fixed: Pressure, kPa = 101
Property: Mass density, kg/m3 (Liquid); method: Vibrating tube method
Temperature, K	Mass density, kg/m3	uncertainty
298.15	785.91	0.12
303.15	781.6	0.12
308.15	777.26	0.12

System: propan-1-ol; phases: Liquid
Fixed: Pressure, kPa = 101.325
Property: Refractive index (Na D-line) (Liquid); method: Standard Abbe refractometry
Temperature, K	Refractive index (Na D-line)	uncertainty
298.15	1.3826	0.0003
303.15	1.3808	0.0003
308.15	1.3782	0.0003

System: propan-1-ol; phases: Liquid
Fixed: Pressure, kPa = 203
Property: Viscosity, Pa*s (Liquid); method: Schott-Gerate viscometer model AVS 350
Temperature, K	Viscosity, Pa*s	uncertainty
298.15	0.001792	5e-06
303.15	0.001706	4e-06
308.15	0.001518	4e-06

System: propan-1-ol; phases: Liquid
Fixed: Pressure, kPa = 101
Property: Mass density, kg/m3 (Liquid); method: Vibrating tube method
Temperature, K	Mass density, kg/m3	uncertainty
298.15	799.96	0.14
303.15	795.93	0.14
308.15	791.86	0.14

System: propan-2-ol; phases: Liquid
Fixed: Pressure, kPa = 101.325
Property: Refractive index (Na D-line) (Liquid); method: Standard Abbe refractometry
Temperature, K	Refractive index (Na D-line)	uncertainty
298.15	1.3745	0.0003
303.15	1.3721	0.0003
308.15	1.3702	0.0003

System: propan-2-ol; phases: Liquid
Fixed: Pressure, kPa = 203
Property: Viscosity, Pa*s (Liquid); method: Schott-Gerate viscometer model AVS 350
Temperature, K	Viscosity, Pa*s	uncertainty
298.15	0.002042	5e-06
303.15	0.001755	4e-06
308.15	0.001521	4e-06

System: propan-2-ol; phases: Liquid
Fixed: Pressure, kPa = 101
Property: Mass density, kg/m3 (Liquid); method: Vibrating tube method
Temperature, K	Mass density, kg/m3	uncertainty
298.15	781.36	0.15
303.15	777.09	0.15
308.15	772.75	0.15

System: butan-1-ol; phases: Liquid
Fixed: Pressure, kPa = 101.325
Property: Refractive index (Na D-line) (Liquid); method: Standard Abbe refractometry
Temperature, K	Refractive index (Na D-line)	uncertainty
298.15	1.3968	0.0004
303.15	1.3944	0.0004
308.15	1.3923	0.0004

System: butan-1-ol; phases: Liquid
Fixed: Pressure, kPa = 203
Property: Viscosity, Pa*s (Liquid); method: Schott-Gerate viscometer model AVS 350
Temperature, K	Viscosity, Pa*s	uncertainty
298.15	0.002585	1.3e-05
303.15	0.002284	1.1e-05
308.15	0.001981	1e-05

System: butan-1-ol; phases: Liquid
Fixed: Pressure, kPa = 101
Property: Mass density, kg/m3 (Liquid); method: Vibrating tube method
Temperature, K	Mass density, kg/m3	uncertainty
298.15	806.12	0.24
303.15	802.28	0.24
308.15	798.41	0.24

System: pentan-1-ol; phases: Liquid
Fixed: Pressure, kPa = 101.325
Property: Refractive index (Na D-line) (Liquid); method: Standard Abbe refractometry
Temperature, K	Refractive index (Na D-line)	uncertainty
298.15	1.4073	0.0004
303.15	1.405	0.0004
308.15	1.4032	0.0004

System: pentan-1-ol; phases: Liquid
Fixed: Pressure, kPa = 203
Property: Viscosity, Pa*s (Liquid); method: Schott-Gerate viscometer model AVS 350
Temperature, K	Viscosity, Pa*s	uncertainty
298.15	0.003403	1.7e-05
303.15	0.002959	1.5e-05
308.15	0.002581	1.3e-05

System: pentan-1-ol; phases: Liquid
Fixed: Pressure, kPa = 101
Property: Mass density, kg/m3 (Liquid); method: Vibrating tube method
Temperature, K	Mass density, kg/m3	uncertainty
298.15	810.92	0.24
303.15	807.23	0.24
308.15	803.52	0.24

System: 3-methylbutan-1-ol; phases: Liquid
Fixed: Pressure, kPa = 101.325
Property: Refractive index (Na D-line) (Liquid); method: Standard Abbe refractometry
Temperature, K	Refractive index (Na D-line)	uncertainty
298.15	1.405	0.0004
303.15	1.403	0.0004
308.15	1.401	0.0004

System: 3-methylbutan-1-ol; phases: Liquid
Fixed: Pressure, kPa = 203
Property: Viscosity, Pa*s (Liquid); method: Schott-Gerate viscometer model AVS 350
Temperature, K	Viscosity, Pa*s	uncertainty
298.15	0.003835	1.9e-05
303.15	0.003261	1.6e-05
308.15	0.00279	1.4e-05

System: 3-methylbutan-1-ol; phases: Liquid
Fixed: Pressure, kPa = 101
Property: Mass density, kg/m3 (Liquid); method: Vibrating tube method
Temperature, K	Mass density, kg/m3	uncertainty
298.15	807.2	0.24
303.15	803.45	0.24
308.15	799.67	0.24

System: 1,3,5-trimethylbenzene; phases: Liquid
Fixed: Pressure, kPa = 101.325
Property: Refractive index (Na D-line) (Liquid); method: Standard Abbe refractometry
Temperature, K	Refractive index (Na D-line)	uncertainty
298.15	1.4958	0.0004
298.15	1.4898	0.0004
303.15	1.4928	0.0004
308.15	1.4898	0.0004

System: 1,3,5-trimethylbenzene; phases: Liquid
Fixed: Pressure, kPa = 203
Property: Viscosity, Pa*s (Liquid); method: Schott-Gerate viscometer model AVS 350
Temperature, K	Viscosity, Pa*s	uncertainty
298.15	0.000641	3e-06
303.15	0.000601	3e-06
308.15	0.000566	3e-06

System: 1,3,5-trimethylbenzene; phases: Liquid
Fixed: Pressure, kPa = 101
Property: Mass density, kg/m3 (Liquid); method: Vibrating tube method
Temperature, K	Mass density, kg/m3	uncertainty
298.15	860.5	0.23
303.15	856.4	0.23
308.15	852.29	0.23

System: ethanol + 1,3,5-trimethylbenzene; phases: Liquid
Fixed: Pressure, kPa = 203
Property: Viscosity, Pa*s (Liquid); method: Schott-Gerate viscometer model AVS 350
Temperature, K	Mole fraction of 1,3,5-trimethylbenzene	Viscosity, Pa*s	uncertainty
298.15	0	0.001073	1e-06
298.15	0.0997	0.000969	1e-06
298.15	0.2017	0.000923	1e-06
298.15	0.3005	0.000883	2e-06
298.15	0.397	0.000816	2e-06
298.15	0.4955	0.000763	2e-06
298.15	0.5978	0.000721	2e-06
298.15	0.6988	0.000684	3e-06
298.15	0.7964	0.000649	3e-06
298.15	0.8542	0.000645	3e-06
298.15	1	0.000641	3e-06
303.15	0	0.000971	1e-06
303.15	0.0997	0.000882	1e-06
303.15	0.2017	0.000807	1e-06
303.15	0.3005	0.000752	2e-06
303.15	0.397	0.000704	2e-06
303.15	0.4955	0.000665	2e-06
303.15	0.5978	0.000643	2e-06
303.15	0.6988	0.000633	2e-06
303.15	0.7964	0.000628	3e-06
303.15	0.8542	0.000613	3e-06
303.15	1	0.000601	3e-06
308.15	0	0.000889	1e-06
308.15	0.0997	0.000809	1e-06
308.15	0.2017	0.000746	1e-06
308.15	0.3005	0.000691	1e-06
308.15	0.397	0.000656	2e-06
308.15	0.4955	0.000639	2e-06
308.15	0.5978	0.000619	2e-06
308.15	0.6988	0.000594	2e-06
308.15	0.7964	0.000579	2e-06
308.15	0.8542	0.000568	3e-06
308.15	1	0.000566	3e-06

System: ethanol + 1,3,5-trimethylbenzene; phases: Liquid
Fixed: Pressure, kPa = 101
Property: Refractive index (Na D-line) (Liquid); method: Standard Abbe refractometry
Temperature, K	Mole fraction of 1,3,5-trimethylbenzene	Refractive index (Na D-line)	uncertainty
298.15	0	1.3591	0.0003
298.15	0.0997	1.3873	0.0003
298.15	0.2017	1.4108	0.0003
298.15	0.3005	1.4282	0.0003
298.15	0.397	1.4454	0.0003
298.15	0.4955	1.455	0.0003
298.15	0.5978	1.4656	0.0003
298.15	0.6988	1.4752	0.0003
298.15	0.7964	1.4836	0.0004
298.15	0.8542	1.4866	0.0004
298.15	1	1.4958	0.0004
303.15	0	1.3572	0.0003
303.15	0.0997	1.3848	0.0003
303.15	0.2017	1.4079	0.0003
303.15	0.3005	1.4255	0.0003
303.15	0.397	1.4419	0.0003
303.15	0.4955	1.4525	0.0003
303.15	0.5978	1.4624	0.0003
303.15	0.6988	1.4728	0.0003
303.15	0.7964	1.4806	0.0004
303.15	0.8542	1.4848	0.0004
303.15	1	1.4928	0.0004
308.15	0	1.355	0.0003
308.15	0.0997	1.3822	0.0003
308.15	0.2017	1.4057	0.0003
308.15	0.3005	1.4228	0.0003
308.15	0.397	1.4386	0.0003
308.15	0.4955	1.4498	0.0003
308.15	0.5978	1.4599	0.0003
308.15	0.6988	1.4709	0.0003
308.15	0.7964	1.4796	0.0004
308.15	0.8542	1.4821	0.0004
308.15	1	1.4898	0.0004

System: ethanol + 1,3,5-trimethylbenzene; phases: Liquid
Fixed: Pressure, kPa = 101
Property: Mass density, kg/m3 (Liquid); method: Vibrating tube method
Temperature, K	Mole fraction of 1,3,5-trimethylbenzene	Mass density, kg/m3	uncertainty
298.15	0	785.91	0.12
298.15	0.0997	801.27	0.11
298.15	0.2017	813.24	0.12
298.15	0.3005	822.7	0.12
298.15	0.397	830.47	0.13
298.15	0.4955	837.17	0.14
298.15	0.5978	842.97	0.15
298.15	0.6988	848.01	0.17
298.15	0.7964	852.32	0.18
298.15	0.8542	854.82	0.2
298.15	1	860.5	0.23
303.15	0	781.6	0.12
303.15	0.0997	796.93	0.12
303.15	0.2017	808.87	0.12
303.15	0.3005	818.32	0.12
303.15	0.397	826.1	0.13
303.15	0.4955	832.82	0.14
303.15	0.5978	838.63	0.15
303.15	0.6988	843.71	0.17
303.15	0.7964	847.85	0.19
303.15	0.8542	850.61	0.2
303.15	1	856.4	0.23
308.15	0	777.26	0.12
308.15	0.0997	792.53	0.12
308.15	0.2017	804.47	0.12
308.15	0.3005	813.92	0.12
308.15	0.397	821.69	0.13
308.15	0.4955	828.44	0.14
308.15	0.5978	834.29	0.15
308.15	0.6988	839.41	0.17
308.15	0.7964	843.78	0.19
308.15	0.8542	846.4	0.2
308.15	1	852.29	0.23

System: propan-1-ol + 1,3,5-trimethylbenzene; phases: Liquid
Fixed: Pressure, kPa = 203
Property: Viscosity, Pa*s (Liquid); method: Schott-Gerate viscometer model AVS 350
Temperature, K	Mole fraction of 1,3,5-trimethylbenzene	Viscosity, Pa*s	uncertainty
298.15	0	0.001792	5e-06
298.15	0.1037	0.001522	4e-06
298.15	0.2027	0.001303	4e-06
298.15	0.3015	0.001079	4e-06
298.15	0.404	0.000949	3e-06
298.15	0.5037	0.000832	3e-06
298.15	0.5984	0.000774	3e-06
298.15	0.7014	0.000716	3e-06
298.15	0.7976	0.000658	3e-06
298.15	0.9065	0.000646	3e-06
298.15	1	0.000641	3e-06
303.15	0	0.001706	4e-06
303.15	0.1037	0.001382	4e-06
303.15	0.2027	0.001167	4e-06
303.15	0.3015	0.000971	3e-06
303.15	0.404	0.000867	3e-06
303.15	0.5037	0.000762	3e-06
303.15	0.5984	0.000716	3e-06
303.15	0.7014	0.000671	3e-06
303.15	0.7976	0.000634	3e-06
303.15	0.9065	0.000625	3e-06
303.15	1	0.000601	3e-06
308.15	0	0.001518	4e-06
308.15	0.1037	0.001241	3e-06
308.15	0.2027	0.001056	3e-06
308.15	0.3015	0.000883	3e-06
308.15	0.404	0.000791	3e-06
308.15	0.5037	0.000709	3e-06
308.15	0.5984	0.000662	3e-06
308.15	0.7014	0.000635	3e-06
308.15	0.7976	0.000615	3e-06
308.15	0.9065	0.000569	3e-06
308.15	1	0.000566	3e-06

System: propan-1-ol + 1,3,5-trimethylbenzene; phases: Liquid
Fixed: Pressure, kPa = 101
Property: Refractive index (Na D-line) (Liquid); method: Standard Abbe refractometry
Temperature, K	Mole fraction of 1,3,5-trimethylbenzene	Refractive index (Na D-line)	uncertainty
298.15	0	1.3826	0.0003
298.15	0.1037	1.4019	0.0003
298.15	0.2027	1.418	0.0003
298.15	0.3015	1.4323	0.0003
298.15	0.404	1.4419	0.0003
298.15	0.5037	1.4557	0.0003
298.15	0.5984	1.4643	0.0004
298.15	0.7014	1.4735	0.0004
298.15	0.7976	1.4815	0.0004
298.15	0.9065	1.4893	0.0004
298.15	1	1.4958	0.0004
303.15	0	1.3808	0.0003
303.15	0.1037	1.3996	0.0003
303.15	0.2027	1.4157	0.0003
303.15	0.3015	1.4296	0.0003
303.15	0.404	1.4414	0.0003
303.15	0.5037	1.4535	0.0003
303.15	0.5984	1.4628	0.0004
303.15	0.7014	1.4707	0.0004
303.15	0.7976	1.4783	0.0004
303.15	0.9065	1.4863	0.0004
303.15	1	1.4928	0.0004
308.15	0	1.3782	0.0003
308.15	0.1037	1.3976	0.0003
308.15	0.2027	1.4139	0.0003
308.15	0.3015	1.4282	0.0003
308.15	0.404	1.4386	0.0003
308.15	0.5037	1.4508	0.0003
308.15	0.5984	1.4587	0.0004
308.15	0.7014	1.468	0.0004
308.15	0.7976	1.4771	0.0004
308.15	0.9065	1.4843	0.0004
308.15	1	1.4898	0.0004

System: propan-1-ol + 1,3,5-trimethylbenzene; phases: Liquid
Fixed: Pressure, kPa = 101
Property: Mass density, kg/m3 (Liquid); method: Vibrating tube method
Temperature, K	Mole fraction of 1,3,5-trimethylbenzene	Mass density, kg/m3	uncertainty
298.15	0	799.96	0.14
298.15	0.1037	806.01	0.15
298.15	0.2027	812.06	0.15
298.15	0.3015	818.12	0.16
298.15	0.404	824.17	0.17
298.15	0.5037	830.23	0.17
298.15	0.5984	836.28	0.18
298.15	0.7014	842.34	0.19
298.15	0.7976	848.39	0.21
298.15	0.9065	854.45	0.22
298.15	1	860.5	0.23
303.15	0	795.93	0.14
303.15	0.1037	801.98	0.15
303.15	0.2027	808.02	0.15
303.15	0.3015	814.07	0.16
303.15	0.404	820.12	0.17
303.15	0.5037	826.16	0.18
303.15	0.5984	832.22	0.18
303.15	0.7014	838.26	0.19
303.15	0.7976	844.31	0.21
303.15	0.9065	850.35	0.22
303.15	1	856.4	0.23
308.15	0	791.86	0.14
308.15	0.1037	797.9	0.15
308.15	0.2027	803.95	0.15
308.15	0.3015	809.98	0.16
308.15	0.404	816.03	0.17
308.15	0.5037	822.07	0.18
308.15	0.5984	828.12	0.18
308.15	0.7014	834.16	0.2
308.15	0.7976	840.2	0.21
308.15	0.9065	846.25	0.22
308.15	1	852.29	0.23

System: propan-2-ol + 1,3,5-trimethylbenzene; phases: Liquid
Fixed: Pressure, kPa = 203
Property: Viscosity, Pa*s (Liquid); method: Schott-Gerate viscometer model AVS 350
Temperature, K	Mole fraction of 1,3,5-trimethylbenzene	Viscosity, Pa*s	uncertainty
298.15	0	0.002042	5e-06
298.15	0.1011	0.001489	4e-06
298.15	0.2005	0.001183	4e-06
298.15	0.3055	0.001	3e-06
298.15	0.4001	0.000882	3e-06
298.15	0.5008	0.0008	3e-06
298.15	0.6035	0.000734	3e-06
298.15	0.6979	0.000689	3e-06
298.15	0.8014	0.000668	3e-06
298.15	0.894	0.000647	3e-06
298.15	1	0.000641	3e-06
303.15	0	0.001755	4e-06
303.15	0.1011	0.001293	4e-06
303.15	0.2005	0.001042	3e-06
303.15	0.3055	0.000894	3e-06
303.15	0.4001	0.000806	3e-06
303.15	0.5008	0.000728	3e-06
303.15	0.6035	0.000674	3e-06
303.15	0.6979	0.000641	3e-06
303.15	0.8014	0.000623	3e-06
303.15	0.894	0.000605	3e-06
303.15	1	0.000601	3e-06
308.15	0	0.001521	4e-06
308.15	0.1011	0.001138	3e-06
308.15	0.2005	0.000933	3e-06
308.15	0.3055	0.000806	3e-06
308.15	0.4001	0.000735	3e-06
308.15	0.5008	0.000681	3e-06
308.15	0.6035	0.000622	3e-06
308.15	0.6979	0.000596	3e-06
308.15	0.8014	0.000587	3e-06
308.15	0.894	0.000577	3e-06
308.15	1	0.000566	3e-06

System: propan-2-ol + 1,3,5-trimethylbenzene; phases: Liquid
Fixed: Pressure, kPa = 101
Property: Refractive index (Na D-line) (Liquid); method: Standard Abbe refractometry
Temperature, K	Mole fraction of 1,3,5-trimethylbenzene	Refractive index (Na D-line)	uncertainty
298.15	0	1.3745	0.0003
298.15	0.1011	1.394	0.0003
298.15	0.2005	1.4115	0.0003
298.15	0.3055	1.4272	0.0003
298.15	0.4001	1.4393	0.0003
298.15	0.5008	1.4483	0.0003
298.15	0.6035	1.4634	0.0004
298.15	0.6979	1.4711	0.0004
298.15	0.8014	1.4813	0.0004
298.15	0.894	1.4879	0.0004
298.15	1	1.4958	0.0004
303.15	0	1.3721	0.0003
303.15	0.1011	1.3919	0.0003
303.15	0.2005	1.4092	0.0003
303.15	0.3055	1.4248	0.0003
303.15	0.4001	1.437	0.0003
303.15	0.5008	1.4465	0.0003
303.15	0.6035	1.4607	0.0004
303.15	0.6979	1.4688	0.0004
303.15	0.8014	1.4779	0.0004
303.15	0.894	1.485	0.0004
303.15	1	1.4928	0.0004
308.15	0	1.3702	0.0003
308.15	0.1011	1.3894	0.0003
308.15	0.2005	1.4064	0.0003
308.15	0.3055	1.4219	0.0003
308.15	0.4001	1.4347	0.0003
308.15	0.5008	1.4458	0.0003
308.15	0.6035	1.4576	0.0004
308.15	0.6979	1.4656	0.0004
308.15	0.8014	1.4756	0.0004
308.15	0.894	1.4824	0.0004
308.15	1	1.4898	0.0004

System: propan-2-ol + 1,3,5-trimethylbenzene; phases: Liquid
Fixed: Pressure, kPa = 101
Property: Mass density, kg/m3 (Liquid); method: Vibrating tube method
Temperature, K	Mole fraction of 1,3,5-trimethylbenzene	Mass density, kg/m3	uncertainty
298.15	0	781.36	0.15
298.15	0.1011	793.81	0.15
298.15	0.2005	804.44	0.15
298.15	0.3055	814.27	0.16
298.15	0.4001	822.26	0.17
298.15	0.5008	829.63	0.17
298.15	0.6035	836.85	0.18
298.15	0.6979	842.79	0.19
298.15	0.8014	848.84	0.21
298.15	0.894	854.1	0.22
298.15	1	860.5	0.23
303.15	0	777.09	0.15
303.15	0.1011	789.43	0.15
303.15	0.2005	800.01	0.16
303.15	0.3055	809.81	0.16
303.15	0.4001	817.79	0.17
303.15	0.5008	825.18	0.18
303.15	0.6035	832.45	0.18
303.15	0.6979	838.43	0.19
303.15	0.8014	844.55	0.21
303.15	0.894	849.87	0.22
303.15	1	856.4	0.23
308.15	0	772.75	0.15
308.15	0.1011	784.98	0.15
308.15	0.2005	795.51	0.16
308.15	0.3055	805.51	0.16
308.15	0.4001	813.28	0.17
308.15	0.5008	820.69	0.18
308.15	0.6035	828.01	0.19
308.15	0.6979	834.04	0.2
308.15	0.8014	840.22	0.21
308.15	0.894	845.62	0.22
308.15	1	852.29	0.23

System: butan-1-ol + 1,3,5-trimethylbenzene; phases: Liquid
Fixed: Pressure, kPa = 203
Property: Viscosity, Pa*s (Liquid); method: Schott-Gerate viscometer model AVS 350
Temperature, K	Mole fraction of 1,3,5-trimethylbenzene	Viscosity, Pa*s	uncertainty
298.15	0	0.002585	1.3e-05
298.15	0.1022	0.001795	9e-06
298.15	0.2397	0.001594	8e-06
298.15	0.2975	0.001292	7e-06
298.15	0.3975	0.001129	6e-06
298.15	0.498	0.000982	5e-06
298.15	0.602	0.00086	4e-06
298.15	0.6964	0.000793	4e-06
298.15	0.7875	0.000753	4e-06
298.15	0.8983	0.000712	4e-06
298.15	1	0.000641	3e-06
303.15	0	0.002284	1.1e-05
303.15	0.1022	0.001605	8e-06
303.15	0.2397	0.001417	7e-06
303.15	0.2975	0.001159	6e-06
303.15	0.3975	0.000999	5e-06
303.15	0.498	0.000883	4e-06
303.15	0.602	0.000785	4e-06
303.15	0.6964	0.000718	4e-06
303.15	0.7875	0.000697	4e-06
303.15	0.8983	0.000676	3e-06
303.15	1	0.000601	3e-06
308.15	0	0.001981	1e-05
308.15	0.1022	0.001432	7e-06
308.15	0.2397	0.001272	6e-06
308.15	0.2975	0.00105	5e-06
308.15	0.3975	0.000913	5e-06
308.15	0.498	0.00081	4e-06
308.15	0.602	0.000729	4e-06
308.15	0.6964	0.000667	3e-06
308.15	0.7875	0.000656	3e-06
308.15	0.8983	0.000645	3e-06
308.15	1	0.000566	3e-06

System: butan-1-ol + 1,3,5-trimethylbenzene; phases: Liquid
Fixed: Pressure, kPa = 101
Property: Refractive index (Na D-line) (Liquid); method: Standard Abbe refractometry
Temperature, K	Mole fraction of 1,3,5-trimethylbenzene	Refractive index (Na D-line)	uncertainty
298.15	0	1.3968	0.0004
298.15	0.1022	1.4104	0.0004
298.15	0.2397	1.4225	0.0004
298.15	0.2975	1.4341	0.0004
298.15	0.3975	1.4448	0.0004
298.15	0.498	1.4548	0.0004
298.15	0.602	1.464	0.0004
298.15	0.6964	1.4722	0.0004
298.15	0.7875	1.4749	0.0004
298.15	0.8983	1.4881	0.0004
298.15	1	1.4958	0.0004
303.15	0	1.3944	0.0004
303.15	0.1022	1.4076	0.0004
303.15	0.2397	1.4199	0.0004
303.15	0.2975	1.4316	0.0004
303.15	0.3975	1.442	0.0004
303.15	0.498	1.4521	0.0004
303.15	0.602	1.4617	0.0004
303.15	0.6964	1.4694	0.0004
303.15	0.7875	1.4721	0.0004
303.15	0.8983	1.4853	0.0004
303.15	1	1.4928	0.0004
308.15	0	1.3923	0.0004
308.15	0.1022	1.4057	0.0004
308.15	0.2397	1.4175	0.0004
308.15	0.2975	1.4291	0.0004
308.15	0.3975	1.4392	0.0004
308.15	0.498	1.4495	0.0004
308.15	0.602	1.4591	0.0004
308.15	0.6964	1.4666	0.0004
308.15	0.7875	1.4697	0.0004
308.15	0.8983	1.4826	0.0004
308.15	1	1.4898	0.0004

System: butan-1-ol + 1,3,5-trimethylbenzene; phases: Liquid
Fixed: Pressure, kPa = 101
Property: Mass density, kg/m3 (Liquid); method: Vibrating tube method
Temperature, K	Mole fraction of 1,3,5-trimethylbenzene	Mass density, kg/m3	uncertainty
298.15	0	806.12	0.24
298.15	0.1022	811.56	0.24
298.15	0.2397	818.01	0.23
298.15	0.2975	822.43	0.23
298.15	0.3975	827.87	0.23
298.15	0.498	833.31	0.23
298.15	0.602	838.75	0.23
298.15	0.6964	844.19	0.23
298.15	0.7875	849.62	0.23
298.15	0.8983	855.06	0.23
298.15	1	860.5	0.23
303.15	0	802.28	0.24
303.15	0.1022	807.69	0.24
303.15	0.2397	814.42	0.23
303.15	0.2975	818.52	0.23
303.15	0.3975	823.98	0.23
303.15	0.498	829.34	0.23
303.15	0.602	834.75	0.23
303.15	0.6964	840.16	0.23
303.15	0.7875	845.58	0.23
303.15	0.8983	850.98	0.23
303.15	1	856.4	0.23
308.15	0	798.41	0.24
308.15	0.1022	803.8	0.24
308.15	0.2397	810.43	0.24
308.15	0.2975	814.57	0.23
308.15	0.3975	819.96	0.23
308.15	0.498	825.35	0.23
308.15	0.602	830.74	0.23
308.15	0.6964	836.13	0.23
308.15	0.7875	841.51	0.23
308.15	0.8983	846.9	0.23
308.15	1	852.29	0.23

System: pentan-1-ol + 1,3,5-trimethylbenzene; phases: Liquid
Fixed: Pressure, kPa = 203
Property: Viscosity, Pa*s (Liquid); method: Schott-Gerate viscometer model AVS 350
Temperature, K	Mole fraction of 1,3,5-trimethylbenzene	Viscosity, Pa*s	uncertainty
298.15	0	0.003403	1.7e-05
298.15	0.1012	0.00261	1.3e-05
298.15	0.1973	0.002083	1e-05
298.15	0.3002	0.001584	8e-06
298.15	0.3972	0.001336	7e-06
298.15	0.4919	0.001284	6e-06
298.15	0.615	0.000927	5e-06
298.15	0.6865	0.00086	4e-06
298.15	0.8019	0.000761	4e-06
298.15	0.8989	0.000715	4e-06
298.15	1	0.000641	3e-06
303.15	0	0.002959	1.5e-05
303.15	0.1012	0.00231	1.2e-05
303.15	0.1973	0.001852	9e-06
303.15	0.3002	0.001434	7e-06
303.15	0.3972	0.001214	6e-06
303.15	0.4919	0.001176	6e-06
303.15	0.615	0.000856	4e-06
303.15	0.6865	0.000799	4e-06
303.15	0.8019	0.000712	4e-06
303.15	0.8989	0.000658	3e-06
303.15	1	0.000601	3e-06
308.15	0	0.002581	1.3e-05
308.15	0.1012	0.00201	1e-05
308.15	0.1973	0.001621	8e-06
308.15	0.3002	0.001284	6e-06
308.15	0.3972	0.001091	5e-06
308.15	0.4919	0.001059	5e-06
308.15	0.615	0.000785	4e-06
308.15	0.6865	0.000738	4e-06
308.15	0.8019	0.000663	3e-06
308.15	0.8989	0.000601	3e-06
308.15	1	0.000566	3e-06

System: pentan-1-ol + 1,3,5-trimethylbenzene; phases: Liquid
Fixed: Pressure, kPa = 101
Property: Refractive index (Na D-line) (Liquid); method: Standard Abbe refractometry
Temperature, K	Mole fraction of 1,3,5-trimethylbenzene	Refractive index (Na D-line)	uncertainty
298.15	0	1.4073	0.0004
298.15	0.1012	1.4174	0.0004
298.15	0.1973	1.4274	0.0004
298.15	0.3002	1.4372	0.0004
298.15	0.3972	1.4464	0.0004
298.15	0.4919	1.4559	0.0004
298.15	0.615	1.4654	0.0004
298.15	0.6865	1.4711	0.0004
298.15	0.8019	1.4805	0.0004
298.15	0.8989	1.4875	0.0004
298.15	1	1.4898	0.0004
303.15	0	1.405	0.0004
303.15	0.1012	1.4145	0.0004
303.15	0.1973	1.4256	0.0004
303.15	0.3002	1.4348	0.0004
303.15	0.3972	1.4438	0.0004
303.15	0.4919	1.4534	0.0004
303.15	0.615	1.4618	0.0004
303.15	0.6865	1.4683	0.0004
303.15	0.8019	1.4775	0.0004
303.15	0.8989	1.4849	0.0004
303.15	1	1.4928	0.0004
308.15	0	1.4032	0.0004
308.15	0.1012	1.4116	0.0004
308.15	0.1973	1.4227	0.0004
308.15	0.3002	1.4324	0.0004
308.15	0.3972	1.4412	0.0004
308.15	0.4919	1.4509	0.0004
308.15	0.615	1.4582	0.0004
308.15	0.6865	1.4655	0.0004
308.15	0.8019	1.4745	0.0004
308.15	0.8989	1.4822	0.0004
308.15	1	1.4898	0.0004

System: pentan-1-ol + 1,3,5-trimethylbenzene; phases: Liquid
Fixed: Pressure, kPa = 101
Property: Mass density, kg/m3 (Liquid); method: Vibrating tube method
Temperature, K	Mole fraction of 1,3,5-trimethylbenzene	Mass density, kg/m3	uncertainty
298.15	0	810.92	0.24
298.15	0.1012	815.88	0.23
298.15	0.1973	820.84	0.23
298.15	0.3002	825.79	0.23
298.15	0.3972	830.75	0.23
298.15	0.4919	835.71	0.23
298.15	0.615	840.67	0.23
298.15	0.6865	844.63	0.23
298.15	0.8019	850.58	0.23
298.15	0.8989	855.54	0.23
298.15	1	860.5	0.23
303.15	0	807.23	0.24
303.15	0.1012	812.15	0.24
303.15	0.1973	817.06	0.23
303.15	0.3002	821.98	0.23
303.15	0.3972	826.91	0.23
303.15	0.4919	831.81	0.23
303.15	0.615	839.76	0.23
303.15	0.6865	842.83	0.23
303.15	0.8019	846.57	0.23
303.15	0.8989	851.48	0.23
303.15	1	856.4	0.23
308.15	0	803.52	0.24
308.15	0.1012	808.4	0.24
308.15	0.1973	813.27	0.23
308.15	0.3002	818.15	0.23
308.15	0.3972	823.02	0.23
308.15	0.4919	827.9	0.23
308.15	0.615	835.63	0.23
308.15	0.6865	838.69	0.23
308.15	0.8019	842.54	0.23
308.15	0.8989	847.41	0.23
308.15	1	852.29	0.23

System: 1,3,5-trimethylbenzene + 3-methylbutan-1-ol; phases: Liquid
Fixed: Pressure, kPa = 203
Property: Viscosity, Pa*s (Liquid); method: Schott-Gerate viscometer model AVS 350
Temperature, K	Mole fraction of 1,3,5-trimethylbenzene	Viscosity, Pa*s	uncertainty
298.15	0	0.003835	1.9e-05
298.15	0.1018	0.002672	1.3e-05
298.15	0.1965	0.002033	1e-05
298.15	0.2972	0.001619	8e-06
298.15	0.3982	0.001275	6e-06
298.15	0.4949	0.001071	5e-06
298.15	0.5948	0.000924	5e-06
298.15	0.6664	0.000851	4e-06
298.15	0.7883	0.000745	4e-06
298.15	0.9004	0.000642	3e-06
298.15	1	0.000641	3e-06
303.15	0	0.003261	1.6e-05
303.15	0.1018	0.002316	1.2e-05
303.15	0.1965	0.001786	9e-06
303.15	0.2972	0.001434	7e-06
303.15	0.3982	0.001143	6e-06
303.15	0.4949	0.000984	5e-06
303.15	0.5948	0.000858	4e-06
303.15	0.6664	0.000786	4e-06
303.15	0.7883	0.000693	4e-06
303.15	0.9004	0.000612	3e-06
303.15	1	0.000601	3e-06
308.15	0	0.00279	1.4e-05
308.15	0.1018	0.002023	1e-05
308.15	0.1965	0.001573	8e-06
308.15	0.2972	0.001281	6e-06
308.15	0.3982	0.001032	5e-06
308.15	0.4949	0.000908	5e-06
308.15	0.5948	0.000786	4e-06
308.15	0.6664	0.000723	4e-06
308.15	0.7883	0.000648	3e-06
308.15	0.9004	0.000573	3e-06
308.15	1	0.000566	3e-06

System: 1,3,5-trimethylbenzene + 3-methylbutan-1-ol; phases: Liquid
Fixed: Pressure, kPa = 101
Property: Refractive index (Na D-line) (Liquid); method: Standard Abbe refractometry
Temperature, K	Mole fraction of 1,3,5-trimethylbenzene	Refractive index (Na D-line)	uncertainty
298.15	0	1.405	0.0004
298.15	0.1018	1.4155	0.0004
298.15	0.1965	1.4254	0.0004
298.15	0.2972	1.4352	0.0004
298.15	0.3982	1.4445	0.0004
298.15	0.4949	1.4534	0.0004
298.15	0.5948	1.4622	0.0004
298.15	0.6664	1.4685	0.0004
298.15	0.7883	1.4785	0.0004
298.15	0.9004	1.4887	0.0004
298.15	1	1.4958	0.0004
303.15	0	1.403	0.0004
303.15	0.1018	1.4132	0.0004
303.15	0.1965	1.4231	0.0004
303.15	0.2972	1.4332	0.0004
303.15	0.3982	1.4421	0.0004
303.15	0.4949	1.4511	0.0004
303.15	0.5948	1.4598	0.0004
303.15	0.6664	1.4659	0.0004
303.15	0.7883	1.4761	0.0004
303.15	0.9004	1.4862	0.0004
303.15	1	1.4928	0.0004
308.15	0	1.401	0.0004
308.15	0.1018	1.4109	0.0004
308.15	0.1965	1.4208	0.0004
308.15	0.2972	1.4308	0.0004
308.15	0.3982	1.4397	0.0004
308.15	0.4949	1.4487	0.0004
308.15	0.5948	1.4574	0.0004
308.15	0.6664	1.4633	0.0004
308.15	0.7883	1.4735	0.0004
308.15	0.9004	1.4837	0.0004
308.15	1	1.4898	0.0004

System: 1,3,5-trimethylbenzene + 3-methylbutan-1-ol; phases: Liquid
Fixed: Pressure, kPa = 101
Property: Mass density, kg/m3 (Liquid); method: Vibrating tube method
Temperature, K	Mole fraction of 1,3,5-trimethylbenzene	Mass density, kg/m3	uncertainty
298.15	0	807.2	0.24
298.15	0.1018	815.2	0.23
298.15	0.1965	820.38	0.23
298.15	0.2972	825.92	0.23
298.15	0.3982	830.87	0.23
298.15	0.4949	835.79	0.23
298.15	0.5948	840.81	0.23
298.15	0.6664	844.08	0.23
298.15	0.7883	849.85	0.23
298.15	0.9004	855.62	0.23
298.15	1	860.5	0.23
303.15	0	803.45	0.24
303.15	0.1018	811.31	0.24
303.15	0.1965	816.42	0.23
303.15	0.2972	821.79	0.23
303.15	0.3982	826.81	0.23
303.15	0.4949	831.68	0.23
303.15	0.5948	836.69	0.23
303.15	0.6664	839.93	0.23
303.15	0.7883	845.69	0.23
303.15	0.9004	851.46	0.23
303.15	1	856.4	0.23
308.15	0	799.67	0.24
308.15	0.1018	807.41	0.24
308.15	0.1965	812.45	0.24
308.15	0.2972	817.45	0.23
308.15	0.3982	822.75	0.23
308.15	0.4949	827.57	0.23
308.15	0.5948	832.56	0.23
308.15	0.6664	835.77	0.23
308.15	0.7883	841.53	0.23
308.15	0.9004	847.29	0.23
308.15	1	852.29	0.23
