Measured thermophysical data. Experimental and computational thermochemical study of two fluorobenzazoles: 5-fluoro-2-methylbenzoxazole and 5-fluoro-2-methylbenzothiazole
Source: J. Chem. Thermodyn., 2018, 10.1016/j.jct.2018.01.022
Compound 1: sulfur, S, InChI=1S/S
Compound 2: fluorine, F2, InChI=1S/F2/c1-2
Compound 3: hydrogen, H2, InChI=1S/H2/h1H
Compound 4: nitrogen, N2, InChI=1S/N2/c1-2
Compound 5: graphite, C
Compound 6: hydrogen fluoride, FH, InChI=1S/FH/h1H
Compound 7: carbon dioxide, CO2, InChI=1S/CO2/c2-1-3
Compound 8: water, H2O, InChI=1S/H2O/h1H2
Compound 9: oxygen, O2, InChI=1S/O2/c1-2
Compound 10: thianthrene, C12H8S2, InChI=1S/C12H8S2/c1-2-6-10-9(5-1)13-11-7-3-4-8-12(11)14-10/h1-8H
Compound 11: 5-fluoro-2-methylbenzoxazole, C8H6FNO, InChI=1S/C8H6FNO/c1-5-10-7-4-6(9)2-3-8(7)11-5/h2-4H,1H3
Compound 12: 5-fluoro-2-methylbenzothiazole, C8H6FNS, InChI=1S/C8H6FNS/c1-5-10-7-4-6(9)2-3-8(7)11-5/h2-4H,1H3
Compound 13: benzoic acid, C7H6O2, InChI=1S/C7H6O2/c8-7(9)6-4-2-1-3-5-6/h1-5H,(H,8,9), purity 99.9978%

System: 5-fluoro-2-methylbenzoxazole; phases: Liquid, Gas
Property: Molar enthalpy of vaporization or sublimation, kJ/mol (Liquid); method: Static calorimetry
Temperature, K	Molar enthalpy of vaporization or sublimation, kJ/mol	uncertainty
298.15	57.2	1

System: 5-fluoro-2-methylbenzoxazole; phases: Gas, Liquid
Property: Molar enthalpy, kJ/mol (Gas); method: Drop calorimetry
Temperature, K	Molar enthalpy, kJ/mol	uncertainty
334.58	63	1.5

System: 5-fluoro-2-methylbenzothiazole; phases: Liquid, Gas
Property: Molar enthalpy of vaporization or sublimation, kJ/mol (Liquid); method: Static calorimetry
Temperature, K	Molar enthalpy of vaporization or sublimation, kJ/mol	uncertainty
298.15	63.8	1.1

System: 5-fluoro-2-methylbenzothiazole; phases: Gas, Liquid
Property: Molar enthalpy, kJ/mol (Gas); method: Drop calorimetry
Temperature, K	Molar enthalpy, kJ/mol	uncertainty
355.09	73.5	1.8

Reaction: 1 5-fluoro-2-methylbenzothiazole + -1 sulfur + -.5 fluorine + -3 hydrogen + -.5 nitrogen + -8 graphite
Property: Molar enthalpy of reaction, kJ/mol
-110.8

Reaction: -1 5-fluoro-2-methylbenzoxazole + 1 hydrogen fluoride + 8 carbon dioxide + .5 nitrogen + 2.5 water + -8.75 oxygen
Property: Specific internal energy of reaction at constant volume, J/g
-25959.95

Reaction: 2 benzoic acid + 3.5 thianthrene + -7 5-fluoro-2-methylbenzothiazole + 7 hydrogen fluoride + 3.5 nitrogen + -2.5 water + -.75 oxygen
Property: Molar internal energy of reaction at constant volume, kJ/mol
-916.3
