Measured thermophysical data. Excess molar volumes and viscosities of (1,1,2,2-tetrabromoethane + 1-alkanols) at T = (293.15 and 303.15) K
Source: J. Chem. Thermodyn., 2006, 10.1016/j.jct.2005.03.027
Compound 1: 1,1,2,2-tetrabromoethane, C2H2Br4, InChI=1S/C2H2Br4/c3-1(4)2(5)6/h1-2H
Compound 2: pentan-1-ol, C5H12O, InChI=1S/C5H12O/c1-2-3-4-5-6/h6H,2-5H2,1H3
Compound 3: hexan-1-ol, C6H14O, InChI=1S/C6H14O/c1-2-3-4-5-6-7/h7H,2-6H2,1H3
Compound 4: heptan-1-ol, C7H16O, InChI=1S/C7H16O/c1-2-3-4-5-6-7-8/h8H,2-7H2,1H3
Compound 5: octan-1-ol, C8H18O, InChI=1S/C8H18O/c1-2-3-4-5-6-7-8-9/h9H,2-8H2,1H3
Compound 6: decan-1-ol, C10H22O, InChI=1S/C10H22O/c1-2-3-4-5-6-7-8-9-10-11/h11H,2-10H2,1H3

System: 1,1,2,2-tetrabromoethane; phases: Liquid
Property: Refractive index (Na D-line) (Liquid); method: Standard Abbe refractometry
Temperature, K	Pressure, kPa	Refractive index (Na D-line)	uncertainty
293.15	101.325	1.63535	0.00075

System: 1,1,2,2-tetrabromoethane; phases: Liquid
Fixed: Pressure, kPa = 101
Property: Viscosity, Pa*s (Liquid); method: CAPTUB:UFactor:2
Temperature, K	Viscosity, Pa*s	uncertainty
293.15	0.010935	0.000149
303.15	0.008413	0.000123

System: 1,1,2,2-tetrabromoethane; phases: Liquid
Fixed: Pressure, kPa = 101
Property: Mass density, kg/m3 (Liquid); method: VIBTUB:UFactor:4
Temperature, K	Mass density, kg/m3	uncertainty
293.15	2963.2	3.53
303.15	2939.86	3.49

System: pentan-1-ol; phases: Liquid
Property: Refractive index (Na D-line) (Liquid); method: Standard Abbe refractometry
Temperature, K	Pressure, kPa	Refractive index (Na D-line)	uncertainty
293.15	101.325	1.40995	0.00075

System: pentan-1-ol; phases: Liquid
Fixed: Pressure, kPa = 101
Property: Viscosity, Pa*s (Liquid); method: CAPTUB::UFactor:2
Temperature, K	Viscosity, Pa*s	uncertainty
293.15	0.004052	6.5e-05
303.15	0.002926	5e-05

System: pentan-1-ol; phases: Liquid
Fixed: Pressure, kPa = 101
Property: Mass density, kg/m3 (Liquid); method: VIBTUB::UFactor:4
Temperature, K	Mass density, kg/m3	uncertainty
293.15	815.03	0.58
303.15	807.6	0.59

System: hexan-1-ol; phases: Liquid
Property: Refractive index (Na D-line) (Liquid); method: Standard Abbe refractometry
Temperature, K	Pressure, kPa	Refractive index (Na D-line)	uncertainty
293.15	101.325	1.41826	0.00075

System: hexan-1-ol; phases: Liquid
Fixed: Pressure, kPa = 101
Property: Viscosity, Pa*s (Liquid); method: CAPTUB::UFactor:2
Temperature, K	Viscosity, Pa*s	uncertainty
293.15	0.00537	8.5e-05
303.15	0.003744	6.5e-05

System: hexan-1-ol; phases: Liquid
Fixed: Pressure, kPa = 101
Property: Mass density, kg/m3 (Liquid); method: VIBTUB::UFactor:4
Temperature, K	Mass density, kg/m3	uncertainty
293.15	818.92	0.58
303.15	811.73	0.59

System: heptan-1-ol; phases: Liquid
Property: Refractive index (Na D-line) (Liquid); method: Standard Abbe refractometry
Temperature, K	Pressure, kPa	Refractive index (Na D-line)	uncertainty
293.15	101.325	1.42397	0.00075

System: heptan-1-ol; phases: Liquid
Fixed: Pressure, kPa = 101
Property: Viscosity, Pa*s (Liquid); method: CAPTUB::UFactor:2
Temperature, K	Viscosity, Pa*s	uncertainty
293.15	0.007058	0.000107
303.15	0.004821	8.5e-05

System: heptan-1-ol; phases: Liquid
Fixed: Pressure, kPa = 101
Property: Mass density, kg/m3 (Liquid); method: VIBTUB::UFactor:4
Temperature, K	Mass density, kg/m3	uncertainty
293.15	822.39	0.58
303.15	815.41	0.58

System: octan-1-ol; phases: Liquid
Property: Refractive index (Na D-line) (Liquid); method: Standard Abbe refractometry
Temperature, K	Pressure, kPa	Refractive index (Na D-line)	uncertainty
293.15	101.325	1.42958	0.00075

System: octan-1-ol; phases: Liquid
Fixed: Pressure, kPa = 101
Property: Viscosity, Pa*s (Liquid); method: CAPTUB::UFactor:2
Temperature, K	Viscosity, Pa*s	uncertainty
293.15	0.009219	0.000134
303.15	0.006358	0.000106

System: octan-1-ol; phases: Liquid
Fixed: Pressure, kPa = 101
Property: Mass density, kg/m3 (Liquid); method: VIBTUB::UFactor:4
Temperature, K	Mass density, kg/m3	uncertainty
293.15	824.99	0.58
303.15	818.09	0.58

System: decan-1-ol; phases: Liquid
Property: Refractive index (Na D-line) (Liquid); method: Standard Abbe refractometry
Temperature, K	Pressure, kPa	Refractive index (Na D-line)	uncertainty
293.15	101.325	1.43706	0.00075

System: decan-1-ol; phases: Liquid
Fixed: Pressure, kPa = 101
Property: Viscosity, Pa*s (Liquid); method: CAPTUB::UFactor:2
Temperature, K	Viscosity, Pa*s	uncertainty
293.15	0.014544	0.000205
303.15	0.009676	0.00016

System: decan-1-ol; phases: Liquid
Fixed: Pressure, kPa = 101
Property: Mass density, kg/m3 (Liquid); method: VIBTUB::UFactor:4
Temperature, K	Mass density, kg/m3	uncertainty
293.15	829.7	0.57
303.15	822.85	0.58

System: pentan-1-ol + 1,1,2,2-tetrabromoethane; phases: Liquid
Fixed: Pressure, kPa = 101
Property: Viscosity, Pa*s (Liquid); method: CAPTUB:UFactor:2
Temperature, K	Mole fraction of 1,1,2,2-tetrabromoethane	Viscosity, Pa*s	uncertainty
293.15	0	0.004052	6.5e-05
293.15	0.1009	0.004543	7.3e-05
293.15	0.2014	0.005078	8.1e-05
293.15	0.3004	0.005653	8.8e-05
293.15	0.4003	0.006278	9.5e-05
293.15	0.5014	0.006942	0.000103
293.15	0.6001	0.007621	0.000111
293.15	0.7001	0.008346	0.00012
293.15	0.7998	0.009119	0.000129
293.15	0.8997	0.009968	0.000139
293.15	1	0.010935	0.000149
303.15	0	0.002926	5e-05
303.15	0.1009	0.00324	5.5e-05
303.15	0.2014	0.003639	6.2e-05
303.15	0.3004	0.004078	6.9e-05
303.15	0.4003	0.004563	7.6e-05
303.15	0.5014	0.005089	8.4e-05
303.15	0.6001	0.005631	9e-05
303.15	0.7001	0.006217	9.8e-05
303.15	0.7998	0.006846	0.000105
303.15	0.8997	0.007555	0.000113
303.15	1	0.008413	0.000123

System: pentan-1-ol + 1,1,2,2-tetrabromoethane; phases: Liquid
Fixed: Pressure, kPa = 101
Property: Mass density, kg/m3 (Liquid); method: VIBTUB:UFactor:4
Temperature, K	Mole fraction of 1,1,2,2-tetrabromoethane	Mass density, kg/m3	uncertainty
293.15	0	815.03	0.58
293.15	0.1009	1048.36	1.08
293.15	0.2014	1276.63	1.24
293.15	0.3004	1497.47	1.47
293.15	0.4003	1716.5	1.75
293.15	0.5014	1934.64	2.05
293.15	0.6001	2144.16	2.36
293.15	0.7001	2353.22	2.67
293.15	0.7998	2558.61	2.98
293.15	0.8997	2761.73	3.3
293.15	1	2963.2	3.53
303.15	0	807.6	0.59
303.15	0.1009	1038.85	1.07
303.15	0.2014	1265.1	1.22
303.15	0.3004	1484.08	1.45
303.15	0.4003	1701.36	1.73
303.15	0.5014	1917.88	2.02
303.15	0.6001	2125.93	2.33
303.15	0.7001	2333.58	2.64
303.15	0.7998	2537.64	2.95
303.15	0.8997	2739.49	3.27
303.15	1	2939.86	3.49

System: 1,1,2,2-tetrabromoethane + hexan-1-ol; phases: Liquid
Fixed: Pressure, kPa = 101
Property: Viscosity, Pa*s (Liquid); method: CAPTUB:UFactor:2
Temperature, K	Mole fraction of 1,1,2,2-tetrabromoethane	Viscosity, Pa*s	uncertainty
293.15	0	0.00537	8.5e-05
293.15	0.1001	0.005764	9e-05
293.15	0.2007	0.006116	9.4e-05
293.15	0.3004	0.006633	0.0001
293.15	0.4004	0.007123	0.000106
293.15	0.5005	0.007644	0.000112
293.15	0.6008	0.008195	0.000118
293.15	0.6999	0.008786	0.000125
293.15	0.8012	0.009433	0.000133
293.15	0.9001	0.01014	0.000141
293.15	1	0.010935	0.000149
303.15	0	0.003744	6.5e-05
303.15	0.1001	0.004031	7e-05
303.15	0.2007	0.004348	7.4e-05
303.15	0.3004	0.004709	8e-05
303.15	0.4004	0.005112	8.6e-05
303.15	0.5005	0.005542	9.1e-05
303.15	0.6008	0.006009	9.6e-05
303.15	0.6999	0.006508	0.000102
303.15	0.8012	0.007068	0.000108
303.15	0.9001	0.007699	0.000115
303.15	1	0.008413	0.000123

System: 1,1,2,2-tetrabromoethane + hexan-1-ol; phases: Liquid
Fixed: Pressure, kPa = 101
Property: Mass density, kg/m3 (Liquid); method: VIBTUB:UFactor:4
Temperature, K	Mole fraction of 1,1,2,2-tetrabromoethane	Mass density, kg/m3	uncertainty
293.15	0	818.92	0.58
293.15	0.1001	1021.6	0.98
293.15	0.2007	1227.75	1.14
293.15	0.3004	1434.26	1.37
293.15	0.4004	1643.89	1.64
293.15	0.5005	1856.54	1.94
293.15	0.6008	2072.22	2.26
293.15	0.6999	2288.24	2.59
293.15	0.8012	2512.37	2.93
293.15	0.9001	2734.51	3.28
293.15	1	2963.2	3.53
303.15	0	811.73	0.59
303.15	0.1001	1012.63	0.97
303.15	0.2007	1216.94	1.12
303.15	0.3004	1421.62	1.35
303.15	0.4004	1629.48	1.62
303.15	0.5005	1840.42	1.91
303.15	0.6008	2054.51	2.23
303.15	0.6999	2269.06	2.55
303.15	0.8012	2491.76	2.9
303.15	0.9001	2712.53	3.25
303.15	1	2939.86	3.49

System: 1,1,2,2-tetrabromoethane + heptan-1-ol; phases: Liquid
Fixed: Pressure, kPa = 101
Property: Viscosity, Pa*s (Liquid); method: CAPTUB:UFactor:2
Temperature, K	Mole fraction of 1,1,2,2-tetrabromoethane	Viscosity, Pa*s	uncertainty
293.15	0	0.007058	0.000107
293.15	0.099	0.007314	0.00011
293.15	0.1999	0.007577	0.000113
293.15	0.3001	0.00786	0.000116
293.15	0.3995	0.008171	0.00012
293.15	0.5006	0.008531	0.000123
293.15	0.5987	0.008915	0.000128
293.15	0.6993	0.009351	0.000132
293.15	0.799	0.009836	0.000138
293.15	0.8992	0.010381	0.000143
293.15	1	0.010935	0.000149
303.15	0	0.004821	8.5e-05
303.15	0.099	0.005033	8.7e-05
303.15	0.1999	0.005262	9e-05
303.15	0.3001	0.005513	9.3e-05
303.15	0.3995	0.005801	9.6e-05
303.15	0.5006	0.006128	9.9e-05
303.15	0.5987	0.006484	0.000103
303.15	0.6993	0.006886	0.000107
303.15	0.799	0.007336	0.000112
303.15	0.8992	0.007862	0.000117
303.15	1	0.008413	0.000123

System: 1,1,2,2-tetrabromoethane + heptan-1-ol; phases: Liquid
Fixed: Pressure, kPa = 101
Property: Mass density, kg/m3 (Liquid); method: VIBTUB:UFactor:4
Temperature, K	Mole fraction of 1,1,2,2-tetrabromoethane	Mass density, kg/m3	uncertainty
293.15	0	822.39	0.58
293.15	0.099	1001.11	0.9
293.15	0.1999	1189.38	1.06
293.15	0.3001	1383.2	1.28
293.15	0.3995	1582.25	1.54
293.15	0.5006	1792.24	1.84
293.15	0.5987	2003.6	2.16
293.15	0.6993	2229.07	2.51
293.15	0.799	2461.79	2.88
293.15	0.8992	2706	3.27
293.15	1	2963.2	3.53
303.15	0	815.41	0.58
303.15	0.099	992.57	0.9
303.15	0.1999	1179.18	1.04
303.15	0.3001	1371.29	1.26
303.15	0.3995	1568.62	1.52
303.15	0.5006	1776.88	1.82
303.15	0.5987	1986.59	2.13
303.15	0.6993	2210.42	2.48
303.15	0.799	2441.56	2.84
303.15	0.8992	2684.21	3.23
303.15	1	2939.86	3.49

System: 1,1,2,2-tetrabromoethane + octan-1-ol; phases: Liquid
Fixed: Pressure, kPa = 101
Property: Viscosity, Pa*s (Liquid); method: CAPTUB:UFactor:2
Temperature, K	Mole fraction of 1,1,2,2-tetrabromoethane	Viscosity, Pa*s	uncertainty
293.15	0	0.009219	0.000134
293.15	0.101	0.00928	0.000149
293.15	0.2013	0.009347	0.00015
293.15	0.2997	0.009426	0.000136
293.15	0.3994	0.009527	0.000136
293.15	0.5002	0.009661	0.000138
293.15	0.6003	0.009831	0.000158
293.15	0.6998	0.010044	0.000141
293.15	0.7998	0.010319	0.000167
293.15	0.9011	0.010632	0.000172
293.15	1	0.010935	0.000149
303.15	0	0.006358	0.000106
303.15	0.099	0.006446	0.000107
303.15	0.1999	0.006535	0.000108
303.15	0.3001	0.006646	0.000108
303.15	0.3995	0.006774	0.000109
303.15	0.5006	0.006947	0.00011
303.15	0.5987	0.007155	0.00012
303.15	0.6993	0.007398	0.000114
303.15	0.799	0.007708	0.000134
303.15	0.8992	0.008065	0.000139
303.15	1	0.008413	0.000123

System: 1,1,2,2-tetrabromoethane + octan-1-ol; phases: Liquid
Fixed: Pressure, kPa = 101
Property: Mass density, kg/m3 (Liquid); method: VIBTUB:UFactor:4
Temperature, K	Mole fraction of 1,1,2,2-tetrabromoethane	Mass density, kg/m3	uncertainty
293.15	0	824.99	0.58
293.15	0.101	989.26	0.85
293.15	0.2013	1161.15	0.99
293.15	0.2997	1338.99	1.2
293.15	0.3994	1529.17	1.46
293.15	0.5002	1732.98	1.75
293.15	0.6003	1947.95	2.08
293.15	0.6998	2175.4	2.44
293.15	0.7998	2419.28	2.83
293.15	0.9011	2684.42	3.26
293.15	1	2963.2	3.53
303.15	0	818.09	0.58
303.15	0.099	980.93	0.85
303.15	0.1999	1151.32	0.97
303.15	0.3001	1327.63	1.18
303.15	0.3995	1516.19	1.44
303.15	0.5006	1718.29	1.73
303.15	0.5987	1931.52	2.06
303.15	0.6993	2157.22	2.41
303.15	0.799	2399.36	2.8
303.15	0.8992	2662.77	3.22
303.15	1	2939.86	3.49

System: 1,1,2,2-tetrabromoethane + decan-1-ol; phases: Liquid
Fixed: Pressure, kPa = 101
Property: Viscosity, Pa*s (Liquid); method: CAPTUB:UFactor:2
Temperature, K	Mole fraction of 1,1,2,2-tetrabromoethane	Viscosity, Pa*s	uncertainty
293.15	0	0.014544	0.000205
293.15	0.1023	0.014091	0.000199
293.15	0.202	0.01366	0.000192
293.15	0.3012	0.013238	0.000186
293.15	0.4012	0.012821	0.00018
293.15	0.5007	0.012425	0.000174
293.15	0.6006	0.012061	0.000168
293.15	0.7011	0.011739	0.000163
293.15	0.8006	0.011454	0.000158
293.15	0.9006	0.01119	0.000154
293.15	1	0.010935	0.000149
303.15	0	0.009676	0.00016
303.15	0.1023	0.009449	0.000155
303.15	0.202	0.009246	0.00015
303.15	0.3012	0.009048	0.000146
303.15	0.4012	0.008863	0.000141
303.15	0.5007	0.008701	0.000137
303.15	0.6006	0.00857	0.000134
303.15	0.7011	0.008482	0.00013
303.15	0.8006	0.008437	0.000128
303.15	0.9006	0.008422	0.000125
303.15	1	0.008413	0.000123

System: 1,1,2,2-tetrabromoethane + decan-1-ol; phases: Liquid
Fixed: Pressure, kPa = 101
Property: Mass density, kg/m3 (Liquid); method: VIBTUB:UFactor:4
Temperature, K	Mole fraction of 1,1,2,2-tetrabromoethane	Mass density, kg/m3	uncertainty
293.15	0	829.7	0.57
293.15	0.1023	968.19	0.77
293.15	0.202	1114.37	0.89
293.15	0.3012	1272.36	1.08
293.15	0.4012	1446.62	1.32
293.15	0.5007	1636.66	1.61
293.15	0.6006	1847.04	1.94
293.15	0.7011	2081.74	2.32
293.15	0.8006	2340.68	2.75
293.15	0.9006	2632.79	3.24
293.15	1	2963.2	3.53
303.15	0	822.85	0.58
303.15	0.1023	960.09	0.77
303.15	0.202	1104.97	0.87
303.15	0.3012	1261.57	1.06
303.15	0.4012	1434.34	1.3
303.15	0.5007	1622.78	1.59
303.15	0.6006	1831.45	1.91
303.15	0.7011	2064.32	2.29
303.15	0.8006	2321.36	2.72
303.15	0.9006	2611.47	3.21
303.15	1	2939.86	3.49
