Measured thermophysical data. (Liquid + liquid) equilibria of [C8mim][NTf2] ionic liquid with a sulfur-component and hydrocarbons
Source: J. Chem. Thermodyn., 2008, 10.1016/j.jct.2007.06.016
Compound 1: 1-octyl-3-methylimidazolium bis[(trifluoromethyl)sulfonyl]imide, C14H23F6N3O4S2, InChI=1S/C12H23N2.C2F6NO4S2/c1-3-4-5-6-7-8-9-14-11-10-13(2)12-14;3-1(4,5)14(10,11)9-15(12,13)2(6,7)8/h10-12H,3-9H2,1-2H3;/q+1;-1
Compound 2: dodecane, C12H26, InChI=1S/C12H26/c1-3-5-7-9-11-12-10-8-6-4-2/h3-12H2,1-2H3, purity 99%
Compound 3: cyclohexane, C6H12, InChI=1S/C6H12/c1-2-4-6-5-3-1/h1-6H2, purity 99.5%
Compound 4: thiophene, C4H4S, InChI=1S/C4H4S/c1-2-4-5-3-1/h1-4H, purity 99%

System: 1-octyl-3-methylimidazolium bis[(trifluoromethyl)sulfonyl]imide; phases: Liquid
Property: Refractive index (Na D-line) (Liquid); method: Standard Abbe refractometry
Temperature, K	Pressure, kPa	Refractive index (Na D-line)	uncertainty
298.15	101.325	1.43331	0.00121

System: 1-octyl-3-methylimidazolium bis[(trifluoromethyl)sulfonyl]imide; phases: Liquid
Property: Mass density, kg/m3 (Liquid); method: Vibrating tube method
Temperature, K	Pressure, kPa	Mass density, kg/m3	uncertainty
298.15	101.325	1320.76	9.52

System: dodecane; phases: Liquid
Property: Refractive index (Na D-line) (Liquid); method: Standard Abbe refractometry
Temperature, K	Pressure, kPa	Refractive index (Na D-line)	uncertainty
298.15	101.325	1.42011	0.0007

System: dodecane; phases: Liquid
Property: Mass density, kg/m3 (Liquid); method: VIBTUB:UFactor:6
Temperature, K	Pressure, kPa	Mass density, kg/m3	uncertainty
298.15	101.325	745.32	0.91

System: cyclohexane; phases: Liquid
Property: Refractive index (Na D-line) (Liquid); method: Standard Abbe refractometry
Temperature, K	Pressure, kPa	Refractive index (Na D-line)	uncertainty
298.15	101.325	1.42403	0.00068

System: cyclohexane; phases: Liquid
Property: Mass density, kg/m3 (Liquid); method: VIBTUB:UFactor:4
Temperature, K	Pressure, kPa	Mass density, kg/m3	uncertainty
298.15	101.325	773.76	0.52

System: thiophene; phases: Liquid
Property: Refractive index (Na D-line) (Liquid); method: Standard Abbe refractometry
Temperature, K	Pressure, kPa	Refractive index (Na D-line)	uncertainty
298.15	101.325	1.52581	0.0007

System: thiophene; phases: Liquid
Property: Mass density, kg/m3 (Liquid); method: VIBTUB:UFactor:6
Temperature, K	Pressure, kPa	Mass density, kg/m3	uncertainty
298.15	101.325	1058.5	0.55

System: thiophene + dodecane + 1-octyl-3-methylimidazolium bis[(trifluoromethyl)sulfonyl]imide; phases: Liquid mixture 1, Liquid mixture 2
Fixed: Temperature, K = 298.15
Fixed: Pressure, kPa = 101
Property: Mole fraction of thiophene (Liquid mixture 1); method: CHROM:UFactor:4
Property: Mole fraction of 1-octyl-3-methylimidazolium bis[(trifluoromethyl)sulfonyl]imide (Liquid mixture 2); method: CHROM:UFactor:4
Property: Mole fraction of thiophene (Liquid mixture 2); method: CHROM:UFactor:4
Mole fraction of 1-octyl-3-methylimidazolium bis[(trifluoromethyl)sulfonyl]imide	Mole fraction of thiophene	uncertainty	Mole fraction of 1-octyl-3-methylimidazolium bis[(trifluoromethyl)sulfonyl]imide	uncertainty	Mole fraction of thiophene	uncertainty
0.911	0	0.001	0	0.001	0	
0.843	0.064	0.006	0.003	0.003	0.046	
0.692	0.213	0.008	0.002	0.002	0.174	
0.538	0.363	0.012	0.003	0.003	0.307	
0.498	0.405	0.013	0.001	0.001	0.375	
0.455	0.446	0.014	0.003	0.003	0.426	
0.413	0.485	0.016	0	0.001	0.457	
0.368	0.529	0.015	0.006	0.004	0.513	
0.336	0.559	0.014	0	0.001	0.597	
0.292	0.604	0.013	0.006	0.004	0.667	
0.218	0.676	0.011	0.004	0.004	0.797	
0.163	0.741	0.01	0.002	0.002	0.871	
0.059	0.9	0.037	0.002	0.002	0.949	
0.054	0.946	0.037	0	0.001	1	

System: thiophene + cyclohexane + 1-octyl-3-methylimidazolium bis[(trifluoromethyl)sulfonyl]imide; phases: Liquid mixture 1, Liquid mixture 2
Fixed: Temperature, K = 298.15
Fixed: Pressure, kPa = 101
Property: Mole fraction of 1-octyl-3-methylimidazolium bis[(trifluoromethyl)sulfonyl]imide (Liquid mixture 1); method: CHROM:UFactor:4
Property: Mole fraction of 1-octyl-3-methylimidazolium bis[(trifluoromethyl)sulfonyl]imide (Liquid mixture 2); method: CHROM:UFactor:4
Property: Mole fraction of thiophene (Liquid mixture 2); method: CHROM:UFactor:4
Mole fraction of thiophene	Mole fraction of 1-octyl-3-methylimidazolium bis[(trifluoromethyl)sulfonyl]imide	uncertainty	Mole fraction of 1-octyl-3-methylimidazolium bis[(trifluoromethyl)sulfonyl]imide	uncertainty	Mole fraction of thiophene	uncertainty
0	0.646	0.011	0.003	0.003	0	
0.195	0.488	0.015	0.002	0.002	0.087	
0.272	0.419	0.013	0.004	0.004	0.127	
0.427	0.301	0.01	0.003	0.003	0.271	
0.552	0.21	0.008	0.003	0.003	0.455	
0.629	0.166	0.007	0.003	0.003	0.587	
0.698	0.133	0.006	0.003	0.003	0.712	
0.806	0.093	0.005	0.003	0.003	0.838	
0.851	0.08	0.005	0.001	0.001	0.906	
0.946	0.054	0.004	0.001	0.001	1	
