Measured thermophysical data. Measurement and prediction of (solid + liquid) equilibria of gun powder's and propellant's stabilizers mixtures
Source: J. Chem. Thermodyn., 2010, 10.1016/j.jct.2010.03.025
Compound 1: N-nitroso-N-phenylbenzenamine, C12H10N2O, InChI=1S/C12H10N2O/c15-13-14(11-7-3-1-4-8-11)12-9-5-2-6-10-12/h1-10H
Compound 2: diphenylamine, C12H11N, InChI=1S/C12H11N/c1-3-7-11(8-4-1)13-12-9-5-2-6-10-12/h1-10,13H, purity 99%
Compound 3: 1,3-diethyl-1,3-diphenylurea, C17H20N2O, InChI=1S/C17H20N2O/c1-3-18(15-11-7-5-8-12-15)17(20)19(4-2)16-13-9-6-10-14-16/h5-14H,3-4H2,1-2H3, purity 99%
Compound 4: 2-nitrodiphenylamine, C12H10N2O2, InChI=1S/C12H10N2O2/c15-14(16)12-9-5-4-8-11(12)13-10-6-2-1-3-7-10/h1-9,13H, purity 99%
Compound 5: 2,4-dinitrodiphenylamine, C12H9N3O4, InChI=1S/C12H9N3O4/c16-14(17)10-6-7-11(12(8-10)15(18)19)13-9-4-2-1-3-5-9/h1-8,13H
Compound 6: 1,3-diethyl-1,3-bis(4-nitrophenyl)urea, C17H18N4O5, InChI=1S/C17H18N4O5/c1-3-18(13-5-9-15(10-6-13)20(23)24)17(22)19(4-2)14-7-11-16(12-8-14)21(25)26/h5-12H,3-4H2,1-2H3
Compound 7: 1,3-dimethyl-1,3-diphenylurea, C15H16N2O, InChI=1S/C15H16N2O/c1-16(13-9-5-3-6-10-13)15(18)17(2)14-11-7-4-8-12-14/h3-12H,1-2H3, purity 99%
Compound 8: 2,4-dinitro-N-ethylaniline, C8H9N3O4, InChI=1S/C8H9N3O4/c1-2-9-7-4-3-6(10(12)13)5-8(7)11(14)15/h3-5,9H,2H2,1H3

System: N-nitroso-N-phenylbenzenamine; phases: Crystal, Liquid, Air at 1 atmosphere
Property: Molar enthalpy of transition or fusion, kJ/mol (Crystal); method: DSC
Molar enthalpy of transition or fusion, kJ/mol	uncertainty
11.06	0.39

System: N-nitroso-N-phenylbenzenamine; phases: Crystal, Liquid, Air at 1 atmosphere
Property: Normal melting temperature, K (Crystal); method: DTA
Normal melting temperature, K	uncertainty
340.05	0.5

System: diphenylamine; phases: Crystal, Liquid, Air at 1 atmosphere
Property: Molar enthalpy of transition or fusion, kJ/mol (Crystal); method: DSC
Molar enthalpy of transition or fusion, kJ/mol	uncertainty
19.68	0.59

System: diphenylamine; phases: Crystal, Liquid, Air at 1 atmosphere
Property: Normal melting temperature, K (Crystal); method: DTA
Normal melting temperature, K	uncertainty
326.65	0.5

System: 1,3-diethyl-1,3-diphenylurea; phases: Crystal, Liquid, Air at 1 atmosphere
Property: Molar enthalpy of transition or fusion, kJ/mol (Crystal); method: DSC
Molar enthalpy of transition or fusion, kJ/mol	uncertainty
33.54	0.94

System: 1,3-diethyl-1,3-diphenylurea; phases: Crystal, Liquid, Air at 1 atmosphere
Property: Normal melting temperature, K (Crystal); method: DTA
Normal melting temperature, K	uncertainty
345.02	0.5

System: 2-nitrodiphenylamine; phases: Crystal, Liquid, Air at 1 atmosphere
Property: Molar enthalpy of transition or fusion, kJ/mol (Crystal); method: DSC
Molar enthalpy of transition or fusion, kJ/mol	uncertainty
26.14	0.76

System: 2-nitrodiphenylamine; phases: Crystal, Liquid, Air at 1 atmosphere
Property: Normal melting temperature, K (Crystal); method: DTA
Normal melting temperature, K	uncertainty
347.94	0.5

System: 2,4-dinitrodiphenylamine; phases: Crystal, Liquid, Air at 1 atmosphere
Property: Molar enthalpy of transition or fusion, kJ/mol (Crystal); method: DSC
Molar enthalpy of transition or fusion, kJ/mol	uncertainty
14.37	0.47

System: 2,4-dinitrodiphenylamine; phases: Crystal, Liquid, Air at 1 atmosphere
Property: Normal melting temperature, K (Crystal); method: DTA
Normal melting temperature, K	uncertainty
431.35	0.5

System: 1,3-diethyl-1,3-bis(4-nitrophenyl)urea; phases: Crystal, Liquid, Air at 1 atmosphere
Property: Molar enthalpy of transition or fusion, kJ/mol (Crystal); method: DSC
Molar enthalpy of transition or fusion, kJ/mol	uncertainty
35.6	1

System: 1,3-diethyl-1,3-bis(4-nitrophenyl)urea; phases: Crystal, Liquid, Air at 1 atmosphere
Property: Normal melting temperature, K (Crystal); method: DTA
Normal melting temperature, K	uncertainty
420.45	0.5

System: 1,3-dimethyl-1,3-diphenylurea; phases: Crystal, Liquid, Air at 1 atmosphere
Property: Molar enthalpy of transition or fusion, kJ/mol (Crystal); method: DSC
Molar enthalpy of transition or fusion, kJ/mol	uncertainty
33.47	0.94

System: 1,3-dimethyl-1,3-diphenylurea; phases: Crystal, Liquid, Air at 1 atmosphere
Property: Normal melting temperature, K (Crystal); method: DTA
Normal melting temperature, K	uncertainty
395.05	0.5

System: 2,4-dinitro-N-ethylaniline; phases: Crystal, Liquid, Air at 1 atmosphere
Property: Molar enthalpy of transition or fusion, kJ/mol (Crystal); method: DSC
Molar enthalpy of transition or fusion, kJ/mol	uncertainty
19.67	0.6

System: 2,4-dinitro-N-ethylaniline; phases: Crystal, Liquid, Air at 1 atmosphere
Property: Normal melting temperature, K (Crystal); method: DTA
Normal melting temperature, K	uncertainty
387.15	0.5

System: N-nitroso-N-phenylbenzenamine + diphenylamine; phases: Liquid, Crystal
Fixed: Pressure, kPa = 101
Property: Solid-liquid equilibrium temperature, K (Liquid); method: DTA
Mole fraction of N-nitroso-N-phenylbenzenamine	Solid-liquid equilibrium temperature, K	uncertainty
0	326.65	2.03
0.0481	324.05	2.03
0.091	322.05	2.03
0.1549	318.95	2.03
0.1967	317.25	2.03
0.2318	315.45	2.03
0.3087	311.35	2.03
0.3596	308.35	2.03
0.3905	306.65	2.03
0.4543	302.75	2.03
0.4888	300.85	2.03
0.5001	300.15	2.03

System: N-nitroso-N-phenylbenzenamine + diphenylamine; phases: Liquid, Crystal
Fixed: Pressure, kPa = 101
Property: Solid-liquid equilibrium temperature, K (Liquid); method: DTA
Mole fraction of N-nitroso-N-phenylbenzenamine	Solid-liquid equilibrium temperature, K	uncertainty
0.5486	298.55	2.03
0.6088	304.15	2.03
0.6555	308.35	2.03
0.7099	312.85	2.03
0.7474	315.25	2.03
0.8084	320.45	2.03
0.8551	325.32	2.03
0.9086	330.26	2.03
0.9694	335.98	2.03
1	340.05	2.03

System: N-nitroso-N-phenylbenzenamine + diphenylamine; phases: Liquid, Crystal, Crystal
Property: Eutectic temperature, K (Liquid); method: DTA
Pressure, kPa	Eutectic temperature, K	uncertainty
101.3	296.45	2.03

System: N-nitroso-N-phenylbenzenamine + diphenylamine; phases: Liquid, Crystal, Crystal
Property: Eutectic composition: mole fraction of N-nitroso-N-phenylbenzenamine (Liquid); method: Derived from phase diagram analysis
Pressure, kPa	Eutectic composition: mole fraction of N-nitroso-N-phenylbenzenamine	uncertainty
101.3	0.5185	0.0048

System: 1,3-diethyl-1,3-diphenylurea + 2-nitrodiphenylamine; phases: Liquid, Crystal
Fixed: Pressure, kPa = 101
Property: Solid-liquid equilibrium temperature, K (Liquid); method: DTA
Mole fraction of 2-nitrodiphenylamine	Solid-liquid equilibrium temperature, K	uncertainty
0	345.02	2.03
0.0511	342.5	2.03
0.09	340.26	2.03
0.141	338.29	2.03
0.1908	336.6	2.03
0.2516	334	2.03
0.2981	332.33	2.03
0.3468	330.05	2.03
0.3982	328.35	2.03
0.432	327.95	2.03
0.4898	325.95	2.03

System: 1,3-diethyl-1,3-diphenylurea + 2-nitrodiphenylamine; phases: Liquid, Crystal
Fixed: Pressure, kPa = 101
Property: Solid-liquid equilibrium temperature, K (Liquid); method: DTA
Mole fraction of 2-nitrodiphenylamine	Solid-liquid equilibrium temperature, K	uncertainty
0.5134	325.15	2.03
0.5543	327.05	2.03
0.5976	329.45	2.03
0.6507	331.85	2.03
0.7199	334.85	2.03
0.7501	336.05	2.03
0.8086	338.65	2.03
0.8592	340.55	2.03
0.9099	342.95	2.03
0.9598	345.05	2.03
1	347.94	2.03

System: 1,3-diethyl-1,3-diphenylurea + 2-nitrodiphenylamine; phases: Liquid, Crystal, Crystal
Property: Eutectic temperature, K (Liquid); method: DTA
Pressure, kPa	Eutectic temperature, K	uncertainty
101.3	325.45	2.03

System: 1,3-diethyl-1,3-diphenylurea + 2-nitrodiphenylamine; phases: Liquid, Crystal, Crystal
Property: Eutectic composition: mole fraction of 1,3-diethyl-1,3-diphenylurea (Liquid); method: Derived from phase diagram analysis
Pressure, kPa	Eutectic composition: mole fraction of 1,3-diethyl-1,3-diphenylurea	uncertainty
101.3	0.5092	0.0049

System: 2,4-dinitrodiphenylamine + 1,3-diethyl-1,3-bis(4-nitrophenyl)urea; phases: Liquid, Crystal
Fixed: Pressure, kPa = 101
Property: Solid-liquid equilibrium temperature, K (Liquid); method: DTA
Mole fraction of 1,3-diethyl-1,3-bis(4-nitrophenyl)urea	Solid-liquid equilibrium temperature, K	uncertainty
0	431.35	2.03
0.043	427.55	2.03
0.1137	422.95	2.03
0.1545	420.65	2.03
0.2078	416.95	2.03
0.2632	412.45	2.03
0.3172	408.19	2.03
0.3687	405.45	2.03
0.4075	402.62	2.03
0.4511	398.18	2.03
0.4899	395.45	2.03

System: 2,4-dinitrodiphenylamine + 1,3-diethyl-1,3-bis(4-nitrophenyl)urea; phases: Liquid, Crystal
Fixed: Pressure, kPa = 101
Property: Solid-liquid equilibrium temperature, K (Liquid); method: DTA
Mole fraction of 2,4-dinitrodiphenylamine	Solid-liquid equilibrium temperature, K	uncertainty
0.5217	393.93	2.03
0.5437	394.9	2.03
0.6093	397.85	2.03
0.6528	400.61	2.03
0.7089	404.03	2.03
0.7756	407.89	2.03
0.8189	409.69	2.03
0.8543	411.12	2.03
0.9068	414.23	2.03
0.9594	417.63	2.03
1	420.45	2.03

System: 2,4-dinitrodiphenylamine + 1,3-diethyl-1,3-bis(4-nitrophenyl)urea; phases: Liquid, Crystal, Crystal
Property: Eutectic temperature, K (Liquid); method: DTA
Pressure, kPa	Eutectic temperature, K	uncertainty
101.3	392.95	2.03

System: 2,4-dinitrodiphenylamine + 1,3-diethyl-1,3-bis(4-nitrophenyl)urea; phases: Liquid, Crystal, Crystal
Property: Eutectic composition: mole fraction of 2,4-dinitrodiphenylamine (Liquid); method: Derived from phase diagram analysis
Pressure, kPa	Eutectic composition: mole fraction of 2,4-dinitrodiphenylamine	uncertainty
101.3	0.5059	0.0049

System: 1,3-dimethyl-1,3-diphenylurea + 2,4-dinitro-N-ethylaniline; phases: Liquid, Crystal
Fixed: Pressure, kPa = 101
Property: Solid-liquid equilibrium temperature, K (Liquid); method: DTA
Mole fraction of 2,4-dinitro-N-ethylaniline	Solid-liquid equilibrium temperature, K	uncertainty
0	395.05	2.03
0.0981	390.15	2.03
0.146	387.45	2.03
0.207	384.05	2.03
0.2494	381.75	2.03
0.3025	378.5	2.03
0.3542	375.68	2.03
0.4433	371.41	2.03
0.4962	368.98	2.03

System: 1,3-dimethyl-1,3-diphenylurea + 2,4-dinitro-N-ethylaniline; phases: Liquid, Crystal
Fixed: Pressure, kPa = 101
Property: Solid-liquid equilibrium temperature, K (Liquid); method: DTA
Mole fraction of 2,4-dinitro-N-ethylaniline	Solid-liquid equilibrium temperature, K	uncertainty
0.6503	367.81	2.03
0.6969	369.65	2.03
0.7989	374.15	2.03
0.8474	377.21	2.03
0.9002	380.05	2.03
0.9531	384.15	2.03
1	387.15	2.03

System: 1,3-dimethyl-1,3-diphenylurea + 2,4-dinitro-N-ethylaniline; phases: Liquid, Crystal, Crystal
Property: Eutectic temperature, K (Liquid); method: DTA
Pressure, kPa	Eutectic temperature, K	uncertainty
101.3	365.05	2.03

System: 1,3-dimethyl-1,3-diphenylurea + 2,4-dinitro-N-ethylaniline; phases: Liquid, Crystal, Crystal
Property: Eutectic composition: mole fraction of 1,3-dimethyl-1,3-diphenylurea (Liquid); method: Derived from phase diagram analysis
Pressure, kPa	Eutectic composition: mole fraction of 1,3-dimethyl-1,3-diphenylurea	uncertainty
101.3	0.5985	0.004
