Measured thermophysical data. High pressure measurement and CPA equation of state for solubility of carbon dioxide and hydrogen sulfide in 1-butyl-3-methylimidazolium acetate
Source: J. Chem. Thermodyn., 2015, 10.1016/j.jct.2015.04.032
Compound 1: 1-butyl-3-methylimidazolium acetate, C10H18N2O2, InChI=1S/C8H15N2.C2H4O2/c1-3-4-5-10-7-6-9(2)8-10;1-2(3)4/h6-8H,3-5H2,1-2H3;1H3,(H,3,4)/q+1;/p-1, purity 95%
Compound 2: carbon dioxide, CO2, InChI=1S/CO2/c2-1-3, purity 99.998%
Compound 3: hydrogen sulfide, H2S, InChI=1S/H2S/h1H2, purity 98%

System: carbon dioxide + 1-butyl-3-methylimidazolium acetate; phases: Liquid, Gas
Property: Mole fraction of carbon dioxide (Liquid); method: volumetric
Temperature, K	Pressure, kPa	Mole fraction of carbon dioxide	uncertainty
303.15	112	0.26	0.016
303.15	281.2	0.292	0.008
303.15	532	0.321	0.007
303.15	908.5	0.352	0.005
303.15	1366.7	0.384	0.004
303.15	1863.6	0.415	0.036
303.15	2429.5	0.447	0.024
303.15	2910.5	0.469	0.015
303.15	3573.3	0.498	0.009
328.15	195.5	0.194	0.034
328.15	368.2	0.229	0.022
328.15	589.5	0.259	0.018
328.15	935.4	0.294	0.014
328.15	1388.1	0.324	0.008
328.15	2019	0.367	0.007
328.15	2493.1	0.393	0.03
328.15	2980.5	0.413	0.022
328.15	3642	0.438	0.015
343.15	270.1	0.198	0.01
343.15	430.8	0.233	0.042
343.15	620.5	0.264	0.034
343.15	940.2	0.289	0.026
343.15	1492.2	0.32	0.02
343.15	2108.7	0.351	0.012
343.15	2494.7	0.368	0.009
343.15	3026.7	0.387	0.007
343.15	3708.2	0.408	0.028

System: carbon dioxide + hydrogen sulfide + 1-butyl-3-methylimidazolium acetate; phases: Liquid, Gas
Property: Mole fraction of hydrogen sulfide (Liquid); method: volumetric
Property: Mole fraction of hydrogen sulfide (Gas); method: volumetric
Property: Mole fraction of carbon dioxide (Gas); method: volumetric
Temperature, K	Pressure, kPa	Mole fraction of carbon dioxide	Mole fraction of hydrogen sulfide	uncertainty	Mole fraction of hydrogen sulfide	uncertainty	Mole fraction of carbon dioxide	uncertainty
303.15	271	0.1924	0.10635	0.00143	0.0234	0.01	0.9766	
303.15	537	0.2138	0.1288	0.0015	0.0294	0.01	0.9706	
303.15	749.2	0.2259	0.1451	0.0015	0.036	0.01	0.964	
303.15	960.7	0.2359	0.1602	0.0015	0.0393	0.01	0.9607	
303.15	1159.3	0.2436	0.1743	0.0016	0.0438	0.01	0.9562	
303.15	1340.8	0.2502	0.1869	0.0016	0.0506	0.01	0.9494	
303.15	1597.2	0.2599	0.2054	0.0017	0.0588	0.01	0.9412	
303.15	1828.4	0.2656	0.2184	0.0017	0.0637	0.01	0.9363	
323.15	276.7	0.1767	0.0918	0.0014	0.0226	0.01	0.9774	
323.15	484.9	0.1915	0.1077	0.0014	0.0296	0.01	0.9704	
323.15	808.1	0.207	0.1294	0.0015	0.033	0.01	0.967	
323.15	1129	0.2177	0.1488	0.0015	0.0386	0.01	0.9614	
323.15	1291.3	0.2241	0.1607	0.0015	0.0456	0.01	0.9544	
323.15	1506.5	0.2301	0.1735	0.0016	0.0507	0.01	0.9493	
323.15	1767.6	0.2355	0.1872	0.0016	0.0554	0.01	0.9446	
323.15	2099.6	0.2419	0.2037	0.0017	0.0607	0.01	0.9393	
343.15	422.5	0.1712	0.0915	0.0014	0.03149	0.01	0.96851	
343.15	591.5	0.1804	0.1035	0.0014	0.0323	0.01	0.9677	
343.15	860.3	0.1934	0.1256	0.0015	0.0388	0.01	0.9612	
343.15	1099.6	0.2029	0.1381	0.0015	0.0448	0.01	0.9552	
343.15	1327	0.2095	0.1497	0.0015	0.0489	0.01	0.9511	
343.15	1546.7	0.2151	0.1603	0.0015	0.0531	0.01	0.9469	
343.15	1871	0.2219	0.1742	0.0016	0.06	0.01	0.94	
343.15	2161.1	0.2264	0.1863	0.0016	0.0659	0.01	0.9341	
