Measured thermophysical data. Solubility and mixing thermodynamic properties of levamisole hydrochloride in twelve pure solvents at various temperatures
Source: J. Chem. Thermodyn., 2019, 10.1016/j.jct.2019.105882
Compound 1: (-)-Levamisole hydrochloride, C11H13ClN2S, InChI=1S/C11H12N2S.ClH/c1-2-4-9(5-3-1)10-8-13-6-7-14-11(13)12-10;/h1-5,10H,6-8H2;1H/t10-;/m1./s1, purity 99%
Compound 2: dimethyl sulfoxide, C2H6OS, InChI=1S/C2H6OS/c1-4(2)3/h1-2H3, purity 99%
Compound 3: methanol, CH4O, InChI=1S/CH4O/c1-2/h2H,1H3, purity 99.9%
Compound 4: ethanol, C2H6O, InChI=1S/C2H6O/c1-2-3/h3H,2H2,1H3, purity 99.5%
Compound 5: propan-1-ol, C3H8O, InChI=1S/C3H8O/c1-2-3-4/h4H,2-3H2,1H3, purity 99%
Compound 6: butan-1-ol, C4H10O, InChI=1S/C4H10O/c1-2-3-4-5/h5H,2-4H2,1H3, purity 99%
Compound 7: pentan-1-ol, C5H12O, InChI=1S/C5H12O/c1-2-3-4-5-6/h6H,2-5H2,1H3, purity 99%
Compound 8: hexan-1-ol, C6H14O, InChI=1S/C6H14O/c1-2-3-4-5-6-7/h7H,2-6H2,1H3, purity 98%
Compound 9: propan-2-ol, C3H8O, InChI=1S/C3H8O/c1-3(2)4/h3-4H,1-2H3, purity 99%
Compound 10: 2-methyl-1-propanol, C4H10O, InChI=1S/C4H10O/c1-4(2)3-5/h4-5H,3H2,1-2H3, purity 98%
Compound 11: 3-methylbutan-1-ol, C5H12O, InChI=1S/C5H12O/c1-5(2)3-4-6/h5-6H,3-4H2,1-2H3, purity 98.5%
Compound 12: butan-2-ol, C4H10O, InChI=1S/C4H10O/c1-3-4(2)5/h4-5H,3H2,1-2H3, purity 99%
Compound 13: water, H2O, InChI=1S/H2O/h1H2, purity 99.9%

System: (-)-Levamisole hydrochloride; phases: Crystal, Liquid, Air at 1 atmosphere
Property: Normal melting temperature, K (Crystal); method: DTA
Normal melting temperature, K	uncertainty
499.15	1.06

System: (-)-Levamisole hydrochloride; phases: Crystal, Liquid, Air at 1 atmosphere
Property: Molar enthalpy of transition or fusion, kJ/mol (Crystal); method: DSC
Molar enthalpy of transition or fusion, kJ/mol	uncertainty
31.11	2.26

System: (-)-Levamisole hydrochloride; phases: Crystal
Property: Mass density, kg/m3 (Crystal); method: X-ray diffraction
Temperature, K	Pressure, kPa	Mass density, kg/m3	uncertainty
298	101.325	1416	10

System: (-)-Levamisole hydrochloride + dimethyl sulfoxide; phases: Liquid, Crystal
Fixed: Pressure, kPa = 101.3
Property: Mole fraction of (-)-Levamisole hydrochloride (Liquid); method: Titration method
Temperature, K	Mole fraction of (-)-Levamisole hydrochloride	uncertainty
293.15	0.01168	0.0014
298.15	0.01287	0.00154
303.15	0.01403	0.00168
308.15	0.01567	0.00188
313.15	0.01732	0.00208
318.15	0.01928	0.00231
323.15	0.02182	0.00262
328.15	0.02368	0.00284
333.15	0.02646	0.00318

System: (-)-Levamisole hydrochloride + methanol; phases: Liquid, Crystal
Fixed: Pressure, kPa = 101.3
Property: Mole fraction of (-)-Levamisole hydrochloride (Liquid); method: Titration method
Temperature, K	Mole fraction of (-)-Levamisole hydrochloride	uncertainty
283.15	0.02982	0.00358
288.15	0.0357	0.00429
293.15	0.04291	0.00515
298.15	0.05129	0.00616
303.15	0.05951	0.00714
308.15	0.06956	0.00835
313.15	0.08156	0.00979
318.15	0.0955	0.01147
323.15	0.1087	0.013

System: (-)-Levamisole hydrochloride + ethanol; phases: Liquid, Crystal
Fixed: Pressure, kPa = 101.3
Property: Mole fraction of (-)-Levamisole hydrochloride (Liquid); method: Titration method
Temperature, K	Mole fraction of (-)-Levamisole hydrochloride	uncertainty
283.15	0.007527	0.000904
288.15	0.008813	0.001058
293.15	0.01012	0.00122
298.15	0.01193	0.00143
303.15	0.01527	0.00183
308.15	0.01776	0.00213
313.15	0.02006	0.00241
318.15	0.0244	0.00293
323.15	0.02887	0.00347

System: (-)-Levamisole hydrochloride + butan-1-ol; phases: Liquid, Crystal
Fixed: Pressure, kPa = 101.3
Property: Mole fraction of (-)-Levamisole hydrochloride (Liquid); method: Titration method
Temperature, K	Mole fraction of (-)-Levamisole hydrochloride	uncertainty
283.15	0.001824	0.000219
288.15	0.002356	0.000283
293.15	0.003111	0.000374
298.15	0.004065	0.000488
303.15	0.005421	0.000651
308.15	0.006993	0.00084
313.15	0.008879	0.001066
318.15	0.01112	0.00134
323.15	0.01387	0.00167

System: (-)-Levamisole hydrochloride + pentan-1-ol; phases: Liquid, Crystal
Fixed: Pressure, kPa = 101.3
Property: Mole fraction of (-)-Levamisole hydrochloride (Liquid); method: Titration method
Temperature, K	Mole fraction of (-)-Levamisole hydrochloride	uncertainty
283.15	0.0007471	9e-05
288.15	0.001125	0.000135
293.15	0.001605	0.000193
298.15	0.002087	0.000251
303.15	0.002933	0.000352
308.15	0.003765	0.000452
313.15	0.004712	0.000566
318.15	0.006052	0.000727
323.15	0.007452	0.000895

System: (-)-Levamisole hydrochloride + hexan-1-ol; phases: Liquid, Crystal
Fixed: Pressure, kPa = 101.3
Property: Mole fraction of (-)-Levamisole hydrochloride (Liquid); method: Titration method
Temperature, K	Mole fraction of (-)-Levamisole hydrochloride	uncertainty
283.15	0.0007265	8.73e-05
288.15	0.0009855	0.0001185
293.15	0.001365	0.000164
298.15	0.001984	0.000238
303.15	0.002264	0.000272
308.15	0.00283	0.00034
313.15	0.003502	0.000421
318.15	0.00437	0.000525
323.15	0.005237	0.000629

System: (-)-Levamisole hydrochloride + propan-2-ol; phases: Liquid, Crystal
Fixed: Pressure, kPa = 101.3
Property: Mole fraction of (-)-Levamisole hydrochloride (Liquid); method: Titration method
Temperature, K	Mole fraction of (-)-Levamisole hydrochloride	uncertainty
283.15	0.0008564	0.0001029
288.15	0.001041	0.000125
293.15	0.001381	0.000166
298.15	0.001793	0.000215
303.15	0.002248	0.00027
308.15	0.002752	0.00033
313.15	0.003193	0.000383
318.15	0.00401	0.000482
323.15	0.004751	0.00057

System: (-)-Levamisole hydrochloride + 2-methyl-1-propanol; phases: Liquid, Crystal
Fixed: Pressure, kPa = 101.3
Property: Mole fraction of (-)-Levamisole hydrochloride (Liquid); method: Titration method
Temperature, K	Mole fraction of (-)-Levamisole hydrochloride	uncertainty
283.15	0.0008693	0.0001047
288.15	0.001307	0.000157
293.15	0.001816	0.000218
298.15	0.002468	0.000297
303.15	0.00334	0.000401
308.15	0.004475	0.000538
313.15	0.005773	0.000694
318.15	0.007469	0.000897
323.15	0.00937	0.001125

System: (-)-Levamisole hydrochloride + 3-methylbutan-1-ol; phases: Liquid, Crystal
Fixed: Pressure, kPa = 101.3
Property: Mole fraction of (-)-Levamisole hydrochloride (Liquid); method: Titration method
Temperature, K	Mole fraction of (-)-Levamisole hydrochloride	uncertainty
283.15	0.001081	0.00013
288.15	0.001343	0.000161
293.15	0.00182	0.000219
298.15	0.002344	0.000282
303.15	0.002875	0.000345
308.15	0.004016	0.000483
313.15	0.005423	0.000651
318.15	0.006764	0.000812
323.15	0.008726	0.001048

System: (-)-Levamisole hydrochloride + butan-2-ol; phases: Liquid, Crystal
Fixed: Pressure, kPa = 101.3
Property: Mole fraction of (-)-Levamisole hydrochloride (Liquid); method: Titration method
Temperature, K	Mole fraction of (-)-Levamisole hydrochloride	uncertainty
283.15	0.0005873	7.05e-05
288.15	0.0007218	8.67e-05
293.15	0.0008675	0.0001042
298.15	0.00105	0.000126
303.15	0.001234	0.000148
308.15	0.001484	0.000178
313.15	0.001767	0.000212
318.15	0.002128	0.000256
323.15	0.002516	0.000302

System: (-)-Levamisole hydrochloride + water; phases: Liquid, Crystal
Fixed: Pressure, kPa = 101.3
Property: Mole fraction of (-)-Levamisole hydrochloride (Liquid); method: Titration method
Temperature, K	Mole fraction of (-)-Levamisole hydrochloride	uncertainty
283.15	0.06644	0.00798
285.65	0.0718	0.00862
288.15	0.07688	0.00923
290.65	0.08252	0.00991
293.15	0.08793	0.01056
295.65	0.09429	0.01132
298.15	0.1005	0.0121
300.65	0.1063	0.0128
303.15	0.1127	0.0135
305.65	0.1197	0.0144
308.15	0.1269	0.0152

System: (-)-Levamisole hydrochloride + propan-1-ol; phases: Liquid, Crystal
Fixed: Pressure, kPa = 101.3
Property: Mole fraction of (-)-Levamisole hydrochloride (Liquid); method: Titration method
Temperature, K	Mole fraction of (-)-Levamisole hydrochloride	uncertainty
283.15	0.004122	0.000495
288.15	0.004924	0.000591
293.15	0.006307	0.000757
298.15	0.00751	0.000902
303.15	0.009035	0.001085
308.15	0.01094	0.00131
313.15	0.01299	0.00156
318.15	0.01492	0.00179
323.15	0.0169	0.00203
