Measured thermophysical data. Volumetric properties of binary mixtures of (water + organic solvents) at temperatures between T = 288.15 K and T = 303.15 K at p = 0.1 MPa
Source: J. Chem. Thermodyn., 2006, 10.1016/j.jct.2005.07.012
Compound 1: formamide, CH3NO, InChI=1S/CH3NO/c2-1-3/h1H,(H2,2,3), purity 99.5%
Compound 2: dimethylformamide, C3H7NO, InChI=1S/C3H7NO/c1-4(2)3-5/h3H,1-2H3, purity 99.5%
Compound 3: dimethyl sulfoxide, C2H6OS, InChI=1S/C2H6OS/c1-4(2)3/h1-2H3, purity 99.5%
Compound 4: N,N-dimethylethanamide, C4H9NO, InChI=1S/C4H9NO/c1-4(6)5(2)3/h1-3H3, purity 99%
Compound 5: 1,4-dioxane, C4H8O2, InChI=1S/C4H8O2/c1-2-6-4-3-5-1/h1-4H2, purity 99.5%
Compound 6: water, H2O, InChI=1S/H2O/h1H2

System: formamide; phases: Liquid
Property: Mass density, kg/m3 (Liquid); method: VIBTUB:UFactor:12
Temperature, K	Pressure, kPa	Mass density, kg/m3	uncertainty
293.15	101.325	1134.1	1.34

System: dimethylformamide; phases: Liquid
Property: Mass density, kg/m3 (Liquid); method: VIBTUB:UFactor:12
Temperature, K	Pressure, kPa	Mass density, kg/m3	uncertainty
293.15	101.325	949.17	0.83

System: dimethyl sulfoxide; phases: Liquid
Property: Mass density, kg/m3 (Liquid); method: VIBTUB:UFactor:12
Temperature, K	Pressure, kPa	Mass density, kg/m3	uncertainty
293.15	101.325	1100.4	1.14

System: N,N-dimethylethanamide; phases: Liquid
Property: Mass density, kg/m3 (Liquid); method: VIBTUB:UFactor:12
Temperature, K	Pressure, kPa	Mass density, kg/m3	uncertainty
293.15	101.325	936.54	0.99

System: 1,4-dioxane; phases: Liquid
Property: Mass density, kg/m3 (Liquid); method: VIBTUB:UFactor:12
Temperature, K	Pressure, kPa	Mass density, kg/m3	uncertainty
293.15	101.325	1033.8	0.74

System: formamide + water; phases: Liquid
Fixed: Pressure, kPa = 100
Property: Mass density, kg/m3 (Liquid); method: VIBTUB:UFactor:16
Temperature, K	Mole fraction of water	Mass density, kg/m3	uncertainty
288.15	0.0295	1136.5	1.77
288.15	0.0413	1135.86	1.76
288.15	0.0597	1135.06	1.75
288.15	0.0723	1134.51	1.75
288.15	0.1507	1131.31	1.72
288.15	0.2002	1128.23	1.69
288.15	0.2473	1125.09	1.67
288.15	0.4487	1107.72	1.52
288.15	0.4991	1102.51	1.48
288.15	0.5495	1096.69	1.43
288.15	0.5988	1090.46	1.38
288.15	0.7995	1056.67	1.1
288.15	0.8497	1045.55	1.01
288.15	0.8998	1032.59	0.91
288.15	0.9195	1026.93	0.86
288.15	0.9299	1023.79	0.84
288.15	0.9398	1020.71	0.81
288.15	0.9495	1017.55	0.78
288.15	0.9597	1014.1	0.76
288.15	0.9697	1010.61	0.73
288.15	0.9798	1006.95	0.7
288.15	0.9942	1001.45	0.65
293.15	0.0295	1132.12	1.73
293.15	0.0413	1131.38	1.72
293.15	0.0597	1130.87	1.72
293.15	0.0723	1130.34	1.71
293.15	0.1507	1127.17	1.69
293.15	0.2002	1124.15	1.66
293.15	0.2473	1121.02	1.63
293.15	0.4487	1103.85	1.49
293.15	0.4991	1098.75	1.45
293.15	0.5495	1093.06	1.4
293.15	0.5988	1086.89	1.35
293.15	0.7995	1053.8	1.08
293.15	0.8497	1042.97	0.99
293.15	0.8998	1030.41	0.89
293.15	0.9195	1024.94	0.84
293.15	0.9299	1021.91	0.82
293.15	0.9398	1018.89	0.8
293.15	0.9495	1015.9	0.77
293.15	0.9597	1012.55	0.74
293.15	0.9697	1009.2	0.72
293.15	0.9798	1005.7	0.69
293.15	0.9942	1000.47	0.65
298.15	0.0295	1127.91	1.7
298.15	0.0413	1127.17	1.69
298.15	0.0597	1126.65	1.69
298.15	0.0723	1126.16	1.68
298.15	0.1507	1123.02	1.65
298.15	0.2002	1120.04	1.63
298.15	0.2473	1116.92	1.6
298.15	0.4487	1099.97	1.46
298.15	0.4991	1094.93	1.42
298.15	0.5495	1089.36	1.37
298.15	0.5988	1083.26	1.32
298.15	0.7995	1050.89	1.06
298.15	0.8497	1040.27	0.97
298.15	0.8998	1028.08	0.87
298.15	0.9195	1022.77	0.83
298.15	0.9299	1019.84	0.8
298.15	0.9398	1016.93	0.78
298.15	0.9495	1014.05	0.76
298.15	0.9597	1010.82	0.73
298.15	0.9697	1007.6	0.7
298.15	0.9798	1004.2	0.68
298.15	0.9942	999.2	0.65
303.15	0.0295	1123.7	1.66
303.15	0.0413	1123.01	1.66
303.15	0.0597	1122.45	1.65
303.15	0.0723	1121.92	1.65
303.15	0.1507	1118.87	1.62
303.15	0.2002	1115.92	1.59
303.15	0.2473	1112.82	1.57
303.15	0.4487	1096.07	1.43
303.15	0.4991	1091.08	1.39
303.15	0.5495	1085.61	1.34
303.15	0.5988	1079.58	1.29
303.15	0.7995	1047.84	1.03
303.15	0.8497	1037.44	0.95
303.15	0.8998	1025.6	0.85
303.15	0.9195	1020.5	0.81
303.15	0.9299	1017.63	0.79
303.15	0.9398	1014.86	0.76
303.15	0.9495	1012.03	0.74
303.15	0.9597	1008.91	0.71
303.15	0.9697	1005.86	0.69
303.15	0.9798	1002.56	0.66
303.15	0.9942	997.72	0.66

System: 1,4-dioxane + water; phases: Liquid
Fixed: Pressure, kPa = 100
Property: Mass density, kg/m3 (Liquid); method: VIBTUB:UFactor:16
Temperature, K	Mole fraction of water	Mass density, kg/m3	uncertainty
288.15	0.0348	1039.25	0.99
288.15	0.043	1039.3	0.99
288.15	0.063	1039.39	0.99
288.15	0.0889	1039.69	0.99
288.15	0.1109	1039.8	0.99
288.15	0.1556	1040.09	0.99
288.15	0.1993	1040.88	1
288.15	0.2577	1041.6	1
288.15	0.3017	1042.14	1
288.15	0.3508	1042.6	1
288.15	0.4013	1043.4	1.01
288.15	0.4489	1043.84	1.01
288.15	0.5006	1044.46	1.01
288.15	0.5511	1045.07	1.02
288.15	0.6022	1045.22	1.02
288.15	0.6491	1045.78	1.02
288.15	0.7003	1045.49	1.01
288.15	0.7495	1044.83	1.01
288.15	0.7999	1042.65	0.99
288.15	0.8461	1038.95	0.96
288.15	0.9001	1030.74	0.89
288.15	0.9196	1027.33	0.86
288.15	0.95	1018.57	0.79
288.15	0.9694	1011.99	0.74
288.15	0.9974	1000.05	0.64
293.15	0.0348	1033.65	0.95
293.15	0.043	1033.66	0.95
293.15	0.063	1033.81	0.95
293.15	0.0889	1034.1	0.95
293.15	0.1109	1034.27	0.95
293.15	0.1556	1034.59	0.95
293.15	0.1993	1035.46	0.95
293.15	0.2577	1036.22	0.96
293.15	0.3017	1036.86	0.96
293.15	0.3508	1037.37	0.96
293.15	0.4013	1038.31	0.97
293.15	0.4489	1038.87	0.97
293.15	0.5006	1039.54	0.97
293.15	0.5511	1040.29	0.98
293.15	0.6022	1040.55	0.98
293.15	0.6491	1041.25	0.98
293.15	0.7003	1040.92	0.98
293.15	0.7495	1040.66	0.97
293.15	0.7999	1038.82	0.96
293.15	0.8461	1034.45	0.92
293.15	0.9001	1027.39	0.86
293.15	0.9196	1024.97	0.85
293.15	0.95	1016.49	0.78
293.15	0.9694	1009.89	0.72
293.15	0.9974	999.11	0.65
298.15	0.0348	1028.03	0.9
298.15	0.043	1028.05	0.9
298.15	0.063	1028.19	0.9
298.15	0.0889	1028.52	0.9
298.15	0.1109	1028.7	0.9
298.15	0.1556	1029.07	0.91
298.15	0.1993	1029.96	0.91
298.15	0.2577	1030.83	0.91
298.15	0.3017	1031.53	0.92
298.15	0.3508	1032.13	0.92
298.15	0.4013	1033.16	0.93
298.15	0.4489	1033.81	0.93
298.15	0.5006	1034.58	0.93
298.15	0.5511	1035.43	0.94
298.15	0.6022	1035.85	0.94
298.15	0.6491	1036.65	0.95
298.15	0.7003	1036.89	0.95
298.15	0.7495	1036.49	0.94
298.15	0.7999	1034.81	0.93
298.15	0.8461	1032.25	0.9
298.15	0.9001	1024.54	0.84
298.15	0.9196	1022.09	0.82
298.15	0.95	1013.6	0.75
298.15	0.9694	1008.3	0.71
298.15	0.9974	997.91	0.66
303.15	0.0348	1022.4	0.86
303.15	0.043	1022.44	0.86
303.15	0.063	1022.58	0.86
303.15	0.0889	1022.95	0.86
303.15	0.1109	1023.12	0.86
303.15	0.1556	1023.55	0.86
303.15	0.1993	1024.48	0.87
303.15	0.2577	1025.42	0.87
303.15	0.3017	1026.19	0.88
303.15	0.3508	1026.86	0.88
303.15	0.4013	1027.98	0.88
303.15	0.4489	1028.72	0.89
303.15	0.5006	1029.6	0.89
303.15	0.5511	1030.54	0.9
303.15	0.6022	1031.1	0.9
303.15	0.6491	1032.01	0.91
303.15	0.7003	1032.43	0.91
303.15	0.7495	1032.27	0.91
303.15	0.7999	1030.74	0.89
303.15	0.8461	1028.98	0.88
303.15	0.9001	1021.62	0.82
303.15	0.9196	1018.06	0.79
303.15	0.95	1010.87	0.73
303.15	0.9694	1006.43	0.69
303.15	0.9974	996.4	0.67

System: dimethyl sulfoxide + water; phases: Liquid
Fixed: Pressure, kPa = 100
Property: Mass density, kg/m3 (Liquid); method: VIBTUB:UFactor:16
Temperature, K	Mole fraction of water	Mass density, kg/m3	uncertainty
288.15	0.0308	1105.54	1.52
288.15	0.0551	1105.84	1.52
288.15	0.0666	1106	1.52
288.15	0.0845	1106.18	1.52
288.15	0.0919	1106.22	1.52
288.15	0.15	1106.64	1.52
288.15	0.3035	1107.71	1.53
288.15	0.4053	1108.48	1.53
288.15	0.4504	1107.53	1.52
288.15	0.499	1107.78	1.52
288.15	0.548	1106.57	1.51
288.15	0.5992	1104.45	1.49
288.15	0.6504	1101.18	1.46
288.15	0.6987	1096.45	1.43
288.15	0.7492	1089.07	1.37
288.15	0.8014	1078.47	1.28
288.15	0.8495	1065.42	1.17
288.15	0.8997	1047.42	1.03
288.15	0.92	1038.95	0.96
288.15	0.9298	1034.59	0.92
288.15	0.9495	1025.37	0.85
288.15	0.9599	1020.2	0.81
288.15	0.9697	1015.21	0.77
288.15	0.9798	1009.97	0.72
293.15	0.0308	1100.52	1.48
293.15	0.0551	1100.84	1.48
293.15	0.0666	1101.05	1.48
293.15	0.0845	1101.21	1.48
293.15	0.0919	1101.26	1.48
293.15	0.15	1101.72	1.48
293.15	0.3035	1102.97	1.49
293.15	0.4053	1103.82	1.49
293.15	0.4504	1102.97	1.48
293.15	0.499	1103.24	1.48
293.15	0.548	1102.26	1.48
293.15	0.5992	1100.14	1.46
293.15	0.6504	1096.99	1.43
293.15	0.6987	1092.41	1.39
293.15	0.7492	1085.28	1.33
293.15	0.8014	1075.06	1.25
293.15	0.8495	1062.38	1.15
293.15	0.8997	1044.95	1.01
293.15	0.92	1036.79	0.94
293.15	0.9298	1032.54	0.91
293.15	0.9495	1023.62	0.83
293.15	0.9599	1018.6	0.79
293.15	0.9697	1013.86	0.75
293.15	0.9798	1008.78	0.71
298.15	0.0308	1095.32	1.44
298.15	0.0551	1095.86	1.44
298.15	0.0666	1096.08	1.44
298.15	0.0845	1096.24	1.44
298.15	0.0919	1096.29	1.44
298.15	0.15	1096.8	1.44
298.15	0.3035	1098.2	1.45
298.15	0.4053	1099.01	1.45
298.15	0.4504	1098.36	1.45
298.15	0.499	1098.66	1.45
298.15	0.548	1097.86	1.44
298.15	0.5992	1095.77	1.42
298.15	0.6504	1092.73	1.4
298.15	0.6987	1088.33	1.36
298.15	0.7492	1081.4	1.3
298.15	0.8014	1071.57	1.22
298.15	0.8495	1059.24	1.12
298.15	0.8997	1042.38	0.99
298.15	0.92	1034.47	0.92
298.15	0.9298	1030.4	0.89
298.15	0.9495	1021.75	0.82
298.15	0.9599	1016.89	0.78
298.15	0.9697	1012.29	0.74
298.15	0.9798	1007.35	0.7
303.15	0.0308	1090.32	1.4
303.15	0.0551	1090.87	1.4
303.15	0.0666	1091.09	1.4
303.15	0.0845	1091.29	1.4
303.15	0.0919	1091.33	1.4
303.15	0.15	1091.9	1.4
303.15	0.3035	1093.42	1.41
303.15	0.4053	1094.49	1.42
303.15	0.4504	1093.75	1.41
303.15	0.499	1094.06	1.41
303.15	0.548	1093.4	1.4
303.15	0.5992	1091.42	1.39
303.15	0.6504	1088.44	1.36
303.15	0.6987	1084.2	1.33
303.15	0.7492	1077.48	1.27
303.15	0.8014	1068.02	1.19
303.15	0.8495	1056.02	1.1
303.15	0.8997	1039.7	0.96
303.15	0.92	1031.95	0.9
303.15	0.9298	1028.16	0.87
303.15	0.9495	1019.74	0.8
303.15	0.9599	1015.07	0.76
303.15	0.9697	1010.48	0.73
303.15	0.9798	1005.71	0.69

System: dimethylformamide + water; phases: Liquid
Fixed: Pressure, kPa = 100
Property: Mass density, kg/m3 (Liquid); method: VIBTUB:UFactor:16
Temperature, K	Mole fraction of water	Mass density, kg/m3	uncertainty
288.15	0.0272	954.77	1.03
288.15	0.0392	955.33	1.03
288.15	0.0508	955.9	1.02
288.15	0.0583	956.27	1.02
288.15	0.0699	956.82	1.02
288.15	0.0777	957.26	1.01
288.15	0.0926	958.04	1
288.15	0.1014	958.48	1
288.15	0.1485	960.97	0.98
288.15	0.1991	963.94	0.95
288.15	0.2514	967.36	0.93
288.15	0.2968	970.78	0.9
288.15	0.3518	974.19	0.87
288.15	0.4013	978.09	0.84
288.15	0.4487	981.42	0.81
288.15	0.5005	985.63	0.77
288.15	0.5487	989.28	0.74
288.15	0.5984	992.73	0.71
288.15	0.6484	995.52	0.69
288.15	0.6994	999.71	0.65
288.15	0.749	1000.85	0.65
288.15	0.8001	1003.68	0.68
288.15	0.8499	1003.75	0.68
288.15	0.9	1002.53	0.66
288.15	0.9197	1001.7	0.66
288.15	0.9298	1001.22	0.65
288.15	0.9399	1000.7	0.65
288.15	0.95	1000.26	0.65
288.15	0.96	999.46	0.65
288.15	0.9699	999.39	0.65
288.15	0.98	999.1	0.65
288.15	0.9974	999.05	0.65
293.15	0.0272	950.03	1.07
293.15	0.0392	950.58	1.07
293.15	0.0508	951.16	1.06
293.15	0.0583	951.51	1.06
293.15	0.0699	952.08	1.05
293.15	0.0777	952.51	1.05
293.15	0.0926	953.31	1.04
293.15	0.1014	953.74	1.04
293.15	0.1485	956.23	1.02
293.15	0.1991	959.32	0.99
293.15	0.2514	962.66	0.96
293.15	0.2968	966.12	0.93
293.15	0.3518	969.5	0.9
293.15	0.4013	973.43	0.87
293.15	0.4487	976.77	0.84
293.15	0.5005	981.01	0.81
293.15	0.5487	984.68	0.78
293.15	0.5984	988.32	0.75
293.15	0.6484	992.1	0.72
293.15	0.6994	995.4	0.69
293.15	0.749	999.7	0.65
293.15	0.8001	999.87	0.65
293.15	0.8499	1000.43	0.65
293.15	0.9	999.8	0.65
293.15	0.9197	999.27	0.65
293.15	0.9298	998.98	0.65
293.15	0.9399	998.6	0.65
293.15	0.95	998.39	0.66
293.15	0.96	997.58	0.66
293.15	0.9699	997.92	0.66
293.15	0.98	997.79	0.66
293.15	0.9974	998.12	0.66
298.15	0.0272	945.27	1.11
298.15	0.0392	945.82	1.1
298.15	0.0508	946.4	1.1
298.15	0.0583	946.74	1.09
298.15	0.0699	947.33	1.09
298.15	0.0777	947.75	1.09
298.15	0.0926	948.57	1.08
298.15	0.1014	948.99	1.08
298.15	0.1485	951.49	1.05
298.15	0.1991	954.58	1.03
298.15	0.2514	957.93	1
298.15	0.2968	961.41	0.97
298.15	0.3518	964.8	0.94
298.15	0.4013	968.76	0.91
298.15	0.4487	972.1	0.88
298.15	0.5005	976.36	0.85
298.15	0.5487	980.08	0.81
298.15	0.5984	983.71	0.78
298.15	0.6484	987.29	0.75
298.15	0.6994	990.55	0.73
298.15	0.749	993.52	0.7
298.15	0.8001	996.01	0.68
298.15	0.8499	996.02	0.68
298.15	0.9	996.81	0.67
298.15	0.9197	996.71	0.67
298.15	0.9298	996.58	0.67
298.15	0.9399	996.39	0.67
298.15	0.95	996.33	0.67
298.15	0.96	996	0.68
298.15	0.9699	996.22	0.67
298.15	0.98	996.28	0.67
298.15	0.9974	996.91	0.67
303.15	0.0272	940.49	1.15
303.15	0.0392	941.05	1.14
303.15	0.0508	941.63	1.14
303.15	0.0583	941.98	1.13
303.15	0.0699	942.56	1.13
303.15	0.0777	942.99	1.12
303.15	0.0926	943.79	1.12
303.15	0.1014	944.23	1.11
303.15	0.1485	946.73	1.09
303.15	0.1991	949.83	1.07
303.15	0.2514	953.2	1.04
303.15	0.2968	956.65	1.01
303.15	0.3518	960.06	0.98
303.15	0.4013	964.03	0.95
303.15	0.4487	967.39	0.92
303.15	0.5005	971.7	0.88
303.15	0.5487	975.39	0.85
303.15	0.5984	979	0.82
303.15	0.6484	983.07	0.79
303.15	0.6994	985.76	0.76
303.15	0.749	989.67	0.73
303.15	0.8001	992.05	0.71
303.15	0.8499	993.29	0.7
303.15	0.9	993.89	0.69
303.15	0.9197	994.04	0.69
303.15	0.9298	994.04	0.69
303.15	0.9399	994.05	0.69
303.15	0.95	994.11	0.69
303.15	0.96	994.11	0.69
303.15	0.9699	994.33	0.69
303.15	0.98	994.59	0.69
303.15	0.9974	995.49	0.68

System: N,N-dimethylethanamide + water; phases: Liquid
Fixed: Pressure, kPa = 100
Property: Mass density, kg/m3 (Liquid); method: VIBTUB:UFactor:16
Temperature, K	Mole fraction of water	Mass density, kg/m3	uncertainty
288.15	0.0323	947.43	1.16
288.15	0.0425	947.96	1.16
288.15	0.0491	948.36	1.15
288.15	0.0564	948.71	1.15
288.15	0.0758	949.81	1.14
288.15	0.1031	951.42	1.12
288.15	0.1984	957.53	1.06
288.15	0.2511	961.6	1.02
288.15	0.3027	965.23	0.99
288.15	0.3507	969.19	0.95
288.15	0.3981	973.78	0.91
288.15	0.4499	977.84	0.87
288.15	0.4993	982.47	0.83
288.15	0.5492	987.23	0.79
288.15	0.6006	992.09	0.74
288.15	0.6507	995.91	0.71
288.15	0.6992	1000.89	0.67
288.15	0.7499	1002.81	0.68
288.15	0.7999	1006.21	0.71
288.15	0.8499	1006.27	0.7
288.15	0.9	1004.08	0.68
288.15	0.9196	1002.76	0.67
288.15	0.9299	1001.92	0.66
288.15	0.9399	1001.02	0.65
288.15	0.9498	1000.29	0.65
288.15	0.9599	999.56	0.65
288.15	0.97	999	0.65
288.15	0.9799	998.59	0.65
293.15	0.0323	942.84	1.2
293.15	0.0425	943.36	1.19
293.15	0.0491	943.75	1.19
293.15	0.0564	944.1	1.18
293.15	0.0758	945.2	1.17
293.15	0.1031	946.79	1.16
293.15	0.1984	952.91	1.09
293.15	0.2511	957.03	1.06
293.15	0.3027	960.59	1.02
293.15	0.3507	964.56	0.99
293.15	0.3981	969.16	0.94
293.15	0.4499	973.14	0.91
293.15	0.4993	977.78	0.87
293.15	0.5492	982.54	0.82
293.15	0.6006	987.42	0.78
293.15	0.6507	989.92	0.75
293.15	0.6992	996.29	0.7
293.15	0.7499	998.58	0.67
293.15	0.7999	1001.99	0.67
293.15	0.8499	1002.61	0.67
293.15	0.9	1001.16	0.66
293.15	0.9196	999.85	0.65
293.15	0.9299	999.52	0.65
293.15	0.9399	998.81	0.65
293.15	0.9498	998.33	0.66
293.15	0.9599	997.8	0.66
293.15	0.97	997.45	0.66
293.15	0.9799	997.26	0.66
298.15	0.0323	938.22	1.23
298.15	0.0425	938.73	1.22
298.15	0.0491	939.14	1.22
298.15	0.0564	939.48	1.22
298.15	0.0758	940.58	1.21
298.15	0.1031	942.19	1.19
298.15	0.1984	948.27	1.13
298.15	0.2511	952.4	1.09
298.15	0.3027	955.93	1.06
298.15	0.3507	959.92	1.02
298.15	0.3981	964.47	0.98
298.15	0.4499	968.44	0.94
298.15	0.4993	973.06	0.9
298.15	0.5492	977.81	0.86
298.15	0.6006	982.69	0.81
298.15	0.6507	986.39	0.78
298.15	0.6992	991.65	0.73
298.15	0.7499	994.53	0.7
298.15	0.7999	997.67	0.67
298.15	0.8499	998.27	0.67
298.15	0.9	998.06	0.66
298.15	0.9196	997.12	0.67
298.15	0.9299	996.96	0.67
298.15	0.9399	996.41	0.67
298.15	0.9498	996.18	0.68
298.15	0.9599	995.91	0.68
298.15	0.97	995.72	0.68
298.15	0.9799	995.73	0.68
303.15	0.0323	933.6	1.26
303.15	0.0425	934.13	1.26
303.15	0.0491	934.53	1.25
303.15	0.0564	934.89	1.25
303.15	0.0758	935.96	1.24
303.15	0.1031	937.59	1.22
303.15	0.1984	943.65	1.16
303.15	0.2511	947.44	1.13
303.15	0.3027	951.25	1.09
303.15	0.3507	955.2	1.06
303.15	0.3981	959.77	1.02
303.15	0.4499	963.7	0.98
303.15	0.4993	968.31	0.94
303.15	0.5492	973.01	0.9
303.15	0.6006	977.94	0.85
303.15	0.6507	982.64	0.81
303.15	0.6992	986.94	0.77
303.15	0.7499	990.82	0.73
303.15	0.7999	993.24	0.71
303.15	0.8499	994.88	0.69
303.15	0.9	994.89	0.69
303.15	0.9196	994.51	0.69
303.15	0.9299	994.28	0.69
303.15	0.9399	994.06	0.69
303.15	0.9498	993.85	0.69
303.15	0.9599	993.3	0.7
303.15	0.97	993.84	0.69
303.15	0.9799	994.05	0.69
