Measured thermophysical data. Measurements and correlation of liquid-liquid equilibrium data for the ternary (3-heptanone + phenol + water) system
Source: J. Chem. Thermodyn., 2017, 10.1016/j.jct.2016.11.004
Compound 1: 3-heptanone, C7H14O, InChI=1S/C7H14O/c1-3-5-6-7(8)4-2/h3-6H2,1-2H3, purity 98%
Compound 2: phenol, C6H6O, InChI=1S/C6H6O/c7-6-4-2-1-3-5-6/h1-5,7H, purity 99%
Compound 3: water, H2O, InChI=1S/H2O/h1H2

System: 3-heptanone + water; phases: Liquid mixture 2, Liquid mixture 1
Fixed: Pressure, kPa = 100
Property: Mass fraction of 3-heptanone (Liquid mixture 2); method: Chromatography
Temperature, K	Mass fraction of 3-heptanone	uncertainty
293.15	0.00323	0.00013
298.15	0.003029	0.000125
303.15	0.002762	0.000114
318.15	0.002204	9.1e-05
323.15	0.002137	8.8e-05

System: 3-heptanone + water; phases: Liquid mixture 1, Liquid mixture 2
Fixed: Pressure, kPa = 100
Property: Mass fraction of water (Liquid mixture 1); method: Chromatography
Temperature, K	Mass fraction of water	uncertainty
293.15	0.00731	0.00056
298.15	0.00832	0.000634
303.15	0.008865	0.000675
318.15	0.010413	0.000793
323.15	0.010931	0.000832

System: 3-heptanone + phenol + water; phases: Liquid mixture 2, Liquid mixture 1
Fixed: Pressure, kPa = 100
Property: Mass fraction of phenol (Liquid mixture 2); method: Chromatography
Property: Mass fraction of phenol (Liquid mixture 1); method: Chromatography
Property: Mass fraction of 3-heptanone (Liquid mixture 1); method: Chromatography
Temperature, K	Mass fraction of 3-heptanone	Mass fraction of phenol	uncertainty	Mass fraction of phenol	uncertainty	Mass fraction of 3-heptanone	uncertainty
298.15	0.003029	0		0		0.99168	
298.15	0.002877	6.6e-05	6.6e-05	0.014165	0.001017	0.976518	
298.15	0.00301	0.000205	0.000205	0.026556	0.001676	0.963172	
298.15	0.002935	0.000313	0.00011	0.037116	0.002211	0.951782	
298.15	0.002812	0.000432	0.000326	0.048539	0.002868	0.938925	
298.15	0.0026	0.000913	0.000689	0.089041	0.005162	0.895389	
298.15	0.002589	0.000985	0.000686	0.09463	0.00557	0.889558	
298.15	0.002523	0.001008	0.000816	0.099139	0.005791	0.885205	
298.15	0.002519	0.00104	0.00081	0.100542	0.005274	0.883479	
303.15	0.002422	0.001181	0.000175	0.103702	0.005716	0.881732	
303.15	0.002762	0		0		0.991135	
303.15	0.002631	7.3e-05	7.3e-05	0.014206	0.001044	0.975632	
303.15	0.002634	0.000208	0.000208	0.026733	0.001721	0.962368	
303.15	0.002465	0.000305	0.000305	0.037332	0.002249	0.951053	
303.15	0.002362	0.000413	0.000413	0.048762	0.002891	0.938259	
303.15	0.002486	0.001028	0.001028	0.09189	0.00582	0.89172	
303.15	0.002388	0.001109	0.001109	0.099521	0.006381	0.884825	
303.15	0.002446	0.001209	0.001209	0.103391	0.005661	0.880001	
318.15	0.001861	0.001629	6.3e-05	0.118814	0.023656	0.86699	
318.15	0.002204	0		0		0.989587	
318.15	0.002127	0.0001	0.0001	0.014974	0.001142	0.973129	
318.15	0.002036	0.000263	0.000263	0.029082	0.001911	0.958405	
318.15	0.00207	0.000442	0.000442	0.042342	0.002562	0.944473	
318.15	0.002062	0.00057	0.00057	0.051385	0.003006	0.934038	
318.15	0.001972	0.001375	0.001214	0.102074	0.00583	0.880748	
318.15	0.001945	0.001606	0.000152	0.113968	0.023433	0.868099	
323.15	0.001951	0.000872	0.000269	0.072117	0.003808	0.916786	
323.15	0.001783	0.000974	0.000109	0.082419	0.00407	0.902071	
323.15	0.002076	0.00013	0.00013	0.016139	0.001212	0.972165	
323.15	0.002149	0.000333	0.000333	0.030366	0.001934	0.957151	
323.15	0.002137	0		0		0.989069	
323.15	0.001986	0.000548	0.000457	0.047884	0.002861	0.937875	
323.15	0.002089	0.000672	0.000452	0.053417	0.003564	0.931899	
323.15	0.001915	0.000789	7.5e-05	0.065618	0.004536	0.92153	
