Measured thermophysical data. A new insight into pure and water-saturated quaternary phosphonium-based carboxylate ionic liquids: Density, heat capacity, ionic conductivity, thermogravimetric analysis, thermal conductivity and viscosity
Source: J. Chem. Thermodyn., 2018, 10.1016/j.jct.2018.02.013
Compound 1: trihexyl(tetradecyl)phosphonium acetate, C34H71O2P, InChI=1S/C32H68P.C2H4O2/c1-5-9-13-17-18-19-20-21-22-23-24-28-32-33(29-25-14-10-6-2,30-26-15-11-7-3)31-27-16-12-8-4;1-2(3)4/h5-32H2,1-4H3;1H3,(H,3,4)/q+1;/p-1
Compound 2: trihexyl(tetradecyl)phosphonium butyrate, C36H75O2P, InChI=1S/C32H68P.C4H8O2/c1-5-9-13-17-18-19-20-21-22-23-24-28-32-33(29-25-14-10-6-2,30-26-15-11-7-3)31-27-16-12-8-4;1-2-3-4(5)6/h5-32H2,1-4H3;2-3H2,1H3,(H,5,6)/q+1;/p-1
Compound 3: trihexyl(tetradecyl)phosphonium hexanoate, C38H79O2P, InChI=1S/C32H68P.C6H12O2/c1-5-9-13-17-18-19-20-21-22-23-24-28-32-33(29-25-14-10-6-2,30-26-15-11-7-3)31-27-16-12-8-4;1-2-3-4-5-6(7)8/h5-32H2,1-4H3;2-5H2,1H3,(H,7,8)/q+1;/p-1
Compound 4: trihexyl(tetradecyl)phosphonium octanoate, C40H83O2P, InChI=1S/C32H68P.C8H16O2/c1-5-9-13-17-18-19-20-21-22-23-24-28-32-33(29-25-14-10-6-2,30-26-15-11-7-3)31-27-16-12-8-4;1-2-3-4-5-6-7-8(9)10/h5-32H2,1-4H3;2-7H2,1H3,(H,9,10)/q+1;/p-1
Compound 5: trihexyltetradecylphosphonium decanoate, C42H87O2P, InChI=1S/C32H68P.C10H20O2/c1-5-9-13-17-18-19-20-21-22-23-24-28-32-33(29-25-14-10-6-2,30-26-15-11-7-3)31-27-16-12-8-4;1-2-3-4-5-6-7-8-9-10(11)12/h5-32H2,1-4H3;2-9H2,1H3,(H,11,12)/q+1;/p-1
Compound 6: 1-octyl-3-methylimidazolium bis[(trifluoromethyl)sulfonyl]imide, C14H23F6N3O4S2, InChI=1S/C12H23N2.C2F6NO4S2/c1-3-4-5-6-7-8-9-14-11-10-13(2)12-14;3-1(4,5)14(10,11)9-15(12,13)2(6,7)8/h10-12H,3-9H2,1-2H3;/q+1;-1
Compound 7: water, H2O, InChI=1S/H2O/h1H2, purity 99.9%

System: trihexyl(tetradecyl)phosphonium acetate; phases: Liquid
Fixed: Pressure, kPa = 101.325
Property: Mass density, kg/m3 (Liquid); method: Vibrating tube method
Temperature, K	Mass density, kg/m3	uncertainty
293.15	897.6	1.9
298.15	894.6	1.9
303.15	891.5	1.9
313.15	885.2	1.9
323.15	879	1.9
333.15	872.9	1.9
343.15	866.7	1.8
353.15	860.7	1.8
363.15	854.7	1.8

System: trihexyl(tetradecyl)phosphonium acetate; phases: Liquid
Fixed: Pressure, kPa = 101.325
Property: Molar heat capacity at constant pressure, J/K/mol (Liquid); method: Small sample (50 mg) DSC
Temperature, K	Molar heat capacity at constant pressure, J/K/mol	uncertainty
293.15	1095.572403818	67.319612524
298.15	1097.744004222	67.862512625
303.15	1101.544304929	67.862512625
308.15	1105.887505737	68.405412726
313.15	1111.316506747	68.405412726
318.15	1116.745507757	68.948312827
323.15	1122.717408868	68.948312827
328.15	1128.146409878	69.491212928
333.15	1134.118310989	70.034113029
338.15	1140.633112201	70.57701313
343.15	1147.147913413	70.57701313
348.15	1154.205614726	71.119913231
353.15	1158.548815534	71.662813332
358.15	1166.692317049	71.662813332
363.15	1173.207118261	72.205713433

System: trihexyl(tetradecyl)phosphonium acetate; phases: Liquid
Fixed: Pressure, kPa = 101.325
Property: Electrical conductivity, S/m (Liquid); method: Direct current cell with electrodes
Temperature, K	Electrical conductivity, S/m	uncertainty
299.6	0.00554	0.0003
303.9	0.00767	0.00037
308.7	0.01008	0.00046
313.7	0.01292	0.00058
318.8	0.01666	0.00074
323.8	0.0209	0.0009
328.8	0.026	0.0011
333.9	0.0317	0.0014
338.9	0.0383	0.0016
343.9	0.0458	0.0019
349	0.0542	0.0023

System: trihexyl(tetradecyl)phosphonium acetate; phases: Liquid
Fixed: Pressure, kPa = 101.325
Property: Viscosity, Pa*s (Liquid); method: Cone and plate viscometry
Temperature, K	Viscosity, Pa*s	uncertainty
293.2	0.254	0.0174
298.2	0.1962	0.0131
303.2	0.1512	0.0098
308.2	0.1174	0.0075
313.2	0.09223	0.00577
318.2	0.07375	0.00457
323.2	0.05932	0.00365
328.2	0.04852	0.00298
333.2	0.04022	0.00247
338.2	0.03378	0.00207
343.2	0.02855	0.00175
348.2	0.02446	0.0015
353.2	0.02095	0.00128
358.2	0.01813	0.00111
363.2	0.01571	0.00096
368.2	0.01372	0.00084

System: trihexyl(tetradecyl)phosphonium acetate; phases: Liquid
Fixed: Pressure, kPa = 101.325
Property: Thermal conductivity, W/m/K (Liquid); method: THOTW
Temperature, K	Thermal conductivity, W/m/K	uncertainty
278.37	0.1629	0.0089
288.1	0.1612	0.0085
298.16	0.1602	0.0095
307.92	0.1598	0.01
317.98	0.1582	0.0104
328.08	0.1565	0.0108
338	0.1558	0.0114
348.06	0.1551	0.0102
357.1	0.1541	0.0102

System: trihexyl(tetradecyl)phosphonium butyrate; phases: Liquid
Fixed: Pressure, kPa = 101.325
Property: Mass density, kg/m3 (Liquid); method: Vibrating tube method
Temperature, K	Mass density, kg/m3	uncertainty
293.15	893	1.9
298.15	890.4	1.9
303.15	887.8	1.9
313.15	881.2	1.9
323.15	875.1	1.9
333.15	869	1.9
343.15	862.7	1.8
353.15	856.7	1.8
363.15	850.3	1.8

System: trihexyl(tetradecyl)phosphonium butyrate; phases: Liquid
Fixed: Pressure, kPa = 101.325
Property: Molar heat capacity at constant pressure, J/K/mol (Liquid); method: Small sample (50 mg) DSC
Temperature, K	Molar heat capacity at constant pressure, J/K/mol	uncertainty
293.15	1107.078373079	68.51439132
298.15	1112.787905689	68.51439132
303.15	1118.497438299	69.085344581
308.15	1123.636017648	69.085344581
313.15	1129.916503519	69.656297842
318.15	1136.19698939	70.227251103
323.15	1142.477475261	70.227251103
328.15	1148.187007871	70.798204364
333.15	1154.467493742	71.369157625
338.15	1161.318932874	71.369157625
343.15	1168.170372006	71.940110886
348.15	1175.021811138	72.511064147
353.15	1181.87325027	73.082017408
358.15	1188.724689402	73.082017408
363.15	1196.147081795	73.652970669

System: trihexyl(tetradecyl)phosphonium butyrate; phases: Liquid
Fixed: Pressure, kPa = 101.325
Property: Electrical conductivity, S/m (Liquid); method: Direct current cell with electrodes
Temperature, K	Electrical conductivity, S/m	uncertainty
295.2	0.00389	0.00019
303.8	0.00631	0.00028
308.5	0.0083	0.00037
313.9	0.01063	0.00048
318.5	0.01372	0.00061
323.6	0.01719	0.00075
328.8	0.0214	0.0009
333.8	0.0261	0.0011
338.7	0.0315	0.0013
343.9	0.0377	0.0016
349.1	0.0446	0.0019

System: trihexyl(tetradecyl)phosphonium butyrate; phases: Liquid
Fixed: Pressure, kPa = 101.325
Property: Viscosity, Pa*s (Liquid); method: Cone and plate viscometry
Temperature, K	Viscosity, Pa*s	uncertainty
293.2	0.3343	0.0237
298.2	0.2511	0.0173
303.2	0.1902	0.0127
308.2	0.1463	0.0095
313.2	0.115	0.0073
318.2	0.09146	0.00572
323.2	0.07408	0.00458
328.2	0.06022	0.0037
333.2	0.04978	0.00306
338.2	0.04111	0.00253
343.2	0.03426	0.0021
348.2	0.02885	0.00177
353.2	0.02466	0.00151
358.2	0.02136	0.00131
363.2	0.01876	0.00115
368.2	0.01649	0.00101

System: trihexyl(tetradecyl)phosphonium butyrate; phases: Liquid
Fixed: Pressure, kPa = 101.325
Property: Thermal conductivity, W/m/K (Liquid); method: THOTW
Temperature, K	Thermal conductivity, W/m/K	uncertainty
277.77	0.16	0.0097
288.17	0.159	0.0087
298.48	0.1566	0.0095
306.44	0.1553	0.0095
318.11	0.1543	0.0081
327.69	0.1526	0.0114
336.59	0.1509	0.012
348.16	0.1503	0.0104
355.83	0.1492	0.0108

System: trihexyl(tetradecyl)phosphonium hexanoate; phases: Liquid
Fixed: Pressure, kPa = 101.325
Property: Mass density, kg/m3 (Liquid); method: Vibrating tube method
Temperature, K	Mass density, kg/m3	uncertainty
293.15	888.5	1.9
298.15	885.5	1.9
303.15	882.3	1.9
313.15	876	1.9
323.15	869.7	1.9
333.15	863.6	1.8
343.15	857.5	1.8
353.15	851.5	1.8
363.15	845.4	1.8

System: trihexyl(tetradecyl)phosphonium hexanoate; phases: Liquid
Fixed: Pressure, kPa = 101.325
Property: Molar heat capacity at constant pressure, J/K/mol (Liquid); method: Small sample (50 mg) DSC
Temperature, K	Molar heat capacity at constant pressure, J/K/mol	uncertainty
293.15	1133.320148532	70.083751257
298.15	1141.706238426	70.083751257
303.15	1149.493321899	70.682757678
308.15	1156.681398951	71.281764099
313.15	1163.869476003	71.88077052
318.15	1169.260533792	71.88077052
323.15	1176.448610844	72.479776941
328.15	1182.438675054	73.078783362
333.15	1189.027745685	73.078783362
338.15	1196.814829158	73.677789783
343.15	1204.00290621	74.276796204
348.15	1211.190983262	74.875802625
353.15	1218.978066735	74.875802625
358.15	1227.364156629	75.474809046
363.15	1235.151240102	76.073815467

System: trihexyl(tetradecyl)phosphonium hexanoate; phases: Liquid
Fixed: Pressure, kPa = 101.325
Property: Electrical conductivity, S/m (Liquid); method: Direct current cell with electrodes
Temperature, K	Electrical conductivity, S/m	uncertainty
299.6	0.0033	0.00018
303.8	0.00454	0.00021
308.1	0.00563	0.00026
313.9	0.00765	0.00034
318.4	0.00943	0.00041
323.6	0.0118	0.00052
328	0.0144	0.00063
333.6	0.018	0.00078
338.9	0.0223	0.001
343	0.026	0.0011
349.3	0.0325	0.0014

System: trihexyl(tetradecyl)phosphonium hexanoate; phases: Liquid
Fixed: Pressure, kPa = 101.325
Property: Viscosity, Pa*s (Liquid); method: Cone and plate viscometry
Temperature, K	Viscosity, Pa*s	uncertainty
293.2	0.4351	0.0319
298.2	0.3431	0.0244
303.2	0.2607	0.018
308.2	0.2	0.0134
313.2	0.1558	0.0101
318.2	0.1234	0.0079
323.2	0.09918	0.00622
328.2	0.08079	0.00501
333.2	0.0666	0.0041
338.2	0.05539	0.00339
343.2	0.04646	0.00285
348.2	0.03952	0.00242
353.2	0.0337	0.00207
358.2	0.02897	0.00178
363.2	0.02505	0.00153
368.2	0.02182	0.00134

System: trihexyl(tetradecyl)phosphonium hexanoate; phases: Liquid
Fixed: Pressure, kPa = 101.325
Property: Thermal conductivity, W/m/K (Liquid); method: THOTW
Temperature, K	Thermal conductivity, W/m/K	uncertainty
278.22	0.1591	0.0095
287.73	0.1574	0.01
298.98	0.156	0.0096
307.3	0.1547	0.0102
318.15	0.1533	0.01
329.17	0.151	0.0106
336.96	0.15	0.011
347.73	0.1497	0.0112
357.74	0.1476	0.01

System: trihexyl(tetradecyl)phosphonium octanoate; phases: Liquid
Fixed: Pressure, kPa = 101.325
Property: Mass density, kg/m3 (Liquid); method: Vibrating tube method
Temperature, K	Mass density, kg/m3	uncertainty
293.15	884.5	1.9
298.15	881.4	1.9
303.15	878.4	1.9
313.15	872.1	1.9
323.15	865.9	1.8
333.15	859.8	1.8
343.15	853.7	1.8
353.15	847.6	1.8
363.15	841.6	1.8

System: trihexyl(tetradecyl)phosphonium octanoate; phases: Liquid
Fixed: Pressure, kPa = 101.325
Property: Molar heat capacity at constant pressure, J/K/mol (Liquid); method: Small sample (50 mg) DSC
Temperature, K	Molar heat capacity at constant pressure, J/K/mol	uncertainty
293.15	1138.113139515	70.230673072
298.15	1150.654331135	70.857732653
303.15	1160.687284431	71.484792234
308.15	1170.093178146	72.111851815
313.15	1178.87201228	72.738911396
318.15	1185.769667671	73.365970977
323.15	1192.667323062	73.365970977
328.15	1199.564978453	73.993030558
333.15	1206.462633844	74.620090139
338.15	1213.360289235	74.620090139
343.15	1220.885004207	75.24714972
348.15	1228.409719179	75.874209301
353.15	1235.30737457	75.874209301
358.15	1242.205029961	76.501268882
363.15	1247.221506609	77.128328463

System: trihexyl(tetradecyl)phosphonium octanoate; phases: Liquid
Fixed: Pressure, kPa = 101.325
Property: Electrical conductivity, S/m (Liquid); method: Direct current cell with electrodes
Temperature, K	Electrical conductivity, S/m	uncertainty
300.6	0.00251	0.00016
303.6	0.00345	0.00017
308	0.00428	0.00019
313.4	0.0057	0.00025
319	0.0073	0.00032
323.8	0.0091	0.0004
328.4	0.011	0.00048
333.2	0.01369	0.0006
338.6	0.01696	0.00072
343	0.01977	0.00084
349.5	0.0247	0.001

System: trihexyl(tetradecyl)phosphonium octanoate; phases: Liquid
Fixed: Pressure, kPa = 101.325
Property: Viscosity, Pa*s (Liquid); method: Cone and plate viscometry
Temperature, K	Viscosity, Pa*s	uncertainty
293.2	0.5136	0.0385
298.2	0.4002	0.0291
303.2	0.3012	0.0211
308.2	0.2308	0.0157
313.2	0.1793	0.0118
318.2	0.1412	0.0091
323.2	0.113	0.0072
328.2	0.09142	0.0057
333.2	0.07522	0.00465
338.2	0.06247	0.00384
343.2	0.05265	0.00322
348.2	0.0444	0.00272
353.2	0.03798	0.00233
358.2	0.03278	0.00201
363.2	0.02812	0.00172
368.2	0.02448	0.0015

System: trihexyl(tetradecyl)phosphonium octanoate; phases: Liquid
Fixed: Pressure, kPa = 101.325
Property: Thermal conductivity, W/m/K (Liquid); method: THOTW
Temperature, K	Thermal conductivity, W/m/K	uncertainty
278.28	0.1611	0.0112
288.24	0.1601	0.0106
297.87	0.1581	0.0104
307.71	0.1567	0.011
317.92	0.1561	0.0108
328.17	0.1547	0.012
337.66	0.1527	0.0116
347.76	0.1507	0.0124
358.08	0.1497	0.0124

System: trihexyltetradecylphosphonium decanoate; phases: Liquid
Fixed: Pressure, kPa = 101.325
Property: Mass density, kg/m3 (Liquid); method: Vibrating tube method
Temperature, K	Mass density, kg/m3	uncertainty
293.15	880.4	1.9
298.15	877.3	1.9
303.15	874.6	1.9
313.15	868.1	1.8
323.15	862	1.8
333.15	855.7	1.8
343.15	849.7	1.8
353.15	843.3	1.8
363.15	837.4	1.8

System: trihexyltetradecylphosphonium decanoate; phases: Liquid
Fixed: Pressure, kPa = 101.325
Property: Molar heat capacity at constant pressure, J/K/mol (Liquid); method: Small sample (50 mg) DSC
Temperature, K	Molar heat capacity at constant pressure, J/K/mol	uncertainty
293.15	1181.168272023	72.717514251
298.15	1191.650075879	73.372626992
303.15	1199.511428771	74.027739733
308.15	1209.338119886	74.682852474
313.15	1217.199472778	75.337965215
318.15	1221.785261965	75.337965215
323.15	1230.301727598	75.993077956
328.15	1238.16308049	76.648190697
333.15	1246.024433382	76.648190697
338.15	1250.610222569	77.303303438
343.15	1264.36759013	77.958416179
348.15	1269.608492058	77.958416179
353.15	1278.780070432	78.61352892
358.15	1285.331197842	79.268641661
363.15	1296.468114439	79.923754402

System: trihexyltetradecylphosphonium decanoate; phases: Liquid
Fixed: Pressure, kPa = 101.325
Property: Electrical conductivity, S/m (Liquid); method: Direct current cell with electrodes
Temperature, K	Electrical conductivity, S/m	uncertainty
298.8	0.00174	9e-05
303.8	0.00239	0.00011
308	0.00297	0.00013
313.8	0.00395	0.00017
319.6	0.00506	0.00023
323.2	0.00631	0.00028
328.2	0.00763	0.00033
333.4	0.00949	0.00041
338.3	0.01176	0.0005
343.5	0.01371	0.00058
349.7	0.01714	0.00072

System: trihexyltetradecylphosphonium decanoate; phases: Liquid
Fixed: Pressure, kPa = 101.325
Property: Viscosity, Pa*s (Liquid); method: Cone and plate viscometry
Temperature, K	Viscosity, Pa*s	uncertainty
293.2	0.5463	0.0414
298.2	0.4098	0.0299
303.2	0.3145	0.0222
308.2	0.2425	0.0166
313.2	0.1898	0.0126
318.2	0.1513	0.0098
323.2	0.1218	0.0077
328.2	0.09978	0.00625
333.2	0.08268	0.00513
338.2	0.06876	0.00423
343.2	0.05807	0.00356
348.2	0.04928	0.00302
353.2	0.04221	0.00259
358.2	0.03641	0.00223
363.2	0.03171	0.00194
368.2	0.02759	0.00169

System: trihexyltetradecylphosphonium decanoate; phases: Liquid
Fixed: Pressure, kPa = 101.325
Property: Thermal conductivity, W/m/K (Liquid); method: THOTW
Temperature, K	Thermal conductivity, W/m/K	uncertainty
278.09	0.1601	0.0093
288	0.1591	0.0091
297.79	0.1571	0.0097
308.16	0.1545	0.01
318.13	0.1542	0.0102
326.82	0.1535	0.0098
338.5	0.1515	0.0112
347.3	0.1502	0.012
358.21	0.1493	0.011

System: 1-octyl-3-methylimidazolium bis[(trifluoromethyl)sulfonyl]imide; phases: Liquid
Fixed: Pressure, kPa = 101.325
Property: Thermal conductivity, W/m/K (Liquid); method: THOTW
Temperature, K	Thermal conductivity, W/m/K	uncertainty
280.03	0.1289	0.0104
288.73	0.1279	0.0124
297.76	0.1279	0.0132
307.59	0.1279	0.0082
318.58	0.1265	0.0124
328.58	0.1259	0.012
347.72	0.1259	0.0132
337.48	0.1259	0.0136
357.76	0.1245	0.014

System: trihexyl(tetradecyl)phosphonium butyrate + water; phases: Liquid mixture 1, Liquid mixture 2
Property: Mass fraction of water (Liquid mixture 1); method: Titration method
Temperature, K	Pressure, kPa	Mass fraction of water	uncertainty
298.15	101	0.1668	0.00265

System: trihexyl(tetradecyl)phosphonium butyrate + water; phases: Liquid
Fixed: Pressure, kPa = 101
Fixed: Mass fraction of water = 0.1668
Property: Mass density, kg/m3 (Liquid); method: Vibrating tube method
Temperature, K	Mass density, kg/m3	uncertainty
298.15	907.8	1.9
303.15	904.6	1.9
313.15	898.3	1.9
323.15	891.9	1.9
333.15	885	1.8
343.15	877.8	1.8
353.15	870.5	1.8
363.15	863.9	1.8

System: trihexyl(tetradecyl)phosphonium butyrate + water; phases: Liquid
Fixed: Pressure, kPa = 101
Fixed: Mass fraction of water = 0.1668
Property: Molar heat capacity at constant pressure, J/K/mol (Liquid); method: Small sample (50 mg) DSC
Temperature, K	Molar heat capacity at constant pressure, J/K/mol	uncertainty
298.15	316.93988698274	19.4996868941397
303.15	319.458985289638	19.6862867687248
308.15	321.604883847366	19.7795867060173
313.15	324.217282091557	19.9661865806024
318.15	327.202880084918	20.1527864551874
323.15	330.18847807828	20.3393863297725
328.15	333.453975883518	20.5259862043576
333.15	336.439573876879	20.7125860789427
338.15	340.638071055043	20.9924858908203
343.15	344.649968358622	21.2723857026979
348.15	348.288665913031	21.4589855772829
353.15	351.740763592855	21.645585451868
358.15	356.219160582897	21.9254852637456
363.15	360.417657761061	22.2053850756232

System: trihexyl(tetradecyl)phosphonium butyrate + water; phases: Liquid
Fixed: Pressure, kPa = 101
Fixed: Mass fraction of water = 0.1668
Property: Electrical conductivity, S/m (Liquid); method: Direct current cell with electrodes
Temperature, K	Electrical conductivity, S/m	uncertainty
302.4	0.1104	0.0049
303.9	0.1183	0.0051
308.4	0.1399	0.006
313.2	0.168	0.0072
318.8	0.2048	0.0086
323.2	0.235	0.0099
328.4	0.2773	0.0116
333.4	0.3218	0.0135
338.8	0.3795	0.0157
343.2	0.4233	0.0175
349.7	0.4995	0.0205

System: trihexyl(tetradecyl)phosphonium butyrate + water; phases: Liquid
Fixed: Pressure, kPa = 101
Fixed: Mass fraction of water = 0.1668
Property: Viscosity, Pa*s (Liquid); method: Cone and plate viscometry
Temperature, K	Viscosity, Pa*s	uncertainty
298.2	0.06146	0.00377
303.2	0.04817	0.00296
308.2	0.03854	0.00236
313.2	0.0314	0.00192
318.2	0.02596	0.00159
323.2	0.02194	0.00134
328.2	0.0188	0.00115
333.2	0.01605	0.00098
338.2	0.01385	0.00085
343.2	0.01194	0.00073
348.2	0.01037	0.00063
353.2	0.009056	0.000552
358.2	0.008136	0.000496
363.2	0.00726	0.000442
368.2	0.007063	0.000429

System: trihexyl(tetradecyl)phosphonium butyrate + water; phases: Liquid
Fixed: Pressure, kPa = 101
Fixed: Mass fraction of water = 0.1668
Property: Thermal conductivity, W/m/K (Liquid); method: THOTW
Temperature, K	Thermal conductivity, W/m/K	uncertainty
298.15	0.189	0.0101
307.87	0.188	0.0103
317.99	0.1859	0.0105
327.77	0.1848	0.0105
338.18	0.1828	0.0106
347.9	0.1818	0.0104
358.2	0.1808	0.011

System: trihexyl(tetradecyl)phosphonium hexanoate + water; phases: Liquid mixture 1, Liquid mixture 2
Property: Mass fraction of water (Liquid mixture 1); method: Titration method
Temperature, K	Pressure, kPa	Mass fraction of water	uncertainty
298.15	101	0.15825	0.00251

System: trihexyl(tetradecyl)phosphonium hexanoate + water; phases: Liquid
Fixed: Pressure, kPa = 101
Fixed: Mass fraction of water = 0.15825
Property: Mass density, kg/m3 (Liquid); method: Vibrating tube method
Temperature, K	Mass density, kg/m3	uncertainty
298.15	905	1.9
303.15	901.7	1.9
313.15	894.6	1.9
323.15	888	1.8
333.15	880.5	1.8
343.15	874.2	1.8
353.15	867.8	1.8
363.15	861	1.8

System: trihexyl(tetradecyl)phosphonium hexanoate + water; phases: Liquid
Fixed: Pressure, kPa = 101
Fixed: Mass fraction of water = 0.15825
Property: Molar heat capacity at constant pressure, J/K/mol (Liquid); method: Small sample (50 mg) DSC
Temperature, K	Molar heat capacity at constant pressure, J/K/mol	uncertainty
298.15	318.368397698177	19.6281379591971
303.15	320.429352183893	19.7262786489931
308.15	323.177291498181	19.9225600285851
313.15	325.925230812468	20.118841408177
318.15	328.967592196144	20.315122787769
323.15	332.108094269615	20.511404167361
328.15	335.248596343087	20.707685546953
333.15	339.174223934926	20.9039669265449
338.15	343.296132906358	21.1983889959329
343.15	347.221760498197	21.3946703755249
348.15	351.441810159424	21.6890924449128
353.15	353.306483265548	21.7872331347088
358.15	358.998643273715	22.0816552040968
363.15	365.083366041066	22.4742179632807

System: trihexyl(tetradecyl)phosphonium hexanoate + water; phases: Liquid
Fixed: Pressure, kPa = 101
Fixed: Mass fraction of water = 0.15825
Property: Electrical conductivity, S/m (Liquid); method: Direct current cell with electrodes
Temperature, K	Electrical conductivity, S/m	uncertainty
299.4	0.0753	0.0034
304	0.0926	0.004
308.1	0.1095	0.0047
313.9	0.1315	0.0056
318.4	0.1603	0.0068
323.6	0.1839	0.0077
328	0.217	0.0091
333.6	0.2518	0.0105
338.9	0.2969	0.0123
343	0.3312	0.0137
349.3	0.3908	0.0161

System: trihexyl(tetradecyl)phosphonium hexanoate + water; phases: Liquid
Fixed: Pressure, kPa = 101
Fixed: Mass fraction of water = 0.15825
Property: Viscosity, Pa*s (Liquid); method: Cone and plate viscometry
Temperature, K	Viscosity, Pa*s	uncertainty
298.2	0.07944	0.0049
303.2	0.06383	0.00392
308.2	0.05141	0.00315
313.2	0.04145	0.00254
318.2	0.03456	0.00211
323.2	0.0298	0.00182
328.2	0.02498	0.00153
333.2	0.02036	0.00125
338.2	0.01731	0.00106
343.2	0.01585	0.00097
348.2	0.01319	0.00081
353.2	0.01118	0.00068
358.2	0.0104	0.00063
363.2	0.009406	0.000574
368.2	0.008038	0.000492

System: trihexyl(tetradecyl)phosphonium hexanoate + water; phases: Liquid
Fixed: Pressure, kPa = 101
Fixed: Mass fraction of water = 0.15825
Property: Thermal conductivity, W/m/K (Liquid); method: THOTW
Temperature, K	Thermal conductivity, W/m/K	uncertainty
298.75	0.1871	0.0101
307.76	0.1858	0.0093
317.72	0.1838	0.0101
327.36	0.1824	0.0101
337.88	0.1814	0.0103
347.85	0.1791	0.0106
358.05	0.1774	0.0108

System: trihexyl(tetradecyl)phosphonium octanoate + water; phases: Liquid mixture 1, Liquid mixture 2
Property: Mass fraction of water (Liquid mixture 1); method: Titration method
Temperature, K	Pressure, kPa	Mass fraction of water	uncertainty
298.15	101	0.14783	0.00231

System: trihexyl(tetradecyl)phosphonium octanoate + water; phases: Liquid
Fixed: Pressure, kPa = 101
Fixed: Mass fraction of water = 0.14783
Property: Mass density, kg/m3 (Liquid); method: Vibrating tube method
Temperature, K	Mass density, kg/m3	uncertainty
298.15	901.5	1.9
303.15	898.1	1.9
313.15	891.3	1.9
323.15	884.7	1.8
333.15	877.7	1.8
343.15	870.8	1.8
353.15	863.8	1.8
363.15	857.1	1.8

System: trihexyl(tetradecyl)phosphonium octanoate + water; phases: Liquid
Fixed: Pressure, kPa = 101
Fixed: Mass fraction of water = 0.14783
Property: Molar heat capacity at constant pressure, J/K/mol (Liquid); method: Small sample (50 mg) DSC
Temperature, K	Molar heat capacity at constant pressure, J/K/mol	uncertainty
298.15	319.609213239963	19.6553915895038
303.15	322.432062032073	19.8644915000304
308.15	325.150360868919	20.0735914105571
313.15	326.509510287342	20.1781413658204
318.15	329.227809124188	20.2826913210837
323.15	332.155207871561	20.4917912316103
328.15	335.500806439987	20.700891142137
333.15	338.323655232097	20.8054410974003
338.15	340.519204292627	21.0145410079269
343.15	342.50565344263	21.1190909631902
348.15	345.955801966319	21.3281908737169
353.15	350.451450042642	21.6418407395068
358.15	353.797048611068	21.8509406500335
363.15	358.188146732127	22.0600405605601

System: trihexyl(tetradecyl)phosphonium octanoate + water; phases: Liquid
Fixed: Pressure, kPa = 101
Fixed: Mass fraction of water = 0.14783
Property: Electrical conductivity, S/m (Liquid); method: Direct current cell with electrodes
Temperature, K	Electrical conductivity, S/m	uncertainty
299	0.0415	0.0018
304.4	0.051	0.0022
308.8	0.0603	0.0026
313.6	0.0724	0.0031
318.2	0.0882	0.0037
323.8	0.1013	0.0042
328.6	0.1195	0.005
333.4	0.1387	0.0058
338.1	0.1635	0.0068
343.5	0.1824	0.0075
349.7	0.2152	0.0089

System: trihexyl(tetradecyl)phosphonium octanoate + water; phases: Liquid
Fixed: Pressure, kPa = 101
Fixed: Mass fraction of water = 0.14783
Property: Viscosity, Pa*s (Liquid); method: Cone and plate viscometry
Temperature, K	Viscosity, Pa*s	uncertainty
298.2	0.08271	0.0051
303.2	0.07008	0.0043
308.2	0.05836	0.00357
313.2	0.04863	0.00297
318.2	0.04134	0.00253
323.2	0.0357	0.00218
328.2	0.03082	0.00188
333.2	0.02632	0.00161
338.2	0.02253	0.00138
343.2	0.01993	0.00122
348.2	0.01729	0.00106
353.2	0.01503	0.00092
358.2	0.01344	0.00082
363.2	0.01186	0.00072
368.2	0.01087	0.00066

System: trihexyl(tetradecyl)phosphonium octanoate + water; phases: Liquid
Fixed: Pressure, kPa = 101
Fixed: Mass fraction of water = 0.14783
Property: Thermal conductivity, W/m/K (Liquid); method: THOTW
Temperature, K	Thermal conductivity, W/m/K	uncertainty
299.13	0.1872	0.0083
307.9	0.1852	0.0087
318.01	0.1831	0.0095
327.85	0.1821	0.0103
337.66	0.1801	0.0099
347.48	0.1791	0.0101
358	0.1771	0.012

System: trihexyltetradecylphosphonium decanoate + water; phases: Liquid mixture 1, Liquid mixture 2
Property: Mass fraction of water (Liquid mixture 1); method: Titration method
Temperature, K	Pressure, kPa	Mass fraction of water	uncertainty
298.15	101	0.1415	0.00225

System: trihexyltetradecylphosphonium decanoate + water; phases: Liquid
Fixed: Pressure, kPa = 101
Fixed: Mass fraction of water = 0.1415
Property: Mass density, kg/m3 (Liquid); method: Vibrating tube method
Temperature, K	Mass density, kg/m3	uncertainty
298.15	899.1	1.9
303.15	895.8	1.9
313.15	889	1.9
323.15	882.3	1.8
333.15	875.4	1.8
343.15	868.2	1.8
353.15	860.8	1.8
363.15	853.7	1.8

System: trihexyltetradecylphosphonium decanoate + water; phases: Liquid
Fixed: Pressure, kPa = 101
Fixed: Mass fraction of water = 0.1415
Property: Molar heat capacity at constant pressure, J/K/mol (Liquid); method: Small sample (50 mg) DSC
Temperature, K	Molar heat capacity at constant pressure, J/K/mol	uncertainty
298.15	313.805761529619	19.3128024307172
303.15	319.479579192881	19.6401380651361
308.15	323.734942440327	19.967473699555
313.15	326.790075028237	20.1856974558343
318.15	328.535865078471	20.294809333974
323.15	332.136557057079	20.5130330902533
328.15	335.300801523129	20.6221449683929
333.15	338.574157867318	20.8403687246722
338.15	341.411066698949	21.0585924809515
343.15	344.466199286859	21.2768162372308
348.15	348.721562534305	21.4950399935101
353.15	351.994918878495	21.7132637497894
358.15	355.595610857103	21.9314875060686
363.15	360.723869129666	22.2588231404876

System: trihexyltetradecylphosphonium decanoate + water; phases: Liquid
Fixed: Pressure, kPa = 101
Fixed: Mass fraction of water = 0.1415
Property: Electrical conductivity, S/m (Liquid); method: Direct current cell with electrodes
Temperature, K	Electrical conductivity, S/m	uncertainty
299.2	0.03	0.0014
303.6	0.0369	0.0016
308.8	0.0436	0.0019
313.2	0.0524	0.0022
318.8	0.0639	0.0027
323.6	0.0733	0.0031
328.8	0.0865	0.0036
333.2	0.1003	0.0042
338.8	0.1183	0.0049
343.8	0.132	0.0055
348.9	0.1557	0.0065

System: trihexyltetradecylphosphonium decanoate + water; phases: Liquid
Fixed: Pressure, kPa = 101
Fixed: Mass fraction of water = 0.1415
Property: Viscosity, Pa*s (Liquid); method: Cone and plate viscometry
Temperature, K	Viscosity, Pa*s	uncertainty
298.2	0.09187	0.0057
303.2	0.07666	0.00472
308.2	0.06423	0.00393
313.2	0.05334	0.00326
318.2	0.045	0.00275
323.2	0.03798	0.00232
328.2	0.03286	0.00201
333.2	0.02828	0.00173
338.2	0.02462	0.0015
343.2	0.0214	0.00131
348.2	0.01891	0.00115
353.2	0.0171	0.00104
358.2	0.0154	0.00094
363.2	0.01395	0.00085
368.2	0.01208	0.00074

System: trihexyltetradecylphosphonium decanoate + water; phases: Liquid
Fixed: Pressure, kPa = 101
Fixed: Mass fraction of water = 0.1415
Property: Thermal conductivity, W/m/K (Liquid); method: THOTW
Temperature, K	Thermal conductivity, W/m/K	uncertainty
298.55	0.1861	0.0089
307.51	0.1849	0.0085
317.84	0.1829	0.0095
328.68	0.1809	0.0101
337.66	0.1799	0.0099
347.13	0.1785	0.0114
358.2	0.1762	0.0102
