Measured thermophysical data. Excess molar volumes of the ternary system {methylcyclohexane (1) + cyclohexane (2) + n-alkanes (3)} at T = 298.15 K
Source: J. Chem. Thermodyn., 2005, 10.1016/j.jct.2005.02.006
Compound 1: methylcyclohexane, C7H14, InChI=1S/C7H14/c1-7-5-3-2-4-6-7/h7H,2-6H2,1H3, purity 99%
Compound 2: cyclohexane, C6H12, InChI=1S/C6H12/c1-2-4-6-5-3-1/h1-6H2, purity 99%
Compound 3: hexane, C6H14, InChI=1S/C6H14/c1-3-5-6-4-2/h3-6H2,1-2H3, purity 99%
Compound 4: heptane, C7H16, InChI=1S/C7H16/c1-3-5-7-6-4-2/h3-7H2,1-2H3, purity 99%
Compound 5: octane, C8H18, InChI=1S/C8H18/c1-3-5-7-8-6-4-2/h3-8H2,1-2H3, purity 99%

System: methylcyclohexane; phases: Liquid, Gas
Property: Normal boiling temperature, K (Liquid); method: Ebulliometric method (Recirculating still)
Normal boiling temperature, K	uncertainty
373.9	0.4

System: methylcyclohexane; phases: Liquid
Property: Refractive index (Na D-line) (Liquid); method: Standard Abbe refractometry
Temperature, K	Pressure, kPa	Refractive index (Na D-line)	uncertainty
298.15	101.325	1.4207	0.0008

System: methylcyclohexane; phases: Liquid
Property: Mass density, kg/m3 (Liquid); method: VIBTUB:UFactor:4
Temperature, K	Pressure, kPa	Mass density, kg/m3	uncertainty
298.15	101.325	764.97	0.75

System: cyclohexane; phases: Liquid, Gas
Property: Normal boiling temperature, K (Liquid); method: Ebulliometric method (Recirculating still)
Normal boiling temperature, K	uncertainty
353.7	0.4

System: cyclohexane; phases: Liquid
Property: Refractive index (Na D-line) (Liquid); method: Standard Abbe refractometry
Temperature, K	Pressure, kPa	Refractive index (Na D-line)	uncertainty
298.15	101.325	1.4232	0.0008

System: cyclohexane; phases: Liquid
Property: Mass density, kg/m3 (Liquid); method: VIBTUB:UFactor:4
Temperature, K	Pressure, kPa	Mass density, kg/m3	uncertainty
298.15	101.325	773.93	0.74

System: hexane; phases: Liquid, Gas
Property: Normal boiling temperature, K (Liquid); method: Ebulliometric method (Recirculating still)
Normal boiling temperature, K	uncertainty
341.8	0.4

System: hexane; phases: Liquid
Property: Refractive index (Na D-line) (Liquid); method: Standard Abbe refractometry
Temperature, K	Pressure, kPa	Refractive index (Na D-line)	uncertainty
298.15	101.325	1.372	0.0008

System: hexane; phases: Liquid
Property: Mass density, kg/m3 (Liquid); method: VIBTUB:UFactor:4
Temperature, K	Pressure, kPa	Mass density, kg/m3	uncertainty
298.15	101.325	655.07	0.93

System: heptane; phases: Liquid, Gas
Property: Normal boiling temperature, K (Liquid); method: Ebulliometric method (Recirculating still)
Normal boiling temperature, K	uncertainty
371.5	0.4

System: heptane; phases: Liquid
Property: Refractive index (Na D-line) (Liquid); method: Standard Abbe refractometry
Temperature, K	Pressure, kPa	Refractive index (Na D-line)	uncertainty
298.15	101.325	1.3848	0.0008

System: heptane; phases: Liquid
Property: Mass density, kg/m3 (Liquid); method: VIBTUB:UFactor:4
Temperature, K	Pressure, kPa	Mass density, kg/m3	uncertainty
298.15	101.325	679.69	0.89

System: octane; phases: Liquid, Gas
Property: Normal boiling temperature, K (Liquid); method: Twin ebulliometer
Normal boiling temperature, K	uncertainty
398.6	0.4

System: octane; phases: Liquid
Property: Refractive index (Na D-line) (Liquid); method: Standard Abbe refractometry
Temperature, K	Pressure, kPa	Refractive index (Na D-line)	uncertainty
298.15	101.325	1.395	0.0008

System: octane; phases: Liquid
Property: Mass density, kg/m3 (Liquid); method: VIBTUB:UFactor:4
Temperature, K	Pressure, kPa	Mass density, kg/m3	uncertainty
298.15	101.325	698.59	0.86

System: methylcyclohexane + cyclohexane; phases: Liquid
Fixed: Pressure, kPa = 101
Fixed: Temperature, K = 298.15
Property: Mass density, kg/m3 (Liquid); method: VIBTUB:UFactor:8
Mole fraction of methylcyclohexane	Mass density, kg/m3	uncertainty
0.0399	773.53	1.03
0.1202	772.74	1.04
0.2004	771.95	1.04
0.282	771.15	1.04
0.3592	770.4	1.04
0.4401	769.61	1.04
0.5183	768.88	1.05
0.5511	767.99	1.05
0.6629	767.57	1.05
0.7551	766.81	1.05
0.8334	766.2	1.05
0.9219	765.54	1.06

System: methylcyclohexane + hexane; phases: Liquid
Fixed: Pressure, kPa = 101
Fixed: Temperature, K = 298.15
Property: Mass density, kg/m3 (Liquid); method: VIBTUB:UFactor:8
Mole fraction of methylcyclohexane	Mass density, kg/m3	uncertainty
0.0506	660.68	1.35
0.0507	660.68	1.35
0.1005	666.23	1.34
0.1988	677.1	1.3
0.3015	688.42	1.27
0.4036	699.71	1.24
0.5028	710.63	1.21
0.5945	720.68	1.18
0.6653	728.48	1.16
0.7985	742.97	1.12
0.8508	748.76	1.1
0.8932	753.37	1.09
0.9413	758.6	1.07

System: methylcyclohexane + heptane; phases: Liquid
Fixed: Pressure, kPa = 101
Fixed: Temperature, K = 298.15
Property: Mass density, kg/m3 (Liquid); method: VIBTUB:UFactor:16
Mole fraction of methylcyclohexane	Mass density, kg/m3	uncertainty
0.0529	683.71	3.32
0.1038	687.59	3.29
0.1958	694.71	3.23
0.3039	703.31	3.16
0.3993	711.08	3.1
0.4611	716.24	3.06
0.5045	719.91	3.04
0.568	721.18	3.03
0.628	728.28	2.97
0.7034	737.24	2.9
0.8172	747.61	2.82
0.865	749.21	2.81
0.9066	756	2.76
0.9575	760.85	2.72

System: methylcyclohexane + octane; phases: Liquid
Fixed: Pressure, kPa = 101
Fixed: Temperature, K = 298.15
Property: Mass density, kg/m3 (Liquid); method: VIBTUB:UFactor:8
Mole fraction of methylcyclohexane	Mass density, kg/m3	uncertainty
0.067	702.12	1.23
0.1001	703.93	1.23
0.2011	709.48	1.21
0.2993	715.14	1.2
0.4001	721.23	1.18
0.4996	727.56	1.16
0.6016	734.38	1.14
0.6983	741.2	1.12
0.7986	748.63	1.1
0.8509	752.71	1.09
0.8998	756.65	1.08
0.9486	760.66	1.07

System: hexane + cyclohexane; phases: Liquid
Fixed: Pressure, kPa = 101
Fixed: Temperature, K = 298.15
Property: Mass density, kg/m3 (Liquid); method: VIBTUB:UFactor:16
Mole fraction of hexane	Mass density, kg/m3	uncertainty
0.0444	768	2.67
0.1222	762.1	2.71
0.1996	750.57	2.8
0.2828	740.95	2.87
0.3558	730.14	2.96
0.4375	720.12	3.03
0.5207	710.55	3.11
0.6007	700.91	3.18
0.6818	691.78	3.25
0.7657	683.83	3.31
0.8378	675.11	3.38
0.92	667.14	3.44
0.9611	659.45	3.5

System: cyclohexane + heptane; phases: Liquid
Fixed: Pressure, kPa = 101
Fixed: Temperature, K = 298.15
Property: Mass density, kg/m3 (Liquid); method: VIBTUB:UFactor:8
Mole fraction of cyclohexane	Mass density, kg/m3	uncertainty
0.0516	683.17	1.29
0.0974	686.28	1.28
0.2503	697.41	1.25
0.2982	701.08	1.24
0.4017	709.54	1.21
0.4437	713.02	1.2
0.4881	717.01	1.19
0.5993	727.3	1.16
0.7	737.45	1.13
0.749	742.72	1.12
0.8718	757.12	1.08
0.8867	758.74	1.07
0.9479	766.75	1.05

System: cyclohexane + octane; phases: Liquid
Fixed: Pressure, kPa = 101
Fixed: Temperature, K = 298.15
Property: Mass density, kg/m3 (Liquid); method: VIBTUB:UFactor:8
Mole fraction of cyclohexane	Mass density, kg/m3	uncertainty
0.0509	700.97	1.24
0.0991	703.37	1.23
0.2498	711.09	1.21
0.2996	713.94	1.2
0.3837	719.01	1.18
0.4467	723.01	1.17
0.4777	725.03	1.17
0.6064	734.47	1.14
0.6981	741.93	1.12
0.7961	750.97	1.1
0.849	756.28	1.08
0.8996	761.77	1.07
0.9504	767.64	1.05

System: methylcyclohexane + hexane + cyclohexane; phases: Liquid
Fixed: Pressure, kPa = 101.325
Fixed: Temperature, K = 298.15
Property: Mass density, kg/m3 (Liquid); method: VIBTUB:UFactor:16
Mole fraction of methylcyclohexane	Mole fraction of cyclohexane	Mass density, kg/m3	uncertainty
0.0188	0.0214	659.2	2.65
0.0285	0.0961	667.73	2.6
0.0323	0.0151	660.15	2.64
0.0479	0.159	676.32	2.55
0.0555	0.0768	668.84	2.59
0.0645	0.2247	685.13	2.49
0.081	0.2829	693.3	2.44
0.0888	0.035	668.37	2.59
0.0937	0.1085	676.34	2.54
0.1005	0.3475	702.7	2.38
0.1148	0.4055	710.98	2.33
0.1286	0.1544	685.08	2.49
0.1337	0.4737	721.19	2.27
0.1514	0.0578	677.67	2.54
0.1536	0.5304	730.42	2.21
0.1636	0.1952	693.39	2.44
0.1728	0.5916	740.38	2.15
0.1901	0.6502	750.05	2.1
0.2032	0.238	702.55	2.38
0.2052	0.7117	760.21	2.03
0.2074	0.0834	686.58	2.48
0.2165	0.7423	765.93	2
0.2377	0.2788	711.06	2.33
0.2652	0.1037	695.18	2.43
0.2697	0.3218	719.66	2.28
0.3133	0.3675	730.11	2.22
0.3187	0.1224	703.21	2.38
0.3492	0.4117	739.64	2.16
0.3804	0.149	713.05	2.32
0.3819	0.458	749.25	2.1
0.4235	0.4945	758.88	2.04
0.4381	0.1687	721.74	2.27
0.4385	0.5214	764.2	2.01
0.4949	0.197	731.38	2.21
0.5528	0.2074	739.18	2.16
0.6007	0.2413	748.68	2.1
0.6651	0.2554	757.8	2.05
0.6848	0.2722	762.13	2.02

System: methylcyclohexane + cyclohexane + heptane; phases: Liquid
Fixed: Pressure, kPa = 101.325
Fixed: Temperature, K = 298.15
Property: Mass density, kg/m3 (Liquid); method: VIBTUB:UFactor:16
Mole fraction of methylcyclohexane	Mole fraction of cyclohexane	Mass density, kg/m3	uncertainty
0.0112	0.0326	682.76	2.51
0.0294	0.0386	684.61	2.49
0.0299	0.0966	688.53	2.47
0.0306	0.0142	682.94	2.5
0.0464	0.1595	694.34	2.43
0.054	0.0615	688.01	2.47
0.0562	0.225	700.04	2.4
0.0798	0.2845	706.73	2.36
0.0893	0.035	688.87	2.47
0.0922	0.1096	694.39	2.43
0.0988	0.3471	713.6	2.32
0.1157	0.4102	720.66	2.27
0.1274	0.1518	700.34	2.4
0.1336	0.4701	727.86	2.23
0.1493	0.0592	695.27	2.43
0.1511	0.5295	735.32	2.18
0.167	0.195	707.02	2.36
0.1693	0.5918	743.61	2.13
0.1862	0.6539	752.35	2.08
0.2051	0.7165	761.79	2.02
0.206	0.0801	701.4	2.39
0.208	0.2412	714.33	2.31
0.2252	0.7364	766.61	1.99
0.2427	0.2829	720.96	2.27
0.2695	0.3429	728.84	2.22
0.2848	0.1244	711.4	2.33
0.314	0.3739	735.97	2.18
0.3462	0.4281	744.6	2.13
0.3716	0.1456	720.5	2.27
0.3816	0.4696	752.61	2.08
0.4232	0.4966	760.07	2.03
0.4398	0.5187	764.53	2.01
0.544	0.221	743.19	2.14
0.5621	0.2485	747.7	2.11
0.6181	0.2434	752.67	2.08
0.6498	0.2546	757.05	2.05
0.6713	0.2654	760.39	2.03
0.695	0.2728	763.66	2.01
0.7052	0.277	765.2	2

System: methylcyclohexane + cyclohexane + octane; phases: Liquid
Fixed: Pressure, kPa = 101.325
Fixed: Temperature, K = 298.15
Property: Mass density, kg/m3 (Liquid); method: VIBTUB:UFactor:16
Mole fraction of methylcyclohexane	Mole fraction of cyclohexane	Mass density, kg/m3	uncertainty
0.0134	0.0329	700.83	2.39
0.0205	0.0227	700.65	2.4
0.031	0.0128	700.81	2.39
0.0318	0.0951	704.68	2.37
0.0554	0.1563	709.13	2.34
0.0593	0.0684	705	2.37
0.0625	0.2213	713.23	2.32
0.0812	0.2803	717.92	2.29
0.0901	0.0351	705.1	2.37
0.0944	0.1094	709.03	2.34
0.102	0.3437	723.2	2.26
0.122	0.4054	728.68	2.22
0.1305	0.4665	733.7	2.19
0.1389	0.1646	714.66	2.31
0.1409	0.5425	740.53	2.15
0.1492	0.0595	709.61	2.34
0.1665	0.1937	718.01	2.29
0.1851	0.6491	753.89	2.07
0.1897	0.7285	762.49	2.02
0.2042	0.2409	723.36	2.26
0.2057	0.0811	714.01	2.31
0.2376	0.2801	728.2	2.23
0.2633	0.1031	718.76	2.29
0.2738	0.3247	733.89	2.19
0.3125	0.3681	740.12	2.16
0.3221	0.126	723.86	2.25
0.3513	0.4089	746.55	2.12
0.3815	0.1472	729.15	2.22
0.3915	0.4535	754.02	2.07
0.4238	0.4939	760.87	2.03
0.4365	0.1697	734.53	2.19
0.5002	0.1912	740.79	2.15
0.5488	0.2155	746.43	2.12
0.6049	0.245	753.5	2.07
0.6704	0.2562	760.18	2.03
