Measured thermophysical data. Solute-solvent interactions of glycine, L-alanine, and L-valine in aqueous 1-methyl imidazolium chloride ionic liquid solutions in the temperature interval (288.15 to 308.15) K
Source: J. Chem. Thermodyn., 2015, 10.1016/j.jct.2015.07.038
Compound 1: 1-methylimidazolium chloride, C4H7ClN2, InChI=1S/C4H6N2.ClH/c1-6-3-2-5-4-6;/h2-4H,1H3;1H, purity 95%
Compound 2: 2-aminoacetic acid, C2H5NO2, InChI=1S/C2H5NO2/c3-1-2(4)5/h1,3H2,(H,4,5), purity 99%
Compound 3: (S)-2-aminopropanoic acid, C3H7NO2, InChI=1S/C3H7NO2/c1-2(4)3(5)6/h2H,4H2,1H3,(H,5,6)/t2-/m0/s1, purity 99%
Compound 4: L-valine, C5H11NO2, InChI=1S/C5H11NO2/c1-3(2)4(6)5(7)8/h3-4H,6H2,1-2H3,(H,7,8)/t4-/m0/s1, purity 99%
Compound 5: water, H2O, InChI=1S/H2O/h1H2

System: 2-aminoacetic acid + water + 1-methylimidazolium chloride; phases: Liquid
Fixed: Pressure, kPa = 100
Property: Mass density, kg/m3 (Liquid); method: Vibrating tube method
Temperature, K	Molality, mol/kg of 2-aminoacetic acid	Solvent: Molality, mol/kg of 1-methylimidazolium chloride	Mass density, kg/m3	uncertainty
288.15	0	0.1059	1001.789	2.161
288.15	0.0806	0.1059	1004.449	2.163
288.15	0.1288	0.1059	1006.039	2.164
288.15	0.29	0.1059	1011.359	2.168
288.15	0.3719	0.1059	1014.062	2.17
288.15	0.4382	0.1059	1016.25	2.172
288.15	0.5442	0.1059	1019.748	2.175
288.15	0.6606	0.1059	1023.589	2.178
288.15	0.8182	0.1059	1028.79	2.182
288.15	0.8716	0.1059	1030.552	2.183
288.15	0	0.2999	1006.711	2.165
288.15	0.0958	0.2999	1009.681	2.167
288.15	0.1329	0.2999	1010.843	2.168
288.15	0.2782	0.2999	1015.431	2.171
288.15	0.3917	0.2999	1019.067	2.174
288.15	0.4552	0.2999	1021.121	2.176
288.15	0.542	0.2999	1023.949	2.178
288.15	0.677	0.2999	1028.395	2.181
288.15	0.7978	0.2999	1032.44	2.185
288.15	0.8687	0.2999	1034.803	2.187
293.15	0	0.1059	1000.725	2.16
293.15	0.0806	0.1059	1003.304	2.162
293.15	0.1288	0.1059	1004.847	2.163
293.15	0.29	0.1059	1010.005	2.167
293.15	0.3719	0.1059	1012.626	2.169
293.15	0.4382	0.1059	1014.747	2.171
293.15	0.5442	0.1059	1018.139	2.173
293.15	0.6606	0.1059	1021.864	2.176
293.15	0.8182	0.1059	1026.907	2.18
293.15	0.8716	0.1059	1028.616	2.182
293.15	0	0.2999	1005.672	2.164
293.15	0.0958	0.2999	1008.611	2.166
293.15	0.1329	0.2999	1009.757	2.167
293.15	0.2782	0.2999	1014.303	2.171
293.15	0.3917	0.2999	1017.903	2.173
293.15	0.4552	0.2999	1019.94	2.175
293.15	0.542	0.2999	1022.752	2.177
293.15	0.677	0.2999	1027.17	2.18
293.15	0.7978	0.2999	1031.191	2.184
293.15	0.8687	0.2999	1033.581	2.186
298.15	0	0.1059	999.589	2.16
298.15	0.0806	0.1059	1002.168	2.161
298.15	0.1288	0.1059	1003.711	2.163
298.15	0.29	0.1059	1008.869	2.166
298.15	0.3719	0.1059	1011.49	2.168
298.15	0.4382	0.1059	1013.611	2.17
298.15	0.5442	0.1059	1017.003	2.173
298.15	0.6606	0.1059	1020.728	2.175
298.15	0.8182	0.1059	1025.771	2.179
298.15	0.8716	0.1059	1027.48	2.181
298.15	0	0.2999	1004.096	2.163
298.15	0.0958	0.2999	1007.295	2.165
298.15	0.1329	0.2999	1008.427	2.166
298.15	0.2782	0.2999	1012.921	2.169
298.15	0.3917	0.2999	1016.49	2.172
298.15	0.4552	0.2999	1018.519	2.174
298.15	0.542	0.2999	1021.311	2.176
298.15	0.677	0.2999	1025.722	2.179
298.15	0.7978	0.2999	1029.719	2.182
298.15	0.8687	0.2999	1032.101	2.184
303.15	0	0.1059	998.045	2.159
303.15	0.0806	0.1059	1000.624	2.16
303.15	0.1288	0.1059	1002.167	2.161
303.15	0.29	0.1059	1007.325	2.165
303.15	0.3719	0.1059	1009.946	2.167
303.15	0.4382	0.1059	1012.067	2.169
303.15	0.5442	0.1059	1015.459	2.171
303.15	0.6606	0.1059	1019.184	2.174
303.15	0.8182	0.1059	1024.227	2.178
303.15	0.8716	0.1059	1025.936	2.18
303.15	0	0.2999	1002.899	2.162
303.15	0.0958	0.2999	1005.782	2.164
303.15	0.1329	0.2999	1006.911	2.165
303.15	0.2782	0.2999	1011.382	2.168
303.15	0.3917	0.2999	1014.939	2.171
303.15	0.4552	0.2999	1016.961	2.173
303.15	0.542	0.2999	1019.749	2.175
303.15	0.677	0.2999	1024.142	2.178
303.15	0.7978	0.2999	1028.141	2.181
303.15	0.8687	0.2999	1030.511	2.183
308.15	0	0.1059	996.552	2.158
308.15	0.0806	0.1059	999.051	2.159
308.15	0.1288	0.1059	1000.545	2.16
308.15	0.29	0.1059	1005.542	2.164
308.15	0.3719	0.1059	1008.081	2.166
308.15	0.4382	0.1059	1010.136	2.167
308.15	0.5442	0.1059	1013.422	2.17
308.15	0.6606	0.1059	1017.031	2.173
308.15	0.8182	0.1059	1021.916	2.176
308.15	0.8716	0.1059	1023.572	2.178
308.15	0	0.2999	1001.152	2.161
308.15	0.0958	0.2999	1004.025	2.163
308.15	0.1329	0.2999	1005.152	2.164
308.15	0.2782	0.2999	1009.605	2.167
308.15	0.3917	0.2999	1013.152	2.17
308.15	0.4552	0.2999	1015.151	2.171
308.15	0.542	0.2999	1017.919	2.173
308.15	0.677	0.2999	1022.275	2.177
308.15	0.7978	0.2999	1026.261	2.18
308.15	0.8687	0.2999	1028.62	2.182

System: 2-aminoacetic acid + water + 1-methylimidazolium chloride; phases: Liquid
Fixed: Pressure, kPa = 100
Fixed: Frequency, MHz = 3
Property: Speed of sound, m/s (Liquid); method: Sing-around technique in a fixed-path interferometer
Temperature, K	Molality, mol/kg of 2-aminoacetic acid	Solvent: Molality, mol/kg of 1-methylimidazolium chloride	Speed of sound, m/s	uncertainty
288.15	0	0.1059	1473.45	10.23
288.15	0.0806	0.1059	1478.01	10.23
288.15	0.1288	0.1059	1480.74	10.23
288.15	0.29	0.1059	1489.86	10.23
288.15	0.3719	0.1059	1494.5	10.23
288.15	0.4382	0.1059	1498.25	10.23
288.15	0.5442	0.1059	1504.25	10.23
288.15	0.6606	0.1059	1510.83	10.23
288.15	0.8182	0.1059	1519.75	10.23
288.15	0.8716	0.1059	1522.77	10.23
288.15	0	0.2999	1491	10.23
288.15	0.0958	0.2999	1496.43	10.23
288.15	0.1329	0.2999	1497.93	10.23
288.15	0.2782	0.2999	1505.98	10.23
288.15	0.3917	0.2999	1512.37	10.23
288.15	0.4552	0.2999	1516.02	10.23
288.15	0.542	0.2999	1520.56	10.23
288.15	0.677	0.2999	1525.68	10.23
288.15	0.7978	0.2999	1534.82	10.23
288.15	0.8687	0.2999	1539.19	10.23
293.15	0	0.1059	1489.9	10.23
293.15	0.0806	0.1059	1494.3	10.23
293.15	0.1288	0.1059	1496.94	10.23
293.15	0.29	0.1059	1505.75	10.23
293.15	0.3719	0.1059	1510.22	10.23
293.15	0.4382	0.1059	1513.85	10.23
293.15	0.5442	0.1059	1519.64	10.23
293.15	0.6606	0.1059	1526	10.23
293.15	0.8182	0.1059	1534.61	10.23
293.15	0.8716	0.1059	1537.53	10.23
293.15	0	0.2999	1505.58	10.23
293.15	0.0958	0.2999	1510.83	10.23
293.15	0.1329	0.2999	1512.12	10.23
293.15	0.2782	0.2999	1520.04	10.23
293.15	0.3917	0.2999	1526.21	10.23
293.15	0.4552	0.2999	1529.78	10.23
293.15	0.542	0.2999	1534.18	10.23
293.15	0.677	0.2999	1539.04	10.23
293.15	0.7978	0.2999	1547.89	10.24
293.15	0.8687	0.2999	1552.19	10.24
298.15	0	0.1059	1503.87	10.23
298.15	0.0806	0.1059	1508.11	10.23
298.15	0.1288	0.1059	1510.64	10.23
298.15	0.29	0.1059	1519.12	10.23
298.15	0.3719	0.1059	1523.42	10.23
298.15	0.4382	0.1059	1526.91	10.23
298.15	0.5442	0.1059	1532.48	10.23
298.15	0.6606	0.1059	1538.6	10.23
298.15	0.8182	0.1059	1546.89	10.24
298.15	0.8716	0.1059	1549.7	10.24
298.15	0	0.2999	1518.35	10.23
298.15	0.0958	0.2999	1523.41	10.23
298.15	0.1329	0.2999	1524.8	10.23
298.15	0.2782	0.2999	1532.33	10.23
298.15	0.3917	0.2999	1538.36	10.23
298.15	0.4552	0.2999	1541.82	10.23
298.15	0.542	0.2999	1546.05	10.24
298.15	0.677	0.2999	1550.71	10.24
298.15	0.7978	0.2999	1559.41	10.24
298.15	0.8687	0.2999	1563.55	10.24
303.15	0	0.1059	1517.38	10.23
303.15	0.0806	0.1059	1521.5	10.23
303.15	0.1288	0.1059	1523.97	10.23
303.15	0.29	0.1059	1532.21	10.23
303.15	0.3719	0.1059	1536.4	10.23
303.15	0.4382	0.1059	1539.79	10.23
303.15	0.5442	0.1059	1545.22	10.24
303.15	0.6606	0.1059	1551.17	10.24
303.15	0.8182	0.1059	1559.23	10.24
303.15	0.8716	0.1059	1561.96	10.24
303.15	0	0.2999	1529.42	10.23
303.15	0.0958	0.2999	1534.24	10.23
303.15	0.1329	0.2999	1535.74	10.23
303.15	0.2782	0.2999	1542.97	10.23
303.15	0.3917	0.2999	1548.81	10.24
303.15	0.4552	0.2999	1552.15	10.24
303.15	0.542	0.2999	1556.28	10.24
303.15	0.677	0.2999	1560.77	10.24
303.15	0.7978	0.2999	1569.29	10.24
303.15	0.8687	0.2999	1573.34	10.24
308.15	0	0.1059	1527.06	10.23
308.15	0.0806	0.1059	1531.06	10.23
308.15	0.1288	0.1059	1533.45	10.23
308.15	0.29	0.1059	1541.46	10.23
308.15	0.3719	0.1059	1545.52	10.24
308.15	0.4382	0.1059	1548.82	10.24
308.15	0.5442	0.1059	1554.08	10.24
308.15	0.6606	0.1059	1559.86	10.24
308.15	0.8182	0.1059	1567.68	10.24
308.15	0.8716	0.1059	1570.33	10.24
308.15	0	0.2999	1538.76	10.23
308.15	0.0958	0.2999	1544.02	10.23
308.15	0.1329	0.2999	1545.3	10.24
308.15	0.2782	0.2999	1552.12	10.24
308.15	0.3917	0.2999	1557.86	10.24
308.15	0.4552	0.2999	1561.13	10.24
308.15	0.542	0.2999	1565.19	10.24
308.15	0.677	0.2999	1570.45	10.24
308.15	0.7978	0.2999	1577.99	10.24
308.15	0.8687	0.2999	1582.03	10.24

System: (S)-2-aminopropanoic acid + water + 1-methylimidazolium chloride; phases: Liquid
Fixed: Pressure, kPa = 100
Property: Mass density, kg/m3 (Liquid); method: Vibrating tube method
Temperature, K	Molality, mol/kg of (S)-2-aminopropanoic acid	Solvent: Molality, mol/kg of 1-methylimidazolium chloride	Mass density, kg/m3	uncertainty
288.15	0	0.1059	1001.789	2.161
288.15	0.0673	0.1059	1003.808	2.163
288.15	0.1485	0.1059	1006.244	2.164
288.15	0.2368	0.1059	1008.893	2.166
288.15	0.335	0.1059	1011.839	2.169
288.15	0.4351	0.1059	1014.842	2.171
288.15	0.5851	0.1059	1019.342	2.174
288.15	0.5883	0.1059	1019.438	2.174
288.15	0.7798	0.1059	1025.183	2.179
288.15	0.9206	0.1059	1029.407	2.182
288.15	0	0.2999	1006.711	2.165
288.15	0.0701	0.2999	1008.729	2.166
288.15	0.1349	0.2999	1010.592	2.168
288.15	0.2458	0.2999	1013.784	2.17
288.15	0.3689	0.2999	1017.325	2.173
288.15	0.4247	0.2999	1018.931	2.174
288.15	0.5526	0.2999	1022.611	2.177
288.15	0.6414	0.2999	1025.157	2.179
288.15	0.7911	0.2999	1029.469	2.182
288.15	0.9414	0.2999	1033.802	2.186
293.15	0	0.1059	1000.725	2.16
293.15	0.0673	0.1059	1002.744	2.162
293.15	0.1485	0.1059	1005.18	2.164
293.15	0.2368	0.1059	1007.829	2.166
293.15	0.335	0.1059	1010.775	2.168
293.15	0.4351	0.1059	1013.778	2.17
293.15	0.5851	0.1059	1018.278	2.174
293.15	0.5883	0.1059	1018.374	2.174
293.15	0.7798	0.1059	1024.119	2.178
293.15	0.9206	0.1059	1028.343	2.181
293.15	0	0.2999	1005.672	2.164
293.15	0.0701	0.2999	1007.67	2.166
293.15	0.1349	0.2999	1009.516	2.167
293.15	0.2458	0.2999	1012.675	2.169
293.15	0.3689	0.2999	1016.18	2.172
293.15	0.4247	0.2999	1017.77	2.173
293.15	0.5526	0.2999	1021.408	2.176
293.15	0.6414	0.2999	1023.94	2.178
293.15	0.7911	0.2999	1028.2	2.181
293.15	0.9414	0.2999	1032.504	2.185
298.15	0	0.1059	999.589	2.16
298.15	0.0673	0.1059	1001.608	2.161
298.15	0.1485	0.1059	1004.044	2.163
298.15	0.2368	0.1059	1006.693	2.165
298.15	0.335	0.1059	1009.639	2.167
298.15	0.4351	0.1059	1012.642	2.169
298.15	0.5851	0.1059	1017.142	2.173
298.15	0.5883	0.1059	1017.238	2.173
298.15	0.7798	0.1059	1022.983	2.177
298.15	0.9206	0.1059	1027.207	2.181
298.15	0	0.2999	1004.096	2.163
298.15	0.0701	0.2999	1006.38	2.165
298.15	0.1349	0.2999	1008.209	2.166
298.15	0.2458	0.2999	1011.346	2.168
298.15	0.3689	0.2999	1014.82	2.171
298.15	0.4247	0.2999	1016.392	2.172
298.15	0.5526	0.2999	1020.001	2.175
298.15	0.6414	0.2999	1022.502	2.177
298.15	0.7911	0.2999	1026.731	2.18
298.15	0.9414	0.2999	1030.959	2.183
303.15	0	0.1059	998.045	2.159
303.15	0.0673	0.1059	1000.064	2.16
303.15	0.1485	0.1059	1002.5	2.162
303.15	0.2368	0.1059	1005.149	2.164
303.15	0.335	0.1059	1008.095	2.166
303.15	0.4351	0.1059	1011.098	2.168
303.15	0.5851	0.1059	1015.598	2.172
303.15	0.5883	0.1059	1015.694	2.172
303.15	0.7798	0.1059	1021.439	2.176
303.15	0.9206	0.1059	1025.663	2.179
303.15	0	0.2999	1002.899	2.162
303.15	0.0701	0.2999	1004.869	2.163
303.15	0.1349	0.2999	1006.689	2.165
303.15	0.2458	0.2999	1009.805	2.167
303.15	0.3689	0.2999	1013.259	2.17
303.15	0.4247	0.2999	1014.824	2.171
303.15	0.5526	0.2999	1018.41	2.174
303.15	0.6414	0.2999	1020.902	2.176
303.15	0.7911	0.2999	1025.091	2.179
303.15	0.9414	0.2999	1029.31	2.182
308.15	0	0.1059	996.552	2.158
308.15	0.0673	0.1059	998.571	2.159
308.15	0.1485	0.1059	1001.007	2.161
308.15	0.2368	0.1059	1003.656	2.163
308.15	0.335	0.1059	1006.602	2.165
308.15	0.4351	0.1059	1009.605	2.167
308.15	0.5851	0.1059	1014.105	2.17
308.15	0.5883	0.1059	1014.201	2.17
308.15	0.7798	0.1059	1019.946	2.175
308.15	0.9206	0.1059	1024.17	2.178
308.15	0	0.2999	1001.152	2.161
308.15	0.0701	0.2999	1003.111	2.162
308.15	0.1349	0.2999	1004.921	2.164
308.15	0.2458	0.2999	1008.015	2.166
308.15	0.3689	0.2999	1011.451	2.168
308.15	0.4247	0.2999	1013.007	2.17
308.15	0.5526	0.2999	1016.562	2.172
308.15	0.6414	0.2999	1019.03	2.174
308.15	0.7911	0.2999	1023.202	2.177
308.15	0.9414	0.2999	1027.38	2.181

System: (S)-2-aminopropanoic acid + water + 1-methylimidazolium chloride; phases: Liquid
Fixed: Pressure, kPa = 100
Fixed: Frequency, MHz = 3
Property: Speed of sound, m/s (Liquid); method: Sing-around technique in a fixed-path interferometer
Temperature, K	Molality, mol/kg of (S)-2-aminopropanoic acid	Solvent: Molality, mol/kg of 1-methylimidazolium chloride	Speed of sound, m/s	uncertainty
288.15	0	0.1059	1473.45	10.23
288.15	0.0673	0.1059	1478.32	10.23
288.15	0.1485	0.1059	1484.2	10.23
288.15	0.2368	0.1059	1490.6	10.23
288.15	0.335	0.1059	1497.71	10.23
288.15	0.4351	0.1059	1504.96	10.23
288.15	0.5851	0.1059	1515.82	10.23
288.15	0.5883	0.1059	1516.05	10.23
288.15	0.7798	0.1059	1529.92	10.23
288.15	0.9206	0.1059	1540.12	10.23
288.15	0	0.2999	1491	10.23
288.15	0.0701	0.2999	1495.5	10.23
288.15	0.1349	0.2999	1500.29	10.23
288.15	0.2458	0.2999	1507.57	10.23
288.15	0.3689	0.2999	1516.39	10.23
288.15	0.4247	0.2999	1520.1	10.23
288.15	0.5526	0.2999	1529.61	10.23
288.15	0.6414	0.2999	1535.55	10.23
288.15	0.7911	0.2999	1545.57	10.24
288.15	0.9414	0.2999	1556.33	10.24
293.15	0	0.1059	1489.9	10.23
293.15	0.0673	0.1059	1494.57	10.23
293.15	0.1485	0.1059	1500.2	10.23
293.15	0.2368	0.1059	1506.32	10.23
293.15	0.335	0.1059	1513.13	10.23
293.15	0.4351	0.1059	1520.07	10.23
293.15	0.5851	0.1059	1530.46	10.23
293.15	0.5883	0.1059	1530.69	10.23
293.15	0.7798	0.1059	1543.96	10.24
293.15	0.9206	0.1059	1553.73	10.24
293.15	0	0.2999	1505.58	10.23
293.15	0.0701	0.2999	1509.75	10.23
293.15	0.1349	0.2999	1514.48	10.23
293.15	0.2458	0.2999	1521.36	10.23
293.15	0.3689	0.2999	1530.02	10.23
293.15	0.4247	0.2999	1533.42	10.23
293.15	0.5526	0.2999	1542.74	10.24
293.15	0.6414	0.2999	1548.27	10.24
293.15	0.7911	0.2999	1558.05	10.24
293.15	0.9414	0.2999	1568.46	10.24
298.15	0	0.1059	1503.87	10.23
298.15	0.0673	0.1059	1508.33	10.23
298.15	0.1485	0.1059	1513.72	10.23
298.15	0.2368	0.1059	1519.57	10.23
298.15	0.335	0.1059	1526.08	10.23
298.15	0.4351	0.1059	1532.72	10.23
298.15	0.5851	0.1059	1542.66	10.23
298.15	0.5883	0.1059	1542.87	10.24
298.15	0.7798	0.1059	1555.57	10.24
298.15	0.9206	0.1059	1564.91	10.24
298.15	0	0.2999	1518.35	10.23
298.15	0.0701	0.2999	1522.35	10.23
298.15	0.1349	0.2999	1526.9	10.23
298.15	0.2458	0.2999	1533.56	10.23
298.15	0.3689	0.2999	1541.9	10.23
298.15	0.4247	0.2999	1545.19	10.24
298.15	0.5526	0.2999	1554.16	10.24
298.15	0.6414	0.2999	1559.51	10.24
298.15	0.7911	0.2999	1568.93	10.24
298.15	0.9414	0.2999	1578.99	10.24
303.15	0	0.1059	1517.38	10.23
303.15	0.0673	0.1059	1521.66	10.23
303.15	0.1485	0.1059	1526.83	10.23
303.15	0.2368	0.1059	1532.44	10.23
303.15	0.335	0.1059	1538.69	10.23
303.15	0.4351	0.1059	1545.06	10.24
303.15	0.5851	0.1059	1554.6	10.24
303.15	0.5883	0.1059	1554.8	10.24
303.15	0.7798	0.1059	1566.98	10.24
303.15	0.9206	0.1059	1575.94	10.24
303.15	0	0.2999	1529.42	10.23
303.15	0.0701	0.2999	1533.29	10.23
303.15	0.1349	0.2999	1537.62	10.23
303.15	0.2458	0.2999	1544.15	10.23
303.15	0.3689	0.2999	1552.09	10.24
303.15	0.4247	0.2999	1555.36	10.24
303.15	0.5526	0.2999	1564.03	10.24
303.15	0.6414	0.2999	1569.18	10.24
303.15	0.7911	0.2999	1579.07	10.24
303.15	0.9414	0.2999	1588.05	10.24
308.15	0	0.1059	1527.06	10.23
308.15	0.0673	0.1059	1531.21	10.23
308.15	0.1485	0.1059	1536.21	10.23
308.15	0.2368	0.1059	1541.66	10.23
308.15	0.335	0.1059	1547.71	10.24
308.15	0.4351	0.1059	1553.88	10.24
308.15	0.5851	0.1059	1563.13	10.24
308.15	0.5883	0.1059	1563.32	10.24
308.15	0.7798	0.1059	1575.13	10.24
308.15	0.9206	0.1059	1583.81	10.24
308.15	0	0.2999	1538.76	10.23
308.15	0.0701	0.2999	1542.68	10.23
308.15	0.1349	0.2999	1546.6	10.24
308.15	0.2458	0.2999	1553.18	10.24
308.15	0.3689	0.2999	1560.59	10.24
308.15	0.4247	0.2999	1564.01	10.24
308.15	0.5526	0.2999	1572.62	10.24
308.15	0.6414	0.2999	1577.39	10.24
308.15	0.7911	0.2999	1586.61	10.24
308.15	0.9414	0.2999	1595.68	10.24

System: L-valine + water + 1-methylimidazolium chloride; phases: Liquid
Fixed: Pressure, kPa = 100
Property: Mass density, kg/m3 (Liquid); method: Vibrating tube method
Temperature, K	Molality, mol/kg of L-valine	Solvent: Molality, mol/kg of 1-methylimidazolium chloride	Mass density, kg/m3	uncertainty
288.15	0	0.1059	1001.789	2.161
288.15	0.0441	0.1059	1002.936	2.162
288.15	0.0907	0.1059	1004.147	2.163
288.15	0.121	0.1059	1004.935	2.164
288.15	0.1756	0.1059	1006.355	2.165
288.15	0.2414	0.1059	1008.065	2.166
288.15	0.3285	0.1059	1010.33	2.168
288.15	0.4487	0.1059	1013.455	2.17
288.15	0	0.2999	1006.711	2.165
288.15	0.037	0.2999	1007.454	2.165
288.15	0.0691	0.2999	1008.101	2.166
288.15	0.1538	0.2999	1009.819	2.167
288.15	0.313	0.2999	1013.095	2.17
288.15	0.3933	0.2999	1014.777	2.171
288.15	0.4958	0.2999	1016.939	2.173
293.15	0	0.1059	1000.725	2.16
293.15	0.0441	0.1059	1001.872	2.161
293.15	0.0907	0.1059	1003.083	2.162
293.15	0.121	0.1059	1003.871	2.163
293.15	0.1756	0.1059	1005.291	2.164
293.15	0.2414	0.1059	1007.001	2.165
293.15	0.3285	0.1059	1009.266	2.167
293.15	0.4487	0.1059	1012.391	2.169
293.15	0	0.2999	1005.672	2.164
293.15	0.037	0.2999	1006.409	2.165
293.15	0.0691	0.2999	1007.054	2.165
293.15	0.1538	0.2999	1008.76	2.166
293.15	0.313	0.2999	1012.015	2.169
293.15	0.3933	0.2999	1013.672	2.17
293.15	0.4958	0.2999	1015.82	2.172
298.15	0	0.1059	999.589	2.16
298.15	0.0441	0.1059	1000.692	2.16
298.15	0.0907	0.1059	1001.857	2.161
298.15	0.121	0.1059	1002.614	2.162
298.15	0.1756	0.1059	1003.979	2.163
298.15	0.2414	0.1059	1005.624	2.164
298.15	0.3285	0.1059	1007.802	2.166
298.15	0.4487	0.1059	1010.807	2.168
298.15	0	0.2999	1004.096	2.163
298.15	0.037	0.2999	1005.125	2.164
298.15	0.0691	0.2999	1005.761	2.164
298.15	0.1538	0.2999	1007.449	2.165
298.15	0.313	0.2999	1010.671	2.168
298.15	0.3933	0.2999	1012.321	2.169
298.15	0.4958	0.2999	1014.45	2.171
303.15	0	0.1059	998.045	2.159
303.15	0.0441	0.1059	999.148	2.159
303.15	0.0907	0.1059	1000.313	2.16
303.15	0.121	0.1059	1001.07	2.161
303.15	0.1756	0.1059	1002.435	2.162
303.15	0.2414	0.1059	1004.08	2.163
303.15	0.3285	0.1059	1006.258	2.164
303.15	0.4487	0.1059	1009.263	2.167
303.15	0	0.2999	1002.899	2.162
303.15	0.037	0.2999	1003.622	2.163
303.15	0.0691	0.2999	1004.253	2.163
303.15	0.1538	0.2999	1005.922	2.164
303.15	0.313	0.2999	1009.101	2.167
303.15	0.3933	0.2999	1010.731	2.168
303.15	0.4958	0.2999	1012.82	2.169
308.15	0	0.1059	996.552	2.158
308.15	0.0441	0.1059	997.699	2.159
308.15	0.0907	0.1059	998.91	2.159
308.15	0.121	0.1059	999.698	2.16
308.15	0.1756	0.1059	1001.118	2.161
308.15	0.2414	0.1059	1002.828	2.162
308.15	0.3285	0.1059	1005.093	2.164
308.15	0.4487	0.1059	1008.218	2.166
308.15	0	0.2999	1001.152	2.161
308.15	0.037	0.2999	1001.866	2.161
308.15	0.0691	0.2999	1002.49	2.162
308.15	0.1538	0.2999	1004.144	2.163
308.15	0.313	0.2999	1007.311	2.165
308.15	0.3933	0.2999	1008.928	2.166
308.15	0.4958	0.2999	1011.017	2.168

System: L-valine + water + 1-methylimidazolium chloride; phases: Liquid
Fixed: Pressure, kPa = 100
Fixed: Frequency, MHz = 3
Property: Speed of sound, m/s (Liquid); method: Sing-around technique in a fixed-path interferometer
Temperature, K	Molality, mol/kg of L-valine	Solvent: Molality, mol/kg of 1-methylimidazolium chloride	Speed of sound, m/s	uncertainty
288.15	0	0.1059	1473.45	10.23
288.15	0.0441	0.1059	1478.16	10.23
288.15	0.0907	0.1059	1483.14	10.23
288.15	0.121	0.1059	1486.37	10.23
288.15	0.1756	0.1059	1492.2	10.23
288.15	0.2414	0.1059	1499.23	10.23
288.15	0.3285	0.1059	1508.53	10.23
288.15	0.4487	0.1059	1521.37	10.23
288.15	0	0.2999	1491	10.23
288.15	0.037	0.2999	1494.24	10.23
288.15	0.0691	0.2999	1497.14	10.23
288.15	0.1538	0.2999	1503.87	10.23
288.15	0.313	0.2999	1516.13	10.23
288.15	0.3933	0.2999	1522.11	10.23
288.15	0.4958	0.2999	1530.84	10.23
293.15	0	0.1059	1489.9	10.23
293.15	0.0441	0.1059	1494.34	10.23
293.15	0.0907	0.1059	1499.03	10.23
293.15	0.121	0.1059	1502.08	10.23
293.15	0.1756	0.1059	1507.58	10.23
293.15	0.2414	0.1059	1514.21	10.23
293.15	0.3285	0.1059	1522.98	10.23
293.15	0.4487	0.1059	1535.08	10.23
293.15	0	0.2999	1505.58	10.23
293.15	0.037	0.2999	1508.62	10.23
293.15	0.0691	0.2999	1511.41	10.23
293.15	0.1538	0.2999	1517.72	10.23
293.15	0.313	0.2999	1529.5	10.23
293.15	0.3933	0.2999	1535.19	10.23
293.15	0.4958	0.2999	1543.39	10.24
298.15	0	0.1059	1503.87	10.23
298.15	0.0441	0.1059	1508.1	10.23
298.15	0.0907	0.1059	1512.57	10.23
298.15	0.121	0.1059	1515.48	10.23
298.15	0.1756	0.1059	1520.71	10.23
298.15	0.2414	0.1059	1527.03	10.23
298.15	0.3285	0.1059	1535.38	10.23
298.15	0.4487	0.1059	1546.91	10.24
298.15	0	0.2999	1518.35	10.23
298.15	0.037	0.2999	1521.2	10.23
298.15	0.0691	0.2999	1523.91	10.23
298.15	0.1538	0.2999	1529.96	10.23
298.15	0.313	0.2999	1541.15	10.23
298.15	0.3933	0.2999	1546.6	10.24
298.15	0.4958	0.2999	1554.36	10.24
303.15	0	0.1059	1517.38	10.23
303.15	0.0441	0.1059	1521.35	10.23
303.15	0.0907	0.1059	1525.54	10.23
303.15	0.121	0.1059	1528.26	10.23
303.15	0.1756	0.1059	1533.18	10.23
303.15	0.2414	0.1059	1539.09	10.23
303.15	0.3285	0.1059	1546.93	10.24
303.15	0.4487	0.1059	1557.74	10.24
303.15	0	0.2999	1529.42	10.23
303.15	0.037	0.2999	1532.23	10.23
303.15	0.0691	0.2999	1534.66	10.23
303.15	0.1538	0.2999	1540.59	10.23
303.15	0.313	0.2999	1551.02	10.24
303.15	0.3933	0.2999	1556.42	10.24
303.15	0.4958	0.2999	1563.82	10.24
308.15	0	0.1059	1527.06	10.23
308.15	0.0441	0.1059	1530.87	10.23
308.15	0.0907	0.1059	1534.9	10.23
308.15	0.121	0.1059	1537.52	10.23
308.15	0.1756	0.1059	1542.25	10.24
308.15	0.2414	0.1059	1547.94	10.24
308.15	0.3285	0.1059	1555.47	10.24
308.15	0.4487	0.1059	1565.86	10.24
308.15	0	0.2999	1538.76	10.23
308.15	0.037	0.2999	1541.43	10.23
308.15	0.0691	0.2999	1543.74	10.23
308.15	0.1538	0.2999	1549.64	10.24
308.15	0.313	0.2999	1559.76	10.24
308.15	0.3933	0.2999	1564.73	10.24
308.15	0.4958	0.2999	1571.8	10.24

System: water + 1-methylimidazolium chloride; phases: Liquid
Fixed: Pressure, kPa = 100
Property: Mass density, kg/m3 (Liquid); method: Vibrating tube method
Temperature, K	Molality, mol/kg of 1-methylimidazolium chloride	Mass density, kg/m3	uncertainty
288.15	0.1059	1001.789	2.161
288.15	0.2999	1006.711	2.165
293.15	0.1059	1000.725	2.16
293.15	0.2999	1005.672	2.164
298.15	0.1059	999.589	2.16
298.15	0.2999	1004.096	2.163
303.15	0.1059	998.045	2.159
303.15	0.2999	1002.899	2.162
308.15	0.1059	996.552	2.158
308.15	0.2999	1001.152	2.161

System: water + 1-methylimidazolium chloride; phases: Liquid
Fixed: Pressure, kPa = 100
Fixed: Frequency, MHz = 3
Property: Speed of sound, m/s (Liquid); method: Sing-around technique in a fixed-path interferometer
Temperature, K	Molality, mol/kg of 1-methylimidazolium chloride	Speed of sound, m/s	uncertainty
288.15	0.1059	1473.45	10.23
288.15	0.2999	1491	10.23
293.15	0.1059	1489.9	10.23
293.15	0.2999	1505.58	10.23
298.15	0.1059	1503.87	10.23
298.15	0.2999	1518.35	10.23
303.15	0.1059	1517.38	10.23
303.15	0.2999	1529.42	10.23
308.15	0.1059	1527.06	10.23
308.15	0.2999	1538.76	10.23
