Measured thermophysical data. Viscosity of n-hexadecane, n-octadecane and n-eicosane at pressures up to 243 MPa and temperatures up to 534 K
Source: J. Chem. Thermodyn., 2014, 10.1016/j.jct.2014.01.008
Compound 1: hexadecane, C16H34, InChI=1S/C16H34/c1-3-5-7-9-11-13-15-16-14-12-10-8-6-4-2/h3-16H2,1-2H3, purity 99%
Compound 2: octadecane, C18H38, InChI=1S/C18H38/c1-3-5-7-9-11-13-15-17-18-16-14-12-10-8-6-4-2/h3-18H2,1-2H3, purity 99%
Compound 3: eicosane, C20H42, InChI=1S/C20H42/c1-3-5-7-9-11-13-15-17-19-20-18-16-14-12-10-8-6-4-2/h3-20H2,1-2H3, purity 99%

System: hexadecane; phases: Liquid
Property: Viscosity, Pa*s (Liquid); method: Falling or rolling sphere viscometry
Temperature, K	Pressure, kPa	Viscosity, Pa*s	uncertainty
303.9	3300	0.002826	8e-05
303.9	7300	0.002959	8.4e-05
303.9	12900	0.003184	8.9e-05
303.9	19000	0.003454	9.8e-05
303.9	26800	0.003793	0.000107
303.9	33600	0.004107	0.000117
325.7	8100	0.001943	5.9e-05
325.7	8300	0.001956	5.9e-05
325.7	21500	0.002263	6.9e-05
325.7	35600	0.002675	8.2e-05
325.7	49300	0.003067	8.2e-05
325.7	63600	0.00355	9.8e-05
325.7	77500	0.004056	0.000112
325.7	91800	0.004625	0.000127
325.7	104100	0.005179	0.000142
325.7	119200	0.005865	0.000163
325.7	122700	0.00607	0.000168
429.1	12800	0.000582	1.9e-05
429.1	12800	0.000586	1.9e-05
429.1	22200	0.000649	3.6e-05
429.1	22700	0.00065	3.6e-05
429.1	35800	0.000742	2.4e-05
429.1	70500	0.00101	3.4e-05
429.1	91600	0.001181	4e-05
429.1	118800	0.001405	4.8e-05
429.1	140300	0.001594	5e-05
429.1	167800	0.001847	5.8e-05
429.1	188000	0.002046	6.5e-05
429.1	222900	0.002459	7.8e-05
533.7	14100	0.000272	9e-06
533.7	14300	0.000276	9e-06
533.7	29900	0.000341	1.1e-05
533.7	30100	0.000342	1.1e-05
533.7	50400	0.00043	1.4e-05
533.7	50500	0.000433	1.4e-05
533.7	77100	0.000534	1.7e-05
533.7	104600	0.000642	2.1e-05
533.7	125000	0.000721	2.3e-05
533.7	152800	0.000829	2.6e-05
533.7	188400	0.000983	3.1e-05
533.7	210000	0.001077	3.5e-05
533.7	226600	0.001154	3.7e-05

System: hexadecane; phases: Crystal, Liquid
Property: Solid-liquid equilibrium temperature, K (Crystal); method: VISOBS
Pressure, kPa	Solid-liquid equilibrium temperature, K	uncertainty
54300	303.6	0.7
106300	314.5	0.7
158900	325	0.7
210600	333.9	0.7
267700	344.4	0.7

System: octadecane; phases: Liquid
Property: Viscosity, Pa*s (Liquid); method: Falling or rolling sphere viscometry
Temperature, K	Pressure, kPa	Viscosity, Pa*s	uncertainty
325.6	9800	0.002598	7e-05
325.6	16400	0.002778	7.5e-05
325.6	29600	0.003247	8.7e-05
325.6	37200	0.003568	9.6e-05
325.6	51000	0.004157	0.000111
325.6	60500	0.004578	0.000127
325.6	69000	0.00498	0.000141
325.6	70800	0.005095	0.000143
428.9	6800	0.000685	2.3e-05
428.9	21900	0.000831	2.7e-05
428.9	42100	0.001023	3.3e-05
428.9	63400	0.001232	4.1e-05
428.9	84300	0.001446	4.7e-05
428.9	104900	0.001649	5.3e-05
428.9	125500	0.001878	5.9e-05
428.9	147800	0.002125	6.7e-05
428.9	168000	0.002392	7.6e-05
428.9	188600	0.00265	8.4e-05
428.9	209600	0.002928	9.2e-05
428.9	230000	0.003207	0.000101
428.9	243100	0.003396	0.000107
533.9	9200	0.000303	1e-05
533.9	9500	0.000305	1e-05
533.9	15200	0.000336	1.1e-05
533.9	22500	0.00038	1.2e-05
533.9	44600	0.000497	1.6e-05
533.9	64000	0.000579	1.9e-05
533.9	85700	0.000686	2.2e-05
533.9	105900	0.000784	2.5e-05
533.9	126600	0.00088	2.8e-05
533.9	147600	0.000975	3.1e-05
533.9	147600	0.000985	3.2e-05
533.9	167700	0.001077	3.5e-05
533.9	188600	0.001201	3.9e-05
533.9	209100	0.001313	4.2e-05
533.9	229300	0.001411	4.5e-05
533.9	242900	0.001491	4.8e-05

System: octadecane; phases: Crystal, Liquid
Property: Solid-liquid equilibrium temperature, K (Crystal); method: VISOBS
Pressure, kPa	Solid-liquid equilibrium temperature, K	uncertainty
59900	315.2	0.7
102800	324.6	0.7
151000	334.8	0.7
205400	344.7	0.7
256400	354.2	0.7

System: eicosane; phases: Liquid
Property: Viscosity, Pa*s (Liquid); method: Falling or rolling sphere viscometry
Temperature, K	Pressure, kPa	Viscosity, Pa*s	uncertainty
325.8	6700	0.003184	8.6e-05
325.8	6700	0.003193	8.6e-05
325.8	14400	0.003511	9.4e-05
325.8	14400	0.003528	9.5e-05
325.8	21300	0.003828	0.000103
325.8	22300	0.003908	0.000105
325.8	28700	0.00425	0.000114
325.8	35500	0.004642	0.000125
429.3	5500	0.000837	2.7e-05
429.3	7400	0.000858	2.8e-05
429.3	21800	0.001029	3.4e-05
429.3	41800	0.001262	4.1e-05
429.3	63000	0.001498	4.8e-05
429.3	63000	0.001523	4.9e-05
429.3	83000	0.001777	5.7e-05
429.3	103700	0.002043	6.5e-05
429.3	125000	0.002351	7.5e-05
429.3	144500	0.002631	8.3e-05
429.3	144700	0.002638	8.4e-05
429.3	167900	0.002988	9.5e-05
429.3	187900	0.003321	0.000105
429.3	208900	0.003685	0.000116
429.3	228600	0.00404	0.000128
429.3	243100	0.004327	0.000137
533.8	6200	0.000346	1.1e-05
533.8	22900	0.000425	1.4e-05
533.8	43300	0.000541	1.7e-05
533.8	43500	0.000541	1.7e-05
533.8	63200	0.000647	2.1e-05
533.8	84300	0.00075	2.4e-05
533.8	104400	0.000861	2.8e-05
533.8	125000	0.000977	3.2e-05
533.8	146100	0.001097	3.6e-05
533.8	165900	0.001199	3.9e-05
533.8	187300	0.001341	4.4e-05
533.8	208200	0.001444	4.7e-05
533.8	228800	0.001556	5.1e-05

System: eicosane; phases: Crystal, Liquid
Property: Solid-liquid equilibrium temperature, K (Crystal); method: VISOBS
Pressure, kPa	Solid-liquid equilibrium temperature, K	uncertainty
21600	315.6	0.7
61500	325.3	0.7
105500	334.8	0.7
153800	344.6	0.7
218800	355.9	0.7
263800	364.3	0.7
