Measured thermophysical data. Surface tension between CO2 gas and tetra-n-butylammonium bromide aqueous solution
Source: J. Chem. Thermodyn., 2016, 10.1016/j.jct.2015.08.039
Compound 1: tetrabutylammonium bromide, C16H36BrN, InChI=1S/C16H36N.BrH/c1-5-9-13-17(14-10-6-2,15-11-7-3)16-12-8-4;/h5-16H2,1-4H3;1H/q+1;/p-1, purity 99%
Compound 2: water, H2O, InChI=1S/H2O/h1H2
Compound 3: carbon dioxide, CO2, InChI=1S/CO2/c2-1-3

System: tetrabutylammonium bromide + water; phases: Liquid, Air at 1 atmosphere
Fixed: Temperature, K = 298.2
Property: Surface tension liquid-gas, N/m (Liquid); method: Pendant drop shape
Mass fraction of tetrabutylammonium bromide	Surface tension liquid-gas, N/m	uncertainty
0.0697	0.05382	0.00142
0.1	0.05058	0.00132
0.14	0.04972	0.00118
0.3	0.04619	0.00114
0.4	0.04448	0.00121

System: carbon dioxide + tetrabutylammonium bromide + water; phases: Liquid, Gas
Property: Surface tension liquid-gas, N/m (Liquid); method: Pendant drop shape
Pressure, kPa	Temperature, K	Mass fraction of tetrabutylammonium bromide	Surface tension liquid-gas, N/m	uncertainty
1000	288.2	0.1	0.04727	0.00131
1000	288.2	0.2	0.04225	0.00123
1000	288.2	0.2	0.04209	0.00123
1000	288.2	0.3	0.04027	0.0011
1000	288.2	0.3	0.0398	0.00108
1000	288.2	0.4	0.03917	0.00102
2000	288.2	0.1	0.04109	0.00129
2000	288.2	0.2	0.03651	0.00123
2000	288.2	0.3	0.03461	0.00105
2000	288.2	0.4	0.03371	0.00097
1000	293.2	0.1	0.04695	0.00124
1000	293.2	0.2	0.04276	0.00112
1000	293.2	0.3	0.04027	0.00104
1000	293.2	0.4	0.0391	0.00104
2000	293.2	0.1	0.04089	0.00123
2000	293.2	0.2	0.03688	0.00104
2000	293.2	0.3	0.03489	0.00103
2000	293.2	0.4	0.03416	0.00097
1000	298.2	0.1	0.04622	0.0013
1000	298.2	0.2	0.04207	0.00113
1000	298.2	0.3	0.0407	0.00106
1000	298.2	0.4	0.039	0.00109
2000	298.2	0.1	0.04097	0.00119
2000	298.2	0.2	0.03651	0.00107
2000	298.2	0.3	0.03535	0.00101
2000	298.2	0.4	0.03457	0.00097
3000	298.2	0.1	0.03687	0.00118
3000	298.2	0.2	0.03249	0.00104
3000	298.2	0.4	0.02975	0.00094
4000	298.2	0.1	0.03105	0.00117
4000	298.2	0.2	0.02752	0.00098
4000	298.2	0.4	0.02471	0.00086
1000	303.2	0.1	0.04611	0.00126
1000	303.2	0.2	0.04185	0.00109
1000	303.2	0.3	0.04012	0.00106
1000	303.2	0.4	0.03905	0.00102
2000	303.2	0.1	0.04116	0.00117
2000	303.2	0.2	0.03741	0.00113
2000	303.2	0.3	0.03522	0.00101
2000	303.2	0.4	0.0345	0.00098
