Measured thermophysical data. Physicochemical characterization of choline based ionic liquids with chelating anions
Source: J. Chem. Thermodyn., 2019, 10.1016/j.jct.2018.10.026
Compound 1: 2-hydroxy-N,N,N-trimethylethanaminium (S)-2-hydroxypropanoate, C8H19NO4, InChI=1S/C5H14NO.C3H6O3/c1-6(2,3)4-5-7;1-2(4)3(5)6/h7H,4-5H2,1-3H3;2,4H,1H3,(H,5,6)/q+1;/p-1/t;2-/m.0/s1
Compound 2: choline 8-quinolinolate, C14H20N2O2, InChI=1S/C9H7NO.C5H14NO/c11-8-5-1-3-7-4-2-6-10-9(7)8;1-6(2,3)4-5-7/h1-6,11H;7H,4-5H2,1-3H3/q;+1/p-1
Compound 3: choline anthranilate, C12H20N2O3, InChI=1S/C7H7NO2.C5H14NO/c8-6-4-2-1-3-5(6)7(9)10;1-6(2,3)4-5-7/h1-4H,8H2,(H,9,10);7H,4-5H2,1-3H3/q;+1/p-1
Compound 4: choline picolinate, C11H18N2O3, InChI=1S/C6H5NO2.C5H14NO/c8-6(9)5-3-1-2-4-7-5;1-6(2,3)4-5-7/h1-4H,(H,8,9);7H,4-5H2,1-3H3/q;+1/p-1
Compound 5: tris(choline) diethylenetriaminepentaacetate, C29H62N6O13, InChI=1S/C14H23N3O10.3C5H14NO/c18-10(19)5-15(1-3-16(6-11(20)21)7-12(22)23)2-4-17(8-13(24)25)9-14(26)27;3*1-6(2,3)4-5-7/h1-9H2,(H,18,19)(H,20,21)(H,22,23)(H,24,25)(H,26,27);3*7H,4-5H2,1-3H3/q;3*+1/p-3

System: 2-hydroxy-N,N,N-trimethylethanaminium (S)-2-hydroxypropanoate; phases: Liquid
Fixed: Pressure, kPa = 101.325
Property: Mass density, kg/m3 (Liquid); method: Vibrating tube method
Temperature, K	Mass density, kg/m3	uncertainty
293.15	1137.33	11.15
298.15	1133.94	11.1
303.15	1130.52	11.05
308.15	1127.05	11
313.15	1123.55	10.95
318.15	1120.11	10.91
323.15	1116.7	10.86

System: 2-hydroxy-N,N,N-trimethylethanaminium (S)-2-hydroxypropanoate; phases: Liquid
Fixed: Pressure, kPa = 101.325
Property: Viscosity, Pa*s (Liquid); method: Concentric cylinders viscometry
Temperature, K	Viscosity, Pa*s	uncertainty
293.15	5.513	1.16
298.15	3.929	0.822
303.15	2.903	0.605
308.15	2.207	0.458
313.15	1.728	0.357
318.15	1.368	0.282
323.15	1.11	0.228

System: choline 8-quinolinolate; phases: Liquid
Fixed: Pressure, kPa = 101.325
Property: Mass density, kg/m3 (Liquid); method: Vibrating tube method
Temperature, K	Mass density, kg/m3	uncertainty
293.15	1162.71	6.45
298.15	1159.75	6.45
303.15	1156.73	6.44
308.15	1153.91	6.44
313.15	1150.97	6.43
318.15	1147.91	6.43
323.15	1144.78	6.42

System: choline 8-quinolinolate; phases: Liquid
Fixed: Pressure, kPa = 101.325
Property: Viscosity, Pa*s (Liquid); method: Concentric cylinders viscometry
Temperature, K	Viscosity, Pa*s	uncertainty
303.15	4870.96	1194.566
308.15	2363.49	567.861
313.15	1331.72	314.877
318.15	755.84	175.99
323.15	338.33	77.164

System: choline anthranilate; phases: Liquid
Fixed: Pressure, kPa = 101.325
Property: Mass density, kg/m3 (Liquid); method: Vibrating tube method
Temperature, K	Mass density, kg/m3	uncertainty
293.15	1183.51	7.44
298.15	1180.9	7.43
303.15	1178.08	7.41
308.15	1175.15	7.4
313.15	1172.13	7.39
318.15	1168.91	7.37
323.15	1165.72	7.36

System: choline anthranilate; phases: Liquid
Fixed: Pressure, kPa = 101.325
Property: Viscosity, Pa*s (Liquid); method: Concentric cylinders viscometry
Temperature, K	Viscosity, Pa*s	uncertainty
293.15	1227.71	290.072
298.15	761.84	177.702
303.15	423.91	97.369
308.15	239.95	54.323
313.15	127.97	28.531
318.15	73.48	16.172
323.15	47.54	10.362

System: choline picolinate; phases: Liquid
Fixed: Pressure, kPa = 101.325
Property: Mass density, kg/m3 (Liquid); method: Vibrating tube method
Temperature, K	Mass density, kg/m3	uncertainty
293.15	1189.3	6.5
298.15	1186.24	6.49
303.15	1182.92	6.49
308.15	1179.44	6.48
313.15	1176.91	6.48
318.15	1173.84	6.47
323.15	1170.78	6.47

System: choline picolinate; phases: Liquid
Fixed: Pressure, kPa = 101.325
Property: Viscosity, Pa*s (Liquid); method: Concentric cylinders viscometry
Temperature, K	Viscosity, Pa*s	uncertainty
293.15	5.783	1.208
298.15	4.018	0.834
303.15	2.831	0.585
308.15	2.157	0.444
313.15	1.689	0.347
318.15	1.255	0.257
323.15	1.099	0.224

System: tris(choline) diethylenetriaminepentaacetate; phases: Crystal, Liquid, Air at 1 atmosphere
Property: Normal melting temperature, K (Crystal); method: VISOBS
Normal melting temperature, K	uncertainty
303.15	2

System: tris(choline) diethylenetriaminepentaacetate; phases: Liquid
Fixed: Pressure, kPa = 101.325
Property: Mass density, kg/m3 (Liquid); method: Vibrating tube method
Temperature, K	Mass density, kg/m3	uncertainty
303.15	1250.9	6.13
308.15	1247.9	6.13
313.15	1244.85	6.13
318.15	1241.8	6.13
323.15	1238.96	6.13
