Measured thermophysical data. Dielectric study of molecular association in the binary mixtures (2-ethyl-1-hexanol + alcohol) and (cyclohexane + alcohol) at 298.2 K
Source: J. Chem. Thermodyn., 2005, 10.1016/j.jct.2004.09.017
Compound 1: ethanol, C2H6O, InChI=1S/C2H6O/c1-2-3/h3H,2H2,1H3
Compound 2: butan-1-ol, C4H10O, InChI=1S/C4H10O/c1-2-3-4-5/h5H,2-4H2,1H3
Compound 3: 2-methylpropan-2-ol, C4H10O, InChI=1S/C4H10O/c1-4(2,3)5/h5H,1-3H3
Compound 4: 2-ethyl-1-hexanol, C8H18O, InChI=1S/C8H18O/c1-3-5-6-8(4-2)7-9/h8-9H,3-7H2,1-2H3
Compound 5: cyclohexane, C6H12, InChI=1S/C6H12/c1-2-4-6-5-3-1/h1-6H2

System: ethanol; phases: Liquid
Property: Refractive index (Na D-line) (Liquid); method: ABBE:UFactor:2
Temperature, K	Pressure, kPa	Refractive index (Na D-line)	uncertainty
298.2	101.325	1.3592	0.001

System: ethanol; phases: Liquid
Property: Relative permittivity at various frequencies (Liquid); method: Wayne Kerr model 6425B Digibridge
Temperature, K	Pressure, kPa	Frequency, MHz	Relative permittivity at various frequencies	uncertainty
298.2	101.3	0.01	23.646	0.9458

System: butan-1-ol; phases: Liquid
Property: Refractive index (Na D-line) (Liquid); method: ABBE:UFactor:2
Temperature, K	Pressure, kPa	Refractive index (Na D-line)	uncertainty
298.2	101.325	1.3988	0.001

System: butan-1-ol; phases: Liquid
Property: Relative permittivity at various frequencies (Liquid); method: Wayne Kerr model 6425B Digibridge
Temperature, K	Pressure, kPa	Frequency, MHz	Relative permittivity at various frequencies	uncertainty
298.2	101.3	0.01	17.5	0.7

System: 2-methylpropan-2-ol; phases: Liquid
Property: Refractive index (Na D-line) (Liquid); method: ABBE:UFactor:2
Temperature, K	Pressure, kPa	Refractive index (Na D-line)	uncertainty
298.2	101.325	1.3864	0.001

System: 2-methylpropan-2-ol; phases: Liquid
Property: Relative permittivity at various frequencies (Liquid); method: Wayne Kerr model 6425B Digibridge
Temperature, K	Pressure, kPa	Frequency, MHz	Relative permittivity at various frequencies	uncertainty
298.2	101.3	0.01	12.23	0.4892

System: 2-ethyl-1-hexanol; phases: Liquid
Property: Refractive index (Na D-line) (Liquid); method: ABBE:UFactor:2
Temperature, K	Pressure, kPa	Refractive index (Na D-line)	uncertainty
298.2	101.325	1.4316	0.001

System: 2-ethyl-1-hexanol; phases: Liquid
Property: Relative permittivity at various frequencies (Liquid); method: Wayne Kerr model 6425B Digibridge
Temperature, K	Pressure, kPa	Frequency, MHz	Relative permittivity at various frequencies	uncertainty
298.2	101.3	0.01	7.354	0.2942

System: ethanol + cyclohexane; phases: Liquid
Fixed: Temperature, K = 298.2
Fixed: Pressure, kPa = 101.3
Property: Refractive index (Na D-line) (Liquid); method: ABBE:UFactor:2
Mole fraction of ethanol	Refractive index (Na D-line)	uncertainty
0.1	1.4235	0.001
0.24	1.4179	0.001
0.42	1.4103	0.001
0.55	1.4032	0.001
0.66	1.3953	0.001
0.74	1.3887	0.001
0.81	1.3813	0.001
0.9	1.3733	0.001

System: ethanol + cyclohexane; phases: Liquid
Fixed: Temperature, K = 298.2
Fixed: Pressure, kPa = 101.3
Fixed: Frequency, MHz = 0.1
Property: Relative permittivity at various frequencies (Liquid); method: Wayne Kerr model 6425B Digibridge
Mole fraction of ethanol	Relative permittivity at various frequencies	uncertainty
0.1	2.155	0.0862
0.24	2.571	0.1028
0.42	4.223	0.1689
0.55	6.462	0.2585
0.66	8.974	0.359
0.74	11.249	0.45
0.81	13.878	0.5551
0.9	17.89	0.7156

System: butan-1-ol + cyclohexane; phases: Liquid
Fixed: Temperature, K = 298.2
Fixed: Pressure, kPa = 101.3
Property: Refractive index (Na D-line) (Liquid); method: ABBE:UFactor:2
Mole fraction of butan-1-ol	Refractive index (Na D-line)	uncertainty
0.05	1.4206	0.001
0.1	1.4191	0.001
0.2	1.4162	0.001
0.3	1.4132	0.001
0.4	1.4109	0.001
0.5	1.4085	0.001
0.6	1.4061	0.001
0.72	1.4035	0.001

System: butan-1-ol + cyclohexane; phases: Liquid
Fixed: Temperature, K = 298.2
Fixed: Pressure, kPa = 101.3
Fixed: Frequency, MHz = 0.1
Property: Relative permittivity at various frequencies (Liquid); method: Wayne Kerr model 6425B Digibridge
Mole fraction of butan-1-ol	Relative permittivity at various frequencies	uncertainty
0.05	2.439	0.0976
0.1	2.683	0.1073
0.2	3.112	0.1245
0.3	3.952	0.1581
0.4	4.888	0.1955
0.5	6.713	0.2685
0.6	8.451	0.338
0.72	10.848	0.4339

System: 2-methylpropan-2-ol + cyclohexane; phases: Liquid
Fixed: Temperature, K = 298.2
Fixed: Pressure, kPa = 101.3
Property: Refractive index (Na D-line) (Liquid); method: ABBE:UFactor:2
Mole fraction of 2-methylpropan-2-ol	Refractive index (Na D-line)	uncertainty
0.07	1.4241	0.001
0.1	1.4226	0.001
0.2	1.4179	0.001
0.3	1.4138	0.001
0.4	1.41	0.001
0.5	1.4056	0.001
0.6	1.4007	0.001
0.8	1.3928	0.001

System: 2-methylpropan-2-ol + cyclohexane; phases: Liquid
Fixed: Temperature, K = 298.2
Fixed: Pressure, kPa = 101.3
Fixed: Frequency, MHz = 0.1
Property: Relative permittivity at various frequencies (Liquid); method: Wayne Kerr model 6425B Digibridge
Mole fraction of 2-methylpropan-2-ol	Relative permittivity at various frequencies	uncertainty
0.07	2.051	0.082
0.1	2.058	0.0823
0.2	2.089	0.0836
0.3	2.308	0.0923
0.4	2.586	0.1034
0.5	3.096	0.1238
0.6	3.88	0.1552
0.8	6.422	0.2569

System: ethanol + 2-ethyl-1-hexanol; phases: Liquid
Fixed: Temperature, K = 298.2
Fixed: Pressure, kPa = 101.3
Property: Refractive index (Na D-line) (Liquid); method: ABBE:UFactor:2
Mole fraction of ethanol	Refractive index (Na D-line)	uncertainty
0	1.4316	0.001
0.12	1.4261	0.001
0.23	1.4232	0.001
0.32	1.4194	0.001
0.4	1.4162	0.001
0.47	1.4123	0.001
0.53	1.4097	0.001
0.64	1.4015	0.001
0.7	1.3971	0.001
0.82	1.386	0.001
1	1.3592	0.001

System: ethanol + 2-ethyl-1-hexanol; phases: Liquid
Fixed: Temperature, K = 298.2
Fixed: Pressure, kPa = 101.3
Fixed: Frequency, MHz = 0.1
Property: Relative permittivity at various frequencies (Liquid); method: Wayne Kerr model 6425B Digibridge
Mole fraction of ethanol	Relative permittivity at various frequencies	uncertainty
0	7.354	0.2942
0.12	8.086	0.3234
0.23	8.999	0.36
0.32	10.192	0.4077
0.4	11.099	0.444
0.47	12.08	0.4832
0.53	12.744	0.5098
0.64	14.496	0.5798
0.7	15.885	0.6354
0.82	18.259	0.7304
1	23.646	0.9458

System: butan-1-ol + 2-ethyl-1-hexanol; phases: Liquid
Fixed: Temperature, K = 298.2
Fixed: Pressure, kPa = 101.3
Property: Refractive index (Na D-line) (Liquid); method: ABBE:UFactor:2
Mole fraction of butan-1-ol	Refractive index (Na D-line)	uncertainty
0	1.4316	0.001
0.1	1.4291	0.001
0.15	1.4278	0.001
0.3	1.4238	0.001
0.42	1.4214	0.001
0.53	1.4182	0.001
0.63	1.415	0.001
0.72	1.412	0.001
0.8	1.4088	0.001
0.9	1.4036	0.001
1	1.3988	0.001

System: butan-1-ol + 2-ethyl-1-hexanol; phases: Liquid
Fixed: Temperature, K = 298.2
Fixed: Pressure, kPa = 101.3
Fixed: Frequency, MHz = 0.1
Property: Relative permittivity at various frequencies (Liquid); method: Wayne Kerr model 6425B Digibridge
Mole fraction of butan-1-ol	Relative permittivity at various frequencies	uncertainty
0	7.354	0.2942
0.1	8.21	0.3284
0.15	8.682	0.3473
0.3	10.48	0.4192
0.42	11.42	0.4568
0.53	12.01	0.4804
0.63	12.9	0.516
0.72	14.34	0.5736
0.8	15.21	0.6084
0.9	16.41	0.6564
1	17.5	0.7

System: 2-methylpropan-2-ol + 2-ethyl-1-hexanol; phases: Liquid
Fixed: Temperature, K = 298.2
Fixed: Pressure, kPa = 101.3
Property: Refractive index (Na D-line) (Liquid); method: ABBE:UFactor:2
Mole fraction of 2-methylpropan-2-ol	Refractive index (Na D-line)	uncertainty
0	1.4316	0.001
0.05	1.4304	0.001
0.07	1.4298	0.001
0.09	1.429	0.001
0.1	1.4287	0.001
0.2	1.427	0.001
0.3	1.4235	0.001
0.4	1.42	0.001
0.5	1.4163	0.001
0.6	1.4117	0.001
1	1.3864	0.001

System: 2-methylpropan-2-ol + 2-ethyl-1-hexanol; phases: Liquid
Fixed: Temperature, K = 298.2
Fixed: Pressure, kPa = 101.3
Fixed: Frequency, MHz = 0.1
Property: Relative permittivity at various frequencies (Liquid); method: Wayne Kerr model 6425B Digibridge
Mole fraction of 2-methylpropan-2-ol	Relative permittivity at various frequencies	uncertainty
0	7.354	0.2942
0.05	7.487	0.2995
0.07	7.598	0.3039
0.09	7.653	0.3061
0.1	7.685	0.3074
0.2	8.057	0.3223
0.3	8.506	0.3402
0.4	8.933	0.3573
0.5	9.398	0.3759
0.6	9.952	0.3981
1	12.23	0.4892
