Measured thermophysical data. Thermodynamics of proton dissociations from aqueous threonine and isoleucine at temperatures from (278.15 to 393.15) K, molalities from (0.01 to 1.0) mol * kg-1, and at the pressure 0.35 MPa: Apparent molar heat capacities and apparent molar volumes of zwitterionic, protonated cationic, and deprotonated anionic forms
Source: J. Chem. Thermodyn., 2007, 10.1016/j.jct.2006.05.013
Compound 1: 2-amino-3-methylpentanoic acid, C6H13NO2, InChI=1S/C6H13NO2/c1-3-4(2)5(7)6(8)9/h4-5H,3,7H2,1-2H3,(H,8,9)/t4-,5-/m0/s1, purity 99.5%
Compound 2: 2-amino-3-hydroxybutanoic acid, C4H9NO3, InChI=1S/C4H9NO3/c1-2(6)3(5)4(7)8/h2-3,6H,5H2,1H3,(H,7,8), purity 99.5%
Compound 3: hydrogen chloride, ClH, InChI=1S/ClH/h1H
Compound 4: sodium hydroxide, HNaO, InChI=1S/Na.H2O/h;1H2/q+1;/p-1
Compound 5: water, H2O, InChI=1S/H2O/h1H2

System: 2-amino-3-methylpentanoic acid + water; phases: Liquid
Fixed: Pressure, kPa = 350
Property: Molar heat capacity at constant pressure, J/K/mol (Liquid); method: High precision DSC
Temperature, K	Molality, mol/kg of 2-amino-3-methylpentanoic acid	Molar heat capacity at constant pressure, J/K/mol	uncertainty
278.15	0.0101	75.75785	0.022
278.15	0.0204	75.81891	0.022
278.15	0.0402	75.92125	0.022
278.15	0.0799	76.12552	0.022
278.15	0.1601	76.52847	0.022
278.15	0.2125	76.79966	0.022
283.15	0.0101	75.58651	0.022
283.15	0.0204	75.64918	0.022
283.15	0.0402	75.75657	0.022
283.15	0.0799	75.96738	0.022
283.15	0.1601	76.38725	0.022
283.15	0.2125	76.67053	0.022
288.15	0.0101	75.46928	0.022
288.15	0.0204	75.53542	0.022
288.15	0.0402	75.64437	0.022
288.15	0.0799	75.86013	0.022
288.15	0.1601	76.29188	0.022
288.15	0.2125	76.58014	0.022
293.15	0.0101	75.38992	0.022
293.15	0.0204	75.45778	0.022
293.15	0.0402	75.56836	0.022
293.15	0.0799	75.78923	0.022
293.15	0.1601	76.22768	0.022
293.15	0.2125	76.52296	0.022
298.15	0.0101	75.34303	0.022
298.15	0.0204	75.40902	0.022
298.15	0.0402	75.5213	0.022
298.15	0.0799	75.74561	0.022
298.15	0.1601	76.191	0.022
298.15	0.2125	76.4916	0.022
303.15	0.0101	75.31236	0.022
303.15	0.0204	75.37833	0.022
303.15	0.0402	75.49235	0.022
303.15	0.0799	75.71834	0.022
303.15	0.1601	76.16899	0.022
303.15	0.2125	76.47315	0.022
308.15	0.0101	75.30154	0.022
308.15	0.0204	75.36388	0.022
308.15	0.0402	75.47968	0.022
308.15	0.0799	75.70925	0.022
308.15	0.1601	76.16166	0.022
308.15	0.2125	76.46946	0.022
313.15	0.0101	75.30154	0.022
313.15	0.0204	75.36388	0.022
313.15	0.0402	75.47968	0.022
313.15	0.0799	75.71107	0.022
313.15	0.1601	76.16899	0.022
313.15	0.2125	76.47869	0.022
318.15	0.0101	75.31597	0.022
318.15	0.0204	75.37652	0.022
318.15	0.0402	75.49416	0.022
318.15	0.0799	75.72561	0.022
318.15	0.1601	76.18733	0.022
318.15	0.2125	76.49898	0.022
323.15	0.0101	75.33761	0.022
323.15	0.0204	75.39999	0.022
323.15	0.0402	75.51769	0.022
323.15	0.0799	75.75106	0.022
323.15	0.1601	76.21485	0.022
323.15	0.2125	76.52665	0.022
328.15	0.0101	75.37188	0.022
328.15	0.0204	75.4325	0.022
328.15	0.0402	75.55026	0.022
328.15	0.0799	75.7856	0.022
328.15	0.1601	76.24969	0.022
328.15	0.2125	76.56354	0.022
333.15	0.0101	75.41337	0.022
333.15	0.0204	75.47222	0.022
333.15	0.0402	75.59188	0.022
333.15	0.0799	75.82559	0.022
333.15	0.1601	76.29371	0.022
333.15	0.2125	76.60781	0.022
338.15	0.0101	75.46206	0.022
338.15	0.0204	75.52098	0.022
338.15	0.0402	75.64075	0.022
338.15	0.0799	75.87649	0.022
338.15	0.1601	76.34506	0.022
338.15	0.2125	76.65946	0.022
343.15	0.0101	75.52158	0.022
343.15	0.0204	75.57876	0.022
343.15	0.0402	75.69866	0.022
343.15	0.0799	75.93466	0.022
343.15	0.1601	76.40742	0.022
343.15	0.2125	76.71849	0.022
348.15	0.0101	75.58831	0.022
348.15	0.0204	75.64376	0.022
348.15	0.0402	75.76381	0.022
348.15	0.0799	76.0001	0.022
348.15	0.1601	76.47528	0.022
348.15	0.2125	76.78306	0.022
353.15	0.0101	75.66226	0.022
353.15	0.0204	75.71599	0.022
353.15	0.0402	75.8362	0.022
353.15	0.0799	76.07099	0.022
353.15	0.1601	76.55048	0.022
353.15	0.2125	76.855	0.022
358.15	0.0101	75.74342	0.022
358.15	0.0204	75.79544	0.022
358.15	0.0402	75.91582	0.022
358.15	0.0799	76.15097	0.022
358.15	0.1601	76.63118	0.022
358.15	0.2125	76.93432	0.022
363.15	0.0101	75.82999	0.022
363.15	0.0204	75.88211	0.022
363.15	0.0402	76.00088	0.022
363.15	0.0799	76.23641	0.022
363.15	0.1601	76.71921	0.022
363.15	0.2125	77.01918	0.022
368.15	0.0101	75.92558	0.022
368.15	0.0204	75.97781	0.022
368.15	0.0402	76.09679	0.022
368.15	0.0799	76.33093	0.022
368.15	0.1601	76.81275	0.022
368.15	0.2125	77.11326	0.022
373.15	0.0101	76.02839	0.022
373.15	0.0204	76.07893	0.022
373.15	0.0402	76.19814	0.022
373.15	0.0799	76.43273	0.022
373.15	0.1601	76.91179	0.022
373.15	0.2125	77.21287	0.022
378.15	0.0101	76.13841	0.022
378.15	0.0204	76.19269	0.022
378.15	0.0402	76.31215	0.022
378.15	0.0799	76.54543	0.022
378.15	0.1601	77.02184	0.022
378.15	0.2125	77.32355	0.022
383.15	0.0101	76.25384	0.022
383.15	0.0204	76.31367	0.022
383.15	0.0402	76.43159	0.022
383.15	0.0799	76.66541	0.022
383.15	0.1601	77.13372	0.022
383.15	0.2125	77.43977	0.022
388.15	0.0101	76.37828	0.022
388.15	0.0204	76.44368	0.022
388.15	0.0402	76.56189	0.022
388.15	0.0799	76.79447	0.022
388.15	0.1601	77.25293	0.022
388.15	0.2125	77.56705	0.022
393.15	0.0101	76.51175	0.022
393.15	0.0204	76.58452	0.022
393.15	0.0402	76.70124	0.022
393.15	0.0799	76.93262	0.022
393.15	0.1601	77.38131	0.022
393.15	0.2125	77.69802	0.022

System: 2-amino-3-methylpentanoic acid + water; phases: Liquid
Fixed: Pressure, kPa = 350
Property: Mass density, kg/m3 (Liquid); method: VIBTUB:UFactor:4
Temperature, K	Molality, mol/kg of 2-amino-3-methylpentanoic acid	Mass density, kg/m3	uncertainty
278.15	0.0101	1000.38	0.17
278.15	0.0204	1000.77	0.17
278.15	0.0402	1001.21	0.17
278.15	0.0799	1001.99	0.17
278.15	0.1601	1004.48	0.17
278.15	0.2125	1005.41	0.18
283.15	0.0101	1000.06	0.17
283.15	0.0204	1000.5	0.17
283.15	0.0402	1000.9	0.17
283.15	0.0799	1001.64	0.17
283.15	0.1601	1004.11	0.17
283.15	0.2125	1004.96	0.17
288.15	0.0101	999.45	0.18
288.15	0.0204	999.91	0.17
288.15	0.0402	1000.3	0.16
288.15	0.0799	1001.02	0.17
288.15	0.1601	1003.45	0.17
288.15	0.2125	1004.21	0.17
298.15	0.0101	997.37	0.19
298.15	0.0204	997.85	0.17
298.15	0.0402	998.2	0.17
298.15	0.0799	998.88	0.17
298.15	0.1601	1001.24	0.17
298.15	0.2125	1001.91	0.17
308.15	0.0101	994.35	0.19
308.15	0.0204	994.8	0.18
308.15	0.0402	995.15	0.17
308.15	0.0799	995.89	0.17
308.15	0.1601	998.12	0.17
308.15	0.2125	998.69	0.17
318.15	0.0101	990.51	0.19
318.15	0.0204	990.93	0.18
318.15	0.0402	991.31	0.18
318.15	0.0799	992.12	0.18
318.15	0.1601	994.2	0.18
318.15	0.2125	994.76	0.18
328.15	0.0101	985.99	0.2
328.15	0.0204	986.41	0.19
328.15	0.0402	986.78	0.19
328.15	0.0799	987.63	0.19
328.15	0.1601	989.64	0.19
328.15	0.2125	990.22	0.19
338.15	0.0101	980.86	0.21
338.15	0.0204	981.24	0.21
338.15	0.0402	981.65	0.2
338.15	0.0799	982.54	0.2
338.15	0.1601	984.44	0.2
338.15	0.2125	985.05	0.2
348.15	0.0101	975.14	0.22
348.15	0.0204	975.49	0.22
348.15	0.0402	975.92	0.22
348.15	0.0799	976.83	0.21
348.15	0.1601	978.7	0.21
348.15	0.2125	979.4	0.21
358.15	0.0101	968.97	0.24
358.15	0.0204	969.26	0.23
358.15	0.0402	969.7	0.23
358.15	0.0799	970.67	0.23
358.15	0.1601	972.46	0.22
358.15	0.2125	973.24	0.22
368.15	0.0101	962.2	0.25
368.15	0.0204	962.55	0.25
368.15	0.0402	962.98	0.25
368.15	0.0799	964.02	0.24
368.15	0.1601	965.73	0.24
368.15	0.2125	966.55	0.24

System: 2-amino-3-hydroxybutanoic acid + water; phases: Liquid
Fixed: Pressure, kPa = 350
Property: Molar heat capacity at constant pressure, J/K/mol (Liquid); method: High precision DSC
Temperature, K	Molality, mol/kg of 2-amino-3-hydroxybutanoic acid	Molar heat capacity at constant pressure, J/K/mol	uncertainty
278.15	0.0157	75.73914	0.022
278.15	0.0301	75.76602	0.022
278.15	0.0501	75.79541	0.022
278.15	0.1011	75.84653	0.022
278.15	0.1993	76.05317	0.022
278.15	0.3956	76.34459	0.022
278.15	0.6542	76.85249	0.023
283.15	0.0157	75.56952	0.022
283.15	0.0301	75.60519	0.022
283.15	0.0501	75.63789	0.022
283.15	0.1011	75.70094	0.022
283.15	0.1993	75.9374	0.022
283.15	0.3956	76.27716	0.022
283.15	0.6542	76.87168	0.023
288.15	0.0157	75.45585	0.022
288.15	0.0301	75.50039	0.022
288.15	0.0501	75.53106	0.022
288.15	0.1011	75.60448	0.022
288.15	0.1993	75.86205	0.022
288.15	0.3956	76.24345	0.022
288.15	0.6542	76.88896	0.023
293.15	0.0157	75.38006	0.022
293.15	0.0301	75.42811	0.022
293.15	0.0501	75.46044	0.022
293.15	0.1011	75.5517	0.022
293.15	0.1993	75.81978	0.022
293.15	0.3956	76.24719	0.022
293.15	0.6542	76.92159	0.023
298.15	0.0157	75.33315	0.022
298.15	0.0301	75.37932	0.022
298.15	0.0501	75.4188	0.022
298.15	0.1011	75.52804	0.022
298.15	0.1993	75.79957	0.022
298.15	0.3956	76.27154	0.022
298.15	0.6542	76.96573	0.023
303.15	0.0157	75.30247	0.022
303.15	0.0301	75.3486	0.022
303.15	0.0501	75.39345	0.022
303.15	0.1011	75.51895	0.022
303.15	0.1993	75.79406	0.022
303.15	0.3956	76.29964	0.022
303.15	0.6542	77.01371	0.023
308.15	0.0157	75.28984	0.022
308.15	0.0301	75.33595	0.022
308.15	0.0501	75.3844	0.022
308.15	0.1011	75.52259	0.022
308.15	0.1993	75.80141	0.022
308.15	0.3956	76.33336	0.022
308.15	0.6542	77.06937	0.023
313.15	0.0157	75.28984	0.022
313.15	0.0301	75.33776	0.022
313.15	0.0501	75.38802	0.022
313.15	0.1011	75.5335	0.022
313.15	0.1993	75.81978	0.022
313.15	0.3956	76.37269	0.022
313.15	0.6542	77.12695	0.023
318.15	0.0157	75.30247	0.022
318.15	0.0301	75.35402	0.022
318.15	0.0501	75.40431	0.022
318.15	0.1011	75.55534	0.022
318.15	0.1993	75.84919	0.022
318.15	0.3956	76.42139	0.022
318.15	0.6542	77.19221	0.023
323.15	0.0157	75.32593	0.022
323.15	0.0301	75.37751	0.022
323.15	0.0501	75.42966	0.022
323.15	0.1011	75.58264	0.022
323.15	0.1993	75.8841	0.022
323.15	0.3956	76.47571	0.022
323.15	0.6542	77.25938	0.023
328.15	0.0157	75.36022	0.022
328.15	0.0301	75.41184	0.022
328.15	0.0501	75.46588	0.022
328.15	0.1011	75.62086	0.022
328.15	0.1993	75.93004	0.022
328.15	0.3956	76.53565	0.022
328.15	0.6542	77.33232	0.023
333.15	0.0157	75.39991	0.022
333.15	0.0301	75.4516	0.022
333.15	0.0501	75.50752	0.022
333.15	0.1011	75.66454	0.022
333.15	0.1993	75.9815	0.022
333.15	0.3956	76.59746	0.022
333.15	0.6542	77.40717	0.023
338.15	0.0157	75.44863	0.022
338.15	0.0301	75.50219	0.022
338.15	0.0501	75.56003	0.022
338.15	0.1011	75.71732	0.022
338.15	0.1993	76.04031	0.022
338.15	0.3956	76.66676	0.022
338.15	0.6542	77.48778	0.023
343.15	0.0157	75.50817	0.022
343.15	0.0301	75.56183	0.022
343.15	0.0501	75.61978	0.022
343.15	0.1011	75.77555	0.022
343.15	0.1993	76.10646	0.022
343.15	0.3956	76.73981	0.022
343.15	0.6542	77.57223	0.023
348.15	0.0157	75.57313	0.022
348.15	0.0301	75.62868	0.022
348.15	0.0501	75.68677	0.022
348.15	0.1011	75.84289	0.022
348.15	0.1993	76.17813	0.022
348.15	0.3956	76.82036	0.022
348.15	0.6542	77.6586	0.023
353.15	0.0157	75.64531	0.022
353.15	0.0301	75.70096	0.022
353.15	0.0501	75.7592	0.022
353.15	0.1011	75.91569	0.022
353.15	0.1993	76.25716	0.022
353.15	0.3956	76.90464	0.022
353.15	0.6542	77.75072	0.023
358.15	0.0157	75.7247	0.022
358.15	0.0301	75.78228	0.022
358.15	0.0501	75.84068	0.022
358.15	0.1011	75.99576	0.022
358.15	0.1993	76.34169	0.022
358.15	0.3956	76.99268	0.022
358.15	0.6542	77.84669	0.023
363.15	0.0157	75.81131	0.022
363.15	0.0301	75.87082	0.022
363.15	0.0501	75.92759	0.022
363.15	0.1011	76.08312	0.022
363.15	0.1993	76.43174	0.022
363.15	0.3956	77.08633	0.022
363.15	0.6542	77.94841	0.023
368.15	0.0157	75.90875	0.022
368.15	0.0301	75.96659	0.022
368.15	0.0501	76.02536	0.022
368.15	0.1011	76.17775	0.022
368.15	0.1993	76.53097	0.022
368.15	0.3956	77.18748	0.022
368.15	0.6542	78.05397	0.023
373.15	0.0157	76.0116	0.022
373.15	0.0301	76.0714	0.022
373.15	0.0501	76.12857	0.022
373.15	0.1011	76.27967	0.022
373.15	0.1993	76.63572	0.022
373.15	0.3956	77.29237	0.022
373.15	0.6542	78.16529	0.023
378.15	0.0157	76.12347	0.022
378.15	0.0301	76.18524	0.022
378.15	0.0501	76.24083	0.022
378.15	0.1011	76.3925	0.022
378.15	0.1993	76.7515	0.022
378.15	0.3956	77.40663	0.022
378.15	0.6542	78.28237	0.023
383.15	0.0157	76.24436	0.022
383.15	0.0301	76.30812	0.022
383.15	0.0501	76.36214	0.022
383.15	0.1011	76.51262	0.022
383.15	0.1993	76.87095	0.022
383.15	0.3956	77.52463	0.022
383.15	0.6542	78.40712	0.023
388.15	0.0157	76.37609	0.022
388.15	0.0301	76.44184	0.022
388.15	0.0501	76.49432	0.022
388.15	0.1011	76.64183	0.022
388.15	0.1993	77.00326	0.022
388.15	0.3956	77.652	0.022
388.15	0.6542	78.53571	0.023
393.15	0.0157	76.51863	0.022
393.15	0.0301	76.59001	0.022
393.15	0.0501	76.63555	0.022
393.15	0.1011	76.78014	0.022
393.15	0.1993	77.14109	0.022
393.15	0.3956	77.78499	0.022
393.15	0.6542	78.66815	0.023

System: 2-amino-3-hydroxybutanoic acid + water; phases: Liquid
Fixed: Pressure, kPa = 350
Property: Mass density, kg/m3 (Liquid); method: VIBTUB:UFactor:4
Temperature, K	Molality, mol/kg of 2-amino-3-hydroxybutanoic acid	Mass density, kg/m3	uncertainty
278.15	0.0157	1000.36	0.18
278.15	0.0301	1001.46	0.17
278.15	0.0501	1002.02	0.17
278.15	0.1011	1004.54	0.18
278.15	0.1993	1008.62	0.19
278.15	0.3956	1016.93	0.2
278.15	0.6542	1027.45	0.23
283.15	0.0157	1000.06	0.18
283.15	0.0301	1001.18	0.17
283.15	0.0501	1001.7	0.17
283.15	0.1011	1004.21	0.18
283.15	0.1993	1008.25	0.19
283.15	0.3956	1016.45	0.2
283.15	0.6542	1026.87	0.22
288.15	0.0157	999.45	0.19
288.15	0.0301	1000.55	0.17
288.15	0.0501	1001.05	0.17
288.15	0.1011	1003.55	0.18
288.15	0.1993	1007.54	0.18
288.15	0.3956	1015.61	0.2
288.15	0.6542	1025.98	0.22
298.15	0.0157	997.39	0.19
298.15	0.0301	998.48	0.17
298.15	0.0501	998.87	0.17
298.15	0.1011	1001.39	0.17
298.15	0.1993	1005.3	0.18
298.15	0.3956	1013.25	0.2
298.15	0.6542	1023.39	0.22
308.15	0.0157	994.38	0.2
308.15	0.0301	995.41	0.18
308.15	0.0501	995.8	0.18
308.15	0.1011	998.29	0.17
308.15	0.1993	1002.15	0.17
308.15	0.3956	1010.05	0.19
308.15	0.6542	1019.98	0.21
318.15	0.0157	990.56	0.2
318.15	0.0301	991.49	0.19
318.15	0.0501	991.98	0.19
318.15	0.1011	994.45	0.18
318.15	0.1993	998.25	0.17
318.15	0.3956	1006.1	0.18
318.15	0.6542	1015.89	0.2
328.15	0.0157	986.06	0.21
328.15	0.0301	986.95	0.2
328.15	0.0501	987.47	0.2
328.15	0.1011	989.92	0.19
328.15	0.1993	993.7	0.18
328.15	0.3956	1001.49	0.17
328.15	0.6542	1011.23	0.19
338.15	0.0157	980.92	0.22
338.15	0.0301	981.88	0.21
338.15	0.0501	982.35	0.21
338.15	0.1011	984.75	0.2
338.15	0.1993	988.54	0.19
338.15	0.3956	996.28	0.18
338.15	0.6542	1005.98	0.18
348.15	0.0157	975.23	0.23
348.15	0.0301	976.17	0.22
348.15	0.0501	976.66	0.22
348.15	0.1011	979.04	0.21
348.15	0.1993	982.79	0.21
348.15	0.3956	990.53	0.19
348.15	0.6542	1000.21	0.17
358.15	0.0157	969.07	0.24
358.15	0.0301	969.95	0.23
358.15	0.0501	970.43	0.23
358.15	0.1011	972.8	0.23
358.15	0.1993	976.58	0.22
358.15	0.3956	984.29	0.2
358.15	0.6542	993.98	0.18
368.15	0.0157	962.39	0.25
368.15	0.0301	963.24	0.25
368.15	0.0501	963.73	0.25
368.15	0.1011	966.09	0.24
368.15	0.1993	969.88	0.23
368.15	0.3956	977.59	0.22
368.15	0.6542	987.23	0.2

System: 2-amino-3-hydroxybutanoic acid + hydrogen chloride + water; phases: Liquid
Fixed: Pressure, kPa = 350
Property: Molar heat capacity at constant pressure, J/K/mol (Liquid); method: High precision DSC
Temperature, K	Molality, mol/kg of 2-amino-3-hydroxybutanoic acid	Molality, mol/kg of hydrogen chloride	Molar heat capacity at constant pressure, J/K/mol	uncertainty
278.15	0.0152	0.0152152	75.70055	0.022
278.15	0.0294	0.0294294	75.69485	0.022
278.15	0.05	0.0500501	75.69526	0.022
278.15	0.0999	0.1	75.70429	0.022
278.15	0.2501	0.2503504	75.74563	0.022
278.15	0.4991	0.4995996	75.95552	0.023
278.15	0.9561	0.9570571	76.30944	0.024
283.15	0.0152	0.0152152	75.5327	0.022
283.15	0.0294	0.0294294	75.53396	0.022
283.15	0.05	0.0500501	75.53941	0.022
283.15	0.0999	0.1	75.56574	0.022
283.15	0.2501	0.2503504	75.66401	0.022
283.15	0.4991	0.4995996	75.93073	0.023
283.15	0.9561	0.9570571	76.44749	0.024
288.15	0.0152	0.0152152	75.419	0.022
288.15	0.0294	0.0294294	75.42368	0.022
288.15	0.05	0.0500501	75.43611	0.022
288.15	0.0999	0.1	75.47277	0.022
288.15	0.2501	0.2503504	75.60837	0.022
288.15	0.4991	0.4995996	75.92501	0.023
288.15	0.9561	0.9570571	76.53751	0.024
293.15	0.0152	0.0152152	75.34139	0.022
293.15	0.0294	0.0294294	75.35136	0.022
293.15	0.05	0.0500501	75.36724	0.022
293.15	0.0999	0.1	75.41443	0.022
293.15	0.2501	0.2503504	75.57869	0.022
293.15	0.4991	0.4995996	75.93836	0.023
293.15	0.9561	0.9570571	76.62554	0.024
298.15	0.0152	0.0152152	75.29266	0.022
298.15	0.0294	0.0294294	75.30617	0.022
298.15	0.05	0.0500501	75.32375	0.022
298.15	0.0999	0.1	75.3798	0.022
298.15	0.2501	0.2503504	75.5657	0.022
298.15	0.4991	0.4995996	75.95743	0.023
298.15	0.9561	0.9570571	76.70156	0.024
303.15	0.0152	0.0152152	75.26198	0.022
303.15	0.0294	0.0294294	75.27724	0.022
303.15	0.05	0.0500501	75.29837	0.022
303.15	0.0999	0.1	75.35792	0.022
303.15	0.2501	0.2503504	75.5657	0.022
303.15	0.4991	0.4995996	75.98222	0.023
303.15	0.9561	0.9570571	76.77359	0.024
308.15	0.0152	0.0152152	75.24754	0.022
308.15	0.0294	0.0294294	75.26639	0.022
308.15	0.05	0.0500501	75.2875	0.022
308.15	0.0999	0.1	75.35245	0.022
308.15	0.2501	0.2503504	75.57498	0.022
308.15	0.4991	0.4995996	76.01464	0.023
308.15	0.9561	0.9570571	76.83961	0.024
313.15	0.0152	0.0152152	75.24754	0.022
313.15	0.0294	0.0294294	75.26639	0.022
313.15	0.05	0.0500501	75.28931	0.022
313.15	0.0999	0.1	75.35974	0.022
313.15	0.2501	0.2503504	75.59353	0.022
313.15	0.4991	0.4995996	76.05088	0.023
313.15	0.9561	0.9570571	76.90363	0.024
318.15	0.0152	0.0152152	75.26017	0.022
318.15	0.0294	0.0294294	75.28086	0.022
318.15	0.05	0.0500501	75.30562	0.022
318.15	0.0999	0.1	75.3798	0.022
318.15	0.2501	0.2503504	75.62135	0.022
318.15	0.4991	0.4995996	76.09474	0.023
318.15	0.9561	0.9570571	76.96965	0.024
323.15	0.0152	0.0152152	75.28364	0.022
323.15	0.0294	0.0294294	75.30436	0.022
323.15	0.05	0.0500501	75.32918	0.022
323.15	0.0999	0.1	75.40532	0.022
323.15	0.2501	0.2503504	75.65474	0.022
323.15	0.4991	0.4995996	76.14242	0.023
323.15	0.9561	0.9570571	77.03167	0.024
328.15	0.0152	0.0152152	75.31612	0.022
328.15	0.0294	0.0294294	75.33871	0.022
328.15	0.05	0.0500501	75.36362	0.022
328.15	0.0999	0.1	75.44178	0.022
328.15	0.2501	0.2503504	75.69555	0.022
328.15	0.4991	0.4995996	76.19391	0.023
328.15	0.9561	0.9570571	77.09569	0.024
333.15	0.0152	0.0152152	75.35763	0.022
333.15	0.0294	0.0294294	75.37848	0.022
333.15	0.05	0.0500501	75.4053	0.022
333.15	0.0999	0.1	75.48553	0.022
333.15	0.2501	0.2503504	75.74192	0.022
333.15	0.4991	0.4995996	76.24731	0.023
333.15	0.9561	0.9570571	77.16171	0.024
338.15	0.0152	0.0152152	75.40636	0.022
338.15	0.0294	0.0294294	75.42729	0.022
338.15	0.05	0.0500501	75.45604	0.022
338.15	0.0999	0.1	75.53657	0.022
338.15	0.2501	0.2503504	75.79571	0.022
338.15	0.4991	0.4995996	76.31025	0.023
338.15	0.9561	0.9570571	77.22973	0.024
343.15	0.0152	0.0152152	75.46773	0.022
343.15	0.0294	0.0294294	75.48514	0.022
343.15	0.05	0.0500501	75.51585	0.022
343.15	0.0999	0.1	75.59491	0.022
343.15	0.2501	0.2503504	75.85507	0.022
343.15	0.4991	0.4995996	76.37509	0.023
343.15	0.9561	0.9570571	77.29775	0.024
348.15	0.0152	0.0152152	75.5345	0.022
348.15	0.0294	0.0294294	75.55023	0.022
348.15	0.05	0.0500501	75.5829	0.022
348.15	0.0999	0.1	75.66236	0.022
348.15	0.2501	0.2503504	75.92185	0.022
348.15	0.4991	0.4995996	76.44375	0.023
348.15	0.9561	0.9570571	77.36777	0.024
353.15	0.0152	0.0152152	75.61031	0.022
353.15	0.0294	0.0294294	75.62254	0.022
353.15	0.05	0.0500501	75.65721	0.022
353.15	0.0999	0.1	75.73345	0.022
353.15	0.2501	0.2503504	75.99234	0.022
353.15	0.4991	0.4995996	76.51813	0.023
353.15	0.9561	0.9570571	77.44179	0.024
358.15	0.0152	0.0152152	75.69152	0.022
358.15	0.0294	0.0294294	75.70209	0.022
358.15	0.05	0.0500501	75.73695	0.022
358.15	0.0999	0.1	75.81366	0.022
358.15	0.2501	0.2503504	76.07024	0.022
358.15	0.4991	0.4995996	76.59822	0.023
358.15	0.9561	0.9570571	77.51982	0.024
363.15	0.0152	0.0152152	75.77815	0.022
363.15	0.0294	0.0294294	75.78706	0.022
363.15	0.05	0.0500501	75.82394	0.022
363.15	0.0999	0.1	75.89934	0.022
363.15	0.2501	0.2503504	76.15371	0.022
363.15	0.4991	0.4995996	76.68214	0.023
363.15	0.9561	0.9570571	77.60184	0.024
368.15	0.0152	0.0152152	75.87381	0.022
368.15	0.0294	0.0294294	75.88287	0.022
368.15	0.05	0.0500501	75.91817	0.022
368.15	0.0999	0.1	75.99232	0.022
368.15	0.2501	0.2503504	76.24275	0.022
368.15	0.4991	0.4995996	76.77177	0.023
368.15	0.9561	0.9570571	77.68387	0.024
373.15	0.0152	0.0152152	75.97668	0.022
373.15	0.0294	0.0294294	75.98411	0.022
373.15	0.05	0.0500501	76.01966	0.022
373.15	0.0999	0.1	76.09258	0.022
373.15	0.2501	0.2503504	76.34106	0.022
373.15	0.4991	0.4995996	76.86904	0.023
373.15	0.9561	0.9570571	77.77389	0.024
378.15	0.0152	0.0152152	76.08858	0.022
378.15	0.0294	0.0294294	76.09801	0.022
378.15	0.05	0.0500501	76.13021	0.022
378.15	0.0999	0.1	76.20378	0.022
378.15	0.2501	0.2503504	76.44679	0.022
378.15	0.4991	0.4995996	76.97202	0.023
378.15	0.9561	0.9570571	77.86992	0.024
383.15	0.0152	0.0152152	76.20409	0.022
383.15	0.0294	0.0294294	76.21732	0.022
383.15	0.05	0.0500501	76.2462	0.022
383.15	0.0999	0.1	76.32045	0.022
383.15	0.2501	0.2503504	76.5618	0.022
383.15	0.4991	0.4995996	77.08073	0.023
383.15	0.9561	0.9570571	77.96995	0.024
388.15	0.0152	0.0152152	76.32862	0.022
388.15	0.0294	0.0294294	76.34749	0.022
388.15	0.05	0.0500501	76.37124	0.022
388.15	0.0999	0.1	76.44806	0.022
388.15	0.2501	0.2503504	76.68608	0.022
388.15	0.4991	0.4995996	77.19707	0.023
388.15	0.9561	0.9570571	78.07799	0.024
393.15	0.0152	0.0152152	76.46037	0.022
393.15	0.0294	0.0294294	76.4885	0.022
393.15	0.05	0.0500501	76.50354	0.022
393.15	0.0999	0.1	76.58478	0.022
393.15	0.2501	0.2503504	76.82148	0.022
393.15	0.4991	0.4995996	77.32484	0.023
393.15	0.9561	0.9570571	78.18202	0.024

System: 2-amino-3-hydroxybutanoic acid + hydrogen chloride + water; phases: Liquid
Fixed: Pressure, kPa = 101
Property: Mass density, kg/m3 (Liquid); method: VIBTUB:UFactor:4
Temperature, K	Molality, mol/kg of 2-amino-3-hydroxybutanoic acid	Molality, mol/kg of hydrogen chloride	Mass density, kg/m3	uncertainty
278.15	0.0152	0.015215	1001.07	0.17
278.15	0.0294	0.029429	1001.55	0.17
278.15	0.05	0.05005	1002.95	0.18
278.15	0.0999	0.1	1005.67	0.18
278.15	0.2501	0.25035	1013.51	0.2
278.15	0.4991	0.4996	1026.19	0.23
278.15	0.9561	0.957057	1046.99	0.28
283.15	0.0152	0.015215	1000.78	0.17
283.15	0.0294	0.029429	1001.23	0.17
283.15	0.05	0.05005	1002.65	0.18
283.15	0.0999	0.1	1005.28	0.18
283.15	0.2501	0.25035	1013.1	0.2
283.15	0.4991	0.4996	1025.55	0.23
283.15	0.9561	0.957057	1046.27	0.28
288.15	0.0152	0.015215	1000.19	0.17
288.15	0.0294	0.029429	1000.59	0.17
288.15	0.05	0.05005	1002	0.18
288.15	0.0999	0.1	1004.63	0.18
288.15	0.2501	0.25035	1012.35	0.2
288.15	0.4991	0.4996	1024.66	0.23
288.15	0.9561	0.957057	1045.21	0.28
298.15	0.0152	0.015215	998.11	0.17
298.15	0.0294	0.029429	998.42	0.17
298.15	0.05	0.05005	999.87	0.17
298.15	0.0999	0.1	1002.48	0.18
298.15	0.2501	0.25035	1010.13	0.19
298.15	0.4991	0.4996	1022.15	0.22
298.15	0.9561	0.957057	1042.39	0.27
308.15	0.0152	0.015215	995.06	0.18
308.15	0.0294	0.029429	995.34	0.17
308.15	0.05	0.05005	996.78	0.18
308.15	0.0999	0.1	999.44	0.17
308.15	0.2501	0.25035	1006.98	0.19
308.15	0.4991	0.4996	1018.84	0.22
308.15	0.9561	0.957057	1038.75	0.27
318.15	0.0152	0.015215	991.19	0.19
318.15	0.0294	0.029429	991.49	0.18
318.15	0.05	0.05005	992.93	0.19
318.15	0.0999	0.1	995.57	0.18
318.15	0.2501	0.25035	1003.04	0.18
318.15	0.4991	0.4996	1014.79	0.21
318.15	0.9561	0.957057	1034.42	0.26
328.15	0.0152	0.015215	986.66	0.2
328.15	0.0294	0.029429	987	0.19
328.15	0.05	0.05005	988.48	0.2
328.15	0.0999	0.1	991.01	0.19
328.15	0.2501	0.25035	998.49	0.18
328.15	0.4991	0.4996	1010.16	0.2
328.15	0.9561	0.957057	1029.58	0.25
338.15	0.0152	0.015215	981.53	0.21
338.15	0.0294	0.029429	981.91	0.2
338.15	0.05	0.05005	983.35	0.21
338.15	0.0999	0.1	985.86	0.2
338.15	0.2501	0.25035	993.25	0.19
338.15	0.4991	0.4996	1004.96	0.19
338.15	0.9561	0.957057	1024.25	0.24
348.15	0.0152	0.015215	975.82	0.22
348.15	0.0294	0.029429	976.25	0.21
348.15	0.05	0.05005	977.64	0.22
348.15	0.0999	0.1	980.18	0.21
348.15	0.2501	0.25035	987.54	0.2
348.15	0.4991	0.4996	999.2	0.18
348.15	0.9561	0.957057	1018.54	0.23
358.15	0.0152	0.015215	969.6	0.23
358.15	0.0294	0.029429	970.07	0.23
358.15	0.05	0.05005	971.43	0.23
358.15	0.0999	0.1	973.97	0.23
358.15	0.2501	0.25035	981.32	0.21
358.15	0.4991	0.4996	993.03	0.19
358.15	0.9561	0.957057	1012.33	0.21
368.15	0.0152	0.015215	962.9	0.25
368.15	0.0294	0.029429	963.45	0.24
368.15	0.05	0.05005	964.75	0.25
368.15	0.0999	0.1	967.32	0.24
368.15	0.2501	0.25035	974.73	0.23
368.15	0.4991	0.4996	986.4	0.21
368.15	0.9561	0.957057	1005.73	0.2

System: 2-amino-3-methylpentanoic acid + hydrogen chloride + water; phases: Liquid
Fixed: Pressure, kPa = 350
Property: Molar heat capacity at constant pressure, J/K/mol (Liquid); method: High precision DSC
Temperature, K	Molality, mol/kg of 2-amino-3-methylpentanoic acid	Molality, mol/kg of hydrogen chloride	Molar heat capacity at constant pressure, J/K/mol	uncertainty
278.15	0.0151	0.0151454	75.75314	0.022
278.15	0.0301	0.0301906	75.80092	0.022
278.15	0.0502	0.0503511	75.8587	0.022
278.15	0.1003	0.1006018	76.02821	0.022
278.15	0.25	0.2507523	76.51949	0.022
278.15	0.5012	0.5027081	77.43386	0.023
278.15	0.9531	0.9559679	78.78289	0.024
283.15	0.0151	0.0151454	75.58527	0.022
283.15	0.0301	0.0301906	75.63814	0.022
283.15	0.0502	0.0503511	75.70456	0.022
283.15	0.1003	0.1006018	75.8822	0.022
283.15	0.25	0.2507523	76.42834	0.022
283.15	0.5012	0.5027081	77.37631	0.023
283.15	0.9531	0.9559679	78.89198	0.024
288.15	0.0151	0.0151454	75.47155	0.022
288.15	0.0301	0.0301906	75.52601	0.022
288.15	0.0502	0.0503511	75.59576	0.022
288.15	0.1003	0.1006018	75.78546	0.022
288.15	0.25	0.2507523	76.35951	0.022
288.15	0.5012	0.5027081	77.33986	0.023
288.15	0.9531	0.9559679	78.9344	0.024
293.15	0.0151	0.0151454	75.39393	0.022
293.15	0.0301	0.0301906	75.45185	0.022
293.15	0.0502	0.0503511	75.52322	0.022
293.15	0.1003	0.1006018	75.71975	0.022
293.15	0.25	0.2507523	76.31486	0.022
293.15	0.5012	0.5027081	77.32068	0.023
293.15	0.9531	0.9559679	78.97278	0.024
298.15	0.0151	0.0151454	75.34519	0.022
298.15	0.0301	0.0301906	75.40483	0.022
298.15	0.0502	0.0503511	75.4797	0.022
298.15	0.1003	0.1006018	75.6796	0.022
298.15	0.25	0.2507523	76.28882	0.022
298.15	0.5012	0.5027081	77.31109	0.023
298.15	0.9531	0.9559679	78.99904	0.024
303.15	0.0151	0.0151454	75.3145	0.022
303.15	0.0301	0.0301906	75.37408	0.022
303.15	0.0502	0.0503511	75.45068	0.022
303.15	0.1003	0.1006018	75.65404	0.022
303.15	0.25	0.2507523	76.27393	0.022
303.15	0.5012	0.5027081	77.30917	0.023
303.15	0.9531	0.9559679	79.02328	0.024
308.15	0.0151	0.0151454	75.30187	0.022
308.15	0.0301	0.0301906	75.36142	0.022
308.15	0.0502	0.0503511	75.4398	0.022
308.15	0.1003	0.1006018	75.64492	0.022
308.15	0.25	0.2507523	76.27207	0.022
308.15	0.5012	0.5027081	77.31684	0.023
308.15	0.9531	0.9559679	79.0455	0.024
313.15	0.0151	0.0151454	75.30006	0.022
313.15	0.0301	0.0301906	75.36142	0.022
313.15	0.0502	0.0503511	75.4398	0.022
313.15	0.1003	0.1006018	75.64857	0.022
313.15	0.25	0.2507523	76.27952	0.022
313.15	0.5012	0.5027081	77.32835	0.023
313.15	0.9531	0.9559679	79.0657	0.024
318.15	0.0151	0.0151454	75.3127	0.022
318.15	0.0301	0.0301906	75.37589	0.022
318.15	0.0502	0.0503511	75.45431	0.022
318.15	0.1003	0.1006018	75.66317	0.022
318.15	0.25	0.2507523	76.29626	0.022
318.15	0.5012	0.5027081	77.34754	0.023
318.15	0.9531	0.9559679	79.09196	0.024
323.15	0.0151	0.0151454	75.33436	0.022
323.15	0.0301	0.0301906	75.39759	0.022
323.15	0.0502	0.0503511	75.47607	0.022
323.15	0.1003	0.1006018	75.6869	0.022
323.15	0.25	0.2507523	76.32044	0.022
323.15	0.5012	0.5027081	77.37247	0.023
323.15	0.9531	0.9559679	79.11419	0.024
328.15	0.0151	0.0151454	75.36685	0.022
328.15	0.0301	0.0301906	75.43015	0.022
328.15	0.0502	0.0503511	75.50871	0.022
328.15	0.1003	0.1006018	75.72158	0.022
328.15	0.25	0.2507523	76.35207	0.022
328.15	0.5012	0.5027081	77.40317	0.023
328.15	0.9531	0.9559679	79.14045	0.024
333.15	0.0151	0.0151454	75.40656	0.022
333.15	0.0301	0.0301906	75.46994	0.022
333.15	0.0502	0.0503511	75.54861	0.022
333.15	0.1003	0.1006018	75.76173	0.022
333.15	0.25	0.2507523	76.38927	0.022
333.15	0.5012	0.5027081	77.4377	0.023
333.15	0.9531	0.9559679	79.17075	0.024
338.15	0.0151	0.0151454	75.4553	0.022
338.15	0.0301	0.0301906	75.51696	0.022
338.15	0.0502	0.0503511	75.59576	0.022
338.15	0.1003	0.1006018	75.81101	0.022
338.15	0.25	0.2507523	76.43392	0.022
338.15	0.5012	0.5027081	77.47798	0.023
338.15	0.9531	0.9559679	79.20711	0.024
343.15	0.0151	0.0151454	75.51306	0.022
343.15	0.0301	0.0301906	75.57484	0.022
343.15	0.0502	0.0503511	75.65197	0.022
343.15	0.1003	0.1006018	75.86759	0.022
343.15	0.25	0.2507523	76.48415	0.022
343.15	0.5012	0.5027081	77.52402	0.023
343.15	0.9531	0.9559679	79.24347	0.024
348.15	0.0151	0.0151454	75.57805	0.022
348.15	0.0301	0.0301906	75.63814	0.022
348.15	0.0502	0.0503511	75.71544	0.022
348.15	0.1003	0.1006018	75.92965	0.022
348.15	0.25	0.2507523	76.54182	0.022
348.15	0.5012	0.5027081	77.57581	0.023
348.15	0.9531	0.9559679	79.28589	0.024
353.15	0.0151	0.0151454	75.64845	0.022
353.15	0.0301	0.0301906	75.71049	0.022
353.15	0.0502	0.0503511	75.78617	0.022
353.15	0.1003	0.1006018	75.99901	0.022
353.15	0.25	0.2507523	76.60507	0.022
353.15	0.5012	0.5027081	77.63336	0.023
353.15	0.9531	0.9559679	79.33235	0.024
358.15	0.0151	0.0151454	75.72787	0.022
358.15	0.0301	0.0301906	75.78826	0.022
358.15	0.0502	0.0503511	75.86414	0.022
358.15	0.1003	0.1006018	76.07567	0.022
358.15	0.25	0.2507523	76.67576	0.022
358.15	0.5012	0.5027081	77.69858	0.023
358.15	0.9531	0.9559679	79.38487	0.024
363.15	0.0151	0.0151454	75.81452	0.022
363.15	0.0301	0.0301906	75.87327	0.022
363.15	0.0502	0.0503511	75.94756	0.022
363.15	0.1003	0.1006018	76.15963	0.022
363.15	0.25	0.2507523	76.75203	0.022
363.15	0.5012	0.5027081	77.76956	0.023
363.15	0.9531	0.9559679	79.44346	0.024
368.15	0.0151	0.0151454	75.90838	0.022
368.15	0.0301	0.0301906	75.96732	0.022
368.15	0.0502	0.0503511	76.04004	0.022
368.15	0.1003	0.1006018	76.24907	0.022
368.15	0.25	0.2507523	76.83574	0.022
368.15	0.5012	0.5027081	77.84437	0.023
368.15	0.9531	0.9559679	79.50406	0.024
373.15	0.0151	0.0151454	76.01127	0.022
373.15	0.0301	0.0301906	76.0686	0.022
373.15	0.0502	0.0503511	76.14159	0.022
373.15	0.1003	0.1006018	76.34398	0.022
373.15	0.25	0.2507523	76.92504	0.022
373.15	0.5012	0.5027081	77.92494	0.023
373.15	0.9531	0.9559679	79.57476	0.024
378.15	0.0151	0.0151454	76.12319	0.022
378.15	0.0301	0.0301906	76.18074	0.022
378.15	0.0502	0.0503511	76.25221	0.022
378.15	0.1003	0.1006018	76.44802	0.022
378.15	0.25	0.2507523	77.02549	0.022
378.15	0.5012	0.5027081	78.01318	0.023
378.15	0.9531	0.9559679	79.65354	0.024
383.15	0.0151	0.0151454	76.24233	0.022
383.15	0.0301	0.0301906	76.2983	0.022
383.15	0.0502	0.0503511	76.36827	0.022
383.15	0.1003	0.1006018	76.55753	0.022
383.15	0.25	0.2507523	77.13339	0.022
383.15	0.5012	0.5027081	78.10526	0.023
383.15	0.9531	0.9559679	79.73637	0.024
388.15	0.0151	0.0151454	76.3741	0.022
388.15	0.0301	0.0301906	76.42853	0.022
388.15	0.0502	0.0503511	76.49702	0.022
388.15	0.1003	0.1006018	76.67617	0.022
388.15	0.25	0.2507523	77.25245	0.022
388.15	0.5012	0.5027081	78.2031	0.023
388.15	0.9531	0.9559679	79.82929	0.024
393.15	0.0151	0.0151454	76.5149	0.022
393.15	0.0301	0.0301906	76.56779	0.022
393.15	0.0502	0.0503511	76.63484	0.022
393.15	0.1003	0.1006018	76.80394	0.022
393.15	0.25	0.2507523	77.37895	0.022
393.15	0.5012	0.5027081	78.31436	0.023
393.15	0.9531	0.9559679	79.91413	0.024

System: 2-amino-3-methylpentanoic acid + hydrogen chloride + water; phases: Liquid
Fixed: Pressure, kPa = 101
Property: Mass density, kg/m3 (Liquid); method: VIBTUB:UFactor:4
Temperature, K	Molality, mol/kg of 2-amino-3-methylpentanoic acid	Molality, mol/kg of hydrogen chloride	Mass density, kg/m3	uncertainty
278.15	0.0151	0.015145436	1000.77	0.17
278.15	0.0301	0.030190572	1001.2	0.17
278.15	0.0502	0.050351053	1002.35	0.18
278.15	0.1003	0.10060181	1003.74	0.17
278.15	0.25	0.25075226	1009.49	0.19
278.15	0.5012	0.50270812	1017.63	0.21
278.15	0.9531	0.9559679	1031.72	0.25
278.15	0.1003	0.10060181	1004.03	0.18
278.15	0.5012	0.50270812	1017.7	0.21
283.15	0.0151	0.015145436	1000.45	0.17
283.15	0.0301	0.030190572	1000.9	0.17
283.15	0.0502	0.050351053	1002.03	0.18
283.15	0.1003	0.10060181	1003.52	0.17
283.15	0.25	0.25075226	1009.02	0.19
283.15	0.5012	0.50270812	1016.94	0.21
283.15	0.9531	0.9559679	1030.74	0.25
283.15	0.1003	0.10060181	1003.68	0.17
283.15	0.5012	0.50270812	1017.08	0.21
288.15	0.0151	0.015145436	999.81	0.17
288.15	0.0301	0.030190572	1000.28	0.17
288.15	0.0502	0.050351053	1001.38	0.17
288.15	0.1003	0.10060181	1002.82	0.17
288.15	0.25	0.25075226	1008.25	0.19
288.15	0.5012	0.50270812	1015.99	0.21
288.15	0.9531	0.9559679	1029.51	0.24
288.15	0.1003	0.10060181	1003	0.17
288.15	0.5012	0.50270812	1016.17	0.21
298.15	0.0151	0.015145436	997.71	0.17
298.15	0.0301	0.030190572	998.11	0.17
298.15	0.0502	0.050351053	999.26	0.17
298.15	0.1003	0.10060181	1000.57	0.17
298.15	0.25	0.25075226	1005.93	0.18
298.15	0.5012	0.50270812	1013.27	0.2
298.15	0.9531	0.9559679	1026.39	0.24
298.15	0.1003	0.10060181	1000.76	0.17
298.15	0.5012	0.50270812	1013.54	0.2
308.15	0.0151	0.015145436	994.67	0.18
308.15	0.0301	0.030190572	995.02	0.17
308.15	0.0502	0.050351053	996.19	0.18
308.15	0.1003	0.10060181	997.41	0.17
308.15	0.25	0.25075226	1002.82	0.18
308.15	0.5012	0.50270812	1009.77	0.19
308.15	0.9531	0.9559679	1022.62	0.23
308.15	0.1003	0.10060181	997.65	0.17
308.15	0.5012	0.50270812	1010.12	0.19
318.15	0.0151	0.015145436	990.83	0.19
318.15	0.0301	0.030190572	991.13	0.18
318.15	0.0502	0.050351053	992.35	0.19
318.15	0.1003	0.10060181	993.49	0.18
318.15	0.25	0.25075226	998.86	0.17
318.15	0.5012	0.50270812	1005.61	0.19
318.15	0.9531	0.9559679	1018.19	0.22
318.15	0.1003	0.10060181	993.75	0.18
318.15	0.5012	0.50270812	1005.99	0.19
328.15	0.0151	0.015145436	986.32	0.2
328.15	0.0301	0.030190572	986.62	0.19
328.15	0.0502	0.050351053	987.76	0.2
328.15	0.1003	0.10060181	988.98	0.19
328.15	0.25	0.25075226	994.18	0.18
328.15	0.5012	0.50270812	1000.91	0.18
328.15	0.9531	0.9559679	1013.2	0.21
328.15	0.1003	0.10060181	989.19	0.19
328.15	0.5012	0.50270812	1001.25	0.18
338.15	0.0151	0.015145436	981.18	0.21
338.15	0.0301	0.030190572	981.49	0.2
338.15	0.0502	0.050351053	982.6	0.21
338.15	0.1003	0.10060181	983.88	0.2
338.15	0.25	0.25075226	988.92	0.19
338.15	0.5012	0.50270812	995.62	0.18
338.15	0.9531	0.9559679	1007.71	0.2
338.15	0.1003	0.10060181	984.01	0.2
338.15	0.5012	0.50270812	995.93	0.18
348.15	0.0151	0.015145436	975.46	0.22
348.15	0.0301	0.030190572	975.81	0.21
348.15	0.0502	0.050351053	976.89	0.22
348.15	0.1003	0.10060181	978.16	0.21
348.15	0.25	0.25075226	983.09	0.21
348.15	0.5012	0.50270812	989.82	0.2
348.15	0.9531	0.9559679	1001.75	0.19
348.15	0.1003	0.10060181	978.27	0.21
348.15	0.5012	0.50270812	990.11	0.2
358.15	0.0151	0.015145436	969.25	0.23
358.15	0.0301	0.030190572	969.6	0.23
358.15	0.0502	0.050351053	970.68	0.23
358.15	0.1003	0.10060181	971.92	0.23
358.15	0.25	0.25075226	976.86	0.22
358.15	0.5012	0.50270812	983.59	0.21
358.15	0.9531	0.9559679	995.34	0.2
358.15	0.1003	0.10060181	972.05	0.23
358.15	0.5012	0.50270812	983.84	0.21
368.15	0.0151	0.015145436	962.55	0.24
368.15	0.0301	0.030190572	962.88	0.24
368.15	0.0502	0.050351053	963.96	0.25
368.15	0.1003	0.10060181	965.22	0.24
368.15	0.25	0.25075226	970.18	0.23
368.15	0.5012	0.50270812	976.83	0.22
368.15	0.9531	0.9559679	988.6	0.21
368.15	0.1003	0.10060181	965.39	0.24
368.15	0.5012	0.50270812	977.13	0.22

System: sodium hydroxide + 2-amino-3-hydroxybutanoic acid + water; phases: Liquid
Fixed: Pressure, kPa = 350
Property: Molar heat capacity at constant pressure, J/K/mol (Liquid); method: High precision DSC
Temperature, K	Molality, mol/kg of 2-amino-3-hydroxybutanoic acid	Molality, mol/kg of sodium hydroxide	Molar heat capacity at constant pressure, J/K/mol	uncertainty
278.15	0.0175	0.0175175	75.72417	0.022
278.15	0.0299	0.0299299	75.7218	0.022
278.15	0.0521	0.0521522	75.74426	0.022
278.15	0.1003	0.1004004	75.76713	0.022
278.15	0.2501	0.2503504	75.9587	0.022
278.15	0.5002	0.5007007	76.3951	0.023
278.15	0.9958	0.9967968	77.5488	0.024
283.15	0.0175	0.0175175	75.55988	0.022
283.15	0.0299	0.0299299	75.56629	0.022
283.15	0.0521	0.0521522	75.5974	0.022
283.15	0.1003	0.1004004	75.65406	0.022
283.15	0.2501	0.2503504	75.90115	0.022
283.15	0.5002	0.5007007	76.42949	0.023
283.15	0.9958	0.9967968	77.72408	0.024
288.15	0.0175	0.0175175	75.44975	0.022
288.15	0.0299	0.0299299	75.46504	0.022
288.15	0.0521	0.0521522	75.49949	0.022
288.15	0.1003	0.1004004	75.58659	0.022
288.15	0.2501	0.2503504	75.8733	0.022
288.15	0.5002	0.5007007	76.47343	0.023
288.15	0.9958	0.9967968	77.88928	0.024
293.15	0.0175	0.0175175	75.37573	0.022
293.15	0.0299	0.0299299	75.39633	0.022
293.15	0.0521	0.0521522	75.43785	0.022
293.15	0.1003	0.1004004	75.54282	0.022
293.15	0.2501	0.2503504	75.87145	0.022
293.15	0.5002	0.5007007	76.53266	0.023
293.15	0.9958	0.9967968	78.05248	0.024
298.15	0.0175	0.0175175	75.3306	0.022
298.15	0.0299	0.0299299	75.35474	0.022
298.15	0.0521	0.0521522	75.4034	0.022
298.15	0.1003	0.1004004	75.51911	0.022
298.15	0.2501	0.2503504	75.88444	0.022
298.15	0.5002	0.5007007	76.59571	0.023
298.15	0.9958	0.9967968	78.20761	0.024
303.15	0.0175	0.0175175	75.30171	0.022
303.15	0.0299	0.0299299	75.32943	0.022
303.15	0.0521	0.0521522	75.38164	0.022
303.15	0.1003	0.1004004	75.51182	0.022
303.15	0.2501	0.2503504	75.90672	0.022
303.15	0.5002	0.5007007	76.66066	0.023
303.15	0.9958	0.9967968	78.35267	0.024
308.15	0.0175	0.0175175	75.29088	0.022
308.15	0.0299	0.0299299	75.32039	0.022
308.15	0.0521	0.0521522	75.37802	0.022
308.15	0.1003	0.1004004	75.51729	0.022
308.15	0.2501	0.2503504	75.93828	0.022
308.15	0.5002	0.5007007	76.72944	0.023
308.15	0.9958	0.9967968	78.48766	0.024
313.15	0.0175	0.0175175	75.29268	0.022
313.15	0.0299	0.0299299	75.32581	0.022
313.15	0.0521	0.0521522	75.38527	0.022
313.15	0.1003	0.1004004	75.5337	0.022
313.15	0.2501	0.2503504	75.97541	0.022
313.15	0.5002	0.5007007	76.80013	0.023
313.15	0.9958	0.9967968	78.61257	0.024
318.15	0.0175	0.0175175	75.30713	0.022
318.15	0.0299	0.0299299	75.34208	0.022
318.15	0.0521	0.0521522	75.40521	0.022
318.15	0.1003	0.1004004	75.56106	0.022
318.15	0.2501	0.2503504	76.02182	0.022
318.15	0.5002	0.5007007	76.87464	0.023
318.15	0.9958	0.9967968	78.73345	0.024
323.15	0.0175	0.0175175	75.3306	0.022
323.15	0.0299	0.0299299	75.36921	0.022
323.15	0.0521	0.0521522	75.43422	0.022
323.15	0.1003	0.1004004	75.59571	0.022
323.15	0.2501	0.2503504	76.0738	0.022
323.15	0.5002	0.5007007	76.94915	0.023
323.15	0.9958	0.9967968	78.85031	0.024
328.15	0.0175	0.0175175	75.3649	0.022
328.15	0.0299	0.0299299	75.40356	0.022
328.15	0.0521	0.0521522	75.4723	0.022
328.15	0.1003	0.1004004	75.63765	0.022
328.15	0.2501	0.2503504	76.1295	0.022
328.15	0.5002	0.5007007	77.02748	0.023
328.15	0.9958	0.9967968	78.96112	0.024
333.15	0.0175	0.0175175	75.40642	0.022
333.15	0.0299	0.0299299	75.44696	0.022
333.15	0.0521	0.0521522	75.51581	0.022
333.15	0.1003	0.1004004	75.68689	0.022
333.15	0.2501	0.2503504	76.19076	0.022
333.15	0.5002	0.5007007	77.10581	0.023
333.15	0.9958	0.9967968	79.0679	0.024
338.15	0.0175	0.0175175	75.45517	0.022
338.15	0.0299	0.0299299	75.49758	0.022
338.15	0.0521	0.0521522	75.56839	0.022
338.15	0.1003	0.1004004	75.74342	0.022
338.15	0.2501	0.2503504	76.2576	0.022
338.15	0.5002	0.5007007	77.18796	0.023
338.15	0.9958	0.9967968	79.17266	0.024
343.15	0.0175	0.0175175	75.51475	0.022
343.15	0.0299	0.0299299	75.55725	0.022
343.15	0.0521	0.0521522	75.63003	0.022
343.15	0.1003	0.1004004	75.80725	0.022
343.15	0.2501	0.2503504	76.33	0.022
343.15	0.5002	0.5007007	77.27393	0.023
343.15	0.9958	0.9967968	79.27944	0.024
348.15	0.0175	0.0175175	75.57974	0.022
348.15	0.0299	0.0299299	75.62416	0.022
348.15	0.0521	0.0521522	75.69712	0.022
348.15	0.1003	0.1004004	75.87655	0.022
348.15	0.2501	0.2503504	76.40797	0.022
348.15	0.5002	0.5007007	77.36182	0.023
348.15	0.9958	0.9967968	79.38421	0.024
353.15	0.0175	0.0175175	75.65196	0.022
353.15	0.0299	0.0299299	75.69648	0.022
353.15	0.0521	0.0521522	75.77145	0.022
353.15	0.1003	0.1004004	75.95315	0.022
353.15	0.2501	0.2503504	76.48966	0.022
353.15	0.5002	0.5007007	77.45161	0.023
353.15	0.9958	0.9967968	79.48495	0.024
358.15	0.0175	0.0175175	75.7314	0.022
358.15	0.0299	0.0299299	75.77604	0.022
358.15	0.0521	0.0521522	75.85123	0.022
358.15	0.1003	0.1004004	76.03522	0.022
358.15	0.2501	0.2503504	76.57506	0.022
358.15	0.5002	0.5007007	77.54522	0.023
358.15	0.9958	0.9967968	79.5877	0.024
363.15	0.0175	0.0175175	75.81806	0.022
363.15	0.0299	0.0299299	75.86283	0.022
363.15	0.0521	0.0521522	75.93825	0.022
363.15	0.1003	0.1004004	76.12275	0.022
363.15	0.2501	0.2503504	76.66603	0.022
363.15	0.5002	0.5007007	77.64266	0.023
363.15	0.9958	0.9967968	79.68642	0.024
368.15	0.0175	0.0175175	75.91374	0.022
368.15	0.0299	0.0299299	75.95866	0.022
368.15	0.0521	0.0521522	76.03435	0.022
368.15	0.1003	0.1004004	76.21941	0.022
368.15	0.2501	0.2503504	76.76442	0.022
368.15	0.5002	0.5007007	77.742	0.023
368.15	0.9958	0.9967968	79.78716	0.024
373.15	0.0175	0.0175175	76.01665	0.022
373.15	0.0299	0.0299299	76.06173	0.022
373.15	0.0521	0.0521522	76.13588	0.022
373.15	0.1003	0.1004004	76.32336	0.022
373.15	0.2501	0.2503504	76.86839	0.022
373.15	0.5002	0.5007007	77.84708	0.023
373.15	0.9958	0.9967968	79.88789	0.024
378.15	0.0175	0.0175175	76.12859	0.022
378.15	0.0299	0.0299299	76.17383	0.022
378.15	0.0521	0.0521522	76.2501	0.022
378.15	0.1003	0.1004004	76.4346	0.022
378.15	0.2501	0.2503504	76.97978	0.022
378.15	0.5002	0.5007007	77.95789	0.023
378.15	0.9958	0.9967968	79.99064	0.024
383.15	0.0175	0.0175175	76.24955	0.022
383.15	0.0299	0.0299299	76.29317	0.022
383.15	0.0521	0.0521522	76.36795	0.022
383.15	0.1003	0.1004004	76.55314	0.022
383.15	0.2501	0.2503504	77.09674	0.022
383.15	0.5002	0.5007007	78.07252	0.023
383.15	0.9958	0.9967968	80.09742	0.024
388.15	0.0175	0.0175175	76.37954	0.022
388.15	0.0299	0.0299299	76.42336	0.022
388.15	0.0521	0.0521522	76.49849	0.022
388.15	0.1003	0.1004004	76.68263	0.022
388.15	0.2501	0.2503504	77.22112	0.022
388.15	0.5002	0.5007007	78.19288	0.023
388.15	0.9958	0.9967968	80.21025	0.024
393.15	0.0175	0.0175175	76.52216	0.022
393.15	0.0299	0.0299299	76.56439	0.022
393.15	0.0521	0.0521522	76.6381	0.022
393.15	0.1003	0.1004004	76.82305	0.022
393.15	0.2501	0.2503504	77.34922	0.022
393.15	0.5002	0.5007007	78.31133	0.023
393.15	0.9958	0.9967968	80.33113	0.024

System: sodium hydroxide + 2-amino-3-hydroxybutanoic acid + water; phases: Liquid
Fixed: Pressure, kPa = 101
Property: Mass density, kg/m3 (Liquid); method: VIBTUB:UFactor:4
Temperature, K	Molality, mol/kg of 2-amino-3-hydroxybutanoic acid	Molality, mol/kg of sodium hydroxide	Mass density, kg/m3	uncertainty
278.15	0.0175	0.0175175	1001.2	0.2
278.15	0.0299	0.0299299	1002.2	0.2
278.15	0.0521	0.0521522	1003.7	0.2
278.15	0.1003	0.1004004	1007.1	0.2
278.15	0.2501	0.2503504	1017.1	0.2
278.15	0.5002	0.5007007	1032.9	0.3
278.15	0.9958	0.9967968	1060.8	0.3
283.15	0.0175	0.0175175	1001	0.2
283.15	0.0299	0.0299299	1001.9	0.2
283.15	0.0521	0.0521522	1003.4	0.2
283.15	0.1003	0.1004004	1006.7	0.2
283.15	0.2501	0.2503504	1016.5	0.2
283.15	0.5002	0.5007007	1032.1	0.3
283.15	0.9958	0.9967968	1059.8	0.3
288.15	0.0175	0.0175175	1000.4	0.2
288.15	0.0299	0.0299299	1001.2	0.2
288.15	0.0521	0.0521522	1002.8	0.2
288.15	0.1003	0.1004004	1006	0.2
288.15	0.2501	0.2503504	1015.6	0.2
288.15	0.5002	0.5007007	1031	0.2
288.15	0.9958	0.9967968	1058.5	0.3
298.15	0.0175	0.0175175	998.3	0.2
298.15	0.0299	0.0299299	999.1	0.2
298.15	0.0521	0.0521522	1000.6	0.2
298.15	0.1003	0.1004004	1003.7	0.2
298.15	0.2501	0.2503504	1013.1	0.2
298.15	0.5002	0.5007007	1028.2	0.2
298.15	0.9958	0.9967968	1055.2	0.3
308.15	0.0175	0.0175175	995.4	0.2
308.15	0.0299	0.0299299	996.1	0.2
308.15	0.0521	0.0521522	997.6	0.2
308.15	0.1003	0.1004004	1000.6	0.2
308.15	0.2501	0.2503504	1009.8	0.2
308.15	0.5002	0.5007007	1024.6	0.2
308.15	0.9958	0.9967968	1051.1	0.3
318.15	0.0175	0.0175175	991.5	0.2
318.15	0.0299	0.0299299	992.3	0.2
318.15	0.0521	0.0521522	993.7	0.2
318.15	0.1003	0.1004004	996.7	0.2
318.15	0.2501	0.2503504	1005.7	0.2
318.15	0.5002	0.5007007	1020.3	0.2
318.15	0.9958	0.9967968	1046.5	0.3
328.15	0.0175	0.0175175	987	0.2
328.15	0.0299	0.0299299	987.7	0.2
328.15	0.0521	0.0521522	989.2	0.2
328.15	0.1003	0.1004004	992.1	0.2
328.15	0.2501	0.2503504	1001.1	0.2
328.15	0.5002	0.5007007	1015.5	0.2
328.15	0.9958	0.9967968	1041.4	0.3
338.15	0.0175	0.0175175	981.79	0.22
338.15	0.0299	0.0299299	982.58	0.21
338.15	0.0521	0.0521522	984	0.2
338.15	0.1003	0.1004004	986.93	0.2
338.15	0.2501	0.2503504	995.77	0.19
338.15	0.5002	0.5007007	1010.15	0.2
338.15	0.9958	0.9967968	1035.88	0.27
348.15	0.0175	0.0175175	976.1	0.2
348.15	0.0299	0.0299299	976.9	0.2
348.15	0.0521	0.0521522	978.3	0.2
348.15	0.1003	0.1004004	981.2	0.2
348.15	0.2501	0.2503504	990	0.2
348.15	0.5002	0.5007007	1004.3	0.2
348.15	0.9958	0.9967968	1029.9	0.3
358.15	0.0175	0.0175175	969.8	0.2
358.15	0.0299	0.0299299	970.6	0.2
358.15	0.0521	0.0521522	972.1	0.2
358.15	0.1003	0.1004004	975	0.2
358.15	0.2501	0.2503504	983.8	0.2
358.15	0.5002	0.5007007	998	0.2
358.15	0.9958	0.9967968	1023.4	0.3
368.15	0.0175	0.0175175	963.1	0.3
368.15	0.0299	0.0299299	963.9	0.3
368.15	0.0521	0.0521522	965.4	0.3
368.15	0.1003	0.1004004	968.2	0.2
368.15	0.2501	0.2503504	977	0.2
368.15	0.5002	0.5007007	991.2	0.2
368.15	0.9958	0.9967968	1016.6	0.2

System: 2-amino-3-methylpentanoic acid + sodium hydroxide + water; phases: Liquid
Fixed: Pressure, kPa = 350
Property: Molar heat capacity at constant pressure, J/K/mol (Liquid); method: High precision DSC
Temperature, K	Molality, mol/kg of 2-amino-3-methylpentanoic acid	Molality, mol/kg of sodium hydroxide	Molar heat capacity at constant pressure, J/K/mol	uncertainty
278.15	0.0151	0.0151303	75.77341	0.022
278.15	0.0313	0.0313627	75.83743	0.022
278.15	0.0501	0.0502004	75.91634	0.022
278.15	0.1	0.1002004	76.0991	0.022
278.15	0.2576	0.2581162	76.83044	0.022
278.15	0.4998	0.5008016	77.91183	0.023
278.15	0.994	0.995992	80.49317	0.024
283.15	0.0151	0.0151303	75.60553	0.022
283.15	0.0313	0.0313627	75.67822	0.022
283.15	0.0501	0.0502004	75.7658	0.022
283.15	0.1	0.1002004	75.97677	0.022
283.15	0.2576	0.2581162	76.76148	0.022
283.15	0.4998	0.5008016	77.95025	0.023
283.15	0.994	0.995992	80.66006	0.024
288.15	0.0151	0.0151303	75.49361	0.022
288.15	0.0313	0.0313627	75.56968	0.022
288.15	0.0501	0.0502004	75.66424	0.022
288.15	0.1	0.1002004	75.89826	0.022
288.15	0.2576	0.2581162	76.72048	0.022
288.15	0.4998	0.5008016	77.99828	0.023
288.15	0.994	0.995992	80.8066	0.024
293.15	0.0151	0.0151303	75.41959	0.022
293.15	0.0313	0.0313627	75.50093	0.022
293.15	0.0501	0.0502004	75.59713	0.022
293.15	0.1	0.1002004	75.84897	0.022
293.15	0.2576	0.2581162	76.70557	0.022
293.15	0.4998	0.5008016	78.04822	0.023
293.15	0.994	0.995992	80.93685	0.024
298.15	0.0151	0.0151303	75.37266	0.022
298.15	0.0313	0.0313627	75.45751	0.022
298.15	0.0501	0.0502004	75.55904	0.022
298.15	0.1	0.1002004	75.82341	0.022
298.15	0.2576	0.2581162	76.70744	0.022
298.15	0.4998	0.5008016	78.10202	0.023
298.15	0.994	0.995992	81.04675	0.024
303.15	0.0151	0.0151303	75.34197	0.022
303.15	0.0313	0.0313627	75.43218	0.022
303.15	0.0501	0.0502004	75.53546	0.022
303.15	0.1	0.1002004	75.8161	0.022
303.15	0.2576	0.2581162	76.71862	0.022
303.15	0.4998	0.5008016	78.15388	0.023
303.15	0.994	0.995992	81.14038	0.024
308.15	0.0151	0.0151303	75.33114	0.022
308.15	0.0313	0.0313627	75.42494	0.022
308.15	0.0501	0.0502004	75.52821	0.022
308.15	0.1	0.1002004	75.82158	0.022
308.15	0.2576	0.2581162	76.74098	0.022
308.15	0.4998	0.5008016	78.20575	0.023
308.15	0.994	0.995992	81.21975	0.024
313.15	0.0151	0.0151303	75.33114	0.022
313.15	0.0313	0.0313627	75.42856	0.022
313.15	0.0501	0.0502004	75.53184	0.022
313.15	0.1	0.1002004	75.83619	0.022
313.15	0.2576	0.2581162	76.76707	0.022
313.15	0.4998	0.5008016	78.25762	0.023
313.15	0.994	0.995992	81.29302	0.024
318.15	0.0151	0.0151303	75.34558	0.022
318.15	0.0313	0.0313627	75.44484	0.022
318.15	0.0501	0.0502004	75.54997	0.022
318.15	0.1	0.1002004	75.8581	0.022
318.15	0.2576	0.2581162	76.80435	0.022
318.15	0.4998	0.5008016	78.31334	0.023
318.15	0.994	0.995992	81.36221	0.024
323.15	0.0151	0.0151303	75.36724	0.022
323.15	0.0313	0.0313627	75.46655	0.022
323.15	0.0501	0.0502004	75.57537	0.022
323.15	0.1	0.1002004	75.88548	0.022
323.15	0.2576	0.2581162	76.84535	0.022
323.15	0.4998	0.5008016	78.36713	0.023
323.15	0.994	0.995992	81.42531	0.024
328.15	0.0151	0.0151303	75.40154	0.022
328.15	0.0313	0.0313627	75.50274	0.022
328.15	0.0501	0.0502004	75.61164	0.022
328.15	0.1	0.1002004	75.92383	0.022
328.15	0.2576	0.2581162	76.89381	0.022
328.15	0.4998	0.5008016	78.42284	0.023
328.15	0.994	0.995992	81.4884	0.024
333.15	0.0151	0.0151303	75.44126	0.022
333.15	0.0313	0.0313627	75.54254	0.022
333.15	0.0501	0.0502004	75.65335	0.022
333.15	0.1	0.1002004	75.96764	0.022
333.15	0.2576	0.2581162	76.94412	0.022
333.15	0.4998	0.5008016	78.48047	0.023
333.15	0.994	0.995992	81.54335	0.024
338.15	0.0151	0.0151303	75.49	0.022
338.15	0.0313	0.0313627	75.59138	0.022
338.15	0.0501	0.0502004	75.70414	0.022
338.15	0.1	0.1002004	76.01877	0.022
338.15	0.2576	0.2581162	77.0019	0.022
338.15	0.4998	0.5008016	78.54002	0.023
338.15	0.994	0.995992	81.59627	0.024
343.15	0.0151	0.0151303	75.54957	0.022
343.15	0.0313	0.0313627	75.64928	0.022
343.15	0.0501	0.0502004	75.76218	0.022
343.15	0.1	0.1002004	76.07902	0.022
343.15	0.2576	0.2581162	77.06526	0.022
343.15	0.4998	0.5008016	78.6015	0.023
343.15	0.994	0.995992	81.64918	0.024
348.15	0.0151	0.0151303	75.61456	0.022
348.15	0.0313	0.0313627	75.71441	0.022
348.15	0.0501	0.0502004	75.82747	0.022
348.15	0.1	0.1002004	76.14292	0.022
348.15	0.2576	0.2581162	77.13236	0.022
348.15	0.4998	0.5008016	78.66682	0.023
348.15	0.994	0.995992	81.70006	0.024
353.15	0.0151	0.0151303	75.68496	0.022
353.15	0.0313	0.0313627	75.78677	0.022
353.15	0.0501	0.0502004	75.90002	0.022
353.15	0.1	0.1002004	76.21595	0.022
353.15	0.2576	0.2581162	77.20504	0.022
353.15	0.4998	0.5008016	78.73213	0.023
353.15	0.994	0.995992	81.75298	0.024
358.15	0.0151	0.0151303	75.76439	0.022
358.15	0.0313	0.0313627	75.86457	0.022
358.15	0.0501	0.0502004	75.97801	0.022
358.15	0.1	0.1002004	76.29446	0.022
358.15	0.2576	0.2581162	77.28332	0.022
358.15	0.4998	0.5008016	78.80129	0.023
358.15	0.994	0.995992	81.80589	0.024
363.15	0.0151	0.0151303	75.85104	0.022
363.15	0.0313	0.0313627	75.9514	0.022
363.15	0.0501	0.0502004	76.06325	0.022
363.15	0.1	0.1002004	76.37845	0.022
363.15	0.2576	0.2581162	77.36532	0.022
363.15	0.4998	0.5008016	78.87429	0.023
363.15	0.994	0.995992	81.86085	0.024
368.15	0.0151	0.0151303	75.94491	0.022
368.15	0.0313	0.0313627	76.04548	0.022
368.15	0.0501	0.0502004	76.15757	0.022
368.15	0.1	0.1002004	76.46974	0.022
368.15	0.2576	0.2581162	77.45477	0.022
368.15	0.4998	0.5008016	78.95114	0.023
368.15	0.994	0.995992	81.91783	0.024
373.15	0.0151	0.0151303	76.0478	0.022
373.15	0.0313	0.0313627	76.14498	0.022
373.15	0.0501	0.0502004	76.25913	0.022
373.15	0.1	0.1002004	76.5665	0.022
373.15	0.2576	0.2581162	77.54796	0.022
373.15	0.4998	0.5008016	79.03182	0.023
373.15	0.994	0.995992	81.97482	0.024
378.15	0.0151	0.0151303	76.15973	0.022
378.15	0.0313	0.0313627	76.25534	0.022
378.15	0.0501	0.0502004	76.36977	0.022
378.15	0.1	0.1002004	76.67057	0.022
378.15	0.2576	0.2581162	77.65046	0.022
378.15	0.4998	0.5008016	79.12019	0.023
378.15	0.994	0.995992	82.03791	0.024
383.15	0.0151	0.0151303	76.28068	0.022
383.15	0.0313	0.0313627	76.36932	0.022
383.15	0.0501	0.0502004	76.48766	0.022
383.15	0.1	0.1002004	76.78195	0.022
383.15	0.2576	0.2581162	77.75856	0.022
383.15	0.4998	0.5008016	79.21241	0.023
383.15	0.994	0.995992	82.101	0.024
388.15	0.0151	0.0151303	76.41065	0.022
388.15	0.0313	0.0313627	76.49415	0.022
388.15	0.0501	0.0502004	76.61643	0.022
388.15	0.1	0.1002004	76.8988	0.022
388.15	0.2576	0.2581162	77.87597	0.022
388.15	0.4998	0.5008016	79.31038	0.023
388.15	0.994	0.995992	82.16816	0.024
393.15	0.0151	0.0151303	76.55146	0.022
393.15	0.0313	0.0313627	76.62983	0.022
393.15	0.0501	0.0502004	76.75427	0.022
393.15	0.1	0.1002004	77.0266	0.022
393.15	0.2576	0.2581162	77.99524	0.022
393.15	0.4998	0.5008016	79.41988	0.023
393.15	0.994	0.995992	82.24143	0.024

System: 2-amino-3-methylpentanoic acid + sodium hydroxide + water; phases: Liquid
Fixed: Pressure, kPa = 101
Property: Mass density, kg/m3 (Liquid); method: VIBTUB:UFactor:4
Temperature, K	Molality, mol/kg of 2-amino-3-methylpentanoic acid	Molality, mol/kg of sodium hydroxide	Mass density, kg/m3	uncertainty
278.15	0.0151	0.0151303	1000.98	0.17
278.15	0.0313	0.0313627	1001.87	0.18
278.15	0.0501	0.0502004	1002.84	0.18
278.15	0.1	0.1002004	1005.72	0.19
278.15	0.2576	0.2581162	1013.17	0.2
278.15	0.4998	0.5008016	1025.23	0.23
278.15	0.994	0.995992	1046.67	0.29
278.15	0.0151	0.0151303	1000.95	0.17
278.15	0.2576	0.2581162	1013.18	0.2
283.15	0.0151	0.0151303	1000.67	0.18
283.15	0.0313	0.0313627	1001.54	0.17
283.15	0.0501	0.0502004	1002.58	0.18
283.15	0.1	0.1002004	1005.29	0.18
283.15	0.2576	0.2581162	1012.59	0.2
283.15	0.4998	0.5008016	1024.4	0.23
283.15	0.994	0.995992	1045.4	0.28
283.15	0.0151	0.0151303	1000.67	0.18
283.15	0.2576	0.2581162	1012.64	0.2
288.15	0.0151	0.0151303	1000.04	0.18
288.15	0.0313	0.0313627	1000.89	0.17
288.15	0.0501	0.0502004	1001.87	0.17
288.15	0.1	0.1002004	1004.58	0.18
288.15	0.2576	0.2581162	1011.73	0.2
288.15	0.4998	0.5008016	1023.34	0.22
288.15	0.994	0.995992	1043.87	0.28
288.15	0.0151	0.0151303	1000.05	0.18
288.15	0.2576	0.2581162	1011.78	0.2
298.15	0.0151	0.0151303	997.93	0.18
298.15	0.0313	0.0313627	998.75	0.17
298.15	0.0501	0.0502004	999.72	0.17
298.15	0.1	0.1002004	1002.33	0.18
298.15	0.2576	0.2581162	1009.24	0.19
298.15	0.4998	0.5008016	1020.45	0.22
298.15	0.994	0.995992	1040.26	0.27
298.15	0.0151	0.0151303	997.96	0.18
298.15	0.2576	0.2581162	1009.3	0.19
308.15	0.0151	0.0151303	994.87	0.19
308.15	0.0313	0.0313627	995.69	0.18
308.15	0.0501	0.0502004	996.63	0.17
308.15	0.1	0.1002004	999.15	0.17
308.15	0.2576	0.2581162	1005.91	0.18
308.15	0.4998	0.5008016	1016.77	0.21
308.15	0.994	0.995992	1036	0.26
308.15	0.0151	0.0151303	994.93	0.19
308.15	0.2576	0.2581162	1005.94	0.18
318.15	0.0151	0.0151303	991.02	0.19
318.15	0.0313	0.0313627	991.82	0.18
318.15	0.0501	0.0502004	992.73	0.18
318.15	0.1	0.1002004	995.26	0.18
318.15	0.2576	0.2581162	1001.81	0.18
318.15	0.4998	0.5008016	1012.47	0.2
318.15	0.994	0.995992	1031.16	0.26
318.15	0.0151	0.0151303	991.07	0.19
318.15	0.2576	0.2581162	1001.88	0.18
328.15	0.0151	0.0151303	986.47	0.2
328.15	0.0313	0.0313627	987.27	0.19
328.15	0.0501	0.0502004	988.18	0.19
328.15	0.1	0.1002004	990.65	0.19
328.15	0.2576	0.2581162	997.09	0.18
328.15	0.4998	0.5008016	1007.55	0.19
328.15	0.994	0.995992	1025.81	0.25
328.15	0.0151	0.0151303	986.55	0.2
328.15	0.2576	0.2581162	997.16	0.18
338.15	0.0151	0.0151303	981.32	0.21
338.15	0.0313	0.0313627	982.12	0.2
338.15	0.0501	0.0502004	983.02	0.2
338.15	0.1	0.1002004	985.45	0.2
338.15	0.2576	0.2581162	991.79	0.19
338.15	0.4998	0.5008016	1002.06	0.18
338.15	0.994	0.995992	1020.01	0.24
338.15	0.0151	0.0151303	981.41	0.21
338.15	0.2576	0.2581162	991.89	0.19
348.15	0.0151	0.0151303	975.6	0.22
348.15	0.0313	0.0313627	976.41	0.22
348.15	0.0501	0.0502004	977.28	0.22
348.15	0.1	0.1002004	979.71	0.21
348.15	0.2576	0.2581162	985.97	0.2
348.15	0.4998	0.5008016	996.09	0.19
348.15	0.994	0.995992	1013.72	0.22
348.15	0.0151	0.0151303	975.69	0.22
348.15	0.2576	0.2581162	986.04	0.2
358.15	0.0151	0.0151303	969.37	0.24
358.15	0.0313	0.0313627	970.19	0.23
358.15	0.0501	0.0502004	971.07	0.23
358.15	0.1	0.1002004	973.4	0.23
358.15	0.2576	0.2581162	979.66	0.22
358.15	0.4998	0.5008016	989.63	0.2
358.15	0.994	0.995992	1007.06	0.21
358.15	0.0151	0.0151303	969.47	0.24
358.15	0.2576	0.2581162	979.72	0.22
368.15	0.0151	0.0151303	962.68	0.25
368.15	0.0313	0.0313627	963.51	0.25
368.15	0.0501	0.0502004	964.34	0.24
368.15	0.1	0.1002004	966.67	0.24
368.15	0.2576	0.2581162	972.91	0.23
368.15	0.4998	0.5008016	982.73	0.22
368.15	0.994	0.995992	999.95	0.2
368.15	0.0151	0.0151303	962.75	0.25
368.15	0.2576	0.2581162	972.9	0.23
