Measured thermophysical data. pH effect on the enthalpy of dilution and volumetric properties of protocatechuic acid at T = 298.15 K
Source: J. Chem. Thermodyn., 2014, 10.1016/j.jct.2014.06.027
Compound 1: sodium dihydrogen phosphate, H2NaO4P, InChI=1S/Na.H3O4P/c;1-5(2,3)4/h;(H3,1,2,3,4)/q+1;/p-1, purity 99%
Compound 2: disodium hydrogen phosphate, HNa2O4P, InChI=1S/2Na.H3O4P/c;;1-5(2,3)4/h;;(H3,1,2,3,4)/q2*+1;/p-2, purity 99%
Compound 3: monopotassium phosphate, H2KO4P, InChI=1S/K.H3O4P/c;1-5(2,3)4/h;(H3,1,2,3,4)/q+1;/p-1, purity 99.5%
Compound 4: dipotassium hydrogen phosphate, HK2O4P, InChI=1S/2K.H3O4P/c;;1-5(2,3)4/h;;(H3,1,2,3,4)/q2*+1;/p-2, purity 99%
Compound 5: water, H2O, InChI=1S/H2O/h1H2

System: water + dipotassium hydrogen phosphate + monopotassium phosphate; phases: Liquid
Property: Mass density, kg/m3 (Liquid); method: Vibrating tube method
Molality, mol/kg of dipotassium hydrogen phosphate	Temperature, K	Pressure, kPa	Molality, mol/kg of monopotassium phosphate	Mass density, kg/m3	uncertainty
0.1885	298.15	101.33	0.0115	1025.321	0.111

System: disodium hydrogen phosphate + sodium dihydrogen phosphate + water; phases: Liquid
Property: Mass density, kg/m3 (Liquid); method: Vibrating tube method
Molality, mol/kg of disodium hydrogen phosphate	Temperature, K	Pressure, kPa	Molality, mol/kg of sodium dihydrogen phosphate	Mass density, kg/m3	uncertainty
0.188	298.15	101.33	0.012	1023.408	0.111
