Measured thermophysical data. Investigation of solubilities of carbon dioxide in five levulinic acid-based deep eutectic solvents and their thermodynamic properties
Source: J. Chem. Thermodyn., 2016, 10.1016/j.jct.2016.08.015
Compound 1: carbon dioxide, CO2, InChI=1S/CO2/c2-1-3, purity 99.95%
Compound 2: 4-oxopentanoic acid, C5H8O3, InChI=1S/C5H8O3/c1-4(6)2-3-5(7)8/h2-3H2,1H3,(H,7,8), purity 98.5%
Compound 3: acetylcholine chloride, C7H16ClNO2, InChI=1S/C7H16NO2.ClH/c1-7(9)10-6-5-8(2,3)4;/h5-6H2,1-4H3;1H/q+1;/p-1, purity 99%
Compound 4: tetraethylammonium chloride, C8H20ClN, InChI=1S/C8H20N.ClH/c1-5-9(6-2,7-3)8-4;/h5-8H2,1-4H3;1H/q+1;/p-1, purity 97%
Compound 5: tetraethylammonium bromide, C8H20BrN, InChI=1S/C8H20N.BrH/c1-5-9(6-2,7-3)8-4;/h5-8H2,1-4H3;1H/q+1;/p-1, purity 99%
Compound 6: tetrabutylammonium chloride, C16H36ClN, InChI=1S/C16H36N.ClH/c1-5-9-13-17(14-10-6-2,15-11-7-3)16-12-8-4;/h5-16H2,1-4H3;1H/q+1;/p-1, purity 97%
Compound 7: tetrabutylammonium bromide, C16H36BrN, InChI=1S/C16H36N.BrH/c1-5-9-13-17(14-10-6-2,15-11-7-3)16-12-8-4;/h5-16H2,1-4H3;1H/q+1;/p-1, purity 99%

System: acetylcholine chloride + 4-oxopentanoic acid; phases: Liquid
Fixed: Pressure, kPa = 101.3
Fixed: Mole fraction of 4-oxopentanoic acid = 0.75
Property: Mass density, kg/m3 (Liquid); method: Pycnometric method
Temperature, K	Mass density, kg/m3	uncertainty
303.15	1136.9	1.1
313.15	1129.4	1.1
323.15	1121.8	1.1
333.15	1114.4	1.1

System: tetraethylammonium chloride + 4-oxopentanoic acid; phases: Liquid
Fixed: Pressure, kPa = 101.3
Fixed: Mole fraction of 4-oxopentanoic acid = 0.75
Property: Mass density, kg/m3 (Liquid); method: Pycnometric method
Temperature, K	Mass density, kg/m3	uncertainty
303.15	1090.3	1.3
313.15	1083.3	1.3
323.15	1076.1	1.3
333.15	1069.2	1.3

System: tetraethylammonium bromide + 4-oxopentanoic acid; phases: Liquid
Fixed: Pressure, kPa = 101.3
Fixed: Mole fraction of 4-oxopentanoic acid = 0.75
Property: Mass density, kg/m3 (Liquid); method: Pycnometric method
Temperature, K	Mass density, kg/m3	uncertainty
303.15	1169.9	1.1
313.15	1162.2	1.1
323.15	1154.6	1.1
333.15	1147.4	1.2

System: 4-oxopentanoic acid + tetrabutylammonium chloride; phases: Liquid
Fixed: Pressure, kPa = 101.3
Fixed: Mole fraction of 4-oxopentanoic acid = 0.75
Property: Mass density, kg/m3 (Liquid); method: Pycnometric method
Temperature, K	Mass density, kg/m3	uncertainty
303.15	1027.3	1.2
313.15	1020.3	1.3
323.15	1013.1	1.3
333.15	1006	1.3

System: 4-oxopentanoic acid + tetrabutylammonium bromide; phases: Liquid
Fixed: Pressure, kPa = 101.3
Fixed: Mole fraction of 4-oxopentanoic acid = 0.75
Property: Mass density, kg/m3 (Liquid); method: Pycnometric method
Temperature, K	Mass density, kg/m3	uncertainty
303.15	1093.5	1.1
313.15	1086.2	1.1
323.15	1078.8	1.1
333.15	1072.1	1.1

System: acetylcholine chloride + 4-oxopentanoic acid + carbon dioxide; phases: Liquid, Gas
Fixed: Solvent: Mole fraction of 4-oxopentanoic acid = 0.75
Property: Molality, mol/kg of carbon dioxide (Liquid); method: voulmetric method
Temperature, K	Pressure, kPa of carbon dioxide	Molality, mol/kg of carbon dioxide	uncertainty
303.15	65.7	0.0421	0.0026
303.15	120.4	0.0722	0.0044
303.15	200	0.1134	0.0068
303.15	283.4	0.1608	0.0097
303.15	388.3	0.2178	0.0131
303.15	474.2	0.2637	0.0159
303.15	542.7	0.3009	0.0181
313.15	72.3	0.0338	0.0021
313.15	132.3	0.0576	0.0035
313.15	215.1	0.0967	0.0058
313.15	315.4	0.138	0.0083
313.15	410.2	0.1737	0.0104
313.15	511.8	0.2163	0.013
313.15	570.1	0.2414	0.0145
323.15	77.5	0.0261	0.0016
323.15	129.9	0.0438	0.0027
323.15	220.1	0.0738	0.0045
323.15	317.1	0.1068	0.0064
323.15	414.7	0.1392	0.0084
323.15	512.3	0.1708	0.0103
323.15	576.4	0.1928	0.0116
333.15	83	0.026	0.0016
333.15	133.5	0.0399	0.0024
333.15	223.6	0.0636	0.0038
333.15	320.6	0.0894	0.0054
333.15	415.2	0.1149	0.0069
333.15	513.3	0.1412	0.0085
333.15	571.6	0.1566	0.0094

System: tetraethylammonium chloride + 4-oxopentanoic acid + carbon dioxide; phases: Liquid, Gas
Fixed: Solvent: Mole fraction of 4-oxopentanoic acid = 0.75
Property: Molality, mol/kg of carbon dioxide (Liquid); method: voulmetric method
Temperature, K	Pressure, kPa of carbon dioxide	Molality, mol/kg of carbon dioxide	uncertainty
303.15	66.1	0.0347	0.0022
303.15	125.6	0.0643	0.0039
303.15	211.6	0.1082	0.0065
303.15	302.8	0.1499	0.009
303.15	404.1	0.198	0.0119
303.15	500.2	0.2445	0.0147
303.15	561.6	0.2741	0.0165
313.15	77.6	0.0299	0.0018
313.15	131.8	0.0507	0.0031
313.15	219.8	0.0837	0.005
313.15	316.9	0.1218	0.0073
313.15	416.9	0.1616	0.0097
313.15	516.4	0.202	0.0121
313.15	581.3	0.2273	0.0137
323.15	78	0.0277	0.0017
323.15	144.1	0.0492	0.003
323.15	229.1	0.0788	0.0047
323.15	325.9	0.1111	0.0067
323.15	421.6	0.143	0.0086
323.15	526	0.1778	0.0107
323.15	585.4	0.1975	0.0119
333.15	84	0.0221	0.0014
333.15	140.7	0.0391	0.0024
333.15	228.8	0.0655	0.0039
333.15	331.2	0.0963	0.0058
333.15	429.2	0.1238	0.0074
333.15	529.2	0.1545	0.0093
333.15	583.3	0.1717	0.0103

System: tetraethylammonium bromide + 4-oxopentanoic acid + carbon dioxide; phases: Liquid, Gas
Fixed: Solvent: Mole fraction of 4-oxopentanoic acid = 0.75
Property: Molality, mol/kg of carbon dioxide (Liquid); method: voulmetric method
Temperature, K	Pressure, kPa of carbon dioxide	Molality, mol/kg of carbon dioxide	uncertainty
303.15	68.7	0.0291	0.0018
303.15	122.4	0.0525	0.0032
303.15	210.3	0.0888	0.0054
303.15	305.1	0.1294	0.0078
303.15	402.4	0.1702	0.0102
303.15	500.5	0.2124	0.0128
303.15	564.4	0.2402	0.0144
313.15	84.2	0.033	0.002
313.15	139.1	0.0516	0.0031
313.15	230.1	0.0829	0.005
313.15	329.1	0.117	0.007
313.15	428.9	0.1511	0.0091
313.15	525.9	0.1838	0.011
313.15	587.7	0.2057	0.0124
323.15	83.1	0.024	0.0015
323.15	138.5	0.0396	0.0024
323.15	236.2	0.0677	0.0041
323.15	323.8	0.0936	0.0056
323.15	423.9	0.1233	0.0074
323.15	528.3	0.1525	0.0092
323.15	578.8	0.1684	0.0101
333.15	81.8	0.0214	0.0013
333.15	141	0.0366	0.0022
333.15	233.4	0.0598	0.0036
333.15	327.9	0.0827	0.005
333.15	429.6	0.1095	0.0066
333.15	529.4	0.1349	0.0081
333.15	587.8	0.1485	0.0089

System: 4-oxopentanoic acid + carbon dioxide + tetrabutylammonium chloride; phases: Liquid, Gas
Fixed: Solvent: Mole fraction of 4-oxopentanoic acid = 0.75
Property: Molality, mol/kg of carbon dioxide (Liquid); method: voulmetric method
Temperature, K	Pressure, kPa of carbon dioxide	Molality, mol/kg of carbon dioxide	uncertainty
303.15	63.2	0.0339	0.0021
303.15	118.8	0.064	0.0039
303.15	200.6	0.1059	0.0064
303.15	293	0.1571	0.0095
303.15	389.8	0.2098	0.0126
303.15	494.3	0.2671	0.0161
303.15	559.1	0.3027	0.0182
313.15	69.7	0.038	0.0024
313.15	127.3	0.0648	0.0039
313.15	210.9	0.1011	0.0061
313.15	310	0.1435	0.0086
313.15	409.1	0.1895	0.0114
313.15	509.6	0.2349	0.0141
313.15	578.6	0.2682	0.0161
323.15	79.1	0.0294	0.0018
323.15	131.6	0.0479	0.0029
323.15	229.6	0.0839	0.0051
323.15	323.4	0.12	0.0072
323.15	424.2	0.1578	0.0095
323.15	524.4	0.1955	0.0118
323.15	591.6	0.221	0.0133
333.15	85	0.0255	0.0016
333.15	144.5	0.0442	0.0027
333.15	236.5	0.0726	0.0044
333.15	335.5	0.1024	0.0062
333.15	431.7	0.1328	0.008
333.15	533	0.1676	0.0101
333.15	589.8	0.1859	0.0112

System: 4-oxopentanoic acid + carbon dioxide + tetrabutylammonium bromide; phases: Liquid, Gas
Fixed: Solvent: Mole fraction of 4-oxopentanoic acid = 0.75
Property: Molality, mol/kg of carbon dioxide (Liquid); method: voulmetric method
Temperature, K	Pressure, kPa of carbon dioxide	Molality, mol/kg of carbon dioxide	uncertainty
303.15	70.2	0.0334	0.0021
303.15	122.9	0.0603	0.0037
303.15	206.2	0.0986	0.0059
303.15	301.7	0.1437	0.0086
303.15	401.5	0.1914	0.0115
303.15	500.4	0.2373	0.0143
303.15	568.2	0.2694	0.0162
313.15	82.6	0.0333	0.0021
313.15	198	0.0797	0.0048
313.15	290.6	0.1174	0.0071
313.15	400.4	0.1621	0.0097
313.15	499.9	0.2034	0.0122
313.15	568.4	0.2307	0.0139
323.15	101.1	0.0334	0.002
323.15	201.4	0.0628	0.0038
323.15	306.9	0.0995	0.006
323.15	402.3	0.1326	0.008
323.15	502.9	0.1672	0.01
323.15	566.6	0.189	0.0114
333.15	85.3	0.023	0.0014
333.15	142.3	0.0392	0.0024
333.15	230.7	0.0655	0.0039
333.15	326	0.0929	0.0056
333.15	423.2	0.1216	0.0073
333.15	523.5	0.1518	0.0091
333.15	586.4	0.1699	0.0102
