Measured thermophysical data. Investigation on solute solvent interactions of glycine, L-alanine and L-valine in aqueous tetraethylammonium iodide solutions at different temperatures with reference to volumetric and acoustic measurements
Source: J. Chem. Thermodyn., 2015, 10.1016/j.jct.2015.08.009
Compound 1: 2-aminoacetic acid, C2H5NO2, InChI=1S/C2H5NO2/c3-1-2(4)5/h1,3H2,(H,4,5), purity 99%
Compound 2: tetraethylammonium iodide, C8H20IN, InChI=1S/C8H20N.HI/c1-5-9(6-2,7-3)8-4;/h5-8H2,1-4H3;1H/q+1;/p-1, purity 99.8%
Compound 3: water, H2O, InChI=1S/H2O/h1H2
Compound 4: (S)-2-aminopropanoic acid, C3H7NO2, InChI=1S/C3H7NO2/c1-2(4)3(5)6/h2H,4H2,1H3,(H,5,6)/t2-/m0/s1, purity 99%
Compound 5: L-valine, C5H11NO2, InChI=1S/C5H11NO2/c1-3(2)4(6)5(7)8/h3-4H,6H2,1-2H3,(H,7,8)/t4-/m0/s1, purity 99%

System: 2-aminoacetic acid + tetraethylammonium iodide + water; phases: Liquid
Fixed: Pressure, kPa = 100
Property: Mass density, kg/m3 (Liquid); method: Vibrating tube method
Temperature, K	Solvent: Molality, mol/kg of tetraethylammonium iodide	Molality, mol/kg of 2-aminoacetic acid	Mass density, kg/m3	uncertainty
288.15	0.03	0	1002.687	4.001
288.15	0.03	0.02022	1003.337	4.001
288.15	0.03	0.05969	1004.607	4.001
288.15	0.03	0.1003	1005.914	4.001
288.15	0.03	0.13962	1007.178	4.002
288.15	0.03	0.16889	1008.119	4.002
288.15	0.03	0.1991	1009.102	4.003
293.15	0.03	0	1001.77	4.001
293.15	0.03	0.02022	1002.412	4.001
293.15	0.03	0.05969	1003.666	4.001
293.15	0.03	0.1003	1004.956	4.001
293.15	0.03	0.13962	1006.211	4.002
293.15	0.03	0.16889	1007.141	4.002
293.15	0.03	0.1991	1008.103	4.003
298.15	0.03	0	1000.563	4.001
298.15	0.03	0.02022	1001.195	4.001
298.15	0.03	0.05969	1002.431	4.001
298.15	0.03	0.1003	1003.709	4.001
298.15	0.03	0.13962	1004.952	4.002
298.15	0.03	0.16889	1005.885	4.002
298.15	0.03	0.1991	1006.855	4.003
303.15	0.03	0	999.141	4.001
303.15	0.03	0.02022	999.768	4.001
303.15	0.03	0.05969	1000.995	4.001
303.15	0.03	0.1003	1002.262	4.001
303.15	0.03	0.13962	1003.49	4.002
303.15	0.03	0.16889	1004.409	4.002
303.15	0.03	0.1991	1005.365	4.003
308.15	0.03	0	997.537	4.001
308.15	0.03	0.02022	998.159	4.001
308.15	0.03	0.05969	999.376	4.001
308.15	0.03	0.1003	1000.63	4.001
308.15	0.03	0.13962	1001.848	4.002
308.15	0.03	0.16889	1002.757	4.002
308.15	0.03	0.1991	1003.701	4.003
288.15	0.05	0	1004.108	4.001
288.15	0.05	0.02003	1004.764	4.001
288.15	0.05	0.06001	1006.067	4.001
288.15	0.05	0.10006	1007.364	4.002
288.15	0.05	0.13999	1008.647	4.002
288.15	0.05	0.16999	1009.6	4.003
288.15	0.05	0.19999	1010.553	4.003
293.15	0.05	0	1003.177	4.001
293.15	0.05	0.02003	1003.825	4.001
293.15	0.05	0.06001	1005.111	4.001
293.15	0.05	0.10006	1006.39	4.002
293.15	0.05	0.13999	1007.657	4.002
293.15	0.05	0.16999	1008.599	4.003
293.15	0.05	0.19999	1009.54	4.003
298.15	0.05	0	1001.987	4.001
298.15	0.05	0.02003	1002.615	4.001
298.15	0.05	0.06001	1003.871	4.001
298.15	0.05	0.10006	1005.136	4.002
298.15	0.05	0.13999	1006.406	4.002
298.15	0.05	0.16999	1007.366	4.003
298.15	0.05	0.19999	1008.332	4.003
303.15	0.05	0	1000.561	4.001
303.15	0.05	0.02003	1001.187	4.001
303.15	0.05	0.06001	1002.437	4.001
303.15	0.05	0.10006	1003.687	4.002
303.15	0.05	0.13999	1004.931	4.002
303.15	0.05	0.16999	1005.864	4.003
303.15	0.05	0.19999	1006.798	4.003
308.15	0.05	0	998.922	4.001
308.15	0.05	0.02003	999.54	4.001
308.15	0.05	0.06001	1000.776	4.001
308.15	0.05	0.10006	1002.021	4.002
308.15	0.05	0.13999	1003.268	4.002
308.15	0.05	0.16999	1004.219	4.003
308.15	0.05	0.19999	1005.171	4.003
288.15	0.1	0	1007.652	4.003
288.15	0.1	0.02005	1008.324	4.003
288.15	0.1	0.06	1009.634	4.003
288.15	0.1	0.09998	1010.908	4.004
288.15	0.1	0.14021	1012.155	4.004
288.15	0.1	0.16974	1013.053	4.004
288.15	0.1	0.20043	1013.975	4.005
293.15	0.1	0	1006.688	4.003
293.15	0.1	0.02005	1007.352	4.003
293.15	0.1	0.06	1008.647	4.003
293.15	0.1	0.09998	1009.903	4.004
293.15	0.1	0.14021	1011.131	4.004
293.15	0.1	0.16974	1012.018	4.004
293.15	0.1	0.20043	1012.907	4.005
298.15	0.1	0	1005.466	4.003
298.15	0.1	0.02005	1006.124	4.003
298.15	0.1	0.06	1007.405	4.003
298.15	0.1	0.09998	1008.641	4.004
298.15	0.1	0.14021	1009.874	4.004
298.15	0.1	0.16974	1010.749	4.004
298.15	0.1	0.20043	1011.653	4.005
303.15	0.1	0	1004	4.003
303.15	0.1	0.02005	1004.626	4.003
303.15	0.1	0.06	1005.88	4.003
303.15	0.1	0.09998	1007.141	4.004
303.15	0.1	0.14021	1008.429	4.004
303.15	0.1	0.16974	1009.388	4.005
303.15	0.1	0.20043	1010.394	4.004
308.15	0.1	0	1002.334	4.003
308.15	0.1	0.02005	1002.957	4.003
308.15	0.1	0.06	1004.206	4.003
308.15	0.1	0.09998	1005.468	4.003
308.15	0.1	0.14021	1006.728	4.004
308.15	0.1	0.16974	1007.657	4.004
308.15	0.1	0.20043	1008.657	4.005
288.15	0.15	0	1011.137	4.006
288.15	0.15	0.01992	1011.807	4.006
288.15	0.15	0.06002	1013.143	4.006
288.15	0.15	0.10016	1014.446	4.007
288.15	0.15	0.13927	1015.677	4.007
288.15	0.15	0.16987	1016.632	4.008
288.15	0.15	0.19863	1017.511	4.008
293.15	0.15	0	1010.182	4.006
293.15	0.15	0.01992	1010.829	4.006
293.15	0.15	0.06002	1012.121	4.006
293.15	0.15	0.10016	1013.397	4.006
293.15	0.15	0.13927	1014.626	4.007
293.15	0.15	0.16987	1015.567	4.007
293.15	0.15	0.19863	1016.436	4.008
298.15	0.15	0	1008.927	4.006
298.15	0.15	0.01992	1009.571	4.006
298.15	0.15	0.06002	1010.849	4.006
298.15	0.15	0.10016	1012.115	4.006
298.15	0.15	0.13927	1013.334	4.007
298.15	0.15	0.16987	1014.254	4.007
298.15	0.15	0.19863	1015.126	4.008
303.15	0.15	0	1007.411	4.006
303.15	0.15	0.01992	1008.056	4.006
303.15	0.15	0.06002	1009.329	4.006
303.15	0.15	0.10016	1010.593	4.006
303.15	0.15	0.13927	1011.815	4.007
303.15	0.15	0.16987	1012.752	4.007
303.15	0.15	0.19863	1013.591	4.007
308.15	0.15	0	1005.757	4.006
308.15	0.15	0.01992	1006.387	4.006
308.15	0.15	0.06002	1007.644	4.006
308.15	0.15	0.10016	1008.891	4.006
308.15	0.15	0.13927	1010.091	4.007
308.15	0.15	0.16987	1011.008	4.007
308.15	0.15	0.19863	1011.853	4.007
288.15	0.2	0	1014.594	4.01
288.15	0.2	0.02002	1015.252	4.01
288.15	0.2	0.05994	1016.554	4.01
288.15	0.2	0.09984	1017.843	4.01
288.15	0.2	0.13917	1019.103	4.011
288.15	0.2	0.1699	1020.072	4.012
288.15	0.2	0.19983	1021.023	4.012
293.15	0.2	0	1013.565	4.01
293.15	0.2	0.02002	1014.217	4.01
293.15	0.2	0.05994	1015.507	4.01
293.15	0.2	0.09984	1016.781	4.01
293.15	0.2	0.13917	1018.024	4.011
293.15	0.2	0.1699	1018.976	4.011
293.15	0.2	0.19983	1019.915	4.011
298.15	0.2	0	1012.282	4.009
298.15	0.2	0.02002	1012.929	4.009
298.15	0.2	0.05994	1014.209	4.01
298.15	0.2	0.09984	1015.476	4.01
298.15	0.2	0.13917	1016.704	4.01
298.15	0.2	0.1699	1017.646	4.011
298.15	0.2	0.19983	1018.576	4.011
303.15	0.2	0	1010.762	4.009
303.15	0.2	0.02002	1011.407	4.009
303.15	0.2	0.05994	1012.684	4.01
303.15	0.2	0.09984	1013.909	4.01
303.15	0.2	0.13917	1015.13	4.01
303.15	0.2	0.1699	1016.072	4.011
303.15	0.2	0.19983	1016.974	4.011
308.15	0.2	0	1009.04	4.009
308.15	0.2	0.02002	1009.682	4.009
308.15	0.2	0.05994	1010.952	4.009
308.15	0.2	0.09984	1012.169	4.01
308.15	0.2	0.13917	1013.38	4.01
308.15	0.2	0.1699	1014.306	4.011
308.15	0.2	0.19983	1015.202	4.011

System: 2-aminoacetic acid + tetraethylammonium iodide + water; phases: Liquid
Fixed: Pressure, kPa = 100
Fixed: Frequency, MHz = 3
Property: Speed of sound, m/s (Liquid); method: Sing-around technique in a fixed-path interferometer
Temperature, K	Solvent: Molality, mol/kg of tetraethylammonium iodide	Molality, mol/kg of 2-aminoacetic acid	Speed of sound, m/s	uncertainty
288.15	0.03	0	1469.27	1.29
288.15	0.03	0.02022	1470.41	1.29
288.15	0.03	0.05969	1472.62	1.3
288.15	0.03	0.1003	1474.85	1.3
288.15	0.03	0.13962	1477.08	1.3
288.15	0.03	0.16889	1478.78	1.31
288.15	0.03	0.1991	1481.18	1.33
288.15	0.05	0	1470.99	1.29
288.15	0.05	0.02003	1472.25	1.3
288.15	0.05	0.06001	1474.46	1.3
288.15	0.05	0.10006	1476.67	1.3
288.15	0.05	0.13999	1479.25	1.31
288.15	0.05	0.16999	1480.58	1.31
288.15	0.05	0.19999	1482.13	1.32
288.15	0.1	0	1475.39	1.3
288.15	0.1	0.02005	1476.55	1.3
288.15	0.1	0.06	1478.77	1.31
288.15	0.1	0.09998	1480.99	1.31
288.15	0.1	0.14021	1483.48	1.32
288.15	0.1	0.16974	1485.12	1.32
288.15	0.1	0.20043	1486.8	1.32
288.15	0.15	0	1479.45	1.32
288.15	0.15	0.01992	1480.79	1.32
288.15	0.15	0.06002	1483.06	1.32
288.15	0.15	0.10016	1485.42	1.32
288.15	0.15	0.13927	1487.51	1.33
288.15	0.15	0.16987	1489.21	1.33
288.15	0.15	0.19863	1490.78	1.34
288.15	0.2	0	1483.73	1.34
288.15	0.2	0.02002	1484.98	1.34
288.15	0.2	0.05994	1487.15	1.34
288.15	0.2	0.09984	1489.41	1.34
288.15	0.2	0.13917	1491.6	1.35
288.15	0.2	0.1699	1493.34	1.35
288.15	0.2	0.19983	1495	1.36
293.15	0.03	0	1485.17	1.3
293.15	0.03	0.02022	1486.26	1.3
293.15	0.03	0.05969	1488.39	1.3
293.15	0.03	0.1003	1490.56	1.3
293.15	0.03	0.13962	1492.71	1.31
293.15	0.03	0.16889	1494.32	1.32
293.15	0.03	0.1991	1496.73	1.32
293.15	0.05	0	1486.68	1.3
293.15	0.05	0.02003	1487.91	1.3
293.15	0.05	0.06001	1490.04	1.3
293.15	0.05	0.10006	1492.21	1.3
293.15	0.05	0.13999	1494.69	1.31
293.15	0.05	0.16999	1495.9	1.31
293.15	0.05	0.19999	1497.45	1.31
293.15	0.1	0	1490.62	1.3
293.15	0.1	0.02005	1491.72	1.3
293.15	0.1	0.06	1493.88	1.31
293.15	0.1	0.09998	1496.03	1.31
293.15	0.1	0.14021	1498.43	1.31
293.15	0.1	0.16974	1500.01	1.32
293.15	0.1	0.20043	1501.67	1.31
293.15	0.15	0	1494.37	1.32
293.15	0.15	0.01992	1495.51	1.31
293.15	0.15	0.06002	1497.71	1.32
293.15	0.15	0.10016	1499.5	1.32
293.15	0.15	0.13927	1501.9	1.32
293.15	0.15	0.16987	1503.54	1.33
293.15	0.15	0.19863	1505.07	1.33
293.15	0.2	0	1498.06	1.32
293.15	0.2	0.02002	1499.04	1.32
293.15	0.2	0.05994	1501.05	1.32
293.15	0.2	0.09984	1503.44	1.33
293.15	0.2	0.13917	1505.56	1.33
293.15	0.2	0.1699	1507.25	1.34
293.15	0.2	0.19983	1508.94	1.33
298.15	0.03	0	1499.19	1.3
298.15	0.03	0.02022	1500.31	1.3
298.15	0.03	0.05969	1502.47	1.3
298.15	0.03	0.1003	1504.39	1.3
298.15	0.03	0.13962	1506.47	1.31
298.15	0.03	0.16889	1507.98	1.32
298.15	0.03	0.1991	1510.36	1.32
298.15	0.05	0	1500.44	1.3
298.15	0.05	0.02003	1501.62	1.3
298.15	0.05	0.06001	1503.72	1.3
298.15	0.05	0.10006	1505.79	1.3
298.15	0.05	0.13999	1508.29	1.31
298.15	0.05	0.16999	1509.43	1.31
298.15	0.05	0.19999	1510.91	1.31
298.15	0.1	0	1503.96	1.3
298.15	0.1	0.02005	1505.06	1.3
298.15	0.1	0.06	1507.11	1.31
298.15	0.1	0.09998	1509.2	1.31
298.15	0.1	0.14021	1511.54	1.31
298.15	0.1	0.16974	1513.15	1.32
298.15	0.1	0.20043	1514.67	1.31
298.15	0.15	0	1507.3	1.31
298.15	0.15	0.01992	1508.39	1.31
298.15	0.15	0.06002	1510.53	1.31
298.15	0.15	0.10016	1512.2	1.32
298.15	0.15	0.13927	1514.35	1.32
298.15	0.15	0.16987	1515.93	1.32
298.15	0.15	0.19863	1517.41	1.33
298.15	0.2	0	1510.58	1.32
298.15	0.2	0.02002	1511.51	1.32
298.15	0.2	0.05994	1513.43	1.32
298.15	0.2	0.09984	1515.55	1.33
298.15	0.2	0.13917	1517.61	1.33
298.15	0.2	0.1699	1519.25	1.34
298.15	0.2	0.19983	1520.94	1.33
303.15	0.03	0	1511.27	1.3
303.15	0.03	0.02022	1512.38	1.3
303.15	0.03	0.05969	1514.55	1.3
303.15	0.03	0.1003	1516.36	1.3
303.15	0.03	0.13962	1518.33	1.31
303.15	0.03	0.16889	1519.81	1.32
303.15	0.03	0.1991	1522.15	1.32
303.15	0.05	0	1512.34	1.3
303.15	0.05	0.02003	1513.5	1.3
303.15	0.05	0.06001	1515.62	1.3
303.15	0.05	0.10006	1517.61	1.31
303.15	0.05	0.13999	1520.08	1.31
303.15	0.05	0.16999	1521.12	1.31
303.15	0.05	0.19999	1522.5	1.31
303.15	0.1	0	1515.48	1.31
303.15	0.1	0.02005	1516.49	1.31
303.15	0.1	0.06	1518.51	1.31
303.15	0.1	0.09998	1520.61	1.31
303.15	0.1	0.14021	1522.81	1.31
303.15	0.1	0.16974	1524.45	1.32
303.15	0.1	0.20043	1525.91	1.31
303.15	0.15	0	1518.48	1.31
303.15	0.15	0.01992	1519.48	1.31
303.15	0.15	0.06002	1521.6	1.31
303.15	0.15	0.10016	1523.23	1.31
303.15	0.15	0.13927	1525.29	1.32
303.15	0.15	0.16987	1526.83	1.32
303.15	0.15	0.19863	1528.28	1.33
303.15	0.2	0	1521.37	1.31
303.15	0.2	0.02002	1522.69	1.32
303.15	0.2	0.05994	1524.15	1.32
303.15	0.2	0.09984	1526.18	1.32
303.15	0.2	0.13917	1528.2	1.33
303.15	0.2	0.1699	1529.77	1.33
303.15	0.2	0.19983	1531.46	1.33
308.15	0.03	0	1521.35	1.3
308.15	0.03	0.02022	1522.46	1.3
308.15	0.03	0.05969	1524.64	1.3
308.15	0.03	0.1003	1526.32	1.3
308.15	0.03	0.13962	1528.23	1.31
308.15	0.03	0.16889	1529.73	1.32
308.15	0.03	0.1991	1532.18	1.34
308.15	0.05	0	1522.38	1.3
308.15	0.05	0.02003	1523.4	1.3
308.15	0.05	0.06001	1525.46	1.3
308.15	0.05	0.10006	1527.46	1.31
308.15	0.05	0.13999	1529.89	1.31
308.15	0.05	0.16999	1530.88	1.31
308.15	0.05	0.19999	1532.3	1.33
308.15	0.1	0	1525.28	1.31
308.15	0.1	0.02005	1526.21	1.31
308.15	0.1	0.06	1528.11	1.31
308.15	0.1	0.09998	1530.13	1.31
308.15	0.1	0.14021	1532.44	1.32
308.15	0.1	0.16974	1534	1.32
308.15	0.1	0.20043	1535.44	1.32
308.15	0.15	0	1527.86	1.31
308.15	0.15	0.01992	1528.72	1.31
308.15	0.15	0.06002	1530.93	1.31
308.15	0.15	0.10016	1532.68	1.31
308.15	0.15	0.13927	1534.68	1.32
308.15	0.15	0.16987	1536.18	1.32
308.15	0.15	0.19863	1537.59	1.33
308.15	0.2	0	1530.49	1.32
308.15	0.2	0.02002	1531.41	1.32
308.15	0.2	0.05994	1533.3	1.32
308.15	0.2	0.09984	1535.29	1.32
308.15	0.2	0.13917	1537.25	1.33
308.15	0.2	0.1699	1538.81	1.33
308.15	0.2	0.19983	1540.44	1.34

System: (S)-2-aminopropanoic acid + tetraethylammonium iodide + water; phases: Liquid
Fixed: Pressure, kPa = 100
Property: Mass density, kg/m3 (Liquid); method: Vibrating tube method
Temperature, K	Solvent: Molality, mol/kg of tetraethylammonium iodide	Molality, mol/kg of (S)-2-aminopropanoic acid	Mass density, kg/m3	uncertainty
288.15	0.03	0	1002.687	4.001
288.15	0.03	0.02006	1003.265	4.001
288.15	0.03	0.05991	1004.429	4.001
288.15	0.03	0.09985	1005.597	4.001
288.15	0.03	0.13882	1006.735	4.002
288.15	0.03	0.17023	1007.654	4.002
288.15	0.03	0.20009	1008.535	4.003
288.15	0.05	0	1004.108	4.001
288.15	0.05	0.01997	1004.697	4.001
288.15	0.05	0.05969	1005.861	4.001
288.15	0.05	0.10013	1007.032	4.002
288.15	0.05	0.13989	1008.175	4.002
288.15	0.05	0.16999	1009.03	4.002
288.15	0.05	0.19915	1009.852	4.003
288.15	0.1	0	1007.652	4.003
288.15	0.1	0.01981	1008.271	4.003
288.15	0.1	0.06	1009.507	4.003
288.15	0.1	0.10007	1010.724	4.004
288.15	0.1	0.14001	1011.918	4.004
288.15	0.1	0.16973	1012.758	4.004
288.15	0.1	0.19995	1013.598	4.004
288.15	0.15	0	1011.137	4.006
288.15	0.15	0.01999	1011.72	4.006
288.15	0.15	0.0601	1012.889	4.006
288.15	0.15	0.09948	1014.035	4.006
288.15	0.15	0.14012	1015.215	4.007
288.15	0.15	0.17002	1016.082	4.007
288.15	0.15	0.19946	1016.962	4.008
288.15	0.2	0	1014.594	4.01
288.15	0.2	0.01998	1015.169	4.01
288.15	0.2	0.05967	1016.311	4.01
288.15	0.2	0.09995	1017.47	4.01
288.15	0.2	0.14001	1018.623	4.011
288.15	0.2	0.17002	1019.498	4.011
288.15	0.2	0.19992	1020.364	4.012
293.15	0.03	0	1001.77	4.001
293.15	0.03	0.02006	1002.342	4.001
293.15	0.03	0.05991	1003.494	4.001
293.15	0.03	0.09985	1004.648	4.001
293.15	0.03	0.13882	1005.774	4.002
293.15	0.03	0.17023	1006.684	4.002
293.15	0.03	0.20009	1007.567	4.002
293.15	0.05	0	1003.177	4.001
293.15	0.05	0.01997	1003.76	4.001
293.15	0.05	0.05969	1004.911	4.001
293.15	0.05	0.10013	1006.07	4.002
293.15	0.05	0.13989	1007.2	4.002
293.15	0.05	0.16999	1008.047	4.002
293.15	0.05	0.19915	1008.86	4.003
293.15	0.1	0	1006.688	4.003
293.15	0.1	0.01981	1007.301	4.003
293.15	0.1	0.06	1008.527	4.003
293.15	0.1	0.10007	1009.731	4.004
293.15	0.1	0.14001	1010.908	4.004
293.15	0.1	0.16973	1011.664	4.004
293.15	0.1	0.19995	1012.568	4.004
293.15	0.15	0	1010.182	4.006
293.15	0.15	0.01999	1010.748	4.006
293.15	0.15	0.0601	1011.887	4.006
293.15	0.15	0.09948	1013.009	4.006
293.15	0.15	0.14012	1014.176	4.006
293.15	0.15	0.17002	1015.036	4.007
293.15	0.15	0.19946	1015.903	4.007
293.15	0.2	0	1013.565	4.01
293.15	0.2	0.01998	1014.151	4.01
293.15	0.2	0.05967	1015.305	4.01
293.15	0.2	0.09995	1016.456	4.01
293.15	0.2	0.14001	1017.586	4.01
293.15	0.2	0.17002	1018.421	4.011
293.15	0.2	0.19992	1019.253	4.011
298.15	0.03	0	1000.563	4.001
298.15	0.03	0.02006	1001.154	4.001
298.15	0.03	0.05991	1002.317	4.001
298.15	0.03	0.09985	1003.462	4.001
298.15	0.03	0.13882	1004.557	4.002
298.15	0.03	0.17023	1005.419	4.002
298.15	0.03	0.20009	1006.225	4.002
298.15	0.05	0	1001.987	4.001
298.15	0.05	0.01997	1002.561	4.001
298.15	0.05	0.05969	1003.697	4.001
298.15	0.05	0.10013	1004.844	4.002
298.15	0.05	0.13989	1005.962	4.002
298.15	0.05	0.16999	1006.797	4.002
298.15	0.05	0.19915	1007.608	4.003
298.15	0.1	0	1005.466	4.003
298.15	0.1	0.01981	1006.074	4.003
298.15	0.1	0.06	1007.287	4.003
298.15	0.1	0.10007	1008.482	4.003
298.15	0.1	0.14001	1009.648	4.004
298.15	0.1	0.16973	1010.466	4.004
298.15	0.1	0.19995	1011.291	4.004
298.15	0.15	0	1008.927	4.006
298.15	0.15	0.01999	1009.488	4.006
298.15	0.15	0.0601	1010.618	4.006
298.15	0.15	0.09948	1011.732	4.006
298.15	0.15	0.14012	1012.882	4.006
298.15	0.15	0.17002	1013.741	4.007
298.15	0.15	0.19946	1014.601	4.007
298.15	0.2	0	1012.282	4.009
298.15	0.2	0.01998	1012.869	4.01
298.15	0.2	0.05967	1014.022	4.01
298.15	0.2	0.09995	1015.173	4.01
298.15	0.2	0.14001	1016.295	4.01
298.15	0.2	0.17002	1017.1	4.011
298.15	0.2	0.19992	1017.921	4.01
303.15	0.03	0	999.141	4.001
303.15	0.03	0.02006	999.724	4.001
303.15	0.03	0.05991	1000.872	4.001
303.15	0.03	0.09985	1002.004	4.001
303.15	0.03	0.13882	1003.096	4.002
303.15	0.03	0.17023	1003.958	4.002
303.15	0.03	0.20009	1004.757	4.002
303.15	0.05	0	1000.561	4.001
303.15	0.05	0.01997	1001.135	4.001
303.15	0.05	0.05969	1002.266	4.001
303.15	0.05	0.10013	1003.4	4.002
303.15	0.05	0.13989	1004.497	4.002
303.15	0.05	0.16999	1005.316	4.002
303.15	0.05	0.19915	1006.103	4.003
303.15	0.1	0	1004	4.003
303.15	0.1	0.01981	1004.603	4.003
303.15	0.1	0.06	1005.809	4.003
303.15	0.1	0.10007	1006.993	4.003
303.15	0.1	0.14001	1008.151	4.004
303.15	0.1	0.16973	1008.973	4.004
303.15	0.1	0.19995	1009.786	4.004
303.15	0.15	0	1007.411	4.006
303.15	0.15	0.01999	1007.971	4.006
303.15	0.15	0.0601	1009.105	4.006
303.15	0.15	0.09948	1010.229	4.006
303.15	0.15	0.14012	1011.374	4.006
303.15	0.15	0.17002	1012.223	4.007
303.15	0.15	0.19946	1013.078	4.007
303.15	0.2	0	1010.762	4.009
303.15	0.2	0.01998	1011.353	4.01
303.15	0.2	0.05967	1012.51	4.01
303.15	0.2	0.09995	1013.654	4.01
303.15	0.2	0.14001	1014.768	4.01
303.15	0.2	0.17002	1015.557	4.01
303.15	0.2	0.19992	1016.371	4.01
308.15	0.03	0	997.537	4.001
308.15	0.03	0.02006	998.116	4.001
308.15	0.03	0.05991	999.255	4.001
308.15	0.03	0.09985	1000.379	4.001
308.15	0.03	0.13882	1001.461	4.002
308.15	0.03	0.17023	1002.307	4.002
308.15	0.03	0.20009	1003.102	4.002
308.15	0.05	0	998.922	4.001
308.15	0.05	0.01997	999.489	4.001
308.15	0.05	0.05969	1000.608	4.001
308.15	0.05	0.10013	1001.738	4.002
308.15	0.05	0.13989	1002.839	4.002
308.15	0.05	0.16999	1003.664	4.002
308.15	0.05	0.19915	1004.455	4.003
308.15	0.1	0	1002.334	4.003
308.15	0.1	0.01981	1002.932	4.003
308.15	0.1	0.06	1004.127	4.003
308.15	0.1	0.10007	1005.308	4.003
308.15	0.1	0.14001	1006.471	4.004
308.15	0.1	0.16973	1007.27	4.004
308.15	0.1	0.19995	1008.073	4.004
308.15	0.15	0	1005.757	4.006
308.15	0.15	0.01999	1006.31	4.006
308.15	0.15	0.0601	1007.424	4.006
308.15	0.15	0.09948	1008.521	4.006
308.15	0.15	0.14012	1009.655	4.006
308.15	0.15	0.17002	1010.497	4.007
308.15	0.15	0.19946	1011.35	4.007
308.15	0.2	0	1009.04	4.009
308.15	0.2	0.01998	1009.63	4.009
308.15	0.2	0.05967	1010.783	4.01
308.15	0.2	0.09995	1011.939	4.01
308.15	0.2	0.14001	1013.035	4.01
308.15	0.2	0.17002	1013.809	4.01
308.15	0.2	0.19992	1014.608	4.011

System: (S)-2-aminopropanoic acid + tetraethylammonium iodide + water; phases: Liquid
Fixed: Pressure, kPa = 100
Fixed: Frequency, MHz = 3
Property: Speed of sound, m/s (Liquid); method: Sing-around technique in a fixed-path interferometer
Temperature, K	Solvent: Molality, mol/kg of tetraethylammonium iodide	Molality, mol/kg of (S)-2-aminopropanoic acid	Speed of sound, m/s	uncertainty
288.15	0.03	0	1469.27	1.29
288.15	0.03	0.02006	1470.7	1.29
288.15	0.03	0.05991	1473.49	1.3
288.15	0.03	0.09985	1476.31	1.3
288.15	0.03	0.13882	1479.08	1.31
288.15	0.03	0.17023	1481.17	1.32
288.15	0.03	0.20009	1483.21	1.32
288.15	0.05	0	1470.99	1.29
288.15	0.05	0.01997	1472.44	1.3
288.15	0.05	0.05969	1475.26	1.3
288.15	0.05	0.10013	1478.09	1.3
288.15	0.05	0.13989	1480.78	1.31
288.15	0.05	0.16999	1482.96	1.32
288.15	0.05	0.19915	1485.12	1.33
288.15	0.1	0	1475.39	1.3
288.15	0.1	0.01981	1476.87	1.3
288.15	0.1	0.06	1479.87	1.31
288.15	0.1	0.10007	1482.53	1.31
288.15	0.1	0.14001	1485.5	1.32
288.15	0.1	0.16973	1487.53	1.33
288.15	0.1	0.19995	1489.64	1.33
288.15	0.15	0	1479.45	1.32
288.15	0.15	0.01999	1480.98	1.32
288.15	0.15	0.0601	1484.03	1.32
288.15	0.15	0.09948	1486.8	1.33
288.15	0.15	0.14012	1489.64	1.33
288.15	0.15	0.17002	1491.73	1.34
288.15	0.15	0.19946	1493.83	1.35
288.15	0.2	0	1483.73	1.34
288.15	0.2	0.01998	1485.22	1.34
288.15	0.2	0.05967	1488.05	1.34
288.15	0.2	0.09995	1490.82	1.34
288.15	0.2	0.14001	1493.67	1.35
288.15	0.2	0.17002	1495.78	1.36
288.15	0.2	0.19992	1497.87	1.36
293.15	0.03	0	1485.17	1.3
293.15	0.03	0.02006	1486.55	1.3
293.15	0.03	0.05991	1489.23	1.3
293.15	0.03	0.09985	1491.94	1.3
293.15	0.03	0.13882	1494.6	1.31
293.15	0.03	0.17023	1496.63	1.32
293.15	0.03	0.20009	1498.59	1.31
293.15	0.05	0	1486.68	1.3
293.15	0.05	0.01997	1488.08	1.3
293.15	0.05	0.05969	1490.79	1.3
293.15	0.05	0.10013	1493.52	1.31
293.15	0.05	0.13989	1496.11	1.31
293.15	0.05	0.16999	1498.21	1.32
293.15	0.05	0.19915	1500.29	1.32
293.15	0.1	0	1490.62	1.3
293.15	0.1	0.01981	1492.05	1.3
293.15	0.1	0.06	1494.91	1.31
293.15	0.1	0.10007	1497.47	1.31
293.15	0.1	0.14001	1500.33	1.32
293.15	0.1	0.16973	1502.29	1.33
293.15	0.1	0.19995	1504.33	1.32
293.15	0.15	0	1494.37	1.32
293.15	0.15	0.01999	1495.74	1.31
293.15	0.15	0.0601	1498.5	1.32
293.15	0.15	0.09948	1501.17	1.32
293.15	0.15	0.14012	1503.91	1.33
293.15	0.15	0.17002	1505.89	1.34
293.15	0.15	0.19946	1507.94	1.34
293.15	0.2	0	1498.06	1.32
293.15	0.2	0.01998	1499.32	1.32
293.15	0.2	0.05967	1501.85	1.32
293.15	0.2	0.09995	1504.56	1.33
293.15	0.2	0.14001	1507.51	1.34
293.15	0.2	0.17002	1509.34	1.35
293.15	0.2	0.19992	1511.66	1.34
298.15	0.03	0	1499.19	1.3
298.15	0.03	0.02006	1500.44	1.3
298.15	0.03	0.05991	1503.02	1.3
298.15	0.03	0.09985	1505.64	1.31
298.15	0.03	0.13882	1508.2	1.31
298.15	0.03	0.17023	1510.16	1.32
298.15	0.03	0.20009	1512.04	1.31
298.15	0.05	0	1500.44	1.3
298.15	0.05	0.01997	1501.85	1.3
298.15	0.05	0.05969	1504.48	1.3
298.15	0.05	0.10013	1507.07	1.31
298.15	0.05	0.13989	1509.54	1.31
298.15	0.05	0.16999	1511.61	1.32
298.15	0.05	0.19915	1513.56	1.32
298.15	0.1	0	1503.96	1.3
298.15	0.1	0.01981	1505.34	1.3
298.15	0.1	0.06	1508.13	1.31
298.15	0.1	0.10007	1510.54	1.31
298.15	0.1	0.14001	1513.29	1.32
298.15	0.1	0.16973	1515.17	1.32
298.15	0.1	0.19995	1517.16	1.32
298.15	0.15	0	1507.3	1.31
298.15	0.15	0.01999	1508.58	1.31
298.15	0.15	0.0601	1511.22	1.31
298.15	0.15	0.09948	1513.8	1.32
298.15	0.15	0.14012	1516.44	1.32
298.15	0.15	0.17002	1518.37	1.33
298.15	0.15	0.19946	1520.32	1.33
298.15	0.2	0	1510.58	1.32
298.15	0.2	0.01998	1511.76	1.32
298.15	0.2	0.05967	1514.19	1.32
298.15	0.2	0.09995	1516.79	1.32
298.15	0.2	0.14001	1519.45	1.33
298.15	0.2	0.17002	1521.39	1.34
298.15	0.2	0.19992	1523.69	1.34
303.15	0.03	0	1511.27	1.3
303.15	0.03	0.02006	1512.47	1.3
303.15	0.03	0.05991	1515.13	1.3
303.15	0.03	0.09985	1517.52	1.31
303.15	0.03	0.13882	1519.96	1.31
303.15	0.03	0.17023	1521.86	1.32
303.15	0.03	0.20009	1523.67	1.31
303.15	0.05	0	1512.34	1.3
303.15	0.05	0.01997	1513.74	1.3
303.15	0.05	0.05969	1516.26	1.3
303.15	0.05	0.10013	1518.73	1.31
303.15	0.05	0.13989	1521.07	1.31
303.15	0.05	0.16999	1523.19	1.32
303.15	0.05	0.19915	1525.05	1.32
303.15	0.1	0	1515.48	1.31
303.15	0.1	0.01981	1516.87	1.31
303.15	0.1	0.06	1519.64	1.31
303.15	0.1	0.10007	1521.81	1.31
303.15	0.1	0.14001	1524.45	1.32
303.15	0.1	0.16973	1526.25	1.32
303.15	0.1	0.19995	1528.21	1.32
303.15	0.15	0	1518.48	1.31
303.15	0.15	0.01999	1519.69	1.31
303.15	0.15	0.0601	1522.24	1.31
303.15	0.15	0.09948	1524.69	1.32
303.15	0.15	0.14012	1527.29	1.32
303.15	0.15	0.17002	1529.16	1.33
303.15	0.15	0.19946	1531.04	1.33
303.15	0.2	0	1521.37	1.31
303.15	0.2	0.01998	1522.52	1.32
303.15	0.2	0.05967	1524.87	1.32
303.15	0.2	0.09995	1527.38	1.32
303.15	0.2	0.14001	1529.93	1.33
303.15	0.2	0.17002	1531.82	1.34
303.15	0.2	0.19992	1534.04	1.34
308.15	0.03	0	1521.35	1.3
308.15	0.03	0.02006	1522.7	1.3
308.15	0.03	0.05991	1525.24	1.3
308.15	0.03	0.09985	1527.43	1.31
308.15	0.03	0.13882	1529.83	1.31
308.15	0.03	0.17023	1531.67	1.32
308.15	0.03	0.20009	1533.42	1.32
308.15	0.05	0	1522.38	1.3
308.15	0.05	0.01997	1523.65	1.3
308.15	0.05	0.05969	1526.11	1.3
308.15	0.05	0.10013	1528.55	1.31
308.15	0.05	0.13989	1530.7	1.31
308.15	0.05	0.16999	1532.79	1.32
308.15	0.05	0.19915	1534.6	1.33
308.15	0.1	0	1525.28	1.31
308.15	0.1	0.01981	1526.71	1.31
308.15	0.1	0.06	1529.32	1.31
308.15	0.1	0.10007	1531.29	1.31
308.15	0.1	0.14001	1533.84	1.32
308.15	0.1	0.16973	1535.45	1.32
308.15	0.1	0.19995	1537.61	1.34
308.15	0.15	0	1527.86	1.31
308.15	0.15	0.01999	1529.2	1.31
308.15	0.15	0.0601	1531.66	1.31
308.15	0.15	0.09948	1534.08	1.32
308.15	0.15	0.14012	1536.55	1.32
308.15	0.15	0.17002	1538.37	1.33
308.15	0.15	0.19946	1540.19	1.34
308.15	0.2	0	1530.49	1.32
308.15	0.2	0.01998	1531.52	1.32
308.15	0.2	0.05967	1533.97	1.32
308.15	0.2	0.09995	1536.41	1.32
308.15	0.2	0.14001	1538.87	1.33
308.15	0.2	0.17002	1540.71	1.34
308.15	0.2	0.19992	1542.79	1.35

System: tetraethylammonium iodide + L-valine + water; phases: Liquid
Fixed: Pressure, kPa = 100
Property: Mass density, kg/m3 (Liquid); method: Vibrating tube method
Temperature, K	Solvent: Molality, mol/kg of tetraethylammonium iodide	Molality, mol/kg of L-valine	Mass density, kg/m3	uncertainty
288.15	0.03	0	1002.687	4.001
288.15	0.03	0.01981	1003.231	4.001
288.15	0.03	0.05999	1004.319	4.001
288.15	0.03	0.10009	1005.388	4.001
288.15	0.03	0.14011	1006.438	4.002
288.15	0.03	0.17021	1007.218	4.002
288.15	0.03	0.19999	1007.974	4.002
288.15	0.05	0	1004.108	4.001
288.15	0.05	0.01999	1004.659	4.001
288.15	0.05	0.05977	1005.741	4.001
288.15	0.05	0.10015	1006.823	4.002
288.15	0.05	0.1398	1007.861	4.002
288.15	0.05	0.16844	1008.593	4.002
288.15	0.05	0.19951	1009.383	4.003
288.15	0.1	0	1007.652	4.003
288.15	0.1	0.02	1008.233	4.003
288.15	0.1	0.06004	1009.377	4.003
288.15	0.1	0.10002	1010.495	4.004
288.15	0.1	0.13992	1011.579	4.004
288.15	0.1	0.17005	1012.367	4.004
288.15	0.1	0.20005	1013.132	4.004
288.15	0.15	0	1011.137	4.006
288.15	0.15	0.01998	1011.709	4.006
288.15	0.15	0.06	1012.831	4.006
288.15	0.15	0.10009	1013.91	4.006
288.15	0.15	0.13996	1014.937	4.006
288.15	0.15	0.1698	1015.719	4.007
288.15	0.15	0.20011	1016.474	4.007
288.15	0.2	0	1014.594	4.01
288.15	0.2	0.02001	1015.141	4.01
288.15	0.2	0.06003	1016.229	4.01
288.15	0.2	0.09991	1017.286	4.01
288.15	0.2	0.1398	1018.311	4.01
288.15	0.2	0.16988	1019.066	4.011
288.15	0.2	0.2002	1019.813	4.011
293.15	0.03	0	1001.77	4.001
293.15	0.03	0.01981	1002.309	4.001
293.15	0.03	0.05999	1003.389	4.001
293.15	0.03	0.10009	1004.445	4.001
293.15	0.03	0.14011	1005.479	4.001
293.15	0.03	0.17021	1006.245	4.002
293.15	0.03	0.19999	1006.982	4.002
293.15	0.05	0	1003.177	4.001
293.15	0.05	0.01999	1003.725	4.001
293.15	0.05	0.05977	1004.798	4.001
293.15	0.05	0.10015	1005.862	4.002
293.15	0.05	0.1398	1006.889	4.002
293.15	0.05	0.16844	1007.605	4.002
293.15	0.05	0.19951	1008.381	4.002
293.15	0.1	0	1006.688	4.003
293.15	0.1	0.02	1007.262	4.003
293.15	0.1	0.06004	1008.394	4.003
293.15	0.1	0.10002	1009.499	4.003
293.15	0.1	0.13992	1010.566	4.004
293.15	0.1	0.17005	1011.343	4.004
293.15	0.1	0.20005	1012.099	4.004
293.15	0.15	0	1010.182	4.006
293.15	0.15	0.01998	1010.731	4.006
293.15	0.15	0.06	1011.814	4.006
293.15	0.15	0.10009	1012.879	4.006
293.15	0.15	0.13996	1013.916	4.006
293.15	0.15	0.1698	1014.673	4.007
293.15	0.15	0.20011	1015.422	4.007
293.15	0.2	0	1013.565	4.009
293.15	0.2	0.02001	1014.111	4.01
293.15	0.2	0.06003	1015.185	4.01
293.15	0.2	0.09991	1016.228	4.01
293.15	0.2	0.1398	1017.242	4.01
293.15	0.2	0.16988	1017.998	4.01
293.15	0.2	0.2002	1018.741	4.01
298.15	0.03	0	1000.563	4.001
298.15	0.03	0.01981	1001.101	4.001
298.15	0.03	0.05999	1002.176	4.001
298.15	0.03	0.10009	1003.229	4.001
298.15	0.03	0.14011	1004.255	4.001
298.15	0.03	0.17021	1005.007	4.002
298.15	0.03	0.19999	1005.747	4.002
298.15	0.05	0	1001.987	4.001
298.15	0.05	0.01999	1002.527	4.001
298.15	0.05	0.05977	1003.586	4.001
298.15	0.05	0.10015	1004.637	4.002
298.15	0.05	0.1398	1005.627	4.002
298.15	0.05	0.16844	1006.328	4.002
298.15	0.05	0.19951	1007.073	4.002
298.15	0.1	0	1005.466	4.003
298.15	0.1	0.02	1006.035	4.003
298.15	0.1	0.06004	1007.153	4.003
298.15	0.1	0.10002	1008.246	4.003
298.15	0.1	0.13992	1009.302	4.004
298.15	0.1	0.17005	1010.069	4.004
298.15	0.1	0.20005	1010.818	4.004
298.15	0.15	0	1008.927	4.006
298.15	0.15	0.01998	1009.472	4.006
298.15	0.15	0.06	1010.546	4.006
298.15	0.15	0.10009	1011.598	4.006
298.15	0.15	0.13996	1012.627	4.006
298.15	0.15	0.1698	1013.373	4.006
298.15	0.15	0.20011	1014.109	4.007
298.15	0.2	0	1012.282	4.009
298.15	0.2	0.02001	1012.824	4.009
298.15	0.2	0.06003	1013.889	4.009
298.15	0.2	0.09991	1014.921	4.01
298.15	0.2	0.1398	1015.924	4.01
298.15	0.2	0.16988	1016.675	4.01
298.15	0.2	0.2002	1017.402	4.01
303.15	0.03	0	999.141	4.001
303.15	0.03	0.01981	999.675	4.001
303.15	0.03	0.05999	1000.741	4.001
303.15	0.03	0.10009	1001.775	4.001
303.15	0.03	0.14011	1002.77	4.001
303.15	0.03	0.17021	1003.519	4.002
303.15	0.03	0.19999	1004.238	4.002
303.15	0.05	0	1000.561	4.001
303.15	0.05	0.01999	1001.085	4.001
303.15	0.05	0.05977	1002.109	4.001
303.15	0.05	0.10015	1003.116	4.002
303.15	0.05	0.1398	1004.086	4.002
303.15	0.05	0.16844	1004.774	4.002
303.15	0.05	0.19951	1005.507	4.003
303.15	0.1	0	1004	4.003
303.15	0.1	0.02	1004.563	4.003
303.15	0.1	0.06004	1005.669	4.003
303.15	0.1	0.10002	1006.754	4.003
303.15	0.1	0.13992	1007.812	4.004
303.15	0.1	0.17005	1008.576	4.004
303.15	0.1	0.20005	1009.313	4.004
303.15	0.15	0	1007.411	4.006
303.15	0.15	0.01998	1007.96	4.006
303.15	0.15	0.06	1009.049	4.006
303.15	0.15	0.10009	1010.093	4.006
303.15	0.15	0.13996	1011.131	4.006
303.15	0.15	0.1698	1011.849	4.006
303.15	0.15	0.20011	1012.608	4.007
303.15	0.2	0	1010.762	4.009
303.15	0.2	0.02001	1011.302	4.009
303.15	0.2	0.06003	1012.366	4.009
303.15	0.2	0.09991	1013.388	4.009
303.15	0.2	0.1398	1014.38	4.009
303.15	0.2	0.16988	1015.112	4.01
303.15	0.2	0.2002	1015.843	4.01
308.15	0.03	0	997.537	4.001
308.15	0.03	0.01981	998.061	4.001
308.15	0.03	0.05999	999.103	4.001
308.15	0.03	0.10009	1000.128	4.001
308.15	0.03	0.14011	1001.135	4.001
308.15	0.03	0.17021	1001.876	4.002
308.15	0.03	0.19999	1002.592	4.002
308.15	0.05	0	998.922	4.001
308.15	0.05	0.01999	999.447	4.001
308.15	0.05	0.05977	1000.469	4.001
308.15	0.05	0.10015	1001.513	4.002
308.15	0.05	0.1398	1002.4	4.002
308.15	0.05	0.16844	1003.192	4.002
308.15	0.05	0.19951	1004.035	4.003
308.15	0.1	0	1002.334	4.003
308.15	0.1	0.02	1002.892	4.003
308.15	0.1	0.06004	1003.991	4.003
308.15	0.1	0.10002	1005.063	4.003
308.15	0.1	0.13992	1006.109	4.004
308.15	0.1	0.17005	1006.865	4.004
308.15	0.1	0.20005	1007.6	4.004
308.15	0.15	0	1005.757	4.006
308.15	0.15	0.01998	1006.291	4.006
308.15	0.15	0.06	1007.341	4.006
308.15	0.15	0.10009	1008.377	4.006
308.15	0.15	0.13996	1009.363	4.006
308.15	0.15	0.1698	1010.118	4.006
308.15	0.15	0.20011	1010.857	4.006
308.15	0.2	0	1009.04	4.009
308.15	0.2	0.02001	1009.579	4.009
308.15	0.2	0.06003	1010.637	4.009
308.15	0.2	0.09991	1011.648	4.009
308.15	0.2	0.1398	1012.632	4.01
308.15	0.2	0.16988	1013.351	4.01
308.15	0.2	0.2002	1014.061	4.01

System: tetraethylammonium iodide + L-valine + water; phases: Liquid
Fixed: Pressure, kPa = 100
Fixed: Frequency, MHz = 3
Property: Speed of sound, m/s (Liquid); method: Sing-around technique in a fixed-path interferometer
Temperature, K	Solvent: Molality, mol/kg of tetraethylammonium iodide	Molality, mol/kg of L-valine	Speed of sound, m/s	uncertainty
288.15	0.03	0	1469.27	1.29
288.15	0.03	0.01981	1471.36	1.29
288.15	0.03	0.05999	1475.62	1.3
288.15	0.03	0.10009	1479.94	1.31
288.15	0.03	0.14011	1484.14	1.33
288.15	0.03	0.17021	1487.26	1.34
288.15	0.03	0.19999	1490.34	1.36
288.15	0.05	0	1470.99	1.29
288.15	0.05	0.01999	1473.3	1.3
288.15	0.05	0.05977	1478.02	1.3
288.15	0.05	0.10015	1481.75	1.31
288.15	0.05	0.1398	1485.7	1.33
288.15	0.05	0.16844	1488.8	1.35
288.15	0.05	0.19951	1492.02	1.37
288.15	0.1	0	1475.39	1.3
288.15	0.1	0.02	1477.67	1.3
288.15	0.1	0.06004	1482.16	1.31
288.15	0.1	0.10002	1486.35	1.32
288.15	0.1	0.13992	1490.53	1.34
288.15	0.1	0.17005	1493.76	1.36
288.15	0.1	0.20005	1496.78	1.36
288.15	0.15	0	1479.45	1.32
288.15	0.15	0.01998	1481.72	1.32
288.15	0.15	0.06	1486.24	1.32
288.15	0.15	0.10009	1490.46	1.33
288.15	0.15	0.13996	1494.58	1.35
288.15	0.15	0.1698	1497.87	1.36
288.15	0.15	0.20011	1500.59	1.38
288.15	0.2	0	1483.73	1.34
288.15	0.2	0.02001	1485.81	1.34
288.15	0.2	0.06003	1490.23	1.34
288.15	0.2	0.09991	1494.49	1.35
288.15	0.2	0.1398	1498.65	1.37
288.15	0.2	0.16988	1501.89	1.38
288.15	0.2	0.2002	1505.08	1.41
293.15	0.03	0	1485.17	1.3
293.15	0.03	0.01981	1487.15	1.3
293.15	0.03	0.05999	1491.19	1.3
293.15	0.03	0.10009	1495.31	1.31
293.15	0.03	0.14011	1499.33	1.33
293.15	0.03	0.17021	1502.3	1.34
293.15	0.03	0.19999	1505.24	1.34
293.15	0.05	0	1486.68	1.3
293.15	0.05	0.01999	1488.89	1.3
293.15	0.05	0.05977	1493.42	1.3
293.15	0.05	0.10015	1496.95	1.31
293.15	0.05	0.1398	1500.7	1.33
293.15	0.05	0.16844	1503.66	1.34
293.15	0.05	0.19951	1506.75	1.35
293.15	0.1	0	1490.62	1.3
293.15	0.1	0.02	1492.92	1.31
293.15	0.1	0.06004	1497.05	1.31
293.15	0.1	0.10002	1501.06	1.32
293.15	0.1	0.13992	1505.05	1.33
293.15	0.1	0.17005	1507.6	1.35
293.15	0.1	0.20005	1511	1.36
293.15	0.15	0	1494.37	1.32
293.15	0.15	0.01998	1496.48	1.31
293.15	0.15	0.06	1500.56	1.32
293.15	0.15	0.10009	1504.35	1.33
293.15	0.15	0.13996	1508.66	1.34
293.15	0.15	0.1698	1511.35	1.35
293.15	0.15	0.20011	1514.07	1.36
293.15	0.2	0	1498.06	1.32
293.15	0.2	0.02001	1500.01	1.32
293.15	0.2	0.06003	1503.95	1.33
293.15	0.2	0.09991	1508	1.34
293.15	0.2	0.1398	1511.93	1.35
293.15	0.2	0.16988	1514.97	1.37
293.15	0.2	0.2002	1518.1	1.38
298.15	0.03	0	1499.19	1.3
298.15	0.03	0.01981	1501	1.3
298.15	0.03	0.05999	1504.87	1.3
298.15	0.03	0.10009	1508.78	1.31
298.15	0.03	0.14011	1512.61	1.33
298.15	0.03	0.17021	1515.47	1.34
298.15	0.03	0.19999	1518.24	1.33
298.15	0.05	0	1500.44	1.3
298.15	0.05	0.01999	1502.54	1.3
298.15	0.05	0.05977	1506.94	1.31
298.15	0.05	0.10015	1510.26	1.31
298.15	0.05	0.1398	1513.81	1.33
298.15	0.05	0.16844	1516.79	1.34
298.15	0.05	0.19951	1519.62	1.34
298.15	0.1	0	1503.96	1.3
298.15	0.1	0.02	1506.13	1.31
298.15	0.1	0.06004	1510.08	1.31
298.15	0.1	0.10002	1513.91	1.32
298.15	0.1	0.13992	1517.7	1.33
298.15	0.1	0.17005	1520.06	1.35
298.15	0.1	0.20005	1523.38	1.36
298.15	0.15	0.01998	1509.27	1.31
298.15	0.15	0.06	1513.16	1.32
298.15	0.15	0.10009	1516.79	1.33
298.15	0.15	0.13996	1520.91	1.34
298.15	0.15	0	1507.3	1.31
298.15	0.15	0.1698	1523.42	1.35
298.15	0.15	0.20011	1526.02	1.35
298.15	0.2	0.09991	1520	1.33
298.15	0.2	0.02001	1512.41	1.32
298.15	0.2	0.1398	1523.77	1.34
298.15	0.2	0.16988	1526.71	1.36
298.15	0.2	0.2002	1529.64	1.36
298.15	0.2	0.06003	1516.14	1.32
298.15	0.2	0	1510.58	1.32
303.15	0.05	0.05977	1518.62	1.31
303.15	0.05	0.10015	1521.79	1.31
303.15	0.1	0	1515.48	1.31
303.15	0.1	0.02	1517.51	1.31
303.15	0.1	0.06004	1521.33	1.31
303.15	0.15	0	1518.48	1.31
303.15	0.15	0.01998	1520.35	1.31
303.15	0.15	0.06	1524.05	1.32
303.15	0.03	0	1511.27	1.3
303.15	0.03	0.01981	1513.02	1.3
303.15	0.03	0.14011	1524.25	1.33
303.15	0.1	0.10002	1524.96	1.32
303.15	0.03	0.17021	1526.83	1.34
303.15	0.03	0.19999	1529.47	1.33
303.15	0.03	0.05999	1516.68	1.31
303.15	0.15	0.10009	1527.5	1.32
303.15	0.15	0.13996	1531.43	1.34
303.15	0.15	0.1698	1533.87	1.34
303.15	0.15	0.20011	1536.34	1.35
303.15	0.03	0.10009	1520.43	1.31
303.15	0.05	0	1512.34	1.3
303.15	0.05	0.01999	1514.35	1.3
303.15	0.05	0.1398	1524.61	1.33
303.15	0.05	0.16844	1527.98	1.35
303.15	0.05	0.19951	1530.65	1.34
303.15	0.1	0.13992	1528.61	1.33
303.15	0.1	0.17005	1530.88	1.34
303.15	0.1	0.20005	1534.03	1.35
303.15	0.2	0.06003	1526.68	1.32
303.15	0.2	0.09991	1530.38	1.33
303.15	0.2	0.1398	1533.99	1.34
303.15	0.2	0.16988	1536.8	1.36
303.15	0.2	0.2002	1539.59	1.36
303.15	0.2	0	1521.37	1.31
303.15	0.2	0.02001	1523.12	1.32
308.15	0.03	0.01981	1523.08	1.3
308.15	0.05	0	1522.38	1.3
308.15	0.03	0.05999	1526.6	1.31
308.15	0.03	0.10009	1530.18	1.31
308.15	0.03	0.14011	1533.81	1.33
308.15	0.03	0.17021	1536.21	1.33
308.15	0.03	0.19999	1538.84	1.35
308.15	0.05	0.01999	1524.24	1.3
308.15	0.03	0	1521.35	1.3
308.15	0.05	0.05977	1527.81	1.31
308.15	0.05	0.10015	1531.4	1.31
308.15	0.05	0.1398	1534.66	1.33
308.15	0.05	0.16844	1537.31	1.34
308.15	0.05	0.19951	1539.87	1.35
308.15	0.1	0	1525.28	1.31
308.15	0.1	0.02	1526.99	1.31
308.15	0.1	0.06004	1530.88	1.31
308.15	0.1	0.10002	1534.32	1.32
308.15	0.1	0.13992	1537.84	1.33
308.15	0.15	0	1527.86	1.31
308.15	0.15	0.01998	1529.78	1.31
308.15	0.15	0.06	1533.36	1.31
308.15	0.15	0.10009	1536.66	1.32
308.15	0.15	0.13996	1540.2	1.33
308.15	0.1	0.17005	1540.13	1.34
308.15	0.15	0.1698	1542.77	1.34
308.15	0.15	0.20011	1545.13	1.36
308.15	0.1	0.20005	1543.07	1.35
308.15	0.2	0	1530.49	1.32
308.15	0.2	0.02001	1532.21	1.32
308.15	0.2	0.06003	1535.67	1.32
308.15	0.2	0.09991	1539.2	1.33
308.15	0.2	0.1398	1542.67	1.34
308.15	0.2	0.16988	1545.36	1.35
308.15	0.2	0.2002	1548.03	1.37

System: tetraethylammonium iodide + water; phases: Liquid
Fixed: Pressure, kPa = 100
Property: Mass density, kg/m3 (Liquid); method: Vibrating tube method
Temperature, K	Molality, mol/kg of tetraethylammonium iodide	Mass density, kg/m3	uncertainty
288.15	0.03	1002.687	4
293.15	0.03	1001.77	4
298.15	0.03	1000.563	4
303.15	0.03	999.141	4
308.15	0.03	997.537	4
288.15	0.05	1004.108	4.001
293.15	0.05	1003.177	4.001
298.15	0.05	1001.987	4.001
303.15	0.05	1000.561	4.001
308.15	0.05	998.922	4.001
288.15	0.1	1007.652	4.003
293.15	0.1	1006.688	4.003
298.15	0.1	1005.466	4.003
303.15	0.1	1004	4.003
308.15	0.1	1002.334	4.003
288.15	0.15	1011.137	4.006
293.15	0.15	1010.182	4.006
298.15	0.15	1008.927	4.005
303.15	0.15	1007.411	4.005
308.15	0.15	1005.757	4.005
288.15	0.2	1014.594	4.01
293.15	0.2	1013.565	4.009
298.15	0.2	1012.282	4.009
303.15	0.2	1010.762	4.009
308.15	0.2	1009.04	4.009

System: tetraethylammonium iodide + water; phases: Liquid
Fixed: Pressure, kPa = 100
Fixed: Frequency, MHz = 3
Property: Speed of sound, m/s (Liquid); method: Sing-around technique in a fixed-path interferometer
Temperature, K	Molality, mol/kg of tetraethylammonium iodide	Speed of sound, m/s	uncertainty
288.15	0.03	1469.27	1.29
288.15	0.05	1470.99	1.29
288.15	0.1	1475.39	1.3
288.15	0.15	1479.45	1.32
288.15	0.2	1483.73	1.34
293.15	0.03	1485.17	1.3
293.15	0.05	1486.68	1.3
293.15	0.1	1490.62	1.3
293.15	0.15	1494.37	1.32
293.15	0.2	1498.06	1.32
298.15	0.03	1499.19	1.3
298.15	0.05	1500.44	1.3
298.15	0.1	1503.96	1.3
298.15	0.15	1507.3	1.31
298.15	0.2	1510.58	1.32
303.15	0.03	1511.27	1.3
303.15	0.05	1512.34	1.3
303.15	0.1	1515.48	1.31
303.15	0.15	1518.48	1.31
303.15	0.2	1521.37	1.31
308.15	0.03	1521.35	1.3
308.15	0.05	1522.38	1.3
308.15	0.1	1525.28	1.31
308.15	0.15	1527.86	1.31
308.15	0.2	1530.49	1.32
