Measured thermophysical data. Thermodynamic properties of synthetic turkestanite KNaCaTh(Si8O20)
Source: J. Chem. Thermodyn., 2016, 10.1016/j.jct.2015.08.030
Compound 1: calcium potassium sodium thorium(4+) silicate [KNaCaTh(Si8O20)], CaKNaO20Si8Th, InChI=1S/Ca.K.Na.4O5Si2.Th/c;;;4*1-6(2)5-7(3)4;/q+2;2*+1;4*-2;+4, purity 99.5%

System: calcium potassium sodium thorium(4+) silicate [KNaCaTh(Si8O20)]; phases: Crystal
Fixed: Pressure, kPa = 101.325
Property: Molar heat capacity at constant pressure, J/K/mol (Crystal); method: Vacuum adiabatic calorimetry
Temperature, K	Molar heat capacity at constant pressure, J/K/mol	uncertainty
5	0.2063	0.013
10	1.604	0.067
15	5.526	0.225
20	12.56	0.51
25	22.3	0.24
30	34.32	0.36
35	47.04	0.48
40	60.24	0.62
45	73.78	0.33
50	87.48	0.39
60	114.8	0.5
70	141.5	0.6
80	167.2	0.7
90	192.1	0.8
100	216	0.9
110	239.2	1
120	261.4	1.1
130	282.6	1.2
140	302.6	1.3
150	321.5	1.3
160	339.3	1.4
170	356.3	1.5
180	372.6	1.5
190	388.4	1.6
200	403.8	1.7
210	418.8	1.7
220	433.4	1.8
230	447.3	1.8
240	460.6	1.9
250	473.2	2
260	485.4	2
270	497.3	2.1
273.15	501	2.1
280	509	2.1
290	520.5	2.1
298.15	529.7	2.2
300	531.8	2.2
310	542.7	2.2
320	553.3	2.3
330	563.8	2.3
340	574	2.4
347	579.6	2.4

System: calcium potassium sodium thorium(4+) silicate [KNaCaTh(Si8O20)]; phases: Crystal
Fixed: Pressure, kPa = 101.325
Property: Molar enthalpy, kJ/mol (Crystal); method: Vacuum adiabatic calorimetry
Temperature, K	Molar enthalpy, kJ/mol	uncertainty
5	0.0002579	4.33e-05
10	0.004078	0.000192
15	0.02066	0.00086
20	0.06451	0.00262
25	0.1508	0.0061
30	0.2916	0.0118
35	0.4948	0.0199
40	0.7628	0.0306
45	1.098	0.011
50	1.501	0.016
60	2.513	0.026
70	3.795	0.039
80	5.34	0.054
90	7.137	0.034
100	9.178	0.042
110	11.45	0.05
120	13.96	0.06
130	16.68	0.07
140	19.61	0.09
150	22.73	0.1
160	26.03	0.11
170	29.51	0.13
180	33.16	0.14
190	36.96	0.16
200	40.92	0.17
210	45.04	0.19
220	49.3	0.21
230	53.7	0.23
240	58.24	0.25
250	62.91	0.26
260	67.7	0.28
270	72.62	0.3
273.15	74.19	0.31
280	77.65	0.32
290	82.8	0.35
298.15	87.08	0.36
300	88.06	0.37
310	93.43	0.39
320	98.91	0.41
330	104.5	0.4
340	110.2	0.5
347	114.2	0.5

System: calcium potassium sodium thorium(4+) silicate [KNaCaTh(Si8O20)]; phases: Crystal
Fixed: Pressure, kPa = 101.325
Property: Molar entropy, J/K/mol (Crystal); method: Vacuum adiabatic calorimetry
Temperature, K	Molar entropy, J/K/mol	uncertainty
5	0.0688	0.0125
10	0.5451	0.0362
15	1.833	0.113
20	4.31	0.261
25	8.12	0.49
30	13.22	0.8
35	19.46	1.17
40	26.6	1.6
45	34.47	0.53
50	42.95	0.66
60	61.33	0.94
70	81.04	1.24
80	101.6	1.5
90	122.8	0.8
100	144.3	0.9
110	165.9	1.1
120	187.7	1.2
130	209.5	1.3
140	231.1	1.5
150	252.7	1.6
160	274	1.7
170	295.1	1.8
180	315.9	2
190	336.5	2.1
200	356.8	2.2
210	376.9	2.3
220	396.7	2.5
230	416.3	2.6
240	435.6	2.7
250	454.6	2.8
260	473.4	2.9
270	492	3
273.15	497.8	3.1
280	510.3	3.2
290	528.3	3.3
298.15	542.9	3.4
300	546.2	3.4
310	563.8	3.5
320	581.2	3.6
330	598.4	3.7
340	615.4	3.8
347	627.1	3.9

System: calcium potassium sodium thorium(4+) silicate [KNaCaTh(Si8O20)]; phases: Crystal
Fixed: Pressure, kPa = 101.325
Property: Molar heat capacity at constant pressure, J/K/mol (Crystal); method: Vacuum adiabatic calorimetry
Temperature, K	Molar heat capacity at constant pressure, J/K/mol	uncertainty
5.94	0.3474	0.0172
6.18	0.3993	0.0191
6.36	0.4372	0.0205
6.53	0.4635	0.0215
6.7	0.501	0.0229
6.86	0.5463	0.0246
7.02	0.5672	0.0255
7.18	0.617	0.0274
7.33	0.6441	0.0284
7.49	0.6881	0.0301
7.65	0.7363	0.0321
7.8	0.7816	0.0338
7.95	0.8276	0.0357
8.11	0.8743	0.0375
8.26	0.9145	0.0392
8.41	0.9687	0.0413
8.55	1.009	0.043
8.7	1.072	0.045
8.86	1.116	0.047
9.01	1.193	0.05
9.16	1.233	0.052
9.31	1.323	0.056
9.46	1.34	0.056
9.61	1.42	0.059
9.76	1.467	0.061
9.91	1.544	0.064
10.06	1.636	0.068
10.49	1.868	0.078
11.2	2.281	0.094
11.92	2.767	0.113
12.67	3.288	0.134
13.43	3.94	0.161
14.2	4.671	0.19
15.01	5.538	0.225
15.83	6.482	0.263
16.67	7.504	0.304
17.52	8.698	0.352
18.38	9.977	0.403
19.27	11.34	0.46
20.17	12.78	0.14
21.57	15.42	0.17
23.54	19.2	0.21
25.57	23.5	0.25
27.65	28.52	0.3
29.79	33.77	0.35
31.98	39.32	0.41
34.2	45.01	0.46
36.47	50.88	0.52
38.76	56.96	0.58
41.09	63.11	0.28
43.44	69.5	0.31
45.82	76.11	0.34
48.21	82.63	0.37
50.62	89.24	0.39
53.05	95.89	0.42
55.5	102.6	0.5
57.95	109.3	0.5
60.41	116.1	0.5
62.89	122.4	0.5
65.38	129.2	0.6
67.88	135.9	0.6
70.38	142.4	0.6
72.88	148.9	0.6
75.36	155.7	0.7
77.86	161.6	0.7
80.36	168.4	0.7
82.87	174.1	0.8
85.39	180.5	0.8
81.76	171.5	0.7
83.18	175.3	0.8
85.69	181.4	0.8
88.21	187.8	0.8
90.74	194	0.8
93.27	200.1	0.9
95.81	206.2	0.9
98.35	212.2	0.9
100.9	218.2	0.9
103.45	224.4	0.9
106	230.1	1
108.56	236.3	1
111.11	241.8	1
113.68	247.3	1
116.24	253.1	1.1
118.83	258.5	1.1
121.41	264.4	1.1
123.98	270	1.1
126.56	275.4	1.2
129.14	280.7	1.2
131.72	286.1	1.2
134.3	291.3	1.2
136.89	296.5	1.2
139.48	301.4	1.3
142.07	306.3	1.3
144.66	311.2	1.3
147.25	316.4	1.3
149.85	321.3	1.3
152.44	325.9	1.4
155.04	330.7	1.4
157.64	335.1	1.4
160.27	339.8	1.4
162.87	344.2	1.4
165.48	348.8	1.4
168.08	353.3	1.5
170.68	357.5	1.5
173.29	361.7	1.5
175.89	366.2	1.5
178.5	370.1	1.5
181.11	374.3	1.6
183.71	378.8	1.6
186.32	382.6	1.6
188.93	386.8	1.6
191.54	390.8	1.6
194.15	395.1	1.6
196.76	399.2	1.7
199.37	403	1.7
202.02	406.7	1.7
204.64	410.6	1.7
207.26	414.8	1.7
209.89	418.4	1.7
212.51	422.7	1.7
215.14	426.5	1.8
217.78	429.7	1.8
220.42	433.8	1.8
223.06	437.6	1.8
225.71	441.4	1.8
228.36	444.8	1.8
231.01	448.9	1.9
233.67	452.1	1.9
236.34	455.2	1.9
239	459.2	1.9
241.67	462.6	1.9
244.42	467	1.9
247.1	469.6	1.9
249.79	473.3	2
252.47	476.3	2
255.16	479.8	2
257.86	482.9	2
260.56	486.4	2
263.26	489.8	2
265.96	492.3	2
268.67	495.4	2
271.38	498.9	2.1
274.35	502.1	2.1
277.49	505.7	2.1
280.2	508.9	2.1
282.91	512.8	2.1
285.64	514.9	2.1
288.38	519.2	2.1
291.1	521.4	2.1
293.82	524.8	2.2
296.54	527.7	2.2
299.25	530.5	2.2
302.47	535.2	2.2
305.97	538.3	2.2
309.46	542.6	2.2
312.94	546	2.2
316.42	549.8	2.3
319.89	553.2	2.3
323.35	556.5	2.3
326.8	560.7	2.3
330.25	563.7	2.3
333.68	567.4	2.3
337.11	571	2.3
340.53	574.5	2.4
343.95	578.5	2.4
347.35	579.3	2.4
