Measured thermophysical data. Solid-liquid phase equilibria of ternary system Na2S2O3-Na2SO4-H2O in a wide range of temperatures: Measurement and application
Source: J. Chem. Thermodyn., 2018, 10.1016/j.jct.2018.05.014
Compound 1: sodium thiosulfate, Na2O3S2, InChI=1S/2Na.H2O3S2/c;;1-5(2,3)4/h;;(H2,1,2,3,4)/q2*+1;/p-2, purity 99%
Compound 2: sodium sulfate, Na2O4S, InChI=1S/2Na.H2O4S/c;;1-5(2,3)4/h;;(H2,1,2,3,4)/q2*+1;/p-2, purity 99.5%
Compound 3: water, H2O, InChI=1S/H2O/h1H2, purity 99.9%

System: sodium thiosulfate + sodium sulfate + water; phases: Liquid, Crystal of intercomponent compound 1
Fixed: Pressure, kPa = 101.3
Property: Mass fraction of sodium sulfate (Liquid); method: Chromatography
Temperature, K	Mass fraction of sodium thiosulfate	Mass fraction of sodium sulfate	uncertainty
278.15	0	0.0597	0.012
278.15	0.1075	0.0335	0.0121
278.15	0.1956	0.0217	0.012
278.15	0.2121	0.0229	0.012
278.15	0.2968	0.0231	0.012
278.15	0.3422	0.0236	0.012
278.15	0.338	0.0236	0.012
283.15	0	0.0807	0.0121
283.15	0.0841	0.0527	0.0121
283.15	0.1478	0.0466	0.012
283.15	0.204	0.0398	0.0121
283.15	0.2664	0.0338	0.012
283.15	0.3194	0.0287	0.012
283.15	0.347	0.0274	0.0121
291.15	0	0.1408	0.0121
291.15	0.1068	0.1032	0.0122
291.15	0.194	0.0827	0.0121
291.15	0.2656	0.0708	0.0121
291.15	0.3201	0.0654	0.012
291.15	0.3493	0.0633	0.012
291.15	0.3544	0.0626	0.012

System: sodium thiosulfate + sodium sulfate + water; phases: Liquid, Crystal of intercomponent compound 2
Fixed: Pressure, kPa = 101.3
Property: Mass fraction of sodium thiosulfate (Liquid); method: Titration method
Temperature, K	Mass fraction of sodium sulfate	Mass fraction of sodium thiosulfate	uncertainty
278.15	0.0236	0.3422	0.0071
278.15	0.0236	0.338	0.0093
278.15	0.0167	0.3435	0.0097
278.15	0.0086	0.3469	0.0066
278.15	0	0.354	0.0061
283.15	0.0274	0.347	0.0062
283.15	0.0184	0.352	0.0085
283.15	0.0151	0.3491	0.0102
283.15	0.0069	0.3583	0.0081
283.15	0	0.3672	0.0061
291.15	0.0626	0.3544	0.0075
291.15	0.0412	0.3623	0.0092
291.15	0.0253	0.3762	0.0118
291.15	0.0187	0.3834	0.0119
291.15	0	0.3971	0.0061

System: sodium thiosulfate + sodium sulfate + water; phases: Liquid, Crystal
Fixed: Pressure, kPa = 101.3
Property: Mass fraction of sodium sulfate (Liquid); method: Chromatography
Temperature, K	Mass fraction of sodium thiosulfate	Mass fraction of sodium sulfate	uncertainty
333.15	0	0.3117	0.012
333.15	0.1836	0.1642	0.0128
333.15	0.3099	0.0925	0.0123
333.15	0.3405	0.0794	0.0123
333.15	0.4774	0.0282	0.0122
333.15	0.5259	0.0193	0.012
333.15	0.582	0.0166	0.012
333.15	0.6095	0.0104	0.0104
333.15	0.6538	0.0148	0.012
333.15	0.6561	0.009	0.009
353.15	0	0.3019	0.012
353.15	0.0753	0.2085	0.0133
353.15	0.137	0.1726	0.0124
353.15	0.2663	0.1049	0.0123
353.15	0.4181	0.0448	0.0121
353.15	0.4369	0.0397	0.0121
353.15	0.5657	0.0145	0.012
353.15	0.6749	0.015	0.012
353.15	0.7127	0.0125	0.012
353.15	0.7239	0.0114	0.0114
353.15	0.7354	0.0084	0.0084

System: sodium thiosulfate + sodium sulfate + water; phases: Liquid, Crystal
Fixed: Pressure, kPa = 101.3
Property: Mass fraction of sodium thiosulfate (Liquid); method: Titration method
Temperature, K	Mass fraction of sodium sulfate	Mass fraction of sodium thiosulfate	uncertainty
333.15	0.0148	0.6538	0.0062
333.15	0.009	0.6561	0.0062
333.15	0.0082	0.6503	0.0062
333.15	0	0.6549	0.0062
353.15	0.0084	0.7354	0.0063
353.15	0.0095	0.7376	0.0063
353.15	0	0.7402	0.0063

System: sodium sulfate + water; phases: Liquid, Crystal of intercomponent compound 1
Fixed: Pressure, kPa = 101.3
Property: Mass fraction of sodium sulfate (Liquid); method: Chromatography
Temperature, K	Mass fraction of sodium sulfate	uncertainty
278.15	0.0597	0.012
283.15	0.0807	0.0121
291.15	0.1408	0.0121

System: sodium sulfate + water; phases: Liquid, Crystal
Fixed: Pressure, kPa = 101.3
Property: Mass fraction of sodium sulfate (Liquid); method: Chromatography
Temperature, K	Mass fraction of sodium sulfate	uncertainty
333.15	0.3117	0.012
353.15	0.3019	0.012

System: sodium thiosulfate + water; phases: Liquid, Crystal of intercomponent compound 1
Fixed: Pressure, kPa = 101.3
Property: Mass fraction of sodium thiosulfate (Liquid); method: Titration method
Temperature, K	Mass fraction of sodium thiosulfate	uncertainty
278.15	0.354	0.0061
283.15	0.3672	0.0061
291.15	0.3971	0.0061

System: sodium thiosulfate + water; phases: Liquid, Crystal of intercomponent compound 2
Property: Mass fraction of sodium thiosulfate (Liquid); method: Titration method
Temperature, K	Pressure, kPa	Mass fraction of sodium thiosulfate	uncertainty
353.15	101.3	0.7402	0.0063

System: sodium thiosulfate + water; phases: Liquid, Crystal of intercomponent compound 3
Property: Mass fraction of sodium thiosulfate (Liquid); method: Titration method
Temperature, K	Pressure, kPa	Mass fraction of sodium thiosulfate	uncertainty
333.15	101.3	0.6549	0.0062
