Measured thermophysical data. Solubility of 2-nitro-p-phenylenediamine in nine pure solvents and mixture of (methanol + N-methyl-2-pyrrolidone) from T = (283.15 to 318.15) K: Determination and modelling
Source: J. Chem. Thermodyn., 2017, 10.1016/j.jct.2017.01.006
Compound 1: 2-nitro-1,4-benzenediamine, C6H7N3O2, InChI=1S/C6H7N3O2/c7-4-1-2-5(8)6(3-4)9(10)11/h1-3H,7-8H2, purity 98.3%
Compound 2: methanol, CH4O, InChI=1S/CH4O/c1-2/h2H,1H3, purity 99.6%
Compound 3: ethanol, C2H6O, InChI=1S/C2H6O/c1-2-3/h3H,2H2,1H3, purity 99.5%
Compound 4: propan-1-ol, C3H8O, InChI=1S/C3H8O/c1-2-3-4/h4H,2-3H2,1H3, purity 99.5%
Compound 5: propan-2-ol, C3H8O, InChI=1S/C3H8O/c1-3(2)4/h3-4H,1-2H3, purity 99.5%
Compound 6: acetonitrile, C2H3N, InChI=1S/C2H3N/c1-2-3/h1H3, purity 99.4%
Compound 7: N-methylpyrrolidone, C5H9NO, InChI=1S/C5H9NO/c1-6-4-2-3-5(6)7/h2-4H2,1H3, purity 99.3%
Compound 8: toluene, C7H8, InChI=1S/C7H8/c1-7-5-3-2-4-6-7/h2-6H,1H3, purity 99.4%
Compound 9: 1,4-dioxane, C4H8O2, InChI=1S/C4H8O2/c1-2-6-4-3-5-1/h1-4H2, purity 99.5%
Compound 10: ethyl acetate, C4H8O2, InChI=1S/C4H8O2/c1-3-6-4(2)5/h3H2,1-2H3, purity 99.5%

System: 2-nitro-1,4-benzenediamine; phases: Crystal, Liquid, Air at 1 atmosphere
Property: Normal melting temperature, K (Crystal); method: DTA
Normal melting temperature, K	uncertainty
411.35	4.13

System: 2-nitro-1,4-benzenediamine; phases: Crystal, Liquid, Air at 1 atmosphere
Property: Molar enthalpy of transition or fusion, kJ/mol (Crystal); method: DSC
Molar enthalpy of transition or fusion, kJ/mol	uncertainty
16.4	0.88

System: methanol + 2-nitro-1,4-benzenediamine; phases: Liquid, Crystal
Fixed: Pressure, kPa = 101.2
Property: Mole fraction of 2-nitro-1,4-benzenediamine (Liquid); method: Chromatography
Temperature, K	Mole fraction of 2-nitro-1,4-benzenediamine	uncertainty
283.15	0.008888	0.000605
285.65	0.009126	0.000621
288.15	0.009394	0.000639
290.65	0.009656	0.000657
293.15	0.009918	0.000675
295.65	0.01016	0.00069
298.15	0.01041	0.00071
300.65	0.01068	0.00073
303.15	0.01099	0.00075
305.65	0.01126	0.00077
308.15	0.01155	0.00079
310.65	0.01182	0.0008
313.15	0.01214	0.00083
315.65	0.01245	0.00085
318.15	0.01279	0.00087

System: ethanol + 2-nitro-1,4-benzenediamine; phases: Liquid, Crystal
Fixed: Pressure, kPa = 101.2
Property: Mole fraction of 2-nitro-1,4-benzenediamine (Liquid); method: Chromatography
Temperature, K	Mole fraction of 2-nitro-1,4-benzenediamine	uncertainty
283.15	0.007246	0.000493
285.65	0.007513	0.000511
288.15	0.007809	0.000531
290.65	0.008097	0.000551
293.15	0.008364	0.000569
295.65	0.008653	0.000589
298.15	0.008934	0.000608
300.65	0.009245	0.000629
303.15	0.009577	0.000652
305.65	0.009904	0.000674
308.15	0.01026	0.0007
310.65	0.01059	0.00072
313.15	0.01095	0.00075
315.65	0.01132	0.00077
318.15	0.01173	0.0008

System: propan-1-ol + 2-nitro-1,4-benzenediamine; phases: Liquid, Crystal
Fixed: Pressure, kPa = 101.2
Property: Mole fraction of 2-nitro-1,4-benzenediamine (Liquid); method: Chromatography
Temperature, K	Mole fraction of 2-nitro-1,4-benzenediamine	uncertainty
283.15	0.004816	0.000328
285.65	0.005092	0.000346
288.15	0.005374	0.000366
290.65	0.005672	0.000386
293.15	0.005968	0.000406
295.65	0.006256	0.000426
298.15	0.006592	0.000449
300.65	0.006939	0.000472
303.15	0.007318	0.000498
305.65	0.007677	0.000522
308.15	0.008065	0.000549
310.65	0.008458	0.000575
313.15	0.008867	0.000603
315.65	0.009355	0.000636
318.15	0.009834	0.000669

System: acetonitrile + 2-nitro-1,4-benzenediamine; phases: Liquid, Crystal
Fixed: Pressure, kPa = 101.2
Property: Mole fraction of 2-nitro-1,4-benzenediamine (Liquid); method: Chromatography
Temperature, K	Mole fraction of 2-nitro-1,4-benzenediamine	uncertainty
283.15	0.01793	0.00122
285.65	0.01942	0.00132
288.15	0.02121	0.00144
290.65	0.023	0.00157
293.15	0.02461	0.00167
295.65	0.02659	0.00181
298.15	0.02861	0.00195
300.65	0.03066	0.00209
303.15	0.03279	0.00223
305.65	0.03524	0.0024
308.15	0.03804	0.00259
310.65	0.0408	0.00278
313.15	0.0438	0.00298
315.65	0.04743	0.00323
318.15	0.05102	0.00347

System: ethyl acetate + 2-nitro-1,4-benzenediamine; phases: Liquid, Crystal
Fixed: Pressure, kPa = 101.2
Property: Mole fraction of 2-nitro-1,4-benzenediamine (Liquid); method: Chromatography
Temperature, K	Mole fraction of 2-nitro-1,4-benzenediamine	uncertainty
283.15	0.02034	0.00138
285.65	0.02196	0.00149
288.15	0.02392	0.00163
290.65	0.02606	0.00177
293.15	0.02853	0.00194
295.65	0.03136	0.00213
298.15	0.03417	0.00233
300.65	0.03724	0.00253
303.15	0.04022	0.00274
305.65	0.04364	0.00297
308.15	0.0472	0.00321
310.65	0.05125	0.00349
313.15	0.05537	0.00377
315.65	0.05957	0.00405
318.15	0.06367	0.00433

System: N-methylpyrrolidone + 2-nitro-1,4-benzenediamine; phases: Liquid, Crystal
Fixed: Pressure, kPa = 101.2
Property: Mole fraction of 2-nitro-1,4-benzenediamine (Liquid); method: Chromatography
Temperature, K	Mole fraction of 2-nitro-1,4-benzenediamine	uncertainty
283.15	0.03591	0.00244
285.65	0.03924	0.00267
288.15	0.04314	0.00294
290.65	0.04729	0.00322
293.15	0.05185	0.00353
295.65	0.05645	0.00384
298.15	0.06158	0.00419
300.65	0.06702	0.00456
303.15	0.0731	0.00497
305.65	0.07875	0.00536
308.15	0.08581	0.00584
310.65	0.09294	0.00632
313.15	0.1014	0.0069
315.65	0.1106	0.0075
318.15	0.1205	0.0082

System: toluene + 2-nitro-1,4-benzenediamine; phases: Liquid, Crystal
Fixed: Pressure, kPa = 101.2
Property: Mole fraction of 2-nitro-1,4-benzenediamine (Liquid); method: Chromatography
Temperature, K	Mole fraction of 2-nitro-1,4-benzenediamine	uncertainty
283.15	0.0003306	2.25e-05
285.65	0.0003775	2.57e-05
288.15	0.0004339	2.95e-05
290.65	0.0004975	3.39e-05
293.15	0.0005753	3.92e-05
295.65	0.0006511	4.43e-05
298.15	0.0007531	5.13e-05
300.65	0.0008478	5.77e-05
303.15	0.0009526	6.48e-05
305.65	0.001073	7.3e-05
308.15	0.00121	8.2e-05
310.65	0.001357	9.2e-05
313.15	0.001511	0.000103
315.65	0.001693	0.000115
318.15	0.00187	0.000127

System: 1,4-dioxane + 2-nitro-1,4-benzenediamine; phases: Liquid, Crystal
Fixed: Pressure, kPa = 101.2
Property: Mole fraction of 2-nitro-1,4-benzenediamine (Liquid); method: Chromatography
Temperature, K	Mole fraction of 2-nitro-1,4-benzenediamine	uncertainty
285.65	0.04524	0.00308
288.15	0.04763	0.00324
290.65	0.05011	0.00341
293.15	0.05329	0.00363
295.65	0.05626	0.00383
298.15	0.05927	0.00403
300.65	0.06212	0.00423
303.15	0.06548	0.00446
305.65	0.06891	0.00469
308.15	0.07242	0.00493
310.65	0.07602	0.00517
313.15	0.07998	0.00544
315.65	0.08361	0.00569
318.15	0.08767	0.00596

System: propan-2-ol + 2-nitro-1,4-benzenediamine; phases: Liquid, Crystal
Fixed: Pressure, kPa = 101.2
Property: Mole fraction of 2-nitro-1,4-benzenediamine (Liquid); method: Chromatography
Temperature, K	Mole fraction of 2-nitro-1,4-benzenediamine	uncertainty
283.15	0.003668	0.00025
285.65	0.003794	0.000258
288.15	0.003921	0.000267
290.65	0.004048	0.000275
293.15	0.004182	0.000285
295.65	0.004319	0.000294
298.15	0.004459	0.000303
300.65	0.00461	0.000314
303.15	0.004748	0.000323
305.65	0.004896	0.000333
308.15	0.005052	0.000344
310.65	0.00521	0.000354
313.15	0.005373	0.000366
315.65	0.005552	0.000378
318.15	0.005729	0.00039

System: methanol + N-methylpyrrolidone + 2-nitro-1,4-benzenediamine; phases: Liquid, Crystal
Fixed: Pressure, kPa = 101.2
Property: Mole fraction of 2-nitro-1,4-benzenediamine (Liquid); method: Chromatography
Temperature, K	Solvent: Mass fraction of N-methylpyrrolidone	Mole fraction of 2-nitro-1,4-benzenediamine	uncertainty
283.15	0	0.008888	0.000605
285.65	0	0.009126	0.000621
288.15	0	0.009394	0.000639
290.65	0	0.009656	0.000657
293.15	0	0.009918	0.000675
295.65	0	0.01016	0.00069
298.15	0	0.01041	0.00071
300.65	0	0.01068	0.00073
303.15	0	0.01099	0.00075
305.65	0	0.01126	0.00077
308.15	0	0.01155	0.00079
310.65	0	0.01182	0.0008
313.15	0	0.01214	0.00083
315.65	0	0.01245	0.00085
318.15	0	0.01279	0.00087
283.15	0.101	0.01038	0.00072
285.65	0.101	0.01064	0.00074
288.15	0.101	0.0109	0.00075
290.65	0.101	0.01118	0.00077
293.15	0.101	0.01148	0.00079
295.65	0.101	0.01176	0.00081
298.15	0.101	0.01206	0.00084
300.65	0.101	0.01236	0.00086
303.15	0.101	0.01268	0.00088
305.65	0.101	0.01302	0.0009
308.15	0.101	0.01334	0.00092
310.65	0.101	0.01368	0.00095
313.15	0.101	0.01402	0.00097
315.65	0.101	0.01435	0.00099
318.15	0.101	0.01467	0.00102
283.15	0.2009	0.01193	0.00089
285.65	0.2009	0.01224	0.00093
288.15	0.2009	0.01259	0.00097
290.65	0.2009	0.01292	0.00101
293.15	0.2009	0.01326	0.00105
295.65	0.2009	0.01366	0.0011
298.15	0.2009	0.01403	0.00115
300.65	0.2009	0.0144	0.0012
303.15	0.2009	0.0148	0.00125
305.65	0.2009	0.01522	0.00131
308.15	0.2009	0.01564	0.00137
310.65	0.2009	0.01605	0.00144
313.15	0.2009	0.01646	0.00151
315.65	0.2009	0.01688	0.00158
318.15	0.2009	0.01735	0.00167
283.15	0.3015	0.01469	0.00129
285.65	0.3015	0.01537	0.00139
288.15	0.3015	0.01609	0.00152
290.65	0.3015	0.01686	0.00167
293.15	0.3015	0.01771	0.00182
295.65	0.3015	0.01857	0.00199
298.15	0.3015	0.01947	0.00216
300.65	0.3015	0.02041	0.00233
303.15	0.3015	0.02135	0.00252
305.65	0.3015	0.02234	0.00272
308.15	0.3015	0.02342	0.00295
310.65	0.3015	0.02457	0.00319
313.15	0.3015	0.02572	0.00346
315.65	0.3015	0.02691	0.00369
318.15	0.3015	0.02834	0.00396
283.15	0.4005	0.01817	0.00167
285.65	0.4005	0.01933	0.00185
288.15	0.4005	0.02076	0.00207
290.65	0.4005	0.02223	0.0023
293.15	0.4005	0.02377	0.00251
295.65	0.4005	0.0255	0.00275
298.15	0.4005	0.02714	0.00297
300.65	0.4005	0.02877	0.0032
303.15	0.4005	0.03062	0.00348
305.65	0.4005	0.03263	0.00376
308.15	0.4005	0.03478	0.00406
310.65	0.4005	0.03701	0.00445
313.15	0.4005	0.03945	0.00482
315.65	0.4005	0.04157	0.00527
318.15	0.4005	0.044	0.00569
283.15	0.4996	0.02112	0.00209
285.65	0.4996	0.02283	0.00226
288.15	0.4996	0.02482	0.00249
290.65	0.4996	0.02682	0.00274
293.15	0.4996	0.02877	0.00296
295.65	0.4996	0.03083	0.00319
298.15	0.4996	0.03286	0.00345
300.65	0.4996	0.03498	0.00374
303.15	0.4996	0.03741	0.00401
305.65	0.4996	0.03982	0.00432
308.15	0.4996	0.04242	0.00466
310.65	0.4996	0.04566	0.00504
313.15	0.4996	0.04874	0.00546
315.65	0.4996	0.05249	0.006
318.15	0.4996	0.05614	0.00652
283.15	0.602	0.0253	0.00207
285.65	0.602	0.027	0.00222
288.15	0.602	0.02935	0.00245
290.65	0.602	0.0318	0.00269
293.15	0.602	0.03418	0.00291
295.65	0.602	0.03679	0.00317
298.15	0.602	0.03944	0.00346
300.65	0.602	0.04229	0.00374
303.15	0.602	0.04513	0.00403
305.65	0.602	0.04838	0.00435
308.15	0.602	0.0519	0.00468
310.65	0.602	0.05559	0.00496
313.15	0.602	0.05979	0.00534
315.65	0.602	0.06417	0.00571
318.15	0.602	0.06879	0.00616
283.15	0.6977	0.02774	0.00195
285.65	0.6977	0.03006	0.00215
288.15	0.6977	0.03301	0.00238
290.65	0.6977	0.03606	0.00261
293.15	0.6977	0.03885	0.00284
295.65	0.6977	0.04205	0.00309
298.15	0.6977	0.04553	0.00336
300.65	0.6977	0.04884	0.00362
303.15	0.6977	0.05251	0.00393
305.65	0.6977	0.05624	0.00424
308.15	0.6977	0.06014	0.00458
310.65	0.6977	0.06425	0.00495
313.15	0.6977	0.06875	0.00539
315.65	0.6977	0.07376	0.00586
318.15	0.6977	0.07926	0.00634
283.15	0.8018	0.02901	0.00202
285.65	0.8018	0.0322	0.00225
288.15	0.8018	0.03538	0.00248
290.65	0.8018	0.03871	0.00272
293.15	0.8018	0.04217	0.00298
295.65	0.8018	0.04571	0.00323
298.15	0.8018	0.04943	0.0035
300.65	0.8018	0.05339	0.0038
303.15	0.8018	0.05783	0.00412
305.65	0.8018	0.06249	0.00447
308.15	0.8018	0.06769	0.00486
310.65	0.8018	0.0735	0.00528
313.15	0.8018	0.08031	0.00577
315.65	0.8018	0.08731	0.00627
318.15	0.8018	0.09431	0.00678
283.15	0.9003	0.03285	0.00226
285.65	0.9003	0.03601	0.00247
288.15	0.9003	0.03999	0.00274
290.65	0.9003	0.04399	0.00302
293.15	0.9003	0.04826	0.00331
295.65	0.9003	0.05266	0.00361
298.15	0.9003	0.05721	0.00393
300.65	0.9003	0.06201	0.00426
303.15	0.9003	0.06722	0.00462
305.65	0.9003	0.07283	0.00501
308.15	0.9003	0.07844	0.00539
310.65	0.9003	0.08434	0.0058
313.15	0.9003	0.09064	0.00623
315.65	0.9003	0.09738	0.0067
318.15	0.9003	0.1053	0.0073
283.15	1	0.03591	0.00244
285.65	1	0.03924	0.00267
288.15	1	0.04314	0.00294
290.65	1	0.04729	0.00322
293.15	1	0.05185	0.00353
295.65	1	0.05645	0.00384
298.15	1	0.06158	0.00419
300.65	1	0.06702	0.00456
303.15	1	0.0731	0.00497
305.65	1	0.07875	0.00536
308.15	1	0.08581	0.00584
310.65	1	0.09294	0.00632
313.15	1	0.1014	0.0069
315.65	1	0.1106	0.0075
318.15	1	0.1205	0.0082
