Measured thermophysical data. (Vapour + liquid) equilibria of {xCH3Cl + (1-x)HCl} at temperatures (159.01 and 182.33) K
Source: J. Chem. Thermodyn., 2005, 10.1016/j.jct.2004.05.009
Compound 1: chloromethane, CH3Cl, InChI=1S/CH3Cl/c1-2/h1H3, purity 99.5%
Compound 2: hydrogen chloride, ClH, InChI=1S/ClH/h1H, purity 99.5%
Compound 3: nitrous oxide, N2O, InChI=1S/N2O/c1-2-3, purity 99.5%

System: chloromethane; phases: Crystal, Liquid, Gas
Property: Vapor or sublimation pressure, kPa (Crystal); method: closed cell
Vapor or sublimation pressure, kPa	uncertainty
0.875	0.01

System: chloromethane; phases: Liquid, Gas
Property: Vapor or sublimation pressure, kPa (Liquid); method: CCELL:UFactor:4
Temperature, K	Vapor or sublimation pressure, kPa	uncertainty
182.33	1.67	0.11

System: hydrogen chloride; phases: Crystal, Liquid, Gas
Property: Vapor or sublimation pressure, kPa (Crystal); method: closed cell
Vapor or sublimation pressure, kPa	uncertainty
13.792	0.036

System: hydrogen chloride; phases: Liquid, Gas
Property: Vapor or sublimation pressure, kPa (Liquid); method: CCELL::UFactor:4
Temperature, K	Vapor or sublimation pressure, kPa	uncertainty
159.01	13.792	0.305
182.33	72.134	1.237

System: nitrous oxide; phases: Crystal, Liquid, Gas
Property: Vapor or sublimation pressure, kPa (Crystal); method: closed cell
Vapor or sublimation pressure, kPa	uncertainty
87.951	0.222

System: chloromethane + hydrogen chloride; phases: Liquid, Gas
Property: Vapor or sublimation pressure, kPa (Liquid); method: CCELL:UFactor:4
Mole fraction of chloromethane	Temperature, K	Vapor or sublimation pressure, kPa	uncertainty
0	159.01	13.792	0.305
0	182.33	72.134	1.237
0.1641	182.33	57.102	0.997
0.1963	159.01	10.026	0.241
0.325	159.01	7.395	0.199
0.3344	182.33	37.882	0.689
0.4243	159.01	5.349	0.166
0.4331	182.33	29.437	0.553
0.5915	182.33	17.172	0.357
0.6018	159.01	2.804	0.125
0.6886	182.33	11.588	0.267
0.696	159.01	2.247	0.116
0.8035	182.33	7.271	0.197
0.9207	182.33	4.981	0.16
1	182.33	1.67	0.11
