Measured thermophysical data. (P, Vm, T) Measurements of (toluene + propiophenone) at temperatures from 298.15 K to 328.15 K and at pressures up to 40 MPa
Source: J. Chem. Thermodyn., 2005, 10.1016/j.jct.2004.10.011
Compound 1: toluene, C7H8, InChI=1S/C7H8/c1-7-5-3-2-4-6-7/h2-6H,1H3, purity 99.9%
Compound 2: ethyl phenyl ketone, C9H10O, InChI=1S/C9H10O/c1-2-9(10)8-6-4-3-5-7-8/h3-7H,2H2,1H3, purity 99%

System: toluene; phases: Liquid
Property: Mass density, kg/m3 (Liquid); method: Vibrating tube method
Temperature, K	Pressure, kPa	Mass density, kg/m3	uncertainty
298.15	100	862.1	0.26
298.15	2130	863.6	0.27
298.15	4150	865.2	0.27
298.15	6180	866.7	0.27
298.15	8210	868.2	0.27
298.15	10230	869.6	0.28
298.15	11250	870.4	0.28
298.15	12260	871.1	0.28
298.15	14290	872.5	0.28
298.15	16310	873.9	0.29
298.15	18340	875.3	0.29
298.15	20370	876.7	0.29
298.15	22390	878	0.29
298.15	24420	879.3	0.3
298.15	26450	880.6	0.3
298.15	28470	881.9	0.31
298.15	29490	882.5	0.31
298.15	30500	883.2	0.31
298.15	32530	884.4	0.31
298.15	34550	885.6	0.32
298.15	36580	886.8	0.32
298.15	38600	888	0.32
298.15	39620	888.6	0.33
308.15	100	853	0.27
308.15	2130	854.5	0.27
308.15	4150	856.2	0.28
308.15	6180	857.8	0.28
308.15	8210	859.3	0.28
308.15	10230	860.9	0.29
308.15	11250	861.7	0.29
308.15	12260	862.4	0.29
308.15	14290	863.9	0.29
308.15	16310	865.4	0.29
308.15	18340	866.8	0.3
308.15	20370	868.2	0.3
308.15	22390	869.6	0.3
308.15	24420	871	0.31
308.15	26450	872.4	0.31
308.15	28470	873.8	0.32
308.15	29490	874.4	0.31
308.15	30500	875	0.32
308.15	32530	876.3	0.32
308.15	34550	877.6	0.33
308.15	36580	878.9	0.33
308.15	38600	880.1	0.33
308.15	39620	880.7	0.35
318.15	100	843.8	0.29
318.15	2130	845.6	0.28
318.15	4150	847.3	0.29
318.15	6180	849	0.29
318.15	8210	850.6	0.29
318.15	10230	852.3	0.29
318.15	11250	853.1	0.29
318.15	12260	853.9	0.29
318.15	14290	855.4	0.3
318.15	16310	857	0.3
318.15	18340	858.5	0.3
318.15	20370	860	0.31
318.15	22390	861.5	0.31
318.15	24420	862.9	0.32
318.15	26450	864.4	0.32
318.15	28470	865.8	0.33
318.15	29490	866.5	0.33
318.15	30500	867.2	0.33
318.15	32530	868.5	0.33
318.15	34550	869.9	0.34
318.15	36580	871.2	0.34
318.15	38600	872.5	0.35
318.15	39620	873.2	0.35
328.15	100	834.5	0.3
328.15	2130	836.5	0.29
328.15	4150	838.3	0.29
328.15	6180	840.1	0.29
328.15	8210	841.8	0.3
328.15	10230	843.5	0.3
328.15	11250	844.4	0.3
328.15	12260	845.2	0.3
328.15	14290	846.9	0.31
328.15	16310	848.6	0.31
328.15	18340	850.1	0.31
328.15	20370	851.7	0.32
328.15	22390	853.3	0.32
328.15	24420	854.8	0.33
328.15	26450	856.3	0.33
328.15	28470	857.8	0.34
328.15	29490	858.5	0.34
328.15	30500	859.3	0.34
328.15	32530	860.7	0.34
328.15	34550	862.1	0.35
328.15	36580	863.5	0.35
328.15	38600	864.9	0.36
328.15	39620	865.5	0.35

System: ethyl phenyl ketone; phases: Liquid
Property: Mass density, kg/m3 (Liquid); method: Vibrating tube method
Temperature, K	Pressure, kPa	Mass density, kg/m3	uncertainty
298.15	100	1005.3	0.56
298.15	2130	1006.4	0.56
298.15	4150	1007.5	0.56
298.15	6180	1008.7	0.56
298.15	8210	1009.8	0.56
298.15	10230	1010.9	0.56
298.15	11250	1011.5	0.56
298.15	12260	1012.1	0.56
298.15	14290	1013.2	0.56
298.15	16310	1014.3	0.56
298.15	18340	1015.3	0.56
298.15	20370	1016.4	0.56
298.15	22390	1017.5	0.56
298.15	24420	1018.5	0.56
298.15	26450	1019.5	0.56
298.15	28470	1020.5	0.56
298.15	29490	1021	0.57
298.15	30500	1021.6	0.57
298.15	32530	1022.5	0.57
298.15	34550	1023.5	0.57
298.15	36580	1024.5	0.57
298.15	38600	1025.5	0.57
298.15	39620	1025.9	0.57
308.15	100	996.8	0.56
308.15	2130	998	0.56
308.15	4150	999.2	0.56
308.15	6180	1000.4	0.56
308.15	8210	1001.6	0.56
308.15	10230	1002.8	0.56
308.15	11250	1003.4	0.56
308.15	12260	1003.9	0.56
308.15	14290	1005.1	0.56
308.15	16310	1006.2	0.56
308.15	18340	1007.3	0.56
308.15	20370	1008.4	0.56
308.15	22390	1009.5	0.56
308.15	24420	1010.6	0.56
308.15	26450	1011.7	0.56
308.15	28470	1012.8	0.56
308.15	29490	1013.2	0.56
308.15	30500	1013.8	0.56
308.15	32530	1014.8	0.56
308.15	34550	1015.8	0.56
308.15	36580	1016.8	0.56
308.15	38600	1017.9	0.56
308.15	39620	1018.3	0.56
318.15	100	988.3	0.56
318.15	2130	989.6	0.55
318.15	4150	990.9	0.55
318.15	6180	992.1	0.55
318.15	8210	993.3	0.56
318.15	10230	994.6	0.56
318.15	11250	995.2	0.55
318.15	12260	995.8	0.56
318.15	14290	997	0.55
318.15	16310	998.1	0.56
318.15	18340	999.3	0.56
318.15	20370	1000.4	0.56
318.15	22390	1001.6	0.56
318.15	24420	1002.7	0.56
318.15	26450	1003.8	0.56
318.15	28470	1004.9	0.56
318.15	29490	1005.5	0.56
318.15	30500	1006	0.56
318.15	32530	1007.1	0.56
318.15	34550	1008.2	0.56
318.15	36580	1009.2	0.56
318.15	38600	1010.3	0.56
318.15	39620	1010.8	0.56
328.15	100	979.6	0.56
328.15	2130	981.1	0.55
328.15	4150	982.4	0.55
328.15	6180	983.7	0.55
328.15	8210	985	0.55
328.15	10230	986.2	0.55
328.15	11250	986.9	0.55
328.15	12260	987.5	0.55
328.15	14290	988.7	0.55
328.15	16310	990	0.55
328.15	18340	991.2	0.55
328.15	20370	992.3	0.55
328.15	22390	993.5	0.55
328.15	24420	994.7	0.55
328.15	26450	995.9	0.56
328.15	28470	997.1	0.55
328.15	29490	997.6	0.55
328.15	30500	998.2	0.55
328.15	32530	999.3	0.55
328.15	34550	1000.4	0.56
328.15	36580	1001.5	0.56
328.15	38600	1002.6	0.56
328.15	39620	1003.2	0.56

System: ethyl phenyl ketone + toluene; phases: Liquid
Property: Mass density, kg/m3 (Liquid); method: Vibrating tube method
Mole fraction of toluene	Temperature, K	Pressure, kPa	Mass density, kg/m3	uncertainty
0	298.15	100	1005.3	0.56
0	298.15	2130	1006.4	0.56
0	298.15	4150	1007.5	0.56
0	298.15	6180	1008.7	0.56
0	298.15	8210	1009.8	0.56
0	298.15	10230	1010.9	0.56
0	298.15	11250	1011.5	0.56
0	298.15	12260	1012.1	0.56
0	298.15	14290	1013.2	0.56
0	298.15	16310	1014.3	0.56
0	298.15	18340	1015.3	0.56
0	298.15	20370	1016.4	0.56
0	298.15	22390	1017.5	0.56
0	298.15	24420	1018.5	0.56
0	298.15	26450	1019.5	0.56
0	298.15	28470	1020.5	0.56
0	298.15	29490	1021	0.57
0	298.15	30500	1021.6	0.57
0	298.15	32530	1022.5	0.57
0	298.15	34550	1023.5	0.57
0	298.15	36580	1024.5	0.57
0	298.15	38600	1025.5	0.57
0	298.15	39620	1025.9	0.57
0	308.15	100	996.8	0.56
0	308.15	2130	998	0.56
0	308.15	4150	999.2	0.56
0	308.15	6180	1000.4	0.56
0	308.15	8210	1001.6	0.56
0	308.15	10230	1002.8	0.56
0	308.15	11250	1003.4	0.56
0	308.15	12260	1003.9	0.56
0	308.15	14290	1005.1	0.56
0	308.15	16310	1006.2	0.56
0	308.15	18340	1007.3	0.56
0	308.15	20370	1008.4	0.56
0	308.15	22390	1009.5	0.56
0	308.15	24420	1010.6	0.56
0	308.15	26450	1011.7	0.56
0	308.15	28470	1012.8	0.56
0	308.15	29490	1013.2	0.56
0	308.15	30500	1013.8	0.56
0	308.15	32530	1014.8	0.56
0	308.15	34550	1015.8	0.56
0	308.15	36580	1016.8	0.56
0	308.15	38600	1017.9	0.56
0	308.15	39620	1018.3	0.56
0	318.15	100	988.3	0.56
0	318.15	2130	989.6	0.55
0	318.15	4150	990.9	0.55
0	318.15	6180	992.1	0.55
0	318.15	8210	993.3	0.56
0	318.15	10230	994.6	0.56
0	318.15	11250	995.2	0.55
0	318.15	12260	995.8	0.56
0	318.15	14290	997	0.55
0	318.15	16310	998.1	0.56
0	318.15	18340	999.3	0.56
0	318.15	20370	1000.4	0.56
0	318.15	22390	1001.6	0.56
0	318.15	24420	1002.7	0.56
0	318.15	26450	1003.8	0.56
0	318.15	28470	1004.9	0.56
0	318.15	29490	1005.5	0.56
0	318.15	30500	1006	0.56
0	318.15	32530	1007.1	0.56
0	318.15	34550	1008.2	0.56
0	318.15	36580	1009.2	0.56
0	318.15	38600	1010.3	0.56
0	318.15	39620	1010.8	0.56
0	328.15	100	979.6	0.56
0	328.15	2130	981.1	0.55
0	328.15	4150	982.4	0.55
0	328.15	6180	983.7	0.55
0	328.15	8210	985	0.55
0	328.15	10230	986.2	0.55
0	328.15	11250	986.9	0.55
0	328.15	12260	987.5	0.55
0	328.15	14290	988.7	0.55
0	328.15	16310	990	0.55
0	328.15	18340	991.2	0.55
0	328.15	20370	992.3	0.55
0	328.15	22390	993.5	0.55
0	328.15	24420	994.7	0.55
0	328.15	26450	995.9	0.56
0	328.15	28470	997.1	0.55
0	328.15	29490	997.6	0.55
0	328.15	30500	998.2	0.55
0	328.15	32530	999.3	0.55
0	328.15	34550	1000.4	0.56
0	328.15	36580	1001.5	0.56
0	328.15	38600	1002.6	0.56
0	328.15	39620	1003.2	0.56
0.10482	298.15	100	993.5	0.51
0.10482	298.15	2130	994.6	0.51
0.10482	298.15	4150	995.8	0.51
0.10482	298.15	6180	996.9	0.51
0.10482	298.15	8210	998.1	0.51
0.10482	298.15	10230	999.2	0.51
0.10482	298.15	11250	999.8	0.51
0.10482	298.15	12260	1000.3	0.51
0.10482	298.15	14290	1001.5	0.51
0.10482	298.15	16310	1002.6	0.51
0.10482	298.15	18340	1003.7	0.51
0.10482	298.15	20370	1004.8	0.51
0.10482	298.15	22390	1005.8	0.51
0.10482	298.15	24420	1006.9	0.51
0.10482	298.15	26450	1007.9	0.51
0.10482	298.15	28470	1009	0.52
0.10482	298.15	29490	1009.5	0.51
0.10482	298.15	30500	1010	0.52
0.10482	298.15	32530	1011	0.52
0.10482	298.15	34550	1012	0.52
0.10482	298.15	36580	1013	0.52
0.10482	298.15	38600	1013.9	0.52
0.10482	298.15	39620	1014.4	0.51
0.10482	308.15	100	984.8	0.51
0.10482	308.15	2130	986	0.51
0.10482	308.15	4150	987.3	0.51
0.10482	308.15	6180	988.5	0.51
0.10482	308.15	8210	989.7	0.51
0.10482	308.15	10230	990.9	0.51
0.10482	308.15	11250	991.5	0.51
0.10482	308.15	12260	992.1	0.51
0.10482	308.15	14290	993.3	0.51
0.10482	308.15	16310	994.4	0.51
0.10482	308.15	18340	995.5	0.51
0.10482	308.15	20370	996.7	0.51
0.10482	308.15	22390	997.8	0.51
0.10482	308.15	24420	998.9	0.51
0.10482	308.15	26450	1000	0.51
0.10482	308.15	28470	1001	0.51
0.10482	308.15	29490	1001.6	0.51
0.10482	308.15	30500	1002.1	0.51
0.10482	308.15	32530	1003.2	0.51
0.10482	308.15	34550	1004.2	0.51
0.10482	308.15	36580	1005.2	0.51
0.10482	308.15	38600	1006.2	0.51
0.10482	308.15	39620	1006.7	0.51
0.10482	318.15	100	976.2	0.51
0.10482	318.15	2130	977.6	0.51
0.10482	318.15	4150	978.9	0.51
0.10482	318.15	6180	980.1	0.51
0.10482	318.15	8210	981.4	0.51
0.10482	318.15	10230	982.7	0.51
0.10482	318.15	11250	983.3	0.51
0.10482	318.15	12260	983.9	0.51
0.10482	318.15	14290	985.1	0.51
0.10482	318.15	16310	986.3	0.51
0.10482	318.15	18340	987.5	0.51
0.10482	318.15	20370	988.7	0.51
0.10482	318.15	22390	989.9	0.51
0.10482	318.15	24420	991	0.51
0.10482	318.15	26450	992.1	0.51
0.10482	318.15	28470	993.3	0.51
0.10482	318.15	29490	993.8	0.51
0.10482	318.15	30500	994.4	0.51
0.10482	318.15	32530	995.5	0.51
0.10482	318.15	34550	996.6	0.51
0.10482	318.15	36580	997.7	0.51
0.10482	318.15	38600	998.7	0.51
0.10482	318.15	39620	999.3	0.51
0.10482	328.15	100	967.8	0.51
0.10482	328.15	2130	969.1	0.51
0.10482	328.15	4150	970.5	0.51
0.10482	328.15	6180	971.8	0.51
0.10482	328.15	8210	973.1	0.51
0.10482	328.15	10230	974.5	0.51
0.10482	328.15	11250	975.1	0.51
0.10482	328.15	12260	975.7	0.51
0.10482	328.15	14290	977	0.51
0.10482	328.15	16310	978.3	0.51
0.10482	328.15	18340	979.5	0.51
0.10482	328.15	20370	980.8	0.51
0.10482	328.15	22390	982	0.51
0.10482	328.15	24420	983.2	0.51
0.10482	328.15	26450	984.4	0.51
0.10482	328.15	28470	985.6	0.51
0.10482	328.15	29490	986.2	0.51
0.10482	328.15	30500	986.7	0.51
0.10482	328.15	32530	987.9	0.51
0.10482	328.15	34550	989	0.51
0.10482	328.15	36580	990.2	0.51
0.10482	328.15	38600	991.3	0.51
0.10482	328.15	39620	991.9	0.5
0.20246	298.15	100	982.2	0.47
0.20246	298.15	2130	983.3	0.47
0.20246	298.15	4150	984.5	0.47
0.20246	298.15	6180	985.7	0.47
0.20246	298.15	8210	986.9	0.47
0.20246	298.15	10230	988	0.47
0.20246	298.15	11250	988.6	0.47
0.20246	298.15	12260	989.2	0.47
0.20246	298.15	14290	990.3	0.47
0.20246	298.15	16310	991.4	0.47
0.20246	298.15	18340	992.5	0.47
0.20246	298.15	20370	993.6	0.47
0.20246	298.15	22390	994.7	0.47
0.20246	298.15	24420	995.8	0.47
0.20246	298.15	26450	996.8	0.47
0.20246	298.15	28470	997.9	0.47
0.20246	298.15	29490	998.4	0.47
0.20246	298.15	30500	998.9	0.47
0.20246	298.15	32530	999.9	0.47
0.20246	298.15	34550	1000.9	0.47
0.20246	298.15	36580	1001.9	0.47
0.20246	298.15	38600	1002.9	0.47
0.20246	298.15	39620	1003.4	0.47
0.20246	308.15	100	973.6	0.47
0.20246	308.15	2130	974.8	0.47
0.20246	308.15	4150	976.1	0.47
0.20246	308.15	6180	977.3	0.47
0.20246	308.15	8210	978.5	0.47
0.20246	308.15	10230	979.8	0.47
0.20246	308.15	11250	980.4	0.47
0.20246	308.15	12260	981	0.47
0.20246	308.15	14290	982.2	0.47
0.20246	308.15	16310	983.3	0.47
0.20246	308.15	18340	984.5	0.47
0.20246	308.15	20370	985.6	0.47
0.20246	308.15	22390	986.7	0.47
0.20246	308.15	24420	987.8	0.47
0.20246	308.15	26450	988.9	0.47
0.20246	308.15	28470	990	0.47
0.20246	308.15	29490	990.6	0.47
0.20246	308.15	30500	991.1	0.47
0.20246	308.15	32530	992.2	0.47
0.20246	308.15	34550	993.2	0.47
0.20246	308.15	36580	994.3	0.47
0.20246	308.15	38600	995.3	0.47
0.20246	308.15	39620	995.8	0.46
0.20246	318.15	100	965	0.47
0.20246	318.15	2130	966.4	0.47
0.20246	318.15	4150	967.7	0.47
0.20246	318.15	6180	969	0.47
0.20246	318.15	8210	970.2	0.47
0.20246	318.15	10230	971.5	0.47
0.20246	318.15	11250	972.1	0.47
0.20246	318.15	12260	972.8	0.47
0.20246	318.15	14290	974	0.47
0.20246	318.15	16310	975.2	0.47
0.20246	318.15	18340	976.4	0.47
0.20246	318.15	20370	977.6	0.47
0.20246	318.15	22390	978.8	0.47
0.20246	318.15	24420	980	0.47
0.20246	318.15	26450	981.1	0.47
0.20246	318.15	28470	982.2	0.47
0.20246	318.15	29490	982.8	0.47
0.20246	318.15	30500	983.4	0.47
0.20246	318.15	32530	984.5	0.47
0.20246	318.15	34550	985.6	0.47
0.20246	318.15	36580	986.7	0.47
0.20246	318.15	38600	987.8	0.47
0.20246	318.15	39620	988.3	0.46
0.20246	328.15	100	956.5	0.47
0.20246	328.15	2130	957.8	0.47
0.20246	328.15	4150	959.2	0.47
0.20246	328.15	6180	960.5	0.47
0.20246	328.15	8210	961.8	0.47
0.20246	328.15	10230	963.2	0.47
0.20246	328.15	11250	963.8	0.47
0.20246	328.15	12260	964.5	0.47
0.20246	328.15	14290	965.8	0.47
0.20246	328.15	16310	967.1	0.47
0.20246	328.15	18340	968.3	0.47
0.20246	328.15	20370	969.6	0.47
0.20246	328.15	22390	970.8	0.47
0.20246	328.15	24420	972	0.47
0.20246	328.15	26450	973.2	0.47
0.20246	328.15	28470	974.5	0.47
0.20246	328.15	29490	975	0.47
0.20246	328.15	30500	975.6	0.47
0.20246	328.15	32530	976.8	0.47
0.20246	328.15	34550	978	0.47
0.20246	328.15	36580	979.1	0.47
0.20246	328.15	38600	980.3	0.47
0.20246	328.15	39620	980.8	0.46
0.30061	298.15	100	970.2	0.43
0.30061	298.15	2130	971.3	0.43
0.30061	298.15	4150	972.6	0.43
0.30061	298.15	6180	973.8	0.43
0.30061	298.15	8210	975	0.43
0.30061	298.15	10230	976.1	0.43
0.30061	298.15	11250	976.7	0.43
0.30061	298.15	12260	977.3	0.43
0.30061	298.15	14290	978.5	0.43
0.30061	298.15	16310	979.6	0.43
0.30061	298.15	18340	980.7	0.43
0.30061	298.15	20370	981.8	0.43
0.30061	298.15	22390	983	0.43
0.30061	298.15	24420	984	0.43
0.30061	298.15	26450	985.1	0.43
0.30061	298.15	28470	986.2	0.43
0.30061	298.15	29490	986.7	0.43
0.30061	298.15	30500	987.2	0.43
0.30061	298.15	32530	988.3	0.43
0.30061	298.15	34550	989.3	0.43
0.30061	298.15	36580	990.3	0.43
0.30061	298.15	38600	991.3	0.43
0.30061	298.15	39620	991.8	0.42
0.30061	308.15	100	961.5	0.43
0.30061	308.15	2130	962.8	0.43
0.30061	308.15	4150	964.1	0.43
0.30061	308.15	6180	965.3	0.43
0.30061	308.15	8210	966.6	0.43
0.30061	308.15	10230	967.8	0.43
0.30061	308.15	11250	968.4	0.43
0.30061	308.15	12260	969	0.43
0.30061	308.15	14290	970.3	0.43
0.30061	308.15	16310	971.4	0.43
0.30061	308.15	18340	972.6	0.43
0.30061	308.15	20370	973.8	0.43
0.30061	308.15	22390	974.9	0.43
0.30061	308.15	24420	976	0.43
0.30061	308.15	26450	977.2	0.43
0.30061	308.15	28470	978.3	0.43
0.30061	308.15	29490	978.8	0.43
0.30061	308.15	30500	979.4	0.43
0.30061	308.15	32530	980.5	0.43
0.30061	308.15	34550	981.5	0.43
0.30061	308.15	36580	982.6	0.43
0.30061	308.15	38600	983.6	0.43
0.30061	308.15	39620	984.1	0.43
0.30061	318.15	100	952.8	0.43
0.30061	318.15	2130	954.3	0.43
0.30061	318.15	4150	955.6	0.43
0.30061	318.15	6180	956.9	0.43
0.30061	318.15	8210	958.2	0.43
0.30061	318.15	10230	959.5	0.43
0.30061	318.15	11250	960.1	0.43
0.30061	318.15	12260	960.8	0.43
0.30061	318.15	14290	962	0.43
0.30061	318.15	16310	963.3	0.43
0.30061	318.15	18340	964.5	0.43
0.30061	318.15	20370	965.7	0.43
0.30061	318.15	22390	967	0.43
0.30061	318.15	24420	968.1	0.43
0.30061	318.15	26450	969.3	0.43
0.30061	318.15	28470	970.5	0.43
0.30061	318.15	29490	971.1	0.43
0.30061	318.15	30500	971.6	0.43
0.30061	318.15	32530	972.8	0.43
0.30061	318.15	34550	973.9	0.43
0.30061	318.15	36580	975	0.43
0.30061	318.15	38600	976.1	0.43
0.30061	318.15	39620	976.6	0.42
0.30061	328.15	100	944.4	0.43
0.30061	328.15	2130	945.7	0.43
0.30061	328.15	4150	947.1	0.43
0.30061	328.15	6180	948.5	0.43
0.30061	328.15	8210	949.9	0.43
0.30061	328.15	10230	951.2	0.43
0.30061	328.15	11250	951.9	0.43
0.30061	328.15	12260	952.5	0.43
0.30061	328.15	14290	953.9	0.43
0.30061	328.15	16310	955.2	0.43
0.30061	328.15	18340	956.5	0.43
0.30061	328.15	20370	957.7	0.43
0.30061	328.15	22390	959	0.43
0.30061	328.15	24420	960.2	0.43
0.30061	328.15	26450	961.5	0.43
0.30061	328.15	28470	962.7	0.43
0.30061	328.15	29490	963.3	0.43
0.30061	328.15	30500	963.9	0.43
0.30061	328.15	32530	965.1	0.43
0.30061	328.15	34550	966.2	0.43
0.30061	328.15	36580	967.4	0.43
0.30061	328.15	38600	968.6	0.43
0.30061	328.15	39620	969.1	0.42
0.3991	298.15	100	957.5	0.39
0.3991	298.15	2130	958.6	0.39
0.3991	298.15	4150	959.9	0.39
0.3991	298.15	6180	961.2	0.39
0.3991	298.15	8210	962.4	0.39
0.3991	298.15	10230	963.6	0.39
0.3991	298.15	11250	964.2	0.39
0.3991	298.15	12260	964.8	0.39
0.3991	298.15	14290	966	0.39
0.3991	298.15	16310	967.1	0.39
0.3991	298.15	18340	968.3	0.39
0.3991	298.15	20370	969.4	0.39
0.3991	298.15	22390	970.5	0.39
0.3991	298.15	24420	971.7	0.39
0.3991	298.15	26450	972.7	0.39
0.3991	298.15	28470	973.8	0.39
0.3991	298.15	29490	974.3	0.39
0.3991	298.15	30500	974.9	0.4
0.3991	298.15	32530	976	0.39
0.3991	298.15	34550	977	0.39
0.3991	298.15	36580	978	0.39
0.3991	298.15	38600	979	0.39
0.3991	298.15	39620	979.6	0.39
0.3991	308.15	100	948.7	0.39
0.3991	308.15	2130	950	0.39
0.3991	308.15	4150	951.3	0.39
0.3991	308.15	6180	952.6	0.39
0.3991	308.15	8210	953.9	0.39
0.3991	308.15	10230	955.2	0.39
0.3991	308.15	11250	955.7	0.39
0.3991	308.15	12260	956.4	0.39
0.3991	308.15	14290	957.6	0.39
0.3991	308.15	16310	958.9	0.39
0.3991	308.15	18340	960	0.39
0.3991	308.15	20370	961.2	0.39
0.3991	308.15	22390	962.4	0.39
0.3991	308.15	24420	963.6	0.39
0.3991	308.15	26450	964.7	0.39
0.3991	308.15	28470	965.9	0.39
0.3991	308.15	29490	966.4	0.39
0.3991	308.15	30500	967	0.4
0.3991	308.15	32530	968.1	0.39
0.3991	308.15	34550	969.2	0.39
0.3991	308.15	36580	970.2	0.39
0.3991	308.15	38600	971.3	0.4
0.3991	308.15	39620	971.9	0.39
0.3991	318.15	100	940	0.4
0.3991	318.15	2130	941.4	0.39
0.3991	318.15	4150	942.8	0.39
0.3991	318.15	6180	944.1	0.39
0.3991	318.15	8210	945.5	0.39
0.3991	318.15	10230	946.8	0.39
0.3991	318.15	11250	947.5	0.39
0.3991	318.15	12260	948.1	0.39
0.3991	318.15	14290	949.4	0.39
0.3991	318.15	16310	950.7	0.4
0.3991	318.15	18340	952	0.39
0.3991	318.15	20370	953.2	0.4
0.3991	318.15	22390	954.5	0.4
0.3991	318.15	24420	955.7	0.39
0.3991	318.15	26450	956.8	0.39
0.3991	318.15	28470	958	0.4
0.3991	318.15	29490	958.6	0.4
0.3991	318.15	30500	959.2	0.4
0.3991	318.15	32530	960.4	0.4
0.3991	318.15	34550	961.5	0.4
0.3991	318.15	36580	962.7	0.4
0.3991	318.15	38600	963.7	0.39
0.3991	318.15	39620	964.3	0.4
0.3991	328.15	100	931.4	0.4
0.3991	328.15	2130	932.8	0.39
0.3991	328.15	4150	934.3	0.39
0.3991	328.15	6180	935.7	0.39
0.3991	328.15	8210	937.1	0.39
0.3991	328.15	10230	938.5	0.39
0.3991	328.15	11250	939.2	0.4
0.3991	328.15	12260	939.9	0.4
0.3991	328.15	14290	941.2	0.4
0.3991	328.15	16310	942.6	0.4
0.3991	328.15	18340	943.9	0.4
0.3991	328.15	20370	945.2	0.4
0.3991	328.15	22390	946.5	0.4
0.3991	328.15	24420	947.7	0.4
0.3991	328.15	26450	949	0.4
0.3991	328.15	28470	950.2	0.4
0.3991	328.15	29490	950.8	0.4
0.3991	328.15	30500	951.5	0.4
0.3991	328.15	32530	952.7	0.4
0.3991	328.15	34550	953.9	0.4
0.3991	328.15	36580	955.1	0.4
0.3991	328.15	38600	956.2	0.4
0.3991	328.15	39620	956.9	0.39
0.49976	298.15	100	943.76	0.37
0.49976	298.15	2130	944.95	0.36
0.49976	298.15	4150	946.25	0.36
0.49976	298.15	6180	947.55	0.36
0.49976	298.15	8210	948.81	0.36
0.49976	298.15	10230	950.05	0.36
0.49976	298.15	11250	950.67	0.36
0.49976	298.15	12260	951.26	0.36
0.49976	298.15	14290	952.5	0.36
0.49976	298.15	16310	953.69	0.36
0.49976	298.15	18340	954.88	0.36
0.49976	298.15	20370	956.04	0.36
0.49976	298.15	22390	957.19	0.36
0.49976	298.15	24420	958.35	0.36
0.49976	298.15	26450	959.45	0.36
0.49976	298.15	28470	960.58	0.36
0.49976	298.15	29490	961.14	0.36
0.49976	298.15	30500	961.68	0.36
0.49976	298.15	32530	962.77	0.36
0.49976	298.15	34550	963.83	0.36
0.49976	298.15	36580	964.89	0.36
0.49976	298.15	38600	965.93	0.36
0.49976	298.15	39620	966.46	0.35
0.49976	308.15	100	934.98	0.37
0.49976	308.15	2130	936.3	0.36
0.49976	308.15	4150	937.68	0.36
0.49976	308.15	6180	939.04	0.36
0.49976	308.15	8210	940.34	0.36
0.49976	308.15	10230	941.64	0.36
0.49976	308.15	11250	942.3	0.36
0.49976	308.15	12260	942.94	0.36
0.49976	308.15	14290	944.22	0.36
0.49976	308.15	16310	945.46	0.36
0.49976	308.15	18340	946.72	0.36
0.49976	308.15	20370	947.92	0.36
0.49976	308.15	22390	949.14	0.36
0.49976	308.15	24420	950.33	0.36
0.49976	308.15	26450	951.5	0.36
0.49976	308.15	28470	952.65	0.36
0.49976	308.15	29490	953.24	0.36
0.49976	308.15	30500	953.82	0.37
0.49976	308.15	32530	954.96	0.36
0.49976	308.15	34550	956.07	0.36
0.49976	308.15	36580	957.16	0.36
0.49976	308.15	38600	958.24	0.36
0.49976	308.15	39620	958.83	0.35
0.49976	318.15	100	926.14	0.37
0.49976	318.15	2130	927.61	0.36
0.49976	318.15	4150	929.03	0.36
0.49976	318.15	6180	930.44	0.36
0.49976	318.15	8210	931.83	0.36
0.49976	318.15	10230	933.2	0.36
0.49976	318.15	11250	933.86	0.36
0.49976	318.15	12260	934.53	0.36
0.49976	318.15	14290	935.85	0.36
0.49976	318.15	16310	937.19	0.36
0.49976	318.15	18340	938.52	0.36
0.49976	318.15	20370	939.75	0.36
0.49976	318.15	22390	941.04	0.36
0.49976	318.15	24420	942.28	0.36
0.49976	318.15	26450	943.5	0.36
0.49976	318.15	28470	944.7	0.36
0.49976	318.15	29490	945.34	0.37
0.49976	318.15	30500	945.93	0.37
0.49976	318.15	32530	947.12	0.37
0.49976	318.15	34550	948.29	0.37
0.49976	318.15	36580	949.45	0.37
0.49976	318.15	38600	950.58	0.37
0.49976	318.15	39620	951.19	0.36
0.49976	328.15	100	917.54	0.37
0.49976	328.15	2130	918.96	0.36
0.49976	328.15	4150	920.45	0.36
0.49976	328.15	6180	921.95	0.36
0.49976	328.15	8210	923.37	0.36
0.49976	328.15	10230	924.82	0.36
0.49976	328.15	11250	925.52	0.36
0.49976	328.15	12260	926.2	0.37
0.49976	328.15	14290	927.61	0.37
0.49976	328.15	16310	928.98	0.37
0.49976	328.15	18340	930.34	0.37
0.49976	328.15	20370	931.69	0.37
0.49976	328.15	22390	933.04	0.37
0.49976	328.15	24420	934.34	0.37
0.49976	328.15	26450	935.61	0.37
0.49976	328.15	28470	936.91	0.37
0.49976	328.15	29490	937.56	0.37
0.49976	328.15	30500	938.18	0.37
0.49976	328.15	32530	939.41	0.37
0.49976	328.15	34550	940.65	0.37
0.49976	328.15	36580	941.85	0.37
0.49976	328.15	38600	943.07	0.37
0.49976	328.15	39620	943.64	0.36
0.60044	298.15	100	929.02	0.33
0.60044	298.15	2130	930.27	0.33
0.60044	298.15	4150	931.61	0.33
0.60044	298.15	6180	932.93	0.33
0.60044	298.15	8210	934.23	0.33
0.60044	298.15	10230	935.53	0.33
0.60044	298.15	11250	936.16	0.33
0.60044	298.15	12260	936.78	0.33
0.60044	298.15	14290	938.05	0.33
0.60044	298.15	16310	939.26	0.33
0.60044	298.15	18340	940.49	0.33
0.60044	298.15	20370	941.68	0.33
0.60044	298.15	22390	942.87	0.33
0.60044	298.15	24420	944.05	0.33
0.60044	298.15	26450	945.21	0.33
0.60044	298.15	28470	946.36	0.33
0.60044	298.15	29490	946.92	0.33
0.60044	298.15	30500	947.48	0.34
0.60044	298.15	32530	948.6	0.33
0.60044	298.15	34550	949.68	0.33
0.60044	298.15	36580	950.78	0.33
0.60044	298.15	38600	951.82	0.33
0.60044	298.15	39620	952.38	0.32
0.60044	308.15	100	920.13	0.33
0.60044	308.15	2130	921.52	0.33
0.60044	308.15	4150	922.91	0.33
0.60044	308.15	6180	924.29	0.33
0.60044	308.15	8210	925.65	0.33
0.60044	308.15	10230	927	0.33
0.60044	308.15	11250	927.66	0.33
0.60044	308.15	12260	928.33	0.33
0.60044	308.15	14290	929.64	0.33
0.60044	308.15	16310	930.91	0.33
0.60044	308.15	18340	932.19	0.33
0.60044	308.15	20370	933.45	0.34
0.60044	308.15	22390	934.71	0.34
0.60044	308.15	24420	935.93	0.34
0.60044	308.15	26450	937.14	0.34
0.60044	308.15	28470	938.32	0.34
0.60044	308.15	29490	938.92	0.34
0.60044	308.15	30500	939.51	0.34
0.60044	308.15	32530	940.68	0.34
0.60044	308.15	34550	941.83	0.34
0.60044	308.15	36580	942.97	0.34
0.60044	308.15	38600	944.07	0.34
0.60044	308.15	39620	944.64	0.34
0.60044	318.15	100	911.27	0.34
0.60044	318.15	2130	912.78	0.33
0.60044	318.15	4150	914.26	0.33
0.60044	318.15	6180	915.7	0.33
0.60044	318.15	8210	917.14	0.33
0.60044	318.15	10230	918.57	0.33
0.60044	318.15	11250	919.25	0.33
0.60044	318.15	12260	919.93	0.34
0.60044	318.15	14290	921.32	0.34
0.60044	318.15	16310	922.68	0.34
0.60044	318.15	18340	924.03	0.34
0.60044	318.15	20370	925.33	0.34
0.60044	318.15	22390	926.66	0.34
0.60044	318.15	24420	927.93	0.34
0.60044	318.15	26450	929.18	0.34
0.60044	318.15	28470	930.43	0.34
0.60044	318.15	29490	931.09	0.34
0.60044	318.15	30500	931.69	0.34
0.60044	318.15	32530	932.92	0.34
0.60044	318.15	34550	934.11	0.34
0.60044	318.15	36580	935.3	0.34
0.60044	318.15	38600	936.48	0.34
0.60044	318.15	39620	937.08	0.34
0.60044	328.15	100	902.56	0.34
0.60044	328.15	2130	904.06	0.33
0.60044	328.15	4150	905.6	0.34
0.60044	328.15	6180	907.14	0.34
0.60044	328.15	8210	908.63	0.34
0.60044	328.15	10230	910.11	0.34
0.60044	328.15	11250	910.85	0.34
0.60044	328.15	12260	911.57	0.34
0.60044	328.15	14290	913.02	0.34
0.60044	328.15	16310	914.44	0.34
0.60044	328.15	18340	915.83	0.34
0.60044	328.15	20370	917.22	0.34
0.60044	328.15	22390	918.61	0.34
0.60044	328.15	24420	919.95	0.34
0.60044	328.15	26450	921.26	0.35
0.60044	328.15	28470	922.59	0.35
0.60044	328.15	29490	923.26	0.35
0.60044	328.15	30500	923.89	0.35
0.60044	328.15	32530	925.17	0.35
0.60044	328.15	34550	926.43	0.35
0.60044	328.15	36580	927.68	0.35
0.60044	328.15	38600	928.95	0.35
0.60044	328.15	39620	929.53	0.34
0.7036	298.15	100	913.4	0.32
0.7036	298.15	2130	914.7	0.3
0.7036	298.15	4150	916	0.3
0.7036	298.15	6180	917.4	0.3
0.7036	298.15	8210	918.7	0.3
0.7036	298.15	10230	920	0.3
0.7036	298.15	11250	920.7	0.31
0.7036	298.15	12260	921.3	0.31
0.7036	298.15	14290	922.6	0.31
0.7036	298.15	16310	923.8	0.31
0.7036	298.15	18340	925.1	0.31
0.7036	298.15	20370	926.3	0.31
0.7036	298.15	22390	927.5	0.31
0.7036	298.15	24420	928.7	0.31
0.7036	298.15	26450	929.9	0.31
0.7036	298.15	28470	931.1	0.31
0.7036	298.15	29490	931.7	0.31
0.7036	298.15	30500	932.2	0.32
0.7036	298.15	32530	933.4	0.32
0.7036	298.15	34550	934.5	0.31
0.7036	298.15	36580	935.6	0.32
0.7036	298.15	38600	936.7	0.31
0.7036	298.15	39620	937.2	0.3
0.7036	308.15	100	904.3	0.31
0.7036	308.15	2130	905.8	0.31
0.7036	308.15	4150	907.2	0.31
0.7036	308.15	6180	908.7	0.31
0.7036	308.15	8210	910.1	0.31
0.7036	308.15	10230	911.4	0.31
0.7036	308.15	11250	912.1	0.31
0.7036	308.15	12260	912.8	0.31
0.7036	308.15	14290	914.1	0.31
0.7036	308.15	16310	915.4	0.31
0.7036	308.15	18340	916.8	0.31
0.7036	308.15	20370	918	0.31
0.7036	308.15	22390	919.3	0.32
0.7036	308.15	24420	920.6	0.32
0.7036	308.15	26450	921.8	0.32
0.7036	308.15	28470	923	0.32
0.7036	308.15	29490	923.6	0.32
0.7036	308.15	30500	924.2	0.32
0.7036	308.15	32530	925.4	0.32
0.7036	308.15	34550	926.6	0.32
0.7036	308.15	36580	927.7	0.32
0.7036	308.15	38600	928.9	0.32
0.7036	308.15	39620	929.5	0.32
0.7036	318.15	100	895.5	0.32
0.7036	318.15	2130	897	0.31
0.7036	318.15	4150	898.5	0.31
0.7036	318.15	6180	900	0.31
0.7036	318.15	8210	901.5	0.31
0.7036	318.15	10230	903	0.31
0.7036	318.15	11250	903.7	0.31
0.7036	318.15	12260	904.4	0.32
0.7036	318.15	14290	905.8	0.32
0.7036	318.15	16310	907.2	0.32
0.7036	318.15	18340	908.6	0.32
0.7036	318.15	20370	909.9	0.32
0.7036	318.15	22390	911.2	0.32
0.7036	318.15	24420	912.5	0.32
0.7036	318.15	26450	913.8	0.32
0.7036	318.15	28470	915.1	0.32
0.7036	318.15	29490	915.7	0.33
0.7036	318.15	30500	916.4	0.33
0.7036	318.15	32530	917.6	0.33
0.7036	318.15	34550	918.8	0.33
0.7036	318.15	36580	920	0.33
0.7036	318.15	38600	921.2	0.33
0.7036	318.15	39620	921.9	0.33
0.7036	328.15	100	886.7	0.33
0.7036	328.15	2130	888.3	0.31
0.7036	328.15	4150	889.9	0.32
0.7036	328.15	6180	891.5	0.31
0.7036	328.15	8210	893	0.31
0.7036	328.15	10230	894.5	0.31
0.7036	328.15	11250	895.3	0.32
0.7036	328.15	12260	896	0.32
0.7036	328.15	14290	897.5	0.32
0.7036	328.15	16310	898.9	0.32
0.7036	328.15	18340	900.4	0.32
0.7036	328.15	20370	901.8	0.32
0.7036	328.15	22390	903.2	0.33
0.7036	328.15	24420	904.6	0.33
0.7036	328.15	26450	905.9	0.33
0.7036	328.15	28470	907.2	0.33
0.7036	328.15	29490	908	0.33
0.7036	328.15	30500	908.6	0.33
0.7036	328.15	32530	909.9	0.33
0.7036	328.15	34550	911.2	0.34
0.7036	328.15	36580	912.5	0.34
0.7036	328.15	38600	913.7	0.34
0.7036	328.15	39620	914.4	0.32
0.80277	298.15	100	897.3	0.3
0.80277	298.15	2130	898.6	0.28
0.80277	298.15	4150	900	0.29
0.80277	298.15	6180	901.4	0.29
0.80277	298.15	8210	902.8	0.29
0.80277	298.15	10230	904.2	0.28
0.80277	298.15	11250	904.8	0.29
0.80277	298.15	12260	905.5	0.29
0.80277	298.15	14290	906.8	0.29
0.80277	298.15	16310	908.1	0.29
0.80277	298.15	18340	909.4	0.3
0.80277	298.15	20370	910.7	0.3
0.80277	298.15	22390	911.9	0.3
0.80277	298.15	24420	913.1	0.3
0.80277	298.15	26450	914.3	0.3
0.80277	298.15	28470	915.5	0.3
0.80277	298.15	29490	916.1	0.3
0.80277	298.15	30500	916.7	0.31
0.80277	298.15	32530	917.9	0.3
0.80277	298.15	34550	919	0.31
0.80277	298.15	36580	920.2	0.31
0.80277	298.15	38600	921.2	0.31
0.80277	298.15	39620	921.8	0.29
0.80277	308.15	100	888.2	0.3
0.80277	308.15	2130	889.7	0.29
0.80277	308.15	4150	891.1	0.29
0.80277	308.15	6180	892.6	0.29
0.80277	308.15	8210	894	0.29
0.80277	308.15	10230	895.5	0.29
0.80277	308.15	11250	896.2	0.29
0.80277	308.15	12260	896.9	0.3
0.80277	308.15	14290	898.3	0.3
0.80277	308.15	16310	899.6	0.3
0.80277	308.15	18340	901	0.3
0.80277	308.15	20370	902.3	0.3
0.80277	308.15	22390	903.6	0.3
0.80277	308.15	24420	904.9	0.31
0.80277	308.15	26450	906.2	0.31
0.80277	308.15	28470	907.4	0.31
0.80277	308.15	29490	908	0.31
0.80277	308.15	30500	908.7	0.31
0.80277	308.15	32530	909.9	0.31
0.80277	308.15	34550	911.1	0.31
0.80277	308.15	36580	912.3	0.32
0.80277	308.15	38600	913.4	0.32
0.80277	308.15	39620	914	0.31
0.80277	318.15	100	879.2	0.3
0.80277	318.15	2130	880.8	0.29
0.80277	318.15	4150	882.4	0.29
0.80277	318.15	6180	883.9	0.29
0.80277	318.15	8210	885.4	0.3
0.80277	318.15	10230	886.9	0.3
0.80277	318.15	11250	887.7	0.3
0.80277	318.15	12260	888.4	0.3
0.80277	318.15	14290	889.8	0.3
0.80277	318.15	16310	891.3	0.31
0.80277	318.15	18340	892.7	0.31
0.80277	318.15	20370	894.1	0.31
0.80277	318.15	22390	895.5	0.31
0.80277	318.15	24420	896.8	0.31
0.80277	318.15	26450	898.2	0.32
0.80277	318.15	28470	899.5	0.31
0.80277	318.15	29490	900.1	0.32
0.80277	318.15	30500	900.8	0.32
0.80277	318.15	32530	902.1	0.32
0.80277	318.15	34550	903.3	0.32
0.80277	318.15	36580	904.6	0.33
0.80277	318.15	38600	905.8	0.32
0.80277	318.15	39620	906.4	0.32
0.80277	328.15	100	870.2	0.31
0.80277	328.15	2130	871.8	0.3
0.80277	328.15	4150	873.5	0.3
0.80277	328.15	6180	875.1	0.3
0.80277	328.15	8210	876.7	0.3
0.80277	328.15	10230	878.3	0.3
0.80277	328.15	11250	879	0.3
0.80277	328.15	12260	879.8	0.31
0.80277	328.15	14290	881.4	0.31
0.80277	328.15	16310	882.9	0.31
0.80277	328.15	18340	884.4	0.31
0.80277	328.15	20370	885.8	0.31
0.80277	328.15	22390	887.3	0.32
0.80277	328.15	24420	888.7	0.32
0.80277	328.15	26450	890.1	0.32
0.80277	328.15	28470	891.5	0.32
0.80277	328.15	29490	892.2	0.33
0.80277	328.15	30500	892.9	0.33
0.80277	328.15	32530	894.2	0.33
0.80277	328.15	34550	895.6	0.33
0.80277	328.15	36580	896.9	0.33
0.80277	328.15	38600	898.2	0.33
0.80277	328.15	39620	898.8	0.32
0.90196	298.15	100	880.1	0.29
0.90196	298.15	2130	881.5	0.27
0.90196	298.15	4150	882.9	0.28
0.90196	298.15	6180	884.4	0.28
0.90196	298.15	8210	885.8	0.28
0.90196	298.15	10230	887.2	0.28
0.90196	298.15	11250	887.9	0.28
0.90196	298.15	12260	888.6	0.29
0.90196	298.15	14290	890	0.28
0.90196	298.15	16310	891.3	0.28
0.90196	298.15	18340	892.6	0.29
0.90196	298.15	20370	893.9	0.29
0.90196	298.15	22390	895.2	0.29
0.90196	298.15	24420	896.5	0.3
0.90196	298.15	26450	897.8	0.3
0.90196	298.15	28470	899	0.3
0.90196	298.15	29490	899.6	0.3
0.90196	298.15	30500	900.2	0.3
0.90196	298.15	32530	901.4	0.3
0.90196	298.15	34550	902.6	0.31
0.90196	298.15	36580	903.8	0.31
0.90196	298.15	38600	904.9	0.3
0.90196	298.15	39620	905.2	0.3
0.90196	308.15	100	871	0.28
0.90196	308.15	2130	872.5	0.28
0.90196	308.15	4150	874.1	0.28
0.90196	308.15	6180	875.6	0.28
0.90196	308.15	8210	877.1	0.28
0.90196	308.15	10230	878.6	0.28
0.90196	308.15	11250	879.3	0.28
0.90196	308.15	12260	880	0.29
0.90196	308.15	14290	881.5	0.29
0.90196	308.15	16310	882.9	0.29
0.90196	308.15	18340	884.3	0.29
0.90196	308.15	20370	885.6	0.3
0.90196	308.15	22390	887	0.3
0.90196	308.15	24420	888.3	0.3
0.90196	308.15	26450	889.7	0.31
0.90196	308.15	28470	891	0.31
0.90196	308.15	29490	891.6	0.31
0.90196	308.15	30500	892.2	0.31
0.90196	308.15	32530	893.5	0.31
0.90196	308.15	34550	894.7	0.32
0.90196	308.15	36580	896	0.32
0.90196	308.15	38600	897.2	0.32
0.90196	308.15	39620	897.8	0.31
0.90196	318.15	100	861.9	0.3
0.90196	318.15	2130	863.6	0.29
0.90196	318.15	4150	865.2	0.29
0.90196	318.15	6180	866.8	0.29
0.90196	318.15	8210	868.4	0.29
0.90196	318.15	10230	870	0.29
0.90196	318.15	11250	870.7	0.29
0.90196	318.15	12260	871.5	0.3
0.90196	318.15	14290	873	0.3
0.90196	318.15	16310	874.5	0.3
0.90196	318.15	18340	876	0.3
0.90196	318.15	20370	877.4	0.31
0.90196	318.15	22390	878.9	0.31
0.90196	318.15	24420	880.3	0.31
0.90196	318.15	26450	881.6	0.31
0.90196	318.15	28470	883	0.32
0.90196	318.15	29490	883.7	0.32
0.90196	318.15	30500	884.3	0.32
0.90196	318.15	32530	885.7	0.32
0.90196	318.15	34550	887	0.33
0.90196	318.15	36580	888.3	0.33
0.90196	318.15	38600	889.5	0.33
0.90196	318.15	39620	890.2	0.32
0.90196	328.15	100	852.8	0.31
0.90196	328.15	2130	854.5	0.29
0.90196	328.15	4150	856.2	0.29
0.90196	328.15	6180	857.9	0.3
0.90196	328.15	8210	859.6	0.3
0.90196	328.15	10230	861.2	0.29
0.90196	328.15	11250	862	0.3
0.90196	328.15	12260	862.8	0.31
0.90196	328.15	14290	864.5	0.31
0.90196	328.15	16310	866	0.31
0.90196	328.15	18340	867.6	0.31
0.90196	328.15	20370	869.1	0.31
0.90196	328.15	22390	870.6	0.31
0.90196	328.15	24420	872	0.32
0.90196	328.15	26450	873.5	0.32
0.90196	328.15	28470	874.9	0.33
0.90196	328.15	29490	875.7	0.33
0.90196	328.15	30500	876.4	0.33
0.90196	328.15	32530	877.7	0.33
0.90196	328.15	34550	879.1	0.34
0.90196	328.15	36580	880.4	0.34
0.90196	328.15	38600	881.8	0.34
0.90196	328.15	39620	882.4	0.33
1	298.15	100	862.1	0.26
1	298.15	2130	863.6	0.27
1	298.15	4150	865.2	0.27
1	298.15	6180	866.7	0.27
1	298.15	8210	868.2	0.27
1	298.15	10230	869.6	0.28
1	298.15	11250	870.4	0.28
1	298.15	12260	871.1	0.28
1	298.15	14290	872.5	0.28
1	298.15	16310	873.9	0.29
1	298.15	18340	875.3	0.29
1	298.15	20370	876.7	0.29
1	298.15	22390	878	0.29
1	298.15	24420	879.3	0.3
1	298.15	26450	880.6	0.3
1	298.15	28470	881.9	0.31
1	298.15	29490	882.5	0.31
1	298.15	30500	883.2	0.31
1	298.15	32530	884.4	0.31
1	298.15	34550	885.6	0.32
1	298.15	36580	886.8	0.32
1	298.15	38600	888	0.32
1	298.15	39620	888.6	0.33
1	308.15	100	853	0.27
1	308.15	2130	854.5	0.27
1	308.15	4150	856.2	0.28
1	308.15	6180	857.8	0.28
1	308.15	8210	859.3	0.28
1	308.15	10230	860.9	0.29
1	308.15	11250	861.7	0.29
1	308.15	12260	862.4	0.29
1	308.15	14290	863.9	0.29
1	308.15	16310	865.4	0.29
1	308.15	18340	866.8	0.3
1	308.15	20370	868.2	0.3
1	308.15	22390	869.6	0.3
1	308.15	24420	871	0.31
1	308.15	26450	872.4	0.31
1	308.15	28470	873.8	0.32
1	308.15	29490	874.4	0.31
1	308.15	30500	875	0.32
1	308.15	32530	876.3	0.32
1	308.15	34550	877.6	0.33
1	308.15	36580	878.9	0.33
1	308.15	38600	880.1	0.33
1	308.15	39620	880.7	0.35
1	318.15	100	843.8	0.29
1	318.15	2130	845.6	0.28
1	318.15	4150	847.3	0.29
1	318.15	6180	849	0.29
1	318.15	8210	850.6	0.29
1	318.15	10230	852.3	0.29
1	318.15	11250	853.1	0.29
1	318.15	12260	853.9	0.29
1	318.15	14290	855.4	0.3
1	318.15	16310	857	0.3
1	318.15	18340	858.5	0.3
1	318.15	20370	860	0.31
1	318.15	22390	861.5	0.31
1	318.15	24420	862.9	0.32
1	318.15	26450	864.4	0.32
1	318.15	28470	865.8	0.33
1	318.15	29490	866.5	0.33
1	318.15	30500	867.2	0.33
1	318.15	32530	868.5	0.33
1	318.15	34550	869.9	0.34
1	318.15	36580	871.2	0.34
1	318.15	38600	872.5	0.35
1	318.15	39620	873.2	0.35
1	328.15	100	834.5	0.3
1	328.15	2130	836.5	0.29
1	328.15	4150	838.3	0.29
1	328.15	6180	840.1	0.29
1	328.15	8210	841.8	0.3
1	328.15	10230	843.5	0.3
1	328.15	11250	844.4	0.3
1	328.15	12260	845.2	0.3
1	328.15	14290	846.9	0.31
1	328.15	16310	848.6	0.31
1	328.15	18340	850.1	0.31
1	328.15	20370	851.7	0.32
1	328.15	22390	853.3	0.32
1	328.15	24420	854.8	0.33
1	328.15	26450	856.3	0.33
1	328.15	28470	857.8	0.34
1	328.15	29490	858.5	0.34
1	328.15	30500	859.3	0.34
1	328.15	32530	860.7	0.34
1	328.15	34550	862.1	0.35
1	328.15	36580	863.5	0.35
1	328.15	38600	864.9	0.36
1	328.15	39620	865.5	0.35
