Measured thermophysical data. Thermophysical study of binary mixtures of 1-butyl-3-methylimidazolium nitrate ionic liquid + alcohols at different temperatures
Source: J. Chem. Thermodyn., 2019, 10.1016/j.jct.2019.04.010
Compound 1: 1-butyl-3-methylimidazolium nitrate, C8H15N3O3, InChI=1S/C8H15N2.NO3/c1-3-4-5-10-7-6-9(2)8-10;2-1(3)4/h6-8H,3-5H2,1-2H3;/q+1;-1, purity 98%
Compound 2: propan-2-ol, C3H8O, InChI=1S/C3H8O/c1-3(2)4/h3-4H,1-2H3, purity 99.7%
Compound 3: butan-2-ol, C4H10O, InChI=1S/C4H10O/c1-3-4(2)5/h4-5H,3H2,1-2H3, purity 99.5%
Compound 4: pentan-2-ol, C5H12O, InChI=1S/C5H12O/c1-3-4-5(2)6/h5-6H,3-4H2,1-2H3, purity 99%

System: 1-butyl-3-methylimidazolium nitrate; phases: Liquid
Fixed: Pressure, kPa = 100
Property: Mass density, kg/m3 (Liquid); method: Vibrating tube method
Temperature, K	Mass density, kg/m3	uncertainty
293.15	1158.3	1.5
298.15	1155.2	1.5
303.15	1152.3	1.5
308.15	1149.3	1.5
313.15	1146.5	1.5
318.15	1143.8	1.4
323.15	1141.2	1.4

System: 1-butyl-3-methylimidazolium nitrate; phases: Liquid
Fixed: Pressure, kPa = 100
Property: Viscosity, Pa*s (Liquid); method: Concentric cylinders viscometry
Temperature, K	Viscosity, Pa*s	uncertainty
293.15	0.22354	0.04496
298.15	0.16897	0.03393
303.15	0.12536	0.02515
308.15	0.09674	0.01939
313.15	0.07512	0.01505
318.15	0.05628	0.01127
323.15	0.04517	0.00905

System: 1-butyl-3-methylimidazolium nitrate + propan-2-ol; phases: Liquid
Fixed: Pressure, kPa = 100
Property: Mass density, kg/m3 (Liquid); method: Vibrating tube method
Temperature, K	Mole fraction of 1-butyl-3-methylimidazolium nitrate	Mass density, kg/m3	uncertainty
293.15	0	785.4	1
293.15	0.0815	853.9	1.8
293.15	0.1596	906.3	1.6
293.15	0.2405	951.1	1.4
293.15	0.3495	1000.3	1.3
293.15	0.4405	1034	1.2
293.15	0.5607	1070.7	1.2
293.15	0.6506	1093.8	1.2
293.15	0.7413	1114.1	1.2
293.15	0.8515	1135	1.3
293.15	0.9396	1149.7	1.4
293.15	1	1158.3	1.5
298.15	0	781.1	1
298.15	0.0815	849.9	1.8
298.15	0.1596	902.5	1.6
298.15	0.2405	947.4	1.4
298.15	0.3495	996.7	1.3
298.15	0.4405	1030.5	1.2
298.15	0.5607	1067.4	1.2
298.15	0.6506	1090.6	1.2
298.15	0.7413	1110.9	1.2
298.15	0.8515	1131.9	1.3
298.15	0.9396	1146.6	1.4
298.15	1	1155.2	1.5
303.15	0	776.8	1
303.15	0.0815	846	1.8
303.15	0.1596	898.7	1.6
303.15	0.2405	943.8	1.4
303.15	0.3495	993.2	1.3
303.15	0.4405	1027.2	1.2
303.15	0.5607	1064.2	1.2
303.15	0.6506	1087.4	1.2
303.15	0.7413	1107.9	1.2
303.15	0.8515	1129	1.3
303.15	0.9396	1143.6	1.4
303.15	1	1152.3	1.5
308.15	0	772.4	1
308.15	0.0815	841.9	1.8
308.15	0.1596	894.8	1.6
308.15	0.2405	940.1	1.4
308.15	0.3495	989.6	1.3
308.15	0.4405	1023.7	1.2
308.15	0.5607	1060.8	1.2
308.15	0.6506	1084.2	1.2
308.15	0.7413	1104.7	1.2
308.15	0.8515	1126	1.3
308.15	0.9396	1140.6	1.4
308.15	1	1149.3	1.5
313.15	0	768	1
313.15	0.0815	837.9	1.8
313.15	0.1596	891.1	1.6
313.15	0.2405	936.5	1.4
313.15	0.3495	986.4	1.3
313.15	0.4405	1020.6	1.2
313.15	0.5607	1057.8	1.2
313.15	0.6506	1081.3	1.2
313.15	0.7413	1101.7	1.2
313.15	0.8515	1123.2	1.3
313.15	0.9396	1137.8	1.4
313.15	1	1146.5	1.5
318.15	0	763.4	1
318.15	0.0815	833.7	1.9
318.15	0.1596	887.1	1.6
318.15	0.2405	932.8	1.4
318.15	0.3495	982.9	1.3
318.15	0.4405	1017.3	1.2
318.15	0.5607	1054.7	1.2
318.15	0.6506	1078.3	1.2
318.15	0.7413	1098.9	1.2
318.15	0.8515	1120.5	1.3
318.15	0.9396	1135	1.4
318.15	1	1143.8	1.4
323.15	0	758.8	1
323.15	0.0815	829.5	1.9
323.15	0.1596	883.3	1.6
323.15	0.2405	929.2	1.4
323.15	0.3495	979.5	1.3
323.15	0.4405	1014.1	1.2
323.15	0.5607	1051.7	1.2
323.15	0.6506	1075.4	1.2
323.15	0.7413	1096.1	1.2
323.15	0.8515	1117.8	1.3
323.15	0.9396	1132.5	1.4
323.15	1	1141.2	1.4

System: 1-butyl-3-methylimidazolium nitrate + propan-2-ol; phases: Liquid
Fixed: Pressure, kPa = 100
Property: Viscosity, Pa*s (Liquid); method: Concentric cylinders viscometry
Temperature, K	Mole fraction of 1-butyl-3-methylimidazolium nitrate	Viscosity, Pa*s	uncertainty
293.15	0	0.00242	0.00048
293.15	0.0815	0.00418	0.00084
293.15	0.1596	0.00688	0.00138
293.15	0.2405	0.01099	0.0022
293.15	0.3495	0.018	0.0036
293.15	0.4405	0.026	0.00521
293.15	0.5607	0.0398	0.00797
293.15	0.6506	0.05328	0.01067
293.15	0.7413	0.06994	0.01401
293.15	0.8515	0.1056	0.02118
293.15	0.9396	0.1577	0.0317
293.15	1	0.22354	0.04496
298.15	0	0.00208	0.00042
298.15	0.0815	0.00366	0.00073
298.15	0.1596	0.00595	0.00119
298.15	0.2405	0.00926	0.00186
298.15	0.3495	0.01542	0.00309
298.15	0.4405	0.022	0.00441
298.15	0.5607	0.03304	0.00662
298.15	0.6506	0.0429	0.00859
298.15	0.7413	0.0555	0.01112
298.15	0.8515	0.0816	0.01636
298.15	0.9396	0.1224	0.02457
298.15	1	0.16897	0.03393
303.15	0	0.0018	0.00036
303.15	0.0815	0.00329	0.00066
303.15	0.1596	0.00522	0.00105
303.15	0.2405	0.008	0.0016
303.15	0.3495	0.01283	0.00257
303.15	0.4405	0.01776	0.00356
303.15	0.5607	0.0264	0.00529
303.15	0.6506	0.03449	0.00691
303.15	0.7413	0.04529	0.00907
303.15	0.8515	0.0633	0.01268
303.15	0.9396	0.0903	0.01811
303.15	1	0.12536	0.02515
308.15	0	0.00156	0.00031
308.15	0.0815	0.00293	0.00059
308.15	0.1596	0.00455	0.00091
308.15	0.2405	0.00655	0.00131
308.15	0.3495	0.01013	0.00203
308.15	0.4405	0.01406	0.00282
308.15	0.5607	0.02079	0.00416
308.15	0.6506	0.02705	0.00542
308.15	0.7413	0.0362	0.00725
308.15	0.8515	0.0505	0.01012
308.15	0.9396	0.0724	0.01451
308.15	1	0.09674	0.01939
313.15	0	0.00136	0.00027
313.15	0.0815	0.00253	0.00051
313.15	0.1596	0.00395	0.00079
313.15	0.2405	0.0057	0.00114
313.15	0.3495	0.00896	0.00179
313.15	0.4405	0.01229	0.00246
313.15	0.5607	0.01793	0.00359
313.15	0.6506	0.02342	0.00469
313.15	0.7413	0.0306	0.00613
313.15	0.8515	0.0423	0.00847
313.15	0.9396	0.0587	0.01176
313.15	1	0.07512	0.01505
318.15	0	0.00119	0.00024
318.15	0.0815	0.00225	0.00045
318.15	0.1596	0.00353	0.00071
318.15	0.2405	0.00515	0.00103
318.15	0.3495	0.00791	0.00158
318.15	0.4405	0.01089	0.00218
318.15	0.5607	0.01575	0.00315
318.15	0.6506	0.02046	0.0041
318.15	0.7413	0.02605	0.00522
318.15	0.8515	0.0351	0.00703
318.15	0.9396	0.0459	0.0092
318.15	1	0.05628	0.01127
323.15	0	0.00105	0.00021
323.15	0.0815	0.002	0.0004
323.15	0.1596	0.00309	0.00062
323.15	0.2405	0.00461	0.00092
323.15	0.3495	0.00717	0.00144
323.15	0.4405	0.0098	0.00196
323.15	0.5607	0.01417	0.00284
323.15	0.6506	0.01814	0.00363
323.15	0.7413	0.02309	0.00462
323.15	0.8515	0.03031	0.00607
323.15	0.9396	0.03781	0.00757
323.15	1	0.04517	0.00905

System: 1-butyl-3-methylimidazolium nitrate + butan-2-ol; phases: Liquid
Fixed: Pressure, kPa = 100
Property: Mass density, kg/m3 (Liquid); method: Vibrating tube method
Temperature, K	Mole fraction of 1-butyl-3-methylimidazolium nitrate	Mass density, kg/m3	uncertainty
293.15	0	806.7	1
293.15	0.0813	860.4	1.6
293.15	0.1595	904.7	1.5
293.15	0.2402	944.9	1.4
293.15	0.35	991.2	1.3
293.15	0.4403	1023.7	1.2
293.15	0.5597	1060.8	1.2
293.15	0.6503	1085.4	1.2
293.15	0.7398	1107	1.3
293.15	0.8502	1130.6	1.4
293.15	0.9399	1147.7	1.4
293.15	1	1158.3	1.5
298.15	0	802.7	1
298.15	0.0813	856.7	1.6
298.15	0.1595	901.2	1.5
298.15	0.2402	941.3	1.4
298.15	0.35	987.7	1.3
298.15	0.4403	1020.3	1.2
298.15	0.5597	1057.5	1.2
298.15	0.6503	1082.1	1.2
298.15	0.7398	1103.8	1.3
298.15	0.8502	1127.6	1.4
298.15	0.9399	1144.7	1.4
298.15	1	1155.2	1.5
303.15	0	798.4	1
303.15	0.0813	852.6	1.6
303.15	0.1595	897.3	1.5
303.15	0.2402	937.4	1.4
303.15	0.35	984.1	1.3
303.15	0.4403	1016.8	1.2
303.15	0.5597	1054.2	1.2
303.15	0.6503	1078.9	1.2
303.15	0.7398	1100.8	1.3
303.15	0.8502	1124.6	1.3
303.15	0.9399	1141.8	1.4
303.15	1	1152.3	1.5
308.15	0	794.1	1
308.15	0.0813	848.6	1.6
308.15	0.1595	893.3	1.5
308.15	0.2402	933.6	1.4
308.15	0.35	980.4	1.3
308.15	0.4403	1013.3	1.2
308.15	0.5597	1050.9	1.2
308.15	0.6503	1075.7	1.2
308.15	0.7398	1097.6	1.3
308.15	0.8502	1121.7	1.3
308.15	0.9399	1138.9	1.4
308.15	1	1149.3	1.5
313.15	0	789.8	1
313.15	0.0813	844.6	1.6
313.15	0.1595	889.5	1.5
313.15	0.2402	929.8	1.4
313.15	0.35	976.9	1.3
313.15	0.4403	1009.9	1.2
313.15	0.5597	1047.7	1.2
313.15	0.6503	1072.7	1.2
313.15	0.7398	1094.7	1.3
313.15	0.8502	1118.8	1.3
313.15	0.9399	1136.1	1.4
313.15	1	1146.5	1.5
318.15	0	785.2	1
318.15	0.0813	840.2	1.6
318.15	0.1595	885.3	1.5
318.15	0.2402	925.8	1.4
318.15	0.35	973.4	1.3
318.15	0.4403	1006.6	1.2
318.15	0.5597	1044.5	1.2
318.15	0.6503	1069.6	1.2
318.15	0.7398	1091.8	1.3
318.15	0.8502	1116.1	1.3
318.15	0.9399	1133.5	1.4
318.15	1	1143.8	1.4
323.15	0	780.6	1
323.15	0.0813	836	1.6
323.15	0.1595	881.2	1.5
323.15	0.2402	921.9	1.4
323.15	0.35	969.7	1.3
323.15	0.4403	1003.1	1.2
323.15	0.5597	1041.3	1.2
323.15	0.6503	1066.5	1.2
323.15	0.7398	1088.9	1.3
323.15	0.8502	1113.4	1.3
323.15	0.9399	1130.9	1.4
323.15	1	1141.2	1.4

System: 1-butyl-3-methylimidazolium nitrate + butan-2-ol; phases: Liquid
Fixed: Pressure, kPa = 100
Property: Viscosity, Pa*s (Liquid); method: Concentric cylinders viscometry
Temperature, K	Mole fraction of 1-butyl-3-methylimidazolium nitrate	Viscosity, Pa*s	uncertainty
293.15	0	0.00367	0.00073
293.15	0.0813	0.00541	0.00108
293.15	0.1595	0.00732	0.00147
293.15	0.2402	0.01017	0.00204
293.15	0.35	0.01543	0.00309
293.15	0.4403	0.02165	0.00434
293.15	0.5597	0.03363	0.00673
293.15	0.6503	0.04665	0.00934
293.15	0.7398	0.065	0.01302
293.15	0.8502	0.1004	0.02014
293.15	0.9399	0.1564	0.03144
293.15	1	0.22354	0.04496
298.15	0	0.00304	0.00061
298.15	0.0813	0.00447	0.0009
298.15	0.1595	0.00612	0.00123
298.15	0.2402	0.00837	0.00168
298.15	0.35	0.01273	0.00255
298.15	0.4403	0.01792	0.00359
298.15	0.5597	0.02757	0.00552
298.15	0.6503	0.0382	0.00765
298.15	0.7398	0.0523	0.01048
298.15	0.8502	0.0792	0.01588
298.15	0.9399	0.119	0.02389
298.15	1	0.16897	0.03393
303.15	0	0.00254	0.00051
303.15	0.0813	0.00385	0.00077
303.15	0.1595	0.00531	0.00106
303.15	0.2402	0.00721	0.00144
303.15	0.35	0.01087	0.00218
303.15	0.4403	0.01515	0.00303
303.15	0.5597	0.02292	0.00459
303.15	0.6503	0.03082	0.00617
303.15	0.7398	0.0413	0.00827
303.15	0.8502	0.0623	0.01248
303.15	0.9399	0.092	0.01845
303.15	1	0.12536	0.02515
308.15	0	0.00213	0.00043
308.15	0.0813	0.00332	0.00066
308.15	0.1595	0.00458	0.00092
308.15	0.2402	0.00625	0.00125
308.15	0.35	0.00938	0.00188
308.15	0.4403	0.01293	0.00259
308.15	0.5597	0.01927	0.00386
308.15	0.6503	0.02557	0.00512
308.15	0.7398	0.0332	0.00665
308.15	0.8502	0.0488	0.00978
308.15	0.9399	0.0707	0.01417
308.15	1	0.09674	0.01939
313.15	0	0.0018	0.00036
313.15	0.0813	0.00283	0.00057
313.15	0.1595	0.00398	0.0008
313.15	0.2402	0.00546	0.00109
313.15	0.35	0.00816	0.00163
313.15	0.4403	0.01118	0.00224
313.15	0.5597	0.01639	0.00328
313.15	0.6503	0.02149	0.0043
313.15	0.7398	0.028	0.00561
313.15	0.8502	0.04	0.00801
313.15	0.9399	0.0566	0.01134
313.15	1	0.07512	0.01505
318.15	0	0.00154	0.00031
318.15	0.0813	0.00244	0.00049
318.15	0.1595	0.00347	0.00069
318.15	0.2402	0.00481	0.00096
318.15	0.35	0.00715	0.00143
318.15	0.4403	0.00972	0.00195
318.15	0.5597	0.01408	0.00282
318.15	0.6503	0.01826	0.00366
318.15	0.7398	0.0235	0.0047
318.15	0.8502	0.033	0.00661
318.15	0.9399	0.0444	0.0089
318.15	1	0.05628	0.01127
323.15	0	0.00133	0.00027
323.15	0.0813	0.00216	0.00043
323.15	0.1595	0.00306	0.00061
323.15	0.2402	0.00426	0.00085
323.15	0.35	0.00632	0.00127
323.15	0.4403	0.00853	0.00171
323.15	0.5597	0.01221	0.00244
323.15	0.6503	0.01568	0.00314
323.15	0.7398	0.0197	0.00395
323.15	0.8502	0.0272	0.00545
323.15	0.9399	0.0366	0.00733
323.15	1	0.04517	0.00905

System: 1-butyl-3-methylimidazolium nitrate + pentan-2-ol; phases: Liquid
Fixed: Pressure, kPa = 100
Property: Mass density, kg/m3 (Liquid); method: Vibrating tube method
Temperature, K	Mole fraction of 1-butyl-3-methylimidazolium nitrate	Mass density, kg/m3	uncertainty
293.15	0	809.3	1
293.15	0.0812	854	1.5
293.15	0.1604	893.6	1.4
293.15	0.2403	929.8	1.3
293.15	0.3499	974.3	1.3
293.15	0.4399	1007.1	1.3
293.15	0.5604	1046.7	1.3
293.15	0.6505	1073.3	1.3
293.15	0.7405	1097.8	1.3
293.15	0.8501	1124.9	1.4
293.15	0.9396	1145.3	1.5
293.15	1	1158.3	1.5
298.15	0	805.3	1
298.15	0.0812	850.4	1.5
298.15	0.1604	890.1	1.4
298.15	0.2403	926.4	1.3
298.15	0.3499	971.1	1.3
298.15	0.4399	1004	1.3
298.15	0.5604	1043.5	1.3
298.15	0.6505	1070.3	1.3
298.15	0.7405	1094.8	1.3
298.15	0.8501	1122	1.4
298.15	0.9396	1142.3	1.5
298.15	1	1155.2	1.5
303.15	0	801.2	1
303.15	0.0812	846.5	1.5
303.15	0.1604	886.5	1.4
303.15	0.2403	922.9	1.3
303.15	0.3499	967.8	1.3
303.15	0.4399	1000.7	1.3
303.15	0.5604	1040.5	1.3
303.15	0.6505	1067.4	1.3
303.15	0.7405	1092.1	1.3
303.15	0.8501	1119.3	1.4
303.15	0.9396	1139.5	1.5
303.15	1	1152.3	1.5
308.15	0	797	1
308.15	0.0812	842.8	1.5
308.15	0.1604	882.7	1.4
308.15	0.2403	919.4	1.4
308.15	0.3499	964.4	1.3
308.15	0.4399	997.5	1.3
308.15	0.5604	1037.4	1.3
308.15	0.6505	1064.4	1.3
308.15	0.7405	1089.1	1.3
308.15	0.8501	1116.3	1.4
308.15	0.9396	1136.5	1.5
308.15	1	1149.3	1.5
313.15	0	792.7	1
313.15	0.0812	838.8	1.5
313.15	0.1604	879.2	1.4
313.15	0.2403	916	1.4
313.15	0.3499	961.2	1.3
313.15	0.4399	994.4	1.3
313.15	0.5604	1034.4	1.3
313.15	0.6505	1061.4	1.3
313.15	0.7405	1086.1	1.3
313.15	0.8501	1113.4	1.4
313.15	0.9396	1133.8	1.5
313.15	1	1146.5	1.5
318.15	0	788.4	1
318.15	0.0812	834.7	1.5
318.15	0.1604	875.2	1.4
318.15	0.2403	912.1	1.4
318.15	0.3499	957.5	1.3
318.15	0.4399	990.9	1.3
318.15	0.5604	1031.1	1.3
318.15	0.6505	1058.3	1.3
318.15	0.7405	1083.2	1.3
318.15	0.8501	1110.7	1.4
318.15	0.9396	1131	1.5
318.15	1	1143.8	1.4
323.15	0	784	1
323.15	0.0812	830.7	1.5
323.15	0.1604	871.4	1.4
323.15	0.2403	908.7	1.4
323.15	0.3499	954.3	1.3
323.15	0.4399	987.9	1.3
323.15	0.5604	1028.2	1.3
323.15	0.6505	1055.5	1.3
323.15	0.7405	1080.5	1.3
323.15	0.8501	1108.1	1.4
323.15	0.9396	1128.4	1.5
323.15	1	1141.2	1.4

System: 1-butyl-3-methylimidazolium nitrate + pentan-2-ol; phases: Liquid
Fixed: Pressure, kPa = 100
Property: Viscosity, Pa*s (Liquid); method: Concentric cylinders viscometry
Temperature, K	Mole fraction of 1-butyl-3-methylimidazolium nitrate	Viscosity, Pa*s	uncertainty
293.15	0	0.00397	0.00079
293.15	0.0812	0.00447	0.00089
293.15	0.1604	0.00528	0.00106
293.15	0.2403	0.00643	0.00129
293.15	0.3499	0.00903	0.00181
293.15	0.4399	0.01256	0.00252
293.15	0.5604	0.02029	0.00407
293.15	0.6505	0.03081	0.00618
293.15	0.7405	0.0476	0.00955
293.15	0.8501	0.0833	0.01672
293.15	0.9396	0.1436	0.02888
293.15	1	0.22354	0.04496
298.15	0	0.00332	0.00066
298.15	0.0812	0.00369	0.00074
298.15	0.1604	0.00435	0.00087
298.15	0.2403	0.00539	0.00108
298.15	0.3499	0.00759	0.00152
298.15	0.4399	0.01053	0.00211
298.15	0.5604	0.01714	0.00343
298.15	0.6505	0.02547	0.0051
298.15	0.7405	0.03796	0.00761
298.15	0.8501	0.0634	0.01271
298.15	0.9396	0.1056	0.0212
298.15	1	0.16897	0.03393
303.15	0	0.00281	0.00056
303.15	0.0812	0.00316	0.00063
303.15	0.1604	0.00372	0.00074
303.15	0.2403	0.00465	0.00093
303.15	0.3499	0.00664	0.00133
303.15	0.4399	0.00914	0.00183
303.15	0.5604	0.01461	0.00293
303.15	0.6505	0.02135	0.00428
303.15	0.7405	0.03114	0.00624
303.15	0.8501	0.0503	0.01008
303.15	0.9396	0.0818	0.01642
303.15	1	0.12536	0.02515
308.15	0	0.00237	0.00047
308.15	0.0812	0.00274	0.00055
308.15	0.1604	0.00325	0.00065
308.15	0.2403	0.00408	0.00082
308.15	0.3499	0.00573	0.00115
308.15	0.4399	0.00789	0.00158
308.15	0.5604	0.01237	0.00248
308.15	0.6505	0.01774	0.00355
308.15	0.7405	0.02535	0.00508
308.15	0.8501	0.04	0.00802
308.15	0.9396	0.0634	0.01272
308.15	1	0.09674	0.01939
313.15	0	0.00199	0.0004
313.15	0.0812	0.0023	0.00046
313.15	0.1604	0.0028	0.00056
313.15	0.2403	0.00355	0.00071
313.15	0.3499	0.00505	0.00101
313.15	0.4399	0.00697	0.0014
313.15	0.5604	0.01051	0.00211
313.15	0.6505	0.01475	0.00296
313.15	0.7405	0.02064	0.00414
313.15	0.8501	0.0319	0.00639
313.15	0.9396	0.05	0.01003
313.15	1	0.07512	0.01505
318.15	0	0.00166	0.00033
318.15	0.0812	0.00195	0.00039
318.15	0.1604	0.0024	0.00048
318.15	0.2403	0.00305	0.00061
318.15	0.3499	0.00437	0.00088
318.15	0.4399	0.00591	0.00118
318.15	0.5604	0.00891	0.00178
318.15	0.6505	0.01221	0.00245
318.15	0.7405	0.01709	0.00342
318.15	0.8501	0.0265	0.00531
318.15	0.9396	0.04	0.00802
318.15	1	0.05628	0.01127
323.15	0	0.00139	0.00028
323.15	0.0812	0.00166	0.00033
323.15	0.1604	0.00199	0.0004
323.15	0.2403	0.00249	0.0005
323.15	0.3499	0.00356	0.00071
323.15	0.4399	0.00481	0.00096
323.15	0.5604	0.00713	0.00143
323.15	0.6505	0.00968	0.00194
323.15	0.7405	0.01367	0.00274
323.15	0.8501	0.02147	0.0043
323.15	0.9396	0.0323	0.00648
323.15	1	0.04517	0.00905
