Measured thermophysical data. Optical properties of binary and ternary liquid mixtures containing tetralin, isobutylbenzene and dodecane
Source: J. Chem. Thermodyn., 2013, 10.1016/j.jct.2013.01.026
Compound 1: 1,2,3,4-tetrahydronaphthalene, C10H12, InChI=1S/C10H12/c1-2-6-10-8-4-3-7-9(10)5-1/h1-2,5-6H,3-4,7-8H2, purity 98%
Compound 2: (2-methylpropyl)benzene, C10H14, InChI=1S/C10H14/c1-9(2)8-10-6-4-3-5-7-10/h3-7,9H,8H2,1-2H3, purity 99.5%
Compound 3: dodecane, C12H26, InChI=1S/C12H26/c1-3-5-7-9-11-12-10-8-6-4-2/h3-12H2,1-2H3, purity 99%

System: 1,2,3,4-tetrahydronaphthalene; phases: Liquid
Fixed: Temperature, K = 298.15
Fixed: Pressure, kPa = 101.3
Property: Refractive index (other wavelength) (Liquid); method: Standard Abbe refractometry
Wavelength, nm	Refractive index (other wavelength)	uncertainty
925	1.52642	0.00052
670	1.53479	0.00052

System: (2-methylpropyl)benzene; phases: Liquid
Fixed: Temperature, K = 298.15
Fixed: Pressure, kPa = 101.3
Property: Refractive index (other wavelength) (Liquid); method: Standard Abbe refractometry
Wavelength, nm	Refractive index (other wavelength)	uncertainty
925	1.47345	0.00035
670	1.48071	0.00035

System: dodecane; phases: Liquid
Fixed: Temperature, K = 298.15
Fixed: Pressure, kPa = 101.3
Property: Refractive index (other wavelength) (Liquid); method: Standard Abbe refractometry
Wavelength, nm	Refractive index (other wavelength)	uncertainty
925	1.41407	0.00039
670	1.41845	0.00039

System: 1,2,3,4-tetrahydronaphthalene + (2-methylpropyl)benzene; phases: Liquid
Fixed: Temperature, K = 298.15
Fixed: Pressure, kPa = 101.3
Property: Refractive index (other wavelength) (Liquid); method: Standard Abbe refractometry
Mass fraction of 1,2,3,4-tetrahydronaphthalene	Wavelength, nm	Refractive index (other wavelength)	uncertainty
0.8997	925	1.52005	0.0005
0.8001	925	1.51499	0.00048
0.699	925	1.5092	0.00046
0.6002	925	1.50413	0.00044
0.4996	925	1.49865	0.00042
0.3977	925	1.49344	0.0004
0.2999	925	1.48805	0.00039
0.2	925	1.48337	0.00038
0.1003	925	1.47803	0.00036
0	925	1.47345	0.00035
0.8997	670	1.52865	0.0005
0.8001	670	1.52313	0.00048
0.699	670	1.51743	0.00046
0.6002	670	1.51197	0.00044
0.4996	670	1.50663	0.00042
0.3977	670	1.50109	0.0004
0.2999	670	1.49587	0.00039
0.2	670	1.49084	0.00037
0.1003	670	1.48573	0.00036
0	670	1.48071	0.00035

System: dodecane + (2-methylpropyl)benzene; phases: Liquid
Fixed: Temperature, K = 298.15
Fixed: Pressure, kPa = 101.3
Property: Refractive index (other wavelength) (Liquid); method: Standard Abbe refractometry
Mass fraction of dodecane	Wavelength, nm	Refractive index (other wavelength)	uncertainty
0.9001	925	1.4187	0.00039
0.8002	925	1.42387	0.00038
0.7001	925	1.42884	0.00038
0.6	925	1.43444	0.00037
0.4999	925	1.44043	0.00037
0.4	925	1.44638	0.00037
0.3002	925	1.45266	0.00036
0.2001	925	1.45912	0.00036
0.0998	925	1.46604	0.00036
1	925	1.41407	0.00039
0.9001	670	1.42337	0.00039
0.8002	670	1.42875	0.00038
0.7001	670	1.43407	0.00038
0.6	670	1.44006	0.00037
0.4999	670	1.44607	0.00037
0.4	670	1.45233	0.00037
0.3002	670	1.45898	0.00036
0.2001	670	1.46588	0.00036
0.0998	670	1.47308	0.00036
1	670	1.41845	0.00039

System: dodecane + 1,2,3,4-tetrahydronaphthalene; phases: Liquid
Fixed: Temperature, K = 298.15
Fixed: Pressure, kPa = 101.3
Property: Refractive index (other wavelength) (Liquid); method: Standard Abbe refractometry
Mass fraction of dodecane	Wavelength, nm	Refractive index (other wavelength)	uncertainty
0.9001	925	1.42273	0.0004
0.8	925	1.43179	0.00042
0.6999	925	1.44149	0.00043
0.6002	925	1.45157	0.00044
0.4999	925	1.4622	0.00045
0.4001	925	1.47343	0.00047
0.2999	925	1.48558	0.00048
0.1999	925	1.49762	0.00049
0.1	925	1.51181	0.00051
0	925	1.52642	0.00052
0.9001	670	1.42736	0.0004
0.8	670	1.43694	0.00042
0.6999	670	1.44674	0.00043
0.6002	670	1.45728	0.00044
0.4999	670	1.46832	0.00045
0.4001	670	1.47987	0.00047
0.2999	670	1.49244	0.00048
0.1999	670	1.505	0.0005
0.1	670	1.51956	0.00051
0	670	1.53479	0.00052

System: dodecane + 1,2,3,4-tetrahydronaphthalene + (2-methylpropyl)benzene; phases: Liquid
Fixed: Temperature, K = 298.15
Fixed: Pressure, kPa = 101.3
Property: Refractive index (other wavelength) (Liquid); method: Standard Abbe refractometry
Mass fraction of 1,2,3,4-tetrahydronaphthalene	Mass fraction of (2-methylpropyl)benzene	Wavelength, nm	Refractive index (other wavelength)	uncertainty
0.0498	0.0996	925	1.42304	0.00039
0.0994	0.1	925	1.42756	0.0004
0.0997	0.1997	925	1.43344	0.00039
0.0998	0.7003	925	1.4641	0.00037
0.1001	0.8002	925	1.47105	0.00037
0.1478	0.4149	925	1.45052	0.00039
0.1494	0.0999	925	1.43224	0.0004
0.1996	0.2002	925	1.44311	0.0004
0.1999	0.7007	925	1.47598	0.00038
0.1999	0.0999	925	1.43701	0.00041
0.1999	0.2997	925	1.44912	0.0004
0.2003	0.3999	925	1.45544	0.00039
0.2422	0.424	925	1.46139	0.0004
0.2423	0.3334	925	1.4555	0.0004
0.2924	0.3742	925	1.46375	0.00041
0.2934	0.333	925	1.46107	0.00041
0.2995	0.2001	925	1.45354	0.00042
0.313	0.354	925	1.46467	0.00041
0.3132	0.3536	925	1.46472	0.00041
0.3133	0.3336	925	1.46333	0.00041
0.3135	0.333	925	1.46328	0.00041
0.3318	0.4211	925	1.4714	0.00041
0.3318	0.3722	925	1.46796	0.00041
0.332	0.2407	925	1.4593	0.00042
0.3327	0.3529	925	1.46684	0.00041
0.3333	0.3333	925	1.46646	0.00041
0.3334	0.333	925	1.46561	0.00041
0.3335	0.2928	925	1.46288	0.00041
0.3335	0.3134	925	1.46423	0.00041
0.3531	0.3134	925	1.46653	0.00042
0.3534	0.3132	925	1.46656	0.00042
0.3535	0.3336	925	1.46793	0.00041
0.354	0.3327	925	1.46796	0.00041
0.3707	0.3383	925	1.47022	0.00042
0.3736	0.2928	925	1.46737	0.00042
0.3738	0.3331	925	1.47022	0.00042
0.4002	0.4001	925	1.47833	0.00042
0.4003	0.4997	925	1.48584	0.00041
0.4243	0.3327	925	1.47608	0.00042
0.4244	0.2424	925	1.4698	0.00043
0.4996	0.3991	925	1.49067	0.00043
0.5151	0.2425	925	1.48053	0.00044
0.7001	0.1003	925	1.49332	0.00047
0.7004	0.1996	925	1.50118	0.00047
0.8005	0.0997	925	1.50647	0.00049
0.0498	0.0996	670	1.42753	0.00039
0.0994	0.1	670	1.43233	0.0004
0.0997	0.1997	670	1.43858	0.00039
0.0998	0.7003	670	1.47073	0.00037
0.1001	0.8002	670	1.47808	0.00037
0.1478	0.4149	670	1.45628	0.00039
0.1494	0.0999	670	1.43711	0.0004
0.1996	0.2002	670	1.44872	0.0004
0.1999	0.7007	670	1.48306	0.00038
0.1999	0.0999	670	1.44212	0.00041
0.1999	0.2997	670	1.45494	0.0004
0.2003	0.3999	670	1.46159	0.00039
0.2422	0.424	670	1.46762	0.0004
0.2423	0.3334	670	1.46147	0.0004
0.2924	0.3742	670	1.4701	0.00041
0.2934	0.333	670	1.46716	0.00041
0.2995	0.2001	670	1.45939	0.00042
0.313	0.354	670	1.47108	0.00041
0.3132	0.3536	670	1.47097	0.00041
0.3133	0.3336	670	1.46957	0.00041
0.3135	0.333	670	1.46955	0.00041
0.3318	0.4211	670	1.47803	0.00041
0.3318	0.3722	670	1.47433	0.00041
0.332	0.2407	670	1.46538	0.00042
0.3327	0.3529	670	1.47331	0.00041
0.3333	0.3333	670	1.47284	0.00041
0.3334	0.333	670	1.47285	0.00041
0.3335	0.2928	670	1.46955	0.00041
0.3335	0.3134	670	1.47063	0.00041
0.3531	0.3134	670	1.47294	0.00042
0.3534	0.3132	670	1.47285	0.00042
0.3535	0.3336	670	1.47464	0.00041
0.354	0.3327	670	1.47435	0.00042
0.3707	0.3383	670	1.47689	0.00042
0.3736	0.2928	670	1.47374	0.00042
0.3738	0.3331	670	1.47691	0.00042
0.4002	0.4001	670	1.48535	0.00042
0.4003	0.4997	670	1.49309	0.00041
0.4243	0.3327	670	1.48278	0.00042
0.4244	0.2424	670	1.47633	0.00043
0.4996	0.3991	670	1.49814	0.00043
0.5151	0.2425	670	1.48744	0.00044
0.7001	0.1003	670	1.50057	0.00047
0.7004	0.1996	670	1.50872	0.00047
0.8005	0.0997	670	1.51425	0.00049
