Measured thermophysical data. Thermodynamics of aqueous adenine: Standard partial molar volumes and heat capacities of adenine, adeninium chloride, and sodium adeninate from T = 283.15 K to 363.15 K
Source: J. Chem. Thermodyn., 2017, 10.1016/j.jct.2017.04.005
Compound 1: water, H2O, InChI=1S/H2O/h1H2, purity 99.9%
Compound 2: 6-amino-1H-purine, C5H5N5, InChI=1S/C5H5N5/c6-4-3-5(9-1-7-3)10-2-8-4/h1-2H,(H3,6,7,8,9,10), purity 99.5%
Compound 3: adenine hydrochloride, C5H6ClN5, InChI=1S/C5H5N5.ClH/c6-4-3-5(9-1-7-3)10-2-8-4;/h1-2H,(H3,6,7,8,9,10);1H, purity 99%
Compound 4: hydrogen chloride, ClH, InChI=1S/ClH/h1H, purity 98%
Compound 5: sodium adeninate, C5H4N5Na, InChI=1S/C5H4N5.Na/c6-4-3-5(9-1-7-3)10-2-8-4;/h1-2H,(H2-,6,7,8,9,10);/q-1;+1, purity 98%
Compound 6: sodium hydroxide, HNaO, InChI=1S/Na.H2O/h;1H2/q+1;/p-1, purity 99%

System: 6-amino-1H-purine + water; phases: Liquid
Fixed: Pressure, kPa = 100
Property: Mass density, kg/m3 (Liquid); method: Vibrating tube method
Molality, mol/kg of 6-amino-1H-purine	Temperature, K	Mass density, kg/m3	uncertainty
0.0058	288.15	0.273	0.032
0.0058	293.15	0.27	0.032
0.0058	298.15	0.265	0.032
0.0058	303.15	0.261	0.032
0.0058	308.15	0.257	0.032
0.0058	313.15	0.253	0.032
0.0058	318.15	0.25	0.032
0.0058	323.15	0.249	0.032
0.0058	328.15	0.247	0.032
0.0058	333.15	0.242	0.032
0.0058	338.15	0.24	0.032
0.0058	343.15	0.239	0.032
0.0058	348.15	0.237	0.032
0.0058	353.15	0.233	0.032
0.0058	358.15	0.238	0.032
0.0058	363.15	0.232	0.032
0.005803	288.15	0.26	0.036
0.005803	293.15	0.255	0.037
0.005803	298.15	0.252	0.036
0.005803	303.15	0.249	0.036
0.005803	308.15	0.246	0.035
0.005803	313.15	0.243	0.034
0.005803	318.15	0.241	0.034
0.005803	323.15	0.239	0.034
0.005803	328.15	0.238	0.034
0.005803	333.15	0.235	0.033
0.005803	338.15	0.233	0.033
0.005803	343.15	0.231	0.033
0.005803	348.15	0.231	0.033
0.005803	353.15	0.229	0.032
0.005803	358.15	0.227	0.035
0.005803	363.15	0.226	0.033
0.005798	288.15	0.267	0.032
0.005798	293.15	0.263	0.032
0.005798	298.15	0.259	0.032
0.005798	303.15	0.256	0.032
0.005798	308.15	0.253	0.032
0.005798	313.15	0.25	0.032
0.005798	318.15	0.248	0.032
0.005798	323.15	0.245	0.032
0.005798	328.15	0.241	0.032
0.005798	333.15	0.238	0.032
0.005798	338.15	0.236	0.032
0.005798	343.15	0.233	0.032
0.005798	348.15	0.231	0.032
0.005798	353.15	0.23	0.032
0.005798	358.15	0.227	0.034
0.005798	363.15	0.225	0.033

System: 6-amino-1H-purine + water; phases: Liquid
Fixed: Pressure, kPa = 400
Property: Heat capacity at constant pressure per volume, J/K/m3 (Liquid); method: DSC
Molality, mol/kg of 6-amino-1H-purine	Temperature, K	Heat capacity at constant pressure per volume, J/K/m3	uncertainty
0.0058	288.15	-946	104
0.0058	293.15	-936	80
0.0058	298.15	-938	87
0.0058	303.15	-923	47
0.0058	308.15	-919	39
0.0058	313.15	-913	39
0.0058	318.15	-900	48
0.0058	323.15	-889	50
0.0058	328.15	-872	40
0.0058	333.15	-869	35
0.0058	338.15	-863	34
0.0058	343.15	-854	36
0.0058	348.15	-836	35
0.0058	353.15	-829	34
0.0058	358.15	-818	34
0.0058	363.15	-806	34
0.005803	288.15	-959	45
0.005803	293.15	-932	40
0.005803	298.15	-908	49
0.005803	303.15	-897	49
0.005803	308.15	-885	54
0.005803	313.15	-880	57
0.005803	318.15	-871	54
0.005803	323.15	-854	54
0.005803	328.15	-847	48
0.005803	333.15	-837	53
0.005803	338.15	-829	58
0.005803	343.15	-814	61
0.005803	348.15	-802	52
0.005803	353.15	-799	55
0.005803	358.15	-785	52
0.005803	363.15	-774	52
0.005798	288.15	-981	121
0.005798	293.15	-970	73
0.005798	298.15	-960	54
0.005798	303.15	-936	40
0.005798	308.15	-921	36
0.005798	313.15	-911	42
0.005798	318.15	-896	45
0.005798	323.15	-885	50
0.005798	328.15	-865	52
0.005798	333.15	-852	54
0.005798	338.15	-842	58
0.005798	343.15	-842	41
0.005798	348.15	-832	39
0.005798	353.15	-824	60
0.005798	358.15	-812	49
0.005798	363.15	-804	51

System: adenine hydrochloride + hydrogen chloride + water; phases: Liquid
Fixed: Pressure, kPa = 100
Property: Mass density, kg/m3 (Liquid); method: Vibrating tube method
Molality, mol/kg of adenine hydrochloride	Molality, mol/kg of hydrogen chloride	Temperature, K	Mass density, kg/m3	uncertainty
0.040002	0.00045	288.15	2.55	0.033
0.040002	0.00045	293.15	2.517	0.033
0.040002	0.00045	298.15	2.489	0.033
0.040002	0.00045	303.15	2.462	0.033
0.040002	0.00045	308.15	2.441	0.033
0.040002	0.00045	313.15	2.424	0.033
0.040002	0.00045	318.15	2.41	0.033
0.040002	0.00045	323.15	2.398	0.033
0.040002	0.00045	328.15	2.387	0.033
0.040002	0.00045	333.15	2.378	0.033
0.040002	0.00045	338.15	2.37	0.033
0.040002	0.00045	343.15	2.365	0.033
0.040002	0.00045	348.15	2.36	0.033
0.040002	0.00045	353.15	2.36	0.033
0.040002	0.00045	358.15	2.363	0.033
0.040002	0.00045	363.15	2.37	0.033
0.038776	0.00038	288.15	2.468	0.041
0.038776	0.00038	293.15	2.436	0.033
0.038776	0.00038	298.15	2.41	0.033
0.038776	0.00038	303.15	2.384	0.033
0.038776	0.00038	308.15	2.363	0.033
0.038776	0.00038	313.15	2.347	0.033
0.038776	0.00038	318.15	2.331	0.033
0.038776	0.00038	323.15	2.32	0.033
0.038776	0.00038	328.15	2.311	0.033
0.038776	0.00038	333.15	2.302	0.033
0.038776	0.00038	338.15	2.297	0.033
0.038776	0.00038	343.15	2.292	0.033
0.038776	0.00038	348.15	2.289	0.033
0.038776	0.00038	353.15	2.289	0.033
0.038776	0.00038	358.15	2.292	0.033
0.038776	0.00038	363.15	2.299	0.033
0.040555	0.00039	288.15	2.576	0.033
0.040555	0.00039	293.15	2.542	0.033
0.040555	0.00039	298.15	2.514	0.033
0.040555	0.00039	303.15	2.488	0.033
0.040555	0.00039	308.15	2.467	0.033
0.040555	0.00039	313.15	2.451	0.033
0.040555	0.00039	318.15	2.436	0.033
0.040555	0.00039	323.15	2.425	0.033
0.040555	0.00039	328.15	2.415	0.033
0.040555	0.00039	333.15	2.406	0.033
0.040555	0.00039	338.15	2.399	0.033
0.040555	0.00039	343.15	2.393	0.033
0.040555	0.00039	348.15	2.391	0.033
0.040555	0.00039	353.15	2.393	0.033
0.040555	0.00039	358.15	2.395	0.033
0.040555	0.00039	363.15	2.404	0.033

System: adenine hydrochloride + hydrogen chloride + water; phases: Liquid
Fixed: Pressure, kPa = 400
Property: Heat capacity at constant pressure per volume, J/K/m3 (Liquid); method: DSC
Molality, mol/kg of adenine hydrochloride	Molality, mol/kg of hydrogen chloride	Temperature, K	Heat capacity at constant pressure per volume, J/K/m3	uncertainty
0.040002	0.00045	288.15	-12980	500
0.040002	0.00045	293.15	-12450	480
0.040002	0.00045	298.15	-11980	460
0.040002	0.00045	303.15	-11610	450
0.040002	0.00045	308.15	-11300	440
0.040002	0.00045	313.15	-11060	430
0.040002	0.00045	318.15	-10850	420
0.040002	0.00045	323.15	-10670	410
0.040002	0.00045	328.15	-10520	410
0.040002	0.00045	333.15	-10370	400
0.040002	0.00045	338.15	-10260	400
0.040002	0.00045	343.15	-10160	390
0.040002	0.00045	348.15	-10050	390
0.040002	0.00045	353.15	-9970	390
0.040002	0.00045	358.15	-9890	380
0.040002	0.00045	363.15	-9810	380
0.038776	0.00038	288.15	-12330	480
0.038776	0.00038	293.15	-11820	460
0.038776	0.00038	298.15	-11380	440
0.038776	0.00038	303.15	-11030	430
0.038776	0.00038	308.15	-10740	420
0.038776	0.00038	313.15	-10520	410
0.038776	0.00038	318.15	-10320	400
0.038776	0.00038	323.15	-10150	390
0.038776	0.00038	328.15	-10010	390
0.038776	0.00038	333.15	-9860	380
0.038776	0.00038	338.15	-9760	380
0.038776	0.00038	343.15	-9660	370
0.038776	0.00038	348.15	-9560	370
0.038776	0.00038	353.15	-9480	370
0.038776	0.00038	358.15	-9390	360
0.038776	0.00038	363.15	-9310	360
0.040555	0.00039	288.15	-12940	500
0.040555	0.00039	293.15	-12420	480
0.040555	0.00039	298.15	-11970	460
0.040555	0.00039	303.15	-11590	450
0.040555	0.00039	308.15	-11280	440
0.040555	0.00039	313.15	-11030	430
0.040555	0.00039	318.15	-10810	420
0.040555	0.00039	323.15	-10640	410
0.040555	0.00039	328.15	-10480	410
0.040555	0.00039	333.15	-10320	400
0.040555	0.00039	338.15	-10200	400
0.040555	0.00039	343.15	-10120	390
0.040555	0.00039	348.15	-10010	390
0.040555	0.00039	353.15	-9930	380
0.040555	0.00039	358.15	-9850	380
0.040555	0.00039	363.15	-9790	380

System: sodium hydroxide + water + sodium adeninate; phases: Liquid
Fixed: Pressure, kPa = 100
Property: Mass density, kg/m3 (Liquid); method: Vibrating tube method
Molality, mol/kg of sodium adeninate	Molality, mol/kg of sodium hydroxide	Temperature, K	Mass density, kg/m3	uncertainty
0.024321	0.002305	283.15	1.93	0.033
0.024321	0.002305	298.15	1.861	0.04
0.024321	0.002305	313.15	1.817	0.033
0.025001	0.00615	283.15	2.148	0.037
0.025001	0.00615	298.15	2.068	0.035
0.025001	0.00615	313.15	2.026	0.035
0.022413	0.000164	283.15	1.709	0.048
0.022413	0.000164	298.15	1.648	0.05
0.022413	0.000164	313.15	1.633	0.055

System: sodium hydroxide + water + sodium adeninate; phases: Liquid
Fixed: Pressure, kPa = 400
Property: Heat capacity at constant pressure per volume, J/K/m3 (Liquid); method: DSC
Molality, mol/kg of sodium adeninate	Molality, mol/kg of sodium hydroxide	Temperature, K	Heat capacity at constant pressure per volume, J/K/m3	uncertainty
0.024321	0.002305	283.15	-7990	310
0.024321	0.002305	298.15	-6390	350
0.024321	0.002305	313.15	-5500	290
0.025001	0.00615	283.15	-8380	440
0.025001	0.00615	298.15	-6690	410
0.025001	0.00615	313.15	-5750	310
0.022413	0.000164	283.15	-6570	330
0.022413	0.000164	298.15	-5300	340
0.022413	0.000164	313.15	-4570	270
