Measured thermophysical data. Volumetric and ultrasonic properties of ternary (sucrose + water + protic ionic liquid) solutions
Source: J. Chem. Thermodyn., 2015, 10.1016/j.jct.2015.05.002
Compound 1: D-sucrose, C12H22O11, InChI=1S/C12H22O11/c13-1-4-6(16)8(18)9(19)11(21-4)23-12(3-15)10(20)7(17)5(2-14)22-12/h4-11,13-20H,1-3H2/t4-,5-,6-,7-,8+,9-,10+,11-,12+/m1/s1, purity 98%
Compound 2: 3-hydroxypropylammonium formate, C4H11NO3, InChI=1S/C3H9NO.CH2O2/c4-2-1-3-5;2-1-3/h5H,1-4H2;1H,(H,2,3)
Compound 3: water, H2O, InChI=1S/H2O/h1H2

System: D-sucrose + water + 3-hydroxypropylammonium formate; phases: Liquid
Fixed: Pressure, kPa = 101.3
Property: Mass density, kg/m3 (Liquid); method: Vibrating tube method
Solvent: Molality, mol/kg of 3-hydroxypropylammonium formate	Temperature, K	Molality, mol/kg of D-sucrose	Mass density, kg/m3	uncertainty
0.1	293.15	0	999.816	0.646
0.1	293.15	0.05802	1007.325	0.658
0.1	293.15	0.07986	1010.099	0.662
0.1	293.15	0.10539	1013.309	0.667
0.1	293.15	0.14407	1018.104	0.674
0.1	293.15	0.17958	1022.429	0.68
0.1	293.15	0.24684	1030.442	0.693
0.1	298.15	0.05702	1005.979	0.656
0.1	298.15	0.0814	1009.061	0.66
0.1	298.15	0.09606	1010.898	0.663
0.1	298.15	0.11173	1012.848	0.666
0.1	298.15	0.12298	1014.239	0.668
0.1	298.15	0.2267	1026.75	0.687
0.1	303.15	0.05702	1004.529	0.653
0.1	303.15	0.0814	1007.596	0.658
0.1	303.15	0.09606	1009.424	0.66
0.1	303.15	0.11173	1011.362	0.663
0.1	303.15	0.12298	1012.747	0.665
0.1	303.15	0.2267	1025.191	0.685
0.1	308.15	0.05702	1002.897	0.651
0.1	308.15	0.0814	1005.95	0.655
0.1	308.15	0.09606	1007.767	0.658
0.1	308.15	0.11173	1009.699	0.661
0.1	308.15	0.12298	1011.077	0.661
0.1	308.15	0.2267	1023.453	0.682
0.1	313.15	0.05702	1001.005	0.648
0.1	313.15	0.0814	1004.044	0.652
0.1	313.15	0.09606	1005.856	0.655
0.1	313.15	0.11173	1007.781	0.657
0.1	313.15	0.12298	1009.153	0.659
0.1	313.15	0.2267	1021.485	0.679
0.1	318.15	0.05702	998.966	0.645
0.1	318.15	0.0814	1001.992	0.649
0.1	318.15	0.09606	1003.798	0.651
0.1	318.15	0.11173	1005.711	0.654
0.1	318.15	0.12298	1007.075	0.656
0.1	318.15	0.2267	1019.343	0.675
0.21	293.15	0	1001.608	0.649
0.21	293.15	0.04715	1007.734	0.659
0.21	293.15	0.07588	1011.405	0.664
0.21	293.15	0.09894	1014.318	0.668
0.21	293.15	0.13913	1019.327	0.676
0.21	293.15	0.16803	1022.875	0.681
0.21	293.15	0.23155	1030.52	0.694
0.21	298.15	0	1000.354	0.648
0.21	298.15	0.04006	1005.545	0.655
0.21	298.15	0.07338	1009.794	0.662
0.21	298.15	0.09655	1012.71	0.666
0.21	298.15	0.114	1014.887	0.669
0.21	298.15	0.15228	1019.61	0.676
0.21	298.15	0.23037	1029.001	0.691
0.21	303.15	0	998.914	0.646
0.21	303.15	0.04006	1004.081	0.653
0.21	303.15	0.07338	1008.309	0.659
0.21	303.15	0.09655	1011.212	0.663
0.21	303.15	0.114	1013.376	0.666
0.21	303.15	0.15228	1018.073	0.673
0.21	303.15	0.23037	1027.406	0.688
0.21	308.15	0	997.259	0.645
0.21	308.15	0.04006	1002.406	0.65
0.21	308.15	0.07338	1006.617	0.656
0.21	308.15	0.09655	1009.506	0.66
0.21	308.15	0.114	1011.664	0.664
0.21	308.15	0.15228	1016.343	0.671
0.21	308.15	0.23037	1025.641	0.685
0.21	313.15	0	995.402	0.643
0.21	313.15	0.04006	1000.536	0.647
0.21	313.15	0.07338	1004.738	0.653
0.21	313.15	0.09655	1007.623	0.657
0.21	313.15	0.114	1009.776	0.661
0.21	313.15	0.15228	1014.446	0.668
0.21	313.15	0.23037	1023.726	0.682
0.21	318.15	0	993.291	0.641
0.21	318.15	0.04006	998.401	0.645
0.21	318.15	0.07338	1002.581	0.65
0.21	318.15	0.09655	1005.448	0.654
0.21	318.15	0.114	1007.587	0.657
0.21	318.15	0.15228	1012.23	0.664
0.21	318.15	0.23037	1021.445	0.679
0.3	293.15	0	1003.079	0.652
0.3	293.15	0.04292	1008.77	0.661
0.3	293.15	0.05947	1010.935	0.664
0.3	293.15	0.0971	1015.799	0.671
0.3	293.15	0.10743	1017.12	0.673
0.3	293.15	0.14334	1021.666	0.68
0.3	293.15	0.20011	1028.706	0.691
0.3	298.15	0.04355	1007.505	0.66
0.3	298.15	0.05246	1008.667	0.66
0.3	298.15	0.09139	1013.693	0.668
0.3	298.15	0.10851	1015.874	0.671
0.3	298.15	0.13965	1019.804	0.677
0.3	298.15	0.19083	1026.15	0.687
0.3	303.15	0.04355	1006.014	0.657
0.3	303.15	0.05246	1007.169	0.657
0.3	303.15	0.09139	1012.167	0.665
0.3	303.15	0.10851	1014.338	0.669
0.3	303.15	0.13965	1018.245	0.674
0.3	303.15	0.19083	1024.552	0.684
0.3	308.15	0.04355	1004.318	0.655
0.3	308.15	0.05246	1005.468	0.654
0.3	308.15	0.09139	1010.446	0.663
0.3	308.15	0.10851	1012.606	0.666
0.3	308.15	0.13965	1016.493	0.671
0.3	308.15	0.19083	1022.772	0.681
0.3	313.15	0.04355	1002.423	0.652
0.3	313.15	0.05246	1003.568	0.65
0.3	313.15	0.09139	1008.525	0.659
0.3	313.15	0.10851	1010.677	0.663
0.3	313.15	0.13965	1014.547	0.668
0.3	313.15	0.19083	1020.796	0.678
0.3	318.15	0.04355	1000.268	0.647
0.3	318.15	0.05246	1001.408	0.648
0.3	318.15	0.09139	1006.34	0.656
0.3	318.15	0.10851	1008.481	0.659
0.3	318.15	0.13965	1012.335	0.665
0.3	318.15	0.19083	1018.555	0.674
0.42	293.15	0	1005.089	0.655
0.42	293.15	0.03165	1009.322	0.662
0.42	293.15	0.04847	1011.547	0.665
0.42	293.15	0.09634	1017.791	0.675
0.42	293.15	0.10908	1019.43	0.677
0.42	293.15	0.12983	1022.081	0.681
0.42	293.15	0.20572	1031.575	0.696
0.42	298.15	0	1003.639	0.653
0.42	298.15	0.02858	1007.444	0.659
0.42	298.15	0.04902	1010.135	0.663
0.42	298.15	0.07068	1012.961	0.667
0.42	298.15	0.07766	1013.864	0.668
0.42	298.15	0.08561	1014.89	0.67
0.42	298.15	0.20865	1030.334	0.694
0.42	303.15	0	1002.147	0.651
0.42	303.15	0.02858	1005.936	0.656
0.42	303.15	0.04902	1008.616	0.66
0.42	303.15	0.07068	1011.43	0.664
0.42	303.15	0.07766	1012.331	0.666
0.42	303.15	0.08561	1013.353	0.666
0.42	303.15	0.20865	1028.742	0.691
0.42	308.15	0	1000.449	0.648
0.42	308.15	0.02858	1004.221	0.654
0.42	308.15	0.04902	1006.89	0.658
0.42	308.15	0.07068	1009.691	0.662
0.42	308.15	0.07766	1010.587	0.663
0.42	308.15	0.08561	1011.604	0.663
0.42	308.15	0.20865	1026.924	0.688
0.42	313.15	0	998.562	0.646
0.42	313.15	0.02858	1002.324	0.651
0.42	313.15	0.04902	1004.985	0.654
0.42	313.15	0.07068	1007.779	0.658
0.42	313.15	0.07766	1008.673	0.66
0.42	313.15	0.08561	1009.688	0.66
0.42	313.15	0.20865	1024.97	0.685
0.42	318.15	0	996.504	0.644
0.42	318.15	0.02858	1000.247	0.647
0.42	318.15	0.04902	1002.895	0.651
0.42	318.15	0.07068	1005.675	0.655
0.42	318.15	0.07766	1006.565	0.656
0.42	318.15	0.08561	1007.573	0.658
0.42	318.15	0.20865	1022.777	0.682

System: D-sucrose + water + 3-hydroxypropylammonium formate; phases: Liquid
Fixed: Pressure, kPa = 101.3
Fixed: Frequency, MHz = 3
Property: Speed of sound, m/s (Liquid); method: Sing-around technique in a fixed-path interferometer
Solvent: Molality, mol/kg of 3-hydroxypropylammonium formate	Temperature, K	Molality, mol/kg of D-sucrose	Speed of sound, m/s	uncertainty
0.1	293.15	0	1489.56	2.73
0.1	293.15	0.05802	1494.79	2.73
0.1	293.15	0.07986	1496.92	2.73
0.1	293.15	0.10539	1499.43	2.73
0.1	293.15	0.14407	1503.26	2.73
0.1	293.15	0.17958	1506.83	2.73
0.1	293.15	0.24684	1513.59	2.73
0.1	298.15	0.05702	1506.92	2.73
0.1	298.15	0.0814	1509.14	2.73
0.1	298.15	0.09606	1510.48	2.73
0.1	298.15	0.11173	1511.92	2.73
0.1	298.15	0.12298	1512.94	2.73
0.1	298.15	0.2267	1522.6	2.73
0.1	303.15	0.05702	1518.07	2.73
0.1	303.15	0.0814	1520.21	2.73
0.1	303.15	0.09606	1521.5	2.73
0.1	303.15	0.11173	1522.89	2.73
0.1	303.15	0.12298	1523.89	2.73
0.1	303.15	0.2267	1533.23	2.73
0.1	308.15	0.05702	1527.88	2.73
0.1	308.15	0.0814	1529.98	2.73
0.1	308.15	0.09606	1531.24	2.73
0.1	308.15	0.11173	1532.6	2.73
0.1	308.15	0.12298	1533.57	2.73
0.1	308.15	0.2267	1542.71	2.73
0.1	313.15	0.05702	1536.22	2.73
0.1	313.15	0.0814	1538.25	2.73
0.1	313.15	0.09606	1539.47	2.73
0.1	313.15	0.11173	1540.78	2.73
0.1	313.15	0.12298	1541.72	2.73
0.1	313.15	0.2267	1550.57	2.74
0.1	318.15	0.05702	1544.82	2.73
0.1	318.15	0.0814	1546.77	2.73
0.1	318.15	0.09606	1547.95	2.73
0.1	318.15	0.11173	1549.21	2.74
0.1	318.15	0.12298	1550.13	2.74
0.1	318.15	0.2267	1558.67	2.74
0.21	293.15	0	1496.43	2.73
0.21	293.15	0.04715	1500.82	2.73
0.21	293.15	0.07588	1503.67	2.73
0.21	293.15	0.09894	1505.98	2.73
0.21	293.15	0.13913	1510.03	2.73
0.21	293.15	0.16803	1512.96	2.73
0.21	293.15	0.23155	1519.47	2.73
0.21	298.15	0	1508.31	2.73
0.21	298.15	0.04006	1512.69	2.73
0.21	298.15	0.07338	1515.79	2.73
0.21	298.15	0.09655	1517.95	2.73
0.21	298.15	0.114	1519.59	2.73
0.21	298.15	0.15228	1523.21	2.73
0.21	298.15	0.23037	1530.68	2.73
0.21	303.15	0	1519.59	2.73
0.21	303.15	0.04006	1522.29	2.73
0.21	303.15	0.07338	1525.24	2.73
0.21	303.15	0.09655	1527.31	2.73
0.21	303.15	0.114	1528.88	2.73
0.21	303.15	0.15228	1532.34	2.73
0.21	303.15	0.23037	1539.54	2.73
0.21	308.15	0	1529.42	2.73
0.21	308.15	0.04006	1532.32	2.73
0.21	308.15	0.07338	1535.24	2.73
0.21	308.15	0.09655	1537.28	2.73
0.21	308.15	0.114	1538.82	2.73
0.21	308.15	0.15228	1542.24	2.73
0.21	308.15	0.23037	1549.29	2.74
0.21	313.15	0	1538.02	2.73
0.21	313.15	0.04006	1540.79	2.73
0.21	313.15	0.07338	1543.57	2.73
0.21	313.15	0.09655	1545.52	2.73
0.21	313.15	0.114	1547	2.73
0.21	313.15	0.15228	1550.26	2.74
0.21	313.15	0.23037	1557.01	2.74
0.21	318.15	0	1544.96	2.73
0.21	318.15	0.04006	1547.75	2.73
0.21	318.15	0.07338	1550.43	2.74
0.21	318.15	0.09655	1552.31	2.74
0.21	318.15	0.114	1553.73	2.74
0.21	318.15	0.15228	1556.87	2.74
0.21	318.15	0.23037	1563.36	2.74
0.3	293.15	0	1502.56	2.73
0.3	293.15	0.04292	1505.98	2.73
0.3	293.15	0.05947	1507.59	2.73
0.3	293.15	0.0971	1511.29	2.73
0.3	293.15	0.10743	1512.3	2.73
0.3	293.15	0.14334	1515.88	2.73
0.3	293.15	0.20011	1521.6	2.73
0.3	298.15	0.04355	1517.05	2.73
0.3	298.15	0.05246	1517.86	2.73
0.3	298.15	0.09139	1521.42	2.73
0.3	298.15	0.10851	1523	2.73
0.3	298.15	0.13965	1525.88	2.73
0.3	298.15	0.19083	1530.67	2.73
0.3	303.15	0.04355	1528.55	2.73
0.3	303.15	0.05246	1529.33	2.73
0.3	303.15	0.09139	1532.77	2.73
0.3	303.15	0.10851	1534.3	2.73
0.3	303.15	0.13965	1537.08	2.73
0.3	303.15	0.19083	1541.71	2.73
0.3	308.15	0.04355	1536.91	2.73
0.3	308.15	0.05246	1537.68	2.73
0.3	308.15	0.09139	1541.05	2.73
0.3	308.15	0.10851	1542.55	2.73
0.3	308.15	0.13965	1545.29	2.73
0.3	308.15	0.19083	1549.84	2.74
0.3	313.15	0.04355	1545.46	2.73
0.3	313.15	0.05246	1546.21	2.73
0.3	313.15	0.09139	1549.46	2.74
0.3	313.15	0.10851	1550.91	2.74
0.3	313.15	0.13965	1553.56	2.74
0.3	313.15	0.19083	1557.95	2.74
0.3	318.15	0.04355	1552.5	2.74
0.3	318.15	0.05246	1553.22	2.74
0.3	318.15	0.09139	1556.36	2.74
0.3	318.15	0.10851	1557.75	2.74
0.3	318.15	0.13965	1560.3	2.74
0.3	318.15	0.19083	1564.53	2.74
0.42	293.15	0	1510.71	2.73
0.42	293.15	0.03165	1513.69	2.73
0.42	293.15	0.04847	1515.34	2.73
0.42	293.15	0.09634	1520.07	2.73
0.42	293.15	0.10908	1521.34	2.73
0.42	293.15	0.12983	1523.42	2.73
0.42	293.15	0.20572	1531.09	2.73
0.42	298.15	0	1519.97	2.73
0.42	298.15	0.02858	1523.04	2.73
0.42	298.15	0.04902	1524.91	2.73
0.42	298.15	0.07068	1526.9	2.73
0.42	298.15	0.07766	1527.55	2.73
0.42	298.15	0.08561	1528.28	2.73
0.42	298.15	0.20865	1539.86	2.73
0.42	303.15	0	1530.45	2.73
0.42	303.15	0.02858	1532.98	2.73
0.42	303.15	0.04902	1534.78	2.73
0.42	303.15	0.07068	1536.7	2.73
0.42	303.15	0.07766	1537.32	2.73
0.42	303.15	0.08561	1538.03	2.73
0.42	303.15	0.20865	1549.16	2.74
0.42	308.15	0	1540.28	2.73
0.42	308.15	0.02858	1543.31	2.73
0.42	308.15	0.04902	1545.07	2.73
0.42	308.15	0.07068	1546.96	2.74
0.42	308.15	0.07766	1547.57	2.74
0.42	308.15	0.08561	1548.26	2.74
0.42	308.15	0.20865	1559.23	2.74
0.42	313.15	0	1547.9	2.73
0.42	313.15	0.02858	1550.21	2.74
0.42	313.15	0.04902	1551.93	2.74
0.42	313.15	0.07068	1553.76	2.74
0.42	313.15	0.07766	1554.35	2.74
0.42	313.15	0.08561	1555.03	2.74
0.42	313.15	0.20865	1565.65	2.74
0.42	318.15	0	1554.33	2.74
0.42	318.15	0.02858	1557.31	2.74
0.42	318.15	0.04902	1558.96	2.74
0.42	318.15	0.07068	1560.72	2.74
0.42	318.15	0.07766	1561.29	2.74
0.42	318.15	0.08561	1561.94	2.74
0.42	318.15	0.20865	1572.16	2.74

System: water + 3-hydroxypropylammonium formate; phases: Liquid
Fixed: Pressure, kPa = 101.3
Property: Mass density, kg/m3 (Liquid); method: Vibrating tube method
Molality, mol/kg of 3-hydroxypropylammonium formate	Temperature, K	Mass density, kg/m3	uncertainty
0.1	293.15	999.816	0.646
0.21	293.15	1001.608	0.649
0.21	298.15	1000.354	0.648
0.21	303.15	998.914	0.646
0.21	308.15	997.259	0.645
0.21	313.15	995.402	0.643
0.21	318.15	993.291	0.641
0.3	293.15	1003.079	0.652
0.42	293.15	1005.089	0.655
0.42	298.15	1003.639	0.653
0.42	303.15	1002.147	0.651
0.42	308.15	1000.449	0.648
0.42	313.15	998.562	0.646
0.42	318.15	996.504	0.644

System: water + 3-hydroxypropylammonium formate; phases: Liquid
Fixed: Pressure, kPa = 101.3
Fixed: Frequency, MHz = 3
Property: Speed of sound, m/s (Liquid); method: Sing-around technique in a fixed-path interferometer
Molality, mol/kg of 3-hydroxypropylammonium formate	Temperature, K	Speed of sound, m/s	uncertainty
0.1	293.15	1489.56	2.73
0.21	293.15	1496.43	2.73
0.21	298.15	1508.31	2.73
0.21	303.15	1519.59	2.73
0.21	308.15	1529.42	2.73
0.21	313.15	1538.02	2.73
0.21	318.15	1544.96	2.73
0.3	293.15	1502.56	2.73
0.42	293.15	1510.71	2.73
0.42	298.15	1519.97	2.73
0.42	303.15	1530.45	2.73
0.42	308.15	1540.28	2.73
0.42	313.15	1547.9	2.73
0.42	318.15	1554.33	2.74
