Measured thermophysical data. Experimental study on the thermochemistry of 3-nitrobenzophenone, 4-nitrobenzophenone and 3,3'-dinitrobenzophenone
Source: J. Chem. Thermodyn., 2011, 10.1016/j.jct.2010.11.005
Compound 1: carbon dioxide, CO2, InChI=1S/CO2/c2-1-3
Compound 2: nitrogen, N2, InChI=1S/N2/c1-2
Compound 3: water, H2O, InChI=1S/H2O/h1H2
Compound 4: oxygen, O2, InChI=1S/O2/c1-2
Compound 5: 4-nitrobenzophenone, C13H9NO3, InChI=1S/C13H9NO3/c15-13(10-4-2-1-3-5-10)11-6-8-12(9-7-11)14(16)17/h1-9H, purity 99%
Compound 6: 3-nitrobenzophenone, C13H9NO3, InChI=1S/C13H9NO3/c15-13(10-5-2-1-3-6-10)11-7-4-8-12(9-11)14(16)17/h1-9H, purity 97%
Compound 7: 3,3'-dinitrobenzophenone, C13H8N2O5, InChI=1S/C13H8N2O5/c16-13(9-3-1-5-11(7-9)14(17)18)10-4-2-6-12(8-10)15(19)20/h1-8H, purity 96%

System: 4-nitrobenzophenone; phases: Crystal, Gas
Property: Molar enthalpy of vaporization or sublimation, kJ/mol (Crystal); method: Calvet microcalorimetry
Temperature, K	Molar enthalpy of vaporization or sublimation, kJ/mol	uncertainty
298.15	122.3	5.4

System: 4-nitrobenzophenone; phases: Crystal, Gas
Property: Vapor or sublimation pressure, kPa (Crystal); method: Calculated from knudsen effusion weight loss
Temperature, K	Vapor or sublimation pressure, kPa	uncertainty
359.27	0.00018	9e-06
361.19	0.000214	1.1e-05
363.12	0.000259	1.3e-05
365.29	0.000342	1.7e-05
367.2	0.000427	2.1e-05
369.12	0.000523	2.6e-05
371.29	0.000657	3.3e-05
373.18	0.000791	4e-05
375.1	0.00096	4.8e-05
359.27	0.000174	9e-06
361.19	0.000215	1.1e-05
363.12	0.000269	1.3e-05
365.29	0.000344	1.7e-05
367.2	0.000422	2.1e-05
369.12	0.000512	2.6e-05
371.29	0.000652	3.3e-05
373.18	0.000767	3.8e-05
375.1	0.000955	4.8e-05
359.27	0.000177	9e-06
361.19	0.00021	1.1e-05
363.12	0.000265	1.3e-05
365.29	0.000344	1.7e-05
367.2	0.00042	2.1e-05
369.12	0.000509	2.5e-05
371.29	0.000645	3.2e-05
373.18	0.000769	3.8e-05
375.1	0.000941	4.7e-05

System: 4-nitrobenzophenone; phases: Gas
Property: Molar enthalpy, kJ/mol (Gas); method: Drop calorimetry
Temperature, K	Pressure, kPa	Molar enthalpy, kJ/mol	uncertainty
417	101.325	150.5	3.5

System: 3-nitrobenzophenone; phases: Crystal, Gas
Property: Molar enthalpy of vaporization or sublimation, kJ/mol (Crystal); method: Calvet microcalorimetry
Temperature, K	Molar enthalpy of vaporization or sublimation, kJ/mol	uncertainty
298.15	123.3	4.8

System: 3-nitrobenzophenone; phases: Crystal, Gas
Property: Vapor or sublimation pressure, kPa (Crystal); method: Calculated from knudsen effusion weight loss
Temperature, K	Vapor or sublimation pressure, kPa	uncertainty
349.27	0.00016	8e-06
351.21	0.000198	1e-05
353.12	0.000244	1.2e-05
355.13	0.000308	1.5e-05
357.21	0.000395	2e-05
359.26	0.000508	2.5e-05
361.26	0.000614	3.1e-05
363.2	0.000771	3.9e-05
365.12	0.000946	4.7e-05
349.27	0.000162	8e-06
351.21	0.000194	1e-05
353.12	0.000248	1.2e-05
355.13	0.000315	1.6e-05
357.21	0.000399	2e-05
359.26	0.000506	2.5e-05
361.26	0.000613	3.1e-05
363.2	0.000758	3.8e-05
365.12	0.000936	4.7e-05
349.27	0.000161	8e-06
351.21	0.000194	1e-05
353.12	0.000245	1.2e-05
355.13	0.000315	1.6e-05
357.21	0.000396	2e-05
359.26	0.000506	2.5e-05
361.26	0.00061	3.1e-05
363.2	0.000749	3.8e-05
365.12	0.000935	4.7e-05

System: 3-nitrobenzophenone; phases: Gas
Property: Molar enthalpy, kJ/mol (Gas); method: Drop calorimetry
Temperature, K	Pressure, kPa	Molar enthalpy, kJ/mol	uncertainty
401	101.325	146.9	3.4

System: 3,3'-dinitrobenzophenone; phases: Crystal, Gas
Property: Molar enthalpy of vaporization or sublimation, kJ/mol (Crystal); method: Calvet microcalorimetry
Temperature, K	Molar enthalpy of vaporization or sublimation, kJ/mol	uncertainty
298.15	147.4	7.8

System: 3,3'-dinitrobenzophenone; phases: Gas
Property: Molar enthalpy, kJ/mol (Gas); method: Drop calorimetry
Temperature, K	Pressure, kPa	Molar enthalpy, kJ/mol	uncertainty
498	101.325	206.9	4.9

Reaction: -1 4-nitrobenzophenone + 13 carbon dioxide + .5 nitrogen + 4.5 water + -13.75 oxygen
Property: Specific internal energy of reaction at constant volume, J/g
-27846.12

Reaction: -1 3-nitrobenzophenone + 13 carbon dioxide + .5 nitrogen + 4.5 water + -13.75 oxygen
Property: Specific internal energy of reaction at constant volume, J/g
-27831.87

Reaction: -1 3,3'-dinitrobenzophenone + 13 carbon dioxide + 1 nitrogen + 4 water + -12.5 oxygen
Property: Specific internal energy of reaction at constant volume, J/g
-22622.66
