Measured thermophysical data. Ternary and quaternary (liquid + liquid) equilibria for (water + ethanol + a-pinene, +b-pinene, or +limonene) and (water + ethanol + a-pinene + limonene) at the temperature 298.15 K
Source: J. Chem. Thermodyn., 2006, 10.1016/j.jct.2005.10.018
Compound 1: water, H2O, InChI=1S/H2O/h1H2, purity 99.9%
Compound 2: ethanol, C2H6O, InChI=1S/C2H6O/c1-2-3/h3H,2H2,1H3, purity 99.8%
Compound 3: (R)-1-methyl-4-(1-methylethenyl)cyclohexene, C10H16, InChI=1S/C10H16/c1-8(2)10-6-4-9(3)5-7-10/h4,10H,1,5-7H2,2-3H3/t10-/m0/s1, purity 98%
Compound 4: (S)-2-pinene, C10H16, InChI=1S/C10H16/c1-7-4-5-8-6-9(7)10(8,2)3/h4,8-9H,5-6H2,1-3H3/t8-,9-/m0/s1, purity 99%
Compound 5: (1S,5S)-6,6-dimethyl-2-methylenebicyclo[3.1.1]heptane, C10H16, InChI=1S/C10H16/c1-7-4-5-8-6-9(7)10(8,2)3/h8-9H,1,4-6H2,2-3H3/t8-,9-/m0/s1, purity 99%

System: water; phases: Liquid
Property: Mass density, kg/m3 (Liquid); method: Vibrating tube method
Temperature, K	Pressure, kPa	Mass density, kg/m3	uncertainty
298.15	101.325	996.92	0.07

System: ethanol; phases: Liquid
Property: Mass density, kg/m3 (Liquid); method: Vibrating tube method
Temperature, K	Pressure, kPa	Mass density, kg/m3	uncertainty
298.15	101.325	785.24	0.16

System: (R)-1-methyl-4-(1-methylethenyl)cyclohexene; phases: Liquid
Property: Mass density, kg/m3 (Liquid); method: Vibrating tube method
Temperature, K	Pressure, kPa	Mass density, kg/m3	uncertainty
298.15	101.325	837.31	0.85

System: (S)-2-pinene; phases: Liquid
Property: Mass density, kg/m3 (Liquid); method: Vibrating tube method
Temperature, K	Pressure, kPa	Mass density, kg/m3	uncertainty
298.15	101.325	853.88	0.3

System: (1S,5S)-6,6-dimethyl-2-methylenebicyclo[3.1.1]heptane; phases: Liquid
Property: Mass density, kg/m3 (Liquid); method: Vibrating tube method
Temperature, K	Pressure, kPa	Mass density, kg/m3	uncertainty
298.15	101.325	866.84	0.3

System: ethanol + (S)-2-pinene + water; phases: Liquid mixture 2, Liquid mixture 1
Fixed: Temperature, K = 298.15
Fixed: Pressure, kPa = 101
Property: Mole fraction of water (Liquid mixture 2); method: Chromatography
Property: Mole fraction of ethanol (Liquid mixture 1); method: Chromatography
Property: Mole fraction of water (Liquid mixture 1); method: Chromatography
Mole fraction of ethanol	Mole fraction of water	uncertainty	Mole fraction of ethanol	uncertainty	Mole fraction of water	uncertainty
0.0052	0.004	0.002	0.0723	0.0021	0.9277	
0.3206	0.0377	0.002	0.6858	0.003	0.132	
0.0068	0.0041	0.002	0.091	0.0021	0.909	
0.0179	0.0043	0.002	0.2293	0.0032	0.7704	
0.0336	0.0048	0.002	0.3592	0.0038	0.6381	
0.0468	0.0063	0.002	0.4571	0.0042	0.5366	
0.0691	0.0076	0.002	0.5509	0.0041	0.4335	
0.1243	0.0127	0.002	0.6716	0.0034	0.2709	
0.1766	0.0174	0.002	0.698	0.003	0.2144	
0.2802	0.0282	0.002	0.7011	0.0029	0.1541	

System: ethanol + (1S,5S)-6,6-dimethyl-2-methylenebicyclo[3.1.1]heptane + water; phases: Liquid mixture 2, Liquid mixture 1
Fixed: Temperature, K = 298.15
Fixed: Pressure, kPa = 101
Property: Mole fraction of water (Liquid mixture 2); method: Chromatography
Property: Mole fraction of ethanol (Liquid mixture 1); method: Chromatography
Property: Mole fraction of water (Liquid mixture 1); method: Chromatography
Mole fraction of ethanol	Mole fraction of water	uncertainty	Mole fraction of ethanol	uncertainty	Mole fraction of water	uncertainty
0.0127	0.0058	0.002	0.1048	0.0021	0.8952	
0.3638	0.053	0.002	0.6586	0.0031	0.1289	
0.0241	0.0072	0.002	0.196	0.0031	0.8039	
0.038	0.0091	0.002	0.3027	0.0035	0.6955	
0.0523	0.0103	0.002	0.3985	0.0039	0.5971	
0.0663	0.0113	0.002	0.4957	0.0044	0.4927	
0.094	0.0138	0.002	0.5915	0.0038	0.3793	
0.1398	0.0203	0.002	0.65	0.0034	0.2929	
0.1985	0.0285	0.002	0.6803	0.003	0.2267	
0.3002	0.0395	0.002	0.6698	0.0031	0.1512	

System: ethanol + (R)-1-methyl-4-(1-methylethenyl)cyclohexene + water; phases: Liquid mixture 2, Liquid mixture 1
Fixed: Temperature, K = 298.15
Fixed: Pressure, kPa = 101
Property: Mole fraction of water (Liquid mixture 2); method: Chromatography
Property: Mole fraction of ethanol (Liquid mixture 1); method: Chromatography
Property: Mole fraction of water (Liquid mixture 1); method: Chromatography
Mole fraction of ethanol	Mole fraction of water	uncertainty	Mole fraction of ethanol	uncertainty	Mole fraction of water	uncertainty
0.0179	0.0068	0.002	0.1129	0.0022	0.8871	
0.0319	0.0073	0.002	0.2049	0.0032	0.7949	
0.0459	0.0076	0.002	0.3141	0.0036	0.6845	
0.0604	0.0092	0.002	0.403	0.004	0.5924	
0.0819	0.0105	0.002	0.5108	0.0044	0.4768	
0.1144	0.0125	0.002	0.5955	0.0038	0.3781	
0.1601	0.0184	0.002	0.6605	0.0033	0.2897	
0.2619	0.0314	0.002	0.6921	0.003	0.1941	
0.3513	0.0523	0.002	0.6773	0.003	0.1418	
