Measured thermophysical data. Densities, excess molar volumes, and refractive indices of 1,1,2,2-tetrabromoethane and 1-alkanols binary mixtures
Source: J. Chem. Thermodyn., 2006, 10.1016/j.jct.2005.11.012
Compound 1: 1,1,2,2-tetrabromoethane, C2H2Br4, InChI=1S/C2H2Br4/c3-1(4)2(5)6/h1-2H, purity 99%
Compound 2: pentan-1-ol, C5H12O, InChI=1S/C5H12O/c1-2-3-4-5-6/h6H,2-5H2,1H3, purity 99%
Compound 3: hexan-1-ol, C6H14O, InChI=1S/C6H14O/c1-2-3-4-5-6-7/h7H,2-6H2,1H3, purity 99%
Compound 4: heptan-1-ol, C7H16O, InChI=1S/C7H16O/c1-2-3-4-5-6-7-8/h8H,2-7H2,1H3, purity 99%
Compound 5: octan-1-ol, C8H18O, InChI=1S/C8H18O/c1-2-3-4-5-6-7-8-9/h9H,2-8H2,1H3, purity 99%
Compound 6: decan-1-ol, C10H22O, InChI=1S/C10H22O/c1-2-3-4-5-6-7-8-9-10-11/h11H,2-10H2,1H3, purity 99%

System: 1,1,2,2-tetrabromoethane; phases: Liquid
Fixed: Pressure, kPa = 101.325
Property: Refractive index (Na D-line) (Liquid); method: ABBE:UFactor:2
Temperature, K	Refractive index (Na D-line)	uncertainty
293.15	1.63535	0.00065
303.15	1.62926	0.00065

System: 1,1,2,2-tetrabromoethane; phases: Liquid
Fixed: Pressure, kPa = 101
Property: Mass density, kg/m3 (Liquid); method: VIBTUB:UFactor:4
Temperature, K	Mass density, kg/m3	uncertainty
293.15	2963.2	3.53
303.15	2939.86	3.49

System: pentan-1-ol; phases: Liquid
Fixed: Pressure, kPa = 101.325
Property: Refractive index (Na D-line) (Liquid); method: ABBE::UFactor:2
Temperature, K	Refractive index (Na D-line)	uncertainty
293.15	1.40995	0.00065
303.15	1.40592	0.00065

System: pentan-1-ol; phases: Liquid
Fixed: Pressure, kPa = 101
Property: Mass density, kg/m3 (Liquid); method: VIBTUB::UFactor:4
Temperature, K	Mass density, kg/m3	uncertainty
293.15	815.03	0.58
303.15	807.6	0.59

System: hexan-1-ol; phases: Liquid
Fixed: Pressure, kPa = 101.325
Property: Refractive index (Na D-line) (Liquid); method: ABBE::UFactor:2
Temperature, K	Refractive index (Na D-line)	uncertainty
293.15	1.41826	0.00065
303.15	1.41423	0.00065

System: hexan-1-ol; phases: Liquid
Fixed: Pressure, kPa = 101
Property: Mass density, kg/m3 (Liquid); method: VIBTUB::UFactor:4
Temperature, K	Mass density, kg/m3	uncertainty
293.15	818.92	0.58
303.15	811.73	0.59

System: heptan-1-ol; phases: Liquid
Fixed: Pressure, kPa = 101.325
Property: Refractive index (Na D-line) (Liquid); method: ABBE::UFactor:2
Temperature, K	Refractive index (Na D-line)	uncertainty
293.15	1.42397	0.00065
303.15	1.42002	0.00065

System: heptan-1-ol; phases: Liquid
Fixed: Pressure, kPa = 101
Property: Mass density, kg/m3 (Liquid); method: VIBTUB::UFactor:4
Temperature, K	Mass density, kg/m3	uncertainty
293.15	822.39	0.58
303.15	815.41	0.58

System: octan-1-ol; phases: Liquid
Fixed: Pressure, kPa = 101.325
Property: Refractive index (Na D-line) (Liquid); method: ABBE::UFactor:2
Temperature, K	Refractive index (Na D-line)	uncertainty
293.15	1.42958	0.00065
303.15	1.42562	0.00065

System: octan-1-ol; phases: Liquid
Fixed: Pressure, kPa = 101
Property: Mass density, kg/m3 (Liquid); method: VIBTUB::UFactor:4
Temperature, K	Mass density, kg/m3	uncertainty
293.15	824.99	0.58
303.15	818.09	0.58

System: decan-1-ol; phases: Liquid
Fixed: Pressure, kPa = 101.325
Property: Refractive index (Na D-line) (Liquid); method: ABBE::UFactor:2
Temperature, K	Refractive index (Na D-line)	uncertainty
293.15	1.43706	0.00065
303.15	1.43302	0.00065

System: decan-1-ol; phases: Liquid
Fixed: Pressure, kPa = 101
Property: Mass density, kg/m3 (Liquid); method: VIBTUB::UFactor:4
Temperature, K	Mass density, kg/m3	uncertainty
293.15	829.7	0.57
303.15	822.85	0.58

System: pentan-1-ol + 1,1,2,2-tetrabromoethane; phases: Liquid
Fixed: Pressure, kPa = 101
Property: Refractive index (Na D-line) (Liquid); method: ABBE:UFactor:2
Temperature, K	Mole fraction of 1,1,2,2-tetrabromoethane	Refractive index (Na D-line)	uncertainty
293.15	0	1.40995	0.00065
293.15	0.1009	1.43257	0.00065
293.15	0.2014	1.45508	0.00065
293.15	0.3004	1.47732	0.00065
293.15	0.4003	1.49977	0.00066
293.15	0.5014	1.52252	0.00066
293.15	0.6001	1.54476	0.00066
293.15	0.7001	1.56734	0.00065
293.15	0.7998	1.58989	0.00065
293.15	0.8997	1.61255	0.00065
293.15	1	1.63535	0.00065
303.15	0	1.40592	0.00065
303.15	0.1009	1.42823	0.00065
303.15	0.2014	1.45052	0.00065
303.15	0.3004	1.47247	0.00065
303.15	0.4003	1.49475	0.00066
303.15	0.5014	1.51723	0.00066
303.15	0.6001	1.53938	0.00066
303.15	0.7001	1.5616	0.00065
303.15	0.7998	1.58403	0.00065
303.15	0.8997	1.60652	0.00065
303.15	1	1.62926	0.00065

System: pentan-1-ol + 1,1,2,2-tetrabromoethane; phases: Liquid
Fixed: Pressure, kPa = 101
Property: Mass density, kg/m3 (Liquid); method: VIBTUB:UFactor:4
Temperature, K	Mole fraction of 1,1,2,2-tetrabromoethane	Mass density, kg/m3	uncertainty
293.15	0	815.03	0.58
293.15	0.1009	1048.36	0.61
293.15	0.2014	1276.63	0.97
293.15	0.3004	1497.47	1.35
293.15	0.4003	1716.5	1.75
293.15	0.5014	1934.64	2.15
293.15	0.6001	2144.16	2.36
293.15	0.7001	2353.22	2.61
293.15	0.7998	2558.61	2.9
293.15	0.8997	2761.73	3.21
293.15	1	2963.2	3.53
303.15	0	807.6	0.59
303.15	0.1009	1038.85	0.6
303.15	0.2014	1265.1	0.95
303.15	0.3004	1484.08	1.33
303.15	0.4003	1701.36	1.73
303.15	0.5014	1917.88	2.12
303.15	0.6001	2125.93	2.33
303.15	0.7001	2333.58	2.58
303.15	0.7998	2537.64	2.87
303.15	0.8997	2739.49	3.17
303.15	1	2939.86	3.49

System: 1,1,2,2-tetrabromoethane + hexan-1-ol; phases: Liquid
Fixed: Pressure, kPa = 101
Property: Refractive index (Na D-line) (Liquid); method: ABBE:UFactor:2
Temperature, K	Mole fraction of 1,1,2,2-tetrabromoethane	Refractive index (Na D-line)	uncertainty
293.15	0	1.41826	0.00065
293.15	0.1001	1.43743	0.00065
293.15	0.2007	1.45713	0.00065
293.15	0.3004	1.4771	0.00065
293.15	0.4004	1.49787	0.00066
293.15	0.5005	1.51914	0.00066
293.15	0.6008	1.54101	0.00066
293.15	0.6999	1.56327	0.00065
293.15	0.8012	1.58693	0.00065
293.15	0.9001	1.61052	0.00065
293.15	1	1.63535	0.00065
303.15	0	1.41423	0.00065
303.15	0.1001	1.43304	0.00065
303.15	0.2007	1.45244	0.00065
303.15	0.3004	1.47214	0.00065
303.15	0.4004	1.49244	0.00066
303.15	0.5005	1.51355	0.00066
303.15	0.6008	1.53523	0.00066
303.15	0.6999	1.55749	0.00065
303.15	0.8012	1.58095	0.00065
303.15	0.9001	1.60452	0.00065
303.15	1	1.62926	0.00065

System: 1,1,2,2-tetrabromoethane + hexan-1-ol; phases: Liquid
Fixed: Pressure, kPa = 101
Property: Mass density, kg/m3 (Liquid); method: VIBTUB:UFactor:4
Temperature, K	Mole fraction of 1,1,2,2-tetrabromoethane	Mass density, kg/m3	uncertainty
293.15	0	818.92	0.58
293.15	0.1001	1021.6	0.58
293.15	0.2007	1227.75	0.89
293.15	0.3004	1434.26	1.25
293.15	0.4004	1643.89	1.64
293.15	0.5005	1856.54	2.04
293.15	0.6008	2072.22	2.26
293.15	0.6999	2288.24	2.52
293.15	0.8012	2512.37	2.83
293.15	0.9001	2734.51	3.16
293.15	1	2963.2	3.53
303.15	0	811.73	0.59
303.15	0.1001	1012.63	0.57
303.15	0.2007	1216.94	0.87
303.15	0.3004	1421.62	1.23
303.15	0.4004	1629.48	1.62
303.15	0.5005	1840.42	2.01
303.15	0.6008	2054.51	2.23
303.15	0.6999	2269.06	2.49
303.15	0.8012	2491.76	2.8
303.15	0.9001	2712.53	3.13
303.15	1	2939.86	3.49

System: 1,1,2,2-tetrabromoethane + heptan-1-ol; phases: Liquid
Fixed: Pressure, kPa = 101
Property: Refractive index (Na D-line) (Liquid); method: ABBE:UFactor:2
Temperature, K	Mole fraction of 1,1,2,2-tetrabromoethane	Refractive index (Na D-line)	uncertainty
293.15	0	1.42397	0.00065
293.15	0.099	1.44056	0.00065
293.15	0.1999	1.45821	0.00065
293.15	0.3001	1.47658	0.00065
293.15	0.3995	1.49566	0.00066
293.15	0.5006	1.51595	0.00066
293.15	0.5987	1.5368	0.00066
293.15	0.6993	1.55935	0.00065
293.15	0.799	1.58311	0.00065
293.15	0.8992	1.60832	0.00065
293.15	1	1.63535	0.00065
303.15	0	1.42002	0.00065
303.15	0.099	1.43619	0.00065
303.15	0.1999	1.45352	0.00065
303.15	0.3001	1.47156	0.00065
303.15	0.3995	1.49038	0.00066
303.15	0.5006	1.51053	0.00066
303.15	0.5987	1.53124	0.00066
303.15	0.6993	1.55368	0.00065
303.15	0.799	1.57727	0.00065
303.15	0.8992	1.60236	0.00065
303.15	1	1.62926	0.00065

System: 1,1,2,2-tetrabromoethane + heptan-1-ol; phases: Liquid
Fixed: Pressure, kPa = 101
Property: Mass density, kg/m3 (Liquid); method: VIBTUB:UFactor:4
Temperature, K	Mole fraction of 1,1,2,2-tetrabromoethane	Mass density, kg/m3	uncertainty
293.15	0	822.39	0.58
293.15	0.099	1001.11	0.55
293.15	0.1999	1189.38	0.83
293.15	0.3001	1383.2	1.17
293.15	0.3995	1582.25	1.54
293.15	0.5006	1792.24	1.95
293.15	0.5987	2003.6	2.16
293.15	0.6993	2229.07	2.44
293.15	0.799	2461.79	2.76
293.15	0.8992	2706	3.12
293.15	1	2963.2	3.53
303.15	0	815.41	0.58
303.15	0.099	992.57	0.55
303.15	0.1999	1179.18	0.81
303.15	0.3001	1371.29	1.15
303.15	0.3995	1568.62	1.52
303.15	0.5006	1776.88	1.92
303.15	0.5987	1986.59	2.13
303.15	0.6993	2210.42	2.41
303.15	0.799	2441.56	2.72
303.15	0.8992	2684.21	3.08
303.15	1	2939.86	3.49

System: 1,1,2,2-tetrabromoethane + octan-1-ol; phases: Liquid
Fixed: Pressure, kPa = 101
Property: Refractive index (Na D-line) (Liquid); method: ABBE:UFactor:2
Temperature, K	Mole fraction of 1,1,2,2-tetrabromoethane	Refractive index (Na D-line)	uncertainty
293.15	0	1.42958	0.00065
293.15	0.101	1.44433	0.00065
293.15	0.2013	1.45995	0.00065
293.15	0.2997	1.47641	0.00065
293.15	0.3994	1.49411	0.00066
293.15	0.5002	1.51358	0.00066
293.15	0.6003	1.53421	0.00066
293.15	0.6998	1.55634	0.00066
293.15	0.7998	1.58047	0.00065
293.15	0.9011	1.60696	0.00065
293.15	1	1.63535	0.00065
303.15	0	1.42562	0.00065
303.15	0.101	1.44015	0.00065
303.15	0.2013	1.45566	0.00065
303.15	0.2997	1.4717	0.00065
303.15	0.3994	1.48929	0.00066
303.15	0.5002	1.50826	0.00066
303.15	0.6003	1.52869	0.00066
303.15	0.6998	1.55075	0.00065
303.15	0.7998	1.57464	0.00065
303.15	0.9011	1.60101	0.00065
303.15	1	1.62926	0.00065

System: 1,1,2,2-tetrabromoethane + octan-1-ol; phases: Liquid
Fixed: Pressure, kPa = 101
Property: Mass density, kg/m3 (Liquid); method: VIBTUB:UFactor:4
Temperature, K	Mole fraction of 1,1,2,2-tetrabromoethane	Mass density, kg/m3	uncertainty
293.15	0	824.99	0.58
293.15	0.101	989.26	0.55
293.15	0.2013	1161.15	0.78
293.15	0.2997	1338.99	1.09
293.15	0.3994	1529.17	1.46
293.15	0.5002	1732.98	1.86
293.15	0.6003	1947.95	2.08
293.15	0.6998	2175.4	2.36
293.15	0.7998	2419.28	2.69
293.15	0.9011	2684.42	3.09
293.15	1	2963.2	3.53
303.15	0	818.09	0.58
303.15	0.101	980.93	0.55
303.15	0.2013	1151.32	0.77
303.15	0.2997	1327.63	1.08
303.15	0.3994	1516.19	1.44
303.15	0.5002	1718.29	1.84
303.15	0.6003	1931.52	2.06
303.15	0.6998	2157.22	2.33
303.15	0.7998	2399.36	2.66
303.15	0.9011	2662.77	3.05
303.15	1	2939.86	3.49

System: 1,1,2,2-tetrabromoethane + decan-1-ol; phases: Liquid
Fixed: Pressure, kPa = 101
Property: Refractive index (Na D-line) (Liquid); method: ABBE:UFactor:2
Temperature, K	Mole fraction of 1,1,2,2-tetrabromoethane	Refractive index (Na D-line)	uncertainty
293.15	0	1.43706	0.00065
293.15	0.1023	1.44929	0.00065
293.15	0.202	1.46226	0.00065
293.15	0.3012	1.47639	0.00065
293.15	0.4012	1.49207	0.00065
293.15	0.5007	1.50944	0.00066
293.15	0.6006	1.52888	0.00066
293.15	0.7011	1.55057	0.00065
293.15	0.8006	1.57518	0.00065
293.15	0.9006	1.60321	0.00065
293.15	1	1.63535	0.00065
303.15	0	1.43302	0.00065
303.15	0.1023	1.44494	0.00065
303.15	0.202	1.45758	0.00065
303.15	0.3012	1.47147	0.00065
303.15	0.4012	1.48697	0.00065
303.15	0.5007	1.50399	0.00066
303.15	0.6006	1.52315	0.00066
303.15	0.7011	1.54493	0.00065
303.15	0.8006	1.56925	0.00065
303.15	0.9006	1.59716	0.00065
303.15	1	1.62926	0.00065

System: 1,1,2,2-tetrabromoethane + decan-1-ol; phases: Liquid
Fixed: Pressure, kPa = 101
Property: Mass density, kg/m3 (Liquid); method: VIBTUB:UFactor:4
Temperature, K	Mole fraction of 1,1,2,2-tetrabromoethane	Mass density, kg/m3	uncertainty
293.15	0	829.7	0.57
293.15	0.1023	968.19	0.54
293.15	0.202	1114.37	0.71
293.15	0.3012	1272.36	0.98
293.15	0.4012	1446.62	1.32
293.15	0.5007	1636.66	1.72
293.15	0.6006	1847.04	1.94
293.15	0.7011	2081.74	2.23
293.15	0.8006	2340.68	2.58
293.15	0.9006	2632.79	3.01
293.15	1	2963.2	3.53
303.15	0	822.85	0.58
303.15	0.1023	960.09	0.54
303.15	0.202	1104.97	0.7
303.15	0.3012	1261.57	0.97
303.15	0.4012	1434.34	1.3
303.15	0.5007	1622.78	1.69
303.15	0.6006	1831.45	1.91
303.15	0.7011	2064.32	2.2
303.15	0.8006	2321.36	2.55
303.15	0.9006	2611.47	2.97
303.15	1	2939.86	3.49
