Measured thermophysical data. Isobaric vapor-liquid equilibrium for binary system of methyl caprate + methyl laurate at 2, 4 and 6 kPa
Source: J. Chem. Thermodyn., 2018, 10.1016/j.jct.2017.09.020
Compound 1: methyl decanoate, C11H22O2, InChI=1S/C11H22O2/c1-3-4-5-6-7-8-9-10-11(12)13-2/h3-10H2,1-2H3, purity 99.5%
Compound 2: methyl dodecanoate, C13H26O2, InChI=1S/C13H26O2/c1-3-4-5-6-7-8-9-10-11-12-13(14)15-2/h3-12H2,1-2H3, purity 99.8%

System: methyl decanoate; phases: Liquid, Gas
Property: Vapor or sublimation pressure, kPa (Liquid); method: Ebulliometric method (Recirculating still)
Temperature, K	Vapor or sublimation pressure, kPa	uncertainty
389.1	2	0.213
404.15	4	0.42
413.57	6	0.63

System: methyl dodecanoate; phases: Liquid, Gas
Property: Vapor or sublimation pressure, kPa (Liquid); method: Ebulliometric method (Recirculating still)
Temperature, K	Vapor or sublimation pressure, kPa	uncertainty
417.53	2	0.213
433.71	4	0.42
443.3	6	0.63

System: methyl decanoate + methyl dodecanoate; phases: Liquid, Gas
Property: Boiling temperature at pressure P, K (Liquid); method: Ebulliometric method (Recirculating still)
Mole fraction of methyl decanoate	Pressure, kPa	Boiling temperature at pressure P, K	uncertainty
0	2	417.53	2.13
0.0623	2	413.52	2.13
0.0935	2	411.63	2.13
0.1438	2	409.17	2.13
0.2009	2	406.77	2.13
0.2852	2	403.66	2.13
0.3889	2	400.44	2.13
0.5346	2	396.72	2.13
0.6691	2	393.75	2.13
0.7541	2	392.09	2.13
0.8227	2	391.15	2.13
0.8836	2	390.43	2.13
1	2	389.1	2.13
0	4	433.71	2.1
0.0659	4	429.37	2.1
0.0973	4	427.43	2.1
0.1524	4	424.78	2.1
0.2096	4	422.19	2.1
0.2908	4	419.12	2.1
0.3932	4	415.62	2.1
0.5354	4	412.11	2.1
0.6695	4	409.7	2.1
0.758	4	408.15	2.1
0.8291	4	406.87	2.1
0.8834	4	405.74	2.1
1	4	404.15	2.1
0	6	443.3	2.1
0.0676	6	439.01	2.1
0.1	6	437.07	2.1
0.1552	6	434.63	2.1
0.2136	6	432.01	2.1
0.295	6	428.75	2.1
0.3951	6	425.49	2.1
0.5375	6	421.95	2.1
0.673	6	418.93	2.1
0.7596	6	417.1	2.1
0.8365	6	415.91	2.1
0.8802	6	415.12	2.1
1	6	413.57	2.1

System: methyl decanoate + methyl dodecanoate; phases: Gas, Liquid
Property: Mole fraction of methyl decanoate (Gas); method: Chromatography
Mole fraction of methyl decanoate	Pressure, kPa	Mole fraction of methyl decanoate	uncertainty
0	2	0	
0.0623	2	0.2137	0.0102
0.0935	2	0.2926	0.0103
0.1438	2	0.4007	0.0106
0.2009	2	0.4941	0.0109
0.2852	2	0.6049	0.0106
0.3889	2	0.7027	0.0104
0.5346	2	0.8102	0.0102
0.6691	2	0.8797	0.0101
0.7541	2	0.9167	0.01
0.8227	2	0.9423	0.01
0.8836	2	0.9631	0.01
1	2	1	
0	4	0	
0.0659	4	0.2162	0.0102
0.0973	4	0.295	0.0103
0.1524	4	0.4075	0.0106
0.2096	4	0.5032	0.0109
0.2908	4	0.603	0.0106
0.3932	4	0.7036	0.0104
0.5354	4	0.7983	0.0102
0.6695	4	0.8696	0.0101
0.758	4	0.9108	0.01
0.8291	4	0.9398	0.01
0.8834	4	0.9611	0.01
1	4	1	
0	6	0	
0.0676	6	0.2139	0.0102
0.1	6	0.2936	0.0103
0.1552	6	0.4028	0.0106
0.2136	6	0.4971	0.0109
0.295	6	0.6019	0.0106
0.3951	6	0.6933	0.0104
0.5375	6	0.7933	0.0102
0.673	6	0.8703	0.0101
0.7596	6	0.9099	0.01
0.8365	6	0.9407	0.01
0.8802	6	0.9577	0.01
1	6	1	
