Measured thermophysical data. Low-temperature heat capacities of Y2GaSbO7 and R2FeSbO7 (R = Y, Dy) pyrochlore compounds: Quasi-harmonic phonons calculation
Source: J. Chem. Thermodyn., 2018, 10.1016/j.jct.2018.01.026
Compound 1: antimony gallium yttrium oxide (SbGaY2O7), GaO7SbY2, InChI=1S/Ga.7O.Sb.2Y/q+3;7*-2;+5;2*+3, purity 95%
Compound 2: antimony iron yttrium oxide (SbFeY2O7), FeO7SbY2, InChI=1S/Fe.7O.Sb.2Y/q+3;7*-2;+5;2*+3, purity 99%
Compound 3: antimony dysprosium iron oxide (SbDy2FeO7), Dy2FeO7Sb, InChI=1S/2Dy.Fe.7O.Sb/q3*+3;7*-2;+5, purity 99%

System: antimony gallium yttrium oxide (SbGaY2O7); phases: Crystal
Property: Mass density, kg/m3 (Crystal); method: X-ray diffraction
Temperature, K	Pressure, kPa	Mass density, kg/m3	uncertainty
298.15	101.325	6066	199

System: antimony gallium yttrium oxide (SbGaY2O7); phases: Crystal
Fixed: Pressure, kPa = 101.325
Property: Molar heat capacity at constant pressure, J/K/mol (Crystal); method: RELAXCAL
Temperature, K	Molar heat capacity at constant pressure, J/K/mol	uncertainty
2.1257	0.01152	0.00055
2.3349	0.01183	0.00058
2.5439	0.01227	0.0006
2.7529	0.0132	0.00064
2.9637	0.01426	0.00069
3.1723	0.01551	0.00076
3.3862	0.01701	0.00083
3.595	0.01853	0.00091
3.8218	0.02011	0.00099
4.0128	0.02171	0.00106
4.2218	0.02359	0.00116
4.4322	0.02552	0.00125
4.6412	0.02744	0.00134
4.8497	0.02922	0.00144
5.0583	0.03216	0.00157
5.0918	0.03288	0.0016
5.4724	0.03789	0.00185
5.903	0.04442	0.00217
6.3243	0.05169	0.00252
6.7454	0.06113	0.00297
7.165	0.07052	0.00342
7.5855	0.08214	0.00397
8.006	0.09445	0.00455
8.4254	0.1075	0.00515
8.8443	0.12204	0.00586
9.265	0.13726	0.00662
9.6835	0.15902	0.0077
10.149	0.1863	0.0387
10.532	0.2151	0.0417
10.953	0.2444	0.0431
11.374	0.2738	0.0406
11.797	0.3014	0.0395
12.218	0.3247	0.041
12.64	0.35	0.046
13.064	0.383	0.054
13.486	0.425	0.063
13.912	0.47	0.068
14.311	0.52	0.073
14.762	0.567	0.079
15.185	0.623	0.087
15.607	0.684	0.093
16.245	0.788	0.115
17.262	1.005	0.149
18.367	1.295	0.165
19.379	1.556	0.18
20.479	1.889	0.212
21.495	2.252	0.249
22.592	2.702	0.303
23.62	3.252	0.353
24.692	3.847	0.384
25.758	4.501	0.407
26.82	5.137	0.397
27.881	5.698	0.409
28.947	6.333	0.452
30.024	7.027	0.492
31.086	7.763	0.519
32.143	8.482	0.565
33.195	9.338	0.621
34.254	10.213	0.654
35.306	11.116	0.678
36.365	11.993	0.7
37.418	12.885	0.726
38.478	13.764	0.773
39.535	14.766	0.866
40.589	15.963	0.827
42.632	17.473	0.85
44.769	19.222	0.944
46.883	21.233	1.047
49.007	23.419	1.141
51.128	25.687	1.23
53.246	28.014	1.317
55.363	30.36	1.409
57.466	32.807	1.508
59.611	35.35	1.612
61.731	38.014	1.71
63.85	40.539	1.801
65.97	43.172	1.896
68.098	45.633	1.982
70.218	48.146	2.073
72.344	50.496	2.173
74.465	53.216	2.281
76.589	55.638	2.433
78.67	59.542	2.681
80.846	63.842	2.719
85.015	68.432	2.861
89.299	73.384	3.077
93.577	79.318	3.312
97.785	84.238	3.494
102.06	89.34	3.703
106.32	94.714	3.923
110.5	100.11	4.13
114.8	105.14	4.33
119.05	110.15	4.52
123.32	114.67	4.7
127.61	119.08	4.87
131.8	123.1	5.03
136.11	127.12	5.19
140.31	130.97	5.35
144.62	134.87	5.5
148.81	138.49	5.65
153.13	141.85	5.79
157.35	145.92	5.95
161.75	149.78	6.11
166.1	153.46	6.25
170.52	156.66	6.38
175.07	159.88	6.51
179.56	163.21	6.65
184.21	167.12	6.8
188.83	170.14	6.92
193	173.2	7.05
197.66	176.26	7.17
201.91	179.28	7.29
205.96	181.89	7.4
210.02	184.5	7.5
213.92	186.7	7.59
217.99	189.31	7.7
222.12	191.92	7.8
226.07	194.08	7.89
230.1	197.14	8.02
234.22	199.3	8.1
238.24	201.91	8.21
242.18	204.08	8.3
246.31	206.27	8.38
250.35	208.44	8.47
254.28	210.19	8.54
258.31	212.8	8.65
262.44	214.96	8.74
266.47	217.13	8.82
270.39	218.88	8.9
274.42	221.04	8.98
278.55	222.35	9.04
282.57	224.54	9.12
286.47	225.85	9.18
290.49	227.16	9.23
294.63	228.87	9.3
298.75	230.22	9.35

System: antimony gallium yttrium oxide (SbGaY2O7); phases: Crystal
Fixed: Pressure, kPa = 101.325
Property: Molar heat capacity at constant pressure, J/K/mol (Crystal); method: RELAXCAL
Temperature, K	Molar heat capacity at constant pressure, J/K/mol	uncertainty
1	0.0098	0.0005
2	0.0113	0.0005
3	0.0145	0.0007
4	0.0216	0.001
5	0.0313	0.0015
6	0.0461	0.0022
7	0.0668	0.0031
8	0.0947	0.0044
9	0.1277	0.006
10	0.1776	0.0083
15	0.5984	0.0245
20	1.7439	0.0712
25	4.0356	0.1643
30	7.0108	0.2851
35	10.854	0.441
40	15.294	0.621
45	19.441	0.79
50	24.481	0.995
55	29.958	1.217
60	35.839	1.456
65	41.967	1.705
70	47.888	1.945
75	53.826	2.187
80	62.17	2.526
85	68.415	2.779
90	74.357	3.021
95	80.982	3.29
100	86.879	3.529
110	99.467	4.04
120	111.16	4.52
130	121.38	4.93
140	130.69	5.31
150	139.42	5.66
160	148.25	6.02
170	156.28	6.35
180	163.58	6.64
190	171	6.95
200	177.92	7.23
210	184.48	7.49
220	190.58	7.74
230	197.06	8
240	202.88	8.24
250	208.25	8.46
260	213.68	8.68
270	218.7	8.88
273.15	220.36	8.95
280	223.14	9.06
290	227	9.22
298.15	230.03	9.34
300	230.64	9.37

System: antimony gallium yttrium oxide (SbGaY2O7); phases: Crystal
Fixed: Pressure, kPa = 101.325
Property: Molar entropy, J/K/mol (Crystal); method: RELAXCAL
Temperature, K	Molar entropy, J/K/mol	uncertainty
1	0.0049	0.00037
2	0.01262	0.00089
3	0.01787	0.00125
4	0.02298	0.0016
5	0.02881	0.00201
6	0.03579	0.00249
7	0.0444	0.0031
8	0.0551	0.0038
9	0.0681	0.0047
10	0.0841	0.0059
15	0.2282	0.0139
20	0.5459	0.0333
25	1.1675	0.0712
30	2.1553	0.1314
35	3.5148	0.2142
40	5.2459	0.3197
45	7.2819	0.4438
50	9.586	0.5842
55	12.172	0.742
60	15.027	0.916
65	18.134	1.105
70	21.459	1.308
75	24.963	1.521
80	28.7	1.749
85	32.655	1.99
90	36.733	2.238
95	40.929	2.494
100	45.232	2.756
110	54.098	3.296
120	63.251	3.854
130	72.551	4.421
140	81.887	4.989
150	91.201	5.557
160	100.48	6.12
170	109.71	6.68
180	118.85	7.24
190	127.9	7.79
200	136.84	8.34
210	145.68	8.88
220	154.41	9.41
230	163.02	9.93
240	171.53	10.45
250	179.92	10.96
260	188.2	11.47
270	196.36	11.96
273.15	198.9	12.12
280	204.4	12.45
290	212.3	12.94
298.15	218.63	13.32
300	220.05	13.41

System: antimony gallium yttrium oxide (SbGaY2O7); phases: Crystal
Fixed: Pressure, kPa = 101.325
Property: Molar enthalpy, kJ/mol (Crystal); method: RELAXCAL
Temperature, K	Molar enthalpy, kJ/mol	uncertainty
1	4.9e-06	3.1e-07
2	1.545e-05	7.5e-07
3	2.835e-05	1.35e-06
4	4.64e-05	2.2e-06
5	7.285e-05	3.44e-06
6	0.00011155	5.26e-06
7	0.000168	7.9e-06
8	0.00024875	1.169e-05
9	0.00035995	1.69e-05
10	0.0005126	2.4e-05
15	0.00245	0.0001
20	0.00831	0.00034
25	0.02276	0.00093
30	0.05037	0.00205
35	0.09504	0.00387
40	0.16041	0.00652
45	0.24724	0.01005
50	0.35705	0.01451
55	0.49315	0.02004
60	0.65764	0.02672
65	0.8521	0.0346
70	1.0768	0.0438
75	1.3311	0.0541
80	1.6211	0.0659
85	1.9475	0.0791
90	2.3045	0.0936
95	2.6928	0.1094
100	3.1125	0.1264
110	4.0442	0.1643
120	5.0973	0.2071
130	6.26	0.2543
140	7.5204	0.3055
150	8.871	0.3604
160	10.309	0.419
170	11.832	0.481
180	13.431	0.546
190	15.104	0.614
200	16.849	0.684
210	18.661	0.758
220	20.536	0.834
230	22.474	0.913
240	24.474	0.994
250	26.53	1.078
260	28.639	1.163
270	30.801	1.251
273.15	31.493	1.279
280	33.012	1.341
290	35.262	1.432
298.15	37.125	1.508
300	37.551	1.525

System: antimony iron yttrium oxide (SbFeY2O7); phases: Crystal
Property: Mass density, kg/m3 (Crystal); method: X-ray diffraction
Temperature, K	Pressure, kPa	Mass density, kg/m3	uncertainty
298.15	101.325	5811	14

System: antimony iron yttrium oxide (SbFeY2O7); phases: Crystal
Fixed: Pressure, kPa = 101.325
Property: Molar heat capacity at constant pressure, J/K/mol (Crystal); method: RELAXCAL
Temperature, K	Molar heat capacity at constant pressure, J/K/mol	uncertainty
2.1333	0.03069	0.00972
2.236	0.0342	0.01071
2.3401	0.04159	0.01341
2.4438	0.04623	0.01479
2.5495	0.05053	0.01603
2.6564	0.05667	0.01767
2.7586	0.07626	0.02347
2.8729	0.07894	0.02438
2.9765	0.11639	0.03556
3.0909	0.14234	0.04336
3.1838	0.15566	0.04739
3.294	0.15626	0.04759
3.4079	0.1734	0.0527
3.5025	0.19484	0.0592
3.6087	0.211	0.06396
3.7146	0.22487	0.06812
3.8185	0.23771	0.07199
3.9249	0.24882	0.07536
4.0294	0.26122	0.01194
4.1349	0.27882	0.01243
4.2396	0.28623	0.01267
4.3449	0.30265	0.01327
4.4508	0.3185	0.01383
4.5554	0.32939	0.01427
4.6603	0.3446	0.01495
4.7647	0.35679	0.01538
4.8698	0.36973	0.01594
4.975	0.38222	0.01639
5.0802	0.39981	0.0171
5.1144	0.39593	0.01695
5.5025	0.45446	0.01927
5.9287	0.51547	0.02172
6.3479	0.57343	0.02397
6.7715	0.63521	0.02643
7.193	0.6935	0.02876
7.6157	0.75766	0.03131
8.0375	0.81907	0.0338
8.457	0.87828	0.03614
8.8774	0.94351	0.03875
9.2983	1.0002	0.041
9.719	1.0605	0.0435
10.165	1.1108	0.1033
10.569	1.1921	0.112
10.993	1.263	0.1216
11.416	1.3462	0.1249
11.839	1.4184	0.1303
12.264	1.5093	0.1332
12.687	1.593	0.141
13.11	1.68	0.138
13.532	1.771	0.141
13.958	1.848	0.142
14.38	1.936	0.15
14.806	2.022	0.156
15.227	2.132	0.171
15.229	2.131	0.171
16.281	2.401	0.174
17.34	2.638	0.199
18.399	2.992	0.218
19.458	3.275	0.253
20.515	3.751	0.276
21.569	4.085	0.293
22.637	4.604	0.384
23.69	5.272	0.408
24.752	5.83	0.379
25.813	6.321	0.399
26.865	6.905	0.434
27.922	7.487	0.486
28.971	8.237	0.55
30.027	9.019	0.585
31.08	9.842	0.621
32.138	10.692	0.656
33.192	11.572	0.692
34.249	12.479	0.73
35.304	13.419	0.768
36.357	14.379	0.799
37.409	15.332	0.828
38.465	16.297	0.864
39.518	17.285	0.921
40.558	18.376	0.978
42.699	20.634	1.031
44.838	22.66	1.102
46.973	24.945	1.202
49.102	27.261	1.288
51.235	29.62	1.372
53.364	31.942	1.455
55.495	34.3	1.557
57.623	36.873	1.695
60.806	41.287	1.835
63.09	43.596	1.893
65.335	46.345	2.024
67.579	49.157	2.129
69.824	51.872	2.204
72.063	53.987	2.263
74.302	56.052	2.359
76.518	58.562	2.472
78.792	61.097	2.623
81.007	64.927	2.734
85.199	69.025	2.883
89.361	74.276	3.101
93.481	78.889	3.28
97.655	83.934	3.481
101.84	88.679	4.172
105.96	93.712	4.413
110.17	99.353	4.647
114.32	102.21	4.76
118.43	105.34	4.92
122.62	110.13	5.14
126.73	113.6	5.3
130.94	118.22	5.52
135.04	122.4	5.72
139.26	127.75	5.94
143.37	129.38	6.01
147.54	132.11	6.15
151.69	136.57	6.36
155.92	141.02	6.56
160.01	143.89	6.69
164.22	147.2	6.85
168.3	152.12	7.07
172.52	154.49	7.17
176.6	155.46	7.22
180.81	159.25	7.4
184.97	163.05	7.58
189.05	167.64	7.79
193.28	169.35	7.86
197.46	172.32	8
201.55	174.84	8.12
205.77	177.85	8.26
209.97	180.4	8.37

System: antimony iron yttrium oxide (SbFeY2O7); phases: Crystal
Fixed: Pressure, kPa = 101.325
Property: Molar heat capacity at constant pressure, J/K/mol (Crystal); method: RELAXCAL
Temperature, K	Molar heat capacity at constant pressure, J/K/mol	uncertainty
1	0.0018	0.0007
2	0.0261	0.008
3	0.1217	0.0368
4	0.2577	0.0779
5	0.3864	0.0159
6	0.5253	0.0215
7	0.6668	0.0272
8	0.8136	0.0332
9	0.96	0.0391
10	1.0922	0.0444
15	2.0725	0.0843
20	3.5191	0.1432
25	5.9444	0.2417
30	8.9991	0.3658
35	13.148	0.534
40	18.019	0.732
45	22.833	0.928
50	28.254	1.148
55	33.752	1.371
60	40.169	1.632
65	45.935	1.866
70	52.039	2.114
75	56.843	2.309
80	63.185	2.567
85	68.868	2.798
90	74.991	3.046
95	80.725	3.279
100	86.594	4.015
110	99.128	4.596
120	107.14	4.97
130	117.19	5.43
140	128.04	5.94
150	134.75	6.25
160	143.89	6.67
170	153.08	7.1
180	158.52	7.35
190	168.02	7.79
200	173.88	8.06
210	180.42	8.37

System: antimony iron yttrium oxide (SbFeY2O7); phases: Crystal
Fixed: Pressure, kPa = 101.325
Property: Molar entropy, J/K/mol (Crystal); method: RELAXCAL
Temperature, K	Molar entropy, J/K/mol	uncertainty
1	0.0009	0.0004
2	0.0083	0.0038
3	0.0351	0.0159
4	0.0876	0.0397
5	0.1585	0.0098
6	0.2409	0.0148
7	0.3323	0.0203
8	0.4308	0.0263
9	0.535	0.0327
10	0.6429	0.0392
15	1.2614	0.0769
20	2.0467	0.1248
25	3.081	0.1878
30	4.4254	0.2697
35	6.1144	0.3726
40	8.1798	0.4985
45	10.574	0.644
50	13.256	0.808
55	16.203	0.987
60	19.41	1.183
65	22.851	1.392
70	26.476	1.613
75	30.229	1.842
80	34.099	2.078
85	38.099	2.321
90	42.207	2.572
95	46.415	2.828
100	50.704	3.527
110	59.54	4.141
120	68.51	4.765
130	77.481	5.389
140	86.561	6.021
150	95.626	6.651
160	104.61	7.28
170	113.61	7.9
180	122.52	8.52
190	131.34	9.13
200	140.11	9.74
210	148.75	10.35

System: antimony iron yttrium oxide (SbFeY2O7); phases: Crystal
Fixed: Pressure, kPa = 101.325
Property: Molar enthalpy, kJ/mol (Crystal); method: RELAXCAL
Temperature, K	Molar enthalpy, kJ/mol	uncertainty
1	9e-07	3.896e-07
2	1.485e-05	4.57e-06
3	8.875e-05	2.694e-05
4	0.0002785	8.43e-05
5	0.0006005	2.56e-05
6	0.00106	4e-05
7	0.00165	7e-05
8	0.00239	0.0001
9	0.00328	0.00013
10	0.00431	0.00018
15	0.01222	0.0005
20	0.0262	0.00107
25	0.04985	0.00203
30	0.0872	0.0035
35	0.1426	0.0058
40	0.2205	0.009
45	0.3226	0.0131
50	0.4504	0.0183
55	0.6054	0.0246
60	0.7902	0.0321
65	1.0054	0.0408
70	1.2504	0.0508
75	1.5226	0.0619
80	1.8226	0.074
85	2.1528	0.0875
90	2.5124	0.1021
95	2.9017	0.1179
100	3.32	0.154
110	4.2486	0.197
120	5.28	0.2448
130	6.4016	0.2968
140	7.6278	0.3537
150	8.9417	0.4146
160	10.335	0.479
170	11.82	0.548
180	13.378	0.62
190	15.01	0.696
200	16.72	0.775
210	18.491	0.857

System: antimony dysprosium iron oxide (SbDy2FeO7); phases: Crystal
Property: Mass density, kg/m3 (Crystal); method: X-ray diffraction
Temperature, K	Pressure, kPa	Mass density, kg/m3	uncertainty
298.15	101.325	7556	17

System: antimony dysprosium iron oxide (SbDy2FeO7); phases: Crystal
Fixed: Pressure, kPa = 101.325
Property: Molar heat capacity at constant pressure, J/K/mol (Crystal); method: RELAXCAL
Temperature, K	Molar heat capacity at constant pressure, J/K/mol	uncertainty
2.1302	3.177	0.2291
2.2382	3.7688	0.2398
2.3422	4.1104	0.2549
2.4543	4.6171	0.2653
2.5553	5.0416	0.2751
2.6619	5.5083	0.2829
2.7665	5.8775	0.2933
2.872	6.0956	0.295
2.9774	6.2484	0.2966
3.0817	6.3343	0.2963
3.1872	6.3995	0.2972
3.2961	6.3995	0.2967
3.4013	6.3867	0.2966
3.5061	6.3343	0.2954
3.6116	6.2261	0.2927
3.717	6.1179	0.2904
3.8212	5.8998	0.2822
3.9265	5.6611	0.2719
4.031	5.3778	0.2587
4.136	5.0945	0.2454
4.2398	4.9379	0.237
4.3454	4.8463	0.2306
4.4503	4.7802	0.2254
4.5542	4.7244	0.221
4.6604	4.6177	0.2156
4.7641	4.5731	0.2133
4.8689	4.5188	0.2107
4.9726	4.4797	0.2089
5.0773	4.4287	0.2063
5.0751	4.4138	0.2057
5.5013	4.1928	0.1954
5.9255	4.023	0.1871
6.3466	3.8743	0.1801
6.7675	3.7613	0.1747
7.1871	3.6701	0.1704
7.6091	3.5964	0.1669
8.0305	3.5533	0.1648
8.4508	3.5424	0.1643
8.8731	3.545	0.1644
9.2943	3.5726	0.1657
9.7153	3.6065	0.1672
10.18	3.6285	0.2008
10.557	3.7648	0.2412
10.977	3.8507	0.2256
11.398	3.9581	0.2593
11.814	4.1063	0.2863
12.247	4.2606	0.3052
12.669	4.438	0.337
13.092	4.637	0.37
13.509	4.859	0.38
13.944	5.071	0.423
14.34	5.347	0.405
14.785	5.522	0.373
15.201	5.737	0.357
16.075	6.109	0.447
16.932	6.812	0.485
17.804	7.256	0.5
18.691	7.996	0.682
19.564	9.015	0.647
20.461	9.571	0.545
21.342	10.149	0.675
22.224	11.143	0.762
23.101	11.946	0.782
23.981	12.939	0.785
24.858	13.653	0.783
25.735	14.553	0.864
26.613	15.497	0.987
27.505	16.796	1.091
28.378	18.003	1.037
29.261	18.948	1.027
30.135	19.995	1.071
31.015	20.989	1.11
31.891	22.077	1.147
32.767	23.077	1.197
33.641	24.247	1.227
34.517	25.213	1.241
35.394	26.297	1.308
36.274	27.421	1.356
37.134	28.541	1.409
37.996	29.72	1.443
38.867	30.823	1.486
39.737	32.042	1.587
40.611	33.183	1.593
40.545	33.367	1.591
42.801	36.352	1.714
44.933	39.456	1.794
47.069	42.088	1.884
49.204	45.092	1.997
51.343	47.748	2.098
53.478	50.795	2.277
55.618	54.614	2.407
57.761	57.461	2.496
59.617	60.528	2.676
61.751	64.471	2.833
63.875	68.194	2.921
66	71.042	3.022
68.128	74.547	3.192
70.257	78.197	3.295
72.376	80.753	3.401
74.493	84.549	3.63
76.615	89.067	3.785
78.734	92.398	3.854
80.871	95.282	3.981
85.007	102.07	4.26
89.332	108.86	4.51
93.596	114.48	4.72
97.779	120.4	4.96
101.88	126.17	4.96
106.13	132.59	5.21
110.35	138.29	5.4
114.66	142.89	5.58
118.91	148.51	5.8
123.12	152.96	5.96
