Measured thermophysical data. Thermochemical study of 2,5-dimethyl-3-furancarboxylic acid,  4,5-dimethyl-2-furaldehyde, and 3-acetyl-2,5-dimethylfuran
Source: J. Chem. Thermodyn., 2011, 10.1016/j.jct.2010.07.006
Compound 1: carbon dioxide, CO2, InChI=1S/CO2/c2-1-3
Compound 2: water, H2O, InChI=1S/H2O/h1H2
Compound 3: oxygen, O2, InChI=1S/O2/c1-2
Compound 4: 4,5-dimethyl-2-furaldehyde, C7H8O2, InChI=1S/C7H8O2/c1-5-3-7(4-8)9-6(5)2/h3-4H,1-2H3, purity 97%
Compound 5: 3-acetyl-2,5-dimethylfuran, C8H10O2, InChI=1S/C8H10O2/c1-5-4-8(6(2)9)7(3)10-5/h4H,1-3H3, purity 98%
Compound 6: 2,5-dimethyl-3-furancarboxylic acid, C7H8O3, InChI=1S/C7H8O3/c1-4-3-6(7(8)9)5(2)10-4/h3H,1-2H3,(H,8,9), purity 98%

System: 4,5-dimethyl-2-furaldehyde; phases: Gas
Property: Molar enthalpy, kJ/mol (Gas); method: Drop calorimetry
Temperature, K	Pressure, kPa	Molar enthalpy, kJ/mol	uncertainty
325	101.325	63.7	1.5

System: 3-acetyl-2,5-dimethylfuran; phases: Gas
Property: Molar enthalpy, kJ/mol (Gas); method: Drop calorimetry
Temperature, K	Pressure, kPa	Molar enthalpy, kJ/mol	uncertainty
335	101.325	62.5	1.6

System: 2,5-dimethyl-3-furancarboxylic acid; phases: Gas
Property: Molar enthalpy, kJ/mol (Gas); method: Drop calorimetry
Temperature, K	Pressure, kPa	Molar enthalpy, kJ/mol	uncertainty
376	101.325	111.2	2.6

System: 2,5-dimethyl-3-furancarboxylic acid; phases: Crystal, Gas
Property: Vapor or sublimation pressure, kPa (Crystal); method: Calculated from knudsen effusion weight loss
Temperature, K	Vapor or sublimation pressure, kPa	uncertainty
309.189	0.0001409	7.1e-06
309.189	0.000132	7e-06
309.189	0.0001359	6.8e-06
311.125	0.0001806	9.1e-06
311.125	0.0001768	8.9e-06
311.125	0.0001708	8.6e-06
313.085	0.0002273	1.14e-05
313.085	0.0002279	1.14e-05
313.085	0.0002259	1.13e-05
315.182	0.0002914	1.46e-05
315.182	0.0002809	1.41e-05
315.182	0.0002804	1.4e-05
317.115	0.0003673	1.84e-05
317.115	0.0003617	1.81e-05
317.115	0.0003524	1.76e-05
319.082	0.0004503	2.25e-05
319.082	0.0004556	2.28e-05
319.082	0.000449	2.2e-05
321.183	0.0005801	2.9e-05
321.183	0.0005612	2.81e-05
321.183	0.000567	2.8e-05
323.094	0.0007336	3.67e-05
323.094	0.0007218	3.61e-05
323.094	0.0007101	3.56e-05
325.075	0.0009185	4.6e-05
325.075	0.000908	4.6e-05
325.075	0.0008953	4.52e-05
325.186	0.0009292	4.65e-05
325.186	0.000927	4.6e-05
325.186	0.0008864	4.47e-05
327.102	0.0011471	0.0001182
327.102	0.0011284	0.0001158
327.102	0.0011017	0.0001125

Reaction: -1 2,5-dimethyl-3-furancarboxylic acid + 7 carbon dioxide + 4 water + -7.5 oxygen
Property: Specific internal energy of reaction at constant volume, J/g
-23521.3

Reaction: -1 4,5-dimethyl-2-furaldehyde + 7 carbon dioxide + 4 water + -8 oxygen
Property: Specific internal energy of reaction at constant volume, J/g
-29006.73

Reaction: -1 3-acetyl-2,5-dimethylfuran + 8 carbon dioxide + 5 water + -9.5 oxygen
Property: Specific internal energy of reaction at constant volume, J/g
-30553.11
