Measured thermophysical data. Experimental and modelling investigation of H2S solubility in N-methylimidazole and gamma-butyrolactone
Source: J. Chem. Thermodyn., 2019, 10.1016/j.jct.2019.03.031
Compound 1: hydrogen sulfide, H2S, InChI=1S/H2S/h1H2, purity 99.95%
Compound 2: .gamma.-butyrolactone, C4H6O2, InChI=1S/C4H6O2/c5-4-2-1-3-6-4/h1-3H2, purity 99%
Compound 3: 1-methylimidazole, C4H6N2, InChI=1S/C4H6N2/c1-6-3-2-5-4-6/h2-4H,1H3, purity 99%

System: hydrogen sulfide + .gamma.-butyrolactone; phases: Liquid, Gas
Property: Mole fraction of hydrogen sulfide (Liquid); method: Volumetric method
Temperature, K	Pressure, kPa	Mole fraction of hydrogen sulfide	uncertainty
303.15	162	0.07	0.004
303.15	280	0.118	0.005
303.15	435	0.177	0.005
303.15	532	0.213	0.006
303.15	637	0.249	0.006
303.15	795	0.301	0.006
313.15	190	0.067	0.004
313.15	327	0.113	0.005
313.15	509	0.17	0.005
313.15	623	0.206	0.006
313.15	744	0.241	0.006
313.15	932	0.292	0.006
323.15	218	0.064	0.004
323.15	374	0.107	0.005
323.15	582	0.162	0.006
323.15	715	0.196	0.006
323.15	856	0.23	0.006
323.15	1071	0.28	0.007
333.15	247	0.062	0.004
333.15	424	0.104	0.005
333.15	661	0.158	0.006
333.15	811	0.192	0.006
333.15	971	0.225	0.006
333.15	1213	0.274	0.007
343.15	275	0.059	0.004
343.15	474	0.1	0.005
343.15	741	0.151	0.006
343.15	908	0.185	0.006
343.15	1090	0.217	0.006
353.15	303	0.057	0.004
353.15	523	0.096	0.005
353.15	815	0.146	0.006
353.15	1005	0.178	0.006
353.15	1213	0.209	0.007

System: hydrogen sulfide + 1-methylimidazole; phases: Liquid, Gas
Property: Mole fraction of hydrogen sulfide (Liquid); method: Volumetric method
Temperature, K	Pressure, kPa	Mole fraction of hydrogen sulfide	uncertainty
303.15	163	0.093	0.005
303.15	254	0.139	0.006
303.15	342	0.18	0.007
303.15	433	0.221	0.007
303.15	599	0.28	0.007
303.15	749	0.335	0.007
303.15	871	0.375	0.007
313.15	192	0.09	0.005
313.15	298	0.135	0.006
313.15	402	0.175	0.007
313.15	509	0.215	0.008
313.15	705	0.272	0.007
313.15	880	0.326	0.007
313.15	1022	0.366	0.007
323.15	222	0.085	0.005
323.15	346	0.129	0.006
323.15	464	0.167	0.007
323.15	589	0.206	0.008
323.15	814	0.261	0.008
323.15	1019	0.314	0.008
323.15	1184	0.354	0.007
333.15	253	0.083	0.005
333.15	395	0.126	0.006
333.15	530	0.163	0.007
333.15	672	0.201	0.008
333.15	930	0.256	0.008
333.15	1163	0.309	0.008
333.15	1356	0.347	0.008
343.15	286	0.08	0.005
343.15	446	0.121	0.006
343.15	599	0.158	0.007
343.15	759	0.195	0.008
343.15	1051	0.248	0.008
343.15	1314	0.3	0.008
353.15	319	0.077	0.005
353.15	499	0.116	0.006
353.15	668	0.152	0.007
353.15	849	0.188	0.008
353.15	1172	0.24	0.008
