Measured thermophysical data. Thermodynamic properties of 2-methylindole: Experimental and computational results for gas-phase entropy and enthalpy of formation
Source: J. Chem. Thermodyn., 2018, 10.1016/j.jct.2018.05.029
Compound 1: carbon dioxide, CO2, InChI=1S/CO2/c2-1-3
Compound 2: nitrogen, N2, InChI=1S/N2/c1-2
Compound 3: water, H2O, InChI=1S/H2O/h1H2
Compound 4: oxygen, O2, InChI=1S/O2/c1-2
Compound 5: 2-methylindole, C9H9N, InChI=1S/C9H9N/c1-7-6-8-4-2-3-5-9(8)10-7/h2-6,10H,1H3

System: 2-methylindole; phases: Crystal, Liquid, Gas
Property: Triple point temperature, K (Crystal); method: Adiabatic calorimetry
Triple point temperature, K	uncertainty
331.966	0.039

System: 2-methylindole; phases: Crystal, Liquid, Gas
Property: Molar enthalpy of transition or fusion, kJ/mol (Crystal); method: Adiabatic calorimetry
Molar enthalpy of transition or fusion, kJ/mol	uncertainty
14.842	0.032

System: 2-methylindole; phases: Liquid
Property: Mass density, kg/m3 (Liquid); method: Pycnometric method
Temperature, K	Pressure, kPa	Mass density, kg/m3	uncertainty
342	101.325	1020	20

System: 2-methylindole; phases: Liquid, Gas
Property: Critical temperature, K (Liquid); method: Derived from PVT data
Critical temperature, K	uncertainty
810	2

System: 2-methylindole; phases: Liquid
Property: Mass density, kg/m3 (Liquid); method: From volume and mass of a pressed pellet
Temperature, K	Pressure, kPa	Mass density, kg/m3	uncertainty
298.15	101.325	1070	43

System: 2-methylindole; phases: Crystal, Gas
Property: Molar heat capacity at saturation pressure, J/K/mol (Crystal); method: Vacuum adiabatic calorimetry
Temperature, K	Molar heat capacity at saturation pressure, J/K/mol	uncertainty
11.266	3.2260104024	0.041572299
12.408	4.1572299	0.0498867588
13.641	5.2879964328	0.0582012186
15.084	6.7180835184	0.0665156784
16.682	8.3643465588	0.0748301382
18.459	10.2600433932	0.0914590578
20.492	12.3802306422	0.0914590578
22.773	14.8163673636	0.0914590578
25.304	17.4437366604	0.0914590578
27.77	19.9463890602	0.083144598
30.588	22.6402740354	0.0748301382
34.095	25.9161711966	0.083144598
37.854	29.2419551166	0.0914590578
41.965	32.6176257954	0.0997735176
46.597	36.2676736476	0.1080879774
51.651	39.9260359596	0.1164024372
53.69	41.3810664246	0.1164024372
57.12	43.6675428696	0.124716897
59.066	44.9978564376	0.1330313568
64.851	48.6894765888	0.1413458166
71.317	52.6055871546	0.1496602764
78.489	56.746188135	0.1579747362
86.426	61.1195939898	0.166289196
95.28	65.8172637768	0.2328048744
104.887	70.7726818176	0.2411193342
114.731	75.7779866172	0.249433794
124.69	80.7999203364	0.2577482538
134.713	85.8966841938	0.2660627136
144.774	91.0100769708	0.2743771734
154.903	96.1899854262	0.2826916332
165.052	101.4613529394	0.291006093
175.19	106.7077770732	0.3076350126
185.364	112.0539747246	0.3159494724
195.556	117.4916314338	0.3242639322
205.761	122.9625459822	0.332578392
215.961	128.4916617492	0.3492073116
226.137	134.112236574	0.3575217714
236.278	139.7078680194	0.3658362312
246.379	145.3533862236	0.3824651508
256.593	151.156879164	0.3907796106
266.918	157.018573323	0.3990940704
276.466	162.5310601704	0.41572299
277.407	163.046556678	0.41572299
287.091	169.0662255732	0.4240374498
288.08	169.5567787014	0.4240374498
297.661	175.2604981242	0.4406663694
298.876	176.0919441042	0.4406663694
302.772	178.4449362276	0.4489808292
304.062	179.1267219312	0.4489808292
308.051	181.6044309516	0.4489808292
309.629	182.6520528864	0.457295289
311.788	184.1070833514	0.457295289
312.143	184.3482026856	0.457295289
320.336	189.5779978998	0.4656097488

System: 2-methylindole; phases: Liquid, Gas
Property: Molar heat capacity at saturation pressure, J/K/mol (Liquid); method: Vacuum adiabatic calorimetry
Temperature, K	Molar heat capacity at saturation pressure, J/K/mol	uncertainty
337.631	242.1835850544	0.5736977262
338.881	242.7739117002	0.5736977262
341.574	244.0127662104	0.582012186
349.893	247.6711285224	0.5903266458
350.315	247.895618937	0.5903266458
362.025	253.133728611	0.5986411056
374.856	258.662844378	0.6069555654
387.502	264.108815547	0.623584485
399.884	269.1556926456	0.6318989448
412.602	274.3522300206	0.6402134046
425.577	279.3741637398	0.6568423242
436.983	283.7226262152	0.665156784

System: 2-methylindole; phases: Liquid, Gas
Property: Mass density, kg/m3 (Liquid); method: DSC
Temperature, K	Mass density, kg/m3	uncertainty
803.6	360.9	18.1
802.9	399.3	20
800.7	433.9	21.7
795.1	470.4	23.5

System: 2-methylindole; phases: Gas, Liquid
Property: Mass density, kg/m3 (Gas); method: DSC
Temperature, K	Mass density, kg/m3	uncertainty
788.8	176.5	8.9
803	183.3	11.7
807	238.4	13.7
809.2	264.7	29.4
809.6	268.7	29.2
809.6	299.5	38.3

System: 2-methylindole; phases: Liquid, Gas
Property: Vapor or sublimation pressure, kPa (Liquid); method: Inclined piston gauge
Temperature, K	Vapor or sublimation pressure, kPa	uncertainty
339.988	0.022	0.0008
339.984	0.022	0.0008
349.983	0.0439	0.0008
359.977	0.0849	0.0009
369.978	0.1565	0.0009
369.978	0.1564	0.0009
379.976	0.2769	0.001
389.975	0.4731	0.0012
399.971	0.7822	0.0014
409.974	1.2551	0.0018
419.965	1.9581	0.0023
424.964	2.4229	0.0027
424.968	2.423	0.0027
429.959	2.979	0.0032

System: 2-methylindole; phases: Liquid, Gas
Property: Vapor or sublimation pressure, kPa (Liquid); method: Twin ebulliometer
Temperature, K	Vapor or sublimation pressure, kPa	uncertainty
427.254	2.666	0.0079
437.341	3.9999	0.0079
444.867	5.333	0.008
456.037	7.999	0.008
464.405	10.666	0.008
471.162	13.332	0.008
478.174	16.665	0.009
483.994	19.933	0.009
491.648	25.023	0.009
491.648	25.023	0.01
499.348	31.177	0.011
507.085	38.565	0.012
514.864	47.375	0.014
522.684	57.817	0.016
530.546	70.12	0.018
538.453	84.533	0.02
546.4	101.325	0.023
554.392	120.79	0.03
562.426	143.25	0.03
570.499	169.02	0.04
578.617	198.49	0.04
586.773	232.02	0.04
594.972	270.02	0.05

System: 2-methylindole; phases: Crystal, Gas
Property: Molar heat capacity at saturation pressure, J/K/mol (Crystal); method: Vacuum adiabatic calorimetry
Temperature, K	Molar heat capacity at saturation pressure, J/K/mol	uncertainty
10	2.3114198244	0.0332578392
20	11.8730485944	0.0914590578
30	22.0915196886	0.0748301382
40	31.0295639736	0.0997735176
50	38.745382668	0.1164024372
60	45.6131264628	0.1330313568
70	51.8240279334	0.1413458166
80	57.5942630346	0.1579747362
90	63.0319197438	0.2244904146
100	68.2700294178	0.2328048744
120	78.4386137532	0.249433794
140	88.5822547092	0.2743771734
160	98.8339836426	0.291006093
180	109.2270583926	0.3076350126
200	119.8695669366	0.332578392
220	130.7199369756	0.3492073116
240	141.7781685096	0.374150691
260	153.0858338376	0.3990940704
280	164.7011341782	0.41572299
298.15	175.5515042172	0.4406663694
300	176.6573273706	0.4406663694
320	189.3701364048	0.4656097488
331.966	197.2688732148	0.4822386684

System: 2-methylindole; phases: Crystal, Gas
Property: Molar entropy, J/K/mol (Crystal); method: Vacuum adiabatic calorimetry
Temperature, K	Molar entropy, J/K/mol	uncertainty
10	0.7815592212	0.0249433794
20	5.0967638574	0.0582012186
30	11.8813630542	0.0748301382
40	19.497408231	0.0997735176
50	27.2631136842	0.1330313568
60	34.9456745394	0.1579747362
70	42.4536317388	0.1829181156
80	49.7537274432	0.207861495
90	56.8542761124	0.3242639322
100	63.7635922062	0.3408928518
120	77.116614645	0.374150691
140	89.9707694958	0.4074085302
160	102.4674025752	0.4406663694
180	114.7062874008	0.4822386684
200	126.7622541108	0.5154965076
220	138.6935039238	0.5487543468
240	150.5416091388	0.582012186
260	162.3315131352	0.623584485
280	174.0964737522	0.6568423242
298.15	184.7805545952	0.6901001634
300	185.869748829	0.6901001634
320	197.676281745	0.7316724624
331.966	204.7685159544	0.748301382

System: 2-methylindole; phases: Crystal, Gas
Property: Molar enthalpy function {Hm(T)-Hm(0)}/T, J/K/mol (Crystal); method: Vacuum adiabatic calorimetry
Temperature, K	Molar enthalpy function {Hm(T)-Hm(0)}/T, J/K/mol	uncertainty
10	0.582012186	0.0166289196
20	3.6833056914	0.0332578392
30	8.148170604	0.041572299
40	12.7793247126	0.0498867588
50	17.2192462458	0.0665156784
60	21.3847906056	0.0748301382
70	25.3009011714	0.083144598
80	28.975892403	0.0914590578
90	32.4596510592	0.1829181156
100	35.7854349792	0.1829181156
120	42.0462232086	0.1912325754
140	47.974433046	0.1995470352
160	53.6864669286	0.207861495
180	59.282098374	0.2161759548
200	64.8028996812	0.2244904146
220	70.298757609	0.2411193342
240	75.7946155368	0.249433794
260	81.3071023842	0.2577482538
280	86.844532611	0.2660627136
298.15	91.916353089	0.2743771734
300	92.4318495966	0.2743771734
320	98.0939967204	0.291006093
331.966	101.519554158	0.291006093

System: 2-methylindole; phases: Liquid, Gas
Property: Molar heat capacity at saturation pressure, J/K/mol (Liquid); method: Vacuum adiabatic calorimetry
Temperature, K	Molar heat capacity at saturation pressure, J/K/mol	uncertainty
298.15	224.573559198	0.540439887
300	225.405005178	0.540439887
320	234.3596783826	0.5570688066
331.966	239.6975615742	0.5736977262
340	243.3060371274	0.582012186
360	252.219138033	0.5986411056
380	260.8994340642	0.6152700252
400	269.222208324	0.6318989448
420	277.2373475712	0.6485278644
440	284.9115939666	0.665156784

System: 2-methylindole; phases: Liquid, Gas
Property: Molar entropy, J/K/mol (Liquid); method: Vacuum adiabatic calorimetry
Temperature, K	Molar entropy, J/K/mol	uncertainty
298.15	224.5569302784	0.8065026006
300	225.945445065	0.8148170604
320	240.7784413482	0.8563893594
331.966	249.4836807588	0.8896471986
340	255.25391586	0.9062761182
360	269.4134408994	0.9478484172
380	283.2819598458	0.9894207162
400	296.8761016188	1.0309930152
420	310.212495138	1.0725653142
440	323.2828259436	1.1141376132

System: 2-methylindole; phases: Liquid, Gas
Property: Molar enthalpy function {Hm(T)-Hm(0)}/T, J/K/mol (Liquid); method: Vacuum adiabatic calorimetry
Temperature, K	Molar enthalpy function {Hm(T)-Hm(0)}/T, J/K/mol	uncertainty
298.15	136.4901720768	0.3658362312
300	137.0306119638	0.3658362312
320	142.8341049042	0.374150691
331.966	146.2347189624	0.3824651508
340	148.4796231084	0.3824651508
360	154.0004244156	0.3990940704
380	159.3965088258	0.4074085302
400	164.6845052586	0.41572299
420	169.8560992542	0.4323519096
440	174.9112908126	0.4406663694

System: 2-methylindole; phases: Liquid, Gas
Property: Molar heat capacity at saturation pressure, J/K/mol (Liquid); method: Small sample (50 mg) DSC
Temperature, K	Molar heat capacity at saturation pressure, J/K/mol	uncertainty
460	292.5525825228	4.531380591
480	299.8942505262	4.6477830282
500	307.0197425748	4.7558710056
520	313.9373731284	4.9554180408
540	320.6554566468	5.2131662946
560	327.1573642104	5.6704615836
580	333.4597247388	5.9780965962
600	339.5542237722	6.5185364832
620	345.4491757704	6.8760582546
640	351.2194108716	7.4996427396
660	356.939759214	7.8904223502
680	362.7765099936	8.5888369734
700	369.0123548436	9.0378178026

System: 2-methylindole; phases: Liquid, Gas
Property: Molar entropy, J/K/mol (Liquid); method: Small sample (50 mg) DSC
Temperature, K	Molar entropy, J/K/mol	uncertainty
460	336.1203518748	7.8072777522
480	348.7250729316	8.106598305
500	361.1136180336	8.3892899382
520	373.2943016406	8.6719815714
540	385.2671237526	8.9546732046
560	397.0487132892	9.229050378
580	408.6390702504	9.4951130916
600	420.046509096	9.7611758052
620	431.2793442858	10.018924059
640	442.3375758198	10.2766723128
660	453.2295181578	10.5344205666
680	463.9718002194	10.7838543606
700	474.5727364644	11.0249736948

System: 2-methylindole; phases: Liquid, Gas
Property: Molar enthalpy function {Hm(T)-Hm(0)}/T, J/K/mol (Liquid); method: Small sample (50 mg) DSC
Temperature, K	Molar enthalpy function {Hm(T)-Hm(0)}/T, J/K/mol	uncertainty
460	179.8583943936	2.785344033
480	184.705724457	2.8601741712
500	189.4615954626	2.9350043094
520	194.1176929506	3.0098344476
540	198.674016921	3.076350126
560	203.1471962934	3.1511802642
580	207.5372310678	3.2176959426
600	211.8358067844	3.284211621
620	216.051237903	3.3507272994
640	220.1835244236	3.408928518
660	224.240980806	3.4754441964
680	228.23192151	3.533645415
700	232.1646609954	3.6001610934

Reaction: -1 2-methylindole + 9 carbon dioxide + .5 nitrogen + 4.5 water + -11.25 oxygen
Property: Specific internal energy of reaction at constant volume, J/g
-37052
