Measured thermophysical data. Density, viscosity, isothermal (vapour + liquid) equilibrium, excess molar volume, viscosity deviation, and their correlations for chloroform + methyl isobutyl ketone binary system
Source: J. Chem. Thermodyn., 2007, 10.1016/j.jct.2006.07.004
Compound 1: trichloromethane, CHCl3, InChI=1S/CHCl3/c2-1(3)4/h1H
Compound 2: 4-methylpentan-2-one, C6H12O, InChI=1S/C6H12O/c1-5(2)4-6(3)7/h5H,4H2,1-3H3

System: trichloromethane; phases: Liquid, Gas
Property: Vapor or sublimation pressure, kPa (Liquid); method: EBULLIO:UFactor:2
Temperature, K	Vapor or sublimation pressure, kPa	uncertainty
303.15	32.19	0.33

System: trichloromethane; phases: Liquid
Fixed: Pressure, kPa = 101
Property: Viscosity, Pa*s (Liquid); method: Capillary tube (Ostwald; Ubbelohde) method
Temperature, K	Viscosity, Pa*s	uncertainty
283.15	0.000629	5e-06
293.15	0.000573	5e-06
303.15	0.000516	5e-06
313.15	0.000468	4e-06

System: trichloromethane; phases: Liquid
Fixed: Pressure, kPa = 101
Property: Mass density, kg/m3 (Liquid); method: Vibrating tube method
Temperature, K	Mass density, kg/m3	uncertainty
283.15	1507.3	0.7
293.15	1488.4	0.7
303.15	1469.4	0.6
313.15	1450	0.6

System: 4-methylpentan-2-one; phases: Liquid, Gas
Property: Vapor or sublimation pressure, kPa (Liquid); method: EBULLIO:UFactor:2
Temperature, K	Vapor or sublimation pressure, kPa	uncertainty
303.15	3.89	0.11

System: 4-methylpentan-2-one; phases: Liquid
Fixed: Pressure, kPa = 101
Property: Viscosity, Pa*s (Liquid); method: Capillary tube (Ostwald; Ubbelohde) method
Temperature, K	Viscosity, Pa*s	uncertainty
283.15	0.000655	6e-06
293.15	0.000576	5e-06
303.15	0.000511	5e-06
313.15	0.00046	4e-06

System: 4-methylpentan-2-one; phases: Liquid
Fixed: Pressure, kPa = 101
Property: Mass density, kg/m3 (Liquid); method: Vibrating tube method
Temperature, K	Mass density, kg/m3	uncertainty
283.15	809.8	0.3
293.15	800.7	0.3
303.15	791.6	0.3
313.15	782.2	0.3

System: trichloromethane + 4-methylpentan-2-one; phases: Liquid, Gas
Fixed: Temperature, K = 303.15
Property: Vapor or sublimation pressure, kPa (Liquid); method: EBULLIO:UFactor:2
Mole fraction of trichloromethane	Vapor or sublimation pressure, kPa	uncertainty
0	3.89	0.11
0.0959	4.68	0.12
0.1852	5.68	0.12
0.2468	6.56	0.13
0.3514	8.54	0.15
0.4459	11	0.18
0.5575	14.89	0.21
0.6019	16.74	0.23
0.6279	17.7	0.23
0.6603	19.03	0.24
0.6989	20.7	0.26
0.7328	22.39	0.27
0.7538	23.33	0.28
0.8285	26.52	0.3
0.9402	30.87	0.33
1	32.19	0.33

System: trichloromethane + 4-methylpentan-2-one; phases: Gas, Liquid
Fixed: Temperature, K = 303.15
Property: Mole fraction of trichloromethane (Gas); method: Density calibration data
Mole fraction of trichloromethane	Mole fraction of trichloromethane	uncertainty
0	0	0.0001
0.0959	0.2872	0.017
0.1852	0.4873	0.0149
0.2468	0.6183	0.0124
0.3514	0.7758	0.0101
0.4459	0.8747	0.0076
0.5575	0.928	0.0068
0.6019	0.953	0.0066
0.6279	0.9599	0.0062
0.6603	0.967	0.0061
0.6989	0.9744	0.0062
0.7328	0.9853	0.0062
0.7538	0.9868	0.006
0.8285	0.9952	0.0048
0.9402	0.9994	0.0006
1	1	0.0001

System: trichloromethane + 4-methylpentan-2-one; phases: Liquid
Fixed: Pressure, kPa = 101
Property: Viscosity, Pa*s (Liquid); method: Capillary tube (Ostwald; Ubbelohde) method
Temperature, K	Mole fraction of trichloromethane	Viscosity, Pa*s	uncertainty
283.15	0	0.000655	6e-06
283.15	0.0847	0.000685	6e-06
283.15	0.1841	0.000719	6e-06
283.15	0.276	0.000755	6e-06
283.15	0.3529	0.00078	6e-06
283.15	0.4467	0.000808	7e-06
283.15	0.506	0.000812	7e-06
283.15	0.6079	0.000814	7e-06
283.15	0.6959	0.000798	7e-06
283.15	0.8213	0.000746	6e-06
283.15	0.9067	0.000689	6e-06
283.15	1	0.000629	5e-06
293.15	0	0.000576	5e-06
293.15	0.0847	0.000598	5e-06
293.15	0.1841	0.00063	5e-06
293.15	0.276	0.000659	6e-06
293.15	0.3529	0.000678	6e-06
293.15	0.4467	0.000696	6e-06
293.15	0.506	0.000703	6e-06
293.15	0.6079	0.000704	6e-06
293.15	0.6959	0.000696	6e-06
293.15	0.8213	0.000664	6e-06
293.15	0.9067	0.000629	5e-06
293.15	1	0.000573	5e-06
303.15	0	0.000511	5e-06
303.15	0.0847	0.000531	5e-06
303.15	0.1841	0.000558	5e-06
303.15	0.276	0.000577	5e-06
303.15	0.3529	0.000596	5e-06
303.15	0.4467	0.000616	5e-06
303.15	0.506	0.00062	5e-06
303.15	0.6079	0.000623	5e-06
303.15	0.6959	0.000619	5e-06
303.15	0.8213	0.000592	5e-06
303.15	0.9067	0.00056	5e-06
303.15	1	0.000516	5e-06
313.15	0	0.00046	4e-06
313.15	0.0847	0.000472	4e-06
313.15	0.1841	0.000493	5e-06
313.15	0.276	0.000513	5e-06
313.15	0.3529	0.000526	5e-06
313.15	0.4467	0.000542	5e-06
313.15	0.506	0.000551	5e-06
313.15	0.6079	0.000557	5e-06
313.15	0.6959	0.000554	5e-06
313.15	0.8213	0.000533	5e-06
313.15	0.9067	0.000503	5e-06
313.15	1	0.000468	4e-06

System: trichloromethane + 4-methylpentan-2-one; phases: Liquid
Fixed: Pressure, kPa = 101
Property: Mass density, kg/m3 (Liquid); method: Vibrating tube method
Temperature, K	Mole fraction of trichloromethane	Mass density, kg/m3	uncertainty
283.15	0	809.8	0.3
283.15	0.0847	849	1
283.15	0.1841	898.2	1.1
283.15	0.276	947.2	1.1
283.15	0.3529	991.1	1.2
283.15	0.4467	1048.8	1.3
283.15	0.506	1087.7	1.4
283.15	0.6079	1159.3	1.5
283.15	0.6959	1226.7	1.7
283.15	0.8213	1332.6	1.8
283.15	0.9067	1412.3	2
283.15	1	1507.3	0.7
293.15	0	800.7	0.3
293.15	0.0847	839.4	1
293.15	0.1841	888.1	1.1
293.15	0.276	936.6	1.1
293.15	0.3529	980.1	1.2
293.15	0.4467	1037	1.3
293.15	0.506	1075.3	1.4
293.15	0.6079	1146	1.5
293.15	0.6959	1212.4	1.7
293.15	0.8213	1316.7	1.8
293.15	0.9067	1395	2
293.15	1	1488.4	0.7
303.15	0	791.6	0.3
303.15	0.0847	829.9	1
303.15	0.1841	878	1
303.15	0.276	925.8	1.1
303.15	0.3529	968.7	1.2
303.15	0.4467	1025	1.3
303.15	0.506	1062.8	1.4
303.15	0.6079	1132.5	1.5
303.15	0.6959	1197.9	1.6
303.15	0.8213	1300.6	1.8
303.15	0.9067	1377.7	2
303.15	1	1469.4	0.6
313.15	0	782.2	0.3
313.15	0.0847	820	1
313.15	0.1841	867.5	1
313.15	0.276	914.9	1.1
313.15	0.3529	957.1	1.2
313.15	0.4467	1012.6	1.2
313.15	0.506	1050	1.4
313.15	0.6079	1118.7	1.4
313.15	0.6959	1183.2	1.6
313.15	0.8213	1284.1	1.7
313.15	0.9067	1359.8	1.9
313.15	1	1450	0.6
