Measured thermophysical data. Isothermal (vapour + liquid) equilibria in the binary and ternary systems composed of 2-propanol, 2,2,4-trimethylpentane, and 2,4-dimethyl-3-pentanone
Source: J. Chem. Thermodyn., 2012, 10.1016/j.jct.2011.09.007
Compound 1: propan-2-ol, C3H8O, InChI=1S/C3H8O/c1-3(2)4/h3-4H,1-2H3, purity 99.8%
Compound 2: 2,2,4-trimethylpentane, C8H18, InChI=1S/C8H18/c1-7(2)6-8(3,4)5/h7H,6H2,1-5H3, purity 99.5%
Compound 3: 2,4-dimethyl-3-pentanone, C7H14O, InChI=1S/C7H14O/c1-5(2)7(8)6(3)4/h5-6H,1-4H3, purity 97%

System: propan-2-ol; phases: Liquid
Property: Refractive index (Na D-line) (Liquid); method: Standard Abbe refractometry
Temperature, K	Pressure, kPa	Refractive index (Na D-line)	uncertainty
298.15	101.325	1.37504	0.00072

System: propan-2-ol; phases: Liquid
Property: Mass density, kg/m3 (Liquid); method: Vibrating tube method
Temperature, K	Pressure, kPa	Mass density, kg/m3	uncertainty
298.15	101.325	780.91	0.16

System: propan-2-ol; phases: Liquid, Gas
Property: Vapor or sublimation pressure, kPa (Liquid); method: Ebulliometric method (Recirculating still)
Temperature, K	Vapor or sublimation pressure, kPa	uncertainty
330	33.25	0.23
340	52.97	0.29

System: 2,2,4-trimethylpentane; phases: Liquid
Property: Refractive index (Na D-line) (Liquid); method: Standard Abbe refractometry
Temperature, K	Pressure, kPa	Refractive index (Na D-line)	uncertainty
298.15	101.325	1.38894	0.00072

System: 2,2,4-trimethylpentane; phases: Liquid
Property: Mass density, kg/m3 (Liquid); method: Vibrating tube method
Temperature, K	Pressure, kPa	Mass density, kg/m3	uncertainty
298.15	101.325	687.79	0.2

System: 2,2,4-trimethylpentane; phases: Liquid, Gas
Property: Vapor or sublimation pressure, kPa (Liquid); method: Ebulliometric method (Recirculating still)
Temperature, K	Vapor or sublimation pressure, kPa	uncertainty
330	25.47	0.16
340	36.64	0.2

System: 2,4-dimethyl-3-pentanone; phases: Liquid
Property: Refractive index (Na D-line) (Liquid); method: Standard Abbe refractometry
Temperature, K	Pressure, kPa	Refractive index (Na D-line)	uncertainty
298.15	101.325	1.3974	0.0007

System: 2,4-dimethyl-3-pentanone; phases: Liquid
Property: Mass density, kg/m3 (Liquid); method: Vibrating tube method
Temperature, K	Pressure, kPa	Mass density, kg/m3	uncertainty
298.15	101.325	798.8	0.21

System: 2,4-dimethyl-3-pentanone; phases: Liquid, Gas
Property: Vapor or sublimation pressure, kPa (Liquid); method: Ebulliometric method (Recirculating still)
Temperature, K	Vapor or sublimation pressure, kPa	uncertainty
330	8.87	0.04
330.04	8.87	0.04
331.02	9.28	0.04
337.07	12.02	0.05
340	13.55	0.06
340.05	13.58	0.06
340.57	13.89	0.06
343.73	15.78	0.06
347.76	18.48	0.07
351.12	21.02	0.08
365.8	35.36	0.11
371.23	42.49	0.14
373.22	45.36	0.15
375.59	49	0.16
378.26	53.37	0.18
381.01	58.22	0.19
382.94	61.82	0.2
384.94	65.74	0.21

System: propan-2-ol + 2,2,4-trimethylpentane; phases: Liquid, Gas
Property: Vapor or sublimation pressure, kPa (Liquid); method: Ebulliometric method (Recirculating still)
Mole fraction of propan-2-ol	Temperature, K	Vapor or sublimation pressure, kPa	uncertainty
0	330	25.47	0.16
0	340	36.64	0.2
0.0066	330	28.17	0.68
0.008	340	40.57	1.01
0.0259	330	34.15	0.35
0.0797	330	39.82	0.27
0.0873	340	57.92	0.41
0.1646	340	63.75	0.34
0.1739	330	43.2	0.27
0.2636	340	66.79	0.35
0.2737	330	44.96	0.28
0.3782	340	68.63	0.36
0.3859	330	45.93	0.29
0.4823	340	69.53	0.36
0.4952	330	46.36	0.29
0.5955	340	69.84	0.37
0.605	330	46.36	0.29
0.6949	340	69.52	0.37
0.7036	330	45.95	0.29
0.7882	340	68.43	0.36
0.7922	330	44.96	0.29
0.8565	340	66.18	0.35
0.8626	340	66.29	0.35
0.8649	330	43.21	0.28
0.8665	330	43.14	0.28
0.896	340	64.22	0.37
0.9051	330	41.58	0.29
0.9299	340	61.85	0.37
0.9365	330	39.73	0.3
0.951	340	59.36	0.39
0.9586	330	37.79	0.31
0.9721	340	56.97	0.4
0.9754	330	36.08	0.32
0.986	340	54.95	0.42
0.9883	330	34.63	0.34
0.9956	340	53.46	0.41
0.9958	330	33.62	0.33
1	330	33.25	0.23
1	340	52.97	0.29

System: propan-2-ol + 2,2,4-trimethylpentane; phases: Gas, Liquid
Property: Mole fraction of propan-2-ol (Gas); method: Chromatography
Mole fraction of propan-2-ol	Temperature, K	Mole fraction of propan-2-ol	uncertainty
0	330	0	
0	340	0	
0.0066	330	0.1004	0.0202
0.008	340	0.1065	0.0267
0.0259	330	0.2692	0.0078
0.0797	330	0.3897	0.0045
0.0873	340	0.392	0.006
0.1646	340	0.4641	0.0046
0.1739	330	0.4458	0.0044
0.2636	340	0.5048	0.0047
0.2737	330	0.4834	0.0046
0.3782	340	0.5358	0.0045
0.3859	330	0.5189	0.0046
0.4823	340	0.5642	0.0042
0.4952	330	0.5459	0.0044
0.5955	340	0.5963	0.004
0.605	330	0.5701	0.0042
0.6949	340	0.6224	0.0039
0.7036	330	0.6005	0.004
0.7882	340	0.6624	0.0037
0.7922	330	0.6336	0.0039
0.8565	340	0.7128	0.0032
0.8626	340	0.7128	0.0032
0.8649	330	0.6921	0.0038
0.8665	330	0.6944	0.0038
0.896	340	0.7543	0.0039
0.9051	330	0.7387	0.004
0.9299	340	0.7998	0.0044
0.9365	330	0.7871	0.0048
0.951	340	0.8537	0.0055
0.9586	330	0.8465	0.006
0.9721	340	0.9054	0.0059
0.9754	330	0.8953	0.0066
0.986	340	0.9498	0.0067
0.9883	330	0.9397	0.0084
0.9956	340	0.9804	0.0073
0.9958	330	0.9799	0.0105
1	330	1	
1	340	1	

System: propan-2-ol + 2,4-dimethyl-3-pentanone; phases: Liquid, Gas
Property: Vapor or sublimation pressure, kPa (Liquid); method: Ebulliometric method (Recirculating still)
Mole fraction of propan-2-ol	Temperature, K	Vapor or sublimation pressure, kPa	uncertainty
0	330	8.87	0.08
0	340	13.55	0.1
0.0363	330	11.38	0.16
0.037	340	17.44	0.22
0.0737	330	13.4	0.14
0.0767	340	20.55	0.19
0.1305	330	15.93	0.15
0.1348	340	24.44	0.2
0.1977	330	18.42	0.15
0.2007	340	28.28	0.2
0.2727	330	20.71	0.16
0.2759	340	31.92	0.21
0.3531	330	22.72	0.17
0.3531	340	35.06	0.22
0.4267	330	24.38	0.18
0.4307	340	37.8	0.23
0.5003	340	39.98	0.23
0.501	330	25.75	0.18
0.5915	340	42.66	0.25
0.5961	330	27.34	0.19
0.6728	330	28.57	0.2
0.6729	340	44.72	0.26
0.7213	330	29.34	0.21
0.7221	340	46.04	0.26
0.7941	340	47.9	0.27
0.7984	330	30.46	0.21
0.857	340	49.42	0.28
0.8587	330	31.3	0.22
0.9076	340	50.59	0.28
0.9084	330	31.94	0.22
0.9452	340	51.43	0.29
0.9455	330	32.4	0.23
0.9726	340	52.07	0.29
0.9728	330	32.72	0.23
0.9894	330	32.93	0.23
0.9905	340	52.43	0.3
1	330	33.25	0.23
1	340	52.97	0.29

System: propan-2-ol + 2,4-dimethyl-3-pentanone; phases: Gas, Liquid
Property: Mole fraction of propan-2-ol (Gas); method: Chromatography
Mole fraction of propan-2-ol	Temperature, K	Mole fraction of propan-2-ol	uncertainty
0	330	0	
0	340	0	
0.0363	330	0.213	0.01
0.037	340	0.2173	0.0098
0.0737	330	0.3567	0.0069
0.0767	340	0.3634	0.0068
0.1305	330	0.4889	0.006
0.1348	340	0.4987	0.0061
0.1977	330	0.5856	0.0048
0.2007	340	0.5928	0.0047
0.2727	330	0.654	0.004
0.2759	340	0.6579	0.0039
0.3531	330	0.7085	0.0035
0.3531	340	0.7137	0.0034
0.4267	330	0.7453	0.0031
0.4307	340	0.7545	0.0031
0.5003	340	0.7839	0.0029
0.501	330	0.7804	0.0029
0.5915	340	0.8233	0.0026
0.5961	330	0.8157	0.0027
0.6728	330	0.8467	0.0025
0.6729	340	0.8518	0.0025
0.7213	330	0.8648	0.0024
0.7221	340	0.8704	0.0024
0.7941	340	0.9016	0.0023
0.7984	330	0.8949	0.0024
0.857	340	0.9274	0.0023
0.8587	330	0.9234	0.0023
0.9076	340	0.9509	0.0023
0.9084	330	0.9474	0.0023
0.9452	340	0.9694	0.0023
0.9455	330	0.9667	0.0023
0.9726	340	0.9844	0.0023
0.9728	330	0.9828	0.0024
0.9894	330	0.994	0.0024
0.9905	340	0.9935	0.0023
1	330	1	
1	340	1	

System: 2,2,4-trimethylpentane + 2,4-dimethyl-3-pentanone; phases: Liquid, Gas
Property: Vapor or sublimation pressure, kPa (Liquid); method: Ebulliometric method (Recirculating still)
Mole fraction of 2,2,4-trimethylpentane	Temperature, K	Vapor or sublimation pressure, kPa	uncertainty
0	330	8.87	0.08
0	340	13.55	0.1
0.0418	330	10.74	0.12
0.0472	340	16.31	0.16
0.0698	330	11.72	0.12
0.0776	340	17.9	0.15
0.1051	330	12.72	0.12
0.1149	340	19.28	0.14
0.1459	330	13.8	0.12
0.1569	340	20.74	0.15
0.1971	330	14.97	0.12
0.2079	340	22.33	0.15
0.24	330	15.93	0.13
0.25	340	23.64	0.16
0.2525	330	16.27	0.13
0.2631	340	24.14	0.17
0.3103	330	17.32	0.13
0.3206	340	25.56	0.16
0.3223	330	17.61	0.13
0.3335	340	25.87	0.16
0.3898	330	18.71	0.14
0.4	340	27.44	0.17
0.4147	330	19.17	0.14
0.4282	340	28.09	0.17
0.4759	330	20	0.14
0.4845	340	29.13	0.17
0.5228	330	20.71	0.14
0.5312	340	30.12	0.18
0.6296	330	21.99	0.15
0.635	340	31.86	0.18
0.7236	330	23.02	0.15
0.7306	340	33.32	0.19
0.8127	330	23.87	0.16
0.8163	340	34.49	0.19
0.8858	330	24.51	0.16
0.8879	340	35.33	0.2
0.9422	340	35.95	0.2
0.9423	330	24.96	0.16
0.9792	340	36.33	0.2
0.9804	330	25.25	0.16
1	330	25.47	0.16
1	340	36.64	0.2

System: 2,2,4-trimethylpentane + 2,4-dimethyl-3-pentanone; phases: Gas, Liquid
Property: Mole fraction of 2,2,4-trimethylpentane (Gas); method: Chromatography
Mole fraction of 2,2,4-trimethylpentane	Temperature, K	Mole fraction of 2,2,4-trimethylpentane	uncertainty
0	330	0	
0	340	0	
0.0418	330	0.1743	0.0079
0.0472	340	0.1752	0.0072
0.0698	330	0.2607	0.0062
0.0776	340	0.2598	0.0058
0.1051	330	0.3476	0.0057
0.1149	340	0.3444	0.0055
0.1459	330	0.426	0.0054
0.1569	340	0.4218	0.0053
0.1971	330	0.5004	0.0055
0.2079	340	0.4917	0.0054
0.24	330	0.5441	0.005
0.25	340	0.5369	0.0051
0.2525	330	0.5613	0.0052
0.2631	340	0.5574	0.0054
0.3103	330	0.6153	0.0041
0.3206	340	0.6113	0.004
0.3223	330	0.622	0.004
0.3335	340	0.6142	0.004
0.3898	330	0.6793	0.0038
0.4	340	0.6705	0.0038
0.4147	330	0.6877	0.0036
0.4282	340	0.6809	0.0037
0.4759	330	0.7293	0.0033
0.4845	340	0.7217	0.0034
0.5228	330	0.7479	0.0031
0.5312	340	0.7403	0.0032
0.6296	330	0.8019	0.0028
0.635	340	0.7947	0.0029
0.7236	330	0.8472	0.0026
0.7306	340	0.8429	0.0026
0.8127	330	0.8893	0.0024
0.8163	340	0.8874	0.0025
0.8858	330	0.9278	0.0024
0.8879	340	0.9258	0.0024
0.9422	340	0.9602	0.0024
0.9423	330	0.961	0.0024
0.9792	340	0.9859	0.0024
0.9804	330	0.986	0.0024
1	330	1	
1	340	1	

System: propan-2-ol + 2,2,4-trimethylpentane + 2,4-dimethyl-3-pentanone; phases: Liquid, Gas
Property: Mole fraction of 2,2,4-trimethylpentane (Liquid); method: Chromatography
Property: Mole fraction of 2,2,4-trimethylpentane (Gas); method: Chromatography
Property: Mole fraction of propan-2-ol (Gas); method: Chromatography
Temperature, K	Pressure, kPa	Mole fraction of propan-2-ol	Mole fraction of 2,2,4-trimethylpentane	uncertainty	Mole fraction of 2,2,4-trimethylpentane	uncertainty	Mole fraction of propan-2-ol	uncertainty
330	20.78	0.0174	0.4234	0.0036	0.6524	0.0036	0.083	
330	23.44	0.0521	0.4029	0.0035	0.5687	0.0042	0.2016	
330	26.74	0.1085	0.3691	0.0033	0.4839	0.0046	0.3279	
330	29.96	0.1905	0.326	0.0031	0.4197	0.0041	0.4232	
330	31.97	0.2821	0.274	0.0028	0.3699	0.0037	0.4293	
330	33.33	0.3824	0.2199	0.0025	0.3273	0.0034	0.5494	
330	33.93	0.4759	0.1676	0.0023	0.2823	0.0031	0.6011	
330	34.31	0.5708	0.1246	0.0022	0.241	0.0029	0.6528	
330	34.05	0.6532	0.0899	0.0021	0.2025	0.0026	0.7012	
330	33.76	0.7257	0.0621	0.002	0.1629	0.0024	0.751	
330	33.36	0.7859	0.0424	0.002	0.1268	0.0023	0.7969	
330	24.95	0.0102	0.8388	0.0023	0.8296	0.0025	0.0888	
330	29.25	0.0374	0.8143	0.0024	0.6969	0.0033	0.2386	
330	33.8	0.0905	0.7657	0.0026	0.5983	0.004	0.3499	
330	36.48	0.1799	0.69	0.003	0.527	0.0045	0.4315	
330	38.24	0.282	0.5975	0.0035	0.4865	0.0046	0.4778	
330	39.37	0.3898	0.4998	0.0041	0.4553	0.0044	0.5131	
330	39.81	0.5021	0.4005	0.0035	0.4254	0.0041	0.5461	
330	40.73	0.6059	0.3072	0.003	0.3931	0.0039	0.5805	
330	40.11	0.6993	0.2271	0.0026	0.3613	0.0037	0.6148	
330	39.29	0.7744	0.1646	0.0023	0.3217	0.0034	0.6564	
330	38.17	0.8382	0.1123	0.0022	0.2746	0.0031	0.7057	
330	10.64	0.0148	0.0572	0.002	0.212	0.0027	0.082	
330	12.73	0.0423	0.0538	0.002	0.1799	0.0025	0.2131	
330	14.76	0.0863	0.0492	0.002	0.1446	0.0023	0.3497	
330	17.45	0.1594	0.0393	0.002	0.1043	0.0022	0.4946	
330	19.89	0.2486	0.0305	0.002	0.0781	0.0021	0.5976	
330	21.8	0.3426	0.0228	0.002	0.0573	0.0021	0.6675	
330	23.23	0.4258	0.0162	0.002	0.0421	0.002	0.7205	
330	24.73	0.5189	0.0114	0.002	0.0314	0.002	0.7696	
330	25.92	0.6096	0.0078	0.002	0.023	0.002	0.8073	
330	26.91	0.6889	0.0053	0.002	0.0168	0.002	0.8398	
340	30.51	0.0177	0.4313	0.0037	0.6406	0.0037	0.0832	
340	34.36	0.0514	0.4103	0.0035	0.5572	0.0043	0.2089	
340	39.23	0.1083	0.376	0.0033	0.472	0.0045	0.334	
340	44.47	0.1898	0.3326	0.0031	0.4046	0.004	0.4373	
340	47.79	0.2765	0.2797	0.0028	0.353	0.0036	0.5056	
340	50.13	0.3763	0.2262	0.0026	0.3097	0.0033	0.5664	
340	51.48	0.4711	0.175	0.0024	0.2634	0.003	0.6208	
340	52.51	0.5649	0.1303	0.0022	0.2237	0.0028	0.669	
340	52.43	0.6479	0.0941	0.0021	0.19	0.0026	0.7175	
340	52.39	0.7212	0.0642	0.0021	0.1532	0.0024	0.764	
340	52.08	0.7827	0.0432	0.002	0.1198	0.0022	0.8073	
340	36.19	0.0109	0.8382	0.0023	0.822	0.0025	0.0953	
340	42.41	0.0252	0.8215	0.0024	0.6937	0.0033	0.2395	
340	49.37	0.0935	0.7662	0.0026	0.5869	0.004	0.3591	
340	53.95	0.1817	0.6905	0.003	0.5137	0.0046	0.444	
340	56.96	0.2716	0.6071	0.0034	0.4647	0.0044	0.4995	
340	58.81	0.3803	0.5075	0.004	0.4299	0.0042	0.5387	
340	60.01	0.4935	0.4079	0.0035	0.4013	0.004	0.5075	
340	62	0.5973	0.3153	0.003	0.3702	0.0037	0.6041	
340	61.16	0.6902	0.2361	0.0026	0.3354	0.0035	0.6411	
340	60.2	0.7692	0.1701	0.0023	0.2934	0.0032	0.6853	
340	58.78	0.8296	0.1209	0.0022	0.2491	0.0029	0.7319	
340	17.33	0.0165	0.0625	0.002	0.2115	0.0027	0.0896	
340	19.46	0.043	0.0571	0.002	0.176	0.0025	0.218	
340	22.58	0.091	0.053	0.002	0.1434	0.0023	0.3605	
340	26.67	0.1643	0.0422	0.002	0.1017	0.0022	0.5021	
340	30.5	0.2502	0.0328	0.002	0.0746	0.0021	0.6061	
340	33.57	0.3404	0.0239	0.002	0.0546	0.0021	0.6754	
340	35.99	0.4282	0.0172	0.002	0.0402	0.002	0.7291	
340	38.46	0.52	0.0122	0.002	0.0298	0.002	0.7744	
340	40.5	0.6065	0.0084	0.002	0.0216	0.002	0.8142	
340	42.18	0.6858	0.0056	0.002	0.0159	0.002	0.8479	
