Measured thermophysical data. Phase behaviour of aqueous mixtures of acetic acid with isomers of xylene
Source: J. Chem. Thermodyn., 2013, 10.1016/j.jct.2013.08.001
Compound 1: acetic acid, C2H4O2, InChI=1S/C2H4O2/c1-2(3)4/h1H3,(H,3,4), purity 99%
Compound 2: 1,3-dimethylbenzene, C8H10, InChI=1S/C8H10/c1-7-4-3-5-8(2)6-7/h3-6H,1-2H3, purity 99%
Compound 3: 1,2-dimethylbenzene, C8H10, InChI=1S/C8H10/c1-7-5-3-4-6-8(7)2/h3-6H,1-2H3, purity 99%
Compound 4: 1,4-dimethylbenzene, C8H10, InChI=1S/C8H10/c1-7-3-5-8(2)6-4-7/h3-6H,1-2H3, purity 99%
Compound 5: water, H2O, InChI=1S/H2O/h1H2

System: acetic acid + 1,2-dimethylbenzene + water; phases: Liquid mixture 1, Liquid mixture 2
Fixed: Pressure, kPa = 100
Fixed: Temperature, K = 298.15
Property: Mass fraction of acetic acid (Liquid mixture 1); method: Titration method
Mass fraction of water	Mass fraction of acetic acid	uncertainty
0.9756	0	
0.435	0.5303	0.2004
0.3552	0.6115	0.2003
0.2992	0.6627	0.2002
0.2618	0.698	0.2002
0.2185	0.7285	0.2001
0.1905	0.7433	0.2001
0.1647	0.7481	0.2001
0.13	0.736	0.2001
0.0992	0.6974	0.2002
0.0796	0.6401	0.2003
0.0626	0.5316	0.2004
0.0562	0.4699	0.2004
0.0493	0.3812	0.2003
0.02	0	

System: acetic acid + 1,2-dimethylbenzene + water; phases: Liquid mixture 2, Liquid mixture 1
Fixed: Temperature, K = 298.15
Fixed: Pressure, kPa = 100
Property: Mass fraction of water (Liquid mixture 2); method: Titration method
Property: Mass fraction of water (Liquid mixture 1); method: Titration method
Property: Mass fraction of acetic acid (Liquid mixture 1); method: Titration method
Mass fraction of acetic acid	Mass fraction of water	uncertainty	Mass fraction of water	uncertainty	Mass fraction of acetic acid	uncertainty
0.0242	0.0206	0.0206	0.9042	0.0958	0.0704	
0.0369	0.0236	0.0236	0.8807	0.1193	0.093	
0.0469	0.024	0.024	0.8545	0.1455	0.1189	
0.0637	0.0264	0.0264	0.8291	0.1709	0.1439	
0.0798	0.0271	0.0271	0.8013	0.1987	0.1716	
0.2	0.035	0.035	0.6619	0.2002	0.3101	
0.2822	0.0404	0.0404	0.5979	0.2003	0.3708	

System: acetic acid + 1,3-dimethylbenzene + water; phases: Liquid mixture 1, Liquid mixture 2
Fixed: Pressure, kPa = 100
Fixed: Temperature, K = 298.15
Property: Mass fraction of acetic acid (Liquid mixture 1); method: Titration method
Mass fraction of water	Mass fraction of acetic acid	uncertainty
0.9999	0	
0.3636	0.6109	0.2003
0.2797	0.6867	0.2002
0.2367	0.7207	0.2002
0.1908	0.7462	0.2001
0.1638	0.751	0.2001
0.1397	0.7451	0.2001
0.1152	0.735	0.2001
0.096	0.713	0.2002
0.0796	0.6791	0.2002
0.0639	0.6342	0.2003
0.0554	0.601	0.2003
0.0463	0.5455	0.2004
0.036	0.4382	0.2004
0.02	0	

System: acetic acid + 1,3-dimethylbenzene + water; phases: Liquid mixture 2, Liquid mixture 1
Fixed: Temperature, K = 298.15
Fixed: Pressure, kPa = 100
Property: Mass fraction of water (Liquid mixture 2); method: Titration method
Property: Mass fraction of water (Liquid mixture 1); method: Titration method
Property: Mass fraction of acetic acid (Liquid mixture 1); method: Titration method
Mass fraction of acetic acid	Mass fraction of water	uncertainty	Mass fraction of water	uncertainty	Mass fraction of acetic acid	uncertainty
0.0295	0.0205	0.0205	0.9099	0.0901	0.0837	
0.0379	0.0213	0.0213	0.8905	0.1095	0.103	
0.0718	0.0241	0.0241	0.8246	0.1754	0.1686	
0.0988	0.0263	0.0263	0.7864	0.2001	0.2066	
0.1087	0.0266	0.0266	0.7623	0.2001	0.2288	
0.2501	0.028	0.028	0.5661	0.2004	0.418	
0.35	0.0319	0.0319	0.4877	0.2005	0.4907	

System: acetic acid + 1,4-dimethylbenzene + water; phases: Liquid mixture 1, Liquid mixture 2
Fixed: Pressure, kPa = 100
Fixed: Temperature, K = 298.15
Property: Mass fraction of acetic acid (Liquid mixture 1); method: Titration method
Mass fraction of water	Mass fraction of acetic acid	uncertainty
0.9756	0	
0.4598	0.4969	0.2005
0.3906	0.5602	0.2004
0.3295	0.6101	0.2003
0.2907	0.6427	0.2003
0.2522	0.6707	0.2002
0.2242	0.6864	0.2002
0.1934	0.7009	0.2002
0.1718	0.709	0.2002
0.1464	0.7189	0.2002
0.1204	0.7215	0.2002
0.0831	0.6996	0.2002
0.0668	0.671	0.2002
0.042	0.558	0.2004
0.0267	0	

System: acetic acid + 1,4-dimethylbenzene + water; phases: Liquid mixture 1, Liquid mixture 2
Fixed: Temperature, K = 298.15
Fixed: Pressure, kPa = 100
Property: Mass fraction of water (Liquid mixture 1); method: Titration method
Property: Mass fraction of water (Liquid mixture 2); method: Titration method
Property: Mass fraction of acetic acid (Liquid mixture 2); method: Titration method
Mass fraction of acetic acid	Mass fraction of water	uncertainty	Mass fraction of water	uncertainty	Mass fraction of acetic acid	uncertainty
0.1261	0.8444	0.1556	0.0272	0.0272	0.0484	
0.1367	0.8335	0.1665	0.0282	0.0282	0.0543	
0.1808	0.7879	0.2001	0.029	0.029	0.076	
0.4123	0.55	0.2004	0.0345	0.0345	0.2699	
0.4746	0.4851	0.2005	0.0371	0.0371	0.353	
0.0857	0.8859	0.1141	0.0267	0.0267	0.032	
0.1076	0.8636	0.1364	0.027	0.027	0.041	

System: 1,2-dimethylbenzene + water; phases: Liquid mixture 1, Liquid mixture 2
Property: Mass fraction of water (Liquid mixture 1); method: Titration method
Temperature, K	Pressure, kPa	Mass fraction of water	uncertainty
298.15	100	0.9756	0.0244

System: 1,2-dimethylbenzene + water; phases: Liquid mixture 2, Liquid mixture 1
Property: Mass fraction of water (Liquid mixture 2); method: Titration method
Temperature, K	Pressure, kPa	Mass fraction of water	uncertainty
298.15	100	0.02	0.02

System: 1,3-dimethylbenzene + water; phases: Liquid mixture 1, Liquid mixture 2
Property: Mass fraction of water (Liquid mixture 1); method: Titration method
Temperature, K	Pressure, kPa	Mass fraction of water	uncertainty
298.15	100	0.9999	0.0001

System: 1,3-dimethylbenzene + water; phases: Liquid mixture 2, Liquid mixture 1
Property: Mass fraction of water (Liquid mixture 2); method: Titration method
Temperature, K	Pressure, kPa	Mass fraction of water	uncertainty
298.15	100	0.02	0.02

System: 1,4-dimethylbenzene + water; phases: Liquid mixture 1, Liquid mixture 2
Property: Mass fraction of water (Liquid mixture 1); method: Titration method
Temperature, K	Pressure, kPa	Mass fraction of water	uncertainty
298.15	100	0.9756	0.0244

System: 1,4-dimethylbenzene + water; phases: Liquid mixture 2, Liquid mixture 1
Property: Mass fraction of water (Liquid mixture 2); method: Titration method
Temperature, K	Pressure, kPa	Mass fraction of water	uncertainty
298.15	100	0.0267	0.0267
