Measured thermophysical data. Experimental thermochemical study of two 2-alkylbenzimidazole isomers (alkyl=propyl and isopropyl)
Source: J. Chem. Thermodyn., 2004, 10.1016/j.jct.2004.03.005
Compound 1: carbon dioxide, CO2, InChI=1S/CO2/c2-1-3
Compound 2: nitrogen, N2, InChI=1S/N2/c1-2
Compound 3: water, H2O, InChI=1S/H2O/h1H2
Compound 4: oxygen, O2, InChI=1S/O2/c1-2
Compound 5: 1H-benzimidazole, 2-propyl-, C10H12N2, InChI=1S/C10H12N2/c1-2-5-10-11-8-6-3-4-7-9(8)12-10/h3-4,6-7H,2,5H2,1H3,(H,11,12)
Compound 6: 1H-benzimidazole, 2-(1-methylethyl)-, C10H12N2, InChI=1S/C10H12N2/c1-7(2)10-11-8-5-3-4-6-9(8)12-10/h3-7H,1-2H3,(H,11,12), purity 97%

System: 1H-benzimidazole, 2-propyl-; phases: Crystal 2, Crystal 1, Air at 1 atmosphere
Property: Molar enthalpy of transition or fusion, kJ/mol (Crystal 2); method: DSC
Molar enthalpy of transition or fusion, kJ/mol	uncertainty
1.5	0.2

System: 1H-benzimidazole, 2-propyl-; phases: Crystal 2, Crystal 1, Air at 1 atmosphere
Property: Triple point temperature, K (Crystal 2); method: DTA
Triple point temperature, K	uncertainty
385.8	0.5

System: 1H-benzimidazole, 2-propyl-; phases: Crystal 2
Fixed: Pressure, kPa = 101.325
Property: Molar heat capacity at constant pressure, J/K/mol (Crystal 2); method: Small sample (50 mg) DSC
Temperature, K	Molar heat capacity at constant pressure, J/K/mol	uncertainty
268.15	190.5	3.81
270.15	192.6	3.85
275.15	197.1	3.94
280.15	201.5	4.03
285.15	206.1	4.12
290.15	210.1	4.2
295.15	214.4	4.29
298.15	217.1	4.34
300.15	218.7	4.37
305.15	223.2	4.46
310.15	228.3	4.57
315.15	234	4.68
320.15	239.7	4.79
325.15	245.7	4.91
330.15	252.2	5.04
335.15	258.6	5.17
340.15	263.7	5.27
345.15	268.3	5.37
350.15	274.9	5.5
355.15	282.4	5.65
360.15	292.6	5.85
365.15	306.3	6.13

System: 1H-benzimidazole, 2-propyl-; phases: Crystal 1
Fixed: Pressure, kPa = 101.325
Property: Molar heat capacity at constant pressure, J/K/mol (Crystal 1); method: Small sample (50 mg) DSC
Temperature, K	Molar heat capacity at constant pressure, J/K/mol	uncertainty
400.15	280.1	5.6
405.15	285.2	5.7
410.15	290.7	5.81
415.15	297.5	5.95
420.15	306.5	6.13

System: 1H-benzimidazole, 2-propyl-; phases: Crystal, Gas
Property: Vapor or sublimation pressure, kPa (Crystal); method: Calculated from knudsen effusion weight loss
Temperature, K	Vapor or sublimation pressure, kPa	uncertainty
344.53	4.28e-05	2.2e-06
352.14	9.52e-05	4.8e-06
355.33	0.000131	7e-06
362.01	0.000266	1.3e-05
364.33	0.000324	1.6e-05

System: 1H-benzimidazole, 2-(1-methylethyl)-; phases: Crystal 2, Crystal 1, Air at 1 atmosphere
Property: Molar enthalpy of transition or fusion, kJ/mol (Crystal 2); method: DSC
Molar enthalpy of transition or fusion, kJ/mol	uncertainty
1	0.2

System: 1H-benzimidazole, 2-(1-methylethyl)-; phases: Crystal 2, Crystal 1, Air at 1 atmosphere
Property: Triple point temperature, K (Crystal 2); method: DTA
Triple point temperature, K	uncertainty
410.4	0.4

System: 1H-benzimidazole, 2-(1-methylethyl)-; phases: Crystal 2
Fixed: Pressure, kPa = 101.325
Property: Molar heat capacity at constant pressure, J/K/mol (Crystal 2); method: Small sample (50 mg) DSC
Temperature, K	Molar heat capacity at constant pressure, J/K/mol	uncertainty
268.15	197	3.94
270.15	199	3.98
275.15	202.8	4.06
280.15	206.9	4.14
285.15	210.8	4.22
290.15	214.4	4.29
295.15	218.7	4.37
298.15	220.6	4.41
300.15	221.7	4.43
305.15	224.5	4.49
310.15	228	4.56
315.15	230.9	4.62
320.15	234.6	4.69
325.15	238	4.76
330.15	240.7	4.81
335.15	245.2	4.9
340.15	248.9	4.98
345.15	252.7	5.05
350.15	256	5.12
355.15	260	5.2
360.15	264	5.28
365.15	267.4	5.35
370.15	272	5.44
375.15	276.3	5.53
380.15	280.1	5.6
385.15	284.6	5.69

System: 1H-benzimidazole, 2-(1-methylethyl)-; phases: Crystal 1
Fixed: Pressure, kPa = 101.325
Property: Molar heat capacity at constant pressure, J/K/mol (Crystal 1); method: Small sample (50 mg) DSC
Temperature, K	Molar heat capacity at constant pressure, J/K/mol	uncertainty
425.15	285.7	5.71
430.15	288.4	5.77
435.15	292.2	5.84
440.15	298.2	5.96
445.15	301.3	6.03
450.15	308.5	6.17
455.15	310.9	6.22
460.15	314.8	6.3
463.15	316.2	6.32

System: 1H-benzimidazole, 2-(1-methylethyl)-; phases: Gas
Property: Molar enthalpy, kJ/mol (Gas); method: Drop calorimetry
Temperature, K	Pressure, kPa	Molar enthalpy, kJ/mol	uncertainty
558	100	174.2	4.6

Reaction: -1 1H-benzimidazole, 2-propyl- + 10 carbon dioxide + 1 nitrogen + 6 water + -13 oxygen
Property: Specific internal energy of reaction at constant volume, J/g
-34945.6

Reaction: -1 1H-benzimidazole, 2-(1-methylethyl)- + 10 carbon dioxide + 1 nitrogen + 6 water + -13 oxygen
Property: Specific internal energy of reaction at constant volume, J/g
-35036.7
