Measured thermophysical data. Thermodynamics of proton dissociations from aqueous alanine at temperatures from (278.15 to 393.15) K, molalities from (0.0075 to 1.0) mol*kg-1, and at the pressure 0.35 MPa: Apparent molar heat capacities and apparent molar volumes of alanine, alaninium chloride, and sodium alaninate
Source: J. Chem. Thermodyn., 2006, 10.1016/j.jct.2005.10.007
Compound 1: (S)-2-aminopropanoic acid, C3H7NO2, InChI=1S/C3H7NO2/c1-2(4)3(5)6/h2H,4H2,1H3,(H,5,6)/t2-/m0/s1, purity 99.8%
Compound 2: water, H2O, InChI=1S/H2O/h1H2
Compound 3: hydrogen chloride, ClH, InChI=1S/ClH/h1H
Compound 4: sodium hydroxide, HNaO, InChI=1S/Na.H2O/h;1H2/q+1;/p-1

System: (S)-2-aminopropanoic acid + water; phases: Liquid
Fixed: Pressure, kPa = 350
Property: Apparent molar heat capacity, J/K/mol (Liquid); method: Extra sensitive DSC
Temperature, K	Molality, mol/kg of (S)-2-aminopropanoic acid	Apparent molar heat capacity, J/K/mol	uncertainty
278.15	0.0152	107	83
278.15	0.0299	137	42
278.15	0.05	101.3	18.8
278.15	0.08	106	11.8
278.15	0.1247	107	9.3
278.15	0.2493	113.3	4.7
278.15	0.5149	122.6	2.4
278.15	1.0019	118.5	1.4
283.15	0.0152	119	83
283.15	0.0299	148	42
283.15	0.05	113.2	18.5
283.15	0.08	117.9	11.6
283.15	0.1247	118.8	9
283.15	0.2493	124.8	4.6
283.15	0.5149	133.2	2.5
283.15	1.0019	128.7	1.4
288.15	0.0152	131	84
288.15	0.0299	156	43
288.15	0.05	123.3	18.1
288.15	0.08	127.8	11.5
288.15	0.1247	128.9	8.6
288.15	0.2493	134.4	4.5
288.15	0.5149	142	2.3
288.15	1.0019	137.2	1.4
293.15	0.0152	143	83
293.15	0.0299	163	42
293.15	0.05	131.5	17.8
293.15	0.08	136	11.3
293.15	0.1247	137.4	8.2
293.15	0.2493	142.4	4.2
293.15	0.5149	149.5	2.2
293.15	1.0019	144.3	1.3
298.15	0.0152	152	81
298.15	0.0299	170	42
298.15	0.05	138.2	17.5
298.15	0.08	142.8	11.1
298.15	0.1247	144.2	8.1
298.15	0.2493	149.1	4.2
298.15	0.5149	155.6	2.2
298.15	1.0019	150.2	1.3
303.15	0.0152	158	79
303.15	0.0299	174	42
303.15	0.05	143.9	17.4
303.15	0.08	148.7	11
303.15	0.1247	150.3	7.9
303.15	0.2493	154.9	4.1
303.15	0.5149	160.8	2.2
303.15	1.0019	155.5	1.3
308.15	0.0152	163	79
308.15	0.0299	178	40
308.15	0.05	148.9	17.1
308.15	0.08	153.7	10.9
308.15	0.1247	155.4	7.7
308.15	0.2493	159.8	4
308.15	0.5149	165.3	2.1
308.15	1.0019	159.8	1.3
313.15	0.0152	169	79
313.15	0.0299	182	40
313.15	0.05	153.6	16.9
313.15	0.08	158	10.8
313.15	0.1247	159.9	7.6
313.15	0.2493	164.1	4
313.15	0.5149	169.3	2.1
313.15	1.0019	163.8	1.3
318.15	0.0152	172	78
318.15	0.0299	185	40
318.15	0.05	157.3	16.8
318.15	0.08	161.6	10.7
318.15	0.1247	163.9	7.2
318.15	0.2493	167.7	3.8
318.15	0.5149	172.6	2
318.15	1.0019	167.1	1.2
323.15	0.0152	175	76
323.15	0.0299	188	38
323.15	0.05	160.9	16.7
323.15	0.08	164.9	10.6
323.15	0.1247	167.3	7
323.15	0.2493	170.9	3.7
323.15	0.5149	175.5	2
323.15	1.0019	170	1.2
328.15	0.0152	178	76
328.15	0.0299	190	38
328.15	0.05	163.7	16.6
328.15	0.08	167.7	10.5
328.15	0.1247	170.3	6.7
328.15	0.2493	173.6	3.6
328.15	0.5149	178	1.9
328.15	1.0019	172.5	1.2
333.15	0.0152	181	75
333.15	0.0299	192	38
333.15	0.05	166.4	16.4
333.15	0.08	170.2	10.4
333.15	0.1247	173	6.6
333.15	0.2493	176.1	3.5
333.15	0.5149	180.3	1.9
333.15	1.0019	174.8	1.2
338.15	0.0152	184	75
338.15	0.0299	194	38
338.15	0.05	168.8	16.2
338.15	0.08	172.4	10.3
338.15	0.1247	175.4	6.6
338.15	0.2493	178.3	3.5
338.15	0.5149	182.3	1.9
338.15	1.0019	176.9	1.2
343.15	0.0152	187	73
343.15	0.0299	196	37
343.15	0.05	170.7	15.9
343.15	0.08	174.2	10.1
343.15	0.1247	177.3	6.6
343.15	0.2493	180.1	3.5
343.15	0.5149	183.9	1.9
343.15	1.0019	178.6	1.2
348.15	0.0152	188	73
348.15	0.0299	197	37
348.15	0.05	172.4	15.9
348.15	0.08	175.9	10.1
348.15	0.1247	178.9	6.6
348.15	0.2493	181.7	3.5
348.15	0.5149	185.3	1.9
348.15	1.0019	180.1	1.2
353.15	0.0152	190	72
353.15	0.0299	198	37
353.15	0.05	174	15.9
353.15	0.08	177.4	10.1
353.15	0.1247	180.5	6.6
353.15	0.2493	183.1	3.5
353.15	0.5149	186.6	1.9
353.15	1.0019	181.4	1.2
358.15	0.0152	191	73
358.15	0.0299	199	37
358.15	0.05	175.2	16
358.15	0.08	178.5	10.1
358.15	0.1247	181.6	6.6
358.15	0.2493	184.3	3.5
358.15	0.5149	187.6	1.9
358.15	1.0019	182.5	1.2
363.15	0.0152	192	73
363.15	0.0299	199	37
363.15	0.05	176.1	15.9
363.15	0.08	179.4	10.1
363.15	0.1247	182.5	6.6
363.15	0.2493	185.1	3.5
363.15	0.5149	188.4	2
363.15	1.0019	183.5	1.2
368.15	0.0152	192	73
368.15	0.0299	200	37
368.15	0.05	176.6	15.9
368.15	0.08	180.1	10.1
368.15	0.1247	183.3	6.6
368.15	0.2493	185.8	3.5
368.15	0.5149	189	2
368.15	1.0019	184.2	1.2
373.15	0.0152	192	72
373.15	0.0299	200	37
373.15	0.05	177.1	15.9
373.15	0.08	180.5	10.1
373.15	0.1247	183.7	6.6
373.15	0.2493	186.2	3.5
373.15	0.5149	189.4	2
373.15	1.0019	184.8	1.2
378.15	0.0152	192	70
378.15	0.0299	200	35
378.15	0.05	177.2	15.9
378.15	0.08	180.6	10.1
378.15	0.1247	183.8	6.6
378.15	0.2493	186.4	3.5
378.15	0.5149	189.5	2
378.15	1.0019	185.1	1.2
383.15	0.0152	192	70
383.15	0.0299	200	35
383.15	0.05	177.1	15.9
383.15	0.08	180.7	10.1
383.15	0.1247	183.9	6.6
383.15	0.2493	186.4	3.5
383.15	0.5149	189.6	2
383.15	1.0019	185.4	1.2
388.15	0.0152	192	72
388.15	0.0299	199	37
388.15	0.05	176.8	15.9
388.15	0.08	180.3	10.1
388.15	0.1247	183.6	6.6
388.15	0.2493	186.2	3.5
388.15	0.5149	189.4	2
388.15	1.0019	185.5	1.2
393.15	0.0152	190	72
393.15	0.0299	200	37
393.15	0.05	176.6	15.9
393.15	0.08	179.8	10.1
393.15	0.1247	183.1	6.6
393.15	0.2493	185.8	3.5
393.15	0.5149	189.2	2
393.15	1.0019	185.5	1.2

System: (S)-2-aminopropanoic acid + water; phases: Liquid
Fixed: Pressure, kPa = 350
Property: Apparent molar volume, m3/mol (Liquid); method: Calculated with densities of this investigation
Temperature, K	Molality, mol/kg of (S)-2-aminopropanoic acid	Apparent molar volume, m3/mol	uncertainty
278.15	0.0152	4.43e-05	1.56e-05
278.15	0.0299	6.35e-05	8e-06
278.15	0.05	6.294e-05	1.18e-06
278.15	0.08	5.634e-05	6.7e-07
278.15	0.1247	6.008e-05	1.4e-06
278.15	0.2493	6.025e-05	7.1e-07
278.15	0.5149	5.976e-05	3.6e-07
278.15	1.0019	5.959e-05	2.1e-07
283.15	0.0152	4.63e-05	1.29e-05
283.15	0.0299	6.42e-05	6.7e-06
283.15	0.05	6.247e-05	1.17e-06
283.15	0.08	5.727e-05	6.7e-07
283.15	0.1247	6.034e-05	1.42e-06
283.15	0.2493	6.058e-05	7.1e-07
283.15	0.5149	6.031e-05	3.6e-07
283.15	1.0019	6.003e-05	2.1e-07
288.15	0.0152	4.88e-05	1.07e-05
288.15	0.0299	6.62e-05	5.5e-06
288.15	0.05	6.246e-05	1.32e-06
288.15	0.08	5.793e-05	7.8e-07
288.15	0.1247	6.066e-05	1.12e-06
288.15	0.2493	6.087e-05	5.6e-07
288.15	0.5149	6.071e-05	2.8e-07
288.15	1.0019	6.04e-05	1.5e-07
298.15	0.0152	5.1e-05	8.5e-06
298.15	0.0299	6.54e-05	4.4e-06
298.15	0.05	6.27e-05	1.37e-06
298.15	0.08	5.879e-05	8.3e-07
298.15	0.1247	6.111e-05	9.9e-07
298.15	0.2493	6.139e-05	5.1e-07
298.15	0.5149	6.138e-05	2.6e-07
298.15	1.0019	6.101e-05	1.5e-07
308.15	0.0152	5.32e-05	7.4e-06
308.15	0.0299	6.56e-05	3.9e-06
308.15	0.05	6.323e-05	1.29e-06
308.15	0.08	5.922e-05	7.7e-07
308.15	0.1247	6.168e-05	7e-07
308.15	0.2493	6.176e-05	3.7e-07
308.15	0.5149	6.191e-05	1.9e-07
308.15	1.0019	6.152e-05	1.2e-07
318.15	0.0152	5.3e-05	5.5e-06
318.15	0.0299	6.67e-05	3.1e-06
318.15	0.05	6.319e-05	1.19e-06
318.15	0.08	5.992e-05	7.1e-07
318.15	0.1247	6.218e-05	8e-07
318.15	0.2493	6.208e-05	4e-07
318.15	0.5149	6.239e-05	2.1e-07
318.15	1.0019	6.192e-05	1.2e-07
328.15	0.0152	5.59e-05	6.4e-06
328.15	0.0299	6.7e-05	3.4e-06
328.15	0.05	5.935e-05	1.14e-06
328.15	0.08	6.073e-05	7.3e-07
328.15	0.1247	6.239e-05	6.3e-07
328.15	0.2493	6.226e-05	3.2e-07
328.15	0.5149	6.261e-05	1.6e-07
328.15	1.0019	6.218e-05	1e-07
338.15	0.0152	6.24e-05	8.9e-06
338.15	0.0299	6.72e-05	4.6e-06
338.15	0.05	6.35e-05	2.5e-06
338.15	0.08	6.1e-05	1.49e-06
338.15	0.1247	6.187e-05	1.27e-06
338.15	0.2493	6.21e-05	6.4e-07
338.15	0.5149	6.288e-05	3.2e-07
338.15	1.0019	6.229e-05	1.7e-07
348.15	0.0152	5.96e-05	3.64e-06
348.15	0.0299	6.895e-05	2.17e-06
348.15	0.05	6.321e-05	1.32e-06
348.15	0.08	6.123e-05	8.1e-07
348.15	0.1247	6.244e-05	4.9e-07
348.15	0.2493	6.249e-05	2.5e-07
348.15	0.5149	6.302e-05	1.4e-07
348.15	1.0019	6.257e-05	8e-08
358.15	0.0152	5.927e-05	3.62e-06
358.15	0.0299	6.901e-05	2.17e-06
358.15	0.05	6.287e-05	1.84e-06
358.15	0.08	6.133e-05	1.15e-06
358.15	0.1247	6.247e-05	4.7e-07
358.15	0.2493	6.252e-05	2.4e-07
358.15	0.5149	6.314e-05	1.2e-07
358.15	1.0019	6.267e-05	8e-08
368.15	0.0152	5.895e-05	3.6e-06
368.15	0.0299	7.106e-05	2.24e-06
368.15	0.05	6.283e-05	1.62e-06
368.15	0.08	6.147e-05	1e-06
368.15	0.1247	6.253e-05	4.7e-07
368.15	0.2493	6.271e-05	2.4e-07
368.15	0.5149	6.321e-05	1.2e-07
368.15	1.0019	6.269e-05	8e-08

System: (S)-2-aminopropanoic acid + hydrogen chloride + water; phases: Liquid
Fixed: Pressure, kPa = 350
Property: Apparent molar heat capacity, J/K/mol (Liquid); method: Extra sensitive DSC
Molality, mol/kg of hydrogen chloride	Temperature, K	Molality, mol/kg of (S)-2-aminopropanoic acid	Apparent molar heat capacity, J/K/mol	uncertainty
0.015	278.15	0.015	61.1	51.8
0.015	283.15	0.015	76.9	51.8
0.015	288.15	0.015	86.6	51.8
0.015	293.15	0.015	95.7	51.9
0.015	298.15	0.015	103.3	51.9
0.015	303.15	0.015	108.2	51.9
0.015	308.15	0.015	112.8	51.9
0.015	313.15	0.015	115.7	51.9
0.015	318.15	0.015	118	52
0.015	323.15	0.015	120.5	51.9
0.015	328.15	0.015	122.7	51.9
0.015	333.15	0.015	125.1	51.9
0.015	338.15	0.015	127.2	51.9
0.015	343.15	0.015	128.9	51.9
0.015	348.15	0.015	129.4	51.9
0.015	353.15	0.015	128.7	51.9
0.015	358.15	0.015	130.3	52
0.015	363.15	0.015	131.1	52
0.015	368.15	0.015	131.3	52
0.015	373.15	0.015	131	52
0.015	378.15	0.015	128.3	51.9
0.015	383.15	0.015	125.7	51.9
0.015	388.15	0.015	122	52
0.015	393.15	0.015	117	54
0.03	278.15	0.0299	69.4	26.1
0.03	283.15	0.0299	85.5	26.1
0.03	288.15	0.0299	97.3	26.1
0.03	293.15	0.0299	105.6	26.2
0.03	298.15	0.0299	112.5	26.2
0.03	303.15	0.0299	118.7	26.2
0.03	308.15	0.0299	122.8	26.2
0.03	313.15	0.0299	126.5	26.2
0.03	318.15	0.0299	129.3	26.2
0.03	323.15	0.0299	131.5	26.2
0.03	328.15	0.0299	132.1	26.2
0.03	333.15	0.0299	133.8	26.2
0.03	338.15	0.0299	134.8	26.2
0.03	343.15	0.0299	135.1	26.2
0.03	348.15	0.0299	134.8	26.2
0.03	353.15	0.0299	134.5	26.2
0.03	358.15	0.0299	135.1	26.2
0.03	363.15	0.0299	134.7	26.2
0.03	368.15	0.0299	133.7	26.2
0.03	373.15	0.0299	133.3	26.2
0.03	378.15	0.0299	132.2	26.2
0.03	383.15	0.0299	131.6	26.2
0.03	388.15	0.0299	130.9	26.3
0.03	393.15	0.0299	129.4	27.2
0.05	278.15	0.0499	79.6	15.7
0.05	283.15	0.0499	95.5	15.8
0.05	288.15	0.0499	106.8	15.8
0.05	293.15	0.0499	114.8	15.8
0.05	298.15	0.0499	121	15.8
0.05	303.15	0.0499	126.7	15.8
0.05	308.15	0.0499	130.8	15.8
0.05	313.15	0.0499	134.4	15.8
0.05	318.15	0.0499	136.4	15.8
0.05	323.15	0.0499	138.5	15.9
0.05	328.15	0.0499	139.2	15.9
0.05	333.15	0.0499	140.8	15.9
0.05	338.15	0.0499	141.8	15.9
0.05	343.15	0.0499	142.1	15.9
0.05	348.15	0.0499	142	15.9
0.05	353.15	0.0499	142	15.9
0.05	358.15	0.0499	142.1	15.9
0.05	363.15	0.0499	141.8	15.9
0.05	368.15	0.0499	140.8	15.9
0.05	373.15	0.0499	140	15.9
0.05	378.15	0.0499	139.1	15.9
0.05	383.15	0.0499	138	15.9
0.05	388.15	0.0499	137	15.9
0.05	393.15	0.0499	135.5	16.4
0.0801	278.15	0.0799	87.69	9.91
0.0801	283.15	0.0799	103.3	9.94
0.0801	288.15	0.0799	114.56	9.97
0.0801	293.15	0.0799	122.77	9.99
0.0801	298.15	0.0799	128.7	10
0.0801	303.15	0.0799	133.7	10
0.0801	308.15	0.0799	137.6	10
0.0801	313.15	0.0799	140.6	10
0.0801	318.15	0.0799	142.7	10
0.0801	323.15	0.0799	144.5	10
0.0801	328.15	0.0799	145.6	10
0.0801	333.15	0.0799	146.8	10
0.0801	338.15	0.0799	147.6	10
0.0801	343.15	0.0799	147.9	10
0.0801	348.15	0.0799	148	10
0.0801	353.15	0.0799	147.9	10
0.0801	358.15	0.0799	147.8	10
0.0801	363.15	0.0799	147.5	10
0.0801	368.15	0.0799	146.7	10
0.0801	373.15	0.0799	146	10
0.0801	378.15	0.0799	144.7	10
0.0801	383.15	0.0799	143.2	10
0.0801	388.15	0.0799	141.4	10.1
0.0801	393.15	0.0799	139.1	10.2
0.0985	278.15	0.0983	90.86	8.1
0.0985	283.15	0.0983	106.41	8.13
0.0985	288.15	0.0983	117.79	8.16
0.0985	293.15	0.0983	126.08	8.18
0.0985	298.15	0.0983	132.15	8.19
0.0985	303.15	0.0983	137.04	8.21
0.0985	308.15	0.0983	140.88	8.22
0.0985	313.15	0.0983	144.02	8.22
0.0985	318.15	0.0983	146.01	8.23
0.0985	323.15	0.0983	147.9	8.2
0.0985	328.15	0.0983	149	8.2
0.0985	333.15	0.0983	150.1	8.2
0.0985	338.15	0.0983	150.8	8.2
0.0985	343.15	0.0983	151	8.2
0.0985	348.15	0.0983	151	8.2
0.0985	353.15	0.0983	150.9	8.2
0.0985	358.15	0.0983	150.6	8.2
0.0985	363.15	0.0983	150.3	8.2
0.0985	368.15	0.0983	149.4	8.2
0.0985	373.15	0.0983	148.8	8.2
0.0985	378.15	0.0983	147.7	8.2
0.0985	383.15	0.0983	146.7	8.2
0.0985	388.15	0.0983	145.5	8.2
0.0985	393.15	0.0983	143.8	8.4
0.1749	278.15	0.1746	100.27	4.68
0.1749	283.15	0.1746	115.14	4.71
0.1749	288.15	0.1746	126.1	4.74
0.1749	293.15	0.1746	134.28	4.76
0.1749	298.15	0.1746	140.12	4.77
0.1749	303.15	0.1746	144.79	4.78
0.1749	308.15	0.1746	148.47	4.79
0.1749	313.15	0.1746	151.46	4.8
0.1749	318.15	0.1746	153.46	4.8
0.1749	323.15	0.1746	155.16	4.8
0.1749	328.15	0.1746	156.35	4.81
0.1749	333.15	0.1746	157.37	4.81
0.1749	338.15	0.1746	158.02	4.81
0.1749	343.15	0.1746	158.21	4.81
0.1749	348.15	0.1746	158.21	4.81
0.1749	353.15	0.1746	158.07	4.81
0.1749	358.15	0.1746	157.87	4.81
0.1749	363.15	0.1746	157.62	4.81
0.1749	368.15	0.1746	156.75	4.81
0.1749	373.15	0.1746	156.08	4.81
0.1749	378.15	0.1746	155.03	4.8
0.1749	383.15	0.1746	154.05	4.8
0.1749	388.15	0.1746	152.76	4.83
0.1749	393.15	0.1746	151.17	4.89
0.2997	278.15	0.2991	108.61	2.85
0.2997	283.15	0.2991	123.23	2.88
0.2997	288.15	0.2991	133.52	2.91
0.2997	293.15	0.2991	141.13	2.93
0.2997	298.15	0.2991	146.57	2.94
0.2997	303.15	0.2991	150.92	2.95
0.2997	308.15	0.2991	154.41	2.96
0.2997	313.15	0.2991	157.34	2.96
0.2997	318.15	0.2991	159.14	2.97
0.2997	323.15	0.2991	160.55	2.97
0.2997	328.15	0.2991	161.77	2.97
0.2997	333.15	0.2991	162.71	2.98
0.2997	338.15	0.2991	163.29	2.98
0.2997	343.15	0.2991	163.49	2.98
0.2997	348.15	0.2991	163.54	2.98
0.2997	353.15	0.2991	163.4	2.98
0.2997	358.15	0.2991	163.41	2.98
0.2997	363.15	0.2991	163.22	2.98
0.2997	368.15	0.2991	162.52	2.98
0.2997	373.15	0.2991	161.79	2.97
0.2997	378.15	0.2991	160.79	2.97
0.2997	383.15	0.2991	159.8	2.97
0.2997	388.15	0.2991	158.43	2.99
0.2997	393.15	0.2991	156.74	3.02
0.5	278.15	0.499	114.83	1.83
0.5	283.15	0.499	128.44	1.86
0.5	288.15	0.499	138.69	1.88
0.5	293.15	0.499	146.49	1.9
0.5	298.15	0.499	152.1	1.91
0.5	303.15	0.499	156.72	1.92
0.5	308.15	0.499	160.33	1.93
0.5	313.15	0.499	163.37	1.94
0.5	318.15	0.499	165.47	1.94
0.5	323.15	0.499	167.22	1.95
0.5	328.15	0.499	168.45	1.95
0.5	333.15	0.499	169.55	1.95
0.5	338.15	0.499	170.31	1.96
0.5	343.15	0.499	170.73	1.96
0.5	348.15	0.499	170.79	1.96
0.5	353.15	0.499	170.75	1.96
0.5	358.15	0.499	170.66	1.97
0.5	363.15	0.499	170.5	1.99
0.5	368.15	0.499	169.86	2
0.5	373.15	0.499	169.18	2
0.5	378.15	0.499	168.22	1.98
0.5	383.15	0.499	167.14	1.98
0.5	388.15	0.499	165.69	1.99
0.5	393.15	0.499	164.02	2

System: (S)-2-aminopropanoic acid + hydrogen chloride + water; phases: Liquid
Fixed: Pressure, kPa = 350
Property: Apparent molar volume, m3/mol (Liquid); method: Calculated with densities of this investigation
Molality, mol/kg of hydrogen chloride	Temperature, K	Molality, mol/kg of (S)-2-aminopropanoic acid	Apparent molar volume, m3/mol	uncertainty
0.015	278.15	0.015	8.274e-05	5.25e-06
0.015	283.15	0.015	8.256e-05	5.24e-06
0.015	288.15	0.015	8.268e-05	5.24e-06
0.015	298.15	0.015	8.27e-05	6.1e-06
0.015	308.15	0.015	8.25e-05	5.9e-06
0.015	318.15	0.015	8.21e-05	5.6e-06
0.015	328.15	0.015	8.23e-05	5.3e-06
0.015	338.15	0.015	8.25e-05	5.3e-06
0.015	348.15	0.015	8.09e-05	5.2e-06
0.015	358.15	0.015	8.21e-05	6.5e-06
0.015	368.15	0.015	8.14e-05	5.6e-06
0.03	278.15	0.0299	8.071e-05	2.57e-06
0.03	283.15	0.0299	8.207e-05	2.61e-06
0.03	288.15	0.0299	8.283e-05	2.91e-06
0.03	298.15	0.0299	8.372e-05	2.67e-06
0.03	308.15	0.0299	8.423e-05	2.77e-06
0.03	318.15	0.0299	8.481e-05	2.71e-06
0.03	328.15	0.0299	8.488e-05	2.71e-06
0.03	338.15	0.0299	8.497e-05	2.71e-06
0.03	348.15	0.0299	8.427e-05	2.78e-06
0.03	358.15	0.0299	8.46e-05	3.6e-06
0.03	368.15	0.0299	8.26e-05	3.4e-06
0.05	278.15	0.0499	8.391e-05	1.61e-06
0.05	283.15	0.0499	8.424e-05	1.61e-06
0.05	288.15	0.0499	8.443e-05	1.79e-06
0.05	298.15	0.0499	8.514e-05	1.63e-06
0.05	308.15	0.0499	8.543e-05	1.69e-06
0.05	318.15	0.0499	8.573e-05	1.64e-06
0.05	328.15	0.0499	8.597e-05	1.65e-06
0.05	338.15	0.0499	8.609e-05	1.65e-06
0.05	348.15	0.0499	8.581e-05	1.69e-06
0.05	358.15	0.0499	8.572e-05	2.14e-06
0.05	368.15	0.0499	8.52e-05	2.09e-06
0.0801	278.15	0.0799	8.266e-05	4.08e-06
0.0801	283.15	0.0799	8.333e-05	4.83e-06
0.0801	288.15	0.0799	8.413e-05	4.87e-06
0.0801	298.15	0.0799	8.514e-05	1.26e-06
0.0801	308.15	0.0799	8.595e-05	1.07e-06
0.0801	318.15	0.0799	8.655e-05	1.04e-06
0.0801	328.15	0.0799	8.693e-05	1.05e-06
0.0801	338.15	0.0799	8.713e-05	1.05e-06
0.0801	348.15	0.0799	8.702e-05	1.05e-06
0.0801	358.15	0.0799	8.693e-05	1.05e-06
0.0801	368.15	0.0799	8.692e-05	1.05e-06
0.0985	278.15	0.0983	8.302e-05	2.4e-06
0.0985	283.15	0.0983	8.366e-05	2.82e-06
0.0985	288.15	0.0983	8.441e-05	2.84e-06
0.0985	298.15	0.0983	8.551e-05	1.02e-06
0.0985	308.15	0.0983	8.618e-05	8.7e-07
0.0985	318.15	0.0983	8.679e-05	8.6e-07
0.0985	328.15	0.0983	8.715e-05	8.5e-07
0.0985	338.15	0.0983	8.731e-05	8.6e-07
0.0985	348.15	0.0983	8.73e-05	8.6e-07
0.0985	358.15	0.0983	8.756e-05	8.6e-07
0.0985	368.15	0.0983	8.758e-05	8.6e-07
0.1749	278.15	0.1746	8.404e-05	2.61e-06
0.1749	283.15	0.1746	8.468e-05	1.27e-06
0.1749	288.15	0.1746	8.517e-05	1.87e-06
0.1749	298.15	0.1746	8.603e-05	5.9e-07
0.1749	308.15	0.1746	8.666e-05	5e-07
0.1749	318.15	0.1746	8.712e-05	4.9e-07
0.1749	328.15	0.1746	8.75e-05	4.9e-07
0.1749	338.15	0.1746	8.781e-05	4.9e-07
0.1749	348.15	0.1746	8.824e-05	4.9e-07
0.1749	358.15	0.1746	8.832e-05	4.9e-07
0.1749	368.15	0.1746	8.829e-05	4.9e-07
0.2997	278.15	0.2991	8.383e-05	1.17e-06
0.2997	283.15	0.2991	8.457e-05	1.27e-06
0.2997	288.15	0.2991	8.515e-05	1.25e-06
0.2997	298.15	0.2991	8.617e-05	3.5e-07
0.2997	308.15	0.2991	8.695e-05	3.4e-07
0.2997	318.15	0.2991	8.746e-05	3.2e-07
0.2997	328.15	0.2991	8.799e-05	3e-07
0.2997	338.15	0.2991	8.839e-05	2.9e-07
0.2997	348.15	0.2991	8.875e-05	2.9e-07
0.2997	358.15	0.2991	8.897e-05	2.9e-07
0.2997	368.15	0.2991	8.912e-05	3.1e-07
0.5	278.15	0.499	8.425e-05	4.7e-07
0.5	283.15	0.499	8.499e-05	3.6e-07
0.5	288.15	0.499	8.558e-05	3e-07
0.5	298.15	0.499	8.657e-05	2.4e-07
0.5	308.15	0.499	8.739e-05	2.3e-07
0.5	318.15	0.499	8.797e-05	2e-07
0.5	328.15	0.499	8.849e-05	2e-07
0.5	338.15	0.499	8.887e-05	1.9e-07
0.5	348.15	0.499	8.914e-05	1.8e-07
0.5	358.15	0.499	8.936e-05	1.9e-07
0.5	368.15	0.499	8.945e-05	2e-07

System: (S)-2-aminopropanoic acid + sodium hydroxide + water; phases: Liquid
Fixed: Pressure, kPa = 350
Property: Apparent molar heat capacity, J/K/mol (Liquid); method: Extra sensitive DSC
Molality, mol/kg of sodium hydroxide	Temperature, K	Molality, mol/kg of (S)-2-aminopropanoic acid	Apparent molar heat capacity, J/K/mol	uncertainty
0.0074	278.15	0.0075	-1	198
0.0074	283.15	0.0075	29	191
0.0074	288.15	0.0075	56	182
0.0074	293.15	0.0075	79	174
0.0074	298.15	0.0075	98	166
0.0074	303.15	0.0075	112	159
0.0074	308.15	0.0075	128	153
0.0074	313.15	0.0075	140	148
0.0074	318.15	0.0075	151	144
0.0074	323.15	0.0075	162	139
0.0074	328.15	0.0075	169	135
0.0074	333.15	0.0075	179	132
0.0074	338.15	0.0075	185	128
0.0074	343.15	0.0075	187	124
0.0074	348.15	0.0075	190	120
0.0074	353.15	0.0075	188	117
0.0074	358.15	0.0075	188	113
0.0074	363.15	0.0075	186	110
0.0074	368.15	0.0075	183	107
0.0074	373.15	0.0075	182	105
0.0074	378.15	0.0075	180	104
0.0074	383.15	0.0075	182	104
0.0074	388.15	0.0075	181	104
0.0074	393.15	0.0075	185	104
0.0149	278.15	0.015	52	100
0.0149	283.15	0.015	81	96
0.0149	288.15	0.015	102	91
0.0149	293.15	0.015	119	88
0.0149	298.15	0.015	133	83
0.0149	303.15	0.015	144	81
0.0149	308.15	0.015	155	78
0.0149	313.15	0.015	162	75
0.0149	318.15	0.015	169	73
0.0149	323.15	0.015	174	70
0.0149	328.15	0.015	178	69
0.0149	333.15	0.015	182	66
0.0149	338.15	0.015	184	63
0.0149	343.15	0.015	186	62
0.0149	348.15	0.015	187	61
0.0149	353.15	0.015	188	58
0.0149	358.15	0.015	188	57
0.0149	363.15	0.015	187	56
0.0149	368.15	0.015	186	55
0.0149	373.15	0.015	184	54
0.0149	378.15	0.015	182	53
0.0149	383.15	0.015	181	52
0.0149	388.15	0.015	178	52
0.0149	393.15	0.015	175	54
0.0298	278.15	0.0301	55	50
0.0298	283.15	0.0301	81	48
0.0298	288.15	0.0301	102	47
0.0298	293.15	0.0301	118	43
0.0298	298.15	0.0301	132	41
0.0298	303.15	0.0301	142	40
0.0298	308.15	0.0301	152	38
0.0298	313.15	0.0301	160	38
0.0298	318.15	0.0301	166	37
0.0298	323.15	0.0301	171	35
0.0298	328.15	0.0301	175	34
0.0298	333.15	0.0301	179	34
0.0298	338.15	0.0301	183	32
0.0298	343.15	0.0301	185	31
0.0298	348.15	0.0301	186.3	30.4
0.0298	353.15	0.0301	187.2	29.6
0.0298	358.15	0.0301	187.7	28.8
0.0298	363.15	0.0301	187.6	28.2
0.0298	368.15	0.0301	186.6	27.7
0.0298	373.15	0.0301	185.6	27
0.0298	378.15	0.0301	183.7	26.7
0.0298	383.15	0.0301	181.7	26.4
0.0298	388.15	0.0301	179.1	26.2
0.0298	393.15	0.0301	175.5	27.4
0.0498	278.15	0.0503	56	30
0.0498	283.15	0.0503	82	30
0.0498	288.15	0.0503	103	28
0.0498	293.15	0.0503	120	26
0.0498	298.15	0.0503	133	25
0.0498	303.15	0.0503	144.1	24.3
0.0498	308.15	0.0503	153.1	23.5
0.0498	313.15	0.0503	161.2	22.7
0.0498	318.15	0.0503	167.7	22
0.0498	323.15	0.0503	173.1	21.4
0.0498	328.15	0.0503	178	20.7
0.0498	333.15	0.0503	181.8	20
0.0498	338.15	0.0503	185.2	19.4
0.0498	343.15	0.0503	187.8	18.9
0.0498	348.15	0.0503	189.2	18.4
0.0498	353.15	0.0503	190.7	17.9
0.0498	358.15	0.0503	191	17.5
0.0498	363.15	0.0503	191	17
0.0498	368.15	0.0503	190.7	16.7
0.0498	373.15	0.0503	189.3	16.3
0.0498	378.15	0.0503	188.1	16.2
0.0498	383.15	0.0503	185.7	16
0.0498	388.15	0.0503	183.2	15.9
0.0498	393.15	0.0503	180.5	16.5
0.0843	278.15	0.0851	52.6	17
0.0843	283.15	0.0851	78.2	16.5
0.0843	288.15	0.0851	99.5	15.9
0.0843	293.15	0.0851	116.8	15.4
0.0843	298.15	0.0851	130.9	14.9
0.0843	303.15	0.0851	142.3	14.6
0.0843	308.15	0.0851	151.6	14.3
0.0843	313.15	0.0851	159.8	13.8
0.0843	318.15	0.0851	166.6	13.5
0.0843	323.15	0.0851	172.4	13.2
0.0843	328.15	0.0851	177.1	12.8
0.0843	333.15	0.0851	181.2	12.5
0.0843	338.15	0.0851	184.5	12.1
0.0843	343.15	0.0851	187	11.7
0.0843	348.15	0.0851	188.9	11.4
0.0843	353.15	0.0851	190.3	11.2
0.0843	358.15	0.0851	191	10.8
0.0843	363.15	0.0851	191.3	10.6
0.0843	368.15	0.0851	191.1	10.3
0.0843	373.15	0.0851	190.4	10.1
0.0843	378.15	0.0851	189.2	10
0.0843	383.15	0.0851	187.7	9.7
0.0843	388.15	0.0851	186	9.5
0.0843	393.15	0.0851	183.9	9.5
0.173	278.15	0.1747	60.9	8.5
0.173	283.15	0.1747	86.4	8.2
0.173	288.15	0.1747	107.1	7.9
0.173	293.15	0.1747	123.7	7.7
0.173	298.15	0.1747	137.2	7.4
0.173	303.15	0.1747	148.4	7.3
0.173	308.15	0.1747	157.6	7.1
0.173	313.15	0.1747	165.7	7
0.173	318.15	0.1747	172.2	6.8
0.173	323.15	0.1747	177.7	6.7
0.173	328.15	0.1747	182.4	6.5
0.173	333.15	0.1747	186.3	6.3
0.173	338.15	0.1747	189.7	6.1
0.173	343.15	0.1747	192.2	6
0.173	348.15	0.1747	194.3	5.9
0.173	353.15	0.1747	195.8	5.6
0.173	358.15	0.1747	196.9	5.5
0.173	363.15	0.1747	197.5	5.4
0.173	368.15	0.1747	197.6	5.3
0.173	373.15	0.1747	197.3	5.2
0.173	378.15	0.1747	196.4	5.1
0.173	383.15	0.1747	195.3	5
0.173	388.15	0.1747	193.8	4.9
0.173	393.15	0.1747	192.2	4.9
0.3459	278.15	0.3494	75.7	4.4
0.3459	283.15	0.3494	99.5	4.2
0.3459	288.15	0.3494	118.6	4.1
0.3459	293.15	0.3494	134.2	4
0.3459	298.15	0.3494	147	4
0.3459	303.15	0.3494	157.8	3.8
0.3459	308.15	0.3494	166.6	3.8
0.3459	313.15	0.3494	174.2	3.7
0.3459	318.15	0.3494	180.5	3.7
0.3459	323.15	0.3494	185.7	3.6
0.3459	328.15	0.3494	190.2	3.4
0.3459	333.15	0.3494	194	3.4
0.3459	338.15	0.3494	197.1	3.3
0.3459	343.15	0.3494	199.6	3.3
0.3459	348.15	0.3494	201.5	3.2
0.3459	353.15	0.3494	203.1	3.1
0.3459	358.15	0.3494	204.2	3.1
0.3459	363.15	0.3494	204.9	2.9
0.3459	368.15	0.3494	205.2	2.9
0.3459	373.15	0.3494	205	2.8
0.3459	378.15	0.3494	204.6	2.8
0.3459	383.15	0.3494	204	2.7
0.3459	388.15	0.3494	203	2.7
0.3459	393.15	0.3494	201.5	2.7
0.6529	278.15	0.6594	102.1	2.6
0.6529	283.15	0.6594	122.3	2.4
0.6529	288.15	0.6594	138.6	2.4
0.6529	293.15	0.6594	152.1	2.3
0.6529	298.15	0.6594	163.3	2.3
0.6529	303.15	0.6594	172.7	2.3
0.6529	308.15	0.6594	180.6	2.2
0.6529	313.15	0.6594	187.4	2.2
0.6529	318.15	0.6594	193.1	2.2
0.6529	323.15	0.6594	198	2.2
0.6529	328.15	0.6594	202.1	2.1
0.6529	333.15	0.6594	205.7	2.1
0.6529	338.15	0.6594	208.7	2.1
0.6529	343.15	0.6594	211	1.9
0.6529	348.15	0.6594	213	1.9
0.6529	353.15	0.6594	214.5	1.9
0.6529	358.15	0.6594	215.7	1.8
0.6529	363.15	0.6594	216.4	1.8
0.6529	368.15	0.6594	216.8	1.8
0.6529	373.15	0.6594	216.9	1.7
0.6529	378.15	0.6594	216.6	1.7
0.6529	383.15	0.6594	216.1	1.7
0.6529	388.15	0.6594	215.3	1.7
0.6529	393.15	0.6594	214.5	1.7

System: (S)-2-aminopropanoic acid + sodium hydroxide + water; phases: Liquid
Fixed: Pressure, kPa = 350
Property: Apparent molar volume, m3/mol (Liquid); method: Calculated with densities of this investigation
Molality, mol/kg of sodium hydroxide	Temperature, K	Molality, mol/kg of (S)-2-aminopropanoic acid	Apparent molar volume, m3/mol	uncertainty
0.0074	278.15	0.0075	7.5e-05	4.9e-05
0.0074	283.15	0.0075	6.9e-05	5.7e-05
0.0074	288.15	0.0075	7.6e-05	4.9e-05
0.0074	298.15	0.0075	7.8e-05	4.5e-05
0.0074	308.15	0.0075	7e-05	3.3e-05
0.0074	318.15	0.0075	7.5e-05	3.3e-05
0.0074	328.15	0.0075	7.1e-05	2.9e-05
0.0074	338.15	0.0075	5.6e-05	3.9e-05
0.0074	348.15	0.0075	6.9e-05	2.2e-05
0.0074	358.15	0.0075	6.46e-05	1.85e-05
0.0074	368.15	0.0075	6.3e-05	1.79e-05
0.0149	278.15	0.015	3.4e-05	2.4e-05
0.0149	283.15	0.015	3.6e-05	2.8e-05
0.0149	288.15	0.015	4.4e-05	2.4e-05
0.0149	298.15	0.015	4.8e-05	2.2e-05
0.0149	308.15	0.015	4.75e-05	1.6e-05
0.0149	318.15	0.015	5.19e-05	1.65e-05
0.0149	328.15	0.015	5.44e-05	1.41e-05
0.0149	338.15	0.015	4.68e-05	1.92e-05
0.0149	348.15	0.015	5.6e-05	1.09e-05
0.0149	358.15	0.015	5.36e-05	9.1e-06
0.0149	368.15	0.015	5.62e-05	8.8e-06
0.0298	278.15	0.0301	4.97e-05	1.23e-05
0.0298	283.15	0.0301	5.2e-05	1.41e-05
0.0298	288.15	0.0301	5.44e-05	1.21e-05
0.0298	298.15	0.0301	5.61e-05	1.11e-05
0.0298	308.15	0.0301	5.74e-05	8e-06
0.0298	318.15	0.0301	5.91e-05	8.2e-06
0.0298	328.15	0.0301	5.84e-05	7.2e-06
0.0298	338.15	0.0301	5.74e-05	9.7e-06
0.0298	348.15	0.0301	6.03e-05	5.5e-06
0.0298	358.15	0.0301	6e-05	4.5e-06
0.0298	368.15	0.0301	5.97e-05	4.5e-06
0.0498	278.15	0.0503	5.85e-05	7.7e-06
0.0498	283.15	0.0503	6.11e-05	8.5e-06
0.0498	288.15	0.0503	6.1e-05	7.7e-06
0.0498	298.15	0.0503	6.19e-05	6.7e-06
0.0498	308.15	0.0503	6.21e-05	5.3e-06
0.0498	318.15	0.0503	6.27e-05	5.9e-06
0.0498	328.15	0.0503	6.25e-05	4.7e-06
0.0498	338.15	0.0503	6.11e-05	7.3e-06
0.0498	348.15	0.0503	6.28e-05	3.8e-06
0.0498	358.15	0.0503	6.22e-05	3.4e-06
0.0498	368.15	0.0503	6.25e-05	2.8e-06
0.0843	278.15	0.0851	5.5e-05	4.6e-06
0.0843	283.15	0.0851	5.74e-05	5e-06
0.0843	288.15	0.0851	5.8e-05	4.4e-06
0.0843	298.15	0.0851	5.94e-05	3.8e-06
0.0843	308.15	0.0851	6.04e-05	3.1e-06
0.0843	318.15	0.0851	6.13e-05	3.5e-06
0.0843	328.15	0.0851	5.93e-05	2.9e-06
0.0843	338.15	0.0851	6.06e-05	4.2e-06
0.0843	348.15	0.0851	6.17e-05	2.3e-06
0.0843	358.15	0.0851	6.21e-05	1.9e-06
0.0843	368.15	0.0851	6.17e-05	1.7e-06
0.173	278.15	0.1747	5.81e-05	2.8e-06
0.173	283.15	0.1747	5.95e-05	2.2e-06
0.173	288.15	0.1747	5.94e-05	2.2e-06
0.173	298.15	0.1747	6.04e-05	2e-06
0.173	308.15	0.1747	6.12e-05	1.6e-06
0.173	318.15	0.1747	6.17e-05	1.8e-06
0.173	328.15	0.1747	6.21e-05	1.4e-06
0.173	338.15	0.1747	6.26e-05	2e-06
0.173	348.15	0.1747	6.26e-05	1e-06
0.173	358.15	0.1747	6.25e-05	1e-06
0.173	368.15	0.1747	6.25e-05	9e-07
0.3459	278.15	0.3494	5.68e-05	1.4e-06
0.3459	283.15	0.3494	5.8e-05	1.2e-06
0.3459	288.15	0.3494	5.87e-05	1.2e-06
0.3459	298.15	0.3494	6.01e-05	1e-06
0.3459	308.15	0.3494	6.11e-05	8e-07
0.3459	318.15	0.3494	6.19e-05	1e-06
0.3459	328.15	0.3494	6.25e-05	8e-07
0.3459	338.15	0.3494	6.27e-05	1e-06
0.3459	348.15	0.3494	6.31e-05	6e-07
0.3459	358.15	0.3494	6.32e-05	4e-07
0.3459	368.15	0.3494	6.44e-05	4e-07
0.6529	278.15	0.6594	5.9e-05	8e-07
0.6529	283.15	0.6594	6e-05	6e-07
0.6529	288.15	0.6594	6.05e-05	6e-07
0.6529	298.15	0.6594	6.17e-05	6e-07
0.6529	308.15	0.6594	6.26e-05	4e-07
0.6529	318.15	0.6594	6.33e-05	4e-07
0.6529	328.15	0.6594	6.38e-05	4e-07
0.6529	338.15	0.6594	6.4e-05	6e-07
0.6529	348.15	0.6594	6.44e-05	4e-07
0.6529	358.15	0.6594	6.45e-05	2e-07
0.6529	368.15	0.6594	6.46e-05	2e-07
