Measured thermophysical data. Partial molar volumes of organic solutes in water. XXIX. Four 2-alkoxyethanols at temperatures T = (298 K to 573) K and pressures up to 30 MPa
Source: J. Chem. Thermodyn., 2018, 10.1016/j.jct.2018.05.032
Compound 1: water, H2O, InChI=1S/H2O/h1H2
Compound 2: 2-methoxyethan-1-ol, C3H8O2, InChI=1S/C3H8O2/c1-5-3-2-4/h4H,2-3H2,1H3, purity 99.9%
Compound 3: 2-ethoxyethan-1-ol, C4H10O2, InChI=1S/C4H10O2/c1-2-6-4-3-5/h5H,2-4H2,1H3, purity 99%
Compound 4: 2-propoxyethanol, C5H12O2, InChI=1S/C5H12O2/c1-2-4-7-5-3-6/h6H,2-5H2,1H3, purity 99.4%
Compound 5: 2-butoxyethan-1-ol, C6H14O2, InChI=1S/C6H14O2/c1-2-3-5-8-6-4-7/h7H,2-6H2,1H3, purity 99%

System: water + 2-methoxyethan-1-ol; phases: Liquid
Property: Mass density, kg/m3 (Liquid); method: Vibrating tube method
Temperature, K	Pressure, kPa	Molality, mol/kg of 2-methoxyethan-1-ol	Mass density, kg/m3	uncertainty
298.3	530	0.055865	0.0657	0.031
298.3	530	0.055865	0.0628	0.031
298.3	530	0.055865	0.0613	0.031
298.3	530	0.055865	0.0643	0.031
298.3	530	0.101589	0.1212	0.0311
298.3	530	0.101589	0.1145	0.0311
298.3	530	0.101589	0.1113	0.0311
298.3	530	0.101589	0.1172	0.0311
298.3	530	0.101589	0.111	0.0311
298.3	530	0.206781	0.2263	0.0312
298.3	530	0.206781	0.2438	0.0312
298.3	530	0.206781	0.2504	0.0312
298.3	530	0.206781	0.2377	0.0312
298.3	530	0.206781	0.2528	0.0312
298.3	530	0.295917	0.3581	0.0313
298.3	530	0.295917	0.3528	0.0313
298.3	530	0.295917	0.3829	0.0313
298.3	530	0.295917	0.3657	0.0313
298.3	530	0.295917	0.3594	0.0313
298.3	530	0.295917	0.3405	0.0313
298.3	530	0.412952	0.5094	0.0314
298.3	530	0.412952	0.5269	0.0314
298.3	530	0.412952	0.5129	0.0314
298.3	530	0.412952	0.5323	0.0314
298.3	530	0.412952	0.5153	0.0314
298.3	530	0.412952	0.5141	0.0314
298.19	15410	0.055865	0.0458	0.0311
298.19	15410	0.055865	0.0471	0.0311
298.19	15410	0.101589	0.0858	0.0313
298.19	15410	0.101589	0.0902	0.0313
298.19	15410	0.101589	0.084	0.0313
298.19	15410	0.206781	0.1864	0.0316
298.19	15410	0.206781	0.1857	0.0316
298.19	15410	0.206781	0.1824	0.0316
298.19	15410	0.295917	0.269	0.0318
298.19	15410	0.295917	0.2679	0.0318
298.19	15410	0.295917	0.2671	0.0318
298.19	15410	0.412952	0.3885	0.0322
298.19	15410	0.412952	0.3895	0.0322
298.19	15410	0.412952	0.3895	0.0322
298.21	29890	0.055865	0.0278	0.0311
298.21	29890	0.055865	0.0255	0.0311
298.21	29890	0.055865	0.0274	0.0311
298.21	29890	0.101589	0.0539	0.0313
298.21	29890	0.101589	0.0536	0.0313
298.21	29890	0.101589	0.0485	0.0312
298.21	29890	0.206781	0.1273	0.0317
298.21	29890	0.206781	0.1224	0.0316
298.21	29890	0.206781	0.1215	0.0316
298.21	29890	0.295917	0.1992	0.0321
298.21	29890	0.295917	0.1786	0.032
298.21	29890	0.295917	0.1782	0.0319
298.21	29890	0.412952	0.2731	0.0325
298.21	29890	0.412952	0.2658	0.0324
298.21	29890	0.412952	0.2645	0.0324
318.19	530	0.055865	0.0299	0.031
318.19	530	0.055865	0.0317	0.031
318.19	530	0.055865	0.0321	0.031
318.19	530	0.101589	0.0561	0.031
318.19	530	0.101589	0.0533	0.031
318.19	530	0.101589	0.0537	0.031
318.19	530	0.206781	0.1208	0.0311
318.19	530	0.206781	0.1229	0.0311
318.19	530	0.206781	0.1218	0.0311
318.19	530	0.295917	0.1774	0.0311
318.19	530	0.295917	0.177	0.0311
318.19	530	0.295917	0.1767	0.0311
318.19	530	0.412952	0.2538	0.0312
318.19	530	0.412952	0.2511	0.0312
318.19	530	0.412952	0.2508	0.0312
318.24	15140	0.055865	0.0197	0.031
318.24	15140	0.055865	0.0213	0.0311
318.24	15140	0.055865	0.021	0.0311
318.24	15140	0.101589	0.034	0.0311
318.24	15140	0.101589	0.0355	0.0311
318.24	15140	0.101589	0.0318	0.0311
318.24	15140	0.206781	0.0843	0.0313
318.24	15140	0.206781	0.0767	0.0312
318.24	15140	0.206781	0.0849	0.0313
318.24	15140	0.295917	0.1154	0.0314
318.24	15140	0.295917	0.1294	0.0314
318.24	15140	0.295917	0.1145	0.0313
318.24	15140	0.412952	0.1757	0.0315
318.24	15140	0.412952	0.1705	0.0315
318.24	15140	0.412952	0.1767	0.0315
338.19	530	0.055865	-0.0039	0.031
338.19	530	0.055865	-0.0032	0.031
338.19	530	0.055865	-0.002	0.031
338.19	530	0.101589	0.0035	0.031
338.19	530	0.101589	-0.007	0.031
338.19	530	0.101589	-0.0083	0.031
338.19	530	0.206781	0	0.0004
338.19	530	0.206781	0.0026	0.031
338.19	530	0.206781	0.001	0.031
338.19	530	0.295917	0.0207	0.0311
338.19	530	0.295917	0.0005	0.031
338.19	530	0.295917	-0.0003	0.031
338.19	530	0.412952	0.0266	0.0311
338.19	530	0.412952	0.0002	0.031
338.19	530	0.412952	0.0006	0.031
338.19	30080	0.055865	-0.0145	0.0326
338.19	30080	0.055865	-0.0144	0.0326
338.19	30080	0.055865	-0.0136	0.0326
338.19	30080	0.101589	-0.0255	0.0327
338.19	30080	0.101589	-0.0174	0.0327
338.19	30080	0.101589	-0.0204	0.0327
338.19	30080	0.206781	-0.037	0.0327
338.19	30080	0.206781	-0.0397	0.0328
338.19	30080	0.206781	-0.0371	0.0327
338.19	30080	0.295917	-0.0533	0.0328
338.19	30080	0.295917	-0.0485	0.0328
338.19	30080	0.295917	-0.0403	0.0328
338.19	30080	0.412952	-0.0692	0.0329
338.19	30080	0.412952	-0.0643	0.0329
338.19	30080	0.412952	-0.0733	0.0329
358.19	15150	0.053587	-0.0317	0.0331
358.19	15150	0.053587	-0.0322	0.0331
358.19	15150	0.053587	-0.032	0.0331
358.19	15150	0.109814	-0.0673	0.0332
358.19	15150	0.109814	-0.0574	0.0331
358.19	15150	0.109814	-0.0713	0.0332
358.19	15150	0.199153	-0.1253	0.0333
358.19	15150	0.199153	-0.1012	0.0332
358.19	15150	0.199153	-0.1121	0.0333
358.19	15150	0.304118	-0.1793	0.0334
358.19	15150	0.304118	-0.1937	0.0335
358.19	15150	0.304118	-0.1824	0.0335
358.19	15150	0.398147	-0.2313	0.0336
358.19	15150	0.398147	-0.2186	0.0335
358.19	15150	0.398147	-0.2452	0.0336
318.23	29860	0.055865	0.0098	0.0312
318.23	29860	0.055865	0.0095	0.0312
318.23	29860	0.055865	0.013	0.0312
318.23	29860	0.101589	0.0265	0.0313
318.23	29860	0.101589	0.0259	0.0313
318.23	29860	0.101589	0.0195	0.0313
318.23	29860	0.206781	0.0568	0.0314
318.23	29860	0.206781	0.0548	0.0314
318.23	29860	0.206781	0.0414	0.0314
318.23	29860	0.295917	0.076	0.0315
318.23	29860	0.295917	0.0973	0.0316
318.23	29860	0.295917	0.084	0.0316
318.23	29860	0.412952	0.1547	0.0319
318.23	29860	0.412952	0.1481	0.0318
318.23	29860	0.412952	0.1226	0.0317
338.18	15100	0.055865	-0.0089	0.0314
338.18	15100	0.055865	-0.0068	0.0314
338.18	15100	0.055865	-0.009	0.0314
338.18	15100	0.101589	-0.015	0.0315
338.18	15100	0.101589	-0.0156	0.0315
338.18	15100	0.101589	-0.0154	0.0315
338.18	15100	0.206781	-0.0232	0.0315
338.18	15100	0.206781	-0.0125	0.0315
338.18	15100	0.206781	-0.0122	0.0315
338.18	15100	0.295917	-0.0127	0.0315
338.18	15100	0.295917	-0.0205	0.0315
338.18	15100	0.295917	-0.0208	0.0315
338.18	15100	0.412952	-0.0319	0.0315
338.18	15100	0.412952	-0.0313	0.0315
338.18	15100	0.412952	-0.0289	0.0315
358.24	540	0.055865	-0.033	0.0318
358.24	540	0.055865	-0.0313	0.0318
358.24	540	0.101589	-0.067	0.0319
358.24	540	0.101589	-0.0573	0.0319
358.24	540	0.101589	-0.0824	0.0319
358.24	540	0.206781	-0.1228	0.0319
358.24	540	0.206781	-0.1138	0.0319
358.24	540	0.206781	-0.1464	0.0319
358.24	540	0.295917	-0.1783	0.0319
358.24	540	0.295917	-0.1707	0.0319
358.24	540	0.412952	-0.2361	0.032
358.24	540	0.412952	-0.2366	0.032
358.24	540	0.412952	-0.2199	0.032
358.2	30390	0.053587	-0.0303	0.0345
358.2	30390	0.053587	-0.0302	0.0345
358.2	30390	0.053587	-0.0336	0.0345
358.2	30390	0.109814	-0.0651	0.0346
358.2	30390	0.109814	-0.0618	0.0346
358.2	30390	0.109814	-0.0687	0.0347
358.2	30390	0.199153	-0.112	0.0348
358.2	30390	0.199153	-0.1206	0.0349
358.2	30390	0.199153	-0.1226	0.0349
358.2	30390	0.304118	-0.1852	0.0352
358.2	30390	0.304118	-0.1878	0.0352
358.2	30390	0.304118	-0.1873	0.0352
358.2	30390	0.398147	-0.2457	0.0354
358.2	30390	0.398147	-0.2417	0.0354
358.2	30390	0.398147	-0.2415	0.0354
373.17	530	0.053587	-0.0545	0.0332
373.17	530	0.053587	-0.055	0.0332
373.17	530	0.053587	-0.0596	0.0332
373.17	530	0.109814	-0.115	0.0332
373.17	530	0.109814	-0.115	0.0332
373.17	530	0.109814	-0.1144	0.0332
373.17	530	0.199153	-0.2081	0.0333
373.17	530	0.199153	-0.211	0.0333
373.17	530	0.199153	-0.2106	0.0333
373.17	530	0.304118	-0.3196	0.0334
373.17	530	0.304118	-0.3198	0.0334
373.17	530	0.304118	-0.3201	0.0334
373.17	530	0.398147	-0.4179	0.0334
373.17	530	0.398147	-0.4196	0.0334
373.17	530	0.398147	-0.4182	0.0334
373.17	30300	0.053587	-0.046	0.0361
373.17	30300	0.053587	-0.0483	0.0361
373.17	30300	0.053587	-0.0515	0.0361
373.17	30300	0.109814	-0.101	0.0363
373.17	30300	0.109814	-0.1023	0.0363
373.17	30300	0.109814	-0.1058	0.0363
373.17	30300	0.199153	-0.185	0.0367
373.17	30300	0.199153	-0.1875	0.0367
373.17	30300	0.199153	-0.1859	0.0367
373.17	30300	0.304118	-0.2835	0.0371
373.17	30300	0.304118	-0.2866	0.0371
373.17	30300	0.304118	-0.2894	0.0371
373.17	30300	0.398147	-0.3692	0.0374
373.17	30300	0.398147	-0.3729	0.0374
373.17	30300	0.398147	-0.3719	0.0374
398.21	15170	0.053587	-0.0887	0.0378
398.21	15170	0.053587	-0.0858	0.0378
398.21	15170	0.053587	-0.0873	0.0378
398.21	15170	0.109814	-0.182	0.038
398.21	15170	0.109814	-0.1811	0.038
398.21	15170	0.109814	-0.1831	0.038
398.21	15170	0.199153	-0.3271	0.0383
398.21	15170	0.199153	-0.3245	0.0383
398.21	15170	0.199153	-0.3276	0.0384
398.21	15170	0.304118	-0.4969	0.0387
398.21	15170	0.304118	-0.5008	0.0388
398.21	15170	0.304118	-0.4995	0.0388
398.21	15170	0.398147	-0.6528	0.0391
398.21	15170	0.398147	-0.6513	0.0391
398.21	15170	0.398147	-0.6524	0.0391
423.14	2080	0.053587	-0.134	0.0406
423.14	2080	0.053587	-0.1342	0.0406
423.14	2080	0.053587	-0.1343	0.0406
423.14	2080	0.109814	-0.2788	0.0407
423.14	2080	0.109814	-0.278	0.0407
423.14	2080	0.109814	-0.2771	0.0407
423.14	2080	0.199153	-0.5016	0.0409
423.14	2080	0.199153	-0.5027	0.0409
423.14	2080	0.199153	-0.5009	0.0409
423.14	2080	0.304118	-0.7683	0.0412
423.14	2080	0.304118	-0.7689	0.0412
423.14	2080	0.304118	-0.7667	0.0411
423.14	2080	0.398147	-1.0062	0.0414
423.14	2080	0.398147	-1.0067	0.0414
423.14	2080	0.398147	-1.006	0.0414
373.12	15190	0.053587	-0.0523	0.0346
373.12	15190	0.053587	-0.0523	0.0346
373.12	15190	0.053587	-0.0522	0.0346
373.12	15190	0.109814	-0.1086	0.0347
373.12	15190	0.109814	-0.1083	0.0347
373.12	15190	0.109814	-0.1119	0.0347
373.12	15190	0.199153	-0.1992	0.0349
373.12	15190	0.199153	-0.1982	0.0349
373.12	15190	0.199153	-0.1988	0.0349
373.12	15190	0.304118	-0.3028	0.0352
373.12	15190	0.304118	-0.2998	0.0352
373.12	15190	0.304118	-0.3039	0.0352
373.12	15190	0.398147	-0.3954	0.0354
373.12	15190	0.398147	-0.3931	0.0354
373.12	15190	0.398147	-0.3969	0.0354
398.21	2110	0.053587	-0.0937	0.0364
398.21	2110	0.053587	-0.0931	0.0364
398.21	2110	0.053587	-0.0924	0.0364
398.21	2110	0.109814	-0.1934	0.0365
398.21	2110	0.109814	-0.1933	0.0365
398.21	2110	0.109814	-0.1932	0.0365
398.21	2110	0.199153	-0.3526	0.0366
398.21	2110	0.199153	-0.3522	0.0366
398.21	2110	0.199153	-0.3543	0.0366
398.21	2110	0.304118	-0.5394	0.0368
398.21	2110	0.304118	-0.5404	0.0368
398.21	2110	0.304118	-0.5395	0.0368
398.21	2110	0.398147	-0.7064	0.0369
398.21	2110	0.398147	-0.7084	0.0369
398.21	2110	0.398147	-0.706	0.0369
398.21	30180	0.053587	-0.0816	0.0395
398.21	30180	0.053587	-0.0805	0.0395
398.21	30180	0.053587	-0.084	0.0395
398.21	30180	0.109814	-0.1673	0.0398
398.21	30180	0.109814	-0.1681	0.0398
398.21	30180	0.109814	-0.1693	0.0398
398.21	30180	0.199153	-0.3035	0.0403
398.21	30180	0.199153	-0.3048	0.0403
398.21	30180	0.199153	-0.3011	0.0403
398.21	30180	0.304118	-0.4602	0.0409
398.21	30180	0.304118	-0.4597	0.0409
398.21	30180	0.304118	-0.4622	0.0409
398.21	30180	0.398147	-0.602	0.0415
398.21	30180	0.398147	-0.6057	0.0415
398.21	30180	0.398147	-0.6018	0.0415
423.15	15240	0.053587	-0.1225	0.0421
423.15	15240	0.053587	-0.1215	0.0421
423.15	15240	0.053587	-0.1232	0.0421
423.15	15240	0.109814	-0.2509	0.0424
423.15	15240	0.109814	-0.2525	0.0424
423.15	15240	0.109814	-0.2519	0.0424
423.15	15240	0.199153	-0.4569	0.0429
423.15	15240	0.199153	-0.4605	0.0429
423.15	15240	0.199153	-0.4566	0.0429
423.15	15240	0.304118	-0.6955	0.0434
423.15	15240	0.304118	-0.6983	0.0434
423.15	15240	0.304118	-0.6983	0.0434
423.15	15240	0.398147	-0.9131	0.0439
423.15	15240	0.398147	-0.9173	0.044
423.15	15240	0.398147	-0.9147	0.0439
423.15	30100	0.053587	-0.11	0.044
423.15	30100	0.053587	-0.1119	0.044
423.15	30100	0.053587	-0.1142	0.044
423.15	30100	0.109814	-0.2281	0.0444
423.15	30100	0.109814	-0.2286	0.0444
423.15	30100	0.109814	-0.2289	0.0444
423.15	30100	0.199153	-0.4118	0.0451
423.15	30100	0.199153	-0.4062	0.0451
423.15	30100	0.199153	-0.4193	0.0451
423.15	30100	0.304118	-0.6271	0.0459
423.15	30100	0.304118	-0.6308	0.0459
423.15	30100	0.304118	-0.6374	0.046
423.15	30100	0.398147	-0.8252	0.0467
423.15	30100	0.398147	-0.8226	0.0467
423.15	30100	0.398147	-0.8225	0.0467
448.21	15180	0.063731	-0.1866	0.0482
448.21	15180	0.063731	-0.1905	0.0483
448.21	15180	0.063731	-0.1887	0.0483
448.21	15180	0.110934	-0.3293	0.0486
448.21	15180	0.110934	-0.3303	0.0486
448.21	15180	0.110934	-0.3281	0.0486
448.21	15180	0.208793	-0.6219	0.0492
448.21	15180	0.208793	-0.6253	0.0492
448.21	15180	0.208793	-0.6227	0.0492
448.21	15180	0.291279	-0.8654	0.0498
448.21	15180	0.291279	-0.8655	0.0498
448.21	15180	0.291279	-0.8667	0.0498
448.21	15180	0.409084	-1.2109	0.0506
448.21	15180	0.409084	-1.2139	0.0506
448.21	15180	0.409084	-1.2092	0.0506
473.64	2020	0.063731	-0.2636	0.0552
473.64	2020	0.063731	-0.2652	0.0552
473.64	2020	0.063731	-0.2675	0.0552
473.64	2020	0.110934	-0.4635	0.0553
473.64	2020	0.110934	-0.4669	0.0553
473.64	2020	0.110934	-0.4665	0.0553
473.64	2020	0.208793	-0.8737	0.0557
473.64	2020	0.208793	-0.8739	0.0557
473.64	2020	0.208793	-0.8728	0.0557
473.64	2020	0.291279	-1.2149	0.056
473.64	2020	0.291279	-1.2167	0.056
473.64	2020	0.291279	-1.2173	0.056
473.64	2020	0.409084	-1.6994	0.0564
473.64	2020	0.409084	-1.701	0.0564
473.64	2020	0.409084	-1.6994	0.0564
473.64	30040	0.063731	-0.2006	0.0586
473.64	30040	0.063731	-0.1997	0.0586
473.64	30040	0.063731	-0.2015	0.0586
473.64	30040	0.110934	-0.3509	0.0592
473.64	30040	0.110934	-0.3561	0.0592
473.64	30040	0.110934	-0.3567	0.0592
473.64	30040	0.208793	-0.6615	0.0604
473.64	30040	0.208793	-0.666	0.0604
473.64	30040	0.208793	-0.6663	0.0604
473.64	30040	0.291279	-0.9252	0.0614
473.64	30040	0.291279	-0.927	0.0614
473.64	30040	0.291279	-0.9299	0.0615
473.64	30040	0.409084	-1.2909	0.0629
473.64	30040	0.409084	-1.2958	0.0629
473.64	30040	0.409084	-1.3035	0.063
448.21	2020	0.053587	-0.1724	0.0466
448.21	2020	0.053587	-0.1746	0.0466
448.21	2020	0.053587	-0.1757	0.0466
448.21	2020	0.109814	-0.3548	0.0468
448.21	2020	0.109814	-0.3624	0.0468
448.21	2020	0.109814	-0.3603	0.0468
448.21	2020	0.199153	-0.6594	0.047
448.21	2020	0.199153	-0.6554	0.047
448.21	2020	0.199153	-0.6583	0.047
448.21	2020	0.304118	-1.0078	0.0473
448.21	2020	0.304118	-1.0072	0.0473
448.21	2020	0.304118	-1.0031	0.0473
448.21	2020	0.398147	-1.3228	0.0476
448.21	2020	0.398147	-1.3175	0.0476
448.21	2020	0.398147	-1.3164	0.0476
448.18	30140	0.063731	-0.171	0.0501
448.18	30140	0.063731	-0.1683	0.0501
448.18	30140	0.063731	-0.1693	0.0501
448.18	30140	0.110934	-0.2946	0.0505
448.18	30140	0.110934	-0.2918	0.0505
448.18	30140	0.110934	-0.2965	0.0506
448.18	30140	0.208793	-0.5541	0.0515
448.18	30140	0.208793	-0.5554	0.0515
448.18	30140	0.208793	-0.5558	0.0515
448.18	30140	0.291279	-0.7702	0.0524
448.18	30140	0.291279	-0.7736	0.0524
448.18	30140	0.291279	-0.7707	0.0524
448.18	30140	0.409084	-1.0787	0.0536
448.18	30140	0.409084	-1.0794	0.0536
448.18	30140	0.409084	-1.0809	0.0536
473.64	15190	0.063731	-0.231	0.0568
473.64	15190	0.063731	-0.2319	0.0568
473.64	15190	0.063731	-0.2336	0.0568
473.64	15190	0.110934	-0.4079	0.0572
473.64	15190	0.110934	-0.4057	0.0572
473.64	15190	0.110934	-0.4097	0.0572
473.64	15190	0.208793	-0.7681	0.058
473.64	15190	0.208793	-0.7682	0.058
473.64	15190	0.208793	-0.7675	0.058
473.64	15190	0.291279	-1.0674	0.0587
473.64	15190	0.291279	-1.068	0.0587
473.64	15190	0.291279	-1.0679	0.0587
473.64	15190	0.409084	-1.4924	0.0597
473.64	15190	0.409084	-1.4941	0.0597
473.64	15190	0.409084	-1.4919	0.0597
498.1	2920	0.063731	-0.3321	0.0669
498.1	2920	0.063731	-0.3283	0.0669
498.1	2920	0.110934	-0.567	0.0671
498.1	2920	0.110934	-0.5556	0.0671
498.1	2920	0.110934	-0.5573	0.0671
498.1	2920	0.208793	-1.0645	0.0676
498.1	2920	0.208793	-1.0572	0.0676
498.1	2920	0.291279	-1.454	0.0679
498.1	2920	0.291279	-1.4472	0.0679
498.1	2920	0.291279	-1.4515	0.0679
498.1	2920	0.409084	-2.0649	0.0686
498.1	2920	0.409084	-2.0551	0.0685
498.1	15100	0.063731	-0.2722	0.0683
498.1	15100	0.063731	-0.2785	0.0683
498.1	15100	0.063731	-0.2746	0.0683
498.1	15100	0.110934	-0.49	0.0688
498.1	15100	0.110934	-0.4729	0.0688
498.1	15100	0.110934	-0.4811	0.0688
498.1	15100	0.208793	-0.9141	0.0699
498.1	15100	0.208793	-0.9004	0.0698
498.1	15100	0.208793	-0.9158	0.0699
498.1	15100	0.291279	-1.273	0.0707
498.1	15100	0.291279	-1.2713	0.0707
498.1	15100	0.291279	-1.2722	0.0707
498.1	15100	0.409084	-1.7871	0.072
498.1	15100	0.409084	-1.7863	0.072
498.1	15100	0.409084	-1.7823	0.072
523.11	5080	0.063731	-0.3861	0.0836
523.11	5080	0.063731	-0.3858	0.0836
523.11	5080	0.063731	-0.3854	0.0836
523.11	5080	0.110934	-0.6701	0.084
523.11	5080	0.110934	-0.6731	0.084
523.11	5080	0.110934	-0.6717	0.084
523.11	5080	0.208793	-1.262	0.0848
523.11	5080	0.208793	-1.2635	0.0848
523.11	5080	0.208793	-1.2569	0.0847
523.11	5080	0.291279	-1.7506	0.0854
523.11	5080	0.291279	-1.7526	0.0854
523.11	5080	0.291279	-1.7543	0.0854
523.11	5080	0.409084	-2.4511	0.0863
523.11	5080	0.409084	-2.451	0.0863
523.11	5080	0.409084	-2.4523	0.0863
523.12	30320	0.063731	-0.27	0.0865
523.12	30320	0.063731	-0.2722	0.0865
523.12	30320	0.063731	-0.2727	0.0865
523.12	30320	0.110934	-0.4626	0.0873
523.12	30320	0.110934	-0.4686	0.0873
523.12	30320	0.110934	-0.4718	0.0873
523.12	30320	0.208793	-0.882	0.0891
523.12	30320	0.208793	-0.8888	0.0891
523.12	30320	0.208793	-0.8913	0.0892
523.12	30320	0.291279	-1.225	0.0906
523.12	30320	0.291279	-1.2348	0.0907
523.12	30320	0.291279	-1.2422	0.0907
523.12	30320	0.409084	-1.7219	0.0928
523.12	30320	0.409084	-1.7329	0.0928
523.12	30320	0.409084	-1.7374	0.0929
548.14	15100	0.077117	-0.4851	0.1079
548.14	15100	0.077117	-0.4862	0.1079
548.14	15100	0.077117	-0.4819	0.1079
548.14	15100	0.133109	-0.8407	0.1088
548.14	15100	0.133109	-0.8382	0.1088
548.14	15100	0.133109	-0.8398	0.1088
548.14	15100	0.218498	-1.3753	0.1102
548.14	15100	0.218498	-1.3735	0.1102
548.14	15100	0.218498	-1.3758	0.1102
548.14	15100	0.292855	-1.8358	0.1116
548.14	15100	0.292855	-1.8337	0.1116
548.14	15100	0.292855	-1.835	0.1116
548.14	15100	0.458372	-2.8475	0.1149
548.14	15100	0.458372	-2.8475	0.1149
548.14	15100	0.458372	-2.8459	0.1149
498.1	30300	0.063731	-0.231	0.07
498.1	30300	0.063731	-0.2393	0.0701
498.1	30300	0.063731	-0.2352	0.0701
498.1	30300	0.110934	-0.4133	0.0708
498.1	30300	0.110934	-0.4129	0.0708
498.1	30300	0.110934	-0.4186	0.0708
498.1	30300	0.208793	-0.7763	0.0723
498.1	30300	0.208793	-0.7851	0.0723
498.1	30300	0.208793	-0.7769	0.0723
498.1	30300	0.291279	-1.0835	0.0736
498.1	30300	0.291279	-1.093	0.0736
498.1	30300	0.291279	-1.083	0.0736
498.1	30300	0.409084	-1.5183	0.0754
498.1	30300	0.409084	-1.5189	0.0754
498.1	30300	0.409084	-1.5182	0.0754
523.12	15100	0.063731	-0.3369	0.0848
523.12	15100	0.063731	-0.3359	0.0848
523.12	15100	0.063731	-0.3335	0.0848
523.12	15100	0.110934	-0.5821	0.0854
523.12	15100	0.110934	-0.5827	0.0854
523.12	15100	0.110934	-0.5807	0.0854
523.12	15100	0.208793	-1.0943	0.0867
523.12	15100	0.208793	-1.0936	0.0867
523.12	15100	0.208793	-1.0902	0.0867
523.12	15100	0.291279	-1.5166	0.0878
523.12	15100	0.291279	-1.5169	0.0878
523.12	15100	0.291279	-1.5139	0.0878
523.12	15100	0.409084	-2.1241	0.0893
523.12	15100	0.409084	-2.1254	0.0893
523.12	15100	0.409084	-2.1223	0.0893
548.15	7170	0.077117	-0.5638	0.107
548.15	7170	0.077117	-0.5661	0.107
548.15	7170	0.077117	-0.5652	0.107
548.15	7170	0.133109	-0.9758	0.1077
548.15	7170	0.133109	-0.9727	0.1077
548.15	7170	0.133109	-0.9748	0.1077
548.15	7170	0.218498	-1.5941	0.1089
548.15	7170	0.218498	-1.5915	0.1089
548.15	7170	0.218498	-1.595	0.1089
548.15	7170	0.292855	-2.1306	0.1099
548.15	7170	0.292855	-2.1309	0.1099
548.15	7170	0.292855	-2.1319	0.1099
548.15	7170	0.458372	-3.3092	0.1122
548.15	7170	0.458372	-3.3077	0.1122
548.15	7170	0.458372	-3.308	0.1122
548.15	23100	0.077117	-0.425	0.1087
548.15	23100	0.077117	-0.4271	0.1087
548.15	23100	0.077117	-0.4235	0.1087
548.15	23100	0.133109	-0.7398	0.1099
548.15	23100	0.133109	-0.7378	0.1099
548.15	23100	0.133109	-0.7361	0.1099
548.15	23100	0.218498	-1.2089	0.1116
548.15	23100	0.218498	-1.2055	0.1116
548.15	23100	0.218498	-1.2052	0.1116
548.15	23100	0.292855	-1.6126	0.1131
548.15	23100	0.292855	-1.6102	0.113
548.15	23100	0.292855	-1.6109	0.113
548.15	23100	0.458372	-2.4992	0.1168
548.15	23100	0.458372	-2.4983	0.1168
548.15	23100	0.458372	-2.4979	0.1168
548.14	30150	0.077117	-0.3852	0.1094
548.14	30150	0.077117	-0.3858	0.1095
548.14	30150	0.077117	-0.3862	0.1095
548.14	30150	0.133109	-0.6626	0.1107
548.14	30150	0.133109	-0.6585	0.1107
548.14	30150	0.133109	-0.6594	0.1107
548.14	30150	0.218498	-1.0801	0.1126
548.14	30150	0.218498	-1.0809	0.1126
548.14	30150	0.218498	-1.0854	0.1126
548.14	30150	0.292855	-1.4439	0.1142
548.14	30150	0.292855	-1.4443	0.1142
548.14	30150	0.292855	-1.4473	0.1142
548.14	30150	0.458372	-2.2423	0.1181
548.14	30150	0.458372	-2.2455	0.1181
548.14	30150	0.458372	-2.2482	0.1181
573.2	15180	0.077117	-0.6085	0.1426
573.2	15180	0.077117	-0.6103	0.1426
573.2	15180	0.077117	-0.6088	0.1426
573.2	15180	0.133109	-1.0431	0.144
573.2	15180	0.133109	-1.0436	0.144
573.2	15180	0.133109	-1.0455	0.144
573.2	15180	0.218498	-1.7093	0.1461
573.2	15180	0.218498	-1.708	0.1461
573.2	15180	0.218498	-1.7132	0.1461
573.2	15180	0.292855	-2.2776	0.1479
573.2	15180	0.292855	-2.2776	0.1479
573.2	15180	0.292855	-2.2768	0.1479
573.2	15180	0.458372	-3.5325	0.1519
573.2	15180	0.458372	-3.5288	0.1519
573.2	15180	0.458372	-3.5321	0.1519
573.2	30250	0.077117	-0.4439	0.1431
573.2	30250	0.077117	-0.4439	0.1431
573.2	30250	0.077117	-0.4453	0.1431
573.2	30250	0.133109	-0.7644	0.1449
573.2	30250	0.133109	-0.7614	0.1448
573.2	30250	0.133109	-0.7637	0.1449
573.2	30250	0.218498	-1.2501	0.1475
573.2	30250	0.218498	-1.2495	0.1475
573.2	30250	0.218498	-1.2558	0.1476
573.2	30250	0.292855	-1.6599	0.1498
573.2	30250	0.292855	-1.6614	0.1498
573.2	30250	0.292855	-1.6666	0.1498
573.2	30250	0.458372	-2.5668	0.1548
573.2	30250	0.458372	-2.5678	0.1548
573.2	30250	0.458372	-2.5751	0.1548
573.2	10030	0.077117	-0.6958	0.1423
573.2	10030	0.077117	-0.696	0.1423
573.2	10030	0.077117	-0.6945	0.1423
573.2	10030	0.133109	-1.1977	0.1435
573.2	10030	0.133109	-1.1992	0.1435
573.2	10030	0.133109	-1.194	0.1435
573.2	10030	0.218498	-1.9628	0.1453
573.2	10030	0.218498	-1.9629	0.1453
573.2	10030	0.218498	-1.9663	0.1453
573.2	10030	0.292855	-2.6174	0.1469
573.2	10030	0.292855	-2.6177	0.1469
573.2	10030	0.292855	-2.6176	0.1469
573.2	10030	0.458372	-4.0655	0.1503
573.2	10030	0.458372	-4.0633	0.1503
573.2	10030	0.458372	-4.0642	0.1503
573.2	23560	0.077117	-0.5041	0.1429
573.2	23560	0.077117	-0.5022	0.1429
573.2	23560	0.077117	-0.5017	0.1429
573.2	23560	0.133109	-0.8712	0.1445
573.2	23560	0.133109	-0.8693	0.1445
573.2	23560	0.133109	-0.8705	0.1445
573.2	23560	0.218498	-1.4249	0.147
573.2	23560	0.218498	-1.4246	0.147
573.2	23560	0.218498	-1.4292	0.147
573.2	23560	0.292855	-1.8938	0.1491
573.2	23560	0.292855	-1.8927	0.1491
573.2	23560	0.292855	-1.8946	0.1491
573.2	23560	0.458372	-2.9312	0.1538
573.2	23560	0.458372	-2.9282	0.1537
573.2	23560	0.458372	-2.9294	0.1537

System: water + 2-ethoxyethan-1-ol; phases: Liquid
Property: Mass density, kg/m3 (Liquid); method: Vibrating tube method
Temperature, K	Pressure, kPa	Molality, mol/kg of 2-ethoxyethan-1-ol	Mass density, kg/m3	uncertainty
298.3	540	0.056171	-0.0461	0.031
298.3	540	0.056171	-0.0466	0.031
298.3	540	0.056171	-0.0497	0.031
298.3	540	0.056171	-0.0525	0.031
298.3	540	0.056171	-0.0494	0.031
298.3	540	0.056171	-0.0449	0.031
298.3	540	0.115494	-0.0907	0.0311
298.3	540	0.115494	-0.0838	0.0311
298.3	540	0.115494	-0.0891	0.0311
298.3	540	0.115494	-0.0916	0.0311
298.3	540	0.115494	-0.0942	0.0311
298.3	540	0.209787	-0.1286	0.0311
298.3	540	0.209787	-0.1398	0.0311
298.3	540	0.209787	-0.1336	0.0311
298.3	540	0.209787	-0.1301	0.0311
298.3	540	0.209787	-0.1339	0.0311
298.3	540	0.209787	-0.1254	0.0311
298.3	540	0.318859	-0.1768	0.0311
298.3	540	0.318859	-0.1854	0.0311
298.3	540	0.318859	-0.1781	0.0311
298.3	540	0.318859	-0.1662	0.0311
298.3	540	0.318859	-0.1605	0.0311
298.3	540	0.318859	-0.1686	0.0311
298.3	540	0.420331	-0.1977	0.0312
298.3	540	0.420331	-0.2041	0.0312
298.3	540	0.420331	-0.2069	0.0312
298.3	540	0.420331	-0.203	0.0312
298.3	540	0.420331	-0.2225	0.0312
298.19	15410	0.056171	-0.0727	0.0312
298.19	15410	0.056171	-0.0713	0.0312
298.19	15410	0.056171	-0.0705	0.0312
298.19	15410	0.115494	-0.1395	0.0314
298.19	15410	0.115494	-0.1411	0.0314
298.19	15410	0.115494	-0.1403	0.0314
298.19	15410	0.209787	-0.2314	0.0317
298.19	15410	0.209787	-0.2287	0.0317
298.19	15410	0.209787	-0.228	0.0317
298.19	15410	0.318859	-0.3232	0.032
298.19	15410	0.318859	-0.3201	0.032
298.19	15410	0.318859	-0.3231	0.032
298.19	15410	0.420331	-0.3991	0.0323
298.19	15410	0.420331	-0.3973	0.0323
298.19	15410	0.420331	-0.3972	0.0323
318.19	530	0.056171	-0.0861	0.0311
318.19	530	0.056171	-0.086	0.0311
318.19	530	0.056171	-0.0855	0.0311
318.19	530	0.115494	-0.1758	0.0311
318.19	530	0.115494	-0.1789	0.0311
318.19	530	0.115494	-0.1753	0.0311
318.19	530	0.209787	-0.3012	0.0312
318.19	530	0.209787	-0.2972	0.0312
318.19	530	0.209787	-0.2982	0.0312
318.19	530	0.318859	-0.4443	0.0314
318.19	530	0.318859	-0.4432	0.0314
318.19	530	0.318859	-0.4439	0.0314
318.19	530	0.420331	-0.574	0.0315
318.19	530	0.420331	-0.5802	0.0315
318.19	530	0.420331	-0.5716	0.0315
318.23	29860	0.056171	-0.1137	0.0317
318.23	29860	0.056171	-0.1202	0.0317
318.23	29860	0.056171	-0.117	0.0317
318.23	29860	0.115494	-0.2203	0.0322
318.23	29860	0.115494	-0.2363	0.0323
318.23	29860	0.115494	-0.2262	0.0322
318.23	29860	0.209787	-0.3925	0.0331
318.23	29860	0.209787	-0.3933	0.0331
318.23	29860	0.209787	-0.3913	0.0331
318.23	29860	0.318859	-0.5766	0.0341
318.23	29860	0.318859	-0.6166	0.0343
318.23	29860	0.318859	-0.5993	0.0342
318.23	29860	0.420331	-0.7759	0.0352
318.23	29860	0.420331	-0.7756	0.0352
318.23	29860	0.420331	-0.8035	0.0353
298.22	29900	0.056171	-0.0946	0.0315
298.22	29900	0.056171	-0.0973	0.0315
298.22	29900	0.056171	-0.0922	0.0315
298.22	29900	0.115494	-0.183	0.032
298.22	29900	0.115494	-0.1913	0.032
298.22	29900	0.115494	-0.1879	0.032
298.22	29900	0.209787	-0.3066	0.0326
298.22	29900	0.209787	-0.3224	0.0327
298.22	29900	0.209787	-0.312	0.0327
298.22	29900	0.318859	-0.4448	0.0334
298.22	29900	0.318859	-0.4511	0.0334
298.22	29900	0.318859	-0.4485	0.0334
298.22	29900	0.420331	-0.5226	0.0338
298.22	29900	0.420331	-0.5718	0.0341
298.22	29900	0.420331	-0.5725	0.0341
318.24	15130	0.056171	-0.1028	0.0313
318.24	15130	0.056171	-0.102	0.0313
318.24	15130	0.056171	-0.101	0.0313
318.24	15130	0.115494	-0.2063	0.0316
318.24	15130	0.115494	-0.2107	0.0316
318.24	15130	0.115494	-0.2115	0.0316
318.24	15130	0.209787	-0.3688	0.0321
318.24	15130	0.209787	-0.3597	0.0321
318.24	15130	0.209787	-0.3609	0.0321
318.24	15130	0.318859	-0.5339	0.0327
318.24	15130	0.318859	-0.5293	0.0326
318.24	15130	0.318859	-0.5275	0.0326
318.24	15130	0.420331	-0.6869	0.0331
318.24	15130	0.420331	-0.6901	0.0332
318.24	15130	0.420331	-0.6939	0.0332
338.19	530	0.056171	-0.1372	0.0312
338.19	530	0.056171	-0.1443	0.0312
338.19	530	0.056171	-0.13	0.0311
338.19	530	0.115494	-0.2492	0.0312
338.19	530	0.115494	-0.2528	0.0313
338.19	530	0.115494	-0.2753	0.0313
338.19	530	0.209787	-0.4861	0.0315
338.19	530	0.209787	-0.4728	0.0314
338.19	530	0.209787	-0.4773	0.0314
338.19	530	0.318859	-0.6732	0.0316
338.19	530	0.318859	-0.7108	0.0317
338.19	530	0.318859	-0.7106	0.0317
338.19	530	0.420331	-0.9377	0.0319
338.19	530	0.420331	-0.9262	0.0318
338.19	530	0.420331	-0.9371	0.0319
338.18	15100	0.056171	-0.1395	0.0318
338.18	15100	0.056171	-0.1416	0.0318
338.18	15100	0.056171	-0.141	0.0318
338.18	15100	0.115494	-0.2797	0.0321
338.18	15100	0.115494	-0.2802	0.0321
338.18	15100	0.115494	-0.2834	0.0322
338.18	15100	0.209787	-0.4899	0.0327
338.18	15100	0.209787	-0.493	0.0327
338.18	15100	0.209787	-0.4946	0.0327
338.18	15100	0.318859	-0.7506	0.0334
338.18	15100	0.318859	-0.7488	0.0334
338.18	15100	0.318859	-0.7501	0.0334
338.18	15100	0.420331	-0.9804	0.0341
338.18	15100	0.420331	-0.9888	0.0341
338.18	15100	0.420331	-0.991	0.0341
358.24	540	0.056171	-0.1728	0.0319
358.24	540	0.056171	-0.1744	0.0319
358.24	540	0.056171	-0.1854	0.0319
358.24	540	0.115494	-0.3497	0.0321
358.24	540	0.115494	-0.3658	0.0321
358.24	540	0.115494	-0.3768	0.0321
358.24	540	0.209787	-0.6359	0.0323
358.24	540	0.209787	-0.6501	0.0323
358.24	540	0.209787	-0.6469	0.0323
358.24	540	0.318859	-0.9768	0.0325
358.24	540	0.318859	-0.9567	0.0325
358.24	540	0.318859	-0.9304	0.0325
358.24	540	0.420331	-1.3028	0.0328
358.24	540	0.420331	-1.3278	0.0328
358.24	540	0.420331	-1.3019	0.0328
358.2	30400	0.059853	-0.1852	0.0351
358.2	30400	0.059853	-0.1873	0.0352
358.2	30400	0.059853	-0.1891	0.0352
358.2	30400	0.103613	-0.3149	0.0357
358.2	30400	0.103613	-0.3276	0.0357
358.2	30400	0.103613	-0.3279	0.0358
358.2	30400	0.202492	-0.6322	0.037
358.2	30400	0.202492	-0.635	0.0371
358.2	30400	0.202492	-0.6383	0.0371
358.2	30400	0.295309	-0.92	0.0383
358.2	30400	0.295309	-0.9265	0.0383
358.2	30400	0.295309	-0.9238	0.0383
358.2	30400	0.404905	-1.2525	0.0397
358.2	30400	0.404905	-1.2472	0.0397
358.2	30400	0.404905	-1.2583	0.0398
373.12	15200	0.059853	-0.2218	0.035
373.12	15200	0.059853	-0.2222	0.035
373.12	15200	0.059853	-0.2237	0.035
373.12	15200	0.103613	-0.3852	0.0354
373.12	15200	0.103613	-0.387	0.0354
373.12	15200	0.103613	-0.3872	0.0354
373.12	15200	0.202492	-0.7504	0.0362
373.12	15200	0.202492	-0.7498	0.0362
373.12	15200	0.202492	-0.7558	0.0363
373.12	15200	0.295309	-1.0922	0.0371
373.12	15200	0.295309	-1.092	0.0371
373.12	15200	0.295309	-1.0978	0.0371
373.12	15200	0.404905	-1.488	0.0381
373.12	15200	0.404905	-1.4888	0.0381
373.12	15200	0.404905	-1.4946	0.0381
338.2	30090	0.056171	-0.1466	0.0332
338.2	30090	0.056171	-0.1463	0.0332
338.2	30090	0.056171	-0.1466	0.0332
338.2	30090	0.115494	-0.2959	0.0339
338.2	30090	0.115494	-0.2959	0.0339
338.2	30090	0.115494	-0.2998	0.0339
338.2	30090	0.209787	-0.523	0.0349
338.2	30090	0.209787	-0.5147	0.0348
338.2	30090	0.209787	-0.5353	0.0349
338.2	30090	0.318859	-0.7796	0.036
338.2	30090	0.318859	-0.7771	0.036
338.2	30090	0.318859	-0.7851	0.036
338.2	30090	0.420331	-1.0351	0.0371
338.2	30090	0.420331	-1.0355	0.0371
338.2	30090	0.420331	-1.0419	0.0372
358.19	15160	0.059853	-0.195	0.0335
358.19	15160	0.059853	-0.186	0.0335
358.19	15160	0.059853	-0.1903	0.0335
358.19	15160	0.103613	-0.3176	0.0338
358.19	15160	0.103613	-0.3386	0.0338
358.19	15160	0.103613	-0.3341	0.0338
358.19	15160	0.202492	-0.6436	0.0346
358.19	15160	0.202492	-0.6272	0.0346
358.19	15160	0.202492	-0.6273	0.0346
358.19	15160	0.295309	-0.9294	0.0353
358.19	15160	0.295309	-0.9389	0.0353
358.19	15160	0.295309	-0.9197	0.0353
358.19	15160	0.404905	-1.2421	0.0361
358.19	15160	0.404905	-1.2607	0.0362
358.19	15160	0.404905	-1.2472	0.0361
373.16	530	0.059853	-0.2269	0.0333
373.16	530	0.059853	-0.2281	0.0333
373.16	530	0.059853	-0.2265	0.0333
373.16	530	0.103613	-0.3932	0.0334
373.16	530	0.103613	-0.3953	0.0334
373.16	530	0.103613	-0.3942	0.0334
373.16	530	0.202492	-0.7644	0.0337
373.16	530	0.202492	-0.7651	0.0337
373.16	530	0.202492	-0.764	0.0337
373.16	530	0.295309	-1.114	0.0339
373.16	530	0.295309	-1.1146	0.0339
373.16	530	0.295309	-1.113	0.0339
373.16	530	0.404905	-1.5209	0.0342
373.16	530	0.404905	-1.5213	0.0342
373.16	530	0.404905	-1.5226	0.0342
373.17	30310	0.059853	-0.2147	0.0368
373.17	30310	0.059853	-0.219	0.0368
373.17	30310	0.059853	-0.2192	0.0368
373.17	30310	0.103613	-0.375	0.0374
373.17	30310	0.103613	-0.3772	0.0374
373.17	30310	0.103613	-0.3769	0.0374
373.17	30310	0.202492	-0.7265	0.0389
373.17	30310	0.202492	-0.7292	0.0389
373.17	30310	0.202492	-0.732	0.0389
373.17	30310	0.295309	-1.0614	0.0403
373.17	30310	0.295309	-1.0645	0.0403
373.17	30310	0.295309	-1.0638	0.0403
373.17	30310	0.404905	-1.4428	0.0419
373.17	30310	0.404905	-1.4459	0.0419
373.17	30310	0.404905	-1.4481	0.042
398.22	2100	0.059853	-0.2899	0.0366
398.22	2100	0.059853	-0.2898	0.0366
398.22	2100	0.059853	-0.2898	0.0366
398.22	2100	0.103613	-0.5035	0.0367
398.22	2100	0.103613	-0.5029	0.0367
398.22	2100	0.103613	-0.5021	0.0367
398.22	2100	0.202492	-0.9823	0.0371
398.22	2100	0.202492	-0.9803	0.0371
398.22	2100	0.202492	-0.9808	0.0371
398.22	2100	0.295309	-1.43	0.0375
398.22	2100	0.295309	-1.4293	0.0375
398.22	2100	0.295309	-1.4297	0.0375
398.22	2100	0.404905	-1.9554	0.038
398.22	2100	0.404905	-1.9556	0.038
398.22	2100	0.404905	-1.958	0.038
398.21	30170	0.059853	-0.27	0.0402
398.21	30170	0.059853	-0.2701	0.0402
398.21	30170	0.059853	-0.2716	0.0402
398.21	30170	0.103613	-0.4677	0.041
398.21	30170	0.103613	-0.4681	0.041
398.21	30170	0.103613	-0.4657	0.041
398.21	30170	0.202492	-0.9069	0.0427
398.21	30170	0.202492	-0.9103	0.0427
398.21	30170	0.202492	-0.912	0.0427
398.21	30170	0.295309	-1.3199	0.0444
398.21	30170	0.295309	-1.3212	0.0444
398.21	30170	0.295309	-1.3249	0.0444
398.21	30170	0.404905	-1.8009	0.0464
398.21	30170	0.404905	-1.8039	0.0464
398.21	30170	0.404905	-1.8025	0.0464
423.15	15240	0.059853	-0.3383	0.0426
423.15	15240	0.059853	-0.3385	0.0426
423.15	15240	0.059853	-0.3384	0.0426
423.15	15240	0.103613	-0.5867	0.0432
423.15	15240	0.103613	-0.5869	0.0432
423.15	15240	0.103613	-0.5857	0.0432
423.15	15240	0.202492	-1.1416	0.0445
423.15	15240	0.202492	-1.1416	0.0445
423.15	15240	0.202492	-1.1389	0.0445
423.15	15240	0.295309	-1.6605	0.0457
423.15	15240	0.295309	-1.6588	0.0457
423.15	15240	0.295309	-1.6586	0.0457
423.15	15240	0.404905	-2.2666	0.0471
423.15	15240	0.404905	-2.2658	0.0471
423.15	15240	0.404905	-2.2709	0.0471
448.21	2020	0.059853	-0.425	0.0468
448.21	2020	0.059853	-0.4228	0.0468
448.21	2020	0.059853	-0.4206	0.0468
448.21	2020	0.103613	-0.7323	0.0471
448.21	2020	0.103613	-0.7339	0.0471
448.21	2020	0.103613	-0.7361	0.0471
448.21	2020	0.202492	-1.4379	0.0476
448.21	2020	0.202492	-1.4333	0.0476
448.21	2020	0.202492	-1.433	0.0476
448.21	2020	0.295309	-2.0879	0.0482
448.21	2020	0.295309	-2.089	0.0482
448.21	2020	0.295309	-2.0885	0.0482
448.21	2020	0.404905	-2.854	0.0488
448.21	2020	0.404905	-2.8525	0.0488
448.21	2020	0.404905	-2.8559	0.0488
398.21	15190	0.059853	-0.2787	0.0382
398.21	15190	0.059853	-0.2798	0.0382
398.21	15190	0.059853	-0.2784	0.0382
398.21	15190	0.103613	-0.4866	0.0387
398.21	15190	0.103613	-0.4845	0.0387
398.21	15190	0.103613	-0.4857	0.0387
398.21	15190	0.202492	-0.9409	0.0398
398.21	15190	0.202492	-0.9431	0.0398
398.21	15190	0.202492	-0.9426	0.0398
398.21	15190	0.295309	-1.3763	0.0408
398.21	15190	0.295309	-1.375	0.0408
398.21	15190	0.295309	-1.3751	0.0408
398.21	15190	0.404905	-1.8767	0.042
398.21	15190	0.404905	-1.8797	0.042
398.21	15190	0.404905	-1.8809	0.042
423.14	2080	0.059853	-0.3563	0.0408
423.14	2080	0.059853	-0.3572	0.0408
423.14	2080	0.059853	-0.3552	0.0408
423.14	2080	0.103613	-0.6199	0.041
423.14	2080	0.103613	-0.6183	0.041
423.14	2080	0.103613	-0.6188	0.041
423.14	2080	0.202492	-1.2043	0.0415
423.14	2080	0.202492	-1.2037	0.0415
423.14	2080	0.202492	-1.2045	0.0415
423.14	2080	0.295309	-1.7555	0.042
423.14	2080	0.295309	-1.7552	0.042
423.14	2080	0.295309	-1.7539	0.042
423.14	2080	0.404905	-2.3994	0.0425
423.14	2080	0.404905	-2.3989	0.0425
423.14	2080	0.404905	-2.4036	0.0425
423.15	30100	0.059853	-0.3183	0.0447
423.15	30100	0.059853	-0.3189	0.0447
423.15	30100	0.059853	-0.3224	0.0448
423.15	30100	0.103613	-0.5517	0.0456
423.15	30100	0.103613	-0.5514	0.0456
423.15	30100	0.103613	-0.5534	0.0456
423.15	30100	0.202492	-1.071	0.0477
423.15	30100	0.202492	-1.0736	0.0477
423.15	30100	0.202492	-1.0743	0.0477
423.15	30100	0.295309	-1.5594	0.0496
423.15	30100	0.295309	-1.5635	0.0496
423.15	30100	0.295309	-1.5672	0.0496
423.15	30100	0.404905	-2.1289	0.0519
423.15	30100	0.404905	-2.1321	0.052
423.15	30100	0.404905	-2.1282	0.0519
448.21	15190	0.056316	-0.3722	0.0487
448.21	15190	0.056316	-0.3726	0.0487
448.21	15190	0.056316	-0.372	0.0487
448.21	15190	0.106631	-0.7062	0.0494
448.21	15190	0.106631	-0.7068	0.0494
448.21	15190	0.106631	-0.7076	0.0494
448.21	15190	0.207505	-1.3712	0.0509
448.21	15190	0.207505	-1.3721	0.0509
448.21	15190	0.207505	-1.3717	0.0509
448.21	15190	0.321119	-2.1144	0.0527
448.21	15190	0.321119	-2.1145	0.0527
448.21	15190	0.321119	-2.1128	0.0527
448.21	15190	0.407297	-2.6737	0.054
448.21	15190	0.407297	-2.669	0.054
448.21	15190	0.407297	-2.6715	0.054
448.18	30140	0.056316	-0.3473	0.0507
448.18	30140	0.056316	-0.3482	0.0508
448.18	30140	0.056316	-0.3499	0.0508
448.18	30140	0.106631	-0.6581	0.0519
448.18	30140	0.106631	-0.6588	0.0519
448.18	30140	0.106631	-0.6565	0.0519
448.18	30140	0.207505	-1.2735	0.0544
448.18	30140	0.207505	-1.2777	0.0544
448.18	30140	0.207505	-1.2765	0.0544
448.18	30140	0.321119	-1.9645	0.0572
448.18	30140	0.321119	-1.9681	0.0572
448.18	30140	0.321119	-1.961	0.0571
448.18	30140	0.407297	-2.4801	0.0593
448.18	30140	0.407297	-2.4845	0.0593
448.18	30140	0.407297	-2.4805	0.0593
473.64	15200	0.056316	-0.427	0.0572
473.64	15200	0.056316	-0.4268	0.0572
473.64	15200	0.056316	-0.4291	0.0572
473.64	15200	0.106631	-0.813	0.0581
473.64	15200	0.106631	-0.8155	0.0581
473.64	15200	0.106631	-0.8134	0.0581
473.64	15200	0.207505	-1.5778	0.0599
473.64	15200	0.207505	-1.5771	0.0599
473.64	15200	0.207505	-1.5749	0.0599
473.64	15200	0.321119	-2.43	0.062
473.64	15200	0.321119	-2.4315	0.062
473.64	15200	0.321119	-2.4394	0.062
473.64	15200	0.407297	-3.0719	0.0635
473.64	15200	0.407297	-3.0737	0.0635
473.64	15200	0.407297	-3.0719	0.0635
498.1	2920	0.056316	-0.5447	0.0671
498.1	2920	0.056316	-0.5444	0.0671
498.1	2920	0.056316	-0.5382	0.0671
498.1	2920	0.106631	-1.0177	0.0675
498.1	2920	0.106631	-1.0257	0.0675
498.1	2920	0.106631	-1.0255	0.0675
498.1	2920	0.207505	-1.9871	0.0685
498.1	2920	0.207505	-1.9834	0.0685
498.1	2920	0.207505	-1.9839	0.0685
498.1	2920	0.321119	-3.0659	0.0695
498.1	2920	0.321119	-3.0513	0.0695
498.1	2920	0.321119	-3.0491	0.0695
498.1	2920	0.407297	-3.8665	0.0703
498.1	2920	0.407297	-3.8646	0.0703
498.1	2920	0.407297	-3.8688	0.0703
498.1	30310	0.056316	-0.4352	0.0709
498.1	30310	0.056316	-0.4353	0.0709
498.1	30310	0.056316	-0.4267	0.0709
498.1	30310	0.106631	-0.8174	0.0725
498.1	30310	0.106631	-0.8203	0.0725
498.1	30310	0.106631	-0.8072	0.0725
498.1	30310	0.207505	-1.5979	0.0758
498.1	30310	0.207505	-1.6047	0.0758
498.1	30310	0.207505	-1.6019	0.0758
498.1	30310	0.321119	-2.4609	0.0795
498.1	30310	0.321119	-2.4428	0.0794
498.1	30310	0.321119	-2.4474	0.0794
498.1	30310	0.407297	-3.0922	0.0823
498.1	30310	0.407297	-3.0902	0.0822
498.1	30310	0.407297	-3.093	0.0823
473.64	2020	0.056316	-0.4705	0.0553
473.64	2020	0.056316	-0.4705	0.0553
473.64	2020	0.056316	-0.4713	0.0553
473.64	2020	0.106631	-0.8899	0.0557
473.64	2020	0.106631	-0.8906	0.0557
473.64	2020	0.106631	-0.8907	0.0557
473.64	2020	0.207505	-1.7253	0.0564
473.64	2020	0.207505	-1.7255	0.0564
473.64	2020	0.207505	-1.7311	0.0564
473.64	2020	0.321119	-2.6597	0.0572
473.64	2020	0.321119	-2.6658	0.0572
473.64	2020	0.321119	-2.6592	0.0572
473.64	2020	0.407297	-3.3606	0.0578
473.64	2020	0.407297	-3.3613	0.0578
473.64	2020	0.407297	-3.3625	0.0578
473.64	30040	0.056316	-0.3862	0.0593
473.64	30040	0.056316	-0.3891	0.0593
473.64	30040	0.056316	-0.3916	0.0593
473.64	30040	0.106631	-0.7347	0.0607
473.64	30040	0.106631	-0.7371	0.0607
473.64	30040	0.106631	-0.7396	0.0607
473.64	30040	0.207505	-1.4299	0.0635
473.64	30040	0.207505	-1.4308	0.0635
473.64	30040	0.207505	-1.4369	0.0635
473.64	30040	0.321119	-2.1984	0.0666
473.64	30040	0.321119	-2.2073	0.0667
473.64	30040	0.321119	-2.2124	0.0667
473.64	30040	0.407297	-2.7774	0.0691
473.64	30040	0.407297	-2.7869	0.0691
473.64	30040	0.407297	-2.7813	0.0691
498.1	15100	0.056316	-0.4812	0.0688
498.1	15100	0.056316	-0.4819	0.0688
498.1	15100	0.056316	-0.4806	0.0688
498.1	15100	0.106631	-0.9248	0.0699
498.1	15100	0.106631	-0.9189	0.0699
498.1	15100	0.106631	-0.9203	0.0699
498.1	15100	0.207505	-1.7838	0.072
498.1	15100	0.207505	-1.7857	0.072
498.1	15100	0.207505	-1.7827	0.072
498.1	15100	0.321119	-2.7515	0.0744
498.1	15100	0.321119	-2.7525	0.0744
498.1	15100	0.321119	-2.7513	0.0744
498.1	15100	0.407297	-3.4779	0.0762
498.1	15100	0.407297	-3.476	0.0762
498.1	15100	0.407297	-3.4729	0.0762
523.11	5080	0.056316	-0.617	0.0839
523.11	5080	0.056316	-0.6176	0.0839
523.11	5080	0.056316	-0.6187	0.0839
523.11	5080	0.106631	-1.1699	0.0846
523.11	5080	0.106631	-1.1696	0.0846
523.11	5080	0.106631	-1.1697	0.0846
523.11	5080	0.207505	-2.2718	0.086
523.11	5080	0.207505	-2.2685	0.086
523.11	5080	0.207505	-2.2687	0.086
523.11	5080	0.321119	-3.4924	0.0876
523.11	5080	0.321119	-3.4939	0.0876
523.11	5080	0.321119	-3.4979	0.0876
523.11	5080	0.407297	-4.406	0.0888
523.11	5080	0.407297	-4.4096	0.0888
523.11	5080	0.407297	-4.4108	0.0888
523.11	15100	0.056316	-0.5566	0.0854
523.11	15100	0.056316	-0.5553	0.0854
523.11	15100	0.056316	-0.5515	0.0853
523.11	15100	0.106631	-1.0505	0.0866
523.11	15100	0.106631	-1.0505	0.0866
523.11	15100	0.106631	-1.0495	0.0866
523.11	15100	0.207505	-2.0367	0.0891
523.11	15100	0.207505	-2.0352	0.0891
523.11	15100	0.207505	-2.0286	0.0891
523.11	15100	0.321119	-3.1318	0.0919
523.11	15100	0.321119	-3.1347	0.0919
523.11	15100	0.321119	-3.1324	0.0919
523.11	15100	0.407297	-3.9497	0.094
523.11	15100	0.407297	-3.9462	0.094
523.11	15100	0.407297	-3.9438	0.094
548.15	7170	0.061179	-0.7864	0.1074
548.15	7170	0.061179	-0.7838	0.1074
548.15	7170	0.061179	-0.7855	0.1074
548.15	7170	0.126572	-1.6173	0.1089
548.15	7170	0.126572	-1.6205	0.1089
548.15	7170	0.126572	-1.6222	0.1089
548.15	7170	0.229985	-2.9228	0.1114
548.15	7170	0.229985	-2.9237	0.1114
548.15	7170	0.229985	-2.9246	0.1114
548.15	7170	0.342078	-4.3152	0.1141
548.15	7170	0.342078	-4.3162	0.1141
548.15	7170	0.342078	-4.3196	0.1141
548.15	7170	0.435863	-5.4649	0.1163
548.15	7170	0.435863	-5.4669	0.1163
548.15	7170	0.435863	-5.469	0.1163
548.15	23100	0.061179	-0.6326	0.1095
548.15	23100	0.061179	-0.6293	0.1095
548.15	23100	0.061179	-0.6297	0.1095
548.15	23100	0.126572	-1.3027	0.1119
548.15	23100	0.126572	-1.3038	0.1119
548.15	23100	0.126572	-1.3042	0.1119
548.15	23100	0.229985	-2.3479	0.1161
548.15	23100	0.229985	-2.3466	0.1161
548.15	23100	0.229985	-2.3491	0.1161
548.15	23100	0.342078	-3.4599	0.121
548.15	23100	0.342078	-3.4602	0.121
548.15	23100	0.342078	-3.4604	0.121
548.15	23100	0.435863	-4.3766	0.125
548.15	23100	0.435863	-4.3762	0.125
548.15	23100	0.435863	-4.3779	0.125
573.2	10030	0.061179	-0.9402	0.1429
573.2	10030	0.061179	-0.9426	0.1429
573.2	10030	0.061179	-0.9417	0.1429
573.2	10030	0.126572	-1.9347	0.1452
573.2	10030	0.126572	-1.9315	0.1452
573.2	10030	0.126572	-1.9372	0.1452
573.2	10030	0.229985	-3.4795	0.1489
573.2	10030	0.229985	-3.4772	0.1489
573.2	10030	0.229985	-3.4778	0.1489
573.2	10030	0.342078	-5.1257	0.1528
573.2	10030	0.342078	-5.1252	0.1528
573.2	10030	0.342078	-5.1278	0.1528
573.2	10030	0.435863	-6.4819	0.1561
573.2	10030	0.435863	-6.4802	0.1561
573.2	10030	0.435863	-6.4869	0.1561
523.12	30320	0.056316	-0.4688	0.0873
523.12	30320	0.056316	-0.4727	0.0873
523.12	30320	0.056316	-0.4782	0.0874
523.12	30320	0.106631	-0.8945	0.0892
523.12	30320	0.106631	-0.8995	0.0892
523.12	30320	0.106631	-0.9023	0.0892
523.12	30320	0.207505	-1.7403	0.0929
523.12	30320	0.207505	-1.7508	0.0929
523.12	30320	0.207505	-1.7513	0.0929
523.12	30320	0.321119	-2.6823	0.0971
523.12	30320	0.321119	-2.6914	0.0971
523.12	30320	0.321119	-2.6998	0.0972
523.12	30320	0.407297	-3.3806	0.1002
523.12	30320	0.407297	-3.3956	0.1003
523.12	30320	0.407297	-3.4021	0.1003
548.14	15110	0.061179	-0.698	0.1085
548.14	15110	0.061179	-0.6973	0.1085
548.14	15110	0.061179	-0.6989	0.1085
548.14	15110	0.126572	-1.439	0.1104
548.14	15110	0.126572	-1.4375	0.1104
548.14	15110	0.126572	-1.4404	0.1104
548.14	15110	0.229985	-2.5969	0.114
548.14	15110	0.229985	-2.5967	0.114
548.14	15110	0.229985	-2.5966	0.114
548.14	15110	0.342078	-3.8271	0.1179
548.14	15110	0.342078	-3.8271	0.1179
548.14	15110	0.342078	-3.8298	0.1179
548.14	15110	0.435863	-4.844	0.1212
548.14	15110	0.435863	-4.8466	0.1212
548.14	15110	0.435863	-4.8456	0.1212
548.14	30140	0.061179	-0.5856	0.1103
548.14	30140	0.061179	-0.5862	0.1103
548.14	30140	0.061179	-0.5836	0.1103
548.14	30140	0.126572	-1.1964	0.1131
548.14	30140	0.126572	-1.1957	0.1131
548.14	30140	0.126572	-1.1971	0.1131
548.14	30140	0.229985	-2.159	0.1176
548.14	30140	0.229985	-2.1699	0.1177
548.14	30140	0.229985	-2.1666	0.1177
548.14	30140	0.342078	-3.1892	0.1233
548.14	30140	0.342078	-3.1979	0.1233
548.14	30140	0.342078	-3.1986	0.1233
548.14	30140	0.435863	-4.0364	0.1279
548.14	30140	0.435863	-4.0422	0.1279
548.14	30140	0.435863	-4.0432	0.1279
573.2	15180	0.061179	-0.8402	0.1433
573.2	15180	0.061179	-0.8393	0.1433
573.2	15180	0.061179	-0.8407	0.1433
573.2	15180	0.126572	-1.7237	0.1461
573.2	15180	0.126572	-1.7237	0.1461
573.2	15180	0.126572	-1.7273	0.1461
573.2	15180	0.229985	-3.0963	0.1505
573.2	15180	0.229985	-3.0931	0.1505
573.2	15180	0.229985	-3.0905	0.1504
573.2	15180	0.342078	-4.5516	0.1551
573.2	15180	0.342078	-4.5579	0.1551
573.2	15180	0.342078	-4.5599	0.1552
573.2	15180	0.435863	-5.7572	0.159
573.2	15180	0.435863	-5.756	0.159
573.2	15180	0.435863	-5.7634	0.1591
573.2	23570	0.061179	-0.7244	0.1439
573.2	23570	0.061179	-0.7268	0.1439
573.2	23570	0.061179	-0.7296	0.1439
573.2	23570	0.126572	-1.4947	0.1473
573.2	23570	0.126572	-1.4961	0.1473
573.2	23570	0.126572	-1.4993	0.1473
573.2	23570	0.229985	-2.6724	0.1526
573.2	23570	0.229985	-2.6669	0.1525
573.2	23570	0.229985	-2.6723	0.1526
573.2	23570	0.342078	-3.9262	0.1582
573.2	23570	0.342078	-3.9225	0.1582
573.2	23570	0.342078	-3.927	0.1582
573.2	23570	0.435863	-4.9506	0.1628
573.2	23570	0.435863	-4.9525	0.1628
573.2	23570	0.435863	-4.9513	0.1628
573.2	30260	0.061179	-0.656	0.1443
573.2	30260	0.061179	-0.6572	0.1443
573.2	30260	0.061179	-0.6577	0.1443
573.2	30260	0.126572	-1.3428	0.148
573.2	30260	0.126572	-1.3475	0.1481
573.2	30260	0.126572	-1.3516	0.1481
573.2	30260	0.229985	-2.4087	0.1539
573.2	30260	0.229985	-2.4081	0.1539
573.2	30260	0.229985	-2.4087	0.1539
573.2	30260	0.342078	-3.5381	0.1601
573.2	30260	0.342078	-3.5412	0.1601
573.2	30260	0.342078	-3.5466	0.1601
573.2	30260	0.435863	-4.4618	0.1652
573.2	30260	0.435863	-4.4621	0.1652
573.2	30260	0.435863	-4.4731	0.1652

System: water + 2-propoxyethanol; phases: Liquid
Property: Mass density, kg/m3 (Liquid); method: Vibrating tube method
Temperature, K	Pressure, kPa	Molality, mol/kg of 2-propoxyethanol	Mass density, kg/m3	uncertainty
298.2	530	0.055942	-0.1475	0.0311
298.2	530	0.055942	-0.1498	0.0311
298.2	530	0.055942	-0.1465	0.0311
298.2	530	0.055942	-0.1482	0.0311
298.2	530	0.111411	-0.28	0.0312
298.2	530	0.111411	-0.2818	0.0312
298.2	530	0.111411	-0.2825	0.0312
298.2	530	0.202801	-0.5025	0.0314
298.2	530	0.202801	-0.4805	0.0314
298.2	530	0.305848	-0.6976	0.0316
298.2	530	0.305848	-0.683	0.0316
298.2	530	0.305848	-0.6931	0.0316
298.2	530	0.305848	-0.653	0.0316
298.2	530	0.305848	-0.6512	0.0316
298.2	530	0.405558	-0.8649	0.0317
298.2	530	0.405558	-0.8365	0.0317
298.2	530	0.405558	-0.8739	0.0317
298.2	530	0.405558	-0.863	0.0317
298.19	15400	0.055942	-0.1727	0.0315
298.19	15400	0.055942	-0.1768	0.0315
298.19	15400	0.055942	-0.1799	0.0316
298.19	15400	0.111411	-0.3348	0.032
298.19	15400	0.111411	-0.3461	0.0321
298.19	15400	0.111411	-0.345	0.0321
298.19	15400	0.202801	-0.5996	0.0329
298.19	15400	0.202801	-0.6024	0.0329
298.19	15400	0.202801	-0.6087	0.0329
298.19	15400	0.305848	-0.8283	0.0336
298.19	15400	0.305848	-0.8611	0.0337
298.19	15400	0.305848	-0.8549	0.0337
298.19	15400	0.405558	-1.0627	0.0344
298.19	15400	0.405558	-1.0836	0.0344
298.19	15400	0.405558	-1.0928	0.0345
318.19	540	0.055942	-0.217	0.0312
318.19	540	0.055942	-0.2082	0.0312
318.19	540	0.055942	-0.2079	0.0312
318.19	540	0.111411	-0.3961	0.0313
318.19	540	0.111411	-0.4091	0.0313
318.19	540	0.111411	-0.4032	0.0313
318.19	540	0.202801	-0.7281	0.0316
318.19	540	0.202801	-0.7221	0.0316
318.19	540	0.202801	-0.7198	0.0316
318.19	540	0.305848	-1.0701	0.0319
318.19	540	0.305848	-1.0589	0.0319
318.19	540	0.305848	-1.0665	0.0319
318.19	540	0.405558	-1.3703	0.0322
318.19	540	0.405558	-1.383	0.0322
318.19	540	0.405558	-1.3721	0.0322
318.23	29890	0.055942	-0.2424	0.0323
318.23	29890	0.055942	-0.2374	0.0323
318.23	29890	0.055942	-0.2414	0.0323
318.23	29890	0.111411	-0.4631	0.0335
318.23	29890	0.111411	-0.4758	0.0336
318.23	29890	0.111411	-0.4758	0.0336
318.23	29890	0.202801	-0.8259	0.0355
318.23	29890	0.202801	-0.844	0.0356
318.23	29890	0.202801	-0.8326	0.0355
318.23	29890	0.305848	-1.2202	0.0376
318.23	29890	0.305848	-1.2337	0.0377
318.23	29890	0.305848	-1.2193	0.0376
318.23	29890	0.405558	-1.5793	0.0395
318.23	29890	0.405558	-1.6084	0.0397
318.23	29890	0.405558	-1.6106	0.0397
298.22	29910	0.055942	-0.2033	0.0321
298.22	29910	0.055942	-0.2049	0.0321
298.22	29910	0.055942	-0.2056	0.0321
298.22	29910	0.111411	-0.3943	0.0331
298.22	29910	0.111411	-0.3935	0.0331
298.22	29910	0.111411	-0.392	0.0331
298.22	29910	0.202801	-0.6936	0.0347
298.22	29910	0.202801	-0.6908	0.0347
298.22	29910	0.202801	-0.7115	0.0348
298.22	29910	0.305848	-1.0184	0.0365
298.22	29910	0.305848	-0.9951	0.0364
298.22	29910	0.305848	-1.014	0.0365
298.22	29910	0.405558	-1.2892	0.038
298.22	29910	0.405558	-1.2836	0.0379
298.22	29910	0.405558	-1.2894	0.038
318.23	15100	0.055942	-0.225	0.0317
318.23	15100	0.055942	-0.2216	0.0317
318.23	15100	0.055942	-0.2299	0.0317
318.23	15100	0.111411	-0.437	0.0324
318.23	15100	0.111411	-0.4429	0.0324
318.23	15100	0.111411	-0.4482	0.0324
318.23	15100	0.202801	-0.7768	0.0334
318.23	15100	0.202801	-0.784	0.0334
318.23	15100	0.202801	-0.7921	0.0335
318.23	15100	0.305848	-1.1322	0.0345
318.23	15100	0.305848	-1.1592	0.0346
318.23	15100	0.305848	-1.16	0.0346
318.23	15100	0.405558	-1.4776	0.0356
318.23	15100	0.405558	-1.5002	0.0357
318.23	15100	0.405558	-1.4984	0.0357
338.19	530	0.055942	-0.2634	0.0313
338.19	530	0.055942	-0.2711	0.0313
338.19	530	0.055942	-0.268	0.0313
338.19	530	0.111411	-0.5447	0.0315
338.19	530	0.111411	-0.5314	0.0315
338.19	530	0.111411	-0.5293	0.0315
338.19	530	0.202801	-0.9707	0.0319
338.19	530	0.202801	-0.9569	0.0319
338.19	530	0.202801	-0.9437	0.0319
338.19	530	0.305848	-1.4183	0.0323
338.19	530	0.305848	-1.4193	0.0323
338.19	530	0.305848	-1.4314	0.0323
338.19	530	0.405558	-1.8681	0.0327
338.19	530	0.405558	-1.8709	0.0327
338.19	530	0.405558	-1.857	0.0327
338.18	15090	0.055942	-0.2782	0.0321
338.18	15090	0.055942	-0.2777	0.0321
338.18	15090	0.055942	-0.2775	0.0321
338.18	15090	0.111411	-0.5456	0.0328
338.18	15090	0.111411	-0.5435	0.0328
338.18	15090	0.111411	-0.5501	0.0328
338.18	15090	0.202801	-0.9827	0.0341
338.18	15090	0.202801	-0.9798	0.0341
338.18	15090	0.202801	-0.9903	0.0341
338.18	15090	0.305848	-1.4619	0.0356
338.18	15090	0.305848	-1.4657	0.0356
338.18	15090	0.305848	-1.4708	0.0356
338.18	15090	0.405558	-1.9177	0.037
338.18	15090	0.405558	-1.912	0.037
338.18	15090	0.405558	-1.9297	0.0371
358.24	540	0.055942	-0.3364	0.032
358.24	540	0.055942	-0.3388	0.0321
358.24	540	0.055942	-0.3317	0.032
358.24	540	0.111411	-0.6498	0.0323
358.24	540	0.111411	-0.6585	0.0323
358.24	540	0.111411	-0.6494	0.0323
358.24	540	0.202801	-1.1864	0.0327
358.24	540	0.202801	-1.1935	0.0327
358.24	540	0.202801	-1.18	0.0327
358.24	540	0.305848	-1.793	0.0331
358.24	540	0.305848	-1.7832	0.0331
358.24	540	0.305848	-1.7818	0.0331
358.24	540	0.405558	-2.3569	0.0335
358.24	540	0.405558	-2.3095	0.0335
358.24	540	0.405558	-2.3745	0.0336
358.2	30350	0.058659	-0.3353	0.0358
358.2	30350	0.058659	-0.341	0.0358
358.2	30350	0.058659	-0.3344	0.0358
358.2	30350	0.109576	-0.6322	0.037
358.2	30350	0.109576	-0.6284	0.037
358.2	30350	0.109576	-0.6341	0.0371
358.2	30350	0.205423	-1.1833	0.0394
358.2	30350	0.205423	-1.1876	0.0394
358.2	30350	0.205423	-1.1902	0.0395
358.2	30350	0.317934	-1.829	0.0423
358.2	30350	0.317934	-1.8093	0.0422
358.2	30350	0.317934	-1.8209	0.0423
358.2	30350	0.393915	-2.239	0.0441
358.2	30350	0.393915	-2.2456	0.0442
358.2	30350	0.393915	-2.2577	0.0442
373.14	15170	0.058659	-0.39	0.0354
373.14	15170	0.058659	-0.3913	0.0354
373.14	15170	0.058659	-0.3905	0.0354
373.14	15170	0.109576	-0.726	0.0362
373.14	15170	0.109576	-0.7286	0.0362
373.14	15170	0.109576	-0.7284	0.0362
373.14	15170	0.205423	-1.3593	0.0377
373.14	15170	0.205423	-1.363	0.0378
373.14	15170	0.205423	-1.367	0.0378
373.14	15170	0.317934	-2.0957	0.0396
373.14	15170	0.317934	-2.0993	0.0396
373.14	15170	0.317934	-2.0948	0.0396
373.14	15170	0.393915	-2.593	0.0409
373.14	15170	0.393915	-2.5948	0.0409
373.14	15170	0.393915	-2.5962	0.0409
338.2	30100	0.055942	-0.2863	0.0338
338.2	30100	0.055942	-0.2841	0.0338
338.2	30100	0.055942	-0.2832	0.0338
338.2	30100	0.111411	-0.5672	0.0351
338.2	30100	0.111411	-0.5659	0.0351
338.2	30100	0.111411	-0.5633	0.035
338.2	30100	0.202801	-1.0092	0.037
338.2	30100	0.202801	-1.01	0.037
338.2	30100	0.202801	-1.0204	0.0371
338.2	30100	0.305848	-1.5013	0.0392
338.2	30100	0.305848	-1.513	0.0393
338.2	30100	0.305848	-1.509	0.0393
338.2	30100	0.405558	-1.9567	0.0417
338.2	30100	0.405558	-1.969	0.0418
338.2	30100	0.405558	-1.9527	0.0417
358.2	15180	0.058659	-0.3488	0.0339
358.2	15180	0.058659	-0.3429	0.0338
358.2	15180	0.058659	-0.343	0.0338
358.2	15180	0.109576	-0.6403	0.0346
358.2	15180	0.109576	-0.6387	0.0346
358.2	15180	0.109576	-0.6433	0.0346
358.2	15180	0.205423	-1.202	0.036
358.2	15180	0.205423	-1.2011	0.036
358.2	15180	0.205423	-1.1835	0.036
358.2	15180	0.317934	-1.8436	0.0377
358.2	15180	0.317934	-1.8596	0.0377
358.2	15180	0.317934	-1.8573	0.0377
358.2	15180	0.393915	-2.2815	0.0388
358.2	15180	0.393915	-2.2821	0.0388
358.2	15180	0.393915	-2.2795	0.0388
373.13	530	0.058659	-0.3954	0.0334
373.13	530	0.058659	-0.3956	0.0334
373.13	530	0.058659	-0.3951	0.0334
373.13	530	0.109576	-0.7391	0.0336
373.13	530	0.109576	-0.7401	0.0336
373.13	530	0.109576	-0.7382	0.0336
373.13	530	0.205423	-1.3855	0.0341
373.13	530	0.205423	-1.3844	0.0341
373.13	530	0.205423	-1.3841	0.0341
373.13	530	0.317934	-2.1368	0.0346
373.13	530	0.317934	-2.1358	0.0346
373.13	530	0.317934	-2.1367	0.0346
373.13	530	0.393915	-2.642	0.035
373.13	530	0.393915	-2.645	0.035
373.13	530	0.393915	-2.6454	0.035
373.17	30320	0.058659	-0.3823	0.0375
373.17	30320	0.058659	-0.383	0.0375
373.17	30320	0.058659	-0.3836	0.0375
373.17	30320	0.109576	-0.714	0.0388
373.17	30320	0.109576	-0.7152	0.0388
373.17	30320	0.109576	-0.7156	0.0388
373.17	30320	0.205423	-1.337	0.0415
373.17	30320	0.205423	-1.3372	0.0415
373.17	30320	0.205423	-1.3367	0.0415
373.17	30320	0.317934	-2.0565	0.0446
373.17	30320	0.317934	-2.0573	0.0446
373.17	30320	0.317934	-2.0614	0.0446
373.17	30320	0.393915	-2.5384	0.0467
373.17	30320	0.393915	-2.5414	0.0468
373.17	30320	0.393915	-2.5422	0.0468
398.18	2110	0.058659	-0.4801	0.0367
398.18	2110	0.058659	-0.4789	0.0367
398.18	2110	0.058659	-0.4789	0.0367
398.18	2110	0.109576	-0.893	0.0371
398.18	2110	0.109576	-0.8954	0.0371
398.18	2110	0.109576	-0.9009	0.0371
398.18	2110	0.205423	-1.6788	0.0377
398.18	2110	0.205423	-1.6808	0.0377
398.18	2110	0.205423	-1.6816	0.0377
398.18	2110	0.317934	-2.5887	0.0385
398.18	2110	0.317934	-2.5949	0.0385
398.18	2110	0.317934	-2.5969	0.0385
398.18	2110	0.393915	-3.2063	0.0391
398.18	2110	0.393915	-3.2107	0.0391
398.18	2110	0.393915	-3.2144	0.0391
398.2	30180	0.058659	-0.4477	0.0409
398.2	30180	0.058659	-0.4485	0.0409
398.2	30180	0.058659	-0.4513	0.0409
398.2	30180	0.109576	-0.8394	0.0424
398.2	30180	0.109576	-0.8362	0.0424
398.2	30180	0.109576	-0.839	0.0424
398.2	30180	0.205423	-1.5669	0.0454
398.2	30180	0.205423	-1.5672	0.0454
398.2	30180	0.205423	-1.5706	0.0454
398.2	30180	0.317934	-2.4075	0.049
398.2	30180	0.317934	-2.4107	0.049
398.2	30180	0.317934	-2.4181	0.049
398.2	30180	0.393915	-2.9783	0.0514
398.2	30180	0.393915	-2.9827	0.0515
398.2	30180	0.393915	-2.9808	0.0515
423.16	15270	0.058659	-0.5395	0.0431
423.16	15270	0.058659	-0.5404	0.0431
423.16	15270	0.058659	-0.5412	0.0431
423.16	15270	0.109576	-1.0086	0.0442
423.16	15270	0.109576	-1.01	0.0442
423.16	15270	0.109576	-1.0111	0.0442
423.16	15270	0.205423	-1.8924	0.0463
423.16	15270	0.205423	-1.8942	0.0463
423.16	15270	0.205423	-1.8924	0.0463
423.16	15270	0.317934	-2.9139	0.0487
423.16	15270	0.317934	-2.9142	0.0487
423.16	15270	0.317934	-2.9133	0.0487
423.16	15270	0.393915	-3.6047	0.0504
423.16	15270	0.393915	-3.6044	0.0504
423.16	15270	0.393915	-3.6043	0.0504
448.21	2020	0.058659	-0.6488	0.047
448.21	2020	0.058659	-0.6464	0.047
448.21	2020	0.058659	-0.6502	0.047
448.21	2020	0.109576	-1.2123	0.0475
448.21	2020	0.109576	-1.2166	0.0475
448.21	2020	0.109576	-1.2136	0.0475
448.21	2020	0.205423	-2.2774	0.0483
448.21	2020	0.205423	-2.2781	0.0483
448.21	2020	0.205423	-2.2824	0.0483
448.21	2020	0.317934	-3.5024	0.0494
448.21	2020	0.317934	-3.5087	0.0494
448.21	2020	0.317934	-3.5072	0.0494
448.21	2020	0.393915	-4.3387	0.0501
448.21	2020	0.393915	-4.3334	0.0501
448.21	2020	0.393915	-4.338	0.0501
398.22	15220	0.058659	-0.4636	0.0387
398.22	15220	0.058659	-0.4676	0.0387
398.22	15220	0.058659	-0.4671	0.0387
398.22	15220	0.109576	-0.8675	0.0396
398.22	15220	0.109576	-0.8665	0.0396
398.22	15220	0.109576	-0.8688	0.0396
398.22	15220	0.205423	-1.6247	0.0414
398.22	15220	0.205423	-1.6333	0.0414
398.22	15220	0.205423	-1.6333	0.0414
398.22	15220	0.317934	-2.5121	0.0436
398.22	15220	0.317934	-2.5144	0.0436
398.22	15220	0.317934	-2.5117	0.0436
398.22	15220	0.393915	-3.1119	0.0451
398.22	15220	0.393915	-3.1086	0.0451
398.22	15220	0.393915	-3.1016	0.0451
423.15	2080	0.058659	-0.566	0.041
423.15	2080	0.058659	-0.5637	0.041
423.15	2080	0.058659	-0.563	0.041
423.15	2080	0.109576	-1.0536	0.0414
423.15	2080	0.109576	-1.0543	0.0414
423.15	2080	0.109576	-1.0523	0.0414
423.15	2080	0.205423	-1.9787	0.0422
423.15	2080	0.205423	-1.9811	0.0422
423.15	2080	0.205423	-1.9825	0.0422
423.15	2080	0.317934	-3.0529	0.0431
423.15	2080	0.317934	-3.0511	0.0431
423.15	2080	0.317934	-3.05	0.0431
423.15	2080	0.393915	-3.7746	0.0437
423.15	2080	0.393915	-3.7761	0.0437
423.15	2080	0.393915	-3.7728	0.0437
423.13	30120	0.058659	-0.5161	0.0455
423.13	30120	0.058659	-0.5146	0.0455
423.13	30120	0.058659	-0.5155	0.0455
423.13	30120	0.109576	-0.9589	0.0472
423.13	30120	0.109576	-0.963	0.0472
423.13	30120	0.109576	-0.9617	0.0472
423.13	30120	0.205423	-1.8032	0.0506
423.13	30120	0.205423	-1.802	0.0506
423.13	30120	0.205423	-1.8074	0.0506
423.13	30120	0.317934	-2.7658	0.0546
423.13	30120	0.317934	-2.7707	0.0546
423.13	30120	0.317934	-2.777	0.0547
423.13	30120	0.393915	-3.4213	0.0574
423.13	30120	0.393915	-3.4252	0.0574
423.13	30120	0.393915	-3.4321	0.0575
448.18	15150	0.060694	-0.6356	0.0493
448.18	15150	0.060694	-0.6396	0.0493
448.18	15150	0.060694	-0.6369	0.0493
448.18	15150	0.107205	-1.1235	0.0504
448.18	15150	0.107205	-1.1244	0.0504
448.18	15150	0.107205	-1.1238	0.0504
448.18	15150	0.20247	-2.1119	0.0527
448.18	15150	0.20247	-2.1143	0.0527
448.18	15150	0.20247	-2.1134	0.0527
448.18	15150	0.311147	-3.2325	0.0553
448.18	15150	0.311147	-3.2348	0.0553
448.18	15150	0.311147	-3.2282	0.0553
448.18	15150	0.414876	-4.2817	0.0579
448.18	15150	0.414876	-4.2821	0.0579
448.18	15150	0.414876	-4.2857	0.0579
448.18	30100	0.060694	-0.594	0.0517
448.18	30100	0.060694	-0.5971	0.0517
448.18	30100	0.060694	-0.6009	0.0517
448.18	30100	0.107205	-1.0501	0.0535
448.18	30100	0.107205	-1.0572	0.0535
448.18	30100	0.107205	-1.0548	0.0535
448.18	30100	0.20247	-1.977	0.0572
448.18	30100	0.20247	-1.9798	0.0572
448.18	30100	0.20247	-1.9839	0.0572
448.18	30100	0.311147	-3.0146	0.0615
448.18	30100	0.311147	-3.0249	0.0616
448.18	30100	0.311147	-3.0302	0.0616
448.18	30100	0.414876	-3.999	0.0657
448.18	30100	0.414876	-4.0053	0.0657
448.18	30100	0.414876	-4.012	0.0658
473.64	15210	0.060694	-0.7113	0.0579
473.64	15210	0.060694	-0.7139	0.0579
473.64	15210	0.060694	-0.7122	0.0579
473.64	15210	0.107205	-1.2571	0.0592
473.64	15210	0.107205	-1.2606	0.0592
473.64	15210	0.107205	-1.2588	0.0592
473.64	15210	0.20247	-2.3653	0.0618
473.64	15210	0.20247	-2.3692	0.0618
473.64	15210	0.20247	-2.3681	0.0618
473.64	15210	0.311147	-3.615	0.0649
473.64	15210	0.311147	-3.6126	0.0648
473.64	15210	0.311147	-3.6132	0.0649
473.64	15210	0.414876	-4.7884	0.0678
473.64	15210	0.414876	-4.7897	0.0678
473.64	15210	0.414876	-4.7886	0.0678
498.59	2920	0.060694	-0.8666	0.0677
498.59	2920	0.060694	-0.864	0.0677
498.59	2920	0.060694	-0.8647	0.0677
498.59	2920	0.107205	-1.5201	0.0683
498.59	2920	0.107205	-1.5193	0.0683
498.59	2920	0.107205	-1.5302	0.0683
498.59	2920	0.20247	-2.8615	0.0696
498.59	2920	0.20247	-2.8515	0.0696
498.59	2920	0.20247	-2.8683	0.0696
498.59	2920	0.311147	-4.3827	0.0711
498.59	2920	0.311147	-4.3821	0.0711
498.59	2920	0.311147	-4.3833	0.0711
498.59	2920	0.414876	-5.8045	0.0725
498.59	2920	0.414876	-5.806	0.0725
498.59	2920	0.414876	-5.8064	0.0725
498.1	30260	0.060694	-0.7045	0.072
498.1	30260	0.060694	-0.7098	0.072
498.1	30260	0.060694	-0.7057	0.072
498.1	30260	0.107205	-1.2441	0.0742
498.1	30260	0.107205	-1.2451	0.0743
498.1	30260	0.107205	-1.2498	0.0743
498.1	30260	0.20247	-2.3294	0.0789
498.1	30260	0.20247	-2.3382	0.0789
498.1	30260	0.20247	-2.3597	0.079
498.1	30260	0.311147	-3.5941	0.0844
498.1	30260	0.311147	-3.5746	0.0843
498.1	30260	0.311147	-3.6013	0.0844
498.1	30260	0.414876	-4.7004	0.0893
498.1	30260	0.414876	-4.7528	0.0895
498.1	30260	0.414876	-4.7348	0.0894
473.64	2020	0.060694	-0.771	0.0556
473.64	2020	0.060694	-0.7713	0.0556
473.64	2020	0.060694	-0.7737	0.0556
473.64	2020	0.107205	-1.3591	0.0561
473.64	2020	0.107205	-1.3619	0.0561
473.64	2020	0.107205	-1.3595	0.0561
473.64	2020	0.20247	-2.5547	0.0571
473.64	2020	0.20247	-2.5571	0.0571
473.64	2020	0.20247	-2.5615	0.0571
473.64	2020	0.311147	-3.9018	0.0582
473.64	2020	0.311147	-3.9026	0.0582
473.64	2020	0.311147	-3.9025	0.0582
473.64	2020	0.414876	-5.1743	0.0594
473.64	2020	0.414876	-5.1763	0.0594
473.64	2020	0.414876	-5.1777	0.0594
473.64	30080	0.060694	-0.6577	0.0604
473.64	30080	0.060694	-0.662	0.0604
473.64	30080	0.060694	-0.6599	0.0604
473.64	30080	0.107205	-1.1629	0.0624
473.64	30080	0.107205	-1.1688	0.0624
473.64	30080	0.107205	-1.1684	0.0624
473.64	30080	0.20247	-2.1875	0.0666
473.64	30080	0.20247	-2.1883	0.0666
473.64	30080	0.20247	-2.1873	0.0666
473.64	30080	0.311147	-3.3417	0.0715
473.64	30080	0.311147	-3.3444	0.0715
473.64	30080	0.311147	-3.3437	0.0715
473.64	30080	0.414876	-4.4224	0.0762
473.64	30080	0.414876	-4.4298	0.0762
473.64	30080	0.414876	-4.4351	0.0762
498.09	15070	0.060694	-0.7887	0.0696
498.09	15070	0.060694	-0.7835	0.0695
498.09	15070	0.060694	-0.784	0.0695
498.09	15070	0.107205	-1.3898	0.071
498.09	15070	0.107205	-1.3926	0.071
498.09	15070	0.107205	-1.3993	0.071
498.09	15070	0.20247	-2.6184	0.074
498.09	15070	0.20247	-2.6179	0.074
498.09	15070	0.20247	-2.6068	0.074
498.09	15070	0.311147	-3.9872	0.0774
498.09	15070	0.311147	-3.9941	0.0774
498.09	15070	0.311147	-3.9906	0.0774
498.09	15070	0.414876	-5.2888	0.0807
498.09	15070	0.414876	-5.2868	0.0807
498.09	15070	0.414876	-5.2863	0.0807
523.12	5080	0.060694	-0.9657	0.0844
523.12	5080	0.060694	-0.9644	0.0844
523.12	5080	0.060694	-0.9635	0.0844
523.12	5080	0.107205	-1.7032	0.0853
523.12	5080	0.107205	-1.7051	0.0853
523.12	5080	0.107205	-1.7083	0.0853
523.12	5080	0.20247	-3.2033	0.0872
523.12	5080	0.20247	-3.2028	0.0872
523.12	5080	0.20247	-3.1934	0.0872
523.12	5080	0.311147	-4.8818	0.0894
523.12	5080	0.311147	-4.882	0.0894
523.12	5080	0.311147	-4.8823	0.0894
523.12	5080	0.414876	-6.4613	0.0915
523.12	5080	0.414876	-6.4576	0.0915
523.12	5080	0.414876	-6.4605	0.0915
523.12	15110	0.060694	-0.8747	0.0862
523.12	15110	0.060694	-0.8741	0.0862
523.12	15110	0.060694	-0.8769	0.0862
523.12	15110	0.107205	-1.5446	0.0879
523.12	15110	0.107205	-1.5449	0.0879
523.12	15110	0.107205	-1.5451	0.0879
523.12	15110	0.20247	-2.9064	0.0913
523.12	15110	0.20247	-2.9045	0.0913
523.12	15110	0.20247	-2.9053	0.0913
523.12	15110	0.311147	-4.4254	0.0952
523.12	15110	0.311147	-4.4243	0.0952
523.12	15110	0.311147	-4.4233	0.0952
523.12	15110	0.414876	-5.8538	0.099
523.12	15110	0.414876	-5.8482	0.099
523.12	15110	0.414876	-5.8506	0.099
548.15	7150	0.060694	-1.0979	0.108
548.15	7150	0.060694	-1.0983	0.108
548.15	7150	0.060694	-1.0988	0.108
548.15	7150	0.107205	-1.9275	0.1095
548.15	7150	0.107205	-1.9306	0.1095
548.15	7150	0.107205	-1.934	0.1095
548.15	7150	0.20247	-3.6242	0.1128
548.15	7150	0.20247	-3.6251	0.1128
548.15	7150	0.20247	-3.6315	0.1128
548.15	7150	0.311147	-5.5279	0.1164
548.15	7150	0.311147	-5.5289	0.1164
548.15	7150	0.311147	-5.5303	0.1164
548.15	7150	0.414876	-7.3098	0.2469
548.15	7150	0.414876	-7.3123	0.2469
548.15	7150	0.414876	-7.3147	0.2469
548.15	23060	0.075132	-1.1241	0.1113
548.15	23060	0.075132	-1.1185	0.1112
548.15	23060	0.075132	-1.1178	0.1112
548.15	23060	0.13854	-2.0593	0.1148
548.15	23060	0.13854	-2.0547	0.1148
548.15	23060	0.13854	-2.0517	0.1148
548.15	23060	0.220121	-3.2454	0.12
548.15	23060	0.220121	-3.243	0.12
548.15	23060	0.220121	-3.2406	0.12
548.15	23060	0.347629	-5.0592	0.128
548.15	23060	0.347629	-5.052	0.1279
548.15	23060	0.347629	-5.0544	0.128
548.15	23060	0.461227	-6.6351	0.1349
548.15	23060	0.461227	-6.633	0.1349
548.15	23060	0.461227	-6.6303	0.1349
573.2	10020	0.075132	-1.5722	0.1444
573.2	10020	0.075132	-1.5753	0.1444
573.2	10020	0.075132	-1.5809	0.1444
573.2	10020	0.13854	-2.8857	0.1474
573.2	10020	0.13854	-2.8915	0.1475
573.2	10020	0.13854	-2.8992	0.1475
573.2	10020	0.220121	-4.562	0.1514
573.2	10020	0.220121	-4.5661	0.1514
573.2	10020	0.220121	-4.5653	0.1514
573.2	10020	0.347629	-7.1339	0.1576
573.2	10020	0.347629	-7.1367	0.1576
573.2	10020	0.347629	-7.1401	0.1576
573.2	10020	0.461227	-9.3756	0.163
573.2	10020	0.461227	-9.3792	0.163
573.2	10020	0.461227	-9.3844	0.163
523.13	30330	0.060694	-0.7747	0.0886
523.13	30330	0.060694	-0.7722	0.0886
523.13	30330	0.060694	-0.7748	0.0886
523.13	30330	0.107205	-1.3594	0.0912
523.13	30330	0.107205	-1.3635	0.0912
523.13	30330	0.107205	-1.3568	0.0912
523.13	30330	0.20247	-2.5557	0.0965
523.13	30330	0.20247	-2.5576	0.0965
523.13	30330	0.20247	-2.5604	0.0965
523.13	30330	0.311147	-3.895	0.1026
523.13	30330	0.311147	-3.899	0.1026
523.13	30330	0.311147	-3.9049	0.1026
523.13	30330	0.414876	-5.1472	0.1084
523.13	30330	0.414876	-5.1545	0.1084
523.13	30330	0.414876	-5.1567	0.1084
548.15	15080	0.075132	-1.2291	0.1098
548.15	15080	0.075132	-1.223	0.1098
548.15	15080	0.075132	-1.2229	0.1098
548.15	15080	0.13854	-2.2504	0.1129
548.15	15080	0.13854	-2.2464	0.1129
548.15	15080	0.13854	-2.2498	0.1129
548.15	15080	0.220121	-3.5479	0.117
548.15	15080	0.220121	-3.5448	0.117
548.15	15080	0.220121	-3.5441	0.117
548.15	15080	0.347629	-5.5339	0.1233
548.15	15080	0.347629	-5.5321	0.1233
548.15	15080	0.347629	-5.5308	0.1233
548.15	15080	0.461227	-7.2676	0.1288
548.15	15080	0.461227	-7.2633	0.1288
548.15	15080	0.461227	-7.2633	0.1288
548.15	30200	0.075132	-1.0497	0.1125
548.15	30200	0.075132	-1.0398	0.1124
548.15	30200	0.075132	-1.0398	0.1124
548.15	30200	0.13854	-1.9165	0.1164
548.15	30200	0.13854	-1.9165	0.1164
548.15	30200	0.13854	-1.9102	0.1164
548.15	30200	0.220121	-3.0219	0.1224
548.15	30200	0.220121	-3.0214	0.1224
548.15	30200	0.220121	-3.0206	0.1224
548.15	30200	0.347629	-4.7088	0.1316
548.15	30200	0.347629	-4.7089	0.1316
548.15	30200	0.347629	-4.7103	0.1316
548.15	30200	0.461227	-6.1779	0.1397
548.15	30200	0.461227	-6.1802	0.1397
548.15	30200	0.461227	-6.1774	0.1397
573.19	15160	0.075132	-1.437	0.1452
573.19	15160	0.075132	-1.431	0.1452
573.19	15160	0.075132	-1.4308	0.1452
573.19	15160	0.13854	-2.6137	0.1489
573.19	15160	0.13854	-2.6135	0.1489
573.19	15160	0.13854	-2.6156	0.1489
573.19	15160	0.220121	-4.1167	0.1537
573.19	15160	0.220121	-4.1169	0.1537
573.19	15160	0.220121	-4.1146	0.1537
573.19	15160	0.347629	-6.4176	0.161
573.19	15160	0.347629	-6.4166	0.161
573.19	15160	0.347629	-6.4175	0.161
573.19	15160	0.461227	-8.4226	0.1675
573.19	15160	0.461227	-8.4201	0.1675
573.19	15160	0.461227	-8.4201	0.1675
573.19	23250	0.075132	-1.257	0.1462
573.19	23250	0.075132	-1.252	0.1462
573.19	23250	0.075132	-1.251	0.1462
573.19	23250	0.13854	-2.2882	0.1507
573.19	23250	0.13854	-2.2897	0.1507
573.19	23250	0.13854	-2.2854	0.1507
573.19	23250	0.220121	-3.6008	0.1565
573.19	23250	0.220121	-3.6014	0.1565
573.19	23250	0.220121	-3.6029	0.1565
573.19	23250	0.347629	-5.6055	0.1654
573.19	23250	0.347629	-5.6081	0.1654
573.19	23250	0.347629	-5.6089	0.1654
573.19	23250	0.461227	-7.3462	0.1731
573.19	23250	0.461227	-7.3528	0.1731
573.19	23250	0.461227	-7.353	0.1731
573.21	30290	0.075132	-1.1488	0.147
573.21	30290	0.075132	-1.1418	0.147
573.21	30290	0.075132	-1.1394	0.1469
573.21	30290	0.13854	-2.0888	0.1521
573.21	30290	0.13854	-2.0867	0.1521
573.21	30290	0.13854	-2.092	0.1522
573.21	30290	0.220121	-3.2856	0.1587
573.21	30290	0.220121	-3.2864	0.1587
573.21	30290	0.220121	-3.287	0.1587
573.21	30290	0.347629	-5.1085	0.1687
573.21	30290	0.347629	-5.111	0.1687
573.21	30290	0.347629	-5.1134	0.1687
573.21	30290	0.461227	-6.6867	0.1774
573.21	30290	0.461227	-6.6947	0.1774
573.21	30290	0.461227	-6.6952	0.1774

System: water + 2-butoxyethan-1-ol; phases: Liquid
Property: Mass density, kg/m3 (Liquid); method: Vibrating tube method
Temperature, K	Pressure, kPa	Molality, mol/kg of 2-butoxyethan-1-ol	Mass density, kg/m3	uncertainty
298.2	530	0.053585	-0.2345	0.0312
298.2	530	0.053585	-0.2304	0.0312
298.2	530	0.105052	-0.4509	0.0314
298.2	530	0.105052	-0.4553	0.0314
298.2	530	0.204516	-0.8414	0.0317
298.2	530	0.204516	-0.8347	0.0317
298.2	530	0.296274	-1.1614	0.032
298.2	530	0.296274	-1.1392	0.032
298.2	530	0.296274	-1.1368	0.032
298.2	530	0.408189	-1.5109	0.0323
298.2	530	0.408189	-1.492	0.0323
298.2	530	0.408189	-1.5096	0.0323
298.2	530	0.408189	-1.5284	0.0323
298.22	29910	0.053585	-0.2996	0.0326
298.22	29910	0.053585	-0.2966	0.0326
298.22	29910	0.053585	-0.3004	0.0326
298.22	29910	0.105052	-0.5932	0.0342
298.22	29910	0.105052	-0.5682	0.0341
298.22	29910	0.105052	-0.5721	0.0341
298.22	29910	0.204516	-1.1034	0.037
298.22	29910	0.204516	-1.0881	0.0369
298.22	29910	0.204516	-1.0947	0.0369
298.22	29910	0.296274	-1.5335	0.0393
298.22	29910	0.296274	-1.5377	0.0393
298.22	29910	0.296274	-1.529	0.0393
298.22	29910	0.408189	-2.0183	0.0419
298.22	29910	0.408189	-2.0137	0.0419
298.22	29910	0.408189	-2.0232	0.042
318.19	540	0.053585	-0.3131	0.0313
318.19	540	0.053585	-0.3092	0.0313
318.19	540	0.053585	-0.3101	0.0313
318.19	540	0.105052	-0.6062	0.0315
318.19	540	0.105052	-0.6138	0.0315
318.19	540	0.105052	-0.6089	0.0315
318.19	540	0.204516	-1.1519	0.032
318.19	540	0.204516	-1.152	0.032
318.19	540	0.204516	-1.155	0.032
318.19	540	0.296274	-1.6455	0.0324
318.19	540	0.296274	-1.651	0.0324
318.19	540	0.296274	-1.6587	0.0324
318.19	540	0.408189	-2.2405	0.033
318.19	540	0.408189	-2.2343	0.033
318.19	540	0.408189	-2.2435	0.033
318.23	15100	0.053585	-0.3272	0.032
318.23	15100	0.053585	-0.3358	0.032
318.23	15100	0.053585	-0.3341	0.032
318.23	15100	0.105052	-0.6369	0.033
318.23	15100	0.105052	-0.6417	0.033
318.23	15100	0.105052	-0.6373	0.033
318.23	15100	0.204516	-1.2161	0.0348
318.23	15100	0.204516	-1.2393	0.0349
318.23	15100	0.204516	-1.2487	0.0349
318.23	15100	0.296274	-1.7461	0.0364
318.23	15100	0.296274	-1.7519	0.0365
318.23	15100	0.296274	-1.7529	0.0365
318.23	15100	0.408189	-2.3633	0.0384
318.23	15100	0.408189	-2.3759	0.0384
318.23	15100	0.408189	-2.381	0.0384
298.19	15410	0.053585	-0.2685	0.0318
298.19	15410	0.053585	-0.269	0.0318
298.19	15410	0.105052	-0.5134	0.0326
298.19	15410	0.105052	-0.5192	0.0326
298.19	15410	0.105052	-0.5222	0.0326
298.19	15410	0.204516	-0.9728	0.0341
298.19	15410	0.204516	-0.9635	0.034
298.19	15410	0.204516	-0.9799	0.0341
298.19	15410	0.296274	-1.3464	0.0353
298.19	15410	0.296274	-1.3509	0.0353
298.19	15410	0.296274	-1.3404	0.0352
298.19	15410	0.408189	-1.7616	0.0366
298.19	15410	0.408189	-1.7922	0.0367
298.19	15410	0.408189	-1.792	0.0367
318.22	29890	0.053585	-0.347	0.0329
318.22	29890	0.053585	-0.3452	0.0329
318.22	29890	0.053585	-0.3466	0.0329
318.22	29890	0.105052	-0.6789	0.0347
318.22	29890	0.105052	-0.6615	0.0346
318.22	29890	0.105052	-0.6737	0.0346
318.22	29890	0.204516	-1.2999	0.038
318.22	29890	0.204516	-1.2612	0.0378
318.22	29890	0.204516	-1.31	0.0381
318.22	29890	0.296274	-1.8199	0.0408
318.22	29890	0.296274	-1.8323	0.0409
318.22	29890	0.296274	-1.8251	0.0409
318.22	29890	0.408189	-2.4999	0.0445
318.22	29890	0.408189	-2.4641	0.0443
318.22	29890	0.408189	-2.4621	0.0443
338.18	15090	0.053585	-0.3945	0.0324
338.18	15090	0.053585	-0.3962	0.0324
338.18	15090	0.053585	-0.3947	0.0324
338.18	15090	0.105052	-0.7666	0.0334
338.18	15090	0.105052	-0.7736	0.0334
338.18	15090	0.105052	-0.7702	0.0334
338.18	15090	0.204516	-1.4921	0.0357
338.18	15090	0.204516	-1.4955	0.0357
338.18	15090	0.204516	-1.4997	0.0357
338.18	15090	0.296274	-2.1423	0.0377
338.18	15090	0.296274	-2.1469	0.0377
338.18	15090	0.296274	-2.1513	0.0378
338.18	15090	0.408189	-2.9485	0.0402
338.18	15090	0.408189	-2.9463	0.0402
338.18	15090	0.408189	-2.9444	0.0402
358.24	540	0.053585	-0.4719	0.0321
358.24	540	0.053585	-0.4702	0.0321
358.24	540	0.053585	-0.4693	0.0321
358.24	540	0.105052	-0.9077	0.0325
358.24	540	0.105052	-0.9289	0.0325
358.24	540	0.105052	-0.9155	0.0325
358.24	540	0.204516	-1.7675	0.0331
358.24	540	0.204516	-1.7789	0.0331
358.24	540	0.204516	-1.775	0.0331
358.24	540	0.296274	-2.5571	0.0337
358.24	540	0.296274	-2.5859	0.0337
358.24	540	0.296274	-2.581	0.0337
358.24	540	0.408189	-3.5452	0.0344
358.24	540	0.408189	-3.5284	0.0344
358.24	540	0.408189	-3.5341	0.0344
358.2	30360	0.055004	-0.4658	0.0363
358.2	30360	0.055004	-0.4612	0.0363
358.2	30360	0.055004	-0.4593	0.0363
358.2	30360	0.100733	-0.848	0.038
358.2	30360	0.100733	-0.8514	0.038
358.2	30360	0.100733	-0.8508	0.038
358.2	30360	0.209162	-1.7652	0.042
358.2	30360	0.209162	-1.7558	0.042
358.2	30360	0.209162	-1.7611	0.042
358.2	30360	0.302791	-2.5605	0.0456
358.2	30360	0.302791	-2.5786	0.0457
358.2	30360	0.302791	-2.5911	0.0457
358.2	30360	0.415355	-3.4929	0.0504
358.2	30360	0.415355	-3.4934	0.0504
358.2	30360	0.415355	-3.5104	0.0505
338.19	530	0.053585	-0.3966	0.0314
338.19	530	0.053585	-0.3827	0.0314
338.19	530	0.053585	-0.3856	0.0314
338.19	530	0.105052	-0.7598	0.0317
338.19	530	0.105052	-0.7517	0.0317
338.19	530	0.105052	-0.7606	0.0317
338.19	530	0.204516	-1.457	0.0323
338.19	530	0.204516	-1.464	0.0323
338.19	530	0.204516	-1.4637	0.0323
338.19	530	0.296274	-2.114	0.0329
338.19	530	0.296274	-2.1172	0.0329
338.19	530	0.296274	-2.1175	0.0329
338.19	530	0.408189	-2.9044	0.0336
338.19	530	0.408189	-2.9061	0.0336
338.19	530	0.408189	-2.8964	0.0336
338.2	30100	0.053585	-0.4056	0.0344
338.2	30100	0.053585	-0.4018	0.0343
338.2	30100	0.053585	-0.404	0.0343
338.2	30100	0.105052	-0.7831	0.036
338.2	30100	0.105052	-0.7945	0.0361
338.2	30100	0.105052	-0.7873	0.036
338.2	30100	0.204516	-1.5097	0.0393
338.2	30100	0.204516	-1.508	0.0393
338.2	30100	0.204516	-1.5167	0.0393
338.2	30100	0.296274	-2.1645	0.0428
338.2	30100	0.296274	-2.1785	0.0429
338.2	30100	0.296274	-2.1693	0.0428
338.2	30100	0.408189	-2.9641	0.0472
338.2	30100	0.408189	-2.9488	0.0471
338.2	30100	0.408189	-2.9621	0.0472
358.21	15180	0.055004	-0.4735	0.0342
358.21	15180	0.055004	-0.4678	0.0342
358.21	15180	0.055004	-0.4804	0.0342
358.21	15180	0.100733	-0.8738	0.0352
358.21	15180	0.100733	-0.8711	0.0352
358.21	15180	0.100733	-0.8676	0.0352
358.21	15180	0.209162	-1.8023	0.0375
358.21	15180	0.209162	-1.7905	0.0375
358.21	15180	0.209162	-1.7858	0.0375
358.21	15180	0.302791	-2.6274	0.0397
358.21	15180	0.302791	-2.6297	0.0397
358.21	15180	0.302791	-2.631	0.0397
358.21	15180	0.415355	-3.5631	0.0424
358.21	15180	0.415355	-3.5683	0.0425
358.21	15180	0.415355	-3.5677	0.0425
373.13	530	0.055004	-0.5341	0.0335
373.13	530	0.055004	-0.5341	0.0335
373.13	530	0.055004	-0.5335	0.0335
373.13	530	0.100733	-0.9788	0.0338
373.13	530	0.100733	-0.9802	0.0338
373.13	530	0.100733	-0.9777	0.0338
373.13	530	0.209162	-2.0331	0.0345
373.13	530	0.209162	-2.0337	0.0345
373.13	530	0.209162	-2.0371	0.0345
373.13	530	0.306991	-2.9927	0.0352
373.13	530	0.306991	-2.997	0.0352
373.13	530	0.306991	-2.9971	0.0352
373.13	530	0.415355	-4.0572	0.036
373.13	530	0.415355	-4.0596	0.036
373.13	530	0.415355	-4.0625	0.036
373.14	15180	0.055004	-0.5245	0.0357
373.14	15180	0.055004	-0.5283	0.0357
373.14	15180	0.055004	-0.5266	0.0357
373.14	15180	0.100733	-0.9633	0.0368
373.14	15180	0.100733	-0.9636	0.0368
373.14	15180	0.100733	-0.9646	0.0368
373.14	15180	0.209162	-1.9986	0.0393
373.14	15180	0.209162	-2.0049	0.0394
373.14	15180	0.209162	-2.0061	0.0394
373.14	15180	0.306991	-2.938	0.0417
373.14	15180	0.306991	-2.9378	0.0417
373.14	15180	0.306991	-2.9429	0.0417
373.14	15180	0.415355	-3.9715	0.0444
373.14	15180	0.415355	-3.9752	0.0444
373.14	15180	0.415355	-3.9719	0.0444
398.19	2110	0.055004	-0.6302	0.0368
398.19	2110	0.055004	-0.6315	0.0369
398.19	2110	0.055004	-0.6324	0.0369
398.19	2110	0.100733	-1.1567	0.0373
398.19	2110	0.100733	-1.1616	0.0373
398.19	2110	0.100733	-1.1614	0.0373
398.19	2110	0.209162	-2.4031	0.0384
398.19	2110	0.209162	-2.4081	0.0384
398.19	2110	0.209162	-2.4127	0.0384
398.19	2110	0.306991	-3.5317	0.0394
398.19	2110	0.306991	-3.5384	0.0394
398.19	2110	0.306991	-3.5411	0.0394
398.19	2110	0.415355	-4.7767	0.0405
398.19	2110	0.415355	-4.7823	0.0405
398.19	2110	0.415355	-4.7871	0.0405
398.2	30230	0.055004	-0.5952	0.0415
398.2	30230	0.055004	-0.5969	0.0415
398.2	30230	0.055004	-0.5968	0.0415
398.2	30230	0.100733	-1.0891	0.0435
398.2	30230	0.100733	-1.0899	0.0435
398.2	30230	0.100733	-1.0944	0.0435
398.2	30230	0.209162	-2.2585	0.0484
398.2	30230	0.209162	-2.2609	0.0484
398.2	30230	0.209162	-2.2651	0.0484
398.2	30230	0.306991	-3.3051	0.0529
398.2	30230	0.306991	-3.3064	0.0529
398.2	30230	0.306991	-3.317	0.053
398.2	30230	0.415355	-4.4533	0.058
398.2	30230	0.415355	-4.4583	0.0581
398.2	30230	0.415355	-4.4633	0.0581
423.16	15280	0.055004	-0.701	0.0435
423.16	15280	0.055004	-0.7059	0.0435
423.16	15280	0.055004	-0.7055	0.0435
423.16	15280	0.100733	-1.2878	0.0449
423.16	15280	0.100733	-1.2883	0.0449
423.16	15280	0.100733	-1.2936	0.0449
423.16	15280	0.209162	-2.6631	0.0481
423.16	15280	0.209162	-2.6632	0.0481
423.16	15280	0.209162	-2.6668	0.0481
423.16	15280	0.306991	-3.8972	0.0511
423.16	15280	0.306991	-3.8967	0.0511
423.16	15280	0.306991	-3.8965	0.0511
423.16	15280	0.415355	-5.2444	0.0545
423.16	15280	0.415355	-5.2435	0.0545
423.16	15280	0.415355	-5.244	0.0545
373.17	30320	0.055004	-0.5174	0.038
373.17	30320	0.055004	-0.5166	0.038
373.17	30320	0.055004	-0.5177	0.038
373.17	30320	0.100733	-0.945	0.0398
373.17	30320	0.100733	-0.9461	0.0398
373.17	30320	0.100733	-0.9499	0.0398
373.17	30320	0.209162	-1.9632	0.0442
373.17	30320	0.209162	-1.966	0.0442
373.17	30320	0.209162	-1.9672	0.0442
373.17	30320	0.306991	-2.8741	0.0482
373.17	30320	0.306991	-2.8796	0.0483
373.17	30320	0.306991	-2.8833	0.0483
373.17	30320	0.415355	-3.8779	0.0529
373.17	30320	0.415355	-3.8849	0.0529
373.17	30320	0.415355	-3.8866	0.0529
398.22	15230	0.055004	-0.6154	0.039
398.22	15230	0.055004	-0.6176	0.039
398.22	15230	0.055004	-0.6186	0.039
398.22	15230	0.100733	-1.129	0.0402
398.22	15230	0.100733	-1.1306	0.0402
398.22	15230	0.100733	-1.1301	0.0402
398.22	15230	0.209162	-2.341	0.0432
398.22	15230	0.209162	-2.345	0.0432
398.22	15230	0.209162	-2.3453	0.0432
398.22	15230	0.306991	-3.4349	0.0459
398.22	15230	0.306991	-3.4372	0.0459
398.22	15230	0.306991	-3.4391	0.0459
398.22	15230	0.415355	-4.6383	0.0489
398.22	15230	0.415355	-4.6363	0.0489
398.22	15230	0.415355	-4.6431	0.0489
423.15	2080	0.055004	-0.7318	0.0411
423.15	2080	0.055004	-0.7305	0.0411
423.15	2080	0.055004	-0.7302	0.0411
423.15	2080	0.100733	-1.3405	0.0416
423.15	2080	0.100733	-1.3388	0.0416
423.15	2080	0.100733	-1.3376	0.0416
423.15	2080	0.209162	-2.7779	0.0428
423.15	2080	0.209162	-2.7726	0.0428
423.15	2080	0.209162	-2.7794	0.0428
423.15	2080	0.306991	-4.0641	0.0439
423.15	2080	0.306991	-4.0639	0.0439
423.15	2080	0.306991	-4.0686	0.0439
423.15	2080	0.415355	-5.475	0.0452
423.15	2080	0.415355	-5.4765	0.0452
423.15	2080	0.415355	-5.4809	0.0452
423.14	30130	0.055004	-0.6739	0.0461
423.14	30130	0.055004	-0.6735	0.0461
423.14	30130	0.055004	-0.6772	0.0461
423.14	30130	0.100733	-1.2327	0.0483
423.14	30130	0.100733	-1.2333	0.0483
423.14	30130	0.100733	-1.2362	0.0483
423.14	30130	0.209162	-2.5428	0.0537
423.14	30130	0.209162	-2.5452	0.0537
423.14	30130	0.209162	-2.5532	0.0537
423.14	30130	0.306991	-3.7188	0.0587
423.14	30130	0.306991	-3.7245	0.0587
423.14	30130	0.306991	-3.728	0.0587
423.14	30130	0.415355	-4.9968	0.0643
423.14	30130	0.415355	-5.0033	0.0643
423.14	30130	0.415355	-5.0074	0.0644
448.21	2020	0.055004	-0.826	0.0471
448.21	2020	0.055004	-0.8256	0.0471
448.21	2020	0.055004	-0.8259	0.0471
448.21	2020	0.100733	-1.5076	0.0477
448.21	2020	0.100733	-1.5148	0.0477
448.21	2020	0.100733	-1.5152	0.0477
448.21	2020	0.209162	-3.1235	0.049
448.21	2020	0.209162	-3.1268	0.049
448.21	2020	0.209162	-3.1292	0.049
448.21	2020	0.306991	-4.5737	0.0503
448.21	2020	0.306991	-4.5783	0.0503
448.21	2020	0.306991	-4.5779	0.0503
448.21	2020	0.415355	-6.1473	0.0516
448.21	2020	0.415355	-6.1461	0.0516
448.21	2020	0.415355	-6.1543	0.0516
448.18	30100	0.056406	-0.7603	0.0523
448.18	30100	0.056406	-0.763	0.0524
448.18	30100	0.056406	-0.7624	0.0523
448.18	30100	0.11312	-1.5136	0.0553
448.18	30100	0.11312	-1.5162	0.0553
448.18	30100	0.11312	-1.518	0.0553
448.18	30100	0.20417	-2.7178	0.0603
448.18	30100	0.20417	-2.7232	0.0603
448.18	30100	0.20417	-2.7304	0.0603
448.18	30100	0.303811	-4.0209	0.0658
448.18	30100	0.303811	-4.0277	0.0658
448.18	30100	0.303811	-4.0384	0.0659
448.18	30100	0.416069	-5.4673	0.0721
448.18	30100	0.416069	-5.4702	0.0722
448.18	30100	0.416069	-5.4837	0.0722
473.64	15210	0.056406	-0.8878	0.0583
473.64	15210	0.056406	-0.8855	0.0583
473.64	15210	0.056406	-0.8883	0.0583
473.64	15210	0.11312	-1.7746	0.0604
473.64	15210	0.11312	-1.7755	0.0604
473.64	15210	0.11312	-1.7733	0.0604
473.64	15210	0.20417	-3.182	0.0638
473.64	15210	0.20417	-3.1844	0.0638
473.64	15210	0.20417	-3.1814	0.0638
473.64	15210	0.303811	-4.7019	0.0675
473.64	15210	0.303811	-4.6984	0.0675
473.64	15210	0.303811	-4.6984	0.0675
473.64	15210	0.416069	-6.3753	0.0717
473.64	15210	0.416069	-6.379	0.0718
473.64	15210	0.416069	-6.379	0.0718
498.58	2920	0.056406	-1.0567	0.0678
498.58	2920	0.056406	-1.0474	0.0678
498.58	2920	0.056406	-1.0501	0.0678
498.58	2920	0.11312	-2.0993	0.0688
498.58	2920	0.11312	-2.1026	0.0688
498.58	2920	0.11312	-2.1044	0.0688
498.58	2920	0.20417	-3.7536	0.0705
498.58	2920	0.20417	-3.7642	0.0705
498.58	2920	0.20417	-3.7674	0.0705
498.58	2920	0.303811	-5.5659	0.0723
498.58	2920	0.303811	-5.5704	0.0723
498.58	2920	0.303811	-5.564	0.0723
498.58	2920	0.416069	-7.5505	0.0743
498.58	2920	0.416069	-7.5418	0.0743
498.58	2920	0.416069	-7.5456	0.0743
448.18	15150	0.056406	-0.8004	0.0496
448.18	15150	0.056406	-0.8013	0.0496
448.18	15150	0.056406	-0.8025	0.0496
448.18	15150	0.11312	-1.6082	0.0515
448.18	15150	0.11312	-1.6103	0.0515
448.18	15150	0.11312	-1.6072	0.0515
448.18	15150	0.20417	-2.8828	0.0545
448.18	15150	0.20417	-2.8834	0.0545
448.18	15150	0.20417	-2.8926	0.0545
448.18	15150	0.303811	-4.2697	0.0578
448.18	15150	0.303811	-4.2721	0.0578
448.18	15150	0.303811	-4.2752	0.0579
448.18	15150	0.416069	-5.8151	0.0617
448.18	15150	0.416069	-5.815	0.0617
448.18	15150	0.416069	-5.8148	0.0617
473.64	2020	0.056406	-0.9493	0.0557
473.64	2020	0.056406	-0.9509	0.0557
473.64	2020	0.056406	-0.9485	0.0557
473.64	2020	0.11312	-1.9009	0.0565
473.64	2020	0.11312	-1.9012	0.0565
473.64	2020	0.11312	-1.8995	0.0565
473.64	2020	0.20417	-3.4115	0.0578
473.64	2020	0.20417	-3.4144	0.0578
473.64	2020	0.20417	-3.4133	0.0578
473.64	2020	0.303811	-5.0427	0.0592
473.64	2020	0.303811	-5.0459	0.0592
473.64	2020	0.303811	-5.046	0.0592
473.64	2020	0.416069	-6.8541	0.0608
473.64	2020	0.416069	-6.8523	0.0608
473.64	2020	0.416069	-6.8509	0.0608
473.64	30080	0.056406	-0.828	0.0611
473.64	30080	0.056406	-0.8258	0.061
473.64	30080	0.056406	-0.8291	0.0611
473.64	30080	0.11312	-1.6607	0.0644
473.64	30080	0.11312	-1.655	0.0644
473.64	30080	0.11312	-1.6536	0.0644
473.64	30080	0.20417	-2.9548	0.0698
473.64	30080	0.20417	-2.9611	0.0698
473.64	30080	0.20417	-2.9669	0.0699
473.64	30080	0.303811	-4.3712	0.0759
473.64	30080	0.303811	-4.3841	0.076
473.64	30080	0.303811	-4.3873	0.076
473.64	30080	0.416069	-5.9396	0.0829
473.64	30080	0.416069	-5.9372	0.0828
473.64	30080	0.416069	-5.9418	0.0829
498.09	15080	0.056406	-0.9623	0.07
498.09	15080	0.056406	-0.9658	0.07
498.09	15080	0.056406	-0.9677	0.07
498.09	15080	0.11312	-1.9339	0.0723
498.09	15080	0.11312	-1.9285	0.0723
498.09	15080	0.11312	-1.9339	0.0723
498.09	15080	0.20417	-3.4631	0.0761
498.09	15080	0.20417	-3.4671	0.0761
498.09	15080	0.20417	-3.4653	0.0761
498.09	15080	0.303811	-5.1061	0.0802
498.09	15080	0.303811	-5.1048	0.0802
498.09	15080	0.303811	-5.1126	0.0802
498.09	15080	0.416069	-6.9184	0.0849
498.09	15080	0.416069	-6.9147	0.0848
498.09	15080	0.416069	-6.9233	0.0849
498.1	30270	0.056406	-0.8681	0.0727
498.1	30270	0.056406	-0.8713	0.0727
498.1	30270	0.056406	-0.8777	0.0727
498.1	30270	0.11312	-1.7394	0.0763
498.1	30270	0.11312	-1.7495	0.0764
498.1	30270	0.11312	-1.7595	0.0764
498.1	30270	0.20417	-3.1245	0.0823
498.1	30270	0.20417	-3.148	0.0824
498.1	30270	0.20417	-3.1465	0.0824
498.1	30270	0.303811	-4.5532	0.0886
498.1	30270	0.303811	-4.6063	0.0889
498.1	30270	0.303811	-4.6182	0.0889
498.1	30270	0.416069	-6.1962	0.096
498.1	30270	0.416069	-6.2615	0.0963
498.1	30270	0.416069	-6.2781	0.0964
523.12	15120	0.056406	-1.0599	0.0866
523.12	15120	0.056406	-1.0586	0.0866
523.12	15120	0.056406	-1.0611	0.0866
523.12	15120	0.11312	-2.1112	0.0893
523.12	15120	0.11312	-2.1111	0.0893
523.12	15120	0.11312	-2.1139	0.0893
523.12	15120	0.20417	-3.7778	0.0935
523.12	15120	0.20417	-3.7782	0.0935
523.12	15120	0.20417	-3.7782	0.0935
523.12	15120	0.303811	-5.5608	0.0982
523.12	15120	0.303811	-5.5612	0.0982
523.12	15120	0.303811	-5.5637	0.0982
523.12	15120	0.416069	-7.5304	0.1038
523.12	15120	0.416069	-7.5299	0.1038
523.12	15120	0.416069	-7.5306	0.1038
523.12	5080	0.056406	-1.1539	0.0846
523.12	5080	0.056406	-1.1552	0.0846
523.12	5080	0.056406	-1.1554	0.0846
523.12	5080	0.11312	-2.3106	0.0861
523.12	5080	0.11312	-2.3118	0.0861
523.12	5080	0.11312	-2.3074	0.0861
523.12	5080	0.20417	-4.1361	0.0885
523.12	5080	0.20417	-4.1424	0.0885
523.12	5080	0.20417	-4.1425	0.0885
523.12	5080	0.303811	-6.0964	0.091
523.12	5080	0.303811	-6.0986	0.091
523.12	5080	0.303811	-6.1008	0.091
523.12	5080	0.416069	-8.2608	0.0939
523.12	5080	0.416069	-8.2655	0.0939
523.12	5080	0.416069	-8.2652	0.0939
523.13	30340	0.056406	-0.9442	0.0894
523.13	30340	0.056406	-0.9438	0.0894
523.13	30340	0.056406	-0.9436	0.0894
523.13	30340	0.11312	-1.8798	0.0935
523.13	30340	0.11312	-1.8824	0.0935
523.13	30340	0.11312	-1.8794	0.0935
523.13	30340	0.20417	-3.3643	0.1001
523.13	30340	0.20417	-3.3675	0.1001
523.13	30340	0.20417	-3.3682	0.1001
523.13	30340	0.303811	-4.9511	0.1073
523.13	30340	0.303811	-4.9588	0.1074
523.13	30340	0.303811	-4.9576	0.1074
523.13	30340	0.416069	-6.6997	0.1169
523.13	30340	0.416069	-6.7065	0.1169
523.13	30340	0.416069	-6.7025	0.1169

System: water + 2-butoxyethan-1-ol; phases: Liquid
Property: Mass density, kg/m3 (Liquid); method: Vibrating tube method
Temperature, K	Pressure, kPa	Molality, mol/kg of 2-butoxyethan-1-ol	Mass density, kg/m3	uncertainty
548.15	15080	0.057087	-1.1878	0.1097
548.15	15080	0.057087	-1.1875	0.1097
548.15	15080	0.057087	-1.1857	0.1097
548.15	15080	0.111733	-2.3103	0.1131
548.15	15080	0.111733	-2.3104	0.1131
548.15	15080	0.111733	-2.3098	0.1131
548.15	15080	0.208038	-4.2584	0.1192
548.15	15080	0.208038	-4.2551	0.1192
548.15	15080	0.208038	-4.2546	0.1192
548.15	15080	0.301588	-6.0999	0.1251
548.15	15080	0.301588	-6.1017	0.1251
548.15	15080	0.301588	-6.1009	0.1251
548.15	15080	0.403072	-8.0595	0.1313
548.15	15080	0.403072	-8.0563	0.1313
548.15	15080	0.403072	-8.0568	0.1313
548.14	30200	0.057087	-1.0226	0.2435
548.14	30200	0.057087	-1.0209	0.2435
548.14	30200	0.057087	-1.0229	0.2435
548.14	30200	0.111733	-1.9912	0.2455
548.14	30200	0.111733	-1.9936	0.2455
548.14	30200	0.111733	-1.9921	0.2455
548.14	30200	0.208038	-3.6686	0.25
548.14	30200	0.208038	-3.668	0.25
548.14	30200	0.208038	-3.6643	0.25
548.14	30200	0.301588	-5.2525	0.2545
548.14	30200	0.301588	-5.2527	0.2545
548.14	30200	0.301588	-5.2507	0.2545
548.14	30200	0.403072	-6.9268	0.2594
548.14	30200	0.403072	-6.9282	0.2594
548.14	30200	0.403072	-6.9261	0.2594
573.2	10020	0.057087	-1.4897	0.1442
573.2	10020	0.057087	-1.493	0.1442
573.2	10020	0.057087	-1.4985	0.1442
573.2	10020	0.111733	-2.9038	0.1475
573.2	10020	0.111733	-2.9093	0.1475
573.2	10020	0.111733	-2.9139	0.1475
573.2	10020	0.208038	-5.3496	0.1533
573.2	10020	0.208038	-5.3552	0.1533
573.2	10020	0.208038	-5.3577	0.1533
573.2	10020	0.301588	-7.6803	0.1588
573.2	10020	0.301588	-7.6845	0.1588
573.2	10020	0.301588	-7.687	0.1588
573.2	10020	0.403072	-10.1513	0.1648
573.2	10020	0.403072	-10.1539	0.1648
573.2	10020	0.403072	-10.1588	0.1648
573.19	15160	0.057087	-1.3635	0.1449
573.19	15160	0.057087	-1.3651	0.145
573.19	15160	0.057087	-1.3664	0.145
573.19	15160	0.111733	-2.6428	0.149
573.19	15160	0.111733	-2.6434	0.149
573.19	15160	0.111733	-2.6452	0.149
573.19	15160	0.208038	-4.8467	0.156
573.19	15160	0.208038	-4.8463	0.156
573.19	15160	0.208038	-4.8481	0.156
573.19	15160	0.301588	-6.9408	0.1627
573.19	15160	0.301588	-6.941	0.1627
573.19	15160	0.301588	-6.9444	0.1627
573.19	15160	0.403072	-9.1591	0.1698
573.19	15160	0.403072	-9.161	0.1698
573.19	15160	0.403072	-9.1603	0.1698
573.19	23250	0.057087	-1.2059	0.146
573.19	23250	0.057087	-1.2026	0.1459
573.19	23250	0.057087	-1.2074	0.146
573.19	23250	0.111733	-2.3321	0.1509
573.19	23250	0.111733	-2.3343	0.1509
573.19	23250	0.111733	-2.3364	0.1509
573.19	23250	0.208038	-4.2726	0.1594
573.19	23250	0.208038	-4.2712	0.1594
573.19	23250	0.208038	-4.2753	0.1595
573.19	23250	0.301588	-6.1094	0.1676
573.19	23250	0.301588	-6.1139	0.1676
573.19	23250	0.301588	-6.1177	0.1676
573.19	23250	0.403072	-8.0575	0.1762
573.19	23250	0.403072	-8.056	0.1762
573.19	23250	0.403072	-8.0589	0.1762
573.2	30290	0.057087	-1.1035	0.1467
573.2	30290	0.057087	-1.1035	0.1467
573.2	30290	0.057087	-1.1074	0.1468
573.2	30290	0.111733	-2.1368	0.1524
573.2	30290	0.111733	-2.1418	0.1524
573.2	30290	0.111733	-2.1437	0.1524
573.2	30290	0.208038	-3.9139	0.1622
573.2	30290	0.208038	-3.9181	0.1623
573.2	30290	0.208038	-3.9153	0.1622
573.2	30290	0.301588	-5.6006	0.1716
573.2	30290	0.301588	-5.604	0.1717
573.2	30290	0.301588	-5.6028	0.1716
573.2	30290	0.403072	-7.3752	0.1816
573.2	30290	0.403072	-7.383	0.1816
573.2	30290	0.403072	-7.381	0.1816
548.15	7160	0.056406	-1.2919	0.2416
548.15	7160	0.056406	-1.2936	0.2416
548.15	7160	0.056406	-1.296	0.2416
548.15	7160	0.11312	-2.5773	0.2427
548.15	7160	0.11312	-2.5796	0.2427
548.15	7160	0.11312	-2.5808	0.2427
548.15	7160	0.20417	-4.6149	0.2445
548.15	7160	0.20417	-4.6172	0.2445
548.15	7160	0.20417	-4.6176	0.2445
548.15	7160	0.303811	-6.7976	0.2465
548.15	7160	0.303811	-6.7985	0.2465
548.15	7160	0.303811	-6.8011	0.2465
548.15	7160	0.416069	-9.2021	0.2487
548.15	7160	0.416069	-9.2035	0.2487
548.15	7160	0.416069	-9.205	0.2487
548.15	23060	0.057087	-1.0913	0.1111
548.15	23060	0.057087	-1.0893	0.1111
548.15	23060	0.057087	-1.0925	0.1111
548.15	23060	0.111733	-2.1246	0.1151
548.15	23060	0.111733	-2.1251	0.1151
548.15	23060	0.111733	-2.1282	0.1151
548.15	23060	0.208038	-3.9135	0.1229
548.15	23060	0.208038	-3.913	0.1229
548.15	23060	0.208038	-3.9154	0.1229
548.15	23060	0.301588	-5.6071	0.1303
548.15	23060	0.301588	-5.6088	0.1304
548.15	23060	0.301588	-5.6061	0.1303
548.15	23060	0.403072	-7.4001	0.1382
548.15	23060	0.403072	-7.4032	0.1382
548.15	23060	0.403072	-7.4009	0.1382
