Measured thermophysical data. Thermodynamics of aqueous methyldiethanolamine (MDEA) and methyldiethanolammonium chloride (MDEAH+Cl-) over a wide range of temperature and pressure: Apparent molar volumes, heat capacities, and isothermal compressibilities
Source: J. Chem. Thermodyn., 2006, 10.1016/j.jct.2005.10.013
Compound 1: N-methyldiethanolamine, C5H13NO2, InChI=1S/C5H13NO2/c1-6(2-4-7)3-5-8/h7-8H,2-5H2,1H3
Compound 2: hydrogen chloride, ClH, InChI=1S/ClH/h1H
Compound 3: water, H2O, InChI=1S/H2O/h1H2

System: N-methyldiethanolamine + water; phases: Liquid
Fixed: Pressure, kPa = 101
Property: Heat capacity at constant pressure per volume, J/K/m3 (Liquid); method: Flow calorimetry
Temperature, K	Molality, mol/kg of N-methyldiethanolamine	Heat capacity at constant pressure per volume, J/K/m3	uncertainty
283.15	0.20426	-0.0038	0.010138
283.15	0.30671	-0.0060124	0.0101601
283.15	0.50172	-0.01049	0.0102
283.15	0.70352	-0.01527	0.01025
283.15	0.89819	-0.02003	0.0103
283.15	1.0879	-0.02439	0.01034
283.15	1.3574	-0.03087	0.01041
283.15	1.6524	-0.03844	0.01048
283.15	2.1607	-0.04987	0.0106
298.15	0.12066	-0.002068	0.010121
298.15	0.20426	-0.003576	0.010136
298.15	0.30671	-0.005386	0.010154
298.15	0.50172	-0.008906	0.010189
298.15	0.70352	-0.01245	0.01022
298.15	0.89819	-0.01602	0.01026
298.15	1.0879	-0.01955	0.0103
298.15	1.3574	-0.03015	0.0104
298.15	1.6524	-0.03863	0.01049
298.15	2.1607	-0.06297	0.01073
313.15	0.12066	-0.001898	0.011017
313.15	0.20426	-0.003049	0.011029
313.15	0.30671	-0.004596	0.011046
313.15	0.50172	-0.007169	0.011074
313.15	0.70352	-0.01035	0.01111
313.15	0.89819	-0.01339	0.01114
313.15	1.0879	-0.01607	0.01117
313.15	1.3574	-0.02007	0.01121
313.15	1.6524	-0.02476	0.01127
313.15	2.1607	-0.03183	0.01134
328.15	0.30671	-0.004046	0.012113
328.15	0.50172	-0.006285	0.01214
328.15	0.70352	-0.008607	0.012168
328.15	0.89819	-0.01102	0.0122
328.15	1.0879	-0.01334	0.01222
328.15	1.3574	-0.01752	0.01227
328.15	1.6524	-0.02062	0.01231
328.15	2.1607	-0.02691	0.01239

System: N-methyldiethanolamine + water; phases: Liquid
Fixed: Pressure, kPa = 101
Property: Speed of sound, m/s (Liquid); method: Sing-around technique in a fixed-path interferometer
Temperature, K	Molality, mol/kg of N-methyldiethanolamine	Speed of sound, m/s	uncertainty
283.15	0.30671	1474.25	0.99
283.15	0.50172	1489.68	1
283.15	0.70352	1505.07	1
283.15	0.89819	1519.35	1.01
283.15	1.0879	1532.75	1.02
283.15	1.3574	1550.89	1.04
283.15	1.6524	1569.54	1.06
283.15	2.1607	1598.73	1.1
298.15	0.30671	1520.04	0.99
298.15	0.50172	1532.93	1
298.15	0.70352	1545.75	1.01
298.15	0.89819	1557.62	1.02
298.15	1.0879	1568.7	1.03
298.15	1.3574	1583.64	1.04
298.15	1.6524	1598.91	1.06
298.15	2.1607	1622.56	1.1
313.15	0.30671	1547.67	0.99
313.15	0.50172	1557.71	1
313.15	0.70352	1567.67	1.01
313.15	0.89819	1576.88	1.02
313.15	1.0879	1585.47	1.03
313.15	1.3574	1597.02	1.04
313.15	1.6524	1608.79	1.06
313.15	2.1607	1626.92	1.1

System: N-methyldiethanolamine + water; phases: Liquid
Property: Mass density, kg/m3 (Liquid); method: Vibrating tube method
Pressure, kPa	Temperature, K	Molality, mol/kg of N-methyldiethanolamine	Mass density, kg/m3	uncertainty
100	283.15	0.12065	1.235	0.401
100	283.15	0.20426	2.07	0.401
100	283.15	0.30671	3.102	0.401
100	283.15	0.50172	5.082	0.401
100	283.15	0.70352	7.056	0.402
100	283.15	0.89819	9.035	0.402
100	283.15	1.0879	10.77	0.4
100	283.15	1.3574	13.29	0.4
100	283.15	1.6524	16.16	0.4
100	283.15	2.1607	20.29	0.4
100	298.15	0.12065	1.151	0.401
100	298.15	0.20426	1.924	0.401
100	298.15	0.30671	2.857	0.401
100	298.15	0.50172	4.613	0.401
100	298.15	0.70352	6.433	0.401
100	298.15	0.89819	8.176	0.402
100	298.15	1.0879	9.706	0.402
100	298.15	1.3574	11.91	0.4
100	298.15	1.6524	14.45	0.4
100	298.15	2.1607	18.01	0.4
100	313.15	0.12065	1.074	0.401
100	313.15	0.20426	1.803	0.401
100	313.15	0.30671	2.675	0.401
100	313.15	0.50172	4.317	0.401
100	313.15	0.70352	5.97	0.401
100	313.15	0.89819	7.575	0.402
100	313.15	1.0879	8.963	0.402
100	313.15	1.3574	10.93	0.4
100	313.15	1.6524	13.2	0.4
100	313.15	2.1607	16.4	0.4
100	328.15	0.12065	0.497	0.4011
100	328.15	0.20426	1.055	0.401
100	328.15	0.30671	1.747	0.401
100	328.15	0.50172	2.569	0.401
100	328.15	0.70352	4.076	0.401
100	328.15	0.89819	5.596	0.401
100	328.15	1.0879	7.061	0.401
100	328.15	1.3574	8.368	0.402
100	328.15	1.6524	12.26	0.4
100	328.15	2.1607	15.12	0.4
10173	337.42	0.20426	1.654	0.401
10182	337.43	0.30671	2.367	0.401
10184	337.52	0.50172	3.993	0.402
10187	337.45	1.0879	8.018	0.403
10189	337.5	3.5723	21.32	0.41
10191	337.52	4.9938	26.46	0.41
10195	337.46	2.1607	14.62	0.404
10318	425.94	0.20426	1.179	0.402
10320	425.93	1.0879	5.556	0.403
10321	425.93	0.50172	2.827	0.402
10321	425.94	0.30671	1.676	0.402
10322	425.95	3.5723	13.99	0.41
10323	425.95	2.1607	9.868	0.404
10332	425.94	4.9938	17.04	0.41
10392	523.38	0.20426	0.9365	0.4071
10397	523.3	0.30671	1.315	0.407
10399	523.3	0.50172	2.014	0.407
10399	523.44	4.9938	14.6	0.41
10400	523.31	3.5723	11.15	0.41
10405	523.3	2.1607	7.527	0.41
10406	523.32	1.0879	4.12	0.408
20048	524.57	0.20426	0.9151	0.4075
20075	524.57	0.30671	1.339	0.408
20078	475.67	0.30671	1.515	0.403
20078	524.56	0.50172	2.004	0.408
20082	475.66	0.50172	2.367	0.404
20083	475.67	0.20426	1.13	0.403
20085	475.67	1.0879	4.738	0.405
20090	524.55	1.0879	4.118	0.41
20094	475.67	3.5723	11.81	0.41
20094	475.68	4.9938	14.65	0.41
20095	524.58	4.9938	14.65	0.42
20097	524.57	3.5723	11.36	0.42
20098	475.68	2.1607	8.262	0.407
20100	524.57	2.1607	7.624	0.413
20163	424.34	0.20426	1.067	0.402
20173	424.34	0.30671	1.623	0.402
20184	335.17	1.0879	7.675	0.404
20184	335.21	0.20426	2.114	0.402
20185	424.35	0.50172	2.821	0.402
20186	424.39	2.1607	10.03	0.41
20187	424.36	1.0879	5.706	0.404
20189	335.2	0.30671	2.668	0.402
20189	335.24	0.50172	3.813	0.402
20189	424.4	3.5723	14.46	0.41
20191	424.43	4.9938	17.56	0.41
20194	335.24	3.5723	19.72	0.41
20195	335.28	4.9938	24.27	0.42
20198	335.16	2.1607	13.48	0.41
20200	384	0.20426	1.312	0.401
20208	383.98	0.30671	2.023	0.402
20214	383.99	0.50172	3.282	0.402
20216	384.02	2.1607	11.16	0.41
20221	384.01	3.5723	16.17	0.41
20224	384.01	1.0879	6.456	0.403
20229	383.97	4.9938	19.82	0.41

System: N-methyldiethanolamine + hydrogen chloride + water; phases: Liquid
Property: Mass density, kg/m3 (Liquid); method: Vibrating tube method
Molality, mol/kg of N-methyldiethanolamine	Molality, mol/kg of hydrogen chloride	Temperature, K	Pressure, kPa	Mass density, kg/m3	uncertainty
1.2252	0.0127	422.91	10259	36.77	0.42

System: N-methyldiethanolamine + hydrogen chloride + water; phases: Liquid
Property: Mass density, kg/m3 (Liquid); method: Vibrating tube method
Molality, mol/kg of N-methyldiethanolamine	Molality, mol/kg of hydrogen chloride	Temperature, K	Pressure, kPa	Mass density, kg/m3	uncertainty
0.10782	0.00112	522.91	10363	5.61	0.419

System: N-methyldiethanolamine + hydrogen chloride + water; phases: Liquid
Property: Mass density, kg/m3 (Liquid); method: Vibrating tube method
Molality, mol/kg of N-methyldiethanolamine	Molality, mol/kg of hydrogen chloride	Temperature, K	Pressure, kPa	Mass density, kg/m3	uncertainty
0.2297	0.00239	522.97	10373	11.59	0.42

System: N-methyldiethanolamine + hydrogen chloride + water; phases: Liquid
Property: Mass density, kg/m3 (Liquid); method: Vibrating tube method
Molality, mol/kg of N-methyldiethanolamine	Molality, mol/kg of hydrogen chloride	Temperature, K	Pressure, kPa	Mass density, kg/m3	uncertainty
0.77081	0.00801	523.06	10387	34.05	0.44

System: N-methyldiethanolamine + hydrogen chloride + water; phases: Liquid
Property: Mass density, kg/m3 (Liquid); method: Vibrating tube method
Molality, mol/kg of N-methyldiethanolamine	Molality, mol/kg of hydrogen chloride	Temperature, K	Pressure, kPa	Mass density, kg/m3	uncertainty
0.10782	0.00112	334.27	20009	3.384	0.408

System: N-methyldiethanolamine + hydrogen chloride + water; phases: Liquid
Property: Mass density, kg/m3 (Liquid); method: Vibrating tube method
Molality, mol/kg of N-methyldiethanolamine	Molality, mol/kg of hydrogen chloride	Temperature, K	Pressure, kPa	Mass density, kg/m3	uncertainty
0.2297	0.00239	334.22	20019	6.65	0.409

System: N-methyldiethanolamine + hydrogen chloride + water; phases: Liquid
Property: Mass density, kg/m3 (Liquid); method: Vibrating tube method
Molality, mol/kg of N-methyldiethanolamine	Molality, mol/kg of hydrogen chloride	Temperature, K	Pressure, kPa	Mass density, kg/m3	uncertainty
1.2252	0.0127	334.2	20106	31.13	0.43

System: N-methyldiethanolamine + hydrogen chloride + water; phases: Liquid
Property: Mass density, kg/m3 (Liquid); method: Vibrating tube method
Molality, mol/kg of N-methyldiethanolamine	Molality, mol/kg of hydrogen chloride	Temperature, K	Pressure, kPa	Mass density, kg/m3	uncertainty
0.38192	0.00397	377.07	20194	11.33	0.41

System: N-methyldiethanolamine + hydrogen chloride + water; phases: Liquid
Property: Mass density, kg/m3 (Liquid); method: Vibrating tube method
Molality, mol/kg of N-methyldiethanolamine	Molality, mol/kg of hydrogen chloride	Temperature, K	Pressure, kPa	Mass density, kg/m3	uncertainty
0.59184	0.00615	377.11	20208	17	0.42

System: N-methyldiethanolamine + hydrogen chloride + water; phases: Liquid
Property: Mass density, kg/m3 (Liquid); method: Vibrating tube method
Molality, mol/kg of N-methyldiethanolamine	Molality, mol/kg of hydrogen chloride	Temperature, K	Pressure, kPa	Mass density, kg/m3	uncertainty
0.77081	0.00801	377.17	20218	21.51	0.42

System: N-methyldiethanolamine + hydrogen chloride + water; phases: Liquid
Property: Mass density, kg/m3 (Liquid); method: Vibrating tube method
Molality, mol/kg of N-methyldiethanolamine	Molality, mol/kg of hydrogen chloride	Temperature, K	Pressure, kPa	Mass density, kg/m3	uncertainty
0.98979	0.0103	377.14	20220	26.74	0.43

System: N-methyldiethanolamine + hydrogen chloride + water; phases: Liquid
Property: Mass density, kg/m3 (Liquid); method: Vibrating tube method
Molality, mol/kg of N-methyldiethanolamine	Molality, mol/kg of hydrogen chloride	Temperature, K	Pressure, kPa	Mass density, kg/m3	uncertainty
1.2252	0.0127	377.1	20218	32.22	0.43

System: N-methyldiethanolamine + hydrogen chloride + water; phases: Liquid
Property: Mass density, kg/m3 (Liquid); method: Vibrating tube method
Molality, mol/kg of N-methyldiethanolamine	Molality, mol/kg of hydrogen chloride	Temperature, K	Pressure, kPa	Mass density, kg/m3	uncertainty
0.98979	0.0103	422.93	10253	30.8	0.42

System: N-methyldiethanolamine + hydrogen chloride + water; phases: Liquid
Fixed: Pressure, kPa = 101
Property: Heat capacity at constant pressure per volume, J/K/m3 (Liquid); method: Flow calorimetry
Temperature, K	Molality, mol/kg of N-methyldiethanolamine	Molality, mol/kg of hydrogen chloride	Heat capacity at constant pressure per volume, J/K/m3	uncertainty
283.15	0.10782	0.0012	-0.008583	0.010186
283.15	0.2297	0.00239	-0.01835	0.01028
283.15	0.29132	0.00303	-0.02308	0.01033
283.15	0.38192	0.00397	-0.03004	0.0104
283.15	0.59184	0.00615	-0.04517	0.01055
283.15	0.77081	0.00801	-0.05736	0.01067
283.15	0.98979	0.01028	-0.07122	0.01081
283.15	1.2252	0.01273	-0.0851	0.01095
298.15	0.10782	0.0012	-0.007982	0.01018
298.15	0.2297	0.00239	-0.01666	0.01027
298.15	0.29132	0.00303	-0.0209	0.01031
298.15	0.38192	0.00397	-0.02704	0.01037
298.15	0.59184	0.00615	-0.0404	0.0105
298.15	0.77081	0.00801	-0.05115	0.01061
298.15	0.98979	0.01028	-0.06364	0.01074
298.15	1.2252	0.01273	-0.07621	0.01086
313.15	0.10782	0.0012	-0.007464	0.011077
313.15	0.2297	0.00239	-0.01544	0.01116
313.15	0.29132	0.00303	-0.01938	0.01121
313.15	0.38192	0.00397	-0.0251	0.01127
313.15	0.59184	0.00615	-0.03746	0.0114
313.15	0.77081	0.00801	-0.0475	0.01151
313.15	0.98979	0.01028	-0.05908	0.01164
313.15	1.2252	0.01273	-0.07104	0.01177
328.15	0.29132	0.00303	-0.01873	0.01229
328.15	0.38192	0.00397	-0.02384	0.01235
328.15	0.59184	0.00615	-0.03563	0.01249
328.15	0.77081	0.00801	-0.04526	0.01261
328.15	0.98979	0.01028	-0.05649	0.01274
328.15	1.2252	0.01273	-0.06728	0.01287

System: N-methyldiethanolamine + hydrogen chloride + water; phases: Liquid
Fixed: Molality, mol/kg of hydrogen chloride = 0
Fixed: Pressure, kPa = 101
Property: Speed of sound, m/s (Liquid); method: Sing-around technique in a fixed-path interferometer
Temperature, K	Molality, mol/kg of N-methyldiethanolamine	Speed of sound, m/s	uncertainty
283.15	0.29435	1475.42	0.99
283.15	0.38588	1484.32	0.99
283.15	0.59799	1504.93	1.01
283.15	0.77882	1522.5	1.01
283.15	1.00007	1544	1.03
283.15	1.23791	1567.11	1.05
298.15	0.29435	1521.86	1
298.15	0.38588	1529.66	1
298.15	0.59799	1547.74	1.01
298.15	0.77882	1563.15	1.02
298.15	1.00007	1582	1.04
298.15	1.23791	1602.26	1.05
313.15	0.29435	1551.7	1
313.15	0.38588	1558.68	1
313.15	0.59799	1574.84	1.01
313.15	0.77882	1588.62	1.02
313.15	1.00007	1605.47	1.04
313.15	1.23791	1623.59	1.06

System: N-methyldiethanolamine + hydrogen chloride + water; phases: Liquid
Property: Mass density, kg/m3 (Liquid); method: Vibrating tube method
Pressure, kPa	Molality, mol/kg of N-methyldiethanolamine	Molality, mol/kg of hydrogen chloride	Temperature, K	Mass density, kg/m3	uncertainty
20146	0.10782	0.00112	523.75	5.454	0.422

System: N-methyldiethanolamine + hydrogen chloride + water; phases: Liquid
Property: Mass density, kg/m3 (Liquid); method: Vibrating tube method
Temperature, K	Molality, mol/kg of N-methyldiethanolamine	Molality, mol/kg of hydrogen chloride	Pressure, kPa	Mass density, kg/m3	uncertainty
422.98	0.10782	0.00112	10245	3.7	0.409

System: N-methyldiethanolamine + hydrogen chloride + water; phases: Liquid
Fixed: Temperature, K = 422.91
Property: Mass density, kg/m3 (Liquid); method: Vibrating tube method
Pressure, kPa	Molality, mol/kg of N-methyldiethanolamine	Molality, mol/kg of hydrogen chloride	Mass density, kg/m3	uncertainty
10247	0.2297	0.00239	7.794	0.41
10258	0.38192	0.00397	12.52	0.41

System: N-methyldiethanolamine + hydrogen chloride + water; phases: Liquid
Fixed: Temperature, K = 422.88
Property: Mass density, kg/m3 (Liquid); method: Vibrating tube method
Pressure, kPa	Molality, mol/kg of N-methyldiethanolamine	Molality, mol/kg of hydrogen chloride	Mass density, kg/m3	uncertainty
10247	0.77081	0.00801	23.99	0.42
10260	0.59184	0.00615	18.89	0.41

System: N-methyldiethanolamine + hydrogen chloride + water; phases: Liquid
Fixed: Temperature, K = 523.06
Property: Mass density, kg/m3 (Liquid); method: Vibrating tube method
Pressure, kPa	Molality, mol/kg of N-methyldiethanolamine	Molality, mol/kg of hydrogen chloride	Mass density, kg/m3	uncertainty
10375	0.38192	0.00397	18.33	0.43
10381	0.59184	0.00615	27.17	0.43

System: N-methyldiethanolamine + hydrogen chloride + water; phases: Liquid
Fixed: Pressure, kPa = 10381
Property: Mass density, kg/m3 (Liquid); method: Vibrating tube method
Temperature, K	Molality, mol/kg of N-methyldiethanolamine	Molality, mol/kg of hydrogen chloride	Mass density, kg/m3	uncertainty
522.94	0.98979	0.0103	41.1	0.44
522.95	1.2252	0.0127	49.85	0.45

System: N-methyldiethanolamine + hydrogen chloride + water; phases: Liquid
Fixed: Temperature, K = 334.19
Property: Mass density, kg/m3 (Liquid); method: Vibrating tube method
Pressure, kPa	Molality, mol/kg of N-methyldiethanolamine	Molality, mol/kg of hydrogen chloride	Mass density, kg/m3	uncertainty
20032	0.38192	0.00397	10.96	0.41
20038	0.59184	0.00615	16.29	0.42

System: N-methyldiethanolamine + hydrogen chloride + water; phases: Liquid
Fixed: Temperature, K = 334.22
Property: Mass density, kg/m3 (Liquid); method: Vibrating tube method
Pressure, kPa	Molality, mol/kg of N-methyldiethanolamine	Molality, mol/kg of hydrogen chloride	Mass density, kg/m3	uncertainty
20058	0.77081	0.00801	20.77	0.42
20083	0.98979	0.0103	26.01	0.42

System: N-methyldiethanolamine + hydrogen chloride + water; phases: Liquid
Fixed: Temperature, K = 377.06
Property: Mass density, kg/m3 (Liquid); method: Vibrating tube method
Pressure, kPa	Molality, mol/kg of N-methyldiethanolamine	Molality, mol/kg of hydrogen chloride	Mass density, kg/m3	uncertainty
20175	0.10782	0.00112	3.365	0.409
20186	0.2297	0.00239	6.989	0.411
20213	0.29132	0.00303	8.635	0.411

System: N-methyldiethanolamine + hydrogen chloride + water; phases: Liquid
Fixed: Temperature, K = 426.77
Property: Mass density, kg/m3 (Liquid); method: Vibrating tube method
Pressure, kPa	Molality, mol/kg of N-methyldiethanolamine	Molality, mol/kg of hydrogen chloride	Mass density, kg/m3	uncertainty
20205	0.0496	0.000515	1.745	0.41
20212	0.29132	0.00303	9.663	0.414

System: N-methyldiethanolamine + hydrogen chloride + water; phases: Liquid
Fixed: Temperature, K = 426.78
Property: Mass density, kg/m3 (Liquid); method: Vibrating tube method
Pressure, kPa	Molality, mol/kg of N-methyldiethanolamine	Molality, mol/kg of hydrogen chloride	Mass density, kg/m3	uncertainty
20215	0.2297	0.00239	7.774	0.413
20216	0.59184	0.00615	19.12	0.42

System: N-methyldiethanolamine + hydrogen chloride + water; phases: Liquid
Fixed: Temperature, K = 426.8
Property: Mass density, kg/m3 (Liquid); method: Vibrating tube method
Pressure, kPa	Molality, mol/kg of N-methyldiethanolamine	Molality, mol/kg of hydrogen chloride	Mass density, kg/m3	uncertainty
20223	0.77081	0.00801	24.4	0.43
20233	0.38192	0.00397	12.78	0.42

System: N-methyldiethanolamine + hydrogen chloride + water; phases: Liquid
Fixed: Pressure, kPa = 20230
Property: Mass density, kg/m3 (Liquid); method: Vibrating tube method
Temperature, K	Molality, mol/kg of N-methyldiethanolamine	Molality, mol/kg of hydrogen chloride	Mass density, kg/m3	uncertainty
426.66	0.98979	0.0103	30.2	0.43
426.72	1.2252	0.0127	36.61	0.44

System: N-methyldiethanolamine + hydrogen chloride + water; phases: Liquid
Property: Mass density, kg/m3 (Liquid); method: Vibrating tube method
Pressure, kPa	Molality, mol/kg of N-methyldiethanolamine	Molality, mol/kg of hydrogen chloride	Temperature, K	Mass density, kg/m3	uncertainty
20141	0.10782	0.00112	475.03	4.551	0.415

System: N-methyldiethanolamine + hydrogen chloride + water; phases: Liquid
Fixed: Temperature, K = 475.04
Property: Mass density, kg/m3 (Liquid); method: Vibrating tube method
Pressure, kPa	Molality, mol/kg of N-methyldiethanolamine	Molality, mol/kg of hydrogen chloride	Mass density, kg/m3	uncertainty
20157	0.2297	0.00239	8.824	0.417
20168	0.29132	0.00303	11.13	0.42

System: N-methyldiethanolamine + hydrogen chloride + water; phases: Liquid
Fixed: Temperature, K = 475.07
Property: Mass density, kg/m3 (Liquid); method: Vibrating tube method
Pressure, kPa	Molality, mol/kg of N-methyldiethanolamine	Molality, mol/kg of hydrogen chloride	Mass density, kg/m3	uncertainty
20176	0.59184	0.00615	21.05	0.43
20189	0.38192	0.00397	14.12	0.42

System: N-methyldiethanolamine + hydrogen chloride + water; phases: Liquid
Property: Mass density, kg/m3 (Liquid); method: Vibrating tube method
Pressure, kPa	Molality, mol/kg of N-methyldiethanolamine	Molality, mol/kg of hydrogen chloride	Temperature, K	Mass density, kg/m3	uncertainty
20197	0.77081	0.00801	475.08	26.68	0.43

System: N-methyldiethanolamine + hydrogen chloride + water; phases: Liquid
Property: Mass density, kg/m3 (Liquid); method: Vibrating tube method
Pressure, kPa	Molality, mol/kg of N-methyldiethanolamine	Molality, mol/kg of hydrogen chloride	Temperature, K	Mass density, kg/m3	uncertainty
20202	0.98979	0.0103	475.09	33.2	0.44

System: N-methyldiethanolamine + hydrogen chloride + water; phases: Liquid
Property: Mass density, kg/m3 (Liquid); method: Vibrating tube method
Pressure, kPa	Molality, mol/kg of N-methyldiethanolamine	Molality, mol/kg of hydrogen chloride	Temperature, K	Mass density, kg/m3	uncertainty
20203	1.2252	0.0127	475.1	39.67	0.45

System: N-methyldiethanolamine + hydrogen chloride + water; phases: Liquid
Property: Mass density, kg/m3 (Liquid); method: Vibrating tube method
Pressure, kPa	Molality, mol/kg of N-methyldiethanolamine	Molality, mol/kg of hydrogen chloride	Temperature, K	Mass density, kg/m3	uncertainty
20147	0.0496	0.000515	523.78	2.605	0.42

System: N-methyldiethanolamine + hydrogen chloride + water; phases: Liquid
Fixed: Temperature, K = 523.83
Property: Mass density, kg/m3 (Liquid); method: Vibrating tube method
Pressure, kPa	Molality, mol/kg of N-methyldiethanolamine	Molality, mol/kg of hydrogen chloride	Mass density, kg/m3	uncertainty
20144	0.2297	0.00239	11.09	0.43
20158	0.29132	0.00303	13.85	0.43

System: N-methyldiethanolamine + hydrogen chloride + water; phases: Liquid
Property: Mass density, kg/m3 (Liquid); method: Vibrating tube method
Pressure, kPa	Molality, mol/kg of N-methyldiethanolamine	Molality, mol/kg of hydrogen chloride	Temperature, K	Mass density, kg/m3	uncertainty
20169	0.38192	0.00397	523.85	17.76	0.43

System: N-methyldiethanolamine + hydrogen chloride + water; phases: Liquid
Property: Mass density, kg/m3 (Liquid); method: Vibrating tube method
Pressure, kPa	Molality, mol/kg of N-methyldiethanolamine	Molality, mol/kg of hydrogen chloride	Temperature, K	Mass density, kg/m3	uncertainty
20163	0.59184	0.00615	523.8	26.18	0.44

System: N-methyldiethanolamine + hydrogen chloride + water; phases: Liquid
Property: Mass density, kg/m3 (Liquid); method: Vibrating tube method
Pressure, kPa	Molality, mol/kg of N-methyldiethanolamine	Molality, mol/kg of hydrogen chloride	Temperature, K	Mass density, kg/m3	uncertainty
20167	0.77081	0.00801	523.74	32.95	0.45

System: N-methyldiethanolamine + hydrogen chloride + water; phases: Liquid
Property: Mass density, kg/m3 (Liquid); method: Vibrating tube method
Pressure, kPa	Molality, mol/kg of N-methyldiethanolamine	Molality, mol/kg of hydrogen chloride	Temperature, K	Mass density, kg/m3	uncertainty
20176	0.98979	0.0103	523.71	40.75	0.47

System: N-methyldiethanolamine + hydrogen chloride + water; phases: Liquid
Property: Mass density, kg/m3 (Liquid); method: Vibrating tube method
Pressure, kPa	Molality, mol/kg of N-methyldiethanolamine	Molality, mol/kg of hydrogen chloride	Temperature, K	Mass density, kg/m3	uncertainty
20175	1.2252	0.0127	523.72	48.7	0.48

System: N-methyldiethanolamine + hydrogen chloride + water; phases: Liquid
Property: Mass density, kg/m3 (Liquid); method: Vibrating tube method
Pressure, kPa	Molality, mol/kg of N-methyldiethanolamine	Molality, mol/kg of hydrogen chloride	Temperature, K	Mass density, kg/m3	uncertainty
20162	0.10782	0.00112	576.34	7.401	0.444

System: N-methyldiethanolamine + hydrogen chloride + water; phases: Liquid
Fixed: Temperature, K = 576.31
Property: Mass density, kg/m3 (Liquid); method: Vibrating tube method
Pressure, kPa	Molality, mol/kg of N-methyldiethanolamine	Molality, mol/kg of hydrogen chloride	Mass density, kg/m3	uncertainty
20163	0.2297	0.00239	15.18	0.45
20193	0.38192	0.00397	24.09	0.47

System: N-methyldiethanolamine + hydrogen chloride + water; phases: Liquid
Property: Mass density, kg/m3 (Liquid); method: Vibrating tube method
Pressure, kPa	Molality, mol/kg of N-methyldiethanolamine	Molality, mol/kg of hydrogen chloride	Temperature, K	Mass density, kg/m3	uncertainty
20212	0.59184	0.00615	576.32	35.32	0.49

System: N-methyldiethanolamine + hydrogen chloride + water; phases: Liquid
Property: Mass density, kg/m3 (Liquid); method: Vibrating tube method
Pressure, kPa	Molality, mol/kg of N-methyldiethanolamine	Molality, mol/kg of hydrogen chloride	Temperature, K	Mass density, kg/m3	uncertainty
20226	0.77081	0.00801	576.37	44.04	0.51

System: N-methyldiethanolamine + hydrogen chloride + water; phases: Liquid
Property: Mass density, kg/m3 (Liquid); method: Vibrating tube method
Pressure, kPa	Molality, mol/kg of N-methyldiethanolamine	Molality, mol/kg of hydrogen chloride	Temperature, K	Mass density, kg/m3	uncertainty
20221	0.98979	0.0103	576.38	53.81	0.53

System: N-methyldiethanolamine + hydrogen chloride + water; phases: Liquid
Property: Mass density, kg/m3 (Liquid); method: Vibrating tube method
Pressure, kPa	Molality, mol/kg of N-methyldiethanolamine	Molality, mol/kg of hydrogen chloride	Temperature, K	Mass density, kg/m3	uncertainty
20228	1.2252	0.0127	576.42	63.73	0.55

System: N-methyldiethanolamine + hydrogen chloride + water; phases: Liquid
Fixed: Pressure, kPa = 100
Property: Mass density, kg/m3 (Liquid); method: Vibrating tube method
Temperature, K	Molality, mol/kg of N-methyldiethanolamine	Molality, mol/kg of hydrogen chloride	Mass density, kg/m3	uncertainty
283.15	0.10782	0.0012	3.622	0.403
283.15	0.2297	0.00239	7.542	0.403
283.15	0.29132	0.00303	9.461	0.403
283.15	0.38192	0.00397	12.22	0.4
283.15	0.59184	0.00615	18.4	0.4
283.15	0.77081	0.00801	23.41	0.4
283.15	0.98979	0.01028	29.25	0.4
283.15	1.2252	0.01273	35.13	0.4
298.15	0.10782	0.0012	3.421	0.402
298.15	0.2297	0.00239	7.169	0.403
298.15	0.29132	0.00303	9.021	0.403
298.15	0.38192	0.00397	11.67	0.4
298.15	0.59184	0.00615	17.57	0.4
298.15	0.77081	0.00801	22.31	0.4
298.15	0.98979	0.01028	27.85	0.4
298.15	1.2252	0.01273	33.47	0.4
313.15	0.10782	0.0012	3.36	0.402
313.15	0.2297	0.00239	6.998	0.403
313.15	0.29132	0.00303	8.775	0.403
313.15	0.38192	0.00397	11.37	0.4
313.15	0.59184	0.00615	17.08	0.4
313.15	0.77081	0.00801	21.72	0.4
313.15	0.98979	0.01028	27.1	0.4
313.15	1.2252	0.01273	32.61	0.4
328.15	0.10782	0.0012	3.317	0.402
328.15	0.2297	0.00239	6.87	0.403
328.15	0.29132	0.00303	8.625	0.403
328.15	0.38192	0.00397	11.23	0.4
328.15	0.59184	0.00615	16.93	0.4
328.15	0.77081	0.00801	21.54	0.4
328.15	0.98979	0.01028	26.85	0.4
328.15	1.2252	0.01273	32.28	0.4
