Measured thermophysical data. Thermodynamic and theoretical investigations on [Emim][Bf4]/[Bmim][Bf4] and aniline binary mixtures
Source: J. Chem. Thermodyn., 2019, 10.1016/j.jct.2019.105891
Compound 1: 1-ethyl-3-methylimidazolium tetrafluoroborate, C6H11BF4N2, InChI=1S/C6H11N2.BF4/c1-3-8-5-4-7(2)6-8;2-1(3,4)5/h4-6H,3H2,1-2H3;/q+1;-1, purity 99%
Compound 2: 1-butyl-3-methylimidazolium tetrafluoroborate, C8H15BF4N2, InChI=1S/C8H15N2.BF4/c1-3-4-5-10-7-6-9(2)8-10;2-1(3,4)5/h6-8H,3-5H2,1-2H3;/q+1;-1, purity 99%
Compound 3: aniline, C6H7N, InChI=1S/C6H7N/c7-6-4-2-1-3-5-6/h1-5H,7H2, purity 99%

System: 1-ethyl-3-methylimidazolium tetrafluoroborate; phases: Liquid
Fixed: Pressure, kPa = 100
Property: Viscosity, Pa*s (Liquid); method: Falling or rolling sphere viscometry
Temperature, K	Viscosity, Pa*s	uncertainty
293.15	0.04569	0.00277
303.15	0.03054	0.00185
313.15	0.02182	0.00132
323.15	0.01642	0.001

System: 1-ethyl-3-methylimidazolium tetrafluoroborate; phases: Liquid
Fixed: Pressure, kPa = 100
Property: Refractive index (Na D-line) (Liquid); method: Standard Abbe refractometry
Temperature, K	Refractive index (Na D-line)	uncertainty
293.15	1.41509	0.00106
303.15	1.41117	0.00106
313.15	1.40802	0.00106
323.15	1.40512	0.00106

System: 1-butyl-3-methylimidazolium tetrafluoroborate; phases: Liquid
Fixed: Pressure, kPa = 100
Property: Viscosity, Pa*s (Liquid); method: Falling or rolling sphere viscometry
Temperature, K	Viscosity, Pa*s	uncertainty
293.15	0.1357	0.00917
303.15	0.0804	0.00498
313.15	0.0514	0.0031
323.15	0.03492	0.00212

System: 1-butyl-3-methylimidazolium tetrafluoroborate; phases: Liquid
Fixed: Pressure, kPa = 100
Property: Refractive index (Na D-line) (Liquid); method: Standard Abbe refractometry
Temperature, K	Refractive index (Na D-line)	uncertainty
293.15	1.42144	0.00106
303.15	1.41913	0.00106
313.15	1.41621	0.00106
323.15	1.4133	0.00106

System: aniline; phases: Liquid
Fixed: Pressure, kPa = 100
Property: Viscosity, Pa*s (Liquid); method: Falling or rolling sphere viscometry
Temperature, K	Viscosity, Pa*s	uncertainty
293.15	0.00438	0.00026
303.15	0.00324	0.0002
313.15	0.00247	0.00015
323.15	0.00195	0.00012

System: aniline; phases: Liquid
Fixed: Pressure, kPa = 100
Property: Refractive index (Na D-line) (Liquid); method: Standard Abbe refractometry
Temperature, K	Refractive index (Na D-line)	uncertainty
293.15	1.58481	0.00104
303.15	1.58152	0.00104
313.15	1.57823	0.00104
323.15	1.57494	0.00104

System: 1-ethyl-3-methylimidazolium tetrafluoroborate + aniline; phases: Liquid
Fixed: Pressure, kPa = 100
Property: Viscosity, Pa*s (Liquid); method: Falling or rolling sphere viscometry
Temperature, K	Mole fraction of 1-ethyl-3-methylimidazolium tetrafluoroborate	Viscosity, Pa*s	uncertainty
293.15	0.1008	0.00684	0.00048
293.15	0.2035	0.00946	0.00064
293.15	0.3059	0.01258	0.00083
293.15	0.4053	0.01593	0.00104
293.15	0.5073	0.02031	0.00131
293.15	0.6013	0.02451	0.00155
293.15	0.7046	0.02893	0.00181
293.15	0.8067	0.03376	0.00211
293.15	0.9059	0.03955	0.00248
303.15	0.1008	0.00488	0.00035
303.15	0.2035	0.00699	0.00047
303.15	0.3059	0.00893	0.00058
303.15	0.4053	0.01133	0.00073
303.15	0.5073	0.01407	0.0009
303.15	0.6013	0.0171	0.00108
303.15	0.7046	0.02039	0.00128
303.15	0.8067	0.02393	0.00149
303.15	0.9059	0.02715	0.00168
313.15	0.1008	0.00366	0.00026
313.15	0.2035	0.00516	0.00035
313.15	0.3059	0.00681	0.00045
313.15	0.4053	0.00859	0.00055
313.15	0.5073	0.01048	0.00067
313.15	0.6013	0.01251	0.00079
313.15	0.7046	0.01491	0.00093
313.15	0.8067	0.01735	0.00108
313.15	0.9059	0.01968	0.00122
323.15	0.1008	0.00266	0.00019
323.15	0.2035	0.00389	0.00026
323.15	0.3059	0.00507	0.00033
323.15	0.4053	0.00651	0.00042
323.15	0.5073	0.00799	0.00051
323.15	0.6013	0.00951	0.0006
323.15	0.7046	0.01106	0.00069
323.15	0.8067	0.01299	0.00081
323.15	0.9059	0.0149	0.00092
293.15	1	0.04569	0.00277
303.15	1	0.03054	0.00185
313.15	1	0.02182	0.00132
323.15	1	0.01642	0.001
293.15	0	0.00438	0.00026
303.15	0	0.00324	0.0002
313.15	0	0.00247	0.00015
323.15	0	0.00195	0.00012

System: 1-ethyl-3-methylimidazolium tetrafluoroborate + aniline; phases: Liquid
Fixed: Pressure, kPa = 100
Property: Refractive index (Na D-line) (Liquid); method: Standard Abbe refractometry
Temperature, K	Mole fraction of 1-ethyl-3-methylimidazolium tetrafluoroborate	Refractive index (Na D-line)	uncertainty
293.15	0.1008	1.56571	0.00235
293.15	0.2035	1.54192	0.00241
293.15	0.3059	1.52125	0.00233
293.15	0.4053	1.50001	0.00232
293.15	0.5073	1.47963	0.00218
293.15	0.6013	1.46255	0.00189
293.15	0.7046	1.44852	0.00167
293.15	0.8067	1.43589	0.00159
293.15	0.9059	1.42458	0.00151
303.15	0.1008	1.56202	0.00238
303.15	0.2035	1.53814	0.00244
303.15	0.3059	1.51691	0.00234
303.15	0.4053	1.49592	0.00228
303.15	0.5073	1.47616	0.00216
303.15	0.6013	1.45885	0.00191
303.15	0.7046	1.44449	0.00168
303.15	0.8067	1.43188	0.00159
303.15	0.9059	1.42066	0.00151
313.15	0.1008	1.55833	0.0024
313.15	0.2035	1.53436	0.00245
313.15	0.3059	1.51285	0.00235
313.15	0.4053	1.49183	0.00225
313.15	0.5073	1.47269	0.00215
313.15	0.6013	1.45515	0.0019
313.15	0.7046	1.44126	0.00167
313.15	0.8067	1.42857	0.00158
313.15	0.9059	1.41748	0.0015
323.15	0.1008	1.55464	0.00242
323.15	0.2035	1.53058	0.00251
323.15	0.3059	1.5078	0.00237
323.15	0.4053	1.48774	0.00218
323.15	0.5073	1.46922	0.00208
323.15	0.6013	1.45245	0.00189
323.15	0.7046	1.43823	0.00168
323.15	0.8067	1.42556	0.00158
323.15	0.9059	1.41454	0.0015
293.15	1	1.41509	0.00106
303.15	1	1.41117	0.00106
313.15	1	1.40802	0.00106
323.15	1	1.40512	0.00106
293.15	0	1.58481	0.00104
303.15	0	1.58152	0.00104
313.15	0	1.57823	0.00104
323.15	0	1.57494	0.00104

System: 1-butyl-3-methylimidazolium tetrafluoroborate + aniline; phases: Liquid
Fixed: Pressure, kPa = 100
Property: Viscosity, Pa*s (Liquid); method: Falling or rolling sphere viscometry
Temperature, K	Mole fraction of 1-butyl-3-methylimidazolium tetrafluoroborate	Viscosity, Pa*s	uncertainty
293.15	0.1001	0.00766	0.00082
293.15	0.4991	0.03682	0.00237
293.15	0.6032	0.05014	0.00333
293.15	0.7021	0.06533	0.0043
293.15	0.7907	0.08122	0.00541
293.15	0.9026	0.10499	0.00724
303.15	0.1001	0.00546	0.00051
303.15	0.4991	0.02205	0.00142
303.15	0.6032	0.0311	0.0021
303.15	0.7021	0.04082	0.00269
303.15	0.7907	0.05078	0.0033
303.15	0.9026	0.06619	0.00427
313.15	0.1001	0.00404	0.00035
313.15	0.4991	0.01467	0.00094
313.15	0.6032	0.02079	0.0014
313.15	0.7021	0.02692	0.00177
313.15	0.7907	0.03347	0.00217
313.15	0.9026	0.04266	0.00273
323.15	0.1001	0.00308	0.00023
323.15	0.2028	0.00456	0.00033
323.15	0.4991	0.01052	0.00068
323.15	0.6032	0.01473	0.00098
323.15	0.7021	0.01858	0.00121
323.15	0.7907	0.02306	0.0015
323.15	0.9026	0.02965	0.00188
293.15	1	0.1357	0.00917
303.15	1	0.0804	0.00498
313.15	1	0.0514	0.0031
323.15	1	0.03492	0.00212
293.15	0	0.00438	0.00026
303.15	0	0.00324	0.0002
313.15	0	0.00247	0.00015
323.15	0	0.00195	0.00012

System: 1-butyl-3-methylimidazolium tetrafluoroborate + aniline; phases: Liquid
Fixed: Pressure, kPa = 100
Property: Refractive index (Na D-line) (Liquid); method: Standard Abbe refractometry
Temperature, K	Mole fraction of 1-butyl-3-methylimidazolium tetrafluoroborate	Refractive index (Na D-line)	uncertainty
293.15	0.1001	1.55273	0.00242
293.15	0.4991	1.47256	0.00218
293.15	0.6032	1.45814	0.00174
293.15	0.7021	1.44443	0.00163
293.15	0.7907	1.43496	0.00137
293.15	0.9026	1.42669	0.00124
303.15	0.1001	1.54951	0.00239
303.15	0.4991	1.46852	0.00222
303.15	0.6032	1.4544	0.0017
303.15	0.7021	1.44151	0.00157
303.15	0.7907	1.43264	0.00135
303.15	0.9026	1.42433	0.00124
313.15	0.1001	1.54532	0.0024
313.15	0.4991	1.46448	0.00221
313.15	0.6032	1.45067	0.00165
313.15	0.7021	1.43859	0.00152
313.15	0.7907	1.43031	0.00134
313.15	0.9026	1.42197	0.00125
323.15	0.1001	1.54114	0.00313
323.15	0.2028	1.51499	0.00224
323.15	0.4991	1.46044	0.00202
323.15	0.6032	1.44694	0.00161
323.15	0.7021	1.43567	0.00146
323.15	0.7907	1.42799	0.00132
323.15	0.9026	1.41961	0.00127
293.15	1	1.42144	0.00106
303.15	1	1.41913	0.00106
313.15	1	1.41621	0.00106
323.15	1	1.4133	0.00106
293.15	0	1.58481	0.00104
303.15	0	1.58152	0.00104
313.15	0	1.57823	0.00104
323.15	0	1.57494	0.00104
