Measured thermophysical data. Enthalpies of mixing of liquid Ag-Ga, Au-Ga and Ag-Au-Ga alloys
Source: J. Chem. Thermodyn., 2017, 10.1016/j.jct.2016.12.020
Compound 1: gold, Au, InChI=1S/Au, purity 99.9999%
Compound 2: silver, Ag, InChI=1S/Ag, purity 99.999%
Compound 3: gallium, Ga, InChI=1S/Ga, purity 99.99%

System: gallium + gold; phases: Liquid
Fixed: Pressure, kPa = 100
Property: Excess molar enthalpy (molar enthalpy of mixing), kJ/mol (Liquid); method: Calvet calorimetry
Temperature, K	Mole fraction of gold	Excess molar enthalpy (molar enthalpy of mixing), kJ/mol	uncertainty
1223	0.03042	-1.258	0.011
1223	0.0642	-2.624	0.021
1223	0.09685	-4.072	0.032
1223	0.12815	-5.474	0.043
1223	0.1606	-6.786	0.053
1223	0.19154	-7.979	0.063
1223	0.22046	-8.949	0.07
1223	0.24919	-9.917	0.078
1223	0.27624	-10.831	0.085
1223	0.30175	-11.66	0.091
1223	0.32742	-12.467	0.097
1223	0.35157	-13.193	0.103
1223	0.37409	-13.791	0.108
1223	0.39582	-14.242	0.111
1223	0.41638	-14.68	0.115
1223	0.43629	-15.006	0.122
1223	0.45534	-15.333	0.128
1223	0.47365	-15.62	0.134
1223	0.48709	-15.829	0.138
1223	0.50035	-15.958	0.144
1223	0.51386	-16.008	0.15
1223	0.52698	-16.062	0.157
1223	0.53949	-16.113	0.163
1223	0.55153	-16.159	0.169
1223	0.56312	-16.216	0.175
1223	0.57432	-16.234	0.183
1223	0.58496	-16.235	0.189
1223	0.59534	-16.241	0.196
1223	0.60527	-16.241	0.202
1223	0.61469	-16.214	0.209
1223	0.62391	-16.184	0.217
1223	0.63055	-16.158	0.22
1223	0.63702	-16.116	0.227
1223	0.64309	-16.037	0.232
1323	0.03979	-1.68	0.014
1323	0.07894	-3.295	0.026
1323	0.11601	-4.808	0.038
1323	0.15124	-6.244	0.049
1323	0.18433	-7.508	0.059
1323	0.2172	-8.724	0.068
1323	0.2492	-9.898	0.077
1323	0.27847	-10.861	0.085
1323	0.30738	-11.795	0.092
1323	0.33449	-12.609	0.098
1323	0.35968	-13.303	0.104
1323	0.38358	-13.886	0.108
1323	0.40605	-14.356	0.116
1323	0.42833	-14.771	0.124
1323	0.44904	-15.124	0.132
1323	0.46918	-15.46	0.141
1323	0.4882	-15.7	0.15
1323	0.49915	-15.885	0.155
1323	0.50957	-16.005	0.16
1323	0.52028	-16.104	0.166
1323	0.53073	-16.179	0.172
1323	0.5412	-16.239	0.178
1323	0.55145	-16.263	0.186
1323	0.56214	-16.275	0.194
1323	0.57272	-16.315	0.201
1323	0.58291	-16.301	0.209
1323	0.59275	-16.282	0.217
1323	0.60275	-16.237	0.226
1323	0.61293	-16.186	0.234
1323	0.62308	-16.059	0.244

System: silver + gallium; phases: Liquid
Fixed: Pressure, kPa = 100
Property: Excess molar enthalpy (molar enthalpy of mixing), kJ/mol (Liquid); method: Calvet calorimetry
Temperature, K	Mole fraction of silver	Excess molar enthalpy (molar enthalpy of mixing), kJ/mol	uncertainty
1223	0.04915	0.215	0.03
1223	0.0956	0.259	0.054
1223	0.13833	0.305	0.078
1223	0.17924	0.285	0.1
1223	0.21778	0.263	0.12
1223	0.25522	0.126	0.138
1223	0.29055	-0.009	0.154
1223	0.32281	-0.21	0.168
1223	0.35277	-0.401	0.182
1223	0.38094	-0.585	0.194
1223	0.40814	-0.807	0.206
1223	0.43358	-1.055	0.216
1223	0.45717	-1.288	0.224
1223	0.47891	-1.448	0.234
1223	0.49918	-1.629	0.242
1223	0.51888	-1.872	0.251
1223	0.53715	-2.068	0.257
1223	0.55476	-2.238	0.265
1223	0.57119	-2.403	0.271
1323	0.05283	0.223	0.032
1323	0.10059	0.415	0.06
1323	0.14641	0.469	0.086
1323	0.18944	0.449	0.11
1323	0.22876	0.409	0.13
1323	0.26489	0.354	0.15
1323	0.29957	0.217	0.166
1323	0.33206	0.025	0.182
1323	0.36337	-0.217	0.196
1323	0.39213	-0.397	0.208
1323	0.41888	-0.602	0.22
1323	0.44428	-0.828	0.232
1323	0.46866	-0.949	0.244
1323	0.49638	-1.147	0.256
1323	0.51681	-1.306	0.264
1323	0.53592	-1.44	0.274
1323	0.55584	-1.613	0.283

System: silver + gallium + gold; phases: Liquid
Fixed: Pressure, kPa = 100
Property: Excess molar enthalpy (molar enthalpy of mixing), kJ/mol (Liquid); method: Calvet calorimetry
Temperature, K	Mole fraction of silver	Mole fraction of gold	Excess molar enthalpy (molar enthalpy of mixing), kJ/mol	uncertainty
1223	0.50013	0	-1.629	0.243
1223	0.48368	0.03288	-2.756	0.25
1223	0.46746	0.06531	-3.871	0.252
1223	0.45204	0.09615	-4.933	0.255
1223	0.4376	0.12501	-5.926	0.258
1223	0.42267	0.15487	-6.953	0.261
1223	0.40864	0.18292	-7.875	0.262
1223	0.39547	0.20925	-8.705	0.266
1223	0.38294	0.2343	-9.426	0.267
1223	0.37067	0.25885	-10.097	0.268
1223	0.35909	0.282	-10.624	0.273
1223	0.34788	0.30441	-11.078	0.279
1223	0.33704	0.32609	-11.508	0.286
1223	0.32661	0.34694	-11.86	0.293
1223	0.31651	0.36714	-12.135	0.301
1223	0.30631	0.38754	-12.416	0.309
1223	0.29633	0.4075	-12.668	0.317
1223	0.28693	0.42628	-12.851	0.326
1223	0.2774	0.44533	-12.976	0.333
1223	0.27253	0.45508	-13.049	0.339
1223	0.26766	0.46481	-13.081	0.343
1223	0.26277	0.47458	-13.11	0.349
1223	0.25765	0.48483	-13.088	0.355
1223	0.25254	0.49505	-13.066	0.36
1223	0.24746	0.5052	-12.99	0.368
1223	0.24254	0.51503	-12.922	0.376
1223	0.23772	0.52469	-12.864	0.381
1223	0.23306	0.53399	-12.813	0.387
1223	0.2285	0.54312	-12.759	0.393
1223	0.2241	0.55192	-12.681	0.399
1223	0.21964	0.56083	-12.623	0.406
1223	0.2151	0.56992	-12.562	0.412
1223	0.21069	0.57873	-12.489	0.418
1223	0.2064	0.58731	-12.389	0.423
1223	0.20195	0.5962	-12.317	0.431
1223	0.19762	0.60486	-12.193	0.437
1223	0.19332	0.61345	-12.049	0.444
1223	0.49994	0	-1.629	0.243
1223	0.48438	0.03111	-3.021	0.25
1223	0.46955	0.06079	-4.121	0.251
1223	0.45533	0.08922	-5.131	0.251
1223	0.43996	0.11997	-6.221	0.252
1223	0.42546	0.14898	-7.213	0.255
1223	0.41158	0.17673	-8.15	0.257
1223	0.39819	0.20352	-8.968	0.262
1223	0.38556	0.22878	-9.673	0.267
1223	0.3733	0.25331	-10.283	0.274
1223	0.36149	0.27692	-10.842	0.281
1223	0.34962	0.30068	-11.327	0.288
1223	0.33829	0.32333	-11.768	0.296
1223	0.32693	0.34605	-12.143	0.307
1223	0.31631	0.3673	-12.457	0.315
1223	0.306	0.38792	-12.698	0.327
1223	0.29635	0.40723	-12.881	0.337
1223	0.28724	0.42544	-13.055	0.347
1223	0.27804	0.44385	-13.148	0.359
1223	0.2732	0.45353	-13.17	0.365
1223	0.26842	0.4631	-13.228	0.37
1223	0.2634	0.47314	-13.248	0.378
1223	0.25815	0.48364	-13.268	0.384
1223	0.25304	0.49387	-13.264	0.392
1223	0.24809	0.50375	-13.219	0.4
1223	0.24315	0.51364	-13.207	0.408
1223	0.23827	0.5234	-13.102	0.417
1223	0.23332	0.5333	-13.052	0.425
1223	0.22838	0.54318	-13.028	0.432
1223	0.22362	0.55271	-12.926	0.442
1223	0.219	0.56194	-12.83	0.449
1223	0.21421	0.57153	-12.718	0.459
1223	0.20953	0.58089	-12.611	0.467
1223	0.20495	0.59005	-12.516	0.476
1223	0.20049	0.59897	-12.407	0.484
1223	0.19619	0.60758	-12.284	0.494
1223	0.19196	0.61603	-12.147	0.502
1323	0.49994	0	-1.147	0.256
1323	0.48575	0.02839	-2.275	0.257
1323	0.47184	0.0562	-3.363	0.257
1323	0.45663	0.08662	-4.506	0.26
1323	0.44223	0.11543	-5.554	0.263
1323	0.42862	0.14266	-6.524	0.266
1323	0.41437	0.17116	-7.461	0.272
1323	0.40036	0.19919	-8.345	0.279
1323	0.38697	0.22597	-9.174	0.284
1323	0.3742	0.25151	-9.908	0.291
1323	0.36157	0.27677	-10.564	0.3
1323	0.34958	0.30075	-11.158	0.308
1323	0.33828	0.32336	-11.539	0.319
1323	0.3272	0.34551	-11.856	0.331
1323	0.31671	0.36651	-12.041	0.345
1323	0.30677	0.38639	-12.222	0.357
1323	0.2972	0.40553	-12.418	0.369
1323	0.28818	0.42357	-12.625	0.381
1323	0.27068	0.45857	-13.122	0.399
1323	0.26396	0.47202	-12.955	0.414
1323	0.25728	0.48538	-12.899	0.426
1323	0.25084	0.49826	-12.847	0.438
1323	0.24445	0.51105	-12.754	0.449
1323	0.23829	0.52337	-12.702	0.461
1323	0.23187	0.5362	-12.643	0.473
1323	0.22579	0.54837	-12.569	0.484
1323	0.21995	0.56005	-12.41	0.496
1323	0.21431	0.57133	-12.347	0.506
1323	0.20887	0.58222	-12.211	0.517
1323	0.20525	0.58946	-12.083	0.527
1323	0.20177	0.59641	-11.973	0.535
1323	0.19846	0.60304	-11.875	0.543
1323	0.1954	0.60915	-11.824	0.549
1323	0.19247	0.61501	-11.785	0.554
1323	0.49994	0	-1.147	0.256
1323	0.47952	0.04085	-2.74	0.257
1323	0.45912	0.08164	-4.283	0.26
1323	0.44025	0.11939	-5.669	0.263
1323	0.42234	0.15521	-6.916	0.267
1323	0.40567	0.18857	-7.951	0.272
1323	0.39018	0.21954	-8.921	0.278
1323	0.37559	0.24872	-9.702	0.285
1323	0.36167	0.27658	-10.41	0.29
1323	0.34861	0.30268	-10.985	0.299
1323	0.33644	0.32703	-11.546	0.305
1323	0.32509	0.34973	-12.004	0.312
1323	0.31407	0.37178	-12.366	0.32
1323	0.30377	0.39239	-12.676	0.327
1323	0.29408	0.41177	-12.777	0.337
1323	0.28449	0.43096	-12.807	0.346
1323	0.27535	0.44923	-12.833	0.356
1323	0.26671	0.46651	-12.851	0.366
1323	0.25837	0.4832	-12.963	0.374
1223	0	0.5	-15.958	0.144
1223	0.08355	0.45823	-15.056	0.166
1223	0.15506	0.42247	-14.309	0.189
1223	0.21804	0.39098	-13.472	0.213
1223	0.27437	0.36281	-12.699	0.236
1223	0.32504	0.33748	-12.011	0.259
1223	0.36996	0.31502	-11.329	0.28
1223	0.41072	0.29464	-10.765	0.298
1223	0.44822	0.27589	-10.357	0.317
1223	0.48129	0.25935	-9.926	0.33
1223	0.51076	0.24462	-9.408	0.345
1223	0.53791	0.23104	-8.985	0.358
1223	0.56225	0.21888	-8.601	0.372
1223	0.58442	0.20779	-8.306	0.381
1223	0.60501	0.1975	-7.971	0.394
1223	0.62503	0.18749	-7.631	0.402
1223	0.64545	0.17728	-7.294	0.413
1223	0.66567	0.16716	-6.855	0.425
1223	0.67433	0.16284	-6.814	0.429
1223	0.6831	0.15845	-6.616	0.433
1223	0.69166	0.15417	-6.375	0.438
1223	0.70016	0.14992	-6.182	0.444
1223	0.70831	0.14585	-5.992	0.45
1223	0.71663	0.14169	-5.845	0.454
1223	0.72473	0.13764	-5.696	0.458
1223	0.73251	0.13375	-5.568	0.462
1223	0.73992	0.13004	-5.442	0.466
1223	0.74702	0.12649	-5.294	0.47
1223	0.75388	0.12306	-5.185	0.474
1223	0.76052	0.11974	-5.05	0.477
1223	0.76709	0.11646	-4.953	0.481
1223	0.77374	0.11313	-4.838	0.485
1223	0.78013	0.10993	-4.737	0.487
1223	0.78622	0.10689	-4.635	0.491
1223	0.79235	0.10382	-4.521	0.495
1223	0.79849	0.10075	-4.409	0.499
1223	0	0.5	-15.958	0.144
1223	0.07924	0.46038	-15.235	0.163
1223	0.14842	0.42579	-14.625	0.186
1223	0.21186	0.39407	-13.979	0.206
1223	0.26988	0.36506	-13.169	0.228
1223	0.32103	0.33948	-12.549	0.249
1223	0.36636	0.31682	-11.945	0.269
1223	0.4074	0.2963	-11.333	0.288
1223	0.44442	0.27779	-10.826	0.307
1223	0.47741	0.26129	-10.32	0.319
1223	0.50709	0.24646	-9.852	0.334
1223	0.53434	0.23283	-9.411	0.347
1223	0.56008	0.21996	-8.981	0.361
1223	0.58298	0.20851	-8.562	0.373
1223	0.60393	0.19803	-8.164	0.386
1223	0.62352	0.18824	-7.82	0.394
1223	0.64197	0.17902	-7.38	0.405
1223	0.65887	0.17056	-7.025	0.415
1223	0.67565	0.16217	-6.77	0.423
1223	0.69133	0.15434	-6.552	0.431
1323	0	0.49987	-15.885	0.155
1323	0.09879	0.45049	-14.839	0.212
1323	0.18771	0.40604	-13.901	0.271
1323	0.26256	0.36862	-12.867	0.329
1323	0.32662	0.3366	-12.045	0.38
1323	0.3825	0.30866	-11.364	0.422
1323	0.43017	0.28484	-10.538	0.466
1323	0.47153	0.26416	-10.004	0.499
1323	0.50795	0.24596	-9.506	0.528
1323	0.54024	0.22982	-8.925	0.558
1323	0.57001	0.21494	-8.343	0.587
1323	0.59659	0.20165	-7.829	0.613
1323	0.62027	0.18981	-7.37	0.634
1323	0.64133	0.17929	-6.94	0.656
1323	0.6606	0.16965	-6.582	0.674
1323	0.67856	0.16068	-6.239	0.692
1323	0.69551	0.15221	-5.955	0.707
1323	0.71172	0.1441	-5.776	0.719
1323	0.72688	0.13652	-5.406	0.735
1323	0	0.50027	-15.885	0.155
1323	0.12089	0.43979	-14.543	0.225
1323	0.2157	0.39236	-13.34	0.292
1323	0.29219	0.3541	-12.352	0.349
1323	0.35975	0.3203	-11.722	0.397
1323	0.41901	0.29065	-10.924	0.445
1323	0.46929	0.2655	-10.166	0.486
1323	0.51495	0.24266	-9.554	0.522
1323	0.55358	0.22333	-8.925	0.556
1323	0.5867	0.20676	-8.34	0.585
1323	0.61592	0.19214	-7.811	0.613
1323	0.64214	0.17903	-7.382	0.637
1323	0.66613	0.16703	-6.904	0.658
1323	0.68718	0.15649	-6.45	0.68
1323	0.70611	0.14703	-5.964	0.699
