Measured thermophysical data. A calorimetric and computational study of the thermochemistry of halogenated 1-phenylpyrrole derivatives
Source: J. Chem. Thermodyn., 2010, 10.1016/j.jct.2010.06.012
Compound 1: iodine, I2, InChI=1S/I2/c1-2
Compound 2: carbon dioxide, CO2, InChI=1S/CO2/c2-1-3
Compound 3: nitrogen, N2, InChI=1S/N2/c1-2
Compound 4: water, H2O, InChI=1S/H2O/h1H2
Compound 5: oxygen, O2, InChI=1S/O2/c1-2
Compound 6: hydrogen fluoride, FH, InChI=1S/FH/h1H
Compound 7: hydrogen chloride, ClH, InChI=1S/ClH/h1H
Compound 8: 1-(4-iodophenyl)pyrrole, C10H8IN, InChI=1S/C10H8IN/c11-9-3-5-10(6-4-9)12-7-1-2-8-12/h1-8H, purity 97%
Compound 9: 1-(4-chlorophenyl)-1H-pyrrole, C10H8ClN, InChI=1S/C10H8ClN/c11-9-3-5-10(6-4-9)12-7-1-2-8-12/h1-8H, purity 97%
Compound 10: 1-(4-fluorophenyl)pyrrole, C10H8FN, InChI=1S/C10H8FN/c11-9-3-5-10(6-4-9)12-7-1-2-8-12/h1-8H, purity 98%

System: 1-(4-iodophenyl)pyrrole; phases: Crystal, Gas
Property: Vapor or sublimation pressure, kPa (Crystal); method: Calculated from knudsen effusion weight loss
Temperature, K	Vapor or sublimation pressure, kPa	uncertainty
319.11	0.000107	5e-06
319.11	0.000112	6e-06
319.11	0.000109	5e-06
321.19	0.000142	7e-06
321.19	0.00014	7e-06
321.19	0.000137	7e-06
323.18	0.000174	9e-06
323.18	0.000169	8e-06
323.18	0.000169	8e-06
325.12	0.00021	1.1e-05
325.12	0.000218	1.1e-05
325.12	0.000216	1.1e-05
327.19	0.000274	1.4e-05
327.19	0.00027	1.4e-05
327.19	0.000265	1.3e-05
329.18	0.000336	1.7e-05
329.18	0.000331	1.7e-05
329.18	0.000329	1.6e-05
331.11	0.000402	2e-05
331.11	0.000421	2.1e-05
331.11	0.000416	2.1e-05
333.17	0.00052	2.6e-05
333.17	0.000522	2.6e-05
333.17	0.000508	2.5e-05
335.17	0.000639	3.2e-05
335.17	0.000628	3.1e-05
335.17	0.000624	3.1e-05
337.12	0.000778	3.9e-05
337.12	0.000814	4.1e-05
337.12	0.000806	4e-05
339.19	0.001022	0.000103
339.19	0.001014	0.000102
339.19	0.000977	4.9e-05
341.17	0.001237	0.000129
341.17	0.001212	0.000126
341.17	0.001211	0.000126

System: 1-(4-chlorophenyl)-1H-pyrrole; phases: Crystal, Gas
Property: Vapor or sublimation pressure, kPa (Crystal); method: Calculated from knudsen effusion weight loss
Temperature, K	Vapor or sublimation pressure, kPa	uncertainty
295.22	0.000183	9e-06
295.22	0.000176	9e-06
295.22	0.000175	9e-06
297.17	0.000227	1.1e-05
297.17	0.00022	1.1e-05
297.17	0.000219	1.1e-05
299.22	0.000289	1.4e-05
299.22	0.000279	1.4e-05
299.22	0.000275	1.4e-05
301.12	0.000378	1.9e-05
301.12	0.000363	1.8e-05
301.12	0.000364	1.8e-05
303.17	0.000467	2.3e-05
303.17	0.000463	2.3e-05
303.17	0.000451	2.3e-05
305.21	0.000595	3e-05
305.21	0.000571	2.9e-05
305.21	0.000558	2.8e-05
307.1	0.000744	3.7e-05
307.1	0.000715	3.6e-05
307.1	0.000706	3.5e-05
309.12	0.000904	4.5e-05
309.12	0.000892	4.5e-05
309.12	0.000871	4.4e-05
311.22	0.001132	0.000116
311.22	0.001115	0.000114
311.22	0.001084	0.00011

System: 1-(4-fluorophenyl)pyrrole; phases: Crystal, Gas
Property: Vapor or sublimation pressure, kPa (Crystal); method: Calculated from knudsen effusion weight loss
Temperature, K	Vapor or sublimation pressure, kPa	uncertainty
271.14	0.000157	8e-06
271.14	0.000149	7e-06
271.14	0.000152	8e-06
273.16	0.0002	1e-05
273.16	0.0002	1e-05
273.16	0.000197	1e-05
275.2	0.000237	1.2e-05
275.2	0.000236	1.2e-05
275.2	0.000237	1.2e-05
277.18	0.000313	1.6e-05
277.18	0.000303	1.5e-05
277.18	0.000288	1.4e-05
279.18	0.000396	2e-05
279.18	0.000393	2e-05
279.18	0.000391	2e-05
281.18	0.000509	2.6e-05
281.18	0.000505	2.5e-05
281.18	0.000497	2.5e-05
283.12	0.000688	3.4e-05
283.12	0.000694	3.5e-05
283.12	0.00068	3.4e-05
285.13	0.000863	4.3e-05
285.13	0.000854	4.3e-05
285.13	0.000832	4.2e-05
287.17	0.001072	0.000109
287.17	0.001068	0.000108
287.17	0.001064	0.000108

Reaction: .5 iodine + -1 1-(4-iodophenyl)pyrrole + 10 carbon dioxide + .5 nitrogen + 4 water + -12 oxygen
Property: Specific internal energy of reaction at constant volume, J/g
-19644.8

Reaction: 1 hydrogen fluoride + -1 1-(4-fluorophenyl)pyrrole + 10 carbon dioxide + .5 nitrogen + 3.5 water + -11.75 oxygen
Property: Specific internal energy of reaction at constant volume, J/g
-32273.4

Reaction: -1 1-(4-chlorophenyl)-1H-pyrrole + 1 hydrogen chloride + 10 carbon dioxide + .5 nitrogen + 3.5 water + -11.75 oxygen
Property: Specific internal energy of reaction at constant volume, J/g
-29311.6
