Measured thermophysical data. Phase equilibria of liquid (water + butyric acid + oleyl alcohol) ternary system
Source: J. Chem. Thermodyn., 2006, 10.1016/j.jct.2006.03.017
Compound 1: butanoic acid, C4H8O2, InChI=1S/C4H8O2/c1-2-3-4(5)6/h2-3H2,1H3,(H,5,6), purity 99%
Compound 2: (Z)-9-octadecen-1-ol, C18H36O, InChI=1S/C18H36O/c1-2-3-4-5-6-7-8-9-10-11-12-13-14-15-16-17-18-19/h9-10,19H,2-8,11-18H2,1H3/b10-9-, purity 85%
Compound 3: water, H2O, InChI=1S/H2O/h1H2

System: butanoic acid; phases: Liquid, Gas
Property: Normal boiling temperature, K (Liquid); method: Distillation
Normal boiling temperature, K	uncertainty
436.67	0.21

System: butanoic acid; phases: Liquid
Property: Refractive index (Na D-line) (Liquid); method: Standard Abbe refractometry
Temperature, K	Pressure, kPa	Refractive index (Na D-line)	uncertainty
293.15	101.325	1.3982	0.0012

System: butanoic acid; phases: Liquid
Property: Mass density, kg/m3 (Liquid); method: VIBTUB:UFactor:6
Temperature, K	Pressure, kPa	Mass density, kg/m3	uncertainty
293.15	101.325	957.6	0.47

System: (Z)-9-octadecen-1-ol; phases: Liquid, Gas
Property: Vapor or sublimation pressure, kPa (Liquid); method: Distillation
Temperature, K	Vapor or sublimation pressure, kPa	uncertainty
480.05	2	1

System: (Z)-9-octadecen-1-ol; phases: Liquid
Property: Refractive index (Na D-line) (Liquid); method: Standard Abbe refractometry
Temperature, K	Pressure, kPa	Refractive index (Na D-line)	uncertainty
293.15	101.325	1.4603	0.0032

System: (Z)-9-octadecen-1-ol; phases: Liquid
Property: Mass density, kg/m3 (Liquid); method: VIBTUB:UFactor:6
Temperature, K	Pressure, kPa	Mass density, kg/m3	uncertainty
293.15	101.325	848.5	43.97

System: butanoic acid + (Z)-9-octadecen-1-ol + water; phases: Liquid mixture 1, Liquid
Fixed: Pressure, kPa = 101.325
Property: Mass fraction of water (Liquid mixture 1); method: Titration method
Property: Mass fraction of water (Liquid); method: Titration method
Property: Mass fraction of butanoic acid (Liquid); method: Titration method
Temperature, K	Mass fraction of butanoic acid	Mass fraction of water	uncertainty	Mass fraction of water	uncertainty	Mass fraction of butanoic acid	uncertainty
298.15	0.0394	0.0021	0.0021	0.9754	0.0041	0.0233	
298.15	0.1183	0.0042	0.004	0.9533	0.0043	0.0448	
298.15	0.1732	0.0051	0.004	0.9343	0.0046	0.0637	
298.15	0.224	0.0068	0.004	0.9173	0.0049	0.0804	
298.15	0.3157	0.0082	0.0041	0.9022	0.0052	0.0953	
298.15	0.3991	0.0238	0.0045	0.8868	0.0056	0.1103	
298.15	0.4752	0.0491	0.0057	0.8753	0.0059	0.1213	
298.15	0.5124	0.0702	0.0073	0.866	0.0062	0.1298	
308.15	0.0447	0.0079	0.004	0.977	0.0041	0.0216	
308.15	0.1175	0.0121	0.004	0.9503	0.0043	0.0476	
308.15	0.204	0.0155	0.004	0.9307	0.0047	0.067	
308.15	0.2693	0.0203	0.0041	0.9159	0.0049	0.0811	
308.15	0.3484	0.0311	0.0043	0.8952	0.0054	0.1015	
308.15	0.4152	0.0444	0.0046	0.8802	0.0058	0.1162	
308.15	0.4765	0.0618	0.0063	0.8687	0.0061	0.1275	
308.15	0.5167	0.0921	0.0098	0.8573	0.0064	0.1384	
318.15	0.0376	0.0125	0.004	0.9782	0.0041	0.0203	
318.15	0.1319	0.0193	0.004	0.9585	0.0042	0.0395	
318.15	0.1978	0.0199	0.0041	0.9399	0.0045	0.0579	
318.15	0.2621	0.0353	0.0043	0.9184	0.0049	0.079	
318.15	0.2969	0.0425	0.0043	0.909	0.0051	0.0882	
318.15	0.3619	0.0494	0.0047	0.8968	0.0054	0.1001	
318.15	0.4336	0.0802	0.006	0.8815	0.0058	0.1151	
318.15	0.4988	0.1111	0.0069	0.8675	0.0061	0.128	
