Measured thermophysical data. Experimental studies on the thermal conductivity of methyl laurate component of biodiesel with three alcohols
Source: J. Chem. Thermodyn., 2019, 10.1016/j.jct.2019.105881
Compound 1: methyl dodecanoate, C13H26O2, InChI=1S/C13H26O2/c1-3-4-5-6-7-8-9-10-11-12-13(14)15-2/h3-12H2,1-2H3, purity 99%
Compound 2: propan-1-ol, C3H8O, InChI=1S/C3H8O/c1-2-3-4/h4H,2-3H2,1H3, purity 99.5%
Compound 3: butan-1-ol, C4H10O, InChI=1S/C4H10O/c1-2-3-4-5/h5H,2-4H2,1H3, purity 99.5%
Compound 4: pentan-1-ol, C5H12O, InChI=1S/C5H12O/c1-2-3-4-5-6/h6H,2-5H2,1H3, purity 99%

System: methyl dodecanoate + propan-1-ol; phases: Liquid
Fixed: Pressure, kPa = 100
Property: Thermal conductivity, W/m/K (Liquid); method: THOTW
Mass fraction of methyl dodecanoate	Temperature, K	Thermal conductivity, W/m/K	uncertainty
0.1	287.91	0.1542	0.0062
0.1	297.79	0.1517	0.0061
0.1	307.66	0.1492	0.006
0.1	317.62	0.1474	0.0059
0.1	327.67	0.1446	0.0058
0.1	337.22	0.1423	0.0057
0.1	347.19	0.139	0.0056
0.1	357.25	0.1365	0.0055
0.298	287.9	0.1522	0.0061
0.298	297.93	0.1494	0.006
0.298	307.83	0.1474	0.0059
0.298	317.53	0.1451	0.0058
0.298	327.34	0.1424	0.0057
0.298	337.4	0.14	0.0056
0.298	347.24	0.1374	0.0055
0.298	357.44	0.1351	0.0054
0.4998	288	0.1509	0.0061
0.4998	297.85	0.1484	0.006
0.4998	307.76	0.1457	0.0059
0.4998	317.67	0.1436	0.0058
0.4998	327.67	0.1412	0.0057
0.4998	337.64	0.1391	0.0056
0.4998	347.52	0.1368	0.0055
0.4998	357.79	0.1344	0.0054
0.6993	287.68	0.1497	0.006
0.6993	297.73	0.1473	0.0059
0.6993	308.03	0.1452	0.0058
0.6993	317.86	0.1429	0.0058
0.6993	328.03	0.1405	0.0057
0.6993	337.82	0.1384	0.0056
0.6993	347.82	0.1362	0.0055
0.6993	357.91	0.1337	0.0054
0.8996	288.06	0.1484	0.006
0.8996	297.85	0.1467	0.0059
0.8996	307.89	0.1445	0.0058
0.8996	318.02	0.1422	0.0057
0.8996	327.68	0.1398	0.0056
0.8996	337.85	0.1377	0.0055
0.8996	347.93	0.135	0.0054
0.8996	357.93	0.1326	0.0053

System: methyl dodecanoate + butan-1-ol; phases: Liquid
Fixed: Pressure, kPa = 100
Property: Thermal conductivity, W/m/K (Liquid); method: THOTW
Mass fraction of methyl dodecanoate	Temperature, K	Thermal conductivity, W/m/K	uncertainty
0.1013	287.94	0.1515	0.0061
0.1013	297.76	0.1489	0.006
0.1013	307.79	0.1465	0.0059
0.1013	317.75	0.144	0.0058
0.1013	327.6	0.1419	0.0057
0.1013	337.47	0.1395	0.0056
0.1013	347.23	0.1368	0.0055
0.1013	357.28	0.1342	0.0054
0.3009	287.91	0.1499	0.006
0.3009	297.95	0.1475	0.0059
0.3009	307.81	0.1457	0.0059
0.3009	317.67	0.1434	0.0058
0.3009	327.69	0.1411	0.0057
0.3009	337.45	0.1386	0.0056
0.3009	347.28	0.1361	0.0055
0.3009	357.25	0.1333	0.0054
0.5027	287.95	0.1492	0.006
0.5027	297.92	0.1471	0.0059
0.5027	307.83	0.1452	0.0058
0.5027	317.8	0.1426	0.0057
0.5027	327.94	0.14	0.0056
0.5027	337.93	0.1378	0.0055
0.5027	347.73	0.1358	0.0055
0.5027	357.82	0.133	0.0054
0.6997	288.07	0.1488	0.006
0.6997	297.9	0.1469	0.0059
0.6997	307.985	0.1445	0.0058
0.6997	317.88	0.1424	0.0057
0.6997	327.94	0.1398	0.0056
0.6997	337.96	0.1375	0.0055
0.6997	347.67	0.1354	0.0054
0.6997	357.87	0.1327	0.0053
0.8996	288.14	0.1485	0.006
0.8996	298.02	0.1463	0.0059
0.8996	307.96	0.1441	0.0058
0.8996	317.83	0.1422	0.0057
0.8996	328.11	0.139	0.0056
0.8996	337.95	0.1371	0.0055
0.8996	347.86	0.135	0.0054
0.8996	357.71	0.1322	0.0053

System: methyl dodecanoate + pentan-1-ol; phases: Liquid
Fixed: Pressure, kPa = 100
Property: Thermal conductivity, W/m/K (Liquid); method: THOTW
Mass fraction of methyl dodecanoate	Temperature, K	Thermal conductivity, W/m/K	uncertainty
0.1021	288	0.1503	0.0061
0.1021	297.82	0.1486	0.006
0.1021	307.72	0.1468	0.0059
0.1021	317.72	0.1441	0.0058
0.1021	327.58	0.1422	0.0057
0.1021	337.42	0.1399	0.0056
0.1021	347.65	0.138	0.0056
0.1021	357.16	0.1364	0.0055
0.2997	287.86	0.1497	0.006
0.2997	298.07	0.148	0.006
0.2997	307.84	0.1455	0.0059
0.2997	317.72	0.1435	0.0058
0.2997	327.68	0.1412	0.0057
0.2997	337.53	0.139	0.0056
0.2997	347.5	0.137	0.0055
0.2997	357.47	0.135	0.0054
0.5029	287.92	0.1493	0.006
0.5029	297.86	0.1475	0.0059
0.5029	307.8	0.1453	0.0058
0.5029	317.85	0.1429	0.0058
0.5029	327.72	0.141	0.0057
0.5029	337.67	0.1389	0.0056
0.5029	347.66	0.1368	0.0055
0.5029	357.65	0.1348	0.0054
0.6756	287.79	0.1488	0.006
0.6756	297.95	0.1469	0.0059
0.6756	307.78	0.145	0.0058
0.6756	317.8	0.1424	0.0057
0.6756	327.7	0.1407	0.0057
0.6756	337.76	0.1385	0.0056
0.6756	347.78	0.1356	0.0055
0.6756	357.73	0.1335	0.0054
0.8983	288.01	0.1482	0.006
0.8983	298.1	0.1456	0.0059
0.8983	307.9	0.1441	0.0058
0.8983	317.85	0.1419	0.0057
0.8983	327.87	0.1397	0.0056
0.8983	337.85	0.1373	0.0055
0.8983	347.7	0.1352	0.0054
0.8983	357.79	0.1332	0.0054
