Measured thermophysical data. The fusion thermochemistry of self-associated aromatic compounds at 298.15 K studied by solution calorimetry
Source: J. Chem. Thermodyn., 2019, 10.1016/j.jct.2019.05.015
Compound 1: 4-methylphenol, C7H8O, InChI=1S/C7H8O/c1-6-2-4-7(8)5-3-6/h2-5,8H,1H3, purity 99%
Compound 2: 1-naphthol, C10H8O, InChI=1S/C10H8O/c11-10-7-3-5-8-4-1-2-6-9(8)10/h1-7,11H
Compound 3: 2-hydroxynaphthalene, C10H8O, InChI=1S/C10H8O/c11-10-6-5-8-3-1-2-4-9(8)7-10/h1-7,11H, purity 99%
Compound 4: 1,6-dihydroxynaphthalene, C10H8O2, InChI=1S/C10H8O2/c11-8-4-5-9-7(6-8)2-1-3-10(9)12/h1-6,11-12H, purity 99%
Compound 5: 1,3-benzenediol, C6H6O2, InChI=1S/C6H6O2/c7-5-2-1-3-6(8)4-5/h1-4,7-8H, purity 99%
Compound 6: 3-methoxyphenol, C7H8O2, InChI=1S/C7H8O2/c1-9-7-4-2-3-6(8)5-7/h2-5,8H,1H3, purity 97%
Compound 7: 3-methylaniline, C7H9N, InChI=1S/C7H9N/c1-6-3-2-4-7(8)5-6/h2-5H,8H2,1H3, purity 99%
Compound 8: 4-methylaniline, C7H9N, InChI=1S/C7H9N/c1-6-2-4-7(8)5-3-6/h2-5H,8H2,1H3, purity 99%
Compound 9: 1-naphthalenamine, C10H9N, InChI=1S/C10H9N/c11-10-7-3-5-8-4-1-2-6-9(8)10/h1-7H,11H2, purity 99%
Compound 10: 2-naphthalenamine, C10H9N, InChI=1S/C10H9N/c11-10-6-5-8-3-1-2-4-9(8)7-10/h1-7H,11H2, purity 95%
Compound 11: 1,3-benzenediamine, C6H8N2, InChI=1S/C6H8N2/c7-5-2-1-3-6(8)4-5/h1-4H,7-8H2, purity 98%
Compound 12: 4-chlorobenzenamine, C6H6ClN, InChI=1S/C6H6ClN/c7-5-1-3-6(8)4-2-5/h1-4H,8H2, purity 98%
Compound 13: aniline, C6H7N, InChI=1S/C6H7N/c7-6-4-2-1-3-5-6/h1-5H,7H2, purity 98%
Compound 14: anisole, C7H8O, InChI=1S/C7H8O/c1-8-7-5-3-2-4-6-7/h2-6H,1H3, purity 99%

System: 4-methylphenol; phases: Crystal, Liquid, Air at 1 atmosphere
Property: Normal melting temperature, K (Crystal); method: DTA
Normal melting temperature, K	uncertainty
307.9	0.4

System: 4-methylphenol; phases: Crystal, Liquid, Air at 1 atmosphere
Property: Molar enthalpy of transition or fusion, kJ/mol (Crystal); method: DSC
Molar enthalpy of transition or fusion, kJ/mol	uncertainty
11.76	0.45

System: 1-naphthol; phases: Crystal, Liquid, Air at 1 atmosphere
Property: Normal melting temperature, K (Crystal); method: DTA
Normal melting temperature, K	uncertainty
367.9	0.4

System: 1-naphthol; phases: Crystal, Liquid, Air at 1 atmosphere
Property: Molar enthalpy of transition or fusion, kJ/mol (Crystal); method: DSC
Molar enthalpy of transition or fusion, kJ/mol	uncertainty
21.9	0.5

System: 2-hydroxynaphthalene; phases: Crystal, Liquid, Air at 1 atmosphere
Property: Normal melting temperature, K (Crystal); method: DTA
Normal melting temperature, K	uncertainty
394.3	0.4

System: 2-hydroxynaphthalene; phases: Crystal, Liquid, Air at 1 atmosphere
Property: Molar enthalpy of transition or fusion, kJ/mol (Crystal); method: DSC
Molar enthalpy of transition or fusion, kJ/mol	uncertainty
22.4	0.58

System: 1,6-dihydroxynaphthalene; phases: Crystal, Liquid, Air at 1 atmosphere
Property: Normal melting temperature, K (Crystal); method: DTA
Normal melting temperature, K	uncertainty
410.2	0.4

System: 1,6-dihydroxynaphthalene; phases: Crystal, Liquid, Air at 1 atmosphere
Property: Molar enthalpy of transition or fusion, kJ/mol (Crystal); method: DSC
Molar enthalpy of transition or fusion, kJ/mol	uncertainty
25.83	0.78

System: 1,6-dihydroxynaphthalene; phases: Glass, Liquid, Air at 1 atmosphere
Property: Triple point temperature, K (Glass); method: DSC
Triple point temperature, K	uncertainty
305	2

System: 1,6-dihydroxynaphthalene; phases: Crystal
Fixed: Pressure, kPa = 101.325
Property: Molar heat capacity at constant pressure, J/K/mol (Crystal); method: DSC
Temperature, K	Molar heat capacity at constant pressure, J/K/mol	uncertainty
323	197.9	7.7
343	210.6	8.2
363	223.2	8.6
383	235.9	9.1

System: 1,6-dihydroxynaphthalene; phases: Crystal
Fixed: Pressure, kPa = 101.325
Property: Molar heat capacity at constant pressure, J/K/mol (Crystal); method: DSC
Temperature, K	Molar heat capacity at constant pressure, J/K/mol	uncertainty
243	149.1	6.1
263	161.4	6.6
283	173.7	7.1
303	186	7.6
323	198.4	8
343	210.7	8.4
363	223	8.8

System: 1,6-dihydroxynaphthalene; phases: Metastable liquid
Fixed: Pressure, kPa = 101.325
Property: Molar heat capacity at constant pressure, J/K/mol (Metastable liquid); method: DSC
Temperature, K	Molar heat capacity at constant pressure, J/K/mol	uncertainty
323	311.2	14.2
343	315.6	14.5
363	319.9	14.6
383	324.3	14.8
403	328.7	15

System: 1,6-dihydroxynaphthalene; phases: Glass
Fixed: Pressure, kPa = 101.325
Property: Molar heat capacity at constant pressure, J/K/mol (Glass); method: DSC
Temperature, K	Molar heat capacity at constant pressure, J/K/mol	uncertainty
218	131.4	6.5
238	147.4	7.1
258	163.5	7.7

System: 1,3-benzenediol; phases: Crystal, Liquid, Air at 1 atmosphere
Property: Normal melting temperature, K (Crystal); method: DTA
Normal melting temperature, K	uncertainty
382.2	0.4

System: 1,3-benzenediol; phases: Crystal, Liquid, Air at 1 atmosphere
Property: Molar enthalpy of transition or fusion, kJ/mol (Crystal); method: DSC
Molar enthalpy of transition or fusion, kJ/mol	uncertainty
20.15	0.47

System: 1,3-benzenediol; phases: Crystal
Fixed: Pressure, kPa = 101.325
Property: Molar heat capacity at constant pressure, J/K/mol (Crystal); method: DSC
Temperature, K	Molar heat capacity at constant pressure, J/K/mol	uncertainty
233	103.9	4.2
253	114.4	4.6
273	124.9	4.9
293	135.3	5.3
313	145.8	5.7
333	156.3	6.1

System: 1,3-benzenediol; phases: Metastable liquid
Fixed: Pressure, kPa = 101.325
Property: Molar heat capacity at constant pressure, J/K/mol (Metastable liquid); method: DSC
Temperature, K	Molar heat capacity at constant pressure, J/K/mol	uncertainty
303	237.2	9.7
323	245.8	10
343	254.3	10.3
363	262.9	10.6

System: 1-naphthalenamine; phases: Crystal, Liquid, Air at 1 atmosphere
Property: Normal melting temperature, K (Crystal); method: DTA
Normal melting temperature, K	uncertainty
321.3	0.4

System: 1-naphthalenamine; phases: Crystal, Liquid, Air at 1 atmosphere
Property: Molar enthalpy of transition or fusion, kJ/mol (Crystal); method: DSC
Molar enthalpy of transition or fusion, kJ/mol	uncertainty
14.48	0.46

System: 2-naphthalenamine; phases: Crystal, Liquid, Air at 1 atmosphere
Property: Normal melting temperature, K (Crystal); method: DTA
Normal melting temperature, K	uncertainty
382.6	0.4

System: 2-naphthalenamine; phases: Crystal, Liquid, Air at 1 atmosphere
Property: Molar enthalpy of transition or fusion, kJ/mol (Crystal); method: DSC
Molar enthalpy of transition or fusion, kJ/mol	uncertainty
22.24	0.56

System: 1,3-benzenediamine; phases: Crystal, Liquid, Air at 1 atmosphere
Property: Normal melting temperature, K (Crystal); method: DTA
Normal melting temperature, K	uncertainty
336.1	0.4

System: 1,3-benzenediamine; phases: Crystal, Liquid, Air at 1 atmosphere
Property: Molar enthalpy of transition or fusion, kJ/mol (Crystal); method: DSC
Molar enthalpy of transition or fusion, kJ/mol	uncertainty
15.52	0.59

System: 1,3-benzenediamine; phases: Glass, Liquid, Air at 1 atmosphere
Property: Triple point temperature, K (Glass); method: DSC
Triple point temperature, K	uncertainty
244	2

System: 1,3-benzenediamine; phases: Metastable liquid
Fixed: Pressure, kPa = 101.325
Property: Molar heat capacity at constant pressure, J/K/mol (Metastable liquid); method: DSC
Temperature, K	Molar heat capacity at constant pressure, J/K/mol	uncertainty
323	229.7	8.9
343	234	9.1
363	240.2	9.3

System: 1,3-benzenediamine; phases: Crystal
Fixed: Pressure, kPa = 101.325
Property: Molar heat capacity at constant pressure, J/K/mol (Crystal); method: DSC
Temperature, K	Molar heat capacity at constant pressure, J/K/mol	uncertainty
223	108.9	5
243	121.4	5.6
263	133.8	6
283	146.2	6.5
303	158.7	7

System: 1,3-benzenediamine; phases: Metastable liquid
Fixed: Pressure, kPa = 101.325
Property: Molar heat capacity at constant pressure, J/K/mol (Metastable liquid); method: DSC
Temperature, K	Molar heat capacity at constant pressure, J/K/mol	uncertainty
253	207.5	8.1
273	213.4	8.3
293	219.3	8.5
313	225.2	8.7
333	231.2	9
353	237.1	9.2

System: 4-chlorobenzenamine; phases: Crystal, Liquid, Air at 1 atmosphere
Property: Normal melting temperature, K (Crystal); method: DTA
Normal melting temperature, K	uncertainty
343	0.4

System: 4-chlorobenzenamine; phases: Crystal, Liquid, Air at 1 atmosphere
Property: Molar enthalpy of transition or fusion, kJ/mol (Crystal); method: DSC
Molar enthalpy of transition or fusion, kJ/mol	uncertainty
19.69	0.82

System: 4-methylphenol + anisole; phases: Liquid
Property: Molar enthalpy of solution, kJ/mol (Liquid); method: Power-compensation calorimetry
Temperature, K	Pressure, kPa	Mole fraction of 4-methylphenol	Molar enthalpy of solution, kJ/mol	uncertainty
298.15	100	0	12.96	0.3

System: 1-naphthol + anisole; phases: Liquid
Property: Molar enthalpy of solution, kJ/mol (Liquid); method: Power-compensation calorimetry
Temperature, K	Pressure, kPa	Mole fraction of 1-naphthol	Molar enthalpy of solution, kJ/mol	uncertainty
298.15	100	0	13.18	0.46

System: 2-hydroxynaphthalene + anisole; phases: Liquid
Property: Molar enthalpy of solution, kJ/mol (Liquid); method: Power-compensation calorimetry
Temperature, K	Pressure, kPa	Mole fraction of 2-hydroxynaphthalene	Molar enthalpy of solution, kJ/mol	uncertainty
298.15	100	0	16.49	0.28

System: 1,6-dihydroxynaphthalene + anisole; phases: Liquid
Property: Molar enthalpy of solution, kJ/mol (Liquid); method: Power-compensation calorimetry
Temperature, K	Pressure, kPa	Mole fraction of 1,6-dihydroxynaphthalene	Molar enthalpy of solution, kJ/mol	uncertainty
298.15	100	0	11.83	0.42

System: 1,3-benzenediol + anisole; phases: Liquid
Property: Molar enthalpy of solution, kJ/mol (Liquid); method: Power-compensation calorimetry
Temperature, K	Pressure, kPa	Mole fraction of 1,3-benzenediol	Molar enthalpy of solution, kJ/mol	uncertainty
298.15	100	0	15.47	0.31

System: 3-methoxyphenol + anisole; phases: Liquid
Property: Molar enthalpy of solution, kJ/mol (Liquid); method: Titration calorimetry
Temperature, K	Pressure, kPa	Mole fraction of 3-methoxyphenol	Molar enthalpy of solution, kJ/mol	uncertainty
298.15	100	0	1.54	0.06

System: 3-methylaniline + aniline; phases: Liquid
Property: Molar enthalpy of solution, kJ/mol (Liquid); method: Titration calorimetry
Temperature, K	Pressure, kPa	Mole fraction of 3-methylaniline	Molar enthalpy of solution, kJ/mol	uncertainty
298.15	100	0	0.53	0.03

System: 4-methylaniline + aniline; phases: Liquid
Property: Molar enthalpy of solution, kJ/mol (Liquid); method: Power-compensation calorimetry
Temperature, K	Pressure, kPa	Mole fraction of 4-methylaniline	Molar enthalpy of solution, kJ/mol	uncertainty
298.15	100	0	17.03	0.25

System: 4-chlorobenzenamine + aniline; phases: Liquid
Property: Molar enthalpy of solution, kJ/mol (Liquid); method: Power-compensation calorimetry
Temperature, K	Pressure, kPa	Mole fraction of 4-chlorobenzenamine	Molar enthalpy of solution, kJ/mol	uncertainty
298.15	100	0	17.96	0.31

System: 1,3-benzenediamine + aniline; phases: Liquid
Property: Molar enthalpy of solution, kJ/mol (Liquid); method: Power-compensation calorimetry
Temperature, K	Pressure, kPa	Mole fraction of 1,3-benzenediamine	Molar enthalpy of solution, kJ/mol	uncertainty
298.15	100	0	14.23	0.33

System: 1-naphthalenamine + aniline; phases: Liquid
Property: Molar enthalpy of solution, kJ/mol (Liquid); method: Power-compensation calorimetry
Temperature, K	Pressure, kPa	Mole fraction of 1-naphthalenamine	Molar enthalpy of solution, kJ/mol	uncertainty
298.15	100	0	14.09	0.27

System: 2-naphthalenamine + aniline; phases: Liquid
Property: Molar enthalpy of solution, kJ/mol (Liquid); method: Power-compensation calorimetry
Temperature, K	Pressure, kPa	Mole fraction of 2-naphthalenamine	Molar enthalpy of solution, kJ/mol	uncertainty
298.15	100	0	20.85	0.32
