Measured thermophysical data. Solvation enthalpy and the thermodynamics of hydration of trans-cyclohexyl-1,4-diamine and cis-cyclohexyl-1,2-diamine
Source: J. Chem. Thermodyn., 2007, 10.1016/j.jct.2007.07.006
Compound 1: cis-1,4-cyclohexanediamine, C6H14N2, InChI=1S/C6H14N2/c7-5-1-2-6(8)4-3-5/h5-6H,1-4,7-8H2/t5-,6+, purity 98%
Compound 2: trans-1,4-cyclohexanediamine, C6H14N2, InChI=1S/C6H14N2/c7-5-1-2-6(8)4-3-5/h5-6H,1-4,7-8H2/t5-,6-, purity 99%
Compound 3: sodium hydroxide, HNaO, InChI=1S/Na.H2O/h;1H2/q+1;/p-1
Compound 4: water, H2O, InChI=1S/H2O/h1H2

System: sodium hydroxide + water + cis-1,4-cyclohexanediamine; phases: Liquid
Fixed: Temperature, K = 298.15
Fixed: Pressure, kPa = 101
Fixed: Solvent: Amount concentration (molarity), mol/dm3 of sodium hydroxide = 0.01
Property: Molar enthalpy of solution, kJ/mol (Liquid); method: Calvet calorimetry
Molality, mol/kg of cis-1,4-cyclohexanediamine	Molar enthalpy of solution, kJ/mol	uncertainty
0.0848	-34	0.5
0.0899	-34.6	0.5
0.0927	-34.7	0.5
0.0989	-33.5	0.5
0.1317	-34	0.5
0.1377	-34.6	0.5
0.1593	-34.5	0.5
0.163	-33.9	0.5
0.2207	-33.9	0.5
0.258	-33.7	0.5
0.3463	-34.5	0.5
0.359	-33.5	0.5
0.3756	-34.6	0.5

System: sodium hydroxide + trans-1,4-cyclohexanediamine + water; phases: Liquid
Fixed: Temperature, K = 298.15
Fixed: Pressure, kPa = 101
Fixed: Solvent: Amount concentration (molarity), mol/dm3 of sodium hydroxide = 0.01
Property: Molar enthalpy of solution, kJ/mol (Liquid); method: Calvet calorimetry
Molality, mol/kg of trans-1,4-cyclohexanediamine	Molar enthalpy of solution, kJ/mol	uncertainty
0.0639	-11.5	0.4
0.0681	-11.4	0.4
0.0696	-11.2	0.4
0.0713	-11.4	0.4
0.0761	-11.4	0.4
0.0773	-11.6	0.4
0.0787	-11.4	0.4
0.0913	-11	0.4
0.0923	-11.1	0.4
0.0972	-11.1	0.4
0.1104	-11.1	0.4
0.1114	-11.3	0.4
0.1161	-10.9	0.4
0.1211	-11.3	0.4
0.1242	-11.9	0.4
0.1253	-10.7	0.4
0.1264	-11.3	0.4
0.1476	-11.9	0.4
0.1497	-11.2	0.4
0.179	-11.9	0.4
0.1893	-10.8	0.4
0.2126	-11.8	0.4
0.2243	-11.5	0.4
0.2655	-10.9	0.4
0.3437	-11	0.4
