Measured thermophysical data. Accurate experimental (p, .rho., T) values and virial coefficients for the (methane and helium) binary system
Source: J. Chem. Thermodyn., 2016, 10.1016/j.jct.2016.05.024
Compound 1: methane, CH4, InChI=1S/CH4/h1H4, purity 99.9995%
Compound 2: helium, He, InChI=1S/He, purity 99.9999%

System: methane + helium; phases: Gas
Property: Mass density, kg/m3 (Gas); method: Buoyancy - hydrostatic balance with magnetic suspension - one sinker
Temperature, K	Pressure, kPa	Mole fraction of methane	Mass density, kg/m3	uncertainty
240.045	19915	0.950015	217.591	0.091
240.046	19037	0.950015	211.432	0.092
240.047	18026	0.950015	203.713	0.095
240.047	17023	0.950015	195.305	0.097
240.047	16022	0.950015	186.059	0.1
240.047	15023	0.950015	175.881	0.104
240.047	14013	0.950015	164.584	0.108
240.048	13016	0.950015	152.406	0.11
240.047	12015	0.950015	139.257	0.111
240.049	11009	0.950015	125.326	0.111
240.047	10010	0.950015	111.115	0.108
240.045	9003	0.950015	96.823	0.104
240.045	8003	0.950015	83.039	0.097
240.046	7001	0.950015	69.896	0.09
240.046	6000	0.950015	57.586	0.083
240.047	4999	0.950015	46.133	0.076
240.047	3998	0.950015	35.506	0.071
240.047	2998	0.950015	25.657	0.065
240.048	1998	0.950015	16.504	0.051
240.046	998	0.950015	7.97	0.049
250	19784	0.950015	200.072	0.09
249.997	19016	0.950015	194.396	0.089
249.995	18017	0.950015	186.477	0.091
249.995	17019	0.950015	177.898	0.094
249.996	16011	0.950015	168.529	0.096
249.994	15017	0.950015	158.56	0.098
249.994	14013	0.950015	147.789	0.098
249.993	13013	0.950015	136.403	0.099
249.994	12011	0.950015	124.468	0.099
249.991	11003	0.950015	112.149	0.097
249.992	10007	0.950015	99.845	0.094
249.993	9004	0.950015	87.584	0.09
249.992	8002	0.950015	75.669	0.085
249.992	7000	0.950015	64.219	0.08
249.989	5997	0.950015	53.324	0.075
249.999	4998	0.950015	43.065	0.07
250	3997	0.950015	33.379	0.065
250.001	2997	0.950015	24.27	0.052
250.002	1992	0.950015	15.655	0.049
250.001	998	0.950015	7.617	0.055
260.005	19685	0.950015	184.36	0.085
260.007	19008	0.950015	179.27	0.086
260.006	18018	0.950015	171.413	0.086
260.005	17017	0.950015	162.926	0.088
260.006	16008	0.950015	153.819	0.088
260.006	15015	0.950015	144.337	0.089
260.006	14014	0.950015	134.298	0.089
260.006	13009	0.950015	123.82	0.089
260.006	12003	0.950015	113.023	0.088
260.008	11008	0.950015	102.188	0.086
260.005	10005	0.950015	91.25	0.083
260.006	9000	0.950015	80.421	0.08
260.004	8013	0.950015	70.021	0.076
260.005	7006	0.950015	59.75	0.072
260.004	6004	0.950015	49.933	0.069
260.004	4999	0.950015	40.507	0.065
260.005	3997	0.950015	31.566	0.062
260.005	2998	0.950015	23.076	0.049
260.005	1997	0.950015	14.985	0.047
260.005	997	0.950015	7.297	0.053
240.042	19625	0.899933	194.079	0.087
240.043	19012	0.899933	189.597	0.088
240.043	18027	0.899933	181.952	0.09
240.044	17027	0.899933	173.595	0.092
240.045	16029	0.899933	164.619	0.094
240.046	15022	0.899933	154.9	0.096
240.045	14021	0.899933	144.595	0.097
240.046	13019	0.899933	133.681	0.098
240.045	12005	0.899933	122.134	0.097
240.045	11012	0.899933	110.482	0.095
240.046	10006	0.899933	98.519	0.092
240.046	9009	0.899933	86.73	0.088
240.045	8002	0.899933	75.062	0.084
240.045	7001	0.899933	63.844	0.079
240.046	6000	0.899933	53.119	0.074
240.046	4998	0.899933	42.934	0.069
240.046	3998	0.899933	33.318	0.065
240.047	2998	0.899933	24.247	0.061
240.047	1996	0.899933	15.681	0.049
240.046	998	0.899933	7.62	0.047
250.004	18875	0.899933	173.914	0.086
250.003	18031	0.899933	167.361	0.085
250.003	17022	0.899933	159.082	0.086
250.004	16006	0.899933	150.232	0.087
250.004	15019	0.899933	141.163	0.088
250.004	14018	0.899933	131.51	0.088
250.004	13000	0.899933	121.315	0.087
250.005	12003	0.899933	111.033	0.086
250.006	11009	0.899933	100.603	0.084
250.004	10008	0.899933	90.05	0.081
250.005	9003	0.899933	79.524	0.079
250.005	8002	0.899933	69.239	0.075
250.007	7001	0.899933	59.226	0.072
250.006	6000	0.899933	49.568	0.068
250.006	4998	0.899933	40.29	0.064
250.004	3997	0.899933	31.436	0.061
250.005	2997	0.899933	22.993	0.049
250.007	1998	0.899933	14.96	0.047
250.005	997	0.899933	7.285	0.053
260.015	19940	0.899933	168.802	0.079
260.014	19031	0.899933	162.3	0.08
260.015	18020	0.899933	154.7	0.081
260.013	17010	0.899933	146.708	0.081
260.014	16023	0.899933	138.537	0.081
260.013	15018	0.899933	129.866	0.081
260.012	14018	0.899933	120.922	0.081
260.014	13014	0.899933	111.695	0.08
260.013	12010	0.899933	102.273	0.078
260.014	11007	0.899933	92.773	0.077
260.013	10003	0.899933	83.236	0.075
260.013	9003	0.899933	73.809	0.072
260.013	8001	0.899933	64.503	0.069
260.012	7000	0.899933	55.42	0.066
260.012	5998	0.899933	46.581	0.063
260.012	5001	0.899933	38.068	0.061
260.012	4000	0.899933	29.826	0.058
260.011	2998	0.899933	21.898	0.047
260.01	1998	0.899933	14.29	0.045
260.009	997	0.899933	6.987	0.051
240.032	16089	0.492592	77.505	0.049
240.029	15008	0.492592	72.695	0.048
240.029	14007	0.492592	68.168	0.048
240.03	13007	0.492592	63.573	0.047
240.031	11997	0.492592	58.869	0.046
240.031	11002	0.492592	54.18	0.046
240.03	10001	0.492592	49.403	0.045
240.031	9001	0.492592	44.581	0.044
240.031	8000	0.492592	39.712	0.043
240.032	6999	0.492592	34.803	0.043
240.032	5997	0.492592	29.862	0.042
240.033	4998	0.492592	24.905	0.042
240.033	3998	0.492592	19.928	0.041
240.033	2998	0.492592	14.943	0.041
240.033	1992	0.492592	9.928	0.035
240.033	997	0.492592	4.969	0.035
250.005	19686	0.492592	88.663	0.049
249.964	18997	0.492592	85.915	0.048
250.017	18002	0.492592	81.885	0.048
249.994	16646	0.492592	76.317	0.047
249.997	15999	0.492592	73.6	0.047
249.994	15003	0.492592	69.361	0.046
249.997	14005	0.492592	65.051	0.046
249.998	12999	0.492592	60.647	0.045
249.999	12002	0.492592	56.224	0.045
249.999	11000	0.492592	51.722	0.044
250	10006	0.492592	47.205	0.044
249.999	8999	0.492592	42.584	0.043
250	8001	0.492592	37.957	0.043
250.053	7001	0.492592	33.286	0.042
250	6000	0.492592	28.574	0.041
249.991	4945	0.492592	23.6	0.04
249.989	3997	0.492592	19.095	0.04
249.989	2997	0.492592	14.323	0.035
249.99	1991	0.492592	9.521	0.034
249.989	997	0.492592	4.769	0.038
259.986	19334	0.492592	83.513	0.045
259.987	19000	0.492592	82.229	0.047
259.987	18001	0.492592	78.346	0.047
259.986	17011	0.492592	74.435	0.046
259.986	16009	0.492592	70.413	0.046
259.986	15001	0.492592	66.31	0.045
259.985	14000	0.492592	62.178	0.045
259.985	12960	0.492592	57.824	0.044
259.992	11996	0.492592	53.738	0.043
259.993	10997	0.492592	49.455	0.043
259.994	9998	0.492592	45.124	0.042
259.994	9000	0.492592	40.749	0.041
259.995	7999	0.492592	36.324	0.041
259.995	6996	0.492592	31.852	0.04
259.994	5997	0.492592	27.365	0.04
259.995	4997	0.492592	22.844	0.04
259.995	3997	0.492592	18.303	0.039
259.995	2997	0.492592	13.742	0.034
259.996	1997	0.492592	9.169	0.033
259.997	997	0.492592	4.578	0.037
275.092	19880	0.492592	80.485	0.046
275.103	18991	0.492592	77.268	0.045
274.973	17996	0.492592	73.619	0.044
275.033	16993	0.492592	69.886	0.044
275.013	16003	0.492592	66.148	0.043
275.137	14998	0.492592	62.299	0.043
275.03	13992	0.492592	58.399	0.043
274.981	12333	0.492592	51.873	0.04
274.982	11998	0.492592	50.535	0.042
274.983	10998	0.492592	46.513	0.041
274.984	9997	0.492592	42.44	0.041
274.984	8996	0.492592	38.323	0.04
274.985	7996	0.492592	34.172	0.04
274.984	6996	0.492592	29.987	0.039
274.984	5997	0.492592	25.777	0.039
274.984	4997	0.492592	21.529	0.038
274.98	3997	0.492592	17.256	0.037
274.979	2997	0.492592	12.967	0.033
274.98	1997	0.492592	8.655	0.032
274.978	997	0.492592	4.329	0.035
299.999	19872	0.492592	73.326	0.044
299.938	18984	0.492592	70.381	0.043
300.048	17984	0.492592	67.021	0.043
299.893	16990	0.492592	63.637	0.042
299.91	15304	0.492592	57.804	0.042
299.912	14990	0.492592	56.703	0.041
299.91	13998	0.492592	53.196	0.041
299.911	12994	0.492592	49.608	0.04
299.91	11994	0.492592	45.991	0.04
299.911	10999	0.492592	42.355	0.039
299.908	9994	0.492592	38.64	0.039
299.91	8995	0.492592	34.912	0.038
299.91	7998	0.492592	31.158	0.038
299.91	6997	0.492592	27.355	0.037
299.91	5995	0.492592	23.517	0.036
299.909	4996	0.492592	19.658	0.036
299.909	3996	0.492592	15.769	0.035
299.908	2997	0.492592	11.86	0.032
299.908	1997	0.492592	7.922	0.031
299.91	997	0.492592	3.963	0.034
325.139	19910	0.492592	67.575	0.04
325.052	18996	0.492592	64.771	0.039
325.262	17996	0.492592	61.669	0.039
325.183	16993	0.492592	58.519	0.039
324.92	15482	0.492592	53.698	0.038
324.921	14996	0.492592	52.129	0.041
324.921	13989	0.492592	48.856	0.04
324.921	12990	0.492592	45.572	0.041
324.921	11991	0.492592	42.251	0.04
324.922	10989	0.492592	38.891	0.04
324.922	9995	0.492592	35.519	0.04
324.923	8996	0.492592	32.1	0.04
324.924	7994	0.492592	28.637	0.039
324.924	6995	0.492592	25.153	0.039
324.924	5996	0.492592	21.639	0.039
324.923	4996	0.492592	18.094	0.038
324.924	3995	0.492592	14.517	0.038
324.924	2996	0.492592	10.922	0.035
324.923	1997	0.492592	7.302	0.034
324.922	997	0.492592	3.654	0.036
349.914	16463	0.492592	52.66	0.035
349.915	15995	0.492592	51.273	0.037
349.914	14995	0.492592	48.291	0.038
349.914	13986	0.492592	45.249	0.04
349.916	12995	0.492592	42.23	0.039
349.914	11987	0.492592	39.127	0.039
349.915	10991	0.492592	36.033	0.039
349.915	9989	0.492592	32.885	0.039
349.914	8995	0.492592	29.735	0.039
349.913	7997	0.492592	26.543	0.039
349.912	6991	0.492592	23.297	0.038
349.913	5993	0.492592	20.048	0.038
349.913	4995	0.492592	16.77	0.037
349.913	3996	0.492592	13.462	0.037
349.913	2996	0.492592	10.13	0.037
349.914	1989	0.492592	6.742	0.034
349.913	997	0.492592	3.39	0.034
374.904	14969	0.492592	44.946	0.037
374.906	13428	0.492592	40.599	0.036
374.905	12989	0.492592	39.345	0.039
374.906	11988	0.492592	36.471	0.038
374.906	10992	0.492592	33.585	0.038
374.906	9992	0.492592	30.659	0.038
374.905	8993	0.492592	27.711	0.037
374.905	7993	0.492592	24.728	0.037
374.904	6993	0.492592	21.725	0.037
374.904	5995	0.492592	18.697	0.037
374.906	4995	0.492592	15.636	0.037
374.903	3996	0.492592	12.555	0.036
374.908	2996	0.492592	9.447	0.036
374.906	1997	0.492592	6.319	0.034
374.905	997	0.492592	3.165	0.034
399.992	15369	0.492592	43.172	0.044
399.991	14974	0.492592	42.136	0.034
399.99	13984	0.492592	39.52	0.036
399.99	12978	0.492592	36.835	0.034
399.989	11984	0.492592	34.161	0.035
399.989	10983	0.492592	31.443	0.035
399.989	9992	0.492592	28.726	0.035
399.989	8991	0.492592	25.954	0.035
399.989	7990	0.492592	23.158	0.035
399.991	6972	0.492592	20.293	0.035
399.99	5992	0.492592	17.506	0.035
399.991	4993	0.492592	14.646	0.034
399.991	3996	0.492592	11.762	0.034
399.992	2996	0.492592	8.853	0.034
399.99	1993	0.492592	5.91	0.032
399.991	997	0.492592	2.964	0.033
