Measured thermophysical data. Effect of lithium chloride on the density and dynamic viscosity of choline chloride/urea deep eutectic solvent in the temperature range (303.15-358.15) K
Source: J. Chem. Thermodyn., 2019, 10.1016/j.jct.2018.10.003
Compound 1: choline chloride, C5H14ClNO, InChI=1S/C5H14NO.ClH/c1-6(2,3)4-5-7;/h7H,4-5H2,1-3H3;1H/q+1;/p-1, purity 99%
Compound 2: urea, CH4N2O, InChI=1S/CH4N2O/c2-1(3)4/h(H4,2,3,4), purity 99%
Compound 3: lithium chloride, ClLi, InChI=1S/ClH.Li/h1H;/q;+1/p-1, purity 99%

System: choline chloride + urea; phases: Liquid
Fixed: Pressure, kPa = 101
Fixed: Mole fraction of choline chloride = 0.33
Property: Mass density, kg/m3 (Liquid); method: Vibrating tube method
Temperature, K	Mass density, kg/m3	uncertainty
303.15	1195	10
313.15	1189	10
328.15	1181	10
343.15	1171	10
358.15	1160	10

System: choline chloride + urea; phases: Liquid
Fixed: Pressure, kPa = 101
Fixed: Mole fraction of choline chloride = 0.33
Property: Viscosity, Pa*s (Liquid); method: Falling or rolling sphere viscometry
Temperature, K	Viscosity, Pa*s	uncertainty
303.15	0.53693	0.04482
313.15	0.24252	0.01539
328.15	0.09428	0.00429
338.15	0.05378	0.0022
343.15	0.04245	0.00175
348.15	0.03445	0.00141
358.15	0.02442	0.001

System: lithium chloride + choline chloride + urea; phases: Liquid
Fixed: Pressure, kPa = 101
Fixed: Solvent: Mole fraction of choline chloride = 0.33
Property: Mass density, kg/m3 (Liquid); method: Vibrating tube method
Molality, mol/kg of lithium chloride	Temperature, K	Mass density, kg/m3	uncertainty
0	303.15	1195	10
0	313.15	1189	10
0	328.15	1181	10
0	343.15	1171	10
0	358.15	1160	10
0.419	303.15	1202	10
0.419	313.15	1196	10
0.419	328.15	1187	10
0.419	343.15	1177	10
0.419	358.15	1166	10
0.832	303.15	1208	10
0.832	313.15	1202	10
0.832	328.15	1194	10
0.832	343.15	1185	10
0.832	358.15	1173	10
1.256	303.15	1217	10
1.256	313.15	1212	10
1.256	328.15	1204	10
1.256	343.15	1194	10
1.256	358.15	1183	10
1.675	303.15	1226	10
1.675	313.15	1220	10
1.675	328.15	1213	10
1.675	343.15	1203	10
1.675	358.15	1191	10
2.093	303.15	1232	10
2.093	313.15	1226	10
2.093	328.15	1219	10
2.093	343.15	1209	10
2.093	358.15	1198	10

System: lithium chloride + choline chloride + urea; phases: Liquid
Fixed: Pressure, kPa = 101
Fixed: Solvent: Mole fraction of choline chloride = 0.33
Property: Viscosity, Pa*s (Liquid); method: Falling or rolling sphere viscometry
Molality, mol/kg of lithium chloride	Temperature, K	Viscosity, Pa*s	uncertainty
0	303.15	0.53693	0.04631
0	313.15	0.24252	0.01567
0	328.15	0.09428	0.00436
0	338.15	0.05378	0.00237
0	343.15	0.04245	0.00184
0	348.15	0.03445	0.00147
0	358.15	0.02442	0.00104
0.419	303.15	1.02394	0.10575
0.419	313.15	0.443	0.03545
0.419	328.15	0.1498	0.00828
0.419	338.15	0.09418	0.00443
0.419	343.15	0.06766	0.00295
0.419	348.15	0.05245	0.00222
0.419	358.15	0.03532	0.00151
0.832	303.15	1.94771	0.24147
0.832	313.15	0.80347	0.07778
0.832	328.15	0.26906	0.01863
0.832	338.15	0.15965	0.00902
0.832	343.15	0.11201	0.00568
0.832	348.15	0.08845	0.00416
0.832	358.15	0.05815	0.00251
1.256	328.15	0.60135	0.05369
1.256	338.15	0.30741	0.02204
1.256	343.15	0.22754	0.01465
1.256	348.15	0.17201	0.00998
1.256	358.15	0.1042	0.00508
1.675	328.15	1.35516	0.15177
1.675	338.15	0.63864	0.05705
1.675	343.15	0.45418	0.0363
1.675	348.15	0.33118	0.02373
1.675	358.15	0.1867	0.01092
2.093	328.15	2.07597	0.26125
2.093	338.15	0.93679	0.09353
2.093	343.15	0.65423	0.05846
2.093	348.15	0.46615	0.03739
2.093	358.15	0.25465	0.01657
