Measured thermophysical data. Study of separation of water + 2-propanol mixture using different ionic liquids: 1-Butyl-3-methylimidazolium bis(trifluoromethylsulfonyl)imide or 1-butyl-1-methylpyrrolidinium bis(trifluoromethylsulfonyl)imide
Source: J. Chem. Thermodyn., 2018, 10.1016/j.jct.2017.08.020
Compound 1: water, H2O, InChI=1S/H2O/h1H2, purity 99.5%
Compound 2: propan-2-ol, C3H8O, InChI=1S/C3H8O/c1-3(2)4/h3-4H,1-2H3, purity 99.9%
Compound 3: 1-butyl-3-methylimidazolium bis(trifluoromethylsulfonyl)imide, C10H15F6N3O4S2, InChI=1S/C8H15N2.C2F6NO4S2/c1-3-4-5-10-7-6-9(2)8-10;3-1(4,5)14(10,11)9-15(12,13)2(6,7)8/h6-8H,3-5H2,1-2H3;/q+1;-1, purity 99%
Compound 4: 1-butyl-1-methylpyrrolidinium bis[(trifluoromethyl)sulfonyl]imide, C11H20F6N2O4S2, InChI=1S/C9H20N.C2F6NO4S2/c1-3-4-7-10(2)8-5-6-9-10;3-1(4,5)14(10,11)9-15(12,13)2(6,7)8/h3-9H2,1-2H3;/q+1;-1, purity 99%

System: propan-2-ol + water + 1-butyl-3-methylimidazolium bis(trifluoromethylsulfonyl)imide; phases: Liquid mixture 2, Liquid mixture 1
Fixed: Pressure, kPa = 101.3
Property: Mole fraction of propan-2-ol (Liquid mixture 2); method: Chromatography
Property: Mole fraction of propan-2-ol (Liquid mixture 1); method: Chromatography
Property: Mole fraction of water (Liquid mixture 1); method: Chromatography
Temperature, K	Mole fraction of water	Mole fraction of propan-2-ol	uncertainty	Mole fraction of propan-2-ol	uncertainty	Mole fraction of water	uncertainty
283.2	1	0		0		0.188	
283.2	0.975	0.024	0.011	0.068	0.027	0.204	
283.2	0.947	0.052	0.011	0.145	0.018	0.232	
283.2	0.925	0.075	0.011	0.24	0.014	0.289	
283.2	0.898	0.101	0.011	0.308	0.01	0.353	
283.2	0.858	0.137	0.011	0.34	0.009	0.436	
283.2	0.835	0.158	0.011	0.342	0.008	0.474	
283.2	0.811	0.179	0.01	0.337	0.009	0.513	
283.2	0.782	0.202	0.01	0.323	0.009	0.559	
303.2	1	0		0		0.269	
303.2	0.978	0.021	0.011	0.101	0.024	0.291	
303.2	0.957	0.043	0.011	0.195	0.014	0.336	
303.2	0.935	0.064	0.011	0.272	0.01	0.405	
303.2	0.909	0.089	0.011	0.306	0.008	0.48	
303.2	0.874	0.121	0.011	0.302	0.008	0.563	
303.2	0.834	0.153	0.01	0.274	0.009	0.642	
323.2	1	0		0		0.348	
323.2	0.983	0.017	0.011	0.098	0.024	0.37	
323.2	0.97	0.03	0.011	0.179	0.016	0.409	
323.2	0.952	0.047	0.011	0.243	0.01	0.451	
323.2	0.933	0.065	0.011	0.277	0.008	0.535	
323.2	0.911	0.085	0.011	0.271	0.008	0.608	
323.2	0.897	0.097	0.011	0.256	0.009	0.653	

System: propan-2-ol + water + 1-butyl-1-methylpyrrolidinium bis[(trifluoromethyl)sulfonyl]imide; phases: Liquid mixture 2, Liquid mixture 1
Fixed: Pressure, kPa = 101.3
Property: Mole fraction of propan-2-ol (Liquid mixture 2); method: Chromatography
Property: Mole fraction of propan-2-ol (Liquid mixture 1); method: Chromatography
Property: Mole fraction of water (Liquid mixture 1); method: Chromatography
Temperature, K	Mole fraction of water	Mole fraction of propan-2-ol	uncertainty	Mole fraction of propan-2-ol	uncertainty	Mole fraction of water	uncertainty
283.2	1	0		0		0.159	
283.2	0.972	0.028	0.011	0.069	0.026	0.176	
283.2	0.945	0.055	0.011	0.145	0.018	0.205	
283.2	0.919	0.08	0.011	0.227	0.014	0.253	
283.2	0.891	0.108	0.011	0.292	0.011	0.312	
283.2	0.845	0.151	0.011	0.333	0.009	0.372	
283.2	0.803	0.189	0.011	0.349	0.008	0.417	
283.2	0.735	0.244	0.01	0.351	0.008	0.488	
283.2	0.736	0.244	0.011	0.352	0.008	0.487	
303.2	1	0		0		0.219	
303.2	0.972	0.028	0.011	0.093	0.021	0.256	
303.2	0.952	0.047	0.011	0.18	0.015	0.295	
303.2	0.929	0.07	0.011	0.265	0.011	0.358	
303.2	0.9	0.098	0.011	0.306	0.009	0.427	
303.2	0.859	0.135	0.011	0.32	0.008	0.498	
303.2	0.811	0.175	0.01	0.307	0.009	0.574	
303.2	0.755	0.216	0.01	0.272	0.009	0.656	
323.2	1	0		0		0.303	
323.2	0.983	0.016	0.011	0.097	0.022	0.328	
323.2	0.967	0.033	0.011	0.18	0.015	0.372	
323.2	0.949	0.05	0.011	0.241	0.011	0.423	
323.2	0.925	0.073	0.011	0.286	0.009	0.496	
323.2	0.899	0.097	0.011	0.289	0.008	0.562	
323.2	0.874	0.12	0.011	0.277	0.008	0.615	

System: water + 1-butyl-3-methylimidazolium bis(trifluoromethylsulfonyl)imide; phases: Liquid mixture 1, Liquid mixture 2
Fixed: Pressure, kPa = 101.3
Property: Mole fraction of water (Liquid mixture 1); method: Chromatography
Temperature, K	Mole fraction of water	uncertainty
283.2	0.188	0.008
303.2	0.269	0.008
323.2	0.348	0.008

System: water + 1-butyl-1-methylpyrrolidinium bis[(trifluoromethyl)sulfonyl]imide; phases: Liquid mixture 1, Liquid mixture 2
Fixed: Pressure, kPa = 101.3
Property: Mole fraction of water (Liquid mixture 1); method: Chromatography
Temperature, K	Mole fraction of water	uncertainty
283.2	0.159	0.008
303.2	0.219	0.008
323.2	0.303	0.008
