Measured thermophysical data. Densities, speeds of sound, refractive indices, viscosities and their related thermodynamic properties for n-hexadecane + two aromatic hydrocarbons binary mixtures at temperatures from 298.15 K to 318.15 K
Source: J. Chem. Thermodyn., 2019, 10.1016/j.jct.2018.08.036
Compound 1: hexadecane, C16H34, InChI=1S/C16H34/c1-3-5-7-9-11-13-15-16-14-12-10-8-6-4-2/h3-16H2,1-2H3
Compound 2: propylbenzene, C9H12, InChI=1S/C9H12/c1-2-6-9-7-4-3-5-8-9/h3-5,7-8H,2,6H2,1H3
Compound 3: (1-methylpropyl)benzene, C10H14, InChI=1S/C10H14/c1-3-9(2)10-7-5-4-6-8-10/h4-9H,3H2,1-2H3

System: hexadecane; phases: Liquid
Fixed: Pressure, kPa = 100
Property: Mass density, kg/m3 (Liquid); method: Vibrating tube method
Temperature, K	Mass density, kg/m3	uncertainty
298.15	769.86	0.42
308.15	762.94	0.42
318.15	755.99	0.42
298.15	769.81	0.42
308.15	762.89	0.42
318.15	755.98	0.42
293.15	773.33	0.42
303.15	766.4	0.42
313.15	759.48	0.42
323.15	752.58	0.42

System: hexadecane; phases: Liquid
Fixed: Pressure, kPa = 100
Fixed: Frequency, MHz = 3
Property: Speed of sound, m/s (Liquid); method: Single path-length method
Temperature, K	Speed of sound, m/s	uncertainty
298.15	1338.6	1
308.15	1301.3	1
318.15	1264.6	1
298.15	1338.5	1
308.15	1301.2	1
318.15	1264.7	1
293.15	1357.5	1
303.15	1319.9	1
313.15	1282.9	1
323.15	1246.6	1

System: hexadecane; phases: Liquid
Fixed: Pressure, kPa = 100
Property: Viscosity, Pa*s (Liquid); method: Falling or rolling sphere viscometry
Temperature, K	Viscosity, Pa*s	uncertainty
298.15	0.002968	6.4e-05
308.15	0.002389	6.3e-05
318.15	0.001971	6.2e-05
298.15	0.003035	6.5e-05
308.15	0.002439	6.3e-05
318.15	0.002008	6.2e-05
293.15	0.003341	6.5e-05
303.15	0.002656	6.4e-05
313.15	0.002164	6.2e-05
323.15	0.0018	6.2e-05

System: hexadecane; phases: Liquid
Fixed: Pressure, kPa = 100
Property: Refractive index (Na D-line) (Liquid); method: Standard Abbe refractometry
Temperature, K	Refractive index (Na D-line)	uncertainty
298.15	1.4324	0.0004
308.15	1.4283	0.0004
318.15	1.4241	0.0004
293.15	1.4345	0.0004
303.15	1.4304	0.0004
313.15	1.4261	0.0004
323.15	1.422	0.0004

System: propylbenzene; phases: Liquid
Fixed: Pressure, kPa = 100
Property: Mass density, kg/m3 (Liquid); method: Vibrating tube method
Temperature, K	Mass density, kg/m3	uncertainty
298.15	858.45	0.22
308.15	850.01	0.22
318.15	841.53	0.22
293.15	862.72	0.22
303.15	854.28	0.22
313.15	845.81	0.22
323.15	837.31	0.22

System: propylbenzene; phases: Liquid
Fixed: Pressure, kPa = 100
Fixed: Frequency, MHz = 3
Property: Speed of sound, m/s (Liquid); method: Single path-length method
Temperature, K	Speed of sound, m/s	uncertainty
298.15	1320.6	0.6
308.15	1280.6	0.6
318.15	1241	0.6
293.15	1341.5	0.6
303.15	1300.4	0.6
313.15	1260.9	0.6
323.15	1221.5	0.6

System: propylbenzene; phases: Liquid
Fixed: Pressure, kPa = 100
Property: Viscosity, Pa*s (Liquid); method: Falling or rolling sphere viscometry
Temperature, K	Viscosity, Pa*s	uncertainty
298.15	0.000792	2.1e-05
308.15	0.000699	2.1e-05
318.15	0.000626	2.1e-05
288.15	0.000924	2.1e-05
293.15	0.000846	2.1e-05
303.15	0.000742	2.1e-05
313.15	0.000655	2.1e-05
323.15	0.000601	2e-05

System: propylbenzene; phases: Liquid
Fixed: Pressure, kPa = 100
Property: Refractive index (Na D-line) (Liquid); method: Standard Abbe refractometry
Temperature, K	Refractive index (Na D-line)	uncertainty
298.15	1.4896	0.0004
308.15	1.4844	0.0004
318.15	1.4792	0.0004
293.15	1.4921	0.0004
303.15	1.487	0.0004
313.15	1.4818	0.0004
323.15	1.4766	0.0004

System: (1-methylpropyl)benzene; phases: Liquid
Fixed: Pressure, kPa = 100
Property: Mass density, kg/m3 (Liquid); method: Vibrating tube method
Temperature, K	Mass density, kg/m3	uncertainty
298.15	857.89	0.42
308.15	849.78	0.42
318.15	841.64	0.42
293.15	861.95	0.42
323.15	837.48	0.42

System: (1-methylpropyl)benzene; phases: Liquid
Fixed: Pressure, kPa = 100
Fixed: Frequency, MHz = 3
Property: Speed of sound, m/s (Liquid); method: Single path-length method
Temperature, K	Speed of sound, m/s	uncertainty
298.15	1313.8	1
308.15	1274.5	1
318.15	1235.7	1
293.15	1333.8	1
323.15	1216.1	1

System: (1-methylpropyl)benzene; phases: Liquid
Fixed: Pressure, kPa = 100
Property: Viscosity, Pa*s (Liquid); method: Falling or rolling sphere viscometry
Temperature, K	Viscosity, Pa*s	uncertainty
298.15	0.000912	2.1e-05
308.15	0.000796	2.1e-05
318.15	0.000707	2.1e-05

System: (1-methylpropyl)benzene; phases: Liquid
Fixed: Pressure, kPa = 100
Property: Refractive index (Na D-line) (Liquid); method: Standard Abbe refractometry
Temperature, K	Refractive index (Na D-line)	uncertainty
298.15	1.4876	0.0004
308.15	1.4827	0.0004
318.15	1.4778	0.0004
293.15	1.49	0.0004
323.15	1.4753	0.0004

System: hexadecane + propylbenzene; phases: Liquid
Fixed: Pressure, kPa = 100
Property: Mass density, kg/m3 (Liquid); method: Vibrating tube method
Temperature, K	Mole fraction of hexadecane	Mass density, kg/m3	uncertainty
298.15	0	858.45	0.22
298.15	0.0627	846.52	1.84
298.15	0.1009	840.12	1.5
298.15	0.207	825.01	1.32
298.15	0.3093	813.2	1.11
298.15	0.3863	805.79	0.92
298.15	0.5055	796.08	0.85
298.15	0.5603	792.22	0.72
298.15	0.7042	783.32	0.69
298.15	0.7728	779.76	0.62
298.15	0.8468	776.25	0.58
298.15	1	769.86	0.42
308.15	0	850.01	0.22
308.15	0.0627	838.3	1.81
308.15	0.1009	832.03	1.46
308.15	0.207	817.19	1.29
308.15	0.3093	805.67	1.09
308.15	0.3863	798.39	0.9
308.15	0.5055	788.78	0.85
308.15	0.5603	784.97	0.7
308.15	0.7042	776.34	0.69
308.15	0.7728	772.78	0.62
308.15	0.8468	769.24	0.58
308.15	1	762.94	0.42
318.15	0	841.53	0.22
318.15	0.0627	830.05	1.77
318.15	0.1009	823.89	1.44
318.15	0.207	809.33	1.27
318.15	0.3093	798.09	1.07
318.15	0.3863	790.87	0.9
318.15	0.5055	781.4	0.83
318.15	0.5603	777.68	0.7
318.15	0.7042	769.05	0.68
318.15	0.7728	765.61	0.61
318.15	0.8468	762.23	0.58
318.15	1	755.99	0.42

System: hexadecane + propylbenzene; phases: Liquid
Fixed: Pressure, kPa = 100
Fixed: Frequency, MHz = 3
Property: Speed of sound, m/s (Liquid); method: Single path-length method
Temperature, K	Mole fraction of hexadecane	Speed of sound, m/s	uncertainty
298.15	0	1320.6	0.6
298.15	0.0627	1317.3	0.8
298.15	0.1009	1315.7	0.7
298.15	0.207	1314.8	0.7
298.15	0.3093	1315.7	0.8
298.15	0.3863	1317.7	0.8
298.15	0.5055	1320.9	0.8
298.15	0.5603	1322.7	0.9
298.15	0.7042	1327.7	0.9
298.15	0.7728	1330	1
298.15	0.8468	1332.8	1
298.15	1	1338.6	1
308.15	0	1280.6	0.6
308.15	0.0627	1277.8	0.8
308.15	0.1009	1276.8	0.7
308.15	0.207	1276.4	0.7
308.15	0.3093	1277.9	0.8
308.15	0.3863	1279.9	0.8
308.15	0.5055	1283.6	0.9
308.15	0.5603	1285.4	0.9
308.15	0.7042	1290.5	0.9
308.15	0.7728	1292.9	1
308.15	0.8468	1295.7	1
308.15	1	1301.3	1
318.15	0	1241	0.6
318.15	0.0627	1238.8	0.7
318.15	0.1009	1238.2	0.7
318.15	0.207	1238.5	0.7
318.15	0.3093	1240.4	0.8
318.15	0.3863	1242.7	0.8
318.15	0.5055	1246.6	0.9
318.15	0.5603	1248.6	0.9
318.15	0.7042	1253.6	0.9
318.15	0.7728	1256.2	1
318.15	0.8468	1258.9	1
318.15	1	1264.6	1

System: hexadecane + propylbenzene; phases: Liquid
Fixed: Pressure, kPa = 100
Property: Viscosity, Pa*s (Liquid); method: Falling or rolling sphere viscometry
Temperature, K	Mole fraction of hexadecane	Viscosity, Pa*s	uncertainty
298.15	0	0.000792	2.1e-05
298.15	0.0627	0.000872	2.7e-05
298.15	0.1009	0.000928	2.9e-05
298.15	0.207	0.001092	3.3e-05
298.15	0.3093	0.001269	3.8e-05
298.15	0.3863	0.001408	4.2e-05
298.15	0.5055	0.001654	4.7e-05
298.15	0.5603	0.001776	5e-05
298.15	0.7042	0.002114	5.6e-05
298.15	0.7728	0.002291	6.1e-05
298.15	0.8468	0.002505	6.5e-05
298.15	1	0.002968	6.4e-05
308.15	0	0.000699	2.1e-05
308.15	0.0627	0.000766	2.6e-05
308.15	0.1009	0.000813	2.8e-05
308.15	0.207	0.000949	3.2e-05
308.15	0.3093	0.00109	3.6e-05
308.15	0.3863	0.001203	3.9e-05
308.15	0.5055	0.001396	4.5e-05
308.15	0.5603	0.001495	4.7e-05
308.15	0.7042	0.001761	5.3e-05
308.15	0.7728	0.001886	5.7e-05
308.15	0.8468	0.00205	6e-05
308.15	1	0.002389	6.3e-05
318.15	0	0.000626	2.1e-05
318.15	0.0627	0.000683	2.5e-05
318.15	0.1009	0.000722	2.7e-05
318.15	0.207	0.000835	3.1e-05
318.15	0.3093	0.000952	3.5e-05
318.15	0.3863	0.001044	3.8e-05
318.15	0.5055	0.0012	4.3e-05
318.15	0.5603	0.00128	4.5e-05
318.15	0.7042	0.001485	5.1e-05
318.15	0.7728	0.001585	5.5e-05
318.15	0.8468	0.001713	5.8e-05
318.15	1	0.001971	6.2e-05

System: hexadecane + propylbenzene; phases: Liquid
Fixed: Pressure, kPa = 100
Property: Refractive index (Na D-line) (Liquid); method: Standard Abbe refractometry
Temperature, K	Mole fraction of hexadecane	Refractive index (Na D-line)	uncertainty
298.15	0	1.4896	0.0004
298.15	0.0627	1.4817	0.0013
298.15	0.1009	1.4775	0.001
298.15	0.207	1.4677	0.0009
298.15	0.3093	1.4602	0.0008
298.15	0.3863	1.4554	0.0007
298.15	0.5055	1.4492	0.0007
298.15	0.5603	1.4467	0.0006
298.15	0.7042	1.441	0.0006
298.15	0.7728	1.4387	0.0005
298.15	0.8468	1.4365	0.0005
298.15	1	1.4324	0.0004
308.15	0	1.4844	0.0004
308.15	0.0627	1.4766	0.0013
308.15	0.1009	1.4724	0.001
308.15	0.207	1.4628	0.0009
308.15	0.3093	1.4554	0.0008
308.15	0.3863	1.4509	0.0007
308.15	0.5055	1.4448	0.0007
308.15	0.5603	1.4424	0.0006
308.15	0.7042	1.4368	0.0006
308.15	0.7728	1.4346	0.0005
308.15	0.8468	1.4323	0.0005
308.15	1	1.4283	0.0004
318.15	0	1.4792	0.0004
318.15	0.0627	1.4713	0.0013
318.15	0.1009	1.4673	0.001
318.15	0.207	1.4578	0.0009
318.15	0.3093	1.4506	0.0008
318.15	0.3863	1.4461	0.0007
318.15	0.5055	1.4402	0.0006
318.15	0.5603	1.4378	0.0006
318.15	0.7042	1.4324	0.0006
318.15	0.7728	1.4302	0.0005
318.15	0.8468	1.428	0.0005
318.15	1	1.4241	0.0004

System: hexadecane + (1-methylpropyl)benzene; phases: Liquid
Fixed: Pressure, kPa = 100
Property: Mass density, kg/m3 (Liquid); method: Vibrating tube method
Temperature, K	Mole fraction of hexadecane	Mass density, kg/m3	uncertainty
298.15	0	857.89	0.42
298.15	0.0702	846.08	1.63
298.15	0.1382	836.12	1.38
298.15	0.2541	821.7	1.27
298.15	0.3113	815.5	1.08
298.15	0.4028	806.76	1
298.15	0.4757	800.6	0.92
298.15	0.5349	796.04	0.84
298.15	0.6167	790.37	0.77
298.15	0.7476	782.25	0.73
298.15	0.832	777.71	0.65
298.15	1	769.81	0.42
308.15	0	849.78	0.42
308.15	0.0702	838.16	1.61
308.15	0.1382	828.35	1.36
308.15	0.2541	814.15	1.26
308.15	0.3113	808.04	1.07
308.15	0.4028	799.42	0.99
308.15	0.4757	793.34	0.91
308.15	0.5349	788.84	0.83
308.15	0.6167	783.24	0.76
308.15	0.7476	775.3	0.72
308.15	0.832	770.73	0.64
308.15	1	762.89	0.42
318.15	0	841.64	0.42
318.15	0.0702	830.21	1.58
318.15	0.1382	820.55	1.34
318.15	0.2541	806.57	1.24
318.15	0.3113	800.55	1.06
318.15	0.4028	792.05	0.98
318.15	0.4757	786.06	0.89
318.15	0.5349	781.7	0.82
318.15	0.6167	776.09	0.76
318.15	0.7476	768.18	0.71
318.15	0.832	763.74	0.64
318.15	1	755.98	0.42

System: hexadecane + (1-methylpropyl)benzene; phases: Liquid
Fixed: Pressure, kPa = 100
Fixed: Frequency, MHz = 3
Property: Speed of sound, m/s (Liquid); method: Single path-length method
Temperature, K	Mole fraction of hexadecane	Speed of sound, m/s	uncertainty
298.15	0	1313.8	1
298.15	0.0702	1312	1
298.15	0.1382	1311.4	1
298.15	0.2541	1312.4	1
298.15	0.3113	1313.7	1
298.15	0.4028	1316.1	1
298.15	0.4757	1318.4	1
298.15	0.5349	1320.7	1
298.15	0.6167	1323.2	1
298.15	0.7476	1328.3	1
298.15	0.832	1331.6	1
298.15	1	1338.5	1
308.15	0	1274.5	1
308.15	0.0702	1273.2	1
308.15	0.1382	1273.1	1
308.15	0.2541	1274.7	1
308.15	0.3113	1276.1	1
308.15	0.4028	1278.8	1
308.15	0.4757	1281.2	1
308.15	0.5349	1283.5	1
308.15	0.6167	1286.2	1
308.15	0.7476	1291.7	1
308.15	0.832	1294.6	1
308.15	1	1301.2	1
318.15	0	1235.7	1
318.15	0.0702	1235	1
318.15	0.1382	1235.3	1
318.15	0.2541	1237.4	1
318.15	0.3113	1239	1
318.15	0.4028	1241.9	1
318.15	0.4757	1244.5	1
318.15	0.5349	1246.8	1
318.15	0.6167	1249.7	1
318.15	0.7476	1254.5	1
318.15	0.832	1258.2	1
318.15	1	1264.7	1

System: hexadecane + (1-methylpropyl)benzene; phases: Liquid
Fixed: Pressure, kPa = 100
Property: Viscosity, Pa*s (Liquid); method: Falling or rolling sphere viscometry
Temperature, K	Mole fraction of hexadecane	Viscosity, Pa*s	uncertainty
298.15	0	0.000912	2.1e-05
298.15	0.0702	0.001004	2.8e-05
298.15	0.1382	0.001112	3.3e-05
298.15	0.2541	0.00133	3.7e-05
298.15	0.3113	0.001449	4e-05
298.15	0.4028	0.001644	4.4e-05
298.15	0.4757	0.001793	4.6e-05
298.15	0.5349	0.001924	4.9e-05
298.15	0.6167	0.002101	5.3e-05
298.15	0.7476	0.002387	5.8e-05
298.15	0.832	0.002587	6.2e-05
298.15	1	0.003035	6.4e-05
308.15	0	0.000796	2.1e-05
308.15	0.0702	0.000874	2.7e-05
308.15	0.1382	0.000954	3e-05
308.15	0.2541	0.001128	3.5e-05
308.15	0.3113	0.001223	3.7e-05
308.15	0.4028	0.001375	4.1e-05
308.15	0.4757	0.001493	4.4e-05
308.15	0.5349	0.001592	4.6e-05
308.15	0.6167	0.001734	5e-05
308.15	0.7476	0.00195	5.5e-05
308.15	0.832	0.002099	5.9e-05
308.15	1	0.002439	6.3e-05
318.15	0	0.000707	2.1e-05
318.15	0.0702	0.000771	2.6e-05
318.15	0.1382	0.000838	2.9e-05
318.15	0.2541	0.000975	3.3e-05
318.15	0.3113	0.00105	3.6e-05
318.15	0.4028	0.001174	4e-05
318.15	0.4757	0.001275	4.3e-05
318.15	0.5349	0.001356	4.4e-05
318.15	0.6167	0.001468	4.8e-05
318.15	0.7476	0.001642	5.3e-05
318.15	0.832	0.001762	5.7e-05
318.15	1	0.002008	6.2e-05

System: hexadecane + (1-methylpropyl)benzene; phases: Liquid
Fixed: Pressure, kPa = 100
Property: Refractive index (Na D-line) (Liquid); method: Standard Abbe refractometry
Temperature, K	Mole fraction of hexadecane	Refractive index (Na D-line)	uncertainty
298.15	0	1.4876	0.0004
298.15	0.0702	1.4801	0.0011
298.15	0.1382	1.4738	0.0009
298.15	0.2541	1.4647	0.0009
298.15	0.3113	1.4608	0.0008
298.15	0.4028	1.4553	0.0007
298.15	0.4757	1.4515	0.0007
298.15	0.5349	1.4486	0.0006
298.15	0.6167	1.4451	0.0006
298.15	0.7476	1.4401	0.0006
298.15	0.832	1.4373	0.0005
298.15	1	1.4324	0.0004
308.15	0	1.4827	0.0004
308.15	0.0702	1.4753	0.0011
308.15	0.1382	1.469	0.0009
308.15	0.2541	1.46	0.0009
308.15	0.3113	1.4562	0.0007
308.15	0.4028	1.4508	0.0007
308.15	0.4757	1.447	0.0007
308.15	0.5349	1.4441	0.0006
308.15	0.6167	1.4407	0.0006
308.15	0.7476	1.4358	0.0006
308.15	0.832	1.433	0.0005
308.15	1	1.4283	0.0004
318.15	0	1.4778	0.0004
318.15	0.0702	1.4704	0.0011
318.15	0.1382	1.4642	0.0009
318.15	0.2541	1.4553	0.0008
318.15	0.3113	1.4516	0.0007
318.15	0.4028	1.4462	0.0007
318.15	0.4757	1.4425	0.0006
318.15	0.5349	1.4398	0.0006
318.15	0.6167	1.4364	0.0006
318.15	0.7476	1.4315	0.0006
318.15	0.832	1.4288	0.0005
318.15	1	1.4241	0.0004
