Measured thermophysical data. Volumetric and transport properties of betaine hydrochloride drug in aqueous uracil solutions at T = (298.15-318.15) K
Source: J. Chem. Thermodyn., 2016, 10.1016/j.jct.2016.03.008
Compound 1: betaine hydrochloride, C5H12ClNO2, InChI=1S/C5H11NO2.ClH/c1-6(2,3)4-5(7)8;/h4H2,1-3H3;1H, purity 99%
Compound 2: 2,4(1H,3H)-pyrimidinedione, C4H4N2O2, InChI=1S/C4H4N2O2/c7-3-1-2-5-4(8)6-3/h1-2H,(H2,5,6,7,8), purity 99%
Compound 3: water, H2O, InChI=1S/H2O/h1H2

System: 2,4(1H,3H)-pyrimidinedione + water; phases: Liquid
Fixed: Pressure, kPa = 101
Property: Mass density, kg/m3 (Liquid); method: Vibrating tube method
Molality, mol/kg of 2,4(1H,3H)-pyrimidinedione	Temperature, K	Mass density, kg/m3	uncertainty
0.005	298.15	997.23	1
0.005	308.15	994.25	1
0.005	318.15	990.42	1
0.01	298.15	997.44	1.02
0.01	308.15	994.44	1
0.01	318.15	990.61	1.02
0.015	298.15	997.63	1
0.015	308.15	994.63	1
0.015	318.15	990.79	1.01
0.02	298.15	997.82	1
0.02	308.15	994.82	1
0.02	318.15	990.98	1

System: 2,4(1H,3H)-pyrimidinedione + water; phases: Liquid
Fixed: Pressure, kPa = 101
Property: Viscosity, Pa*s (Liquid); method: Capillary tube (Ostwald; Ubbelohde) method
Molality, mol/kg of 2,4(1H,3H)-pyrimidinedione	Temperature, K	Viscosity, Pa*s	uncertainty
0.005	298.15	0.0008929	2.07e-05
0.005	308.15	0.000722	2.05e-05
0.005	318.15	0.000598	2.03e-05
0.01	298.15	0.0008953	2.45e-05
0.01	308.15	0.0007232	2.05e-05
0.01	318.15	0.0006004	2.2e-05
0.015	298.15	0.0008977	2.16e-05
0.015	308.15	0.0007245	2.05e-05
0.015	318.15	0.0006017	2.05e-05
0.02	298.15	0.0009002	2.07e-05
0.02	308.15	0.000727	2.05e-05
0.02	318.15	0.0006041	2.03e-05

System: 2,4(1H,3H)-pyrimidinedione + betaine hydrochloride + water; phases: Liquid
Fixed: Pressure, kPa = 101
Property: Mass density, kg/m3 (Liquid); method: Vibrating tube method
Solvent: Molality, mol/kg of 2,4(1H,3H)-pyrimidinedione	Temperature, K	Molality, mol/kg of betaine hydrochloride	Mass density, kg/m3	uncertainty
0	298.15	0.006	997.26	1.01
0	298.15	0.0134	997.52	1.01
0	298.15	0.0267	997.98	1.01
0	298.15	0.0401	998.43	1.01
0	298.15	0.0536	998.87	1.01
0	298.15	0.0671	999.31	1.01
0	308.15	0.006	994.25	1.01
0	308.15	0.0134	994.51	1.01
0	308.15	0.0267	994.97	1.01
0	308.15	0.0401	995.42	1.01
0	308.15	0.0536	995.87	1.01
0	308.15	0.0671	996.31	1.01
0	318.15	0.006	990.47	1.01
0	318.15	0.0134	990.73	1.01
0	318.15	0.0267	991.19	1.01
0	318.15	0.0401	991.65	1.01
0	318.15	0.0536	992.1	1.01
0	318.15	0.0671	992.54	1.01
0.005	298.15	0.006	997.45	1.01
0.005	298.15	0.0134	997.71	1.01
0.005	298.15	0.0267	998.17	1.01
0.005	298.15	0.0401	998.62	1.01
0.005	298.15	0.0536	999.06	1.01
0.005	298.15	0.0671	999.51	1.01
0.005	308.15	0.006	994.47	1.01
0.005	308.15	0.0134	994.72	1.01
0.005	308.15	0.0267	995.18	1.01
0.005	308.15	0.0401	995.63	1.01
0.005	308.15	0.0536	996.07	1.01
0.005	308.15	0.0671	996.51	1.01
0.005	318.15	0.006	990.64	1.01
0.005	318.15	0.0134	990.89	1.01
0.005	318.15	0.0267	991.35	1.01
0.005	318.15	0.0401	991.81	1.01
0.005	318.15	0.0536	992.25	1.01
0.005	318.15	0.0671	992.7	1.01
0.01	298.15	0.006	997.66	1.02
0.01	298.15	0.0134	997.91	1.01
0.01	298.15	0.0267	998.36	1.01
0.01	298.15	0.0401	998.81	1.08
0.01	298.15	0.0536	999.25	1.1
0.01	298.15	0.0671	999.69	1.01
0.01	308.15	0.006	994.65	1.01
0.01	308.15	0.0134	994.91	1.01
0.01	308.15	0.0267	995.36	1.01
0.01	308.15	0.0401	995.81	1.01
0.01	308.15	0.0536	996.25	1.01
0.01	308.15	0.0671	996.68	1.01
0.01	318.15	0.006	990.82	1.01
0.01	318.15	0.0134	991.07	1.04
0.01	318.15	0.0267	991.52	1.04
0.01	318.15	0.0401	991.96	1.52
0.01	318.15	0.0536	992.41	1.15
0.01	318.15	0.0671	992.84	1.06
0.015	298.15	0.006	997.84	1.01
0.015	298.15	0.0134	998.1	1.01
0.015	298.15	0.0267	998.54	1.02
0.015	298.15	0.0401	998.99	1.01
0.015	298.15	0.0536	999.43	1.01
0.015	298.15	0.0671	999.86	1.03
0.015	308.15	0.006	994.84	1.01
0.015	308.15	0.0134	995.09	1.01
0.015	308.15	0.0267	995.53	1.01
0.015	308.15	0.0401	995.98	1.01
0.015	308.15	0.0536	996.42	1.01
0.015	308.15	0.0671	996.85	1.01
0.015	318.15	0.006	991	1.23
0.015	318.15	0.0134	991.25	1.06
0.015	318.15	0.0267	991.69	1.11
0.015	318.15	0.0401	992.14	1.01
0.015	318.15	0.0536	992.58	1.05
0.015	318.15	0.0671	993.01	1.01
0.02	298.15	0.006	998.03	1.01
0.02	298.15	0.0134	998.28	1.01
0.02	298.15	0.0267	998.72	1.01
0.02	298.15	0.0401	999.17	1.01
0.02	298.15	0.0536	999.61	1.01
0.02	298.15	0.0671	1000.04	1.01
0.02	308.15	0.006	995.03	1.01
0.02	308.15	0.0134	995.28	1.01
0.02	308.15	0.0267	995.71	1.01
0.02	308.15	0.0401	996.15	1.01
0.02	308.15	0.0536	996.58	1.01
0.02	308.15	0.0671	997	1.01
0.02	318.15	0.006	991.18	1.01
0.02	318.15	0.0134	991.43	1.01
0.02	318.15	0.0267	991.86	1.01
0.02	318.15	0.0401	992.3	1.01
0.02	318.15	0.0536	992.72	1.01
0.02	318.15	0.0671	993.15	1.01
0.005	298.15	0	997.23	1.01
0.005	308.15	0	994.25	1.01
0.005	318.15	0	990.42	1.01
0.01	298.15	0	997.44	1.14
0.01	308.15	0	994.44	1.01
0.01	318.15	0	990.61	1.08
0.015	298.15	0	997.63	1.02
0.015	308.15	0	994.63	1.01
0.015	318.15	0	990.79	1.02
0.02	298.15	0	997.82	1.01
0.02	308.15	0	994.82	1.01
0.02	318.15	0	990.98	1.01

System: 2,4(1H,3H)-pyrimidinedione + betaine hydrochloride + water; phases: Liquid
Fixed: Pressure, kPa = 101
Property: Viscosity, Pa*s (Liquid); method: Capillary tube (Ostwald; Ubbelohde) method
Solvent: Molality, mol/kg of 2,4(1H,3H)-pyrimidinedione	Temperature, K	Molality, mol/kg of betaine hydrochloride	Viscosity, Pa*s	uncertainty
0	298.15	0.006	0.0008929	2.09e-05
0	298.15	0.0134	0.0008965	2.09e-05
0	298.15	0.0267	0.0009009	2.09e-05
0	298.15	0.0401	0.0009064	2.09e-05
0	298.15	0.0536	0.0009124	2.09e-05
0	298.15	0.0671	0.0009181	2.1e-05
0	308.15	0.006	0.0007208	2.06e-05
0	308.15	0.0134	0.0007244	2.06e-05
0	308.15	0.0267	0.0007288	2.06e-05
0	308.15	0.0401	0.0007331	2.06e-05
0	308.15	0.0536	0.0007381	2.07e-05
0	308.15	0.0671	0.0007427	2.08e-05
0	318.15	0.006	0.000598	2e-05
0	318.15	0.0134	0.0006005	2.05e-05
0	318.15	0.0267	0.0006054	2.05e-05
0	318.15	0.0401	0.0006104	2.05e-05
0	318.15	0.0536	0.0006153	2.05e-05
0	318.15	0.0671	0.00062	2.05e-05
0.005	298.15	0.006	0.0008942	2.09e-05
0.005	298.15	0.0134	0.0008978	2.09e-05
0.005	298.15	0.0267	0.0009028	2.09e-05
0.005	298.15	0.0401	0.0009088	2.09e-05
0.005	298.15	0.0536	0.0009149	2.09e-05
0.005	298.15	0.0671	0.0009217	2.1e-05
0.005	308.15	0.006	0.0007233	2.06e-05
0.005	308.15	0.0134	0.0007258	2.06e-05
0.005	308.15	0.0267	0.0007301	2.06e-05
0.005	308.15	0.0401	0.0007356	2.06e-05
0.005	308.15	0.0536	0.0007417	2.07e-05
0.005	308.15	0.0671	0.0007462	2.07e-05
0.005	318.15	0.006	0.0005993	2.05e-05
0.005	318.15	0.0134	0.0006018	2.05e-05
0.005	318.15	0.0267	0.0006067	2.05e-05
0.005	318.15	0.0401	0.0006117	2.05e-05
0.005	318.15	0.0536	0.0006178	2.05e-05
0.005	318.15	0.0671	0.0006218	2.05e-05
0.01	298.15	0.006	0.0008966	2.09e-05
0.01	298.15	0.0134	0.0009003	2.3e-05
0.01	298.15	0.0267	0.0009052	3.03e-05
0.01	298.15	0.0401	0.0009124	3.3e-05
0.01	298.15	0.0536	0.0009184	2.51e-05
0.01	298.15	0.0671	0.0009252	3.72e-05
0.01	308.15	0.006	0.0007246	2.06e-05
0.01	308.15	0.0134	0.000727	2.06e-05
0.01	308.15	0.0267	0.000732	2.06e-05
0.01	308.15	0.0401	0.000738	2.07e-05
0.01	308.15	0.0536	0.0007441	2.07e-05
0.01	308.15	0.0671	0.0007487	2.07e-05
0.01	318.15	0.006	0.0006017	2.29e-05
0.01	318.15	0.0134	0.0006042	2.88e-05
0.01	318.15	0.0267	0.0006091	2.11e-05
0.01	318.15	0.0401	0.0006152	3.87e-05
0.01	318.15	0.0536	0.0006202	2.06e-05
0.01	318.15	0.0671	0.0006248	2.57e-05
0.015	298.15	0.006	0.0008991	2.31e-05
0.015	298.15	0.0134	0.0009027	2.17e-05
0.015	298.15	0.0267	0.0009087	2.89e-05
0.015	298.15	0.0401	0.0009148	2.22e-05
0.015	298.15	0.0536	0.000922	2.48e-05
0.015	298.15	0.0671	0.0009288	2.1e-05
0.015	308.15	0.006	0.0007258	2.06e-05
0.015	308.15	0.0134	0.0007283	2.06e-05
0.015	308.15	0.0267	0.0007332	2.06e-05
0.015	308.15	0.0401	0.0007393	2.07e-05
0.015	308.15	0.0536	0.0007454	2.07e-05
0.015	308.15	0.0671	0.0007511	2.07e-05
0.015	318.15	0.006	0.000603	2.87e-05
0.015	318.15	0.0134	0.0006055	3.09e-05
0.015	318.15	0.0267	0.0006104	2.16e-05
0.015	318.15	0.0401	0.0006165	2.23e-05
0.015	318.15	0.0536	0.0006215	2.46e-05
0.015	318.15	0.0671	0.0006273	2.16e-05
0.02	298.15	0.006	0.0009015	2.09e-05
0.02	298.15	0.0134	0.0009051	2.09e-05
0.02	298.15	0.0267	0.0009112	2.09e-05
0.02	298.15	0.0401	0.0009184	2.1e-05
0.02	298.15	0.0536	0.0009256	2.1e-05
0.02	298.15	0.0671	0.0009323	2.1e-05
0.02	308.15	0.006	0.0007283	2.07e-05
0.02	308.15	0.0134	0.0007307	2.07e-05
0.02	308.15	0.0267	0.0007368	2.07e-05
0.02	308.15	0.0401	0.0007417	2.07e-05
0.02	308.15	0.0536	0.0007489	2.07e-05
0.02	308.15	0.0671	0.0007547	2.09e-05
0.02	318.15	0.006	0.0006054	2.05e-05
0.02	318.15	0.0134	0.0006079	2.05e-05
0.02	318.15	0.0267	0.0006128	2.05e-05
0.02	318.15	0.0401	0.0006189	2.05e-05
0.02	318.15	0.0536	0.000625	2.1e-05
0.02	318.15	0.0671	0.0006308	2.05e-05
0.005	298.15	0	0.0008929	2.09e-05
0.005	308.15	0	0.000722	2.06e-05
0.005	318.15	0	0.000598	2.05e-05
0.01	298.15	0	0.0008953	3.41e-05
0.01	308.15	0	0.0007232	2.06e-05
0.01	318.15	0	0.0006004	2.06e-05
0.015	298.15	0	0.0008977	2.17e-05
0.015	308.15	0	0.0007245	2.06e-05
0.015	318.15	0	0.0006017	2.05e-05
0.02	298.15	0	0.0009002	2.09e-05
0.02	308.15	0	0.000727	2.07e-05
0.02	318.15	0	0.0006041	2.05e-05

System: betaine hydrochloride + water; phases: Liquid
Fixed: Pressure, kPa = 101
Property: Mass density, kg/m3 (Liquid); method: Vibrating tube method
Temperature, K	Molality, mol/kg of betaine hydrochloride	Mass density, kg/m3	uncertainty
298.15	0.006	997.26	1.01
298.15	0.0134	997.52	1.01
298.15	0.0267	997.98	1.01
298.15	0.0401	998.43	1.01
298.15	0.0536	998.87	1.01
298.15	0.0671	999.31	1.01
308.15	0.006	994.25	1.01
308.15	0.0134	994.51	1.01
308.15	0.0267	994.97	1.01
308.15	0.0401	995.42	1.01
308.15	0.0536	995.87	1.01
308.15	0.0671	996.31	1.01
318.15	0.006	990.47	1.01
318.15	0.0134	990.73	1.01
318.15	0.0267	991.19	1.01
318.15	0.0401	991.65	1.01
318.15	0.0536	992.1	1.01
318.15	0.0671	992.54	1.01

System: betaine hydrochloride + water; phases: Liquid
Fixed: Pressure, kPa = 101
Property: Viscosity, Pa*s (Liquid); method: Capillary tube (Ostwald; Ubbelohde) method
Temperature, K	Molality, mol/kg of betaine hydrochloride	Viscosity, Pa*s	uncertainty
298.15	0.006	0.0008929	2.09e-05
298.15	0.0134	0.0008965	2.09e-05
298.15	0.0267	0.0009009	2.09e-05
298.15	0.0401	0.0009064	2.09e-05
298.15	0.0536	0.0009124	2.09e-05
298.15	0.0671	0.0009181	2.1e-05
308.15	0.006	0.0007208	2.06e-05
308.15	0.0134	0.0007244	2.06e-05
308.15	0.0267	0.0007288	2.06e-05
308.15	0.0401	0.0007331	2.06e-05
308.15	0.0536	0.0007381	2.07e-05
308.15	0.0671	0.0007427	2.08e-05
318.15	0.006	0.000598	2e-05
318.15	0.0134	0.0006005	2.05e-05
318.15	0.0267	0.0006054	2.05e-05
318.15	0.0401	0.0006104	2.05e-05
318.15	0.0536	0.0006153	2.05e-05
318.15	0.0671	0.00062	2.05e-05
