Measured thermophysical data. Automated densimetric system: Measurements and uncertainties for compressed fluids
Source: J. Chem. Thermodyn., 2009, 10.1016/j.jct.2008.12.020
Compound 1: toluene, C7H8, InChI=1S/C7H8/c1-7-5-3-2-4-6-7/h2-6H,1H3
Compound 2: decane, C10H22, InChI=1S/C10H22/c1-3-5-7-9-10-8-6-4-2/h3-10H2,1-2H3
Compound 3: pentaerythritol tetrapentanoate, C25H44O8, InChI=1S/C25H44O8/c1-5-9-13-21(26)30-17-25(18-31-22(27)14-10-6-2,19-32-23(28)15-11-7-3)20-33-24(29)16-12-8-4/h5-20H2,1-4H3

System: toluene; phases: Liquid
Property: Mass density, kg/m3 (Liquid); method: Vibrating tube method
Temperature, K	Pressure, kPa	Mass density, kg/m3	uncertainty
283.15	100	876	1.4
283.15	1000	876.6	1.4
283.15	5000	879.5	1.4
283.15	10000	882.9	1.4
283.15	30000	895.3	1.4
283.15	50000	906.4	1.4
283.15	70000	916.4	1.4
298.15	100	862.5	1.4
298.15	1000	863	1.4
298.15	5000	866.1	1.4
298.15	10000	869.7	1.4
298.15	30000	883.1	1.4
298.15	50000	894.9	1.4
298.15	70000	905.5	1.4
323.15	100	839.1	1.4
323.15	1000	839.7	1.4
323.15	5000	843.2	1.4
323.15	10000	847.5	1.4
323.15	30000	862.8	1.4
323.15	50000	876	1.4
323.15	70000	887.6	1.5
333.15	100	829.6	1.4
333.15	1000	830.2	1.4
333.15	5000	834	1.4
333.15	10000	838.5	1.4
333.15	30000	854.6	1.4
333.15	50000	868.4	1.4
333.15	70000	880.6	1.5
348.15	100	815.1	1.4
348.15	1000	815.8	1.4
348.15	5000	820	1.4
348.15	10000	825	1.4
348.15	30000	842.4	1.4
348.15	50000	857.2	1.4
348.15	70000	870.1	1.5
373.15	100	789.5	1.4
373.15	1000	791.4	1.4
373.15	5000	796.4	1.4
373.15	10000	802.3	1.4
373.15	30000	822.4	1.4
373.15	50000	838.9	1.5
373.15	70000	853.1	1.5
398.15	1000	765.1	1.4
398.15	5000	771	1.4
398.15	10000	777.9	1.4
398.15	30000	801.1	1.4
398.15	50000	819.6	1.5
398.15	70000	835.1	1.5

System: decane; phases: Liquid
Property: Mass density, kg/m3 (Liquid); method: Vibrating tube method
Temperature, K	Pressure, kPa	Mass density, kg/m3	uncertainty
283.15	100	738.2	1.4
283.15	1000	738.6	1.4
283.15	5000	741.6	1.4
283.15	10000	744.9	1.4
283.15	30000	757.1	1.5
283.15	50000	767.7	1.5
283.15	70000	777.1	1.6
298.15	100	727.2	1.4
298.15	1000	727.8	1.4
298.15	5000	730.9	1.4
298.15	10000	734.5	1.4
298.15	30000	747.5	1.5
298.15	50000	758.8	1.5
298.15	70000	768.6	1.6
323.15	100	708.1	1.4
323.15	1000	708.5	1.4
323.15	5000	712	1.4
323.15	10000	716.2	1.4
323.15	30000	731	1.5
323.15	50000	743.5	1.6
323.15	70000	754.3	1.6
333.15	100	700.4	1.4
333.15	1000	700.9	1.4
333.15	5000	704.7	1.4
333.15	10000	709.2	1.4
333.15	30000	724.7	1.5
333.15	50000	737.7	1.6
333.15	70000	749	1.6
348.15	100	688.7	1.4
348.15	1000	689.3	1.4
348.15	5000	693.4	1.4
348.15	10000	698.3	1.4
348.15	30000	715.1	1.5
348.15	50000	728.9	1.6
348.15	70000	740.8	1.7
373.15	100	668	1.4
373.15	1000	669.7	1.4
373.15	5000	674.6	1.4
373.15	10000	680.3	1.4
373.15	30000	699.5	1.5
373.15	50000	714.8	1.6
373.15	70000	727.7	1.7
398.15	100	647.5	1.4
398.15	1000	648.5	1.4
398.15	5000	654.1	1.4
398.15	10000	660.8	1.4
398.15	30000	682.6	1.5
398.15	50000	699.5	1.6
398.15	70000	713.5	1.7

System: pentaerythritol tetrapentanoate; phases: Liquid
Property: Mass density, kg/m3 (Liquid); method: Vibrating tube method
Temperature, K	Pressure, kPa	Mass density, kg/m3	uncertainty
283.15	100	1026.6	1.4
283.15	1000	1027.2	1.4
283.15	5000	1029.7	1.4
283.15	10000	1032.5	1.4
283.15	30000	1043.3	1.4
283.15	50000	1053.1	1.4
283.15	70000	1061.9	1.5
298.15	100	1014.7	1.4
298.15	1000	1015.3	1.4
298.15	5000	1018	1.4
298.15	10000	1021.1	1.4
298.15	30000	1032.6	1.4
298.15	50000	1043	1.4
298.15	70000	1052.3	1.5
323.15	100	994.6	1.4
323.15	1000	995.2	1.4
323.15	5000	998.1	1.4
323.15	10000	1001.6	1.4
323.15	30000	1014.3	1.4
323.15	50000	1025.6	1.4
323.15	70000	1035.8	1.4
333.15	100	986.7	1.4
333.15	1000	987.3	1.4
333.15	5000	990.4	1.4
333.15	10000	994	1.4
333.15	30000	1007.2	1.4
333.15	50000	1018.9	1.4
333.15	70000	1029.4	1.4
348.15	100	974.7	1.4
348.15	1000	975.4	1.4
348.15	5000	978.6	1.4
348.15	10000	982.4	1.4
348.15	30000	996.5	1.4
348.15	50000	1008.8	1.4
348.15	70000	1019.9	1.4
373.15	100	953.7	1.4
373.15	1000	955.4	1.4
373.15	5000	959.1	1.4
373.15	10000	963.4	1.4
373.15	30000	978.9	1.4
373.15	50000	992.4	1.4
373.15	70000	1004.3	1.4
398.15	100	934.1	1.4
398.15	1000	935	1.4
398.15	5000	938.9	1.4
398.15	10000	943.7	1.4
398.15	30000	960.8	1.4
398.15	50000	975.4	1.4
398.15	70000	988.3	1.4
