Measured thermophysical data. Densities and volumetric properties of binary mixtures of xylene with N,N-dimethylformamide at different temperatures
Source: J. Chem. Thermodyn., 2007, 10.1016/j.jct.2006.07.017
Compound 1: dimethylformamide, C3H7NO, InChI=1S/C3H7NO/c1-4(2)3-5/h3H,1-2H3, purity 99.7%
Compound 2: 1,2-dimethylbenzene, C8H10, InChI=1S/C8H10/c1-7-5-3-4-6-8(7)2/h3-6H,1-2H3, purity 99.7%
Compound 3: 1,3-dimethylbenzene, C8H10, InChI=1S/C8H10/c1-7-4-3-5-8(2)6-7/h3-6H,1-2H3, purity 98%
Compound 4: 1,4-dimethylbenzene, C8H10, InChI=1S/C8H10/c1-7-3-5-8(2)6-4-7/h3-6H,1-2H3, purity 99%

System: dimethylformamide; phases: Liquid
Property: Refractive index (Na D-line) (Liquid); method: Standard Abbe refractometry
Temperature, K	Pressure, kPa	Refractive index (Na D-line)	uncertainty
298.15	101.325	1.4307	0.0007

System: dimethylformamide; phases: Liquid
Property: Mass density, kg/m3 (Liquid); method: VIBTUB:UFactor:4
Temperature, K	Pressure, kPa	Mass density, kg/m3	uncertainty
298.15	101.325	943.85	0.23

System: 1,2-dimethylbenzene; phases: Liquid
Property: Refractive index (Na D-line) (Liquid); method: Standard Abbe refractometry
Temperature, K	Pressure, kPa	Refractive index (Na D-line)	uncertainty
298.15	101.325	1.5057	0.0007

System: 1,2-dimethylbenzene; phases: Liquid
Property: Mass density, kg/m3 (Liquid); method: VIBTUB:UFactor:4
Temperature, K	Pressure, kPa	Mass density, kg/m3	uncertainty
298.15	101.325	875.73	0.34

System: 1,3-dimethylbenzene; phases: Liquid
Property: Refractive index (Na D-line) (Liquid); method: Standard Abbe refractometry
Temperature, K	Pressure, kPa	Refractive index (Na D-line)	uncertainty
298.15	101.325	1.4973	0.0008

System: 1,3-dimethylbenzene; phases: Liquid
Property: Mass density, kg/m3 (Liquid); method: VIBTUB:UFactor:12
Temperature, K	Pressure, kPa	Mass density, kg/m3	uncertainty
298.15	101.325	859.83	1.64

System: 1,4-dimethylbenzene; phases: Liquid
Property: Refractive index (Na D-line) (Liquid); method: Standard Abbe refractometry
Temperature, K	Pressure, kPa	Refractive index (Na D-line)	uncertainty
298.15	101.325	1.4958	0.0008

System: 1,4-dimethylbenzene; phases: Liquid
Property: Mass density, kg/m3 (Liquid); method: VIBTUB:UFactor:8
Temperature, K	Pressure, kPa	Mass density, kg/m3	uncertainty
298.15	101.325	856.58	0.85

System: dimethylformamide + 1,2-dimethylbenzene; phases: Liquid
Fixed: Pressure, kPa = 101
Property: Mass density, kg/m3 (Liquid); method: VIBTUB:UFactor:4
Temperature, K	Mole fraction of 1,2-dimethylbenzene	Mass density, kg/m3	uncertainty
293.15	0.0555	943.56	0.23
293.15	0.1111	938.71	0.24
293.15	0.1754	933.3	0.24
293.15	0.2352	928.47	0.25
293.15	0.2952	923.8	0.26
293.15	0.3562	919.23	0.27
293.15	0.4251	914.29	0.27
293.15	0.4865	910.06	0.28
293.15	0.5484	905.95	0.29
293.15	0.612	901.89	0.29
293.15	0.6785	897.8	0.3
293.15	0.7325	894.58	0.3
293.15	0.7954	890.96	0.31
293.15	0.8654	887.04	0.32
293.15	0.9325	883.4	0.32
303.15	0.0652	933.58	0.24
303.15	0.1251	928.39	0.25
303.15	0.1854	923.37	0.26
303.15	0.2462	918.5	0.27
303.15	0.3125	913.42	0.27
303.15	0.3785	908.59	0.28
303.15	0.4358	904.56	0.29
303.15	0.4962	900.47	0.29
303.15	0.5521	896.83	0.3
303.15	0.6125	893.04	0.31
303.15	0.6784	889.05	0.31
303.15	0.7451	885.17	0.32
303.15	0.8012	882.01	0.32
303.15	0.8658	878.48	0.33
303.15	0.9485	874.12	0.33
313.15	0.0441	926.11	0.26
313.15	0.1025	920.99	0.26
313.15	0.1762	914.82	0.27
313.15	0.2341	910.18	0.28
313.15	0.2951	905.51	0.29
313.15	0.3756	899.63	0.3
313.15	0.4415	895.06	0.3
313.15	0.5012	891.08	0.31
313.15	0.5685	886.8	0.32
313.15	0.6215	883.55	0.32
313.15	0.6865	879.72	0.33
313.15	0.7451	876.39	0.33
313.15	0.8021	873.25	0.34
313.15	0.8654	869.88	0.34
313.15	0.9448	865.79	0.35
323.15	0.0485	916.16	0.27
323.15	0.1124	910.62	0.28
323.15	0.1852	904.61	0.29
323.15	0.2521	899.35	0.3
323.15	0.3251	893.91	0.3
323.15	0.3952	888.96	0.31
323.15	0.4658	884.2	0.32
323.15	0.5315	879.99	0.33
323.15	0.5952	876.08	0.33
323.15	0.6584	872.37	0.34
323.15	0.7251	868.61	0.34
323.15	0.7952	864.81	0.35
323.15	0.8456	862.18	0.35
323.15	0.9012	859.35	0.36
323.15	0.9599	856.45	0.36
333.15	0.0521	906.08	0.29
333.15	0.1245	899.89	0.3
333.15	0.1895	894.6	0.3
333.15	0.2451	890.29	0.31
333.15	0.3021	886.06	0.32
333.15	0.3685	881.35	0.32
333.15	0.4214	877.76	0.33
333.15	0.4912	873.24	0.34
333.15	0.5584	869.09	0.34
333.15	0.6121	865.92	0.35
333.15	0.6725	862.48	0.35
333.15	0.7315	859.26	0.36
333.15	0.7943	855.95	0.36
333.15	0.8651	852.38	0.37
333.15	0.9432	848.58	0.37
343.15	0.0625	895.2	0.3
343.15	0.1325	889.33	0.31
343.15	0.1952	884.33	0.32
343.15	0.2658	878.99	0.33
343.15	0.3321	874.24	0.34
343.15	0.3965	869.86	0.34
343.15	0.4652	865.41	0.35
343.15	0.5325	861.27	0.35
343.15	0.5912	857.83	0.36
343.15	0.6524	854.4	0.37
343.15	0.7125	851.16	0.37
343.15	0.7895	847.19	0.38
343.15	0.8462	844.4	0.38
343.15	0.9012	841.76	0.38
343.15	0.9577	839.14	0.39
353.15	0.0715	884.27	0.32
353.15	0.1252	879.83	0.33
353.15	0.1858	875.05	0.33
353.15	0.2521	870.08	0.34
353.15	0.3215	865.16	0.35
353.15	0.3865	860.79	0.36
353.15	0.4251	858.31	0.36
353.15	0.4851	854.59	0.37
353.15	0.5584	850.27	0.37
353.15	0.6221	846.71	0.38
353.15	0.6825	843.48	0.38
353.15	0.7551	839.78	0.39
353.15	0.8154	836.84	0.39
353.15	0.8851	833.58	0.4
353.15	0.9411	831.05	0.4

System: dimethylformamide + 1,3-dimethylbenzene; phases: Liquid
Fixed: Pressure, kPa = 101
Property: Mass density, kg/m3 (Liquid); method: VIBTUB:UFactor:8
Temperature, K	Mole fraction of 1,3-dimethylbenzene	Mass density, kg/m3	uncertainty
293.15	0.0541	942.31	0.46
293.15	0.1151	935.54	0.49
293.15	0.1752	929.18	0.53
293.15	0.2332	923.31	0.57
293.15	0.3021	916.67	0.62
293.15	0.3661	910.82	0.67
293.15	0.4341	904.88	0.72
293.15	0.4984	899.53	0.77
293.15	0.5624	894.44	0.83
293.15	0.6165	890.3	0.88
293.15	0.6751	885.98	0.93
293.15	0.7315	881.96	0.99
293.15	0.8085	876.67	1.07
293.15	0.8758	872.21	1.14
293.15	0.9425	867.93	1.21
303.15	0.0625	932.16	0.49
303.15	0.1251	925.21	0.53
303.15	0.1852	918.87	0.56
303.15	0.2515	912.21	0.61
303.15	0.3251	905.23	0.66
303.15	0.3895	899.45	0.71
303.15	0.4517	894.13	0.76
303.15	0.5214	888.45	0.82
303.15	0.5865	883.4	0.87
303.15	0.6485	878.8	0.93
303.15	0.7125	874.25	0.99
303.15	0.7885	869.05	1.06
303.15	0.8458	865.29	1.12
303.15	0.9012	861.75	1.18
303.15	0.9666	857.68	1.25
313.15	0.0569	923.43	0.51
313.15	0.1125	917.21	0.55
313.15	0.1812	909.9	0.59
313.15	0.2554	902.46	0.64
313.15	0.3251	895.89	0.69
313.15	0.4023	889.03	0.75
313.15	0.4785	882.65	0.81
313.15	0.5445	877.43	0.86
313.15	0.6054	872.82	0.91
313.15	0.6695	868.19	0.97
313.15	0.7254	864.3	1.02
313.15	0.7812	860.56	1.08
313.15	0.8452	856.41	1.14
313.15	0.9032	852.77	1.2
313.15	0.9577	849.43	1.26
323.15	0.0482	914.86	0.54
323.15	0.1065	908.29	0.57
323.15	0.1684	901.67	0.61
323.15	0.2341	895.02	0.65
323.15	0.3051	888.24	0.7
323.15	0.3659	882.75	0.75
323.15	0.4252	877.65	0.79
323.15	0.4932	872.11	0.84
323.15	0.5641	866.62	0.9
323.15	0.6247	862.17	0.95
323.15	0.6951	857.22	1.02
323.15	0.7554	853.17	1.07
323.15	0.8251	848.68	1.14
323.15	0.8812	845.18	1.2
323.15	0.9572	840.6	1.28
333.15	0.0547	904.33	0.57
333.15	0.1122	897.9	0.61
333.15	0.1815	890.59	0.65
333.15	0.2551	883.29	0.7
333.15	0.3151	877.68	0.74
333.15	0.3821	871.76	0.79
333.15	0.4554	865.64	0.84
333.15	0.5054	861.68	0.88
333.15	0.5625	857.35	0.93
333.15	0.6262	852.72	0.98
333.15	0.6785	849.09	1.02
333.15	0.7412	844.91	1.08
333.15	0.8054	840.8	1.14
333.15	0.8714	836.74	1.21
333.15	0.9548	831.81	1.29
343.15	0.0625	893.44	0.61
343.15	0.1214	886.95	0.64
343.15	0.1851	880.31	0.68
343.15	0.2451	874.4	0.72
343.15	0.3121	868.17	0.76
343.15	0.3852	861.78	0.82
343.15	0.4451	856.83	0.86
343.15	0.5054	852.1	0.91
343.15	0.5641	847.72	0.95
343.15	0.6214	843.62	1
343.15	0.6885	839.06	1.06
343.15	0.7451	835.37	1.11
343.15	0.8125	831.16	1.17
343.15	0.8821	827	1.23
343.15	0.9525	822.95	1.3
353.15	0.0521	884.42	0.63
353.15	0.112	877.82	0.67
353.15	0.1785	870.9	0.71
353.15	0.2352	865.33	0.74
353.15	0.2958	859.69	0.78
353.15	0.3562	854.38	0.82
353.15	0.4215	848.95	0.87
353.15	0.4854	843.93	0.92
353.15	0.5412	839.75	0.96
353.15	0.6121	834.72	1.02
353.15	0.6858	829.79	1.08
353.15	0.7551	825.38	1.14
353.15	0.8254	821.12	1.2
353.15	0.8851	817.65	1.26
353.15	0.9512	813.95	1.32

System: dimethylformamide + 1,4-dimethylbenzene; phases: Liquid
Fixed: Pressure, kPa = 101
Property: Mass density, kg/m3 (Liquid); method: VIBTUB:UFactor:6
Temperature, K	Mole fraction of 1,4-dimethylbenzene	Mass density, kg/m3	uncertainty
293.15	0.0562	941.87	0.34
293.15	0.1211	934.47	0.37
293.15	0.1885	927.18	0.39
293.15	0.2532	920.51	0.41
293.15	0.3225	913.72	0.43
293.15	0.3865	907.74	0.46
293.15	0.4525	901.85	0.48
293.15	0.5121	896.75	0.5
293.15	0.5853	890.75	0.52
293.15	0.6441	886.12	0.54
293.15	0.7154	880.72	0.56
293.15	0.7664	876.98	0.58
293.15	0.8353	872.08	0.6
293.15	0.8901	868.29	0.62
293.15	0.9577	863.74	0.64
303.15	0.0625	931.96	0.37
303.15	0.1321	924.04	0.39
303.15	0.1912	917.66	0.41
303.15	0.2684	909.75	0.44
303.15	0.3325	903.53	0.46
303.15	0.3965	897.61	0.48
303.15	0.4584	892.15	0.5
303.15	0.5214	886.82	0.52
303.15	0.5853	881.64	0.54
303.15	0.6485	876.73	0.56
303.15	0.7112	872.04	0.58
303.15	0.7866	866.61	0.61
303.15	0.8415	862.79	0.62
303.15	0.9054	858.48	0.65
303.15	0.9658	854.51	0.67
313.15	0.0455	924.59	0.38
313.15	0.1112	916.97	0.4
313.15	0.1862	908.77	0.43
313.15	0.2562	901.56	0.45
313.15	0.3215	895.19	0.48
313.15	0.3952	888.37	0.5
313.15	0.4514	883.43	0.52
313.15	0.5111	878.4	0.54
313.15	0.5841	872.52	0.56
313.15	0.6451	867.83	0.58
313.15	0.7124	862.86	0.6
313.15	0.7854	857.69	0.62
313.15	0.8451	853.61	0.64
313.15	0.9011	849.9	0.66
313.15	0.9655	845.75	0.68
