Measured thermophysical data. Effect of ionic liquid 1-methylimidazolium chloride on the vapour liquid equilibrium of water, methanol, ethanol, and {water + ethanol} mixture
Source: J. Chem. Thermodyn., 2011, 10.1016/j.jct.2011.06.002
Compound 1: water, H2O, InChI=1S/H2O/h1H2, purity 99.8%
Compound 2: ethanol, C2H6O, InChI=1S/C2H6O/c1-2-3/h3H,2H2,1H3, purity 99.7%
Compound 3: methanol, CH4O, InChI=1S/CH4O/c1-2/h2H,1H3, purity 99.7%
Compound 4: 1-methylimidazolium chloride, C4H7ClN2, InChI=1S/C4H6N2.ClH/c1-6-3-2-5-4-6;/h2-4H,1H3;1H, purity 98%

System: 1-methylimidazolium chloride; phases: Crystal, Liquid, Air at 1 atmosphere
Property: Normal melting temperature, K (Crystal); method: DTA
Normal melting temperature, K	uncertainty
347.31	2.03

System: 1-methylimidazolium chloride; phases: Liquid
Fixed: Pressure, kPa = 101.325
Property: Viscosity, Pa*s (Liquid); method: Falling or rolling sphere viscometry
Temperature, K	Viscosity, Pa*s	uncertainty
348.15	0.1088599	0.0036016
351.15	0.0929905	0.0027768
353.15	0.0841678	0.0023445
358.15	0.066282	0.0016291

System: water + 1-methylimidazolium chloride; phases: Gas, Liquid
Property: Vapor or sublimation pressure, kPa (Gas); method: Ebulliometric method (Recirculating still)
Temperature, K	Mole fraction of water	Vapor or sublimation pressure, kPa	uncertainty
327.27	0.9834	14.59	0.12
327.59	0.9389	13.54	0.12
331.3	0.9634	16.95	0.13
332.94	0.9389	17.41	0.13
333.75	0.8681	14.92	0.12
335.28	0.9834	21.21	0.15
337.91	0.9634	22.95	0.15
338.89	0.9389	22.79	0.15
339.98	0.8681	19.72	0.14
340.47	0.9834	26.79	0.17
342.85	0.9634	28.55	0.17
344.89	0.9389	29.63	0.18
346.23	0.9834	34.39	0.19
346.44	0.8681	26.09	0.16
348.3	0.9634	36.04	0.2
349.59	0.9389	36.15	0.2
351.11	0.9834	42.19	0.23
352.6	0.8681	33.69	0.19
353.57	0.9389	42.55	0.23
353.84	0.9634	45.3	0.24
355.05	0.9834	49.51	0.26
357.61	0.9389	49.95	0.26
357.68	0.8681	41.45	0.22
358.48	0.9634	54.44	0.28
359.27	0.9834	58.55	0.3
361.64	0.9389	58.41	0.3
361.87	0.9634	62.15	0.32
362.54	0.8681	50.16	0.26
363.5	0.9834	69.04	0.35
365.49	0.9634	71.29	0.36
366.59	0.9389	70.49	0.35
366.87	0.9834	78.35	0.39
366.95	0.8681	58.95	0.3
368.33	0.9634	79.27	0.39
370.46	0.9834	89.52	0.44
370.53	0.8681	67.58	0.34
371.1	0.9389	83.2	0.41
371.69	0.9634	89.59	0.44
373.98	0.9834	101.44	0.49
374.31	0.8681	77.53	0.39
375.32	0.9634	101.82	0.49
376.52	0.9389	100.76	0.49
378.27	0.8681	89.05	0.44
381.64	0.8681	99.76	0.49

System: ethanol + 1-methylimidazolium chloride; phases: Gas, Liquid
Property: Vapor or sublimation pressure, kPa (Gas); method: Ebulliometric method (Recirculating still)
Temperature, K	Mole fraction of ethanol	Vapor or sublimation pressure, kPa	uncertainty
298.85	0.9708	16.65	0.13
301.31	0.9367	17.94	0.14
301.61	0.8962	16.96	0.13
305.19	0.9708	22.92	0.15
307.73	0.9367	24.65	0.16
307.96	0.8962	23.16	0.15
308.62	0.7873	19.06	0.14
310.48	0.9708	29.66	0.18
312.73	0.9367	31.31	0.18
313	0.8962	29.4	0.18
313.56	0.7873	24.13	0.16
314.88	0.9708	36.45	0.2
317.37	0.9367	38.8	0.21
317.83	0.8962	36.72	0.21
318.53	0.9708	43.01	0.23
319.05	0.7873	31.05	0.18
321.68	0.9367	46.97	0.25
322.22	0.8962	44.7	0.24
323.14	0.9708	52.74	0.28
323.51	0.7873	37.73	0.21
325.94	0.9367	56.38	0.29
327	0.8962	54.76	0.29
327.08	0.9708	62.4	0.32
328.55	0.7873	46.49	0.25
330.07	0.9708	70.83	0.36
330.3	0.9367	67.74	0.34
331.23	0.8962	65.28	0.33
332.82	0.7873	55.25	0.29
333.61	0.9367	77.63	0.39
333.75	0.9708	82.38	0.41
334.38	0.8962	74.22	0.37
336.06	0.9367	85.63	0.43
336.32	0.9708	91.35	0.45
336.64	0.7873	64.34	0.33
337.27	0.8962	83.29	0.42
338.41	0.9367	93.99	0.46
339.06	0.9708	101.77	0.5
339.84	0.8962	92.1	0.46
340.19	0.7873	73.88	0.37
340.66	0.9367	102.57	0.5
342.41	0.8962	101.73	0.5
343.58	0.7873	84.07	0.42
346.14	0.7873	92.58	0.46
348.63	0.7873	101.54	0.5

System: methanol + 1-methylimidazolium chloride; phases: Gas, Liquid
Property: Vapor or sublimation pressure, kPa (Gas); method: Ebulliometric method (Recirculating still)
Temperature, K	Mole fraction of methanol	Vapor or sublimation pressure, kPa	uncertainty
313.98	0.9586	17.8	0.14
316.92	0.9115	19.49	0.14
317.84	0.8572	18.98	0.14
319.52	0.9586	23.53	0.15
320.71	0.7202	18.32	0.14
321.77	0.9115	24.78	0.16
322.45	0.8572	23.78	0.16
324.19	0.9586	29.5	0.18
325.98	0.9115	30.29	0.18
327.08	0.8572	29.63	0.18
327.86	0.7202	25.82	0.16
329.57	0.9586	37.96	0.21
329.82	0.9115	36.23	0.2
331.08	0.8572	35.64	0.2
332.94	0.7202	32.61	0.19
333.41	0.9115	42.64	0.23
334.08	0.9586	46.6	0.25
335.5	0.8572	43.43	0.23
337.11	0.7202	39.31	0.22
337.77	0.9115	51.68	0.27
338.26	0.9586	55.97	0.29
340.48	0.8572	53.77	0.28
341.36	0.9586	63.93	0.33
341.39	0.9115	60.32	0.31
341.89	0.7202	48.2	0.25
344.69	0.8572	64.08	0.33
344.9	0.9115	69.85	0.35
345.07	0.9586	74.69	0.38
345.8	0.7202	56.8	0.29
347.56	0.9586	82.69	0.41
348.11	0.8572	73.65	0.37
348.54	0.9115	81.04	0.4
349.56	0.7202	65.48	0.33
350.72	0.9586	93.94	0.46
350.85	0.8572	82.19	0.41
351.66	0.9115	91.83	0.45
352.7	0.9586	101.49	0.5
353.49	0.7202	76.29	0.38
353.71	0.8572	91.94	0.45
354.28	0.9115	101.9	0.5
356.1	0.8572	100.84	0.49
356.23	0.7202	83.79	0.42
358.45	0.7202	91.05	0.45
361.07	0.7202	100.19	0.49

System: ethanol + water + 1-methylimidazolium chloride; phases: Gas, Liquid
Property: Vapor or sublimation pressure, kPa (Gas); method: Ebulliometric method (Recirculating still)
Temperature, K	Mole fraction of water	Mole fraction of ethanol	Vapor or sublimation pressure, kPa	uncertainty
311.97	0.6573	0.257	13.93	0.12
316.64	0.7933	0.1329	15.57	0.12
318.48	0.4696	0.4285	20.32	0.14
319.37	0.1934	0.6807	21.11	0.14
319.52	0.6573	0.257	20.51	0.14
322.63	0.7933	0.1329	21.04	0.14
324.08	0.8962	0.0389	15.84	0.13
325.48	0.6573	0.257	27.43	0.16
325.73	0.4696	0.4285	28.9	0.17
325.86	0.1934	0.6807	28.94	0.17
329.21	0.8962	0.0389	20.35	0.14
330.14	0.7933	0.1329	30.14	0.17
330.92	0.1934	0.6807	36.61	0.2
331.73	0.6573	0.257	36.76	0.2
332	0.4696	0.4285	38.61	0.2
335.29	0.7933	0.1329	38.15	0.2
335.59	0.8962	0.0389	27.48	0.16
335.97	0.4696	0.4285	46.08	0.23
336.21	0.1934	0.6807	46.28	0.23
336.82	0.6573	0.257	45.92	0.23
340.22	0.4696	0.4285	55.37	0.27
340.24	0.7933	0.1329	47.45	0.24
340.39	0.1934	0.6807	55.45	0.27
341.81	0.6573	0.257	56.88	0.28
342.46	0.8962	0.0389	37.35	0.2
344.19	0.4696	0.4285	65.36	0.32
344.8	0.1934	0.6807	66.66	0.32
345.25	0.7933	0.1329	58.72	0.29
346.12	0.6573	0.257	68.07	0.33
347.62	0.8962	0.0389	46.59	0.24
347.86	0.4696	0.4285	75.51	0.36
348.5	0.1934	0.6807	77.55	0.37
349.39	0.7933	0.1329	69.34	0.33
350.86	0.6573	0.257	82.29	0.39
351.23	0.4696	0.4285	86.57	0.41
351.87	0.1934	0.6807	88.61	0.42
352.39	0.8962	0.0389	56.66	0.28
353.53	0.7933	0.1329	81.67	0.39
354.76	0.4696	0.4285	99.56	0.46
355.02	0.1934	0.6807	100.07	0.46
355.62	0.6573	0.257	98.97	0.46
356.99	0.8962	0.0389	67.88	0.33
358.55	0.7933	0.1329	98.97	0.46
362.3	0.8962	0.0389	83.08	0.39
366.98	0.8962	0.0389	98.66	0.46
