Measured thermophysical data. Experimental densities of 2,2,2-trifluoroethanol with 1-butyl-3-methylimidazolium hexafluorophosphate at high pressures and modelling with PC-SAFT
Source: J. Chem. Thermodyn., 2017, 10.1016/j.jct.2017.05.029
Compound 1: 2,2,2-trifluoroethanol, C2H3F3O, InChI=1S/C2H3F3O/c3-2(4,5)1-6/h6H,1H2, purity 99.9%
Compound 2: 1-butyl-3-methylimidazolium hexafluorophosphate, C8H15F6N2P, InChI=1S/C8H15N2.F6P/c1-3-4-5-10-7-6-9(2)8-10;1-7(2,3,4,5)6/h6-8H,3-5H2,1-2H3;/q+1;-1, purity 97%

System: 2,2,2-trifluoroethanol; phases: Liquid
Property: Mass density, kg/m3 (Liquid); method: Vibrating tube method
Pressure, kPa	Temperature, K	Mass density, kg/m3	uncertainty
100	288.15	1400	2
1000	288.15	1401	2
5000	288.15	1407	2
10000	288.15	1415	2
15000	288.15	1422	2
20000	288.15	1428	2
25000	288.15	1435	2
30000	288.15	1441	2
35000	288.15	1447	2
40000	288.15	1453	2
100	293.15	1391	2
1000	293.15	1393	2
5000	293.15	1399	2
10000	293.15	1407	2
15000	293.15	1414	2
20000	293.15	1421	2
25000	293.15	1427	2
30000	293.15	1434	2
35000	293.15	1440	2
40000	293.15	1446	2
100	303.15	1374	2
1000	303.15	1375	2
5000	303.15	1382	2
10000	303.15	1390	2
15000	303.15	1398	2
20000	303.15	1405	2
25000	303.15	1412	2
30000	303.15	1419	2
35000	303.15	1425	2
40000	303.15	1431	2
100	313.15	1356	2
1000	313.15	1358	2
5000	313.15	1365	2
10000	313.15	1374	2
15000	313.15	1382	2
20000	313.15	1390	2
25000	313.15	1397	2
30000	313.15	1404	2
35000	313.15	1411	2
40000	313.15	1417	2
100	323.15	1338	2
1000	323.15	1340	2
5000	323.15	1348	2
10000	323.15	1357	2
15000	323.15	1365	2
20000	323.15	1374	2
25000	323.15	1381	2
30000	323.15	1389	2
35000	323.15	1396	2
40000	323.15	1402	2
100	333.15	1319	2
1000	333.15	1321	2
5000	333.15	1330	2
10000	333.15	1339	2
15000	333.15	1349	2
20000	333.15	1357	2
25000	333.15	1365	2
30000	333.15	1373	2
35000	333.15	1380	2
40000	333.15	1388	2

System: 1-butyl-3-methylimidazolium hexafluorophosphate; phases: Liquid
Property: Mass density, kg/m3 (Liquid); method: Vibrating tube method
Pressure, kPa	Temperature, K	Mass density, kg/m3	uncertainty
100	288.15	1377	4
1000	288.15	1377	4
5000	288.15	1379	4
10000	288.15	1382	4
15000	288.15	1385	4
20000	288.15	1387	4
25000	288.15	1390	4
30000	288.15	1392	4
35000	288.15	1395	4
40000	288.15	1397	5
100	293.15	1372	4
1000	293.15	1373	4
5000	293.15	1375	4
10000	293.15	1378	4
15000	293.15	1380	4
20000	293.15	1383	4
25000	293.15	1386	4
30000	293.15	1388	4
35000	293.15	1391	4
40000	293.15	1393	5
100	303.15	1363	4
1000	303.15	1364	4
5000	303.15	1366	4
10000	303.15	1369	4
15000	303.15	1372	4
20000	303.15	1375	4
25000	303.15	1377	4
30000	303.15	1380	4
35000	303.15	1383	4
40000	303.15	1386	4
100	313.15	1355	4
1000	313.15	1355	4
5000	313.15	1358	4
10000	313.15	1361	4
15000	313.15	1364	4
20000	313.15	1367	4
25000	313.15	1369	4
30000	313.15	1372	4
35000	313.15	1375	4
40000	313.15	1377	4
100	323.15	1347	4
1000	323.15	1347	4
5000	323.15	1350	4
10000	323.15	1353	4
15000	323.15	1356	4
20000	323.15	1359	4
25000	323.15	1361	4
30000	323.15	1364	4
35000	323.15	1367	4
40000	323.15	1370	4
100	333.15	1338	4
1000	333.15	1339	4
5000	333.15	1342	4
10000	333.15	1345	4
15000	333.15	1348	4
20000	333.15	1351	4
25000	333.15	1353.4	4.1
30000	333.15	1356	4
35000	333.15	1359	4
40000	333.15	1362	4

System: 2,2,2-trifluoroethanol + 1-butyl-3-methylimidazolium hexafluorophosphate; phases: Liquid
Property: Mass density, kg/m3 (Liquid); method: Vibrating tube method
Pressure, kPa	Temperature, K	Mole fraction of 1-butyl-3-methylimidazolium hexafluorophosphate	Mass density, kg/m3	uncertainty
100	288.15	0	1400	2
100	288.15	0.05	1399	2
100	288.15	0.1	1397	2
100	288.15	0.202	1392	2
100	288.15	0.296	1388	2
100	288.15	0.366	1385	2
100	288.15	0.48	1383	2
100	288.15	0.599	1380	2
100	288.15	0.696	1379	3
100	288.15	0.798	1378	3
100	288.15	0.891	1377	3
100	288.15	1	1377	4
1000	288.15	0	1401	2
1000	288.15	0.05	1401	2
1000	288.15	0.1	1398	2
1000	288.15	0.202	1393	2
1000	288.15	0.296	1389	2
1000	288.15	0.366	1386	2
1000	288.15	0.48	1383	2
1000	288.15	0.599	1381	2
1000	288.15	0.696	1380	3
1000	288.15	0.798	1380	3
1000	288.15	0.891	1378	3
1000	288.15	1	1377	4
5000	288.15	0	1407	2
5000	288.15	0.05	1406	2
5000	288.15	0.1	1403	2
5000	288.15	0.202	1397	2
5000	288.15	0.296	1392	2
5000	288.15	0.366	1389	2
5000	288.15	0.48	1386	2
5000	288.15	0.599	1384	3
5000	288.15	0.696	1382	3
5000	288.15	0.798	1381	3
5000	288.15	0.891	1380	3
5000	288.15	1	1379	4
10000	288.15	0	1415	2
10000	288.15	0.05	1412	2
10000	288.15	0.1	1408	2
10000	288.15	0.202	1401	2
10000	288.15	0.296	1396	2
10000	288.15	0.366	1393	2
10000	288.15	0.48	1390	2
10000	288.15	0.599	1387	3
10000	288.15	0.696	1385	3
10000	288.15	0.798	1384	3
10000	288.15	0.891	1383	4
10000	288.15	1	1382	4
15000	288.15	0	1422	2
15000	288.15	0.05	1418	2
15000	288.15	0.1	1414	2
15000	288.15	0.202	1406	2
15000	288.15	0.296	1400	2
15000	288.15	0.366	1397	2
15000	288.15	0.48	1393	2
15000	288.15	0.599	1390	3
15000	288.15	0.696	1388	3
15000	288.15	0.798	1387	3
15000	288.15	0.891	1386	4
15000	288.15	1	1385	4
20000	288.15	0	1428	2
20000	288.15	0.05	1424	2
20000	288.15	0.1	1419	2
20000	288.15	0.202	1410	2
20000	288.15	0.296	1404	2
20000	288.15	0.366	1401	2
20000	288.15	0.48	1397	2
20000	288.15	0.599	1393	3
20000	288.15	0.696	1391	3
20000	288.15	0.798	1390	3
20000	288.15	0.891	1388	4
20000	288.15	1	1387	4
25000	288.15	0	1435	2
25000	288.15	0.05	1430	2
25000	288.15	0.1	1424	2
25000	288.15	0.202	1415	2
25000	288.15	0.296	1408	2
25000	288.15	0.366	1404	2
25000	288.15	0.48	1400	2
25000	288.15	0.599	1396	3
25000	288.15	0.696	1394	3
25000	288.15	0.798	1392	3
25000	288.15	0.891	1391	4
25000	288.15	1	1390	4
30000	288.15	0	1441	2
30000	288.15	0.05	1435	2
30000	288.15	0.1	1429	2
30000	288.15	0.202	1419	2
30000	288.15	0.296	1412	2
30000	288.15	0.366	1408	2
30000	288.15	0.48	1403	3
30000	288.15	0.599	1399	3
30000	288.15	0.696	1397	3
30000	288.15	0.798	1395	3
30000	288.15	0.891	1394	4
30000	288.15	1	1392	4
35000	288.15	0	1447	2
35000	288.15	0.05	1440	2
35000	288.15	0.1	1434	2
35000	288.15	0.202	1423	2
35000	288.15	0.296	1416	2
35000	288.15	0.366	1412	2
35000	288.15	0.48	1406	3
35000	288.15	0.599	1402	3
35000	288.15	0.696	1400	3
35000	288.15	0.798	1398	3
35000	288.15	0.891	1396	4
35000	288.15	1	1395	4
40000	288.15	0	1453	2
40000	288.15	0.05	1446	2
40000	288.15	0.1	1439	2
40000	288.15	0.202	1427	2
40000	288.15	0.296	1419	2
40000	288.15	0.366	1415	2
40000	288.15	0.48	1410	3
40000	288.15	0.599	1405	3
40000	288.15	0.696	1403	3
40000	288.15	0.798	1401	4
40000	288.15	0.891	1399	4
40000	288.15	1	1397	5
100	293.15	0	1391	2
100	293.15	0.05	1392	2
100	293.15	0.1	1390	2
100	293.15	0.202	1385	2
100	293.15	0.296	1382	2
100	293.15	0.366	1380	2
100	293.15	0.48	1377	2
100	293.15	0.599	1376	2
100	293.15	0.696	1374	3
100	293.15	0.798	1373	3
100	293.15	0.891	1373	3
100	293.15	1	1372	4
1000	293.15	0	1393	2
1000	293.15	0.05	1393	2
1000	293.15	0.1	1391	2
1000	293.15	0.202	1386	2
1000	293.15	0.296	1383	2
1000	293.15	0.366	1380	2
1000	293.15	0.48	1378	2
1000	293.15	0.599	1376	2
1000	293.15	0.696	1375	3
1000	293.15	0.798	1374	3
1000	293.15	0.891	1373	3
1000	293.15	1	1373	4
5000	293.15	0	1399	2
5000	293.15	0.05	1398	2
5000	293.15	0.1	1396	2
5000	293.15	0.202	1390	2
5000	293.15	0.296	1386	2
5000	293.15	0.366	1384	2
5000	293.15	0.48	1381	2
5000	293.15	0.599	1379	3
5000	293.15	0.696	1378	3
5000	293.15	0.798	1376	3
5000	293.15	0.891	1376	3
5000	293.15	1	1375	4
10000	293.15	0	1407	2
10000	293.15	0.05	1405	2
10000	293.15	0.1	1401	2
10000	293.15	0.202	1395	2
10000	293.15	0.296	1390	2
10000	293.15	0.366	1388	2
10000	293.15	0.48	1385	2
10000	293.15	0.599	1382	3
10000	293.15	0.696	1381	3
10000	293.15	0.798	1379	3
10000	293.15	0.891	1379	4
10000	293.15	1	1378	4
15000	293.15	0	1414	2
15000	293.15	0.05	1411	2
15000	293.15	0.1	1407	2
15000	293.15	0.202	1400	2
15000	293.15	0.296	1395	2
15000	293.15	0.366	1392	2
15000	293.15	0.48	1388	2
15000	293.15	0.599	1385	3
15000	293.15	0.696	1384	3
15000	293.15	0.798	1382	3
15000	293.15	0.891	1381	4
15000	293.15	1	1380	4
20000	293.15	0	1421	2
20000	293.15	0.05	1417	2
20000	293.15	0.1	1413	2
20000	293.15	0.202	1404	2
20000	293.15	0.296	1399	2
20000	293.15	0.366	1395	2
20000	293.15	0.48	1392	2
20000	293.15	0.599	1389	3
20000	293.15	0.696	1387	3
20000	293.15	0.798	1385	3
20000	293.15	0.891	1384	4
20000	293.15	1	1383	4
25000	293.15	0	1427	2
25000	293.15	0.05	1423	2
25000	293.15	0.1	1418	2
25000	293.15	0.202	1409	2
25000	293.15	0.296	1403	2
25000	293.15	0.366	1399	2
25000	293.15	0.48	1395	2
25000	293.15	0.599	1392	3
25000	293.15	0.696	1390	3
25000	293.15	0.798	1388	3
25000	293.15	0.891	1387	4
25000	293.15	1	1386	4
30000	293.15	0	1434	2
30000	293.15	0.05	1429	2
30000	293.15	0.1	1423	2
30000	293.15	0.202	1413	2
30000	293.15	0.296	1407	2
30000	293.15	0.366	1403	2
30000	293.15	0.48	1398	2
30000	293.15	0.599	1395	3
30000	293.15	0.696	1393	3
30000	293.15	0.798	1391	3
30000	293.15	0.891	1390	4
30000	293.15	1	1388	4
35000	293.15	0	1440	2
35000	293.15	0.05	1434	2
35000	293.15	0.1	1428	2
35000	293.15	0.202	1417	2
35000	293.15	0.296	1410	2
35000	293.15	0.366	1406	2
35000	293.15	0.48	1402	3
35000	293.15	0.599	1398	3
35000	293.15	0.696	1396	3
35000	293.15	0.798	1394	3
35000	293.15	0.891	1392	4
35000	293.15	1	1391	4
40000	293.15	0	1446	2
40000	293.15	0.05	1439	2
40000	293.15	0.1	1432	2
40000	293.15	0.202	1421	2
40000	293.15	0.296	1414	2
40000	293.15	0.366	1410	2
40000	293.15	0.48	1405	3
40000	293.15	0.599	1401	3
40000	293.15	0.696	1398	3
40000	293.15	0.798	1396	4
40000	293.15	0.891	1395	4
40000	293.15	1	1393	5
100	303.15	0	1374	2
100	303.15	0.05	1376	2
100	303.15	0.1	1375	2
100	303.15	0.202	1372	2
100	303.15	0.296	1370	2
100	303.15	0.366	1368	2
100	303.15	0.48	1367	2
100	303.15	0.599	1366	2
100	303.15	0.696	1365	3
100	303.15	0.798	1364	3
100	303.15	0.891	1364	3
100	303.15	1	1363	4
1000	303.15	0	1375	2
1000	303.15	0.05	1377	2
1000	303.15	0.1	1376	2
1000	303.15	0.202	1373	2
1000	303.15	0.296	1371	2
1000	303.15	0.366	1369	2
1000	303.15	0.48	1368	2
1000	303.15	0.599	1366	2
1000	303.15	0.696	1366	3
1000	303.15	0.798	1365	3
1000	303.15	0.891	1364	3
1000	303.15	1	1364	4
5000	303.15	0	1382	2
5000	303.15	0.05	1383	2
5000	303.15	0.1	1381	2
5000	303.15	0.202	1377	2
5000	303.15	0.296	1374	2
5000	303.15	0.366	1373	2
5000	303.15	0.48	1371	2
5000	303.15	0.599	1369	2
5000	303.15	0.696	1368	3
5000	303.15	0.798	1367	3
5000	303.15	0.891	1367	3
5000	303.15	1	1366	4
10000	303.15	0	1390	2
10000	303.15	0.05	1390	2
10000	303.15	0.1	1387	2
10000	303.15	0.202	1382	2
10000	303.15	0.296	1379	2
10000	303.15	0.366	1377	2
10000	303.15	0.48	1374	2
10000	303.15	0.599	1373	3
10000	303.15	0.696	1371	3
10000	303.15	0.798	1370	3
10000	303.15	0.891	1370	3
10000	303.15	1	1369	4
15000	303.15	0	1398	2
15000	303.15	0.05	1397	2
15000	303.15	0.1	1393	2
15000	303.15	0.202	1387	2
15000	303.15	0.296	1383	2
15000	303.15	0.366	1381	2
15000	303.15	0.48	1378	2
15000	303.15	0.599	1376	3
15000	303.15	0.696	1375	3
15000	303.15	0.798	1373	3
15000	303.15	0.891	1373	4
15000	303.15	1	1372	4
20000	303.15	0	1405	2
20000	303.15	0.05	1403	2
20000	303.15	0.1	1399	2
20000	303.15	0.202	1392	2
20000	303.15	0.296	1388	2
20000	303.15	0.366	1385	2
20000	303.15	0.48	1382	2
20000	303.15	0.599	1379	3
20000	303.15	0.696	1378	3
20000	303.15	0.798	1376	3
20000	303.15	0.891	1376	4
20000	303.15	1	1375	4
25000	303.15	0	1412	2
25000	303.15	0.05	1409	2
25000	303.15	0.1	1404	2
25000	303.15	0.202	1397	2
25000	303.15	0.296	1392	2
25000	303.15	0.366	1388	2
25000	303.15	0.48	1385	2
25000	303.15	0.599	1382	3
25000	303.15	0.696	1381	3
25000	303.15	0.798	1379	3
25000	303.15	0.891	1378	4
25000	303.15	1	1377	4
30000	303.15	0	1419	2
30000	303.15	0.05	1415	2
30000	303.15	0.1	1410	2
30000	303.15	0.202	1401	2
30000	303.15	0.296	1396	2
30000	303.15	0.366	1392	2
30000	303.15	0.48	1389	2
30000	303.15	0.599	1386	3
30000	303.15	0.696	1384	3
30000	303.15	0.798	1382	3
30000	303.15	0.891	1381	4
30000	303.15	1	1380	4
35000	303.15	0	1425	2
35000	303.15	0.05	1420	2
35000	303.15	0.1	1415	2
35000	303.15	0.202	1406	2
35000	303.15	0.296	1400	2
35000	303.15	0.366	1396	2
35000	303.15	0.48	1392	3
35000	303.15	0.599	1389	3
35000	303.15	0.696	1387	3
35000	303.15	0.798	1385	3
35000	303.15	0.891	1384	4
35000	303.15	1	1383	4
40000	303.15	0	1431	2
40000	303.15	0.05	1426	2
40000	303.15	0.1	1420	2
40000	303.15	0.202	1410	2
40000	303.15	0.296	1403	2
40000	303.15	0.366	1399	2
40000	303.15	0.48	1395	3
40000	303.15	0.599	1392	3
40000	303.15	0.696	1390	3
40000	303.15	0.798	1388	3
40000	303.15	0.891	1386.4	3.9
40000	303.15	1	1386	4
100	313.15	0	1356	2
100	313.15	0.05	1360	2
100	313.15	0.1	1361	2
100	313.15	0.202	1359	2
100	313.15	0.296	1358	2
100	313.15	0.366	1357	2
100	313.15	0.48	1357	2
100	313.15	0.599	1356	2
100	313.15	0.696	1356	3
100	313.15	0.798	1355	3
100	313.15	0.891	1355	3
100	313.15	1	1355	4
1000	313.15	0	1358	2
1000	313.15	0.05	1362	2
1000	313.15	0.1	1362	2
1000	313.15	0.202	1360	2
1000	313.15	0.296	1359	2
1000	313.15	0.366	1358	2
1000	313.15	0.48	1357	2
1000	313.15	0.599	1357	2
1000	313.15	0.696	1356	3
1000	313.15	0.798	1356	3
1000	313.15	0.891	1356	3
1000	313.15	1	1355	4
5000	313.15	0	1365	2
5000	313.15	0.05	1368	2
5000	313.15	0.1	1367	2
5000	313.15	0.202	1365	2
5000	313.15	0.296	1363	2
5000	313.15	0.366	1362	2
5000	313.15	0.48	1361	2
5000	313.15	0.599	1360	2
5000	313.15	0.696	1359	3
5000	313.15	0.798	1359	3
5000	313.15	0.891	1358	3
5000	313.15	1	1358	4
10000	313.15	0	1374	2
10000	313.15	0.05	1375	2
10000	313.15	0.1	1374	2
10000	313.15	0.202	1370	2
10000	313.15	0.296	1367	2
10000	313.15	0.366	1366	2
10000	313.15	0.48	1364	2
10000	313.15	0.599	1363	3
10000	313.15	0.696	1362	3
10000	313.15	0.798	1362	3
10000	313.15	0.891	1361	3
10000	313.15	1	1361	4
15000	313.15	0	1382	2
15000	313.15	0.05	1382	2
15000	313.15	0.1	1380	2
15000	313.15	0.202	1375	2
15000	313.15	0.296	1372	2
15000	313.15	0.366	1370	2
15000	313.15	0.48	1368	2
15000	313.15	0.599	1367	3
15000	313.15	0.696	1366	3
15000	313.15	0.798	1365	3
15000	313.15	0.891	1364	4
15000	313.15	1	1364	4
20000	313.15	0	1390	2
20000	313.15	0.05	1389	2
20000	313.15	0.1	1386	2
20000	313.15	0.202	1380	2
20000	313.15	0.296	1376	2
20000	313.15	0.366	1374	2
20000	313.15	0.48	1372	2
20000	313.15	0.599	1370	3
20000	313.15	0.696	1369	3
20000	313.15	0.798	1368	3
20000	313.15	0.891	1367	4
20000	313.15	1	1367	4
25000	313.15	0	1397	2
25000	313.15	0.05	1395	2
25000	313.15	0.1	1391	2
25000	313.15	0.202	1385	2
25000	313.15	0.296	1381	2
25000	313.15	0.366	1378	2
25000	313.15	0.48	1375	2
25000	313.15	0.599	1373	3
25000	313.15	0.696	1372	3
25000	313.15	0.798	1371	3
25000	313.15	0.891	1370	4
25000	313.15	1	1369	4
30000	313.15	0	1404	2
30000	313.15	0.05	1401	2
30000	313.15	0.1	1397	2
30000	313.15	0.202	1390	2
30000	313.15	0.296	1385	2
30000	313.15	0.366	1382	2
30000	313.15	0.48	1379	2
30000	313.15	0.599	1376	3
30000	313.15	0.696	1375	3
30000	313.15	0.798	1374	3
30000	313.15	0.891	1373	4
30000	313.15	1	1372	4
35000	313.15	0	1411	2
35000	313.15	0.05	1407	2
35000	313.15	0.1	1402	2
35000	313.15	0.202	1394	2
35000	313.15	0.296	1389	2
35000	313.15	0.366	1386	2
35000	313.15	0.48	1382	3
35000	313.15	0.599	1380	3
35000	313.15	0.696	1378	3
35000	313.15	0.798	1377	3
35000	313.15	0.891	1376	4
35000	313.15	1	1375	4
40000	313.15	0	1417	2
40000	313.15	0.05	1412	2
40000	313.15	0.1	1407	2
40000	313.15	0.202	1398	2
40000	313.15	0.296	1393	2
40000	313.15	0.366	1390	2
40000	313.15	0.48	1386	3
40000	313.15	0.599	1383	3
40000	313.15	0.696	1381	3
40000	313.15	0.798	1380	3
40000	313.15	0.891	1378	4
40000	313.15	1	1377	4
100	323.15	0	1338	2
100	323.15	0.05	1344	2
100	323.15	0.1	1346	2
100	323.15	0.202	1346	2
100	323.15	0.296	1347	2
100	323.15	0.366	1347	2
100	323.15	0.48	1347	2
100	323.15	0.599	1347	2
100	323.15	0.696	1347	3
100	323.15	0.798	1347	3
100	323.15	0.891	1347	3
100	323.15	1	1347	4
1000	323.15	0	1340	2
1000	323.15	0.05	1346	2
1000	323.15	0.1	1347	2
1000	323.15	0.202	1348	2
1000	323.15	0.296	1347	2
1000	323.15	0.366	1347	2
1000	323.15	0.48	1347	2
1000	323.15	0.599	1347	2
1000	323.15	0.696	1347	3
1000	323.15	0.798	1347	3
1000	323.15	0.891	1347	3
1000	323.15	1	1347	4
5000	323.15	0	1348	2
5000	323.15	0.05	1352	2
5000	323.15	0.1	1353	2
5000	323.15	0.202	1352	2
5000	323.15	0.296	1351	2
5000	323.15	0.366	1351	2
5000	323.15	0.48	1351	2
5000	323.15	0.599	1350	2
5000	323.15	0.696	1350	3
5000	323.15	0.798	1350	3
5000	323.15	0.891	1350	3
5000	323.15	1	1350	4
10000	323.15	0	1357	2
10000	323.15	0.05	1360	2
10000	323.15	0.1	1360	2
10000	323.15	0.202	1358	2
10000	323.15	0.296	1356	2
10000	323.15	0.366	1356	2
10000	323.15	0.48	1355	2
10000	323.15	0.599	1354	3
10000	323.15	0.696	1354	3
10000	323.15	0.798	1353	3
10000	323.15	0.891	1353	3
10000	323.15	1	1353	4
15000	323.15	0	1365	2
15000	323.15	0.05	1367	2
15000	323.15	0.1	1366	2
15000	323.15	0.202	1363	2
15000	323.15	0.296	1361	2
15000	323.15	0.366	1360	2
15000	323.15	0.48	1359	2
15000	323.15	0.599	1358	3
15000	323.15	0.696	1357	3
15000	323.15	0.798	1356	3
15000	323.15	0.891	1356	4
15000	323.15	1	1356	4
20000	323.15	0	1374	2
20000	323.15	0.05	1374	2
20000	323.15	0.1	1372	2
20000	323.15	0.202	1368	2
20000	323.15	0.296	1366	2
20000	323.15	0.366	1364	2
20000	323.15	0.48	1362	2
20000	323.15	0.599	1361	3
20000	323.15	0.696	1360	3
20000	323.15	0.798	1359	3
20000	323.15	0.891	1359	4
20000	323.15	1	1359	4
25000	323.15	0	1381	2
25000	323.15	0.05	1381	2
25000	323.15	0.1	1378	2
25000	323.15	0.202	1373	2
25000	323.15	0.296	1370	2
25000	323.15	0.366	1368	2
25000	323.15	0.48	1366	2
25000	323.15	0.599	1364	3
25000	323.15	0.696	1363	3
25000	323.15	0.798	1362	3
25000	323.15	0.891	1362	4
25000	323.15	1	1361	4
30000	323.15	0	1389	2
30000	323.15	0.05	1387	2
30000	323.15	0.1	1384	2
30000	323.15	0.202	1378	2
30000	323.15	0.296	1374	2
30000	323.15	0.366	1372	2
30000	323.15	0.48	1370	2
30000	323.15	0.599	1368	3
30000	323.15	0.696	1367	3
30000	323.15	0.798	1365	3
30000	323.15	0.891	1365	4
30000	323.15	1	1364	4
35000	323.15	0	1396	2
35000	323.15	0.05	1393	2
35000	323.15	0.1	1389	2
35000	323.15	0.202	1383	2
35000	323.15	0.296	1378	2
35000	323.15	0.366	1376	2
35000	323.15	0.48	1373	2
35000	323.15	0.599	1371	3
35000	323.15	0.696	1370	3
35000	323.15	0.798	1368	3
35000	323.15	0.891	1368	4
35000	323.15	1	1367	4
40000	323.15	0	1402	2
40000	323.15	0.05	1399	2
40000	323.15	0.1	1395	2
40000	323.15	0.202	1387	2
40000	323.15	0.296	1383	2
40000	323.15	0.366	1380	2
40000	323.15	0.48	1377	3
40000	323.15	0.599	1374	3
40000	323.15	0.696	1373	3
40000	323.15	0.798	1371	3
40000	323.15	0.891	1374	4
40000	323.15	1	1370	4
100	333.15	0	1319	2
100	333.15	0.05	1328	2
100	333.15	0.1	1331	2
100	333.15	0.202	1334	2
100	333.15	0.296	1335	2
100	333.15	0.366	1336	2
100	333.15	0.48	1336	2
100	333.15	0.599	1337	2
100	333.15	0.696	1338	3
100	333.15	0.798	1338	3
100	333.15	0.891	1338	3
100	333.15	1	1338	4
1000	333.15	0	1321	2
1000	333.15	0.05	1329	2
1000	333.15	0.1	1332	2
1000	333.15	0.202	1335	2
1000	333.15	0.296	1336	2
1000	333.15	0.366	1336	2
1000	333.15	0.48	1337	2
1000	333.15	0.599	1338	2
1000	333.15	0.696	1338	3
1000	333.15	0.798	1338	3
1000	333.15	0.891	1339	3
1000	333.15	1	1339	4
5000	333.15	0	1330	2
5000	333.15	0.05	1336	2
5000	333.15	0.1	1338	2
5000	333.15	0.202	1340	2
5000	333.15	0.296	1340	2
5000	333.15	0.366	1340	2
5000	333.15	0.48	1341	2
5000	333.15	0.599	1341	2
5000	333.15	0.696	1341	3
5000	333.15	0.798	1341	3
5000	333.15	0.891	1341	3
5000	333.15	1	1342	4
10000	333.15	0	1339	2
10000	333.15	0.05	1345	2
10000	333.15	0.1	1346	2
10000	333.15	0.202	1345	2
10000	333.15	0.296	1345	2
10000	333.15	0.366	1345	2
10000	333.15	0.48	1345	2
10000	333.15	0.599	1345	2
10000	333.15	0.696	1345	3
10000	333.15	0.798	1345	3
10000	333.15	0.891	1345	3
10000	333.15	1	1345	4
15000	333.15	0	1349	2
15000	333.15	0.05	1352	2
15000	333.15	0.1	1352	2
15000	333.15	0.202	1351	2
15000	333.15	0.296	1350	2
15000	333.15	0.366	1349	2
15000	333.15	0.48	1349	2
15000	333.15	0.599	1348	3
15000	333.15	0.696	1348	3
15000	333.15	0.798	1348	3
15000	333.15	0.891	1348	3
15000	333.15	1	1348	4
20000	333.15	0	1357	2
20000	333.15	0.05	1360	2
20000	333.15	0.1	1359	2
20000	333.15	0.202	1356	2
20000	333.15	0.296	1355	2
20000	333.15	0.366	1354	2
20000	333.15	0.48	1353	2
20000	333.15	0.599	1352	3
20000	333.15	0.696	1352	3
20000	333.15	0.798	1351	3
20000	333.15	0.891	1351	4
20000	333.15	1	1351	4
25000	333.15	0	1365	2
25000	333.15	0.05	1367	2
25000	333.15	0.1	1365	2
25000	333.15	0.202	1362	2
25000	333.15	0.296	1359	2
25000	333.15	0.366	1358	2
25000	333.15	0.48	1357	2
25000	333.15	0.599	1356	3
25000	333.15	0.696	1355	3
25000	333.15	0.798	1354	3
25000	333.15	0.891	1354	4
25000	333.15	1	1353.4	4.1
30000	333.15	0	1373	2
30000	333.15	0.05	1373	2
30000	333.15	0.1	1371	2
30000	333.15	0.202	1367	2
30000	333.15	0.296	1364	2
30000	333.15	0.366	1362	2
30000	333.15	0.48	1360	2
30000	333.15	0.599	1359	3
30000	333.15	0.696	1358	3
30000	333.15	0.798	1357	3
30000	333.15	0.891	1356.9	3.6
30000	333.15	1	1356	4
35000	333.15	0	1380	2
35000	333.15	0.05	1380	2
35000	333.15	0.1	1377	2
35000	333.15	0.202	1371	2
35000	333.15	0.296	1368	2
35000	333.15	0.366	1366	2
35000	333.15	0.48	1364	2
35000	333.15	0.599	1362	3
35000	333.15	0.696	1361	3
35000	333.15	0.798	1360	3
35000	333.15	0.891	1360	4
35000	333.15	1	1359	4
40000	333.15	0	1388	2
40000	333.15	0.05	1386	2
40000	333.15	0.1	1382	2
40000	333.15	0.202	1376	2
40000	333.15	0.296	1372	2
40000	333.15	0.366	1370	2
40000	333.15	0.48	1368	3
40000	333.15	0.599	1366	3
40000	333.15	0.696	1364	3
40000	333.15	0.798	1363	3
40000	333.15	0.891	1363	4
40000	333.15	1	1362	4
