Measured thermophysical data. Phase equilibrium in systems with ionic liquids: An example for the downstream process of the Biphasic Acid Scavenging utilizing Ionic Liquids (BASIL) process. Part I: Experimental data
Source: J. Chem. Thermodyn., 2012, 10.1016/j.jct.2011.05.027
Compound 1: propan-1-ol, C3H8O, InChI=1S/C3H8O/c1-2-3-4/h4H,2-3H2,1H3, purity 99%
Compound 2: sodium chloride, ClNa, InChI=1S/ClH.Na/h1H;/q;+1/p-1, purity 99.5%
Compound 3: 1-methylimidazole, C4H6N2, InChI=1S/C4H6N2/c1-6-3-2-5-4-6/h2-4H,1H3, purity 99%
Compound 4: water, H2O, InChI=1S/H2O/h1H2, purity 99.8%

System: propan-1-ol + sodium chloride + water; phases: Liquid, Crystal
Fixed: Pressure, kPa = 101
Property: Mass fraction of sodium chloride (Liquid); method: Titration method
Temperature, K	Mass fraction of water	Mass fraction of sodium chloride	uncertainty
298.04	0.00068	0.00018	6e-05
301.34	0.0002	0.00017	6e-05
313.47	0.00028	0.00017	6e-05
333.19	0.00021	0.00017	6e-05

System: propan-1-ol + sodium chloride + water; phases: Liquid mixture 1, Liquid mixture 2
Fixed: Pressure, kPa = 101
Property: Mass fraction of sodium chloride (Liquid mixture 1); method: Titration method
Property: Mass fraction of water (Liquid mixture 2); method: Titration method
Property: Mass fraction of sodium chloride (Liquid mixture 2); method: Titration method
Temperature, K	Mass fraction of water	Mass fraction of sodium chloride	uncertainty	Mass fraction of water	uncertainty	Mass fraction of sodium chloride	uncertainty
298.15	0.1638	0.0106	0.0014	0.7429	0.0109	0.2128	
298.15	0.1801	0.0116	0.0014	0.7486	0.0109	0.1957	
298.15	0.1826	0.012	0.0014	0.7511	0.0109	0.1928	
298.15	0.2405	0.0153	0.0015	0.7683	0.0103	0.149	
298.15	0.2451	0.0157	0.0015	0.7714	0.0102	0.1456	
298.15	0.2841	0.0181	0.0014	0.7667	0.011	0.1268	
298.15	0.2816	0.0188	0.0014	0.7696	0.011	0.124	
298.15	0.3925	0.0239	0.0014	0.7478	0.0113	0.1006	
298.15	0.4026	0.0248	0.0015	0.7538	0.0113	0.0896	
313.15	0.1884	0.0125	0.0012	0.7565	0.0108	0.1911	
313.15	0.2417	0.0148	0.0013	0.7726	0.0103	0.1494	
313.15	0.3058	0.0169	0.0014	0.7748	0.0104	0.1273	
313.15	0.2932	0.0177	0.0014	0.774	0.0104	0.1255	
313.15	0.351	0.0214	0.0021	0.7709	0.0104	0.0963	
313.15	0.356	0.0228	0.0021	0.7627	0.0101	0.0971	
313.15	0.3693	0.0248	0.0015	0.7555	0.0108	0.1124	
333.15	0.2233	0.0146	0.0013	0.7602	0.0107	0.1846	
333.15	0.2643	0.0166	0.0013	0.7722	0.0102	0.1526	
333.15	0.2962	0.0179	0.0015	0.782	0.0101	0.1245	
333.15	0.3028	0.0186	0.0015	0.7718	0.0103	0.1348	
333.15	0.3066	0.019	0.0015	0.778	0.0099	0.1289	
333.15	0.3833	0.0245	0.0016	0.7646	0.0119	0.1013	
333.15	0.3914	0.0263	0.0018	0.7536	0.0135	0.0969	

System: 1-methylimidazole + sodium chloride + water; phases: Liquid, Crystal
Fixed: Pressure, kPa = 101
Property: Mass fraction of sodium chloride (Liquid); method: Titration method
Temperature, K	Mass fraction of water	Mass fraction of sodium chloride	uncertainty
298.04	0.0605	0.0029	0.0004
298.04	0.1525	0.0099	0.0004
298.04	0.2583	0.0259	0.0003
298.04	0.3297	0.048	0.0025
298.04	0.3467	0.0514	0.0003
298.04	0.416	0.0838	0.0006
298.04	0.4788	0.1037	0.0158
298.04	0.4918	0.1194	0.0016
298.04	0.5059	0.1262	0.001
298.04	0.5658	0.158	0.0008
298.04	0.6128	0.1707	0.009
298.04	0.6401	0.1997	0.0018
298.04	0.6957	0.2315	0.0035
298.04	0.7358	0.2642	0.0137
313.47	0.0774	0.0032	0.0003
313.47	0.1382	0.0055	0.0012
313.47	0.1805	0.0118	0.0003
313.47	0.1933	0.015	0.0038
313.47	0.2282	0.0229	0.0003
313.47	0.2521	0.0286	0.0009
313.47	0.2805	0.0367	0.0004
313.47	0.3275	0.05	0.0055
313.47	0.4158	0.083	0.0006
313.47	0.4875	0.1181	0.0008
313.47	0.506	0.1262	0.0072
313.47	0.5531	0.1536	0.0008
313.47	0.608	0.1817	0.0025
313.47	0.6268	0.1946	0.0014
313.47	0.6837	0.2275	0.0014
313.47	0.7008	0.2377	0.001
313.47	0.7335	0.2665	0.0143
333.18	0.1272	0.008	0.0011
333.18	0.2746	0.0226	0.0011
333.18	0.3098	0.024	0.0034
333.18	0.3331	0.0388	0.0049
333.18	0.3432	0.0341	0.0063
333.18	0.4264	0.0797	0.0274
333.18	0.4318	0.0684	0.0437
333.18	0.4915	0.1182	0.0101
333.18	0.5077	0.1176	0.0093
333.18	0.5622	0.1563	0.0144
333.18	0.6097	0.1749	0.0027
333.18	0.6252	0.1886	0.0139
333.18	0.6377	0.2057	0.007
333.18	0.6624	0.2247	0.0199
333.18	0.7295	0.2705	0.0131

System: 1-methylimidazole + sodium chloride + water; phases: Liquid, Crystal
Fixed: Mass fraction of water = 0.00054
Fixed: Pressure, kPa = 101
Property: Mass fraction of sodium chloride (Liquid); method: Titration method
Temperature, K	Mass fraction of sodium chloride	uncertainty
298.04	0.00097	6e-05
313.47	0.0009	6e-05
333.19	0.00079	6e-05
