Measured thermophysical data. Experimental and theoretical studies of thermodynamics of lithium halide solutions - ethanol mixtures
Source: J. Chem. Thermodyn., 2004, 10.1016/j.jct.2003.12.002
Compound 1: ethanol, C2H6O, InChI=1S/C2H6O/c1-2-3/h3H,2H2,1H3
Compound 2: lithium chloride, ClLi, InChI=1S/ClH.Li/h1H;/q;+1/p-1
Compound 3: lithium bromide, BrLi, InChI=1S/BrH.Li/h1H;/q;+1/p-1
Compound 4: lithium iodide, ILi, InChI=1S/HI.Li/h1H;/q;+1/p-1

System: ethanol + lithium chloride; phases: Liquid, Gas
Fixed: Temperature, K = 298.15
Property: Vapor or sublimation pressure, kPa (Liquid); method: Closed cell (Static) method
Molality, mol/kg of lithium chloride	Vapor or sublimation pressure, kPa	uncertainty
0.01	0.9993	0.0176
0.0308	0.9979	0.0176
0.05	0.9968	0.0176
0.0668	0.9958	0.0176
0.1	0.9939	0.0176
0.1285	0.9923	0.0175
0.1902	0.9888	0.0175
0.2674	0.9842	0.0174
0.3646	0.9781	0.0174
0.5707	0.9641	0.0172
0.7609	0.9496	0.017
0.925	0.936	0.0168
1.0283	0.9264	0.0167
1.162	0.9139	0.0165
1.434	0.8853	0.0162
1.6452	0.8603	0.0159
1.7429	0.8487	0.0157
1.8574	0.8343	0.0155
2	0.8155	0.0153

System: ethanol + lithium bromide; phases: Liquid, Gas
Fixed: Temperature, K = 298.15
Property: Vapor or sublimation pressure, kPa (Liquid); method: Closed cell (Static) method
Molality, mol/kg of lithium bromide	Vapor or sublimation pressure, kPa	uncertainty
0	1	0.0176
0.01	0.9992	0.0176
0.05	0.9967	0.0176
0.0759	0.9952	0.0176
0.1102	0.9932	0.0176
0.1726	0.9893	0.0175
0.2271	0.9859	0.0175
0.283	0.9824	0.0174
0.4457	0.9716	0.0173
0.6317	0.9582	0.0171
0.7699	0.9472	0.017
0.8595	0.9395	0.0169
1.0528	0.9212	0.0166
1.2771	0.8973	0.0163
1.3826	0.8857	0.0162
1.4393	0.8784	0.0161
1.6464	0.8533	0.0158
1.7041	0.8462	0.0157
1.8497	0.8287	0.0155
2	0.8113	0.0153

System: ethanol + lithium iodide; phases: Liquid, Gas
Fixed: Temperature, K = 298.15
Property: Vapor or sublimation pressure, kPa (Liquid); method: Closed cell (Static) method
Molality, mol/kg of lithium iodide	Vapor or sublimation pressure, kPa	uncertainty
0	1	0.0176
0.01	0.9993	0.0176
0.0315	0.9979	0.0176
0.05	0.9967	0.0176
0.0962	0.9938	0.0176
0.1575	0.99	0.0175
0.2066	0.9869	0.0175
0.3424	0.9782	0.0174
0.4659	0.969	0.0172
0.5443	0.9641	0.0172
0.7108	0.9512	0.017
0.8908	0.9356	0.0168
0.971	0.9281	0.0167
1.0437	0.9209	0.0166
1.2192	0.9025	0.0164
1.3825	0.8839	0.0162
1.4711	0.8734	0.016
1.642	0.8524	0.0158
1.7041	0.8445	0.0157
1.8099	0.831	0.0155
2	0.8064	0.0152
