Measured thermophysical data. Isobaric (vapor + liquid) equilibria of the binary system maleic anhydride and diethyl phthalate at p = (2.67, 5.33, and 8.00) kPa
Source: J. Chem. Thermodyn., 2006, 10.1016/j.jct.2006.02.008
Compound 1: diethyl phthalate, C12H14O4, InChI=1S/C12H14O4/c1-3-15-11(13)9-7-5-6-8-10(9)12(14)16-4-2/h5-8H,3-4H2,1-2H3
Compound 2: maleic anhydride, C4H2O3, InChI=1S/C4H2O3/c5-3-1-2-4(6)7-3/h1-2H

System: diethyl phthalate; phases: Liquid
Property: Refractive index (Na D-line) (Liquid); method: Standard Abbe refractometry
Temperature, K	Pressure, kPa	Refractive index (Na D-line)	uncertainty
293.2	101.325	1.5016	0.0007

System: diethyl phthalate; phases: Liquid
Property: Mass density, kg/m3 (Liquid); method: Pycnometric method
Temperature, K	Pressure, kPa	Mass density, kg/m3	uncertainty
293.2	101.325	1118.2	1

System: maleic anhydride; phases: Crystal, Liquid, Air at 1 atmosphere
Property: Normal melting temperature, K (Crystal); method: VISOBS
Normal melting temperature, K	uncertainty
325.8	0.5

System: diethyl phthalate + maleic anhydride; phases: Liquid, Gas
Property: Boiling temperature at pressure P, K (Liquid); method: EBULLIO:UFactor:4
Pressure, kPa	Mole fraction of maleic anhydride	Boiling temperature at pressure P, K	uncertainty
2.67	0.0595	426.65	1.18
2.67	0.1672	407.25	1.11
2.67	0.2891	395.78	1.15
2.67	0.3742	389.66	1.16
2.67	0.4726	383.66	1.16
2.67	0.5876	378.58	1.24
2.67	0.6837	374.89	1.25
2.67	0.7888	372.37	1.19
2.67	0.8914	370.49	1.16
5.33	0.0613	442.37	1.19
5.33	0.1682	425.48	1.28
5.33	0.2898	411.99	1.17
5.33	0.3746	405.68	1.16
5.33	0.4729	399.91	1.18
5.33	0.5878	395.53	1.22
5.33	0.6838	392.27	1.22
5.33	0.7888	388.73	1.19
5.33	0.8914	386.21	1.15
8	0.0623	452.89	1.12
8	0.169	435.85	1.27
8	0.2902	421.99	1.19
8	0.3749	415.74	1.11
8	0.4732	410.11	1.15
8	0.588	406.05	1.09
8	0.6839	402.36	1.08
8	0.7889	399	1.09
8	0.8914	396.26	1.05
