Measured thermophysical data. A study on densities and excess volumes in the (c-butyrolactone + aromatic hydrocarbon) system at various temperatures
Source: J. Chem. Thermodyn., 2007, 10.1016/j.jct.2006.10.005
Compound 1: .gamma.-butyrolactone, C4H6O2, InChI=1S/C4H6O2/c5-4-2-1-3-6-4/h1-3H2, purity 99.5%
Compound 2: benzene, C6H6, InChI=1S/C6H6/c1-2-4-6-5-3-1/h1-6H, purity 99.7%
Compound 3: toluene, C7H8, InChI=1S/C7H8/c1-7-5-3-2-4-6-7/h2-6H,1H3, purity 98%
Compound 4: ethylbenzene, C8H10, InChI=1S/C8H10/c1-2-8-6-4-3-5-7-8/h3-7H,2H2,1H3, purity 99%

System: .gamma.-butyrolactone; phases: Liquid
Property: Refractive index (Na D-line) (Liquid); method: Standard Abbe refractometry
Temperature, K	Pressure, kPa	Refractive index (Na D-line)	uncertainty
293.1	101.325	1.4347	0.0007

System: .gamma.-butyrolactone; phases: Liquid
Fixed: Pressure, kPa = 101
Property: Mass density, kg/m3 (Liquid); method: VIBTUB:UFactor:4
Temperature, K	Mass density, kg/m3	uncertainty
293.15	1128.75	22.58
303.15	1118.83	22.38
313.15	1107.88	22.16
323.15	1095.9	21.92
333.15	1082.9	21.66
343.15	1068.86	21.38
353.15	1053.8	21.08

System: benzene; phases: Liquid
Property: Refractive index (Na D-line) (Liquid); method: Standard Abbe refractometry
Temperature, K	Pressure, kPa	Refractive index (Na D-line)	uncertainty
293.1	101.325	1.5009	0.0007

System: benzene; phases: Liquid
Fixed: Pressure, kPa = 101
Property: Mass density, kg/m3 (Liquid); method: VIBTUB:UFactor:4
Temperature, K	Mass density, kg/m3	uncertainty
293.15	878.96	17.58
303.15	868.21	17.37
313.15	857.4	17.15
323.15	846.55	16.93
333.15	835.66	16.72
343.15	824.71	16.5

System: toluene; phases: Liquid
Property: Refractive index (Na D-line) (Liquid); method: Standard Abbe refractometry
Temperature, K	Pressure, kPa	Refractive index (Na D-line)	uncertainty
293.1	101.325	1.4965	0.0008

System: toluene; phases: Liquid
Fixed: Pressure, kPa = 101
Property: Mass density, kg/m3 (Liquid); method: VIBTUB:UFactor:4
Temperature, K	Mass density, kg/m3	uncertainty
293.15	866.8	17.36
303.15	857.53	17.17
313.15	848.23	16.99
323.15	838.91	16.8
333.15	829.55	16.61
343.15	820.17	16.43
353.15	810.77	16.24

System: ethylbenzene; phases: Liquid
Property: Refractive index (Na D-line) (Liquid); method: Standard Abbe refractometry
Temperature, K	Pressure, kPa	Refractive index (Na D-line)	uncertainty
293.1	101.325	1.4962	0.0008

System: ethylbenzene; phases: Liquid
Fixed: Pressure, kPa = 101
Property: Mass density, kg/m3 (Liquid); method: VIBTUB:UFactor:4
Temperature, K	Mass density, kg/m3	uncertainty
293.15	867.28	17.35
303.15	858.36	17.17
313.15	849.38	16.99
323.15	840.35	16.81
333.15	831.25	16.63
343.15	822.11	16.45
353.15	812.9	16.27

System: benzene + .gamma.-butyrolactone; phases: Liquid
Fixed: Pressure, kPa = 101
Property: Mass density, kg/m3 (Liquid); method: VIBTUB:UFactor:4
Temperature, K	Mole fraction of benzene	Mass density, kg/m3	uncertainty
293.15	0	1128.75	22.58
293.15	0.0457	1116.86	22.34
293.15	0.1141	1099.19	21.99
293.15	0.1784	1082.71	21.66
293.15	0.2541	1063.47	21.27
293.15	0.3251	1045.58	20.91
293.15	0.3985	1027.25	20.55
293.15	0.4625	1011.39	20.23
293.15	0.5225	996.59	19.93
293.15	0.5812	982.16	19.64
293.15	0.6458	966.33	19.33
293.15	0.7154	949.29	18.99
293.15	0.7858	932.04	18.64
293.15	0.8441	917.71	18.36
293.15	0.9021	903.39	18.07
293.15	0.9688	886.8	17.74
293.15	1	878.96	17.58
303.15	0	1118.83	22.38
303.15	0.0541	1104.76	22.1
303.15	0.1145	1089.13	21.78
303.15	0.1758	1073.37	21.47
303.15	0.2425	1056.35	21.13
303.15	0.3012	1041.48	20.83
303.15	0.3885	1019.57	20.39
303.15	0.4451	1005.45	20.11
303.15	0.5121	988.84	19.78
303.15	0.5785	972.45	19.45
303.15	0.6452	956.02	19.12
303.15	0.7114	939.75	18.8
303.15	0.7858	921.43	18.43
303.15	0.8454	906.71	18.14
303.15	0.9114	890.36	17.81
303.15	0.9679	876.26	17.53
303.15	1	868.21	17.37
313.15	0	1107.88	22.16
313.15	0.0652	1090.98	21.82
313.15	0.1251	1075.55	21.51
313.15	0.1985	1056.76	21.14
313.15	0.2555	1042.27	20.85
313.15	0.3251	1024.71	20.5
313.15	0.3965	1006.82	20.14
313.15	0.4658	989.55	19.79
313.15	0.5214	975.78	19.52
313.15	0.5985	956.76	19.14
313.15	0.6522	943.53	18.87
313.15	0.7214	926.51	18.53
313.15	0.7955	908.24	18.17
313.15	0.8511	894.51	17.89
313.15	0.9112	879.6	17.59
313.15	0.9662	865.87	17.32
313.15	1	857.4	17.15
323.15	0	1095.9	21.92
323.15	0.0547	1081.84	21.64
323.15	0.1121	1067.15	21.34
323.15	0.1874	1047.98	20.96
323.15	0.2451	1033.39	20.67
323.15	0.3021	1019.05	20.38
323.15	0.3625	1003.95	20.08
323.15	0.4215	989.28	19.79
323.15	0.4958	970.9	19.42
323.15	0.5521	957.02	19.14
323.15	0.6251	939.09	18.78
323.15	0.6954	921.83	18.44
323.15	0.7511	908.15	18.17
323.15	0.8214	890.86	17.82
323.15	0.8945	872.81	17.46
323.15	0.9658	855.1	17.11
323.15	1	846.55	16.93
333.15	0	1082.9	21.66
333.15	0.0414	1072.39	21.45
333.15	0.1021	1057.04	21.14
333.15	0.1625	1041.81	20.84
333.15	0.2215	1027.03	20.54
333.15	0.2854	1011.09	20.22
333.15	0.3451	996.28	19.93
333.15	0.4112	979.97	19.6
333.15	0.4884	961	19.22
333.15	0.5525	945.32	18.91
333.15	0.6185	929.22	18.59
333.15	0.6685	917.03	18.34
333.15	0.7215	904.11	18.08
333.15	0.7985	885.31	17.71
333.15	0.8515	872.32	17.45
333.15	0.9312	852.71	17.06
333.15	1	835.66	16.72
343.15	0	1068.86	21.38
343.15	0.0495	1056.53	21.13
343.15	0.1152	1040.2	20.81
343.15	0.1921	1021.19	20.42
343.15	0.2684	1002.4	20.05
343.15	0.3325	986.71	19.74
343.15	0.3965	971.11	19.42
343.15	0.4654	954.38	19.09
343.15	0.5232	940.38	18.81
343.15	0.5895	924.37	18.49
343.15	0.6458	910.78	18.22
343.15	0.7112	895	17.9
343.15	0.7654	881.92	17.64
343.15	0.8214	868.36	17.37
343.15	0.8958	850.25	17.01
343.15	0.9555	835.66	16.72
343.15	1	824.71	16.5

System: .gamma.-butyrolactone + toluene; phases: Liquid
Fixed: Pressure, kPa = 101
Property: Mass density, kg/m3 (Liquid); method: VIBTUB:UFactor:4
Temperature, K	Mole fraction of toluene	Mass density, kg/m3	uncertainty
293.15	0	1128.75	22.58
293.15	0.0541	1111.31	22.23
293.15	0.1134	1092.72	21.86
293.15	0.1854	1070.83	21.42
293.15	0.2562	1050.06	21
293.15	0.3214	1031.55	20.63
293.15	0.3895	1012.83	20.26
293.15	0.4587	994.41	19.89
293.15	0.5114	980.76	19.62
293.15	0.5782	963.93	19.28
293.15	0.6484	946.73	18.94
293.15	0.7054	933.12	18.67
293.15	0.7654	919.09	18.39
293.15	0.8341	903.4	18.08
293.15	0.9045	887.66	17.77
293.15	0.9685	873.63	17.49
293.15	1	866.8	17.36
303.15	0	1118.83	22.38
303.15	0.0574	1100.44	22.01
303.15	0.1151	1082.45	21.65
303.15	0.1845	1061.46	21.23
303.15	0.2589	1039.73	20.8
303.15	0.3147	1023.92	20.48
303.15	0.3851	1004.56	20.09
303.15	0.4487	987.63	19.76
303.15	0.5085	972.12	19.45
303.15	0.5676	957.2	19.15
303.15	0.6235	943.43	18.88
303.15	0.6984	925.45	18.52
303.15	0.7545	912.32	18.26
303.15	0.8281	895.45	17.92
303.15	0.8932	880.87	17.63
303.15	0.9528	867.77	17.37
303.15	1	857.53	17.17
313.15	0	1107.88	22.16
313.15	0.0522	1091.31	21.83
313.15	0.1257	1068.65	21.38
313.15	0.1901	1049.4	20.99
313.15	0.2541	1030.87	20.62
313.15	0.3121	1014.53	20.29
313.15	0.3752	997.25	19.95
313.15	0.4454	978.61	19.58
313.15	0.5032	963.69	19.28
313.15	0.5784	944.83	18.9
313.15	0.6441	928.82	18.58
313.15	0.7148	912.04	18.25
313.15	0.7695	899.35	18
313.15	0.8212	887.58	17.77
313.15	0.8915	871.87	17.45
313.15	0.9576	857.39	17.17
313.15	1	848.23	16.99
323.15	0	1095.9	21.92
323.15	0.0487	1080.67	21.62
323.15	0.1147	1060.54	21.21
323.15	0.1789	1041.51	20.83
323.15	0.2365	1024.93	20.5
323.15	0.2987	1007.49	20.15
323.15	0.3695	988.24	19.77
323.15	0.4351	970.94	19.42
323.15	0.4954	955.46	19.11
323.15	0.5654	937.99	18.77
323.15	0.6215	924.33	18.49
323.15	0.6945	907.01	18.15
323.15	0.7658	890.53	17.82
323.15	0.8321	875.55	17.53
323.15	0.8923	862.22	17.26
323.15	0.9558	848.4	16.99
323.15	1	838.91	16.8
333.15	0	1082.9	21.66
333.15	0.0514	1067.16	21.35
333.15	0.1124	1048.91	20.98
333.15	0.1754	1030.56	20.61
333.15	0.2451	1010.85	20.22
333.15	0.3102	992.98	19.86
333.15	0.3754	975.58	19.51
333.15	0.4514	955.92	19.12
333.15	0.5214	938.37	18.77
333.15	0.5862	922.54	18.46
333.15	0.6478	907.87	18.17
333.15	0.7012	895.43	17.92
333.15	0.7658	880.67	17.63
333.15	0.8214	868.22	17.38
333.15	0.8845	854.35	17.1
333.15	0.9451	841.25	16.84
333.15	1	829.55	16.61
343.15	0	1068.86	21.38
343.15	0.0562	1052.09	21.04
343.15	0.1124	1035.72	20.72
343.15	0.1865	1014.67	20.3
343.15	0.2451	998.51	19.97
343.15	0.3065	982	19.64
343.15	0.3751	964.04	19.28
343.15	0.4354	948.68	18.98
343.15	0.4952	933.82	18.68
343.15	0.5685	916.07	18.33
343.15	0.6384	899.61	18
343.15	0.7025	884.87	17.71
343.15	0.7754	868.49	17.38
343.15	0.8351	855.35	17.12
343.15	0.8902	843.42	16.89
343.15	0.9622	828.11	16.58
343.15	1	820.17	16.43
353.15	0	1053.8	21.08
353.15	0.0688	1033.96	20.68
353.15	0.1251	1018.12	20.36
353.15	0.1955	998.79	19.98
353.15	0.2625	980.89	19.62
353.15	0.3201	965.89	19.32
353.15	0.3852	949.35	18.99
353.15	0.4421	935.24	18.71
353.15	0.5012	920.92	18.42
353.15	0.5688	904.9	18.11
353.15	0.6211	892.8	17.87
353.15	0.6855	878.19	17.57
353.15	0.7451	864.94	17.31
353.15	0.811	850.57	17.03
353.15	0.8854	834.68	16.71
353.15	0.9525	820.59	16.43
353.15	1	810.77	16.24

System: .gamma.-butyrolactone + ethylbenzene; phases: Liquid
Fixed: Pressure, kPa = 101
Property: Mass density, kg/m3 (Liquid); method: VIBTUB:UFactor:4
Temperature, K	Mole fraction of ethylbenzene	Mass density, kg/m3	uncertainty
293.15	0	1128.75	22.58
293.15	0.0585	1106.73	22.14
293.15	0.1145	1086.74	21.74
293.15	0.1854	1062.88	21.26
293.15	0.2451	1043.92	20.88
293.15	0.3021	1026.72	20.54
293.15	0.3625	1009.4	20.19
293.15	0.4215	993.3	19.87
293.15	0.4854	976.71	19.54
293.15	0.5481	961.23	19.23
293.15	0.6112	946.37	18.93
293.15	0.6825	930.36	18.61
293.15	0.7454	916.87	18.34
293.15	0.8145	902.68	18.06
293.15	0.8855	888.7	17.78
293.15	0.9566	875.25	17.51
293.15	1	867.28	17.35
303.15	0	1118.83	22.38
303.15	0.0575	1097.32	21.95
303.15	0.1212	1074.77	21.5
303.15	0.2014	1048.17	20.97
303.15	0.2784	1024.37	20.49
303.15	0.3451	1004.98	20.1
303.15	0.4145	985.93	19.72
303.15	0.4758	969.97	19.4
303.15	0.5354	955.17	19.11
303.15	0.5933	941.42	18.83
303.15	0.6584	926.63	18.54
303.15	0.7154	914.21	18.29
303.15	0.7745	901.83	18.04
303.15	0.8374	889.14	17.79
303.15	0.9014	876.7	17.54
303.15	0.9618	865.35	17.31
303.15	1	858.36	17.17
313.15	0	1107.88	22.16
313.15	0.0485	1089.83	21.8
313.15	0.1114	1067.63	21.35
313.15	0.1714	1047.57	20.95
313.15	0.2452	1024.33	20.49
313.15	0.3051	1006.52	20.13
313.15	0.3654	989.47	19.79
313.15	0.4251	973.42	19.47
313.15	0.4914	956.46	19.13
313.15	0.5684	937.82	18.76
313.15	0.6235	925.11	18.51
313.15	0.6895	910.51	18.21
313.15	0.7451	898.71	17.98
313.15	0.8114	885.18	17.71
313.15	0.8854	870.7	17.42
313.15	0.9525	858.06	17.17
313.15	1	849.38	16.99
323.15	0	1095.9	21.92
323.15	0.0454	1079.26	21.59
323.15	0.1145	1055.2	21.11
323.15	0.1785	1034.22	20.69
323.15	0.2451	1013.57	20.27
323.15	0.3021	996.83	19.94
323.15	0.3652	979.19	19.59
323.15	0.4251	963.26	19.27
323.15	0.4874	947.47	18.95
323.15	0.5481	932.79	18.66
323.15	0.6014	920.43	18.41
323.15	0.6659	906.08	18.13
323.15	0.7215	894.2	17.89
323.15	0.7985	878.44	17.57
323.15	0.8621	865.96	17.32
323.15	0.9351	852.17	17.05
323.15	1	840.35	16.81
333.15	0	1082.9	21.66
333.15	0.0525	1064.11	21.28
333.15	0.1141	1043.15	20.86
333.15	0.1847	1020.47	20.41
333.15	0.2415	1003.21	20.07
333.15	0.3012	985.92	19.72
333.15	0.3625	969.04	19.38
333.15	0.4215	953.56	19.07
333.15	0.4985	934.39	18.69
333.15	0.5514	921.84	18.44
333.15	0.6225	905.72	18.12
333.15	0.6952	890.01	17.8
333.15	0.7541	877.83	17.56
333.15	0.8214	864.45	17.29
333.15	0.8954	850.31	17.01
333.15	0.9558	839.19	16.79
333.15	1	831.25	16.63
343.15	0	1068.86	21.38
343.15	0.0618	1047.39	20.95
343.15	0.1251	1026.57	20.53
343.15	0.1854	1007.74	20.16
343.15	0.2451	990.04	19.8
343.15	0.3152	970.31	19.41
343.15	0.3795	953.19	19.07
343.15	0.4325	939.69	18.8
343.15	0.4958	924.27	18.49
343.15	0.5685	907.43	18.15
343.15	0.6325	893.3	17.87
343.15	0.6952	880.03	17.6
343.15	0.7541	868.03	17.37
343.15	0.8254	854.08	17.09
343.15	0.8952	840.95	16.83
343.15	0.9585	829.45	16.6
343.15	1	822.11	16.45
353.15	0	1053.8	21.08
353.15	0.0584	1034.1	20.68
353.15	0.1225	1013.59	20.27
353.15	0.1858	994.37	19.89
353.15	0.2552	974.43	19.49
353.15	0.3321	953.58	19.07
353.15	0.3965	937.06	18.74
353.15	0.4521	923.43	18.47
353.15	0.5214	907.21	18.15
353.15	0.5895	892.03	17.84
353.15	0.6451	880.14	17.61
353.15	0.7012	868.57	17.38
353.15	0.7658	855.74	17.12
353.15	0.8214	845.08	16.91
353.15	0.8954	831.39	16.63
353.15	0.9525	821.18	16.43
353.15	1	812.9	16.27
