Measured thermophysical data. Experimental densities and surface tension and models generating the best-current-knowledge values of them for members of 1-Cn-3-methylimidazolium bromide homologous series
Source: J. Chem. Thermodyn., 2018, 10.1016/j.jct.2017.11.012
Compound 1: 1-methylimidazolium bromide, C4H7BrN2, InChI=1S/C4H6N2.BrH/c1-6-3-2-5-4-6;/h2-4H,1H3;1H, purity 99.5%
Compound 2: 1-ethyl-3-methylimidazolium bromide, C6H11BrN2, InChI=1S/C6H11N2.BrH/c1-3-8-5-4-7(2)6-8;/h4-6H,3H2,1-2H3;1H/q+1;/p-1, purity 99.9%
Compound 3: 1-methyl-3-propylimidazolium bromide, C7H13BrN2, InChI=1S/C7H13N2.BrH/c1-3-4-9-6-5-8(2)7-9;/h5-7H,3-4H2,1-2H3;1H/q+1;/p-1, purity 99.8%
Compound 4: 1-butyl-3-methylimidazolium bromide, C8H15BrN2, InChI=1S/C8H15N2.BrH/c1-3-4-5-10-7-6-9(2)8-10;/h6-8H,3-5H2,1-2H3;1H/q+1;/p-1, purity 99.6%
Compound 5: 1-pentyl-3-methylimidazolium bromide, C9H17BrN2, InChI=1S/C9H17N2.BrH/c1-3-4-5-6-11-8-7-10(2)9-11;/h7-9H,3-6H2,1-2H3;1H/q+1;/p-1, purity 99.5%
Compound 6: 3-hexyl-1-methyl-1H-imidazolium bromide, C10H19BrN2, InChI=1S/C10H19N2.BrH/c1-3-4-5-6-7-12-9-8-11(2)10-12;/h8-10H,3-7H2,1-2H3;1H/q+1;/p-1, purity 99.5%
Compound 7: 1-heptyl-3-methylimidazolium bromide, C11H21BrN2, InChI=1S/C11H21N2.BrH/c1-3-4-5-6-7-8-13-10-9-12(2)11-13;/h9-11H,3-8H2,1-2H3;1H/q+1;/p-1, purity 99.2%
Compound 8: 1-methyl-3-octylimidazolium bromide, C12H23BrN2, InChI=1S/C12H23N2.BrH/c1-3-4-5-6-7-8-9-14-11-10-13(2)12-14;/h10-12H,3-9H2,1-2H3;1H/q+1;/p-1, purity 99.4%
Compound 9: 1-methyl-3-nonylimidazolium bromide, C13H25BrN2, InChI=1S/C13H25N2.BrH/c1-3-4-5-6-7-8-9-10-15-12-11-14(2)13-15;/h11-13H,3-10H2,1-2H3;1H/q+1;/p-1, purity 99.7%
Compound 10: 1-decyl-3-methylimidazolium bromide, C14H27BrN2, InChI=1S/C14H27N2.BrH/c1-3-4-5-6-7-8-9-10-11-16-13-12-15(2)14-16;/h12-14H,3-11H2,1-2H3;1H/q+1;/p-1, purity 99.4%

System: 1-methylimidazolium bromide; phases: Liquid
Fixed: Pressure, kPa = 101.325
Property: Mass density, kg/m3 (Liquid); method: Buoyancy - hydrostatic balance with magnetic suspension - one sinker
Temperature, K	Mass density, kg/m3	uncertainty
328.83	1557.9	0.9
332.76	1554.36	0.9
337.92	1550.16	0.9
344.29	1544.92	0.9
347.1	1542.88	0.9
353.02	1538.47	0.9
358.15	1534.17	0.9
364.58	1530.63	0.9

System: 1-methylimidazolium bromide; phases: Liquid, Air at 1 atmosphere
Property: Surface tension liquid-gas, N/m (Liquid); method: Wilhelmy Plate
Temperature, K	Surface tension liquid-gas, N/m	uncertainty
323.07	0.06835	0.00018
328.84	0.06781	0.00017
332.74	0.06737	0.00017
338.02	0.06681	0.00017
344.42	0.06616	0.00017
347.25	0.06585	0.00017
353.08	0.06523	0.00017
358.33	0.06467	0.00017
364.75	0.06396	0.00017

System: 1-methylimidazolium bromide; phases: Liquid, Air at 1 atmosphere
Property: Surface tension liquid-gas, N/m (Liquid); method: Ring tensiometer
Temperature, K	Surface tension liquid-gas, N/m	uncertainty
323.07	0.06799	0.00102
328.84	0.06768	0.00102
332.76	0.06745	0.00102
337.93	0.06714	0.00101
344.29	0.066	0.001
347.21	0.0656	0.001
353.02	0.0646	0.00099
358.29	0.06485	0.00099
364.65	0.06442	0.00099

System: 1-ethyl-3-methylimidazolium bromide; phases: Liquid
Fixed: Pressure, kPa = 101.325
Property: Mass density, kg/m3 (Liquid); method: Buoyancy - hydrostatic balance with magnetic suspension - one sinker
Temperature, K	Mass density, kg/m3	uncertainty
348.26	1381.17	0.64
352.77	1378.39	0.64
358.17	1375.04	0.64
364.02	1370.88	0.64

System: 1-ethyl-3-methylimidazolium bromide; phases: Liquid, Air at 1 atmosphere
Property: Surface tension liquid-gas, N/m (Liquid); method: Wilhelmy Plate
Temperature, K	Surface tension liquid-gas, N/m	uncertainty
348.32	0.0614	8e-05
352.84	0.06103	8e-05
358.28	0.06065	8e-05
364.11	0.06034	8e-05

System: 1-ethyl-3-methylimidazolium bromide; phases: Liquid, Air at 1 atmosphere
Property: Surface tension liquid-gas, N/m (Liquid); method: Ring tensiometer
Temperature, K	Surface tension liquid-gas, N/m	uncertainty
343.14	0.06201	0.00108
348.29	0.06186	0.00108
352.84	0.06128	0.00108
358.28	0.06125	0.00108
364.1	0.06053	0.00107

System: 1-methyl-3-propylimidazolium bromide; phases: Liquid
Fixed: Pressure, kPa = 101.325
Property: Mass density, kg/m3 (Liquid); method: Buoyancy - hydrostatic balance with magnetic suspension - one sinker
Temperature, K	Mass density, kg/m3	uncertainty
333.07	1332.55	0.54
337.73	1329.41	0.54
343.74	1325.39	0.54
347.91	1322.26	0.54
352.28	1318.84	0.54
358.1	1314.79	0.54
362.76	1310.9	0.54

System: 1-methyl-3-propylimidazolium bromide; phases: Liquid, Air at 1 atmosphere
Property: Surface tension liquid-gas, N/m (Liquid); method: Wilhelmy Plate
Temperature, K	Surface tension liquid-gas, N/m	uncertainty
328.53	0.05502	0.0001
333.09	0.05474	0.0001
337.75	0.05446	0.0001
343.8	0.05393	0.0001
348.01	0.05375	0.0001
352.22	0.05351	0.0001
358.17	0.05309	0.0001
362.89	0.05272	0.0001

System: 1-methyl-3-propylimidazolium bromide; phases: Liquid, Air at 1 atmosphere
Property: Surface tension liquid-gas, N/m (Liquid); method: Ring tensiometer
Temperature, K	Surface tension liquid-gas, N/m	uncertainty
328.55	0.05507	0.00075
333.1	0.05508	0.00075
337.75	0.05469	0.00075
343.78	0.05417	0.00074
347.98	0.05366	0.00074
352.34	0.05352	0.00073
358.15	0.05286	0.00073
362.78	0.05294	0.00073

System: 1-butyl-3-methylimidazolium bromide; phases: Liquid
Fixed: Pressure, kPa = 101.325
Property: Mass density, kg/m3 (Liquid); method: Buoyancy - hydrostatic balance with magnetic suspension - one sinker
Temperature, K	Mass density, kg/m3	uncertainty
308.39	1299.64	0.46
313.12	1296.36	0.46
318.5	1292.56	0.46
323.58	1288.88	0.46
328.14	1285.46	0.46
333.02	1281.54	0.46
337.96	1278.29	0.46
342.67	1275.32	0.46
349.08	1271.43	0.46
353.08	1268.23	0.46
358.19	1264.49	0.46
362.86	1261.43	0.46

System: 1-butyl-3-methylimidazolium bromide; phases: Liquid, Air at 1 atmosphere
Property: Surface tension liquid-gas, N/m (Liquid); method: Wilhelmy Plate
Temperature, K	Surface tension liquid-gas, N/m	uncertainty
308.39	0.04998	0.00011
313.11	0.04969	0.00011
318.48	0.04933	0.00011
323.54	0.04898	0.00011
328.1	0.04867	0.00011
333.02	0.04835	0.00011
338.01	0.04807	0.00011
342.75	0.04775	0.00011
349.16	0.04731	0.0001
353.41	0.04709	0.0001
358.3	0.04678	0.0001
362.92	0.04639	0.0001

System: 1-butyl-3-methylimidazolium bromide; phases: Liquid, Air at 1 atmosphere
Property: Surface tension liquid-gas, N/m (Liquid); method: Ring tensiometer
Temperature, K	Surface tension liquid-gas, N/m	uncertainty
308.39	0.05028	0.00086
313.11	0.0498	0.00085
318.48	0.04951	0.00085
323.57	0.04922	0.00085
328.14	0.04896	0.00085
333.03	0.0486	0.00084
337.99	0.04827	0.00084
342.75	0.048	0.00084
349.14	0.04772	0.00084
353.12	0.04724	0.00083
358.27	0.04727	0.00083
362.9	0.04686	0.00083

System: 1-pentyl-3-methylimidazolium bromide; phases: Liquid
Fixed: Pressure, kPa = 101.325
Property: Mass density, kg/m3 (Liquid); method: Buoyancy - hydrostatic balance with magnetic suspension - one sinker
Temperature, K	Mass density, kg/m3	uncertainty
298.49	1262.83	0.69
303.3	1259.38	0.69
308.12	1256.49	0.69
313.27	1252.83	0.69
318.27	1249.49	0.69
323.3	1245.55	0.69
327.41	1242.66	0.69
333.16	1239.16	0.69
338.01	1236.12	0.69
343.01	1232.8	0.69
348.13	1229.53	0.69
353.01	1226.21	0.69
358.12	1222.61	0.69
362.97	1219.41	0.69

System: 1-pentyl-3-methylimidazolium bromide; phases: Liquid, Air at 1 atmosphere
Property: Surface tension liquid-gas, N/m (Liquid); method: Wilhelmy Plate
Temperature, K	Surface tension liquid-gas, N/m	uncertainty
333.26	0.04179	0.00011
338.08	0.0416	0.00011
343.09	0.04138	0.00011
348.26	0.04118	0.00011
353.13	0.041	0.0001
358.24	0.04081	0.0001
363.12	0.0406	0.0001

System: 1-pentyl-3-methylimidazolium bromide; phases: Liquid, Air at 1 atmosphere
Property: Surface tension liquid-gas, N/m (Liquid); method: Ring tensiometer
Temperature, K	Surface tension liquid-gas, N/m	uncertainty
333.23	0.04196	0.00094
338.06	0.04195	0.00094
343.07	0.04184	0.00094
348.23	0.04159	0.00094
353.11	0.04145	0.00094
358.22	0.04124	0.00094
363.07	0.04104	0.00094

System: 3-hexyl-1-methyl-1H-imidazolium bromide; phases: Liquid
Fixed: Pressure, kPa = 101.325
Property: Mass density, kg/m3 (Liquid); method: Buoyancy - hydrostatic balance with magnetic suspension - one sinker
Temperature, K	Mass density, kg/m3	uncertainty
288.7	1235.51	0.69
293.91	1231.69	0.69
298.52	1228.13	0.69
303.43	1224.72	0.69
308.13	1220.87	0.69
313.41	1216.98	0.69
318.19	1213.32	0.69
323.33	1209.5	0.69
328.2	1205.7	0.69
333.8	1201.57	0.69
338.04	1198.15	0.69
343.07	1195.21	0.69
348.64	1191.41	0.69
352.79	1188.62	0.69
358.28	1185.22	0.69
360.63	1183.34	0.69

System: 3-hexyl-1-methyl-1H-imidazolium bromide; phases: Liquid, Air at 1 atmosphere
Property: Surface tension liquid-gas, N/m (Liquid); method: Wilhelmy Plate
Temperature, K	Surface tension liquid-gas, N/m	uncertainty
303.45	0.03975	0.00012
308.14	0.03956	0.00012
313.41	0.03934	0.00012
318.16	0.03912	0.00012
323.29	0.0388	0.00012
328.24	0.03858	0.00012
333.86	0.03826	0.00012
338.05	0.03808	0.00011
343.07	0.03786	0.00011
348.66	0.03751	0.00011
352.73	0.03737	0.00011
358.21	0.03702	0.00011
360.23	0.03696	0.00011

System: 3-hexyl-1-methyl-1H-imidazolium bromide; phases: Liquid, Air at 1 atmosphere
Property: Surface tension liquid-gas, N/m (Liquid); method: Ring tensiometer
Temperature, K	Surface tension liquid-gas, N/m	uncertainty
288.65	0.04083	0.00076
293.93	0.04058	0.00076
298.48	0.04031	0.00076
303.39	0.04014	0.00076
308.08	0.03996	0.00075
313.4	0.03968	0.00075
318.16	0.03945	0.00075
323.34	0.03907	0.00075
328.26	0.03883	0.00075
333.84	0.03851	0.00074
338.01	0.03831	0.00074
343.05	0.03809	0.00074
348.61	0.0378	0.00074
352.53	0.03743	0.00074
358.19	0.03728	0.00073
360.12	0.03719	0.00073

System: 1-heptyl-3-methylimidazolium bromide; phases: Liquid
Fixed: Pressure, kPa = 101.325
Property: Mass density, kg/m3 (Liquid); method: Buoyancy - hydrostatic balance with magnetic suspension - one sinker
Temperature, K	Mass density, kg/m3	uncertainty
288.61	1204.51	0.76
293.46	1200.12	0.76
298.41	1196.78	0.76
303.25	1193	0.76
308.21	1189.59	0.76
313.68	1184.48	0.76
318.07	1180.84	0.76
323.13	1177.36	0.76
328.04	1173.42	0.76
333.16	1169.7	0.76
338.28	1165.8	0.76
342.93	1162.61	0.75
348	1159.27	0.75
353.15	1155.57	0.75
358.44	1151.81	0.75
361.83	1149.33	0.75

System: 1-heptyl-3-methylimidazolium bromide; phases: Liquid, Air at 1 atmosphere
Property: Surface tension liquid-gas, N/m (Liquid); method: Wilhelmy Plate
Temperature, K	Surface tension liquid-gas, N/m	uncertainty
313.61	0.03457	0.00015
318.02	0.03435	0.00015
323.13	0.03409	0.00015
328.11	0.03389	0.00015
333.24	0.03358	0.00014
338.33	0.0333	0.00014
341.91	0.03314	0.00014
347.23	0.03289	0.00014
353.14	0.03261	0.00014
358.37	0.0324	0.00014
361.8	0.03217	0.00014

System: 1-heptyl-3-methylimidazolium bromide; phases: Liquid, Air at 1 atmosphere
Property: Surface tension liquid-gas, N/m (Liquid); method: Ring tensiometer
Temperature, K	Surface tension liquid-gas, N/m	uncertainty
313.61	0.03483	0.00055
317.99	0.0345	0.00055
323.11	0.03421	0.00054
328.07	0.0343	0.00055
333.19	0.03355	0.00054
338.33	0.03325	0.00054
341.81	0.03317	0.00053
347.18	0.03307	0.00053
353.09	0.03256	0.00053
358.31	0.03241	0.00053
361.72	0.03203	0.00052

System: 1-methyl-3-octylimidazolium bromide; phases: Liquid
Fixed: Pressure, kPa = 101.325
Property: Mass density, kg/m3 (Liquid); method: Buoyancy - hydrostatic balance with magnetic suspension - one sinker
Temperature, K	Mass density, kg/m3	uncertainty
293.61	1173.83	0.79
298.22	1170.38	0.79
303.23	1166.69	0.79
307.98	1163.19	0.79
313.53	1159.21	0.79
318.39	1155.7	0.79
323.35	1151.66	0.79
328.26	1147.97	0.79
332.57	1145.04	0.79
338.39	1140.81	0.79
342.96	1137.99	0.79
347.82	1135.43	0.79
353.15	1131.58	0.79
358.97	1127.78	0.79
360.84	1126.32	0.79

System: 1-methyl-3-octylimidazolium bromide; phases: Liquid, Air at 1 atmosphere
Property: Surface tension liquid-gas, N/m (Liquid); method: Wilhelmy Plate
Temperature, K	Surface tension liquid-gas, N/m	uncertainty
303.23	0.03252	0.00012
307.93	0.03234	0.00012
313.51	0.03216	0.00012
318.36	0.03199	0.00012
323.33	0.03175	0.00012
328.25	0.03156	0.00012
332.6	0.03143	0.00012
338.44	0.03117	0.00011
343.07	0.03089	0.00011
347.69	0.03073	0.00011
352.5	0.03058	0.00011
357.64	0.03033	0.00011
360.88	0.03024	0.00011

System: 1-methyl-3-octylimidazolium bromide; phases: Liquid, Air at 1 atmosphere
Property: Surface tension liquid-gas, N/m (Liquid); method: Ring tensiometer
Temperature, K	Surface tension liquid-gas, N/m	uncertainty
303.23	0.0329	0.00063
307.95	0.03268	0.00063
313.51	0.03249	0.00063
318.37	0.03228	0.00063
323.34	0.03203	0.00062
328.26	0.03179	0.00062
332.59	0.03167	0.00062
338.4	0.0315	0.00062
343.06	0.03097	0.00062
347.49	0.03057	0.00061
352.52	0.03066	0.00061
357.51	0.03027	0.00061
360.82	0.03043	0.00061

System: 1-methyl-3-nonylimidazolium bromide; phases: Liquid
Fixed: Pressure, kPa = 101.325
Property: Mass density, kg/m3 (Liquid); method: Buoyancy - hydrostatic balance with magnetic suspension - one sinker
Temperature, K	Mass density, kg/m3	uncertainty
293.53	1151.11	0.56
298.66	1147.53	0.56
303.27	1143.87	0.56
308.55	1140.39	0.56
313.46	1136.5	0.56
318.04	1132.93	0.56
323.21	1129.22	0.56
327.91	1125.75	0.56
333.09	1122.06	0.56
338.45	1118.47	0.56
342.75	1115.49	0.56
348.28	1112.09	0.56
353.51	1108.37	0.56
358.3	1105.2	0.56
361.69	1103.16	0.56

System: 1-methyl-3-nonylimidazolium bromide; phases: Liquid, Air at 1 atmosphere
Property: Surface tension liquid-gas, N/m (Liquid); method: Wilhelmy Plate
Temperature, K	Surface tension liquid-gas, N/m	uncertainty
303.28	0.03012	8e-05
308.55	0.02991	8e-05
313.44	0.02973	8e-05
318.03	0.02954	8e-05
323.23	0.0293	8e-05
327.97	0.0291	8e-05
333.11	0.02886	8e-05
338.49	0.02859	8e-05
342.8	0.02839	8e-05
348.31	0.02818	8e-05
352.4	0.02799	8e-05
358.31	0.02775	8e-05
361.68	0.02759	8e-05

System: 1-methyl-3-nonylimidazolium bromide; phases: Liquid, Air at 1 atmosphere
Property: Surface tension liquid-gas, N/m (Liquid); method: Ring tensiometer
Temperature, K	Surface tension liquid-gas, N/m	uncertainty
298.64	0.03063	0.00062
303.27	0.03041	0.00062
308.54	0.03017	0.00062
313.44	0.02995	0.00062
318.03	0.02977	0.00062
323.2	0.02962	0.00062
327.94	0.02941	0.00062
333.09	0.02919	0.00061
338.49	0.02872	0.00061
342.76	0.02851	0.00061
348.23	0.02846	0.00061
352.32	0.02798	0.00061
358.25	0.02794	0.00061
361.6	0.02782	0.0006

System: 1-decyl-3-methylimidazolium bromide; phases: Liquid
Fixed: Pressure, kPa = 101.325
Property: Mass density, kg/m3 (Liquid); method: Buoyancy - hydrostatic balance with magnetic suspension - one sinker
Temperature, K	Mass density, kg/m3	uncertainty
298.41	1128.2	0.35
303.45	1124.55	0.35
308.2	1121.27	0.35
313.5	1117.38	0.35
318.29	1113.91	0.35
322.96	1110.37	0.35
327.96	1106.69	0.34
333.59	1102.59	0.34
337.76	1099.91	0.34
343.08	1095.88	0.34
348.29	1092.59	0.34
352.96	1089.23	0.34
358.48	1085.6	0.34
361.87	1083.32	0.34

System: 1-decyl-3-methylimidazolium bromide; phases: Liquid, Air at 1 atmosphere
Property: Surface tension liquid-gas, N/m (Liquid); method: Wilhelmy Plate
Temperature, K	Surface tension liquid-gas, N/m	uncertainty
303.43	0.02764	9e-05
323.02	0.02687	9e-05
328.08	0.02665	9e-05
332.76	0.02645	9e-05
337.48	0.02622	9e-05
343.19	0.02597	9e-05
347.47	0.02582	9e-05
352.93	0.02557	8e-05
358.41	0.02536	8e-05
361.5	0.02522	8e-05

System: 1-decyl-3-methylimidazolium bromide; phases: Liquid, Air at 1 atmosphere
Property: Surface tension liquid-gas, N/m (Liquid); method: Ring tensiometer
Temperature, K	Surface tension liquid-gas, N/m	uncertainty
303.38	0.02804	0.0008
308.15	0.02797	0.0008
313.47	0.02773	0.00079
318.26	0.02754	0.00079
322.99	0.02714	0.00079
328.01	0.02701	0.00079
332.75	0.02687	0.00079
338.06	0.02674	0.00079
343.15	0.02607	0.00079
347.35	0.02614	0.00079
352.46	0.02577	0.00078
358.38	0.02528	0.00078
361.45	0.02551	0.00078
