Measured thermophysical data. Phase behaviour at different temperatures of ionic liquid based aqueous two-phase systems containing {[Bmim]BF4 + salt sulfate (Zn2+ or Ni2+) + water}
Source: J. Chem. Thermodyn., 2017, 10.1016/j.jct.2017.01.008
Compound 1: 1-butyl-3-methylimidazolium tetrafluoroborate, C8H15BF4N2, InChI=1S/C8H15N2.BF4/c1-3-4-5-10-7-6-9(2)8-10;2-1(3,4)5/h6-8H,3-5H2,1-2H3;/q+1;-1, purity 98.7%
Compound 2: zinc sulfate, O4SZn, InChI=1S/H2O4S.Zn/c1-5(2,3)4;/h(H2,1,2,3,4);/q;+2/p-2, purity 99%
Compound 3: nickel monosulfate, NiO4S, InChI=1S/Ni.H2O4S/c;1-5(2,3)4/h;(H2,1,2,3,4)/q+2;/p-2, purity 99%
Compound 4: water, H2O, InChI=1S/H2O/h1H2, purity 99.8%

System: water + zinc sulfate + 1-butyl-3-methylimidazolium tetrafluoroborate; phases: Liquid mixture 1, Liquid mixture 2
Fixed: Pressure, kPa = 94
Property: Mass fraction of zinc sulfate (Liquid mixture 1); method: Titration method
Temperature, K	Mass fraction of 1-butyl-3-methylimidazolium tetrafluoroborate	Mass fraction of zinc sulfate	uncertainty
283.15	0.6919	0.0017	0.0004
283.15	0.6148	0.003	0.001
283.15	0.5364	0.0039	0.0005
283.15	0.4758	0.0046	0.0005
283.15	0.4077	0.005	0.001
283.15	0.3717	0.0054	0.0007
283.15	0.3552	0.0061	0.0014
283.15	0.3257	0.0076	0.0013
283.15	0.3013	0.0085	0.0014
283.15	0.2789	0.0102	0.0023
283.15	0.2536	0.0133	0.0028
283.15	0.2172	0.0183	0.0033
283.15	0.1869	0.0251	0.0043
283.15	0.1711	0.0307	0.0045
283.15	0.1587	0.0332	0.0037
283.15	0.1407	0.0372	0.0045
283.15	0.1336	0.0417	0.006
283.15	0.1132	0.0509	0.0062
283.15	0.0991	0.0602	0.0079
283.15	0.0901	0.0705	0.0083
283.15	0.0823	0.0747	0.0074
283.15	0.0715	0.0832	0.0084
283.15	0.0643	0.0917	0.0097
283.15	0.0615	0.0963	0.0151
283.15	0.0602	0.1006	0.0183
283.15	0.0593	0.1058	0.0181
283.15	0.0566	0.1137	0.0138
283.15	0.0533	0.1203	0.0131
283.15	0.0501	0.1277	0.0139
283.15	0.0482	0.1327	0.0166
283.15	0.0453	0.1441	0.0194
283.15	0.0423	0.1592	0.0207
298.15	0.6808	0.0055	0.001
298.15	0.6148	0.0061	0.0005
298.15	0.5657	0.0072	0.0007
298.15	0.5218	0.0084	0.0012
298.15	0.4779	0.0091	0.001
298.15	0.4586	0.0103	0.0014
298.15	0.4015	0.0115	0.0014
298.15	0.3728	0.0136	0.0022
298.15	0.3389	0.0158	0.0024
298.15	0.2824	0.0208	0.0026
298.15	0.2338	0.0254	0.0031
298.15	0.2068	0.0297	0.0042
298.15	0.1857	0.0362	0.0044
298.15	0.1542	0.0426	0.0047
298.15	0.1357	0.0492	0.0069
298.15	0.1267	0.0541	0.0082
298.15	0.122	0.0606	0.0062
298.15	0.1049	0.0649	0.0068
298.15	0.0976	0.0717	0.0077
298.15	0.0886	0.0765	0.0107
298.15	0.086	0.0848	0.0117
298.15	0.0796	0.0894	0.0099
298.15	0.0738	0.1002	0.014
298.15	0.0723	0.107	0.021
298.15	0.0708	0.1116	0.0134
298.15	0.0666	0.1167	0.0109
298.15	0.0621	0.1226	0.0136
298.15	0.0597	0.1291	0.013
298.15	0.057	0.136	0.014
298.15	0.0527	0.1436	0.0134
298.15	0.0493	0.1482	0.0196
298.15	0.0489	0.1573	0.0202
298.15	0.0484	0.167	0.021
298.15	0.0446	0.1779	0.0165
313.15	0.6924	0.0035	0.0006
313.15	0.5842	0.0061	0.001
313.15	0.5546	0.0076	0.0017
313.15	0.5245	0.0089	0.0017
313.15	0.4952	0.0102	0.0023
313.15	0.4699	0.012	0.003
313.15	0.4495	0.0134	0.0026
313.15	0.4198	0.0155	0.0032
313.15	0.3946	0.0185	0.0035
313.15	0.3715	0.0205	0.0031
313.15	0.3326	0.0243	0.0037
313.15	0.3149	0.0278	0.0043
313.15	0.2779	0.0329	0.004
313.15	0.2655	0.0347	0.0042
313.15	0.2481	0.0375	0.0047
313.15	0.2362	0.0404	0.0043
313.15	0.2182	0.0423	0.0042
313.15	0.2036	0.0453	0.0052
313.15	0.1838	0.0505	0.0058
313.15	0.1698	0.0554	0.0075
313.15	0.1498	0.0661	0.0074
313.15	0.1253	0.0753	0.008
313.15	0.1068	0.0896	0.0097
313.15	0.0955	0.0988	0.0095
313.15	0.0847	0.1051	0.0103
313.15	0.0812	0.1128	0.013
313.15	0.073	0.1231	0.0396
313.15	0.072	0.13	0.04
313.15	0.0659	0.1354	0.0124
313.15	0.0562	0.148	0.027
313.15	0.0542	0.1593	0.021
313.15	0.049	0.1777	0.0223
313.15	0.0452	0.201	0.027

System: water + nickel monosulfate + 1-butyl-3-methylimidazolium tetrafluoroborate; phases: Liquid mixture 1, Liquid mixture 2
Fixed: Pressure, kPa = 94
Property: Mass fraction of nickel monosulfate (Liquid mixture 1); method: Titration method
Temperature, K	Mass fraction of 1-butyl-3-methylimidazolium tetrafluoroborate	Mass fraction of nickel monosulfate	uncertainty
283.15	0.6944	0.0014	0.0002
283.15	0.5807	0.0023	0.0003
283.15	0.499	0.003	0.0004
283.15	0.4375	0.0034	0.0005
283.15	0.4066	0.004	0.0007
283.15	0.3798	0.0045	0.0007
283.15	0.3563	0.0049	0.0008
283.15	0.3284	0.0058	0.001
283.15	0.3045	0.0066	0.0012
283.15	0.283	0.0078	0.0016
283.15	0.2635	0.0093	0.0024
283.15	0.2407	0.0123	0.0027
283.15	0.2158	0.0154	0.0028
283.15	0.1902	0.0195	0.0032
283.15	0.1611	0.0253	0.0036
283.15	0.1449	0.0299	0.0041
283.15	0.1303	0.0338	0.0043
283.15	0.1226	0.0369	0.0051
283.15	0.108	0.0429	0.0058
283.15	0.0962	0.0507	0.007
283.15	0.0907	0.0555	0.0086
283.15	0.0882	0.0588	0.0119
283.15	0.0845	0.0649	0.0099
283.15	0.0803	0.0685	0.0096
283.15	0.0773	0.0736	0.0097
283.15	0.0706	0.0804	0.0114
283.15	0.0656	0.0928	0.0139
283.15	0.058	0.1081	0.0125
283.15	0.0483	0.1248	0.0125
283.15	0.0378	0.143	0.0138
283.15	0.0271	0.1712	0.0156
298.15	0.6798	0.0037	0.0006
298.15	0.6028	0.0042	0.0004
298.15	0.5796	0.0048	0.0007
298.15	0.5573	0.0051	0.0013
298.15	0.5301	0.0061	0.0008
298.15	0.5107	0.0071	0.0016
298.15	0.4872	0.0083	0.0031
298.15	0.4646	0.0099	0.0021
298.15	0.4304	0.012	0.0034
298.15	0.3927	0.0166	0.0032
298.15	0.3255	0.0215	0.003
298.15	0.2467	0.0294	0.0039
298.15	0.1758	0.0444	0.0051
298.15	0.1427	0.056	0.0061
298.15	0.1245	0.0617	0.0062
298.15	0.1172	0.0666	0.0103
298.15	0.1003	0.0819	0.0103
298.15	0.0879	0.0957	0.0111
298.15	0.0822	0.1042	0.014
298.15	0.0784	0.1118	0.0137
298.15	0.0748	0.1178	0.0151
298.15	0.0661	0.1316	0.0141
298.15	0.063	0.1406	0.0179
298.15	0.06	0.1438	0.015
298.15	0.0599	0.1473	0.0152
298.15	0.0532	0.1546	0.0159
298.15	0.0474	0.1681	0.0172
298.15	0.0458	0.1724	0.0175
298.15	0.0408	0.1864	0.0187
298.15	0.038	0.1944	0.0191
298.15	0.0354	0.2057	0.0196
313.15	0.6838	0.0031	0.0006
313.15	0.5733	0.0052	0.0016
313.15	0.5493	0.0063	0.0015
313.15	0.5303	0.0069	0.0015
313.15	0.5096	0.0078	0.0017
313.15	0.4905	0.0085	0.0036
313.15	0.4728	0.0111	0.0046
313.15	0.4564	0.0125	0.0029
313.15	0.4388	0.0136	0.0043
313.15	0.4226	0.0165	0.0048
313.15	0.3901	0.0203	0.004
313.15	0.3652	0.0232	0.0045
313.15	0.3308	0.0284	0.0044
313.15	0.2908	0.0337	0.0046
313.15	0.2579	0.0397	0.0055
313.15	0.2352	0.0457	0.0059
313.15	0.2186	0.049	0.0056
313.15	0.2016	0.0529	0.0057
313.15	0.1783	0.0579	0.0066
313.15	0.1622	0.0652	0.0077
313.15	0.1484	0.0701	0.0076
313.15	0.1353	0.0758	0.008
313.15	0.1238	0.0811	0.0087
313.15	0.1155	0.0866	0.0104
313.15	0.1108	0.0917	0.012
313.15	0.1037	0.0988	0.0126
313.15	0.0965	0.1078	0.0141
313.15	0.0908	0.1168	0.0149
313.15	0.0851	0.1253	0.0166
313.15	0.0773	0.1419	0.0169
313.15	0.0654	0.1635	0.0168
