Measured thermophysical data. (Liquid + liquid) equilibria of (water + propionic acid + dibasic esters) ternary systems
Source: J. Chem. Thermodyn., 2007, 10.1016/j.jct.2007.02.012
Compound 1: water, H2O, InChI=1S/H2O/h1H2
Compound 2: propanoic acid, C3H6O2, InChI=1S/C3H6O2/c1-2-3(4)5/h2H2,1H3,(H,4,5), purity 99%
Compound 3: dimethyl 1,4-butanedioate, C6H10O4, InChI=1S/C6H10O4/c1-9-5(7)3-4-6(8)10-2/h3-4H2,1-2H3, purity 98%
Compound 4: dimethyl pentanedioate, C7H12O4, InChI=1S/C7H12O4/c1-10-6(8)4-3-5-7(9)11-2/h3-5H2,1-2H3, purity 99%
Compound 5: dimethyl 1,6-hexanedioate, C8H14O4, InChI=1S/C8H14O4/c1-11-7(9)5-3-4-6-8(10)12-2/h3-6H2,1-2H3, purity 99%

System: propanoic acid; phases: Liquid
Property: Refractive index (Na D-line) (Liquid); method: Standard Abbe refractometry
Temperature, K	Pressure, kPa	Refractive index (Na D-line)	uncertainty
293.15	101.325	1.3808	0.00075

System: propanoic acid; phases: Liquid, Gas
Property: Boiling temperature at pressure P, K (Liquid); method: Distillation
Pressure, kPa	Boiling temperature at pressure P, K	uncertainty
101.325	414.5	0.2

System: propanoic acid; phases: Liquid
Property: Mass density, kg/m3 (Liquid); method: VIBTUB:UFactor:6
Temperature, K	Pressure, kPa	Mass density, kg/m3	uncertainty
298.15	101.325	988	0.5

System: dimethyl 1,4-butanedioate; phases: Liquid
Property: Refractive index (Na D-line) (Liquid); method: Standard Abbe refractometry
Temperature, K	Pressure, kPa	Refractive index (Na D-line)	uncertainty
293.15	101.325	1.41969	0.00082

System: dimethyl 1,4-butanedioate; phases: Liquid, Gas
Property: Boiling temperature at pressure P, K (Liquid); method: Distillation
Pressure, kPa	Boiling temperature at pressure P, K	uncertainty
101.325	469.2	0.2

System: dimethyl 1,4-butanedioate; phases: Liquid
Property: Mass density, kg/m3 (Liquid); method: VIBTUB:UFactor:6
Temperature, K	Pressure, kPa	Mass density, kg/m3	uncertainty
293.15	101.325	1119.13	1.51

System: dimethyl pentanedioate; phases: Liquid
Property: Refractive index (Na D-line) (Liquid); method: Standard Abbe refractometry
Temperature, K	Pressure, kPa	Refractive index (Na D-line)	uncertainty
293.15	101.325	1.42454	0.00075

System: dimethyl pentanedioate; phases: Liquid, Gas
Property: Boiling temperature at pressure P, K (Liquid); method: Distillation
Pressure, kPa	Boiling temperature at pressure P, K	uncertainty
101.325	487.3	0.2

System: dimethyl pentanedioate; phases: Liquid
Property: Mass density, kg/m3 (Liquid); method: VIBTUB:UFactor:6
Temperature, K	Pressure, kPa	Mass density, kg/m3	uncertainty
293.15	101.325	1087.67	0.68

System: dimethyl 1,6-hexanedioate; phases: Liquid
Property: Refractive index (Na D-line) (Liquid); method: Standard Abbe refractometry
Temperature, K	Pressure, kPa	Refractive index (Na D-line)	uncertainty
293.15	101.325	1.42825	0.00075

System: dimethyl 1,6-hexanedioate; phases: Liquid, Gas
Property: Boiling temperature at pressure P, K (Liquid); method: Distillation
Pressure, kPa	Boiling temperature at pressure P, K	uncertainty
1.733	388	1

System: dimethyl 1,6-hexanedioate; phases: Liquid
Property: Mass density, kg/m3 (Liquid); method: VIBTUB:UFactor:6
Temperature, K	Pressure, kPa	Mass density, kg/m3	uncertainty
293.15	101.325	1061.72	0.61

System: propanoic acid + dimethyl 1,4-butanedioate + water; phases: Liquid mixture 1, Liquid mixture 2
Fixed: Temperature, K = 298.15
Fixed: Pressure, kPa = 101.3
Property: Mass fraction of propanoic acid (Liquid mixture 1); method: CHROM:UFactor:4
Property: Mass fraction of propanoic acid (Liquid mixture 2); method: CHROM:UFactor:4
Property: Mass fraction of water (Liquid mixture 2); method: CHROM:UFactor:4
Mass fraction of water	Mass fraction of propanoic acid	uncertainty	Mass fraction of propanoic acid	uncertainty	Mass fraction of water	uncertainty
0.835	0.0362	0.0014	0.0748	0.003	0.1002	
0.773	0.0753	0.003	0.1344	0.0054	0.1606	
0.73	0.1001	0.004	0.174	0.007	0.221	
0.665	0.1283	0.0051	0.1919	0.0077	0.3021	

System: propanoic acid + dimethyl 1,4-butanedioate + water; phases: Liquid mixture 1, Liquid mixture 2
Fixed: Pressure, kPa = 101.3
Fixed: Temperature, K = 298.15
Property: Mass fraction of propanoic acid (Liquid mixture 1); method: Titration method
Mass fraction of water	Mass fraction of propanoic acid	uncertainty
0.0552	0	0.0001
0.1327	0.1039	0.0042
0.1873	0.1536	0.0061
0.2026	0.1625	0.0065
0.2951	0.1957	0.0078
0.3588	0.1924	0.0077
0.4357	0.1876	0.0075
0.5174	0.173	0.0069
0.6035	0.1495	0.006
0.733	0.1014	0.0041
0.8741	0	0.0001

System: propanoic acid + dimethyl pentanedioate + water; phases: Liquid mixture 2, Liquid mixture 1
Fixed: Temperature, K = 298.15
Fixed: Pressure, kPa = 101.3
Property: Mass fraction of propanoic acid (Liquid mixture 2); method: CHROM:UFactor:4
Property: Mass fraction of propanoic acid (Liquid mixture 1); method: CHROM:UFactor:4
Property: Mass fraction of water (Liquid mixture 1); method: CHROM:UFactor:4
Mass fraction of water	Mass fraction of propanoic acid	uncertainty	Mass fraction of propanoic acid	uncertainty	Mass fraction of water	uncertainty
0.0643	0.0577	0.0023	0.0292	0.0023	0.905	
0.1103	0.1397	0.0056	0.0697	0.0056	0.862	
0.1595	0.2035	0.0081	0.1035	0.0083	0.808	
0.2386	0.2484	0.0099	0.1437	0.0115	0.752	

System: propanoic acid + dimethyl pentanedioate + water; phases: Liquid mixture 1, Liquid mixture 2
Fixed: Pressure, kPa = 101.3
Fixed: Temperature, K = 298.15
Property: Mass fraction of propanoic acid (Liquid mixture 1); method: Titration method
Mass fraction of water	Mass fraction of propanoic acid	uncertainty
0.0415	0	0.0001
0.0963	0.1098	0.0044
0.1395	0.1713	0.0069
0.21	0.2374	0.0095
0.3342	0.2652	0.0106
0.3872	0.2594	0.0104
0.5293	0.2277	0.0091
0.6104	0.2046	0.0082
0.6892	0.174	0.007
0.8027	0.1109	0.0044
0.9399	0	0.0001

System: propanoic acid + dimethyl 1,6-hexanedioate + water; phases: Liquid mixture 2, Liquid mixture 1
Fixed: Temperature, K = 298.15
Fixed: Pressure, kPa = 101.3
Property: Mass fraction of propanoic acid (Liquid mixture 2); method: CHROM:UFactor:4
Property: Mass fraction of propanoic acid (Liquid mixture 1); method: CHROM:UFactor:4
Property: Mass fraction of water (Liquid mixture 1); method: CHROM:UFactor:4
Mass fraction of water	Mass fraction of propanoic acid	uncertainty	Mass fraction of propanoic acid	uncertainty	Mass fraction of water	uncertainty
0.0483	0.0717	0.0029	0.0371	0.003	0.932	
0.0856	0.1394	0.0056	0.0697	0.0056	0.89	
0.149	0.224	0.009	0.1141	0.0091	0.84	
0.2198	0.2902	0.0116	0.1613	0.0129	0.773	

System: propanoic acid + dimethyl 1,6-hexanedioate + water; phases: Liquid mixture 1, Liquid mixture 2
Fixed: Pressure, kPa = 101.3
Fixed: Temperature, K = 298.15
Property: Mass fraction of propanoic acid (Liquid mixture 1); method: Titration method
Mass fraction of water	Mass fraction of propanoic acid	uncertainty
0.0383	0	0.0001
0.0918	0.1407	0.0056
0.1376	0.2148	0.0086
0.2391	0.3036	0.0121
0.3242	0.3228	0.0129
0.4522	0.3017	0.0121
0.5957	0.2544	0.0102
0.6708	0.2236	0.0089
0.7391	0.1875	0.0075
0.8389	0.1167	0.0047
0.97	0	0.0001

System: dimethyl 1,4-butanedioate + water; phases: Liquid mixture 1, Liquid mixture 2
Fixed: Pressure, kPa = 101.3
Fixed: Temperature, K = 298.15
Property: Mass fraction of water (Liquid mixture 1); method: Titration method
Mass fraction of water	uncertainty
0.0552	
0.8741	

System: dimethyl pentanedioate + water; phases: Liquid mixture 1, Liquid mixture 2
Fixed: Pressure, kPa = 101.3
Fixed: Temperature, K = 298.15
Property: Mass fraction of water (Liquid mixture 1); method: Titration method
Mass fraction of water	uncertainty
0.0415	
0.9399	

System: dimethyl 1,6-hexanedioate + water; phases: Liquid mixture 1, Liquid mixture 2
Fixed: Pressure, kPa = 101.3
Fixed: Temperature, K = 298.15
Property: Mass fraction of water (Liquid mixture 1); method: Titration method
Mass fraction of water	uncertainty
0.0383	
0.97	
