Measured thermophysical data. On permittivity and density of the systems {triglyme + (dimethyl or diethyl carbonate)} and formulation of De in terms of volume or mole fraction
Source: J. Chem. Thermodyn., 2008, 10.1016/j.jct.2008.02.015
Compound 1: 2,5,8,11-tetraoxadodecane, C8H18O4, InChI=1S/C8H18O4/c1-9-3-5-11-7-8-12-6-4-10-2/h3-8H2,1-2H3
Compound 2: dimethyl carbonate, C3H6O3, InChI=1S/C3H6O3/c1-5-3(4)6-2/h1-2H3
Compound 3: diethyl carbonate, C5H10O3, InChI=1S/C5H10O3/c1-3-7-5(6)8-4-2/h3-4H2,1-2H3

System: 2,5,8,11-tetraoxadodecane; phases: Liquid
Fixed: Pressure, kPa = 101.325
Property: Relative permittivity at zero frequency (Liquid); method: HP4284A precision LCR Meter
Temperature, K	Relative permittivity at zero frequency	uncertainty
288.15	7.884	0.158
298.15	7.578	0.152
308.15	7.328	0.147
318.15	7.093	0.142
328.15	6.896	0.138

System: 2,5,8,11-tetraoxadodecane; phases: Liquid
Fixed: Pressure, kPa = 101.325
Property: Mass density, kg/m3 (Liquid); method: VIBTUB:UFactor:6
Temperature, K	Mass density, kg/m3	uncertainty
288.15	989.98	0.41
298.15	980.49	0.42
308.15	970.97	0.44
318.15	961.6	0.46
328.15	952.14	0.48

System: dimethyl carbonate; phases: Liquid
Fixed: Pressure, kPa = 101.325
Property: Relative permittivity at zero frequency (Liquid); method: HP4284A precision LCR Meter
Temperature, K	Relative permittivity at zero frequency	uncertainty
288.15	3.131	0.063
298.15	3.134	0.063
308.15	3.141	0.063
318.15	3.147	0.063
328.15	3.149	0.063

System: dimethyl carbonate; phases: Liquid
Fixed: Pressure, kPa = 101.325
Property: Mass density, kg/m3 (Liquid); method: VIBTUB:UFactor:6
Temperature, K	Mass density, kg/m3	uncertainty
288.15	1076.43	0.6
298.15	1063.26	0.56
308.15	1050.01	0.53
318.15	1036.65	0.49
328.15	1022.44	0.45

System: diethyl carbonate; phases: Liquid
Fixed: Pressure, kPa = 101.325
Property: Relative permittivity at zero frequency (Liquid); method: HP4284A precision LCR Meter
Temperature, K	Relative permittivity at zero frequency	uncertainty
288.15	2.841	0.057
298.15	2.834	0.057
308.15	2.836	0.057
318.15	2.837	0.057
328.15	2.839	0.057

System: diethyl carbonate; phases: Liquid
Fixed: Pressure, kPa = 101.325
Property: Mass density, kg/m3 (Liquid); method: VIBTUB:UFactor:6
Temperature, K	Mass density, kg/m3	uncertainty
288.15	980.4	0.28
298.15	969.23	0.31
308.15	957.96	0.34
318.15	947.66	0.36
328.15	935.16	0.39

System: 2,5,8,11-tetraoxadodecane + dimethyl carbonate; phases: Liquid
Fixed: Pressure, kPa = 101
Property: Relative permittivity at zero frequency (Liquid); method: HP42844A precision LCR Meter
Temperature, K	Mole fraction of 2,5,8,11-tetraoxadodecane	Relative permittivity at zero frequency	uncertainty
288.15	0.0589	3.513	0.07
288.15	0.1007	3.768	0.075
288.15	0.1988	4.343	0.087
288.15	0.3	4.885	0.098
288.15	0.3983	5.376	0.108
288.15	0.501	5.863	0.117
288.15	0.5998	6.31	0.126
288.15	0.7048	6.759	0.135
288.15	0.8037	7.159	0.143
288.15	0.9036	7.547	0.151
288.15	0.9519	7.728	0.155
298.15	0.0543	3.463	0.069
298.15	0.1027	3.736	0.075
298.15	0.2066	4.313	0.086
298.15	0.3003	4.789	0.096
298.15	0.4013	5.262	0.105
298.15	0.5025	5.711	0.114
298.15	0.6023	6.129	0.123
298.15	0.7035	6.534	0.131
298.15	0.8025	6.902	0.138
298.15	0.9015	7.258	0.145
298.15	0.9509	7.423	0.148
308.15	0.0549	3.451	0.069
308.15	0.1042	3.721	0.074
308.15	0.2049	4.245	0.085
308.15	0.3039	4.723	0.094
308.15	0.4138	5.209	0.104
308.15	0.5144	5.626	0.113
308.15	0.6093	5.998	0.12
308.15	0.7147	6.396	0.128
308.15	0.8034	6.7	0.134
308.15	0.8959	7.009	0.14
308.15	0.9563	7.202	0.144
318.15	0.051	3.421	0.068
318.15	0.1064	3.71	0.074
318.15	0.2052	4.196	0.084
318.15	0.3089	4.662	0.093
318.15	0.4031	5.058	0.101
318.15	0.5054	5.46	0.109
318.15	0.6142	5.863	0.117
318.15	0.7022	6.173	0.123
318.15	0.8031	6.502	0.13
318.15	0.9022	6.819	0.136
318.15	0.9499	6.959	0.139
328.15	0.0497	3.406	0.068
328.15	0.1007	3.665	0.073
328.15	0.1996	4.123	0.082
328.15	0.3021	4.562	0.091
328.15	0.4018	4.96	0.099
328.15	0.5033	5.342	0.107
328.15	0.6034	5.696	0.114
328.15	0.6993	6.014	0.12
328.15	0.8024	6.329	0.127
328.15	0.9006	6.616	0.132
328.15	0.9506	6.759	0.135

System: 2,5,8,11-tetraoxadodecane + dimethyl carbonate; phases: Liquid
Fixed: Pressure, kPa = 101
Property: Mass density, kg/m3 (Liquid); method: VIBTUB:UFactor:6
Temperature, K	Mole fraction of 2,5,8,11-tetraoxadodecane	Mass density, kg/m3	uncertainty
288.15	0.0592	1066.28	0.57
288.15	0.1058	1059.14	0.55
288.15	0.2146	1044.77	0.51
288.15	0.3139	1033.93	0.48
288.15	0.402	1025.69	0.46
288.15	0.5043	1017.42	0.43
288.15	0.6057	1010.34	0.41
288.15	0.7013	1004.49	0.4
288.15	0.8005	999.11	0.39
288.15	0.9013	994.25	0.4
288.15	0.9382	992.6	0.4
298.15	0.0559	1054.1	0.53
298.15	0.1035	1047.1	0.51
298.15	0.2157	1032.93	0.48
298.15	0.3138	1022.68	0.45
298.15	0.4011	1014.87	0.43
298.15	0.5037	1006.91	0.4
298.15	0.6057	1000.06	0.39
298.15	0.7003	994.48	0.4
298.15	0.7994	989.31	0.41
298.15	0.9014	984.59	0.41
298.15	0.9391	982.98	0.42
308.15	0.0588	1040.89	0.5
308.15	0.1054	1034.38	0.48
308.15	0.214	1021.33	0.44
308.15	0.3135	1011.39	0.42
308.15	0.4012	1003.89	0.4
308.15	0.5047	996.22	0.39
308.15	0.6049	989.78	0.4
308.15	0.7013	984.34	0.41
308.15	0.8001	979.41	0.42
308.15	0.9018	974.89	0.43
308.15	0.939	973.36	0.44
318.15	0.0556	1028.5	0.46
318.15	0.1051	1021.92	0.44
318.15	0.2054	1010.41	0.41
318.15	0.3056	1000.78	0.39
318.15	0.4045	992.7	0.4
318.15	0.5038	985.72	0.41
318.15	0.6052	979.51	0.42
318.15	0.7099	973.93	0.44
318.15	0.8007	969.63	0.44
318.15	0.8969	965.56	0.45
318.15	0.951	963.43	0.46
328.15	0.05	1015.61	0.43
328.15	0.0999	1009.38	0.41
328.15	0.2	998.55	0.39
328.15	0.3022	989.26	0.41
328.15	0.4009	981.64	0.42
328.15	0.4991	975.11	0.43
328.15	0.6031	969.11	0.45
328.15	0.7095	963.78	0.46
328.15	0.8001	959.74	0.46
328.15	0.8981	955.83	0.47
328.15	0.949	953.95	0.47

System: diethyl carbonate + 2,5,8,11-tetraoxadodecane; phases: Liquid
Fixed: Pressure, kPa = 101
Property: Relative permittivity at zero frequency (Liquid); method: HP428A precision LCR Meter
Temperature, K	Mole fraction of 2,5,8,11-tetraoxadodecane	Relative permittivity at zero frequency	uncertainty
288.15	0.0522	3.113	0.062
288.15	0.0995	3.358	0.067
288.15	0.1988	3.881	0.078
288.15	0.2983	4.406	0.088
288.15	0.3955	4.91	0.098
288.15	0.4985	5.431	0.109
288.15	0.6055	5.961	0.119
288.15	0.6989	6.415	0.128
288.15	0.7962	6.886	0.138
288.15	0.9006	7.392	0.148
288.15	0.9502	7.637	0.153
298.15	0.0513	3.085	0.062
298.15	0.0995	3.321	0.066
298.15	0.1996	3.817	0.076
298.15	0.3002	4.316	0.086
298.15	0.3992	4.798	0.096
298.15	0.4968	5.262	0.105
298.15	0.6001	5.744	0.115
298.15	0.6979	6.191	0.124
298.15	0.7992	6.651	0.133
298.15	0.9015	7.12	0.142
298.15	0.9506	7.347	0.147
308.15	0.052	3.076	0.062
308.15	0.1001	3.299	0.066
308.15	0.1998	3.768	0.075
308.15	0.2994	4.236	0.085
308.15	0.3996	4.697	0.094
308.15	0.5002	5.15	0.103
308.15	0.6021	5.601	0.112
308.15	0.696	6.007	0.12
308.15	0.7979	6.445	0.129
308.15	0.9014	6.893	0.138
308.15	0.9499	7.106	0.142
318.15	0.0505	3.056	0.061
318.15	0.1004	3.276	0.066
318.15	0.2	3.722	0.074
318.15	0.304	4.184	0.084
318.15	0.4024	4.613	0.092
318.15	0.5022	5.039	0.101
318.15	0.5958	5.43	0.109
318.15	0.6991	5.854	0.117
318.15	0.7982	6.257	0.125
318.15	0.9031	6.687	0.134
318.15	0.9504	6.885	0.138
328.15	0.0495	3.044	0.061
328.15	0.1009	3.26	0.065
328.15	0.2002	3.683	0.074
328.15	0.3002	4.109	0.082
328.15	0.3976	4.514	0.09
328.15	0.5015	4.937	0.099
328.15	0.6077	5.358	0.107
328.15	0.6955	5.7	0.114
328.15	0.7991	6.101	0.122
328.15	0.9001	6.498	0.13
328.15	0.9495	6.695	0.134

System: diethyl carbonate + 2,5,8,11-tetraoxadodecane; phases: Liquid
Fixed: Pressure, kPa = 101
Property: Mass density, kg/m3 (Liquid); method: VIBTUB:UFactor:6
Temperature, K	Mole fraction of 2,5,8,11-tetraoxadodecane	Mass density, kg/m3	uncertainty
288.15	0.0532	981.36	0.28
288.15	0.1026	982.16	0.29
288.15	0.2009	983.59	0.29
288.15	0.3035	984.87	0.3
288.15	0.398	985.89	0.31
288.15	0.4999	986.87	0.33
288.15	0.5981	987.69	0.34
288.15	0.6981	988.41	0.35
288.15	0.7998	989.05	0.37
288.15	0.8993	989.61	0.39
288.15	0.9503	989.84	0.39
298.15	0.0533	970.33	0.31
298.15	0.1024	971.27	0.31
298.15	0.2008	972.92	0.32
298.15	0.3035	974.42	0.33
298.15	0.398	975.62	0.34
298.15	0.5009	976.76	0.35
298.15	0.5971	977.69	0.36
298.15	0.6988	978.58	0.37
298.15	0.7998	979.35	0.39
298.15	0.8993	980	0.4
298.15	0.9503	980.29	0.41
308.15	0.0532	959.22	0.33
308.15	0.1026	960.29	0.33
308.15	0.2008	962.19	0.34
308.15	0.3035	963.91	0.35
308.15	0.3979	965.29	0.36
308.15	0.5004	966.61	0.37
308.15	0.5978	967.7	0.38
308.15	0.6985	968.72	0.39
308.15	0.7999	969.61	0.41
308.15	0.8993	970.39	0.42
308.15	0.9503	970.73	0.43
318.15	0.052	948.98	0.36
318.15	0.1004	950.09	0.36
318.15	0.202	952.18	0.36
318.15	0.3007	953.92	0.37
318.15	0.3987	955.45	0.38
318.15	0.4934	956.73	0.39
318.15	0.5943	957.95	0.4
318.15	0.6944	959.02	0.41
318.15	0.8003	960.02	0.43
318.15	0.895	960.82	0.44
318.15	0.9502	961.23	0.45
328.15	0.052	936.73	0.38
328.15	0.1004	938.07	0.38
328.15	0.202	940.55	0.39
328.15	0.3005	942.66	0.4
328.15	0.3995	944.49	0.4
328.15	0.4963	946.06	0.41
328.15	0.598	947.54	0.42
328.15	0.7004	948.86	0.43
328.15	0.8015	950.06	0.45
328.15	0.899	951.09	0.46
328.15	0.951	951.58	0.47
