Measured thermophysical data. Excess molar volumes and excess molar enthalpies of binary and ternary mixtures of 1-butanol, a tertiary amine (tri-n-butylamine or tri-n-octylamine) and n-hexane: Experimental results and ERAS-model calculations
Source: J. Chem. Thermodyn., 2006, 10.1016/j.jct.2005.12.006
Compound 1: butan-1-ol, C4H10O, InChI=1S/C4H10O/c1-2-3-4-5/h5H,2-4H2,1H3
Compound 2: hexane, C6H14, InChI=1S/C6H14/c1-3-5-6-4-2/h3-6H2,1-2H3
Compound 3: tributylamine, C12H27N, InChI=1S/C12H27N/c1-4-7-10-13(11-8-5-2)12-9-6-3/h4-12H2,1-3H3
Compound 4: trioctylamine, C24H51N, InChI=1S/C24H51N/c1-4-7-10-13-16-19-22-25(23-20-17-14-11-8-5-2)24-21-18-15-12-9-6-3/h4-24H2,1-3H3

System: butan-1-ol + tributylamine; phases: Liquid
Fixed: Temperature, K = 298.15
Fixed: Pressure, kPa = 101
Property: Excess molar enthalpy (molar enthalpy of mixing), kJ/mol (Liquid); method: Flow calorimetry
Mole fraction of butan-1-ol	Excess molar enthalpy (molar enthalpy of mixing), kJ/mol	uncertainty
0.0505	0.0382	0.0022
0.1006	0.0435	0.0022
0.1507	0.0271	0.0022
0.2009	0.0048	0.0021
0.2511	-0.024	0.0022
0.3013	-0.0472	0.0023
0.3519	-0.0757	0.0026
0.4018	-0.1004	0.0033
0.4514	-0.126	0.0041
0.5014	-0.1474	0.0048
0.5513	-0.1682	0.0054
0.6014	-0.1835	0.0059
0.6512	-0.1972	0.0063
0.7011	-0.2047	0.0065
0.7517	-0.2085	0.0066
0.8013	-0.2056	0.0065
0.8514	-0.1946	0.0062
0.9004	-0.1686	0.0054
0.9503	-0.1145	0.0038
0.9698	-0.0762	0.0027
0.9853	-0.023	0.0023

System: butan-1-ol + tributylamine; phases: Liquid
Fixed: Temperature, K = 298.15
Fixed: Pressure, kPa = 101
Property: Excess molar volume, m3/mol (Liquid); method: Calculated with densities of this investigation
Mole fraction of butan-1-ol	Excess molar volume, m3/mol	uncertainty
0.0583	-2e-07	8e-09
0.1082	-3.35e-07	9e-09
0.1695	-4.62e-07	9e-09
0.2255	-5.64e-07	9e-09
0.2683	-6.24e-07	9e-09
0.3093	-6.76e-07	9e-09
0.4204	-7.67e-07	1e-08
0.5012	-7.93e-07	1e-08
0.6154	-7.83e-07	1e-08
0.706	-7.22e-07	9e-09
0.7588	-6.61e-07	9e-09
0.8058	-5.87e-07	9e-09
0.8552	-4.82e-07	9e-09
0.8997	-3.71e-07	9e-09
0.9507	-2.2e-07	8e-09

System: tributylamine + hexane; phases: Liquid
Fixed: Temperature, K = 298.15
Fixed: Pressure, kPa = 101
Property: Excess molar enthalpy (molar enthalpy of mixing), kJ/mol (Liquid); method: Flow calorimetry
Mole fraction of tributylamine	Excess molar enthalpy (molar enthalpy of mixing), kJ/mol	uncertainty
0.05	-0.0047	0.0021
0.0995	-0.0076	0.0021
0.1495	-0.0092	0.0021
0.1997	-0.0092	0.0021
0.2498	-0.0088	0.0021
0.2992	-0.0079	0.0021
0.3498	-0.007	0.0021
0.3991	-0.006	0.0021
0.449	-0.0051	0.0021
0.4993	-0.0043	0.0021
0.5488	-0.0035	0.0021
0.599	-0.0027	0.0021
0.6492	-0.0021	0.0021
0.6989	-0.0016	0.0021
0.7495	-0.0013	0.0021
0.7991	-0.001	0.0021
0.8497	-0.0008	0.0021
0.9	-0.0006	0.0021
0.9501	-0.0004	0.0021

System: tributylamine + hexane; phases: Liquid
Fixed: Temperature, K = 298.15
Fixed: Pressure, kPa = 101
Property: Excess molar volume, m3/mol (Liquid); method: Calculated with densities of this investigation
Mole fraction of tributylamine	Excess molar volume, m3/mol	uncertainty
0.0512	-1.02e-07	8e-09
0.102	-1.91e-07	8e-09
0.1505	-2.53e-07	8e-09
0.1923	-2.95e-07	8e-09
0.2257	-3.18e-07	9e-09
0.2915	-3.54e-07	9e-09
0.3504	-3.69e-07	9e-09
0.3933	-3.76e-07	9e-09
0.4461	-3.76e-07	9e-09
0.4985	-3.7e-07	9e-09
0.5061	-3.68e-07	9e-09
0.5459	-3.56e-07	9e-09
0.5942	-3.34e-07	9e-09
0.6369	-3.13e-07	8e-09
0.6989	-2.71e-07	8e-09
0.7544	-2.33e-07	8e-09
0.7869	-2.11e-07	8e-09
0.8449	-1.65e-07	8e-09
0.8825	-1.32e-07	8e-09
0.9527	-5.6e-08	8e-09

System: butan-1-ol + trioctylamine; phases: Liquid
Fixed: Temperature, K = 298.15
Fixed: Pressure, kPa = 101
Property: Excess molar enthalpy (molar enthalpy of mixing), kJ/mol (Liquid); method: Flow calorimetry
Mole fraction of butan-1-ol	Excess molar enthalpy (molar enthalpy of mixing), kJ/mol	uncertainty
0.0623	0.1602	0.0052
0.1246	0.2218	0.007
0.1877	0.2584	0.0082
0.2503	0.2793	0.0088
0.3122	0.2882	0.0091
0.3747	0.2912	0.0092
0.4373	0.2852	0.009
0.5	0.2724	0.0086
0.5625	0.2573	0.0081
0.6251	0.2335	0.0074
0.6876	0.1956	0.0062
0.7501	0.1476	0.0048
0.8125	0.1007	0.0033
0.875	0.0636	0.0023
0.875	0.0627	0.0023
0.9375	0.0256	0.0022

System: butan-1-ol + trioctylamine; phases: Liquid
Fixed: Temperature, K = 298.15
Fixed: Pressure, kPa = 101
Property: Excess molar volume, m3/mol (Liquid); method: Calculated with densities of this investigation
Mole fraction of butan-1-ol	Excess molar volume, m3/mol	uncertainty
0.0525	-1.26e-07	8e-09
0.1008	-2.25e-07	8e-09
0.1791	-3.44e-07	9e-09
0.2418	-4.13e-07	9e-09
0.3259	-4.73e-07	9e-09
0.3698	-4.93e-07	9e-09
0.4299	-5.05e-07	9e-09
0.4911	-5.07e-07	9e-09
0.5588	-4.98e-07	9e-09
0.6228	-4.77e-07	9e-09
0.6839	-4.45e-07	9e-09
0.75	-3.97e-07	9e-09
0.8121	-3.34e-07	9e-09
0.8738	-2.55e-07	8e-09
0.9366	-1.47e-07	8e-09

System: hexane + trioctylamine; phases: Liquid
Fixed: Temperature, K = 298.15
Fixed: Pressure, kPa = 101
Property: Excess molar enthalpy (molar enthalpy of mixing), kJ/mol (Liquid); method: Flow calorimetry
Mole fraction of trioctylamine	Excess molar enthalpy (molar enthalpy of mixing), kJ/mol	uncertainty
0.0312	-0.0048	0.0021
0.0312	-0.0049	0.0021
0.0312	-0.005	0.0021
0.0625	-0.0088	0.0021
0.0625	-0.0091	0.0021
0.0625	-0.0087	0.0021
0.0625	-0.0088	0.0021
0.0938	-0.0104	0.0021
0.125	-0.0123	0.0022
0.125	-0.0116	0.0022
0.1875	-0.0126	0.0022
0.1875	-0.0129	0.0022
0.25	-0.011	0.0021
0.25	-0.0106	0.0021
0.3125	-0.0089	0.0021
0.375	-0.0075	0.0021
0.4375	-0.0065	0.0021
0.4999	-0.0053	0.0021
0.5625	-0.0041	0.0021
0.6249	-0.0028	0.0021
0.625	-0.0029	0.0021
0.6873	-0.0022	0.0021
0.75	-0.0017	0.0021
0.8124	-0.0009	0.0021
0.8124	-0.0007	0.0021
0.8749	-0.0004	0.0021
0.875	-0.0001	0.0021
0.9374	-0.0002	0.0021

System: hexane + trioctylamine; phases: Liquid
Fixed: Temperature, K = 298.15
Fixed: Pressure, kPa = 101
Property: Excess molar volume, m3/mol (Liquid); method: Calculated with densities of this investigation
Mole fraction of trioctylamine	Excess molar volume, m3/mol	uncertainty
0.0601	-4.25e-07	9e-09
0.1252	-7.08e-07	9e-09
0.1846	-8.67e-07	1e-08
0.2503	-9.5e-07	1e-08
0.3114	-9.82e-07	1e-08
0.3712	-9.75e-07	1e-08
0.4455	-9.4e-07	1e-08
0.4984	-8.76e-07	1e-08
0.5066	-8.72e-07	1e-08
0.5645	-7.95e-07	1e-08
0.6336	-6.96e-07	9e-09
0.6924	-6.05e-07	9e-09
0.758	-4.84e-07	9e-09
0.819	-3.64e-07	9e-09
0.8788	-2.47e-07	8e-09
0.9352	-1.3e-07	8e-09

System: butan-1-ol + hexane; phases: Liquid
Fixed: Temperature, K = 298.15
Fixed: Pressure, kPa = 101
Property: Excess molar enthalpy (molar enthalpy of mixing), kJ/mol (Liquid); method: Flow calorimetry
Mole fraction of butan-1-ol	Excess molar enthalpy (molar enthalpy of mixing), kJ/mol	uncertainty
0.2065	0.5366	0.0167
0.2516	0.5394	0.0168
0.405	0.5546	0.0173
0.5028	0.5031	0.0157
0.6056	0.4397	0.0137
0.7505	0.2754	0.0087
0.8055	0.2181	0.0069

System: butan-1-ol + hexane; phases: Liquid
Fixed: Temperature, K = 298.15
Fixed: Pressure, kPa = 101
Property: Excess molar volume, m3/mol (Liquid); method: Calculated with densities of this investigation
Mole fraction of butan-1-ol	Excess molar volume, m3/mol	uncertainty
0.2007	1.41e-07	8e-09
0.2058	1.4e-07	8e-09
0.4008	8.8e-08	8e-09
0.4069	8.4e-08	8e-09
0.6008	-5e-09	8e-09
0.6124	-1e-08	8e-09
0.7993	-5.1e-08	8e-09
0.8013	-5.3e-08	8e-09

System: butan-1-ol + tributylamine + hexane; phases: Liquid
Fixed: Temperature, K = 298.15
Fixed: Pressure, kPa = 101
Property: Excess molar enthalpy (molar enthalpy of mixing), kJ/mol (Liquid); method: Flow calorimetry
Mole fraction of butan-1-ol	Mole fraction of tributylamine	Excess molar enthalpy (molar enthalpy of mixing), kJ/mol	uncertainty
0.0103	0.9502	0.0268	0.0022
0.0205	0.9006	0.0394	0.0022
0.0205	0.9495	0.0428	0.0022
0.0299	0.9507	0.044	0.0022
0.0309	0.8505	0.0486	0.0023
0.04	0.9504	0.0465	0.0023
0.0404	0.9002	0.0559	0.0023
0.0413	0.8001	0.0583	0.0023
0.0502	0.4776	0.0948	0.0032
0.0515	0.7503	0.0662	0.0023
0.0605	0.9	0.0557	0.0023
0.0606	0.8503	0.0648	0.0023
0.0619	0.7	0.0754	0.0026
0.0723	0.6501	0.0831	0.0028
0.0802	0.9004	0.0519	0.0023
0.081	0.8001	0.0672	0.0023
0.0825	0.6007	0.094	0.0031
0.0907	0.8503	0.0587	0.0023
0.0929	0.5502	0.1028	0.0034
0.1007	0.4522	0.1319	0.0043
0.1011	0.7503	0.072	0.0025
0.1032	0.5001	0.1173	0.0038
0.1135	0.4502	0.1317	0.0043
0.1206	0.8503	0.0454	0.0023
0.121	0.8003	0.0568	0.0023
0.1215	0.7	0.0726	0.0025
0.1237	0.4007	0.1499	0.0048
0.1342	0.35	0.171	0.0055
0.1417	0.6501	0.0769	0.0026
0.1445	0.3002	0.1966	0.0063
0.1503	0.4273	0.1391	0.0045
0.1512	0.7503	0.0521	0.0023
0.1549	0.25	0.2268	0.0072
0.1604	0.8008	0.0331	0.0022
0.1616	0.6009	0.0788	0.0027
0.1651	0.2005	0.2649	0.0084
0.1755	0.1502	0.3109	0.0098
0.1808	0.1245	0.3384	0.0106
0.1816	0.7002	0.0484	0.0023
0.1821	0.5504	0.0864	0.0029
0.1858	0.1	0.3706	0.0116
0.1911	0.0744	0.4021	0.0126
0.1962	0.0499	0.4442	0.0139
0.2003	0.4022	0.1353	0.0044
0.2013	0.75	0.0189	0.0022
0.2024	0.5003	0.0916	0.0031
0.2065	0	0.5366	0.0167
0.2116	0.6506	0.0438	0.0022
0.2224	0.4508	0.1051	0.0035
0.2416	0.7001	0.0022	0.0021
0.242	0.6005	0.0399	0.0022
0.2428	0.4004	0.1164	0.0038
0.2507	0.3768	0.1291	0.0042
0.2632	0.3501	0.1367	0.0044
0.2725	0.5501	0.0372	0.0022
0.2813	0.6507	-0.014	0.0022
0.2833	0.3005	0.1576	0.0051
0.2965	0.2679	0.1783	0.0057
0.3004	0.3518	0.1183	0.0039
0.3024	0.5007	0.0375	0.0022
0.3088	0.2375	0.2011	0.0064
0.3215	0.6008	-0.0287	0.0022
0.3237	0.2007	0.2254	0.0071
0.3327	0.4506	0.0397	0.0022
0.3442	0.15	0.2772	0.0087
0.3505	0.3266	0.1026	0.0034
0.3559	0.1212	0.3111	0.0098
0.3623	0.5502	-0.0431	0.0023
0.3631	0.4004	0.0464	0.0023
0.3644	0.1001	0.3405	0.0107
0.3758	0.0721	0.3977	0.0125
0.3844	0.0508	0.4508	0.0141
0.3934	0.3504	0.0555	0.0023
0.4006	0.3014	0.0859	0.0029
0.4027	0.5	-0.0558	0.0023
0.405	0	0.5546	0.0173
0.4237	0.3003	0.071	0.0025
0.443	0.45	-0.0673	0.0024
0.4507	0.2762	0.0678	0.0024
0.4541	0.2501	0.0914	0.0031
0.4829	0.4005	-0.0747	0.0026
0.484	0.2007	0.1232	0.004
0.5008	0.251	0.0483	0.0023
0.5146	0.1502	0.164	0.0053
0.5229	0.3508	-0.0794	0.0027
0.53	0.1249	0.191	0.0061
0.5445	0.1009	0.2228	0.0071
0.5507	0.2259	0.0317	0.0022
0.5603	0.0747	0.2631	0.0083
0.5638	0.3	-0.0785	0.0027
0.5753	0.05	0.3099	0.0098
0.6002	0.201	0.0089	0.0022
0.604	0.2501	-0.0717	0.0025
0.6056	0	0.4397	0.0137
0.6249	0.2242	-0.0662	0.0024
0.6439	0.2006	-0.0565	0.0024
0.651	0.1755	-0.0093	0.0023
0.6646	0.1748	-0.0458	0.0024
0.6846	0.1501	-0.0313	0.0022
0.7003	0.1507	-0.0316	0.0022
0.7051	0.1246	-0.0103	0.0022
0.7242	0.1009	0.0147	0.0022
0.7453	0.0747	0.0505	0.0023
0.7504	0.1255	-0.0433	0.0023
0.7651	0.0501	0.093	0.0031
0.7882	0.0214	0.1588	0.0051
0.8005	0.1003	-0.0471	0.0023
0.8055	0	0.2181	0.0069
0.8503	0.0753	-0.0487	0.0023
0.9005	0.05	-0.0499	0.0023
0.9506	0.0248	-0.0381	0.0022

System: butan-1-ol + tributylamine + hexane; phases: Liquid
Fixed: Temperature, K = 298.15
Fixed: Pressure, kPa = 101
Property: Excess molar volume, m3/mol (Liquid); method: Calculated with densities of this investigation
Mole fraction of butan-1-ol	Mole fraction of tributylamine	Excess molar volume, m3/mol	uncertainty
0	0.5061	-3.68e-07	9e-09
0.0101	0.9507	-8.7e-08	8e-09
0.0204	0.9009	-1.68e-07	8e-09
0.021	0.9485	-1.11e-07	8e-09
0.0326	0.8417	-2.61e-07	8e-09
0.0331	0.9459	-1.38e-07	8e-09
0.0405	0.9004	-2.21e-07	8e-09
0.0414	0.9482	-1.58e-07	8e-09
0.044	0.7864	-3.3e-07	9e-09
0.0541	0.7371	-3.94e-07	9e-09
0.0548	0.4783	-5.25e-07	9e-09
0.0572	0.9067	-2.51e-07	8e-09
0.064	0.689	-4.49e-07	9e-09
0.066	0.8379	-3.47e-07	9e-09
0.0815	0.6041	-5.26e-07	9e-09
0.0855	0.8931	-3.14e-07	9e-09
0.0894	0.7803	-4.39e-07	9e-09
0.0912	0.8511	-3.67e-07	9e-09
0.0972	0.4569	-6e-07	9e-09
0.1032	0.4984	-5.89e-07	9e-09
0.1097	0.7304	-5.14e-07	9e-09
0.1229	0.7993	-4.64e-07	9e-09
0.1241	0.3967	-6.01e-07	9e-09
0.1281	0.6851	-5.73e-07	9e-09
0.1374	0.8281	-4.56e-07	9e-09
0.1452	0.2942	-5.58e-07	9e-09
0.1488	0.4308	-6.5e-07	9e-09
0.155	0.2469	-5.17e-07	9e-09
0.1596	0.7394	-5.71e-07	9e-09
0.1641	0.2024	-4.63e-07	9e-09
0.1713	0.5789	-6.62e-07	9e-09
0.1749	0.1502	-3.58e-07	9e-09
0.1851	0.1004	-2.33e-07	8e-09
0.186	0.7673	-5.68e-07	9e-09
0.1909	0.6883	-6.34e-07	9e-09
0.1956	0.0495	-7.1e-08	8e-09
0.1973	0.4062	-6.88e-07	9e-09
0.2058	0	1.4e-07	8e-09
0.2094	0.4855	-7.04e-07	9e-09
0.2189	0.7262	-6.33e-07	9e-09
0.246	0.5982	-7.21e-07	9e-09
0.2475	0.3918	-7.15e-07	9e-09
0.2501	0.687	-6.86e-07	9e-09
0.2632	0.3729	-7.22e-07	9e-09
0.2871	0.2945	-6.68e-07	9e-09
0.3073	0.2449	-6.2e-07	9e-09
0.3089	0.4956	-7.73e-07	1e-08
0.324	0.3421	-7.32e-07	9e-09
0.3258	0.1994	-5.67e-07	9e-09
0.3291	0.5882	-7.67e-07	1e-08
0.3488	0.1428	-4.41e-07	9e-09
0.3682	0.0951	-3.24e-07	9e-09
0.3684	0.3984	-7.72e-07	1e-08
0.3876	0.0474	-1.59e-07	8e-09
0.4042	0.4942	-8.05e-07	1e-08
0.4069	0	8.4e-08	8e-09
0.4234	0.2918	-7.3e-07	9e-09
0.4381	0.2846	-7.22e-07	9e-09
0.466	0.239	-6.76e-07	9e-09
0.4846	0.3937	-7.98e-07	1e-08
0.4915	0.1974	-6.1e-07	9e-09
0.5118	0.247	-7.03e-07	9e-09
0.5213	0.1488	-5.2e-07	9e-09
0.5507	0.1007	-4.14e-07	9e-09
0.5644	0.2938	-7.57e-07	1e-08
0.5826	0.0487	-2.22e-07	8e-09
0.603	0.2456	-7.06e-07	9e-09
0.6054	0.1997	-6.49e-07	9e-09
0.6124	0	-1e-08	8e-09
0.6392	0.2003	-6.44e-07	9e-09
0.6816	0.1472	-5.59e-07	9e-09
0.6998	0.1519	-5.63e-07	9e-09
0.7195	0.0998	-4.49e-07	9e-09
0.7504	0.1263	-5.06e-07	9e-09
0.7621	0.0464	-2.51e-07	8e-09
0.795	0.1038	-4.41e-07	9e-09
0.7993	0	-5.1e-08	8e-09
0.8475	0.0772	-3.47e-07	9e-09
0.8951	0.0531	-2.64e-07	8e-09
0.9503	0.0251	-1.29e-07	8e-09

System: butan-1-ol + hexane + trioctylamine; phases: Liquid
Fixed: Temperature, K = 298.15
Fixed: Pressure, kPa = 101
Property: Excess molar enthalpy (molar enthalpy of mixing), kJ/mol (Liquid); method: Flow calorimetry
Mole fraction of butan-1-ol	Mole fraction of trioctylamine	Excess molar enthalpy (molar enthalpy of mixing), kJ/mol	uncertainty
0.0211	0.9163	0.0671	0.0024
0.042	0.833	0.1153	0.0038
0.0421	0.9163	0.1173	0.0039
0.0577	0.9231	0.1701	0.0055
0.0629	0.75	0.157	0.0051
0.0768	0.4615	0.2095	0.0067
0.0838	0.8334	0.1867	0.006
0.0839	0.6666	0.1942	0.0062
0.1048	0.5835	0.2275	0.0072
0.1154	0.8463	0.2381	0.0075
0.1256	0.7502	0.2238	0.0071
0.1258	0.4999	0.2561	0.0081
0.1468	0.4167	0.2822	0.0089
0.1536	0.4231	0.2813	0.0089
0.1675	0.6668	0.2523	0.008
0.1677	0.3333	0.3133	0.0098
0.1734	0.769	0.2803	0.0088
0.1887	0.2501	0.3525	0.011
0.2095	0.5834	0.2738	0.0086
0.2097	0.1666	0.4027	0.0126
0.2306	0.0833	0.4546	0.0142
0.2306	0.3846	0.307	0.0096
0.2307	0.6926	0.2971	0.0093
0.2515	0.4998	0.2911	0.0092
0.2516	0	0.5394	0.0168
0.2886	0.6155	0.2942	0.0093
0.2933	0.4167	0.307	0.0096
0.3076	0.3462	0.3076	0.0097
0.3352	0.3333	0.3227	0.0101
0.3463	0.5386	0.2847	0.009
0.377	0.2501	0.34	0.0107
0.3844	0.3077	0.2944	0.0093
0.4041	0.4616	0.2725	0.0086
0.419	0.1667	0.3621	0.0113
0.4609	0.0833	0.4053	0.0127
0.4616	0.2692	0.2732	0.0086
0.4619	0.3846	0.2708	0.0085
0.5028	0	0.5031	0.0157
0.5195	0.3078	0.2567	0.0081
0.5384	0.2307	0.247	0.0078
0.5774	0.2307	0.2488	0.0079
0.6154	0.1923	0.2181	0.0069
0.6351	0.1538	0.2413	0.0076
0.6922	0.1538	0.1857	0.0059
0.6928	0.0769	0.2395	0.0076
0.7505	0	0.2754	0.0087
0.7694	0.1153	0.1493	0.0048
0.8462	0.0769	0.1062	0.0035
0.923	0.0385	0.0524	0.0023

System: butan-1-ol + hexane + trioctylamine; phases: Liquid
Fixed: Temperature, K = 298.15
Fixed: Pressure, kPa = 101
Property: Excess molar volume, m3/mol (Liquid); method: Calculated with densities of this investigation
Mole fraction of butan-1-ol	Mole fraction of trioctylamine	Excess molar volume, m3/mol	uncertainty
0	0.4984	-8.76e-07	1e-08
0.0123	0.9389	-1.27e-07	8e-09
0.0278	0.9537	-1.06e-07	8e-09
0.028	0.8604	-2.94e-07	8e-09
0.0296	0.9262	-1.57e-07	8e-09
0.0426	0.9468	-1.21e-07	8e-09
0.0443	0.7793	-4.55e-07	9e-09
0.0581	0.7106	-5.82e-07	9e-09
0.0624	0.8442	-3.32e-07	9e-09
0.0736	0.8776	-2.74e-07	8e-09
0.076	0.6214	-7.32e-07	9e-09
0.0832	0.457	-9.59e-07	1e-08
0.0893	0.7772	-4.6e-07	9e-09
0.0911	0.5462	-8.43e-07	1e-08
0.0966	0.8795	-2.65e-07	8e-09
0.1091	0.4562	-9.32e-07	1e-08
0.1093	0.818	-3.83e-07	9e-09
0.1207	0.6988	-5.92e-07	9e-09
0.1234	0.385	-9.74e-07	1e-08
0.1389	0.3078	-9.7e-07	1e-08
0.143	0.8215	-3.6e-07	9e-09
0.1486	0.7527	-4.96e-07	9e-09
0.153	0.6182	-7.16e-07	9e-09
0.155	0.2278	-9.03e-07	1e-08
0.1569	0.4203	-9.56e-07	1e-08
0.1704	0.1508	-7.4e-07	9e-09
0.1812	0.6985	-5.69e-07	9e-09
0.1816	0.5469	-7.99e-07	1e-08
0.1854	0.0761	-4.35e-07	9e-09
0.2007	0	1.41e-07	8e-09
0.2015	0.7486	-4.62e-07	9e-09
0.216	0.4611	-8.65e-07	1e-08
0.2195	0.6346	-6.49e-07	9e-09
0.228	0.3848	-9.29e-07	1e-08
0.2456	0.3873	-8.99e-07	1e-08
0.2543	0.6826	-5.32e-07	9e-09
0.2588	0.5693	-7.18e-07	9e-09
0.2764	0.3105	-8.84e-07	1e-08
0.2973	0.629	-5.81e-07	9e-09
0.2991	0.5021	-7.54e-07	1e-08
0.3042	0.3468	-8.76e-07	1e-08
0.3069	0.2342	-8.26e-07	1e-08
0.338	0.4374	-7.77e-07	1e-08
0.3387	0.1549	-6.82e-07	9e-09
0.3479	0.5658	-6.12e-07	9e-09
0.37	0.0769	-4.19e-07	9e-09
0.3763	0.3737	-7.87e-07	1e-08
0.3815	0.3083	-8.07e-07	1e-08
0.4008	0	8.8e-08	8e-09
0.4008	0.4999	-6.38e-07	9e-09
0.4132	0.3122	-7.74e-07	1e-08
0.448	0.4409	-6.46e-07	9e-09
0.4522	0.2472	-7.28e-07	9e-09
0.4526	0.2729	-7.36e-07	9e-09
0.4889	0.1863	-6.64e-07	9e-09
0.5	0.376	-6.47e-07	9e-09
0.5238	0.1281	-5.46e-07	9e-09
0.535	0.2318	-6.46e-07	9e-09
0.5485	0.3155	-6.18e-07	9e-09
0.5618	0.0649	-3.61e-07	9e-09
0.5996	0.2517	-5.8e-07	9e-09
0.6008	0	-5e-09	8e-09
0.611	0.1939	-5.6e-07	9e-09
0.6507	0.1879	-5.17e-07	9e-09
0.688	0.1555	-4.64e-07	9e-09
0.7006	0.1257	-4.25e-07	9e-09
0.7518	0.0618	-2.83e-07	8e-09
0.7519	0.0616	-2.85e-07	8e-09
0.7758	0.1118	-3.47e-07	9e-09
0.8013	0	-5.3e-08	8e-09
0.8432	0.0781	-2.52e-07	8e-09
0.9269	0.0365	-1.19e-07	8e-09
