Measured thermophysical data. Thermochemical studies on two alkyl-bulky substituted xanthene derivatives: 9,9-dimethylxanthene and 2,7-di-tert-butyl-9,9-dimethylxanthene
Source: J. Chem. Thermodyn., 2017, 10.1016/j.jct.2016.11.020
Compound 1: carbon dioxide, CO2, InChI=1S/CO2/c2-1-3
Compound 2: water, H2O, InChI=1S/H2O/h1H2
Compound 3: oxygen, O2, InChI=1S/O2/c1-2
Compound 4: 9,9-dimethylxanthene, C15H14O, InChI=1S/C15H14O/c1-15(2)11-7-3-5-9-13(11)16-14-10-6-4-8-12(14)15/h3-10H,1-2H3, purity 99.8%
Compound 5: 2,7-di-tert-butyl-9,9-dimethylxanthene, C23H30O, InChI=1S/C23H30O/c1-21(2,3)15-9-11-19-17(13-15)23(7,8)18-14-16(22(4,5)6)10-12-20(18)24-19/h9-14H,1-8H3, purity 96.9%

System: 9,9-dimethylxanthene; phases: Crystal, Liquid, Air at 1 atmosphere
Property: Normal melting temperature, K (Crystal); method: DTA
Normal melting temperature, K	uncertainty
316.2	0.7

System: 9,9-dimethylxanthene; phases: Crystal, Gas
Property: Molar enthalpy of vaporization or sublimation, kJ/mol (Crystal); method: Static calorimetry
Temperature, K	Molar enthalpy of vaporization or sublimation, kJ/mol	uncertainty
298.15	90	2.4

System: 9,9-dimethylxanthene; phases: Gas, Crystal
Property: Molar enthalpy, kJ/mol (Gas); method: Drop calorimetry
Temperature, K	Molar enthalpy, kJ/mol	uncertainty
338.44	100.2	2.6

System: 2,7-di-tert-butyl-9,9-dimethylxanthene; phases: Crystal, Liquid, Air at 1 atmosphere
Property: Normal melting temperature, K (Crystal); method: DTA
Normal melting temperature, K	uncertainty
466.8	0.8

System: 2,7-di-tert-butyl-9,9-dimethylxanthene; phases: Crystal, Gas
Property: Molar enthalpy of vaporization or sublimation, kJ/mol (Crystal); method: Static calorimetry
Temperature, K	Molar enthalpy of vaporization or sublimation, kJ/mol	uncertainty
298.15	120.3	3

System: 2,7-di-tert-butyl-9,9-dimethylxanthene; phases: Crystal, Gas
Property: Vapor or sublimation pressure, kPa (Crystal); method: Calculated from knudsen effusion weight loss
Temperature, K	Vapor or sublimation pressure, kPa	uncertainty
364.13	0.000111	6e-05
366.17	0.000149	6e-05
368.15	0.00017	6e-05
370.13	0.000213	6e-05
372.16	0.000282	6.1e-05
374.15	0.000321	6.1e-05
376.12	0.0004	6.2e-05
378.14	0.000525	6.3e-05
380.15	0.000594	6.4e-05
382.13	0.000737	6.5e-05
384.14	0.00096	6.9e-05
386.15	0.001082	9.8e-05

System: 2,7-di-tert-butyl-9,9-dimethylxanthene; phases: Gas, Crystal
Property: Molar enthalpy, kJ/mol (Gas); method: Drop calorimetry
Temperature, K	Molar enthalpy, kJ/mol	uncertainty
446.93	197.9	4.6

Reaction: -1 9,9-dimethylxanthene + 15 carbon dioxide + 7 water + -18 oxygen
Property: Specific internal energy of reaction at constant volume, J/g
-37059.3

Reaction: -1 2,7-di-tert-butyl-9,9-dimethylxanthene + 23 carbon dioxide + 15 water + -30 oxygen
Property: Specific internal energy of reaction at constant volume, J/g
-40221.91
