Measured thermophysical data. Henry's constants and infinite dilution activity coefficients of propane, propene, butane, isobutane, 1-butene, isobutene, trans-2-butene, and 1,3-butadiene in isobutanol and tert-butanol
Source: J. Chem. Thermodyn., 2004, 10.1016/j.jct.2004.05.010
Compound 1: 2-methyl-1-propanol, C4H10O, InChI=1S/C4H10O/c1-4(2)3-5/h4-5H,3H2,1-2H3
Compound 2: 2-methylpropan-2-ol, C4H10O, InChI=1S/C4H10O/c1-4(2,3)5/h5H,1-3H3
Compound 3: propane, C3H8, InChI=1S/C3H8/c1-3-2/h3H2,1-2H3, purity 99.5%
Compound 4: propene, C3H6, InChI=1S/C3H6/c1-3-2/h3H,1H2,2H3, purity 99.5%
Compound 5: butane, C4H10, InChI=1S/C4H10/c1-3-4-2/h3-4H2,1-2H3, purity 99.8%
Compound 6: 2-methylpropane, C4H10, InChI=1S/C4H10/c1-4(2)3/h4H,1-3H3, purity 99%
Compound 7: 1-butene, C4H8, InChI=1S/C4H8/c1-3-4-2/h3H,1,4H2,2H3, purity 99%
Compound 8: 2-methylpropene, C4H8, InChI=1S/C4H8/c1-4(2)3/h1H2,2-3H3, purity 99%
Compound 9: (E)-2-butene, C4H8, InChI=1S/C4H8/c1-3-4-2/h3-4H,1-2H3/b4-3+, purity 99%
Compound 10: 1,3-butadiene, C4H6, InChI=1S/C4H6/c1-3-4-2/h3-4H,1-2H2, purity 99%

System: propane + 2-methyl-1-propanol; phases: Liquid, Gas
Fixed: Mole fraction of propane = 0
Property: Activity coefficient of propane (Liquid); method: Chromatography
Temperature, K	Activity coefficient of propane	uncertainty
249.94	3.55	0.16
270.01	3.55	0.16
290	3.55	0.16
310	3.49	0.15
330	3.42	0.15

System: propane + 2-methyl-1-propanol; phases: Liquid, Gas
Fixed: Mole fraction of propane = 0
Property: Henry's Law constant (mole fraction scale), kPa of propane (Liquid); method: Chromatography
Temperature, K	Henry's Law constant (mole fraction scale), kPa of propane	uncertainty
249.94	726	15
270.01	1390	28
290	2370	48
310	3640	74
330	5170	105

System: 2-methyl-1-propanol + propene; phases: Liquid, Gas
Fixed: Mole fraction of propene = 0
Property: Activity coefficient of propene (Liquid); method: Chromatography
Temperature, K	Activity coefficient of propene	uncertainty
249.94	3.07	0.14
270.01	3.09	0.14
290	3.09	0.14
310	3.03	0.13
330	2.92	0.13

System: 2-methyl-1-propanol + propene; phases: Liquid, Gas
Fixed: Mole fraction of propene = 0
Property: Henry's Law constant (mole fraction scale), kPa of propene (Liquid); method: Chromatography
Temperature, K	Henry's Law constant (mole fraction scale), kPa of propene	uncertainty
249.94	778	16
270.01	1464	30
290	2450	50
310	3700	75
330	5120	104

System: 2-methyl-1-propanol + butane; phases: Liquid, Gas
Fixed: Mole fraction of butane = 0
Property: Activity coefficient of butane (Liquid); method: Chromatography
Temperature, K	Activity coefficient of butane	uncertainty
249.99	4.03	0.18
270.05	4	0.18
290	3.97	0.17
310	3.9	0.17
330	3.76	0.17

System: 2-methyl-1-propanol + butane; phases: Liquid, Gas
Fixed: Mole fraction of butane = 0
Property: Henry's Law constant (mole fraction scale), kPa of butane (Liquid); method: Chromatography
Temperature, K	Henry's Law constant (mole fraction scale), kPa of butane	uncertainty
249.99	155	3
270.05	354	7
290	701	14
310	1230	25
330	1940	39

System: 2-methylpropane + 2-methyl-1-propanol; phases: Liquid, Gas
Fixed: Mole fraction of 2-methylpropane = 0
Property: Activity coefficient of 2-methylpropane (Liquid); method: Chromatography
Temperature, K	Activity coefficient of 2-methylpropane	uncertainty
249.99	4.18	0.18
270.05	4.18	0.18
290	4.15	0.18
310	4.08	0.18
330	3.9	0.17

System: 2-methylpropane + 2-methyl-1-propanol; phases: Liquid, Gas
Fixed: Mole fraction of 2-methylpropane = 0
Property: Henry's Law constant (mole fraction scale), kPa of 2-methylpropane (Liquid); method: Chromatography
Temperature, K	Henry's Law constant (mole fraction scale), kPa of 2-methylpropane	uncertainty
249.99	256	5
270.05	554	11
290	1040	21
310	1750	36
330	2640	54

System: 2-methyl-1-propanol + 1-butene; phases: Liquid, Gas
Fixed: Mole fraction of 1-butene = 0
Property: Activity coefficient of 1-butene (Liquid); method: Chromatography
Temperature, K	Activity coefficient of 1-butene	uncertainty
249.94	3.58	0.16
270.01	3.52	0.15
290	3.45	0.15
310	3.37	0.15
330	3.23	0.14

System: 2-methyl-1-propanol + 1-butene; phases: Liquid, Gas
Fixed: Mole fraction of 1-butene = 0
Property: Henry's Law constant (mole fraction scale), kPa of 1-butene (Liquid); method: Chromatography
Temperature, K	Henry's Law constant (mole fraction scale), kPa of 1-butene	uncertainty
249.94	174	4
270.01	386	8
290	742	15
310	1270	26
330	1970	40

System: 2-methyl-1-propanol + 2-methylpropene; phases: Liquid, Gas
Fixed: Mole fraction of 2-methylpropene = 0
Property: Activity coefficient of 2-methylpropene (Liquid); method: Chromatography
Temperature, K	Activity coefficient of 2-methylpropene	uncertainty
249.99	3.48	0.15
270.05	3.48	0.15
290	3.39	0.15
310	3.26	0.14
330	3.14	0.14

System: 2-methyl-1-propanol + 2-methylpropene; phases: Liquid, Gas
Fixed: Mole fraction of 2-methylpropene = 0
Property: Henry's Law constant (mole fraction scale), kPa of 2-methylpropene (Liquid); method: Chromatography
Temperature, K	Henry's Law constant (mole fraction scale), kPa of 2-methylpropene	uncertainty
249.99	172	4
270.05	387	8
290	740	15
310	1250	25
330	1950	40

System: 2-methyl-1-propanol + (E)-2-butene; phases: Liquid, Gas
Fixed: Mole fraction of (E)-2-butene = 0
Property: Activity coefficient of (E)-2-butene (Liquid); method: Chromatography
Temperature, K	Activity coefficient of (E)-2-butene	uncertainty
249.94	3.61	0.16
270.01	3.51	0.15
290	3.48	0.15
310	3.39	0.15
330	3.27	0.14

System: 2-methyl-1-propanol + (E)-2-butene; phases: Liquid, Gas
Fixed: Mole fraction of (E)-2-butene = 0
Property: Henry's Law constant (mole fraction scale), kPa of (E)-2-butene (Liquid); method: Chromatography
Temperature, K	Henry's Law constant (mole fraction scale), kPa of (E)-2-butene	uncertainty
249.94	130	3
270.01	295	6
290	587	12
310	1030	21
330	1640	33

System: 2-methyl-1-propanol + 1,3-butadiene; phases: Liquid, Gas
Fixed: Mole fraction of 1,3-butadiene = 0
Property: Activity coefficient of 1,3-butadiene (Liquid); method: Chromatography
Temperature, K	Activity coefficient of 1,3-butadiene	uncertainty
249.99	3.27	0.14
270.05	3.27	0.14
290	3.18	0.14
310	3.02	0.13
330	2.91	0.13

System: 2-methyl-1-propanol + 1,3-butadiene; phases: Liquid, Gas
Fixed: Mole fraction of 1,3-butadiene = 0
Property: Henry's Law constant (mole fraction scale), kPa of 1,3-butadiene (Liquid); method: Chromatography
Temperature, K	Henry's Law constant (mole fraction scale), kPa of 1,3-butadiene	uncertainty
249.99	148	3
270.05	337	7
290	649	13
310	1100	22
330	1720	35

System: propane + 2-methylpropan-2-ol; phases: Liquid, Gas
Fixed: Mole fraction of propane = 0
Property: Activity coefficient of propane (Liquid); method: Chromatography
Temperature, K	Activity coefficient of propane	uncertainty
300.03	3.11	0.14
310	3.03	0.13
320	2.93	0.13
330	2.84	0.12

System: propane + 2-methylpropan-2-ol; phases: Liquid, Gas
Fixed: Mole fraction of propane = 0
Property: Henry's Law constant (mole fraction scale), kPa of propane (Liquid); method: Chromatography
Temperature, K	Henry's Law constant (mole fraction scale), kPa of propane	uncertainty
300.03	2620	53
310	3150	64
320	3710	75
330	4290	87

System: 2-methylpropan-2-ol + propene; phases: Liquid, Gas
Fixed: Mole fraction of propene = 0
Property: Activity coefficient of propene (Liquid); method: Chromatography
Temperature, K	Activity coefficient of propene	uncertainty
300.03	2.77	0.12
310	2.67	0.12
320	2.56	0.11
330	2.48	0.11

System: 2-methylpropan-2-ol + propene; phases: Liquid, Gas
Fixed: Mole fraction of propene = 0
Property: Henry's Law constant (mole fraction scale), kPa of propene (Liquid); method: Chromatography
Temperature, K	Henry's Law constant (mole fraction scale), kPa of propene	uncertainty
300.03	2750	56
310	3260	66
320	3780	77
330	4350	88

System: 2-methylpropan-2-ol + butane; phases: Liquid, Gas
Fixed: Mole fraction of butane = 0
Property: Activity coefficient of butane (Liquid); method: Chromatography
Temperature, K	Activity coefficient of butane	uncertainty
300	3.49	0.15
310	3.33	0.15
320	3.25	0.14
330	3.11	0.14

System: 2-methylpropan-2-ol + butane; phases: Liquid, Gas
Fixed: Mole fraction of butane = 0
Property: Henry's Law constant (mole fraction scale), kPa of butane (Liquid); method: Chromatography
Temperature, K	Henry's Law constant (mole fraction scale), kPa of butane	uncertainty
300	833	17
310	1050	21
320	1330	27
330	1610	33

System: 2-methylpropane + 2-methylpropan-2-ol; phases: Liquid, Gas
Fixed: Mole fraction of 2-methylpropane = 0
Property: Activity coefficient of 2-methylpropane (Liquid); method: Chromatography
Temperature, K	Activity coefficient of 2-methylpropane	uncertainty
300	3.6	0.16
310	3.44	0.15
320	3.35	0.15
330	3.24	0.14

System: 2-methylpropane + 2-methylpropan-2-ol; phases: Liquid, Gas
Fixed: Mole fraction of 2-methylpropane = 0
Property: Henry's Law constant (mole fraction scale), kPa of 2-methylpropane (Liquid); method: Chromatography
Temperature, K	Henry's Law constant (mole fraction scale), kPa of 2-methylpropane	uncertainty
300	1190	24
310	1480	30
320	1820	37
330	2190	44

System: 2-methylpropan-2-ol + 1-butene; phases: Liquid, Gas
Fixed: Mole fraction of 1-butene = 0
Property: Activity coefficient of 1-butene (Liquid); method: Chromatography
Temperature, K	Activity coefficient of 1-butene	uncertainty
300.03	3.09	0.14
310	2.98	0.13
320	2.82	0.12
330	2.66	0.12

System: 2-methylpropan-2-ol + 1-butene; phases: Liquid, Gas
Fixed: Mole fraction of 1-butene = 0
Property: Henry's Law constant (mole fraction scale), kPa of 1-butene (Liquid); method: Chromatography
Temperature, K	Henry's Law constant (mole fraction scale), kPa of 1-butene	uncertainty
300.03	892	18
310	1130	23
320	1370	28
330	1620	33

System: 2-methylpropan-2-ol + 2-methylpropene; phases: Liquid, Gas
Fixed: Mole fraction of 2-methylpropene = 0
Property: Activity coefficient of 2-methylpropene (Liquid); method: Chromatography
Temperature, K	Activity coefficient of 2-methylpropene	uncertainty
300	3.06	0.13
310	2.92	0.13
320	2.77	0.12
330	2.63	0.12

System: 2-methylpropan-2-ol + 2-methylpropene; phases: Liquid, Gas
Fixed: Mole fraction of 2-methylpropene = 0
Property: Henry's Law constant (mole fraction scale), kPa of 2-methylpropene (Liquid); method: Chromatography
Temperature, K	Henry's Law constant (mole fraction scale), kPa of 2-methylpropene	uncertainty
300	894	18
310	1120	23
320	1370	28
330	1630	33

System: 2-methylpropan-2-ol + (E)-2-butene; phases: Liquid, Gas
Fixed: Mole fraction of (E)-2-butene = 0
Property: Activity coefficient of (E)-2-butene (Liquid); method: Chromatography
Temperature, K	Activity coefficient of (E)-2-butene	uncertainty
300.03	3.12	0.14
310	3.01	0.13
320	2.87	0.13
330	2.75	0.12

System: 2-methylpropan-2-ol + (E)-2-butene; phases: Liquid, Gas
Fixed: Mole fraction of (E)-2-butene = 0
Property: Henry's Law constant (mole fraction scale), kPa of (E)-2-butene (Liquid); method: Chromatography
Temperature, K	Henry's Law constant (mole fraction scale), kPa of (E)-2-butene	uncertainty
300.03	717	15
310	915	19
320	1130	23
330	1380	28

System: 2-methylpropan-2-ol + 1,3-butadiene; phases: Liquid, Gas
Fixed: Mole fraction of 1,3-butadiene = 0
Property: Activity coefficient of 1,3-butadiene (Liquid); method: Chromatography
Temperature, K	Activity coefficient of 1,3-butadiene	uncertainty
300	2.98	0.13
310	2.81	0.12
320	2.65	0.12
330	2.48	0.11

System: 2-methylpropan-2-ol + 1,3-butadiene; phases: Liquid, Gas
Fixed: Mole fraction of 1,3-butadiene = 0
Property: Henry's Law constant (mole fraction scale), kPa of 1,3-butadiene (Liquid); method: Chromatography
Temperature, K	Henry's Law constant (mole fraction scale), kPa of 1,3-butadiene	uncertainty
300	822	17
310	1020	21
320	1240	25
330	1470	30
