Measured thermophysical data. P.rho.T and saturation properties of isopentane at T = (280-440) K and up to 200 MPa
Source: J. Chem. Thermodyn., 2016, 10.1016/j.jct.2016.05.019
Compound 1: 2-methylbutane, C5H12, InChI=1S/C5H12/c1-4-5(2)3/h5H,4H2,1-3H3, purity 99.8%

System: 2-methylbutane; phases: Liquid
Property: Mass density, kg/m3 (Liquid); method: Bellows volumetry
Temperature, K	Pressure, kPa	Mass density, kg/m3	uncertainty
280	200000	744.07	1.04
280	180000	737.33	1.03
280	160000	729.89	1.02
280	140000	722.2	1.01
280	120000	713.77	1
280	100000	704.35	0.77
280	90000	699.3	0.77
280	80000	694.03	0.76
280	70000	688.43	0.76
280	60000	682.44	0.75
280	50000	675.94	0.74
280	40000	669.03	0.74
280	30000	661.46	0.73
280	20000	653.11	0.72
280	10000	643.42	0.71
280	5000	638.02	0.7
280	3000	635.86	0.7
280	2000	634.7	0.7
280	1000	633.54	0.7
300	200000	734.71	0.81
300	180000	727.5	0.8
300	160000	719.81	0.79
300	140000	711.75	0.78
300	120000	702.76	0.77
300	100000	692.98	0.76
300	90000	687.64	0.76
300	80000	682.03	0.75
300	70000	675.91	0.74
300	60000	669.45	0.74
300	50000	662.36	0.73
300	40000	654.71	0.72
300	30000	646.19	0.71
300	20000	636.61	0.7
300	10000	625.53	0.69
300	5000	619.26	0.68
300	3000	616.54	0.68
300	2000	615.18	0.68
300	1000	613.77	0.68
320	200000	725.65	0.8
320	180000	718.37	0.79
320	160000	710.26	0.78
320	140000	701.5	0.77
320	120000	691.83	0.76
320	100000	681.48	0.75
320	90000	675.83	0.74
320	80000	669.62	0.74
320	70000	662.98	0.73
320	60000	656.03	0.72
320	50000	648.39	0.71
320	40000	639.89	0.7
320	30000	630.46	0.69
320	20000	619.58	0.68
320	10000	606.77	0.67
320	5000	599.33	0.66
320	3000	596.07	0.66
320	2000	594.35	0.65
320	1000	592.72	0.65
340	200000	716.61	0.79
340	180000	708.89	0.78
340	160000	700.49	0.77
340	140000	691.52	0.76
340	120000	681.53	0.75
340	100000	670.52	0.74
340	90000	664.53	0.73
340	80000	658.05	0.72
340	70000	651.03	0.72
340	60000	643.45	0.71
340	50000	635.12	0.7
340	40000	625.82	0.69
340	30000	615.28	0.68
340	20000	602.92	0.66
340	10000	587.99	0.65
340	5000	578.97	0.64
340	3000	574.98	0.63
340	2000	572.85	0.63
340	1000	570.66	0.63
360	200000	708.18	0.78
360	180000	699.47	0.77
360	160000	691.16	0.76
360	140000	681.34	0.75
360	120000	671.11	0.74
360	100000	659.45	0.73
360	90000	652.93	0.72
360	80000	645.89	0.71
360	70000	638.43	0.7
360	60000	630.27	0.69
360	50000	621.15	0.68
360	40000	610.91	0.67
360	30000	599.16	0.66
360	20000	585.18	0.64
360	10000	567.71	0.62
360	5000	556.57	0.61
360	3000	551.5	0.61
360	2000	548.79	0.6
360	1000	545.89	0.6
380	200000	699.6	0.77
380	180000	691.12	0.76
380	160000	682.07	0.75
380	140000	672.14	0.74
380	120000	661.13	0.73
380	100000	648.74	0.71
380	90000	641.88	0.71
380	80000	634.41	0.7
380	70000	626.4	0.69
380	60000	617.61	0.68
380	50000	607.73	0.67
380	40000	596.53	0.66
380	30000	583.41	0.64
380	20000	567.43	0.62
380	10000	546.59	0.6
380	5000	532.71	0.59
380	3000	526.02	0.58
380	2000	522.38	0.57
380	1000	518.39	0.57
400	200000	691.58	0.76
400	180000	682.87	0.75
400	160000	673.54	0.74
400	140000	662.94	0.73
400	120000	651.4	0.72
400	100000	638.47	0.7
400	90000	631.33	0.69
400	80000	623.43	0.69
400	70000	614.87	0.68
400	60000	605.35	0.67
400	50000	594.58	0.65
400	40000	582.37	0.64
400	30000	567.78	0.62
400	20000	549.47	0.6
400	10000	524.35	0.58
400	5000	506.33	0.56
400	3000	497.03	0.55
400	2000	491.59	0.54
420	200000	683.74	0.75
420	180000	674.63	0.74
420	160000	664.82	0.73
420	140000	653.97	0.72
420	120000	641.97	0.71
420	100000	628.24	0.69
420	90000	620.5	0.68
420	80000	612.1	0.67
420	70000	602.84	0.66
420	60000	592.84	0.65
420	50000	581.15	0.64
420	40000	567.85	0.62
420	30000	551.51	0.61
420	20000	530.77	0.58
420	10000	500.48	0.55
420	5000	476.16	0.52
420	3000	461.88	0.51
420	2000	452.61	0.5
440	200000	676.01	1.49
440	180000	666.6	1.47
440	160000	656.44	1.44
440	140000	645.06	1.42
440	120000	632.51	1.39
440	100000	618.08	0.68
440	90000	610.1	0.67
440	80000	601.22	0.66
440	70000	591.44	0.65
440	60000	580.59	0.64
440	50000	568.08	0.62
440	40000	553.42	0.61
440	30000	535.46	0.59
440	20000	511.64	0.56
440	10000	474.4	0.52
440	5000	439.7	0.48
440	3000	412.99	0.45
298.144	177400	727.57	0.8
298.144	101400	694.83	0.76
298.144	40600	656.53	0.72
298.144	10200	627.35	0.69
323.127	196130	722.79	0.8
323.127	147100	703.2	0.77
323.127	98070	678.79	0.75
323.127	49030	645.8	0.71
368.123	196130	703.04	0.77
368.123	147100	681.34	0.75
368.123	98070	653.72	0.72
320	2000	595.25	0.65
320	1000	593.5	0.65
320	502	592.61	0.65
320	315	592.25	0.65
320	210	592.07	0.65
320	199	592.04	0.65
340	1000	571.14	0.63
340	513	570.01	0.63
340	420	569.78	0.63
340	338	569.61	0.63
360	1000	545.87	0.6
360	702	545.09	0.6
360	609	544.84	0.6
360	608	544.68	0.6
360	550	544.65	0.6
380	1001	519.03	0.57
380	962	518.87	0.57
380	857	518.44	0.57
380	846	518.39	0.57
400	2000	492.12	0.54
400	1611	489.83	0.54
400	1506	489.2	0.54
400	1309	487.97	0.54
400	1250	487.6	0.54
410	2000	474.02	0.52
410	1623	471.11	0.52
410	1519	470.27	0.52
420	2000	452.93	0.5
420	1904	451.92	0.5
420	1800	450.78	0.5
420	1789	450.66	0.5

System: 2-methylbutane; phases: Liquid, Gas
Property: Mass density, kg/m3 (Liquid); method: Bellows volumetry
Temperature, K	Mass density, kg/m3	uncertainty
340	569.21	0.63
360	544.8	0.6
380	518.31	0.57
400	487.34	0.54
410	469.93	0.52
420	450.21	0.5

System: 2-methylbutane; phases: Liquid, Gas
Property: Vapor or sublimation pressure, kPa (Liquid); method: ISOPVT
Temperature, K	Vapor or sublimation pressure, kPa	uncertainty
340	328	3
360	538	3
380	835	3
400	1238	3
410	1487	3
420	1772	3
