Measured thermophysical data. Permittivity and density of binary systems of {dimethyl or diethyl carbonate} + n-dodecane from T=(288.15 to 328.15) K
Source: J. Chem. Thermodyn., 2004, 10.1016/j.jct.2003.11.007
Compound 1: dimethyl carbonate, C3H6O3, InChI=1S/C3H6O3/c1-5-3(4)6-2/h1-2H3
Compound 2: diethyl carbonate, C5H10O3, InChI=1S/C5H10O3/c1-3-7-5(6)8-4-2/h3-4H2,1-2H3
Compound 3: dodecane, C12H26, InChI=1S/C12H26/c1-3-5-7-9-11-12-10-8-6-4-2/h3-12H2,1-2H3

System: dimethyl carbonate; phases: Liquid
Fixed: Pressure, kPa = 101.325
Property: Mass density, kg/m3 (Liquid); method: VIBTUB:UFactor:8
Temperature, K	Mass density, kg/m3	uncertainty
288.15	1076.43	0.87
293.15	1069.95	0.86
298.15	1063.26	0.83
303.15	1056.61	0.81
308.15	1050.01	0.79
318.15	1036.65	0.75
328.15	1022.92	0.72

System: diethyl carbonate; phases: Liquid
Fixed: Pressure, kPa = 101.325
Property: Mass density, kg/m3 (Liquid); method: VIBTUB:UFactor:16
Temperature, K	Mass density, kg/m3	uncertainty
288.15	980.29	0.87
293.15	974.57	0.91
298.15	969.07	0.95
303.15	963.6	1
308.15	957.98	1.04
318.15	947.67	1.12
328.15	935.12	1.23

System: dodecane; phases: Liquid
Fixed: Pressure, kPa = 101.325
Property: Mass density, kg/m3 (Liquid); method: VIBTUB:UFactor:4
Temperature, K	Mass density, kg/m3	uncertainty
288.15	752.44	0.78
293.15	748.8	0.79
298.15	745.19	0.79
303.15	741.57	0.8
308.15	737.93	0.81
318.15	730.7	0.82
328.15	723.32	0.83

System: dodecane + dimethyl carbonate; phases: Liquid
Fixed: Pressure, kPa = 101.3
Property: Mass density, kg/m3 (Liquid); method: VIBTUB:UFactor:4
Temperature, K	Mole fraction of dimethyl carbonate	Mass density, kg/m3	uncertainty
288.15	0.1	763.29	0.76
288.15	0.1984	775.97	0.75
288.15	0.2519	783.82	0.74
288.15	0.2998	791.48	0.73
288.15	0.3943	808.72	0.71
288.15	0.9498	1031.65	0.61
293.15	0.0994	759.42	0.77
293.15	0.2008	772.33	0.75
293.15	0.2474	779.08	0.74
293.15	0.2967	786.85	0.73
293.15	0.3962	804.76	0.71
293.15	0.9006	989.35	0.58
293.15	0.9507	1026.33	0.61
298.15	0.1015	755.81	0.77
298.15	0.1968	767.75	0.76
298.15	0.2518	775.63	0.75
298.15	0.3057	784.12	0.74
298.15	0.4019	801.57	0.72
298.15	0.4976	822.41	0.72
298.15	0.5975	849.03	0.71
298.15	0.7026	884.3	0.7
298.15	0.7991	925.9	0.71
298.15	0.9011	984.3	0.59
298.15	0.9512	1020.8	0.61
303.15	0.0995	751.67	0.78
303.15	0.195	763.42	0.76
303.15	0.2498	771.18	0.75
303.15	0.3315	784.26	0.74
303.15	0.3999	796.8	0.72
303.15	0.4997	818.35	0.7
303.15	0.6015	845.3	0.68
303.15	0.6974	876.92	0.65
303.15	0.798	919.35	0.62
303.15	0.8988	976.31	0.59
303.15	0.9497	1012.95	0.61
308.15	0.0998	747.85	0.78
308.15	0.1992	759.93	0.77
308.15	0.2486	766.84	0.76
308.15	0.2938	773.75	0.75
308.15	0.4017	792.74	0.73
308.15	0.5014	814.12	0.71
308.15	0.5995	839.81	0.69
308.15	0.6978	871.92	0.66
308.15	0.7983	914.04	0.63
308.15	0.9004	971.25	0.6
308.15	0.9494	1006.38	0.6
318.15	0.1003	740.31	0.79
318.15	0.2044	752.75	0.78
318.15	0.251	759.14	0.77
318.15	0.3042	767.18	0.76
318.15	0.401	783.99	0.74
318.15	0.4988	804.44	0.72
318.15	0.6028	831.06	0.69
318.15	0.6973	861.26	0.66
318.15	0.8023	904.51	0.63
318.15	0.8976	956.98	0.6
318.15	0.9497	993.69	0.59
328.15	0.0924	731.92	0.81
328.15	0.2	744.23	0.79
328.15	0.25	750.88	0.78
328.15	0.3	758.18	0.77
328.15	0.4007	775.11	0.75
328.15	0.5003	795.39	0.73
328.15	0.6158	824.8	0.69
328.15	0.7057	853.75	0.66
328.15	0.7855	885.61	0.62
328.15	0.8981	945.23	0.58
328.15	0.9483	979.79	0.59

System: diethyl carbonate + dodecane; phases: Liquid
Fixed: Pressure, kPa = 101.3
Property: Mass density, kg/m3 (Liquid); method: VIBTUB:UFactor:4
Temperature, K	Mole fraction of diethyl carbonate	Mass density, kg/m3	uncertainty
288.15	0.1242	766.85	0.74
288.15	0.2013	776.91	0.73
288.15	0.2481	783.48	0.71
288.15	0.309	792.61	0.7
288.15	0.4053	808.61	0.67
288.15	0.5069	827.83	0.64
288.15	0.603	848.75	0.61
288.15	0.7026	873.85	0.57
288.15	0.8014	903.1	0.53
288.15	0.8997	937.64	0.47
288.15	0.9501	958.03	0.42
293.15	0.1018	760.24	0.76
293.15	0.2018	772.97	0.73
293.15	0.2513	779.88	0.72
293.15	0.3056	787.96	0.7
293.15	0.4094	805.05	0.67
293.15	0.5064	823.29	0.64
293.15	0.604	844.35	0.6
293.15	0.7024	868.92	0.55
293.15	0.8026	898.28	0.5
293.15	0.9022	933.11	0.45
293.15	0.9498	952.23	0.42
298.15	0.1025	756.57	0.76
298.15	0.2042	769.39	0.73
298.15	0.2522	776.01	0.72
298.15	0.3009	783.17	0.71
298.15	0.4041	799.89	0.67
298.15	0.5027	818.2	0.64
298.15	0.6059	840.28	0.6
298.15	0.7074	865.61	0.55
298.15	0.799	892.28	0.51
298.15	0.8994	926.96	0.45
298.15	0.9513	947.6	0.42
303.15	0.1013	752.68	0.77
303.15	0.2027	765.3	0.74
303.15	0.2521	772.06	0.73
303.15	0.3003	779.07	0.71
303.15	0.4041	795.74	0.68
303.15	0.4993	813.2	0.65
303.15	0.605	835.58	0.61
303.15	0.7035	859.82	0.56
303.15	0.7993	887.45	0.52
303.15	0.8999	921.93	0.46
303.15	0.9508	942.05	0.43
308.15	0.1049	749.28	0.77
308.15	0.2059	761.76	0.74
308.15	0.2441	766.93	0.73
308.15	0.3043	775.59	0.72
308.15	0.4026	791.26	0.69
308.15	0.5062	810.2	0.65
308.15	0.6032	830.59	0.62
308.15	0.7045	855.29	0.57
308.15	0.8015	883.09	0.52
308.15	0.9005	916.79	0.46
308.15	0.9507	936.48	0.43
318.15	0.1041	741.75	0.78
318.15	0.1989	753.22	0.76
318.15	0.2492	759.89	0.75
318.15	0.3079	768.25	0.73
318.15	0.4075	783.98	0.7
318.15	0.5	800.6	0.67
318.15	0.6026	821.73	0.63
318.15	0.7001	845.05	0.59
318.15	0.7995	872.99	0.54
318.15	0.8973	905.76	0.48
318.15	0.9485	925.55	0.45
328.15	0.1023	733.88	0.8
328.15	0.2027	745.71	0.77
328.15	0.2498	751.81	0.76
328.15	0.3042	759.33	0.74
328.15	0.3984	773.69	0.71
328.15	0.5099	793.25	0.68
328.15	0.6045	812.43	0.64
328.15	0.7037	835.73	0.59
328.15	0.7992	862.04	0.55
328.15	0.8987	894.71	0.5
328.15	0.9506	914.36	0.48
