Measured thermophysical data. The vapour pressures over saturated aqueous solutions of cadmium chloride, cadmium bromide, cadmium iodide, cadmium nitrate, and cadmium sulphate
Source: J. Chem. Thermodyn., 2007, 10.1016/j.jct.2006.12.010
Compound 1: cadmium chloride, CdCl2, InChI=1S/Cd.2ClH/h;2*1H/q+2;;/p-2, purity 99%
Compound 2: cadmium iodide (CdI2), CdI2, InChI=1S/Cd.2HI/h;2*1H/q+2;;/p-2, purity 99%
Compound 3: nitric acid, cadmium salt, hydrate (2:1:4), CdH8N2O10, InChI=1S/Cd.2NO3.4H2O/c;2*2-1(3)4;;;;/h;;;4*1H2/q+2;2*-1;;;;, purity 98%
Compound 4: cadmium sulfate, CdO4S, InChI=1S/Cd.H2O4S/c;1-5(2,3)4/h;(H2,1,2,3,4)/q+2;/p-2, purity 99%
Compound 5: water, H2O, InChI=1S/H2O/h1H2

System: water + cadmium iodide (CdI2); phases: Liquid, Gas, Crystal
Property: Vapor or sublimation pressure, kPa (Liquid); method: Hygrometer
Temperature, K	Vapor or sublimation pressure, kPa	uncertainty
281.05	0.961	0.012
285.25	1.316	0.014
289.75	1.781	0.017
294.25	2.388	0.022
298.75	3.244	0.029
303.35	4.26	0.036
308.05	5.528	0.045
312.75	7.117	0.057
317.15	8.88	0.07
321.95	11.314	0.085

System: water + nitric acid, cadmium salt, hydrate (2:1:4); phases: Liquid, Gas, Crystal
Property: Vapor or sublimation pressure, kPa (Liquid); method: Hygrometer
Temperature, K	Vapor or sublimation pressure, kPa	uncertainty
280.35	0.615	0.009
284.95	0.826	0.01
289.55	1.095	0.012
294.15	1.42	0.014
298.75	1.819	0.017
303.35	2.284	0.02
307.85	2.816	0.024
312.65	3.413	0.028
317.15	4.025	0.032
321.85	4.639	0.036

System: water + cadmium sulfate; phases: Liquid, Gas, Crystal
Property: Vapor or sublimation pressure, kPa (Liquid); method: Hygrometer
Temperature, K	Vapor or sublimation pressure, kPa	uncertainty
284.45	1.192	0.014
289.05	1.684	0.017
293.95	2.3	0.021
298.75	3.12	0.027
303.55	4.131	0.035
308.05	5.316	0.044
312.85	6.886	0.055
317.45	8.63	0.071
321.05	10.892	0.091

System: water + cadmium chloride; phases: Liquid, Gas, Crystal
Property: Vapor or sublimation pressure, kPa (Liquid); method: Hygrometer
Temperature, K	Vapor or sublimation pressure, kPa	uncertainty
280.05	0.84	0.01
284.95	1.161	0.012
289.65	1.511	0.014
294.25	2.045	0.019
298.75	2.716	0.024
303.35	3.59	0.031
307.95	4.68	0.039
312.55	5.997	0.049
317.25	7.681	0.061
321.85	9.742	0.074
