Measured thermophysical data. Thermochemical study of 5-methyluracil, 6-methyluracil, and 5-nitrouracil
Source: J. Chem. Thermodyn., 2011, 10.1016/j.jct.2011.06.023
Compound 1: carbon dioxide, CO2, InChI=1S/CO2/c2-1-3
Compound 2: nitrogen, N2, InChI=1S/N2/c1-2
Compound 3: water, H2O, InChI=1S/H2O/h1H2
Compound 4: oxygen, O2, InChI=1S/O2/c1-2
Compound 5: thymine, C5H6N2O2, InChI=1S/C5H6N2O2/c1-3-2-6-5(9)7-4(3)8/h2H,1H3,(H2,6,7,8,9)
Compound 6: 2,4-pyrimidinedione, 5-nitro-, C4H3N3O4, InChI=1S/C4H3N3O4/c8-3-2(7(10)11)1-5-4(9)6-3/h1H,(H2,5,6,8,9)
Compound 7: 2,4-dihydroxy-6-methylpyrimidine, C5H6N2O2, InChI=1S/C5H6N2O2/c1-3-2-4(8)7-5(9)6-3/h2H,1H3,(H2,6,7,8,9)

Reaction: -1 thymine + 5 carbon dioxide + 1 nitrogen + 3 water + -5.5 oxygen
Property: Specific internal energy of reaction at constant volume, J/g
-18812.8

Reaction: -1 2,4-dihydroxy-6-methylpyrimidine + 5 carbon dioxide + 1 nitrogen + 3 water + -5.5 oxygen
Property: Specific internal energy of reaction at constant volume, J/g
-18657.4

Reaction: -1 2,4-pyrimidinedione, 5-nitro- + 4 carbon dioxide + 1.5 nitrogen + 1.5 water + -2.75 oxygen
Property: Specific internal energy of reaction at constant volume, J/g
-10074.6
