Measured thermophysical data. Steric parameters and excess properties of hydroxamic acids
Source: J. Chem. Thermodyn., 2012, 10.1016/j.jct.2012.03.020
Compound 1: N-phenylbenzohydroxamic acid, C13H11NO2, InChI=1S/C13H11NO2/c15-13(11-7-3-1-4-8-11)14(16)12-9-5-2-6-10-12/h1-10,16H
Compound 2: N-hydroxy-4-methyl-3-nitro-N-phenylbenzamide, C14H12N2O4, InChI=1S/C14H12N2O4/c1-10-7-8-11(9-13(10)16(19)20)14(17)15(18)12-5-3-2-4-6-12/h2-9,18H,1H3
Compound 3: N-hydroxy-4-nitro-N-phenylbenzamide, C13H10N2O4, InChI=1S/C13H10N2O4/c16-13(14(17)11-4-2-1-3-5-11)10-6-8-12(9-7-10)15(18)19/h1-9,17H
Compound 4: dimethylformamide, C3H7NO, InChI=1S/C3H7NO/c1-4(2)3-5/h3H,1-2H3, purity 99.8%

System: N-phenylbenzohydroxamic acid; phases: Crystal, Liquid, Air at 1 atmosphere
Property: Normal melting temperature, K (Crystal); method: VISOBS
Normal melting temperature, K	uncertainty
394.15	2

System: N-phenylbenzohydroxamic acid; phases: Liquid
Fixed: Pressure, kPa = 101.325
Property: Refractive index (Na D-line) (Liquid); method: Standard Abbe refractometry
Temperature, K	Refractive index (Na D-line)	uncertainty
298.15	1.4269	0.0004
303.15	1.4257	0.0004
308.15	1.4241	0.0004
313.15	1.4221	0.0004

System: N-phenylbenzohydroxamic acid; phases: Liquid
Fixed: Pressure, kPa = 101.325
Property: Mass density, kg/m3 (Liquid); method: Pycnometric method
Temperature, K	Mass density, kg/m3	uncertainty
298.15	945.8	0.6
303.15	940.4	0.6
308.15	936.3	0.6
313.15	931.2	0.6

System: N-hydroxy-4-methyl-3-nitro-N-phenylbenzamide; phases: Crystal, Liquid, Air at 1 atmosphere
Property: Normal melting temperature, K (Crystal); method: VISOBS
Normal melting temperature, K	uncertainty
390.15	2

System: N-hydroxy-4-methyl-3-nitro-N-phenylbenzamide; phases: Liquid
Fixed: Pressure, kPa = 101.325
Property: Refractive index (Na D-line) (Liquid); method: Standard Abbe refractometry
Temperature, K	Refractive index (Na D-line)	uncertainty
298.15	1.4371	0.0004
303.15	1.4336	0.0004
308.15	1.4302	0.0004
313.15	1.4286	0.0004

System: N-hydroxy-4-methyl-3-nitro-N-phenylbenzamide; phases: Liquid
Fixed: Pressure, kPa = 101.325
Property: Mass density, kg/m3 (Liquid); method: Pycnometric method
Temperature, K	Mass density, kg/m3	uncertainty
298.15	1437	0.9
303.15	1433.5	0.9
308.15	1430.2	0.9
313.15	1428.5	0.9

System: N-hydroxy-4-nitro-N-phenylbenzamide; phases: Crystal, Liquid, Air at 1 atmosphere
Property: Normal melting temperature, K (Crystal); method: VISOBS
Normal melting temperature, K	uncertainty
441.15	2

System: N-hydroxy-4-nitro-N-phenylbenzamide; phases: Liquid
Fixed: Pressure, kPa = 101.325
Property: Refractive index (Na D-line) (Liquid); method: Standard Abbe refractometry
Temperature, K	Refractive index (Na D-line)	uncertainty
298.15	1.4275	0.0004
303.15	1.4259	0.0004
308.15	1.4238	0.0004
313.15	1.422	0.0004

System: N-hydroxy-4-nitro-N-phenylbenzamide; phases: Liquid
Fixed: Pressure, kPa = 101.325
Property: Mass density, kg/m3 (Liquid); method: Pycnometric method
Temperature, K	Mass density, kg/m3	uncertainty
298.15	945.6	0.9
303.15	940.2	0.8
308.15	936.2	0.8
313.15	930.9	0.9

System: dimethylformamide; phases: Liquid
Fixed: Pressure, kPa = 101.325
Property: Refractive index (Na D-line) (Liquid); method: Standard Abbe refractometry
Temperature, K	Refractive index (Na D-line)	uncertainty
298.15	1.427	0.0004
303.15	1.4253	0.0004
308.15	1.423	0.0004
313.15	1.421	0.0004

System: dimethylformamide; phases: Liquid
Fixed: Pressure, kPa = 101.325
Property: Mass density, kg/m3 (Liquid); method: Pycnometric method
Temperature, K	Mass density, kg/m3	uncertainty
298.15	945.2	0.9
303.15	939.7	0.8
308.15	935.6	0.8
313.15	930.2	0.9

System: dimethylformamide + N-phenylbenzohydroxamic acid; phases: Liquid
Fixed: Pressure, kPa = 101
Property: Refractive index (Na D-line) (Liquid); method: Standard Abbe refractometry
Temperature, K	Molality, mol/kg of N-phenylbenzohydroxamic acid	Refractive index (Na D-line)	uncertainty
298.15	0.0234	1.4275	0.0004
298.15	0.0469	1.4277	0.0004
298.15	0.0703	1.428	0.0004
298.15	0.0938	1.4285	0.0004
298.15	0.1172	1.4288	0.0004
298.15	0.1407	1.4289	0.0004
298.15	0.1641	1.4295	0.0004
298.15	0.1876	1.43	0.0004
298.15	0.211	1.4305	0.0004
298.15	0.2345	1.431	0.0004
303.15	0.0234	1.426	0.0004
303.15	0.0469	1.4269	0.0004
303.15	0.0703	1.4271	0.0004
303.15	0.0938	1.4274	0.0004
303.15	0.1172	1.4275	0.0004
303.15	0.1407	1.428	0.0004
303.15	0.1641	1.4285	0.0004
303.15	0.1876	1.4289	0.0004
303.15	0.211	1.4295	0.0004
303.15	0.2345	1.43	0.0004
308.15	0.0234	1.4238	0.0004
308.15	0.0469	1.4249	0.0004
308.15	0.0703	1.4259	0.0004
308.15	0.0938	1.4266	0.0004
308.15	0.1172	1.427	0.0004
308.15	0.1407	1.4273	0.0004
308.15	0.1641	1.4276	0.0004
308.15	0.1876	1.428	0.0004
308.15	0.211	1.4282	0.0004
308.15	0.2345	1.4288	0.0004
313.15	0.0234	1.422	0.0004
313.15	0.0469	1.423	0.0004
313.15	0.0703	1.424	0.0004
313.15	0.0938	1.425	0.0004
313.15	0.1172	1.4261	0.0004
313.15	0.1407	1.4265	0.0004
313.15	0.1641	1.4271	0.0004
313.15	0.1876	1.4273	0.0004
313.15	0.211	1.4274	0.0004
313.15	0.2345	1.4275	0.0004

System: dimethylformamide + N-phenylbenzohydroxamic acid; phases: Liquid
Fixed: Pressure, kPa = 101
Property: Mass density, kg/m3 (Liquid); method: Pycnometric method
Temperature, K	Molality, mol/kg of N-phenylbenzohydroxamic acid	Mass density, kg/m3	uncertainty
298.15	0.0234	947.5	0.5
298.15	0.0469	949.7	0.5
298.15	0.0703	951.8	0.5
298.15	0.0938	953.9	0.5
298.15	0.1172	955.9	0.5
298.15	0.1407	957.9	0.5
298.15	0.1641	959.9	0.5
298.15	0.1876	961.8	0.5
298.15	0.211	963.7	0.5
298.15	0.2345	965.4	0.5
303.15	0.0234	942.1	0.5
303.15	0.0469	944.4	0.5
303.15	0.0703	946.6	0.5
303.15	0.0938	948.8	0.5
303.15	0.1172	950.9	0.5
303.15	0.1407	953	0.5
303.15	0.1641	954.9	0.5
303.15	0.1876	956.9	0.5
303.15	0.211	958.8	0.5
303.15	0.2345	960.7	0.5
308.15	0.0234	938.1	0.6
308.15	0.0469	940.5	0.5
308.15	0.0703	942.8	0.5
308.15	0.0938	945.1	0.5
308.15	0.1172	947.3	0.5
308.15	0.1407	949.5	0.5
308.15	0.1641	951.5	0.5
308.15	0.1876	953.6	0.5
308.15	0.211	955.6	0.5
308.15	0.2345	957.5	0.5
313.15	0.0234	932.9	0.6
313.15	0.0469	935.4	0.6
313.15	0.0703	937.8	0.6
313.15	0.0938	940.1	0.6
313.15	0.1172	942.4	0.6
313.15	0.1407	944.5	0.6
313.15	0.1641	946.6	0.6
313.15	0.1876	948.6	0.6
313.15	0.211	950.6	0.6
313.15	0.2345	952.5	0.6

System: dimethylformamide + N-hydroxy-4-methyl-3-nitro-N-phenylbenzamide; phases: Liquid
Fixed: Pressure, kPa = 101
Property: Refractive index (Na D-line) (Liquid); method: Standard Abbe refractometry
Temperature, K	Molality, mol/kg of N-hydroxy-4-methyl-3-nitro-N-phenylbenzamide	Refractive index (Na D-line)	uncertainty
298.15	0.0184	1.4391	0.0005
298.15	0.0368	1.4406	0.0005
298.15	0.0551	1.442	0.0005
298.15	0.0735	1.444	0.0005
298.15	0.0919	1.447	0.0005
298.15	0.1103	1.4483	0.0004
298.15	0.1286	1.4496	0.0005
298.15	0.147	1.452	0.0005
298.15	0.1654	1.4535	0.0005
298.15	0.1838	1.455	0.0005
303.15	0.0184	1.435	0.0005
303.15	0.0368	1.437	0.0005
303.15	0.0551	1.439	0.0005
303.15	0.0735	1.441	0.0005
303.15	0.0919	1.4441	0.0005
303.15	0.1103	1.4455	0.0004
303.15	0.1286	1.4466	0.0004
303.15	0.147	1.448	0.0005
303.15	0.1654	1.45	0.0005
303.15	0.1838	1.452	0.0005
308.15	0.0184	1.432	0.0005
308.15	0.0368	1.4343	0.0005
308.15	0.0551	1.436	0.0005
308.15	0.0735	1.438	0.0005
308.15	0.0919	1.44	0.0005
308.15	0.1103	1.442	0.0005
308.15	0.1286	1.443	0.0005
308.15	0.147	1.446	0.0005
308.15	0.1654	1.448	0.0005
308.15	0.1838	1.4494	0.0004
313.15	0.0184	1.4299	0.0005
313.15	0.0368	1.432	0.0005
313.15	0.0551	1.434	0.0005
313.15	0.0735	1.4354	0.0004
313.15	0.0919	1.437	0.0005
313.15	0.1103	1.439	0.0005
313.15	0.1286	1.441	0.0005
313.15	0.147	1.4429	0.0005
313.15	0.1654	1.444	0.0004
313.15	0.1838	1.445	0.0005

System: dimethylformamide + N-hydroxy-4-methyl-3-nitro-N-phenylbenzamide; phases: Liquid
Fixed: Pressure, kPa = 101
Property: Mass density, kg/m3 (Liquid); method: Pycnometric method
Temperature, K	Molality, mol/kg of N-hydroxy-4-methyl-3-nitro-N-phenylbenzamide	Mass density, kg/m3	uncertainty
298.15	0.0184	947.8	0.6
298.15	0.0368	950.2	0.6
298.15	0.0551	952.6	0.6
298.15	0.0735	954.8	0.6
298.15	0.0919	957	0.6
298.15	0.1103	959.1	0.5
298.15	0.1286	961.1	0.5
298.15	0.147	963.1	0.5
298.15	0.1654	965	0.5
298.15	0.1838	966.9	0.5
303.15	0.0184	942.4	0.5
303.15	0.0368	944.9	0.6
303.15	0.0551	947.4	0.6
303.15	0.0735	949.7	0.6
303.15	0.0919	952	0.5
303.15	0.1103	954.2	0.5
303.15	0.1286	956.3	0.5
303.15	0.147	958.4	0.5
303.15	0.1654	960.4	0.5
303.15	0.1838	962.3	0.5
308.15	0.0184	938.4	0.6
308.15	0.0368	941	0.6
308.15	0.0551	943.5	0.6
308.15	0.0735	945.9	0.6
308.15	0.0919	948.2	0.6
308.15	0.1103	950.4	0.6
308.15	0.1286	952.6	0.5
308.15	0.147	954.7	0.5
308.15	0.1654	956.7	0.5
308.15	0.1838	958.7	0.5
313.15	0.0184	933.1	0.6
313.15	0.0368	935.8	0.6
313.15	0.0551	938.4	0.6
313.15	0.0735	940.9	0.6
313.15	0.0919	943.3	0.6
313.15	0.1103	945.7	0.6
313.15	0.1286	947.9	0.6
313.15	0.147	950.1	0.6
313.15	0.1654	952.2	0.6
313.15	0.1838	954.3	0.6

System: dimethylformamide + N-hydroxy-4-nitro-N-phenylbenzamide; phases: Liquid
Fixed: Pressure, kPa = 101
Property: Refractive index (Na D-line) (Liquid); method: Standard Abbe refractometry
Temperature, K	Molality, mol/kg of N-hydroxy-4-nitro-N-phenylbenzamide	Refractive index (Na D-line)	uncertainty
298.15	0.0234	1.428	0.0004
298.15	0.0469	1.4289	0.0004
298.15	0.0703	1.4294	0.0004
298.15	0.0938	1.4299	0.0004
298.15	0.1172	1.43	0.0004
298.15	0.1407	1.4305	0.0004
298.15	0.1641	1.4315	0.0004
298.15	0.1876	1.4325	0.0004
298.15	0.211	1.4329	0.0004
298.15	0.2345	1.433	0.0004
303.15	0.0234	1.4264	0.0004
303.15	0.0469	1.4274	0.0004
303.15	0.0703	1.4279	0.0004
303.15	0.0938	1.4285	0.0004
303.15	0.1172	1.429	0.0004
303.15	0.1407	1.4295	0.0004
303.15	0.1641	1.4302	0.0004
303.15	0.1876	1.4311	0.0004
303.15	0.211	1.4319	0.0004
303.15	0.2345	1.4322	0.0004
308.15	0.0234	1.4242	0.0004
308.15	0.0469	1.4254	0.0004
308.15	0.0703	1.4259	0.0004
308.15	0.0938	1.4266	0.0004
308.15	0.1172	1.4271	0.0004
308.15	0.1407	1.4276	0.0004
308.15	0.1641	1.4286	0.0004
308.15	0.1876	1.4292	0.0004
308.15	0.211	1.4301	0.0004
308.15	0.2345	1.4304	0.0004
313.15	0.0234	1.4223	0.0004
313.15	0.0469	1.4235	0.0004
313.15	0.0703	1.4244	0.0004
313.15	0.0938	1.4249	0.0004
313.15	0.1172	1.4258	0.0004
313.15	0.1407	1.4266	0.0004
313.15	0.1641	1.4271	0.0004
313.15	0.1876	1.4275	0.0004
313.15	0.211	1.4284	0.0004
313.15	0.2345	1.4291	0.0004

System: dimethylformamide + N-hydroxy-4-nitro-N-phenylbenzamide; phases: Liquid
Fixed: Pressure, kPa = 101
Property: Mass density, kg/m3 (Liquid); method: Pycnometric method
Temperature, K	Molality, mol/kg of N-hydroxy-4-nitro-N-phenylbenzamide	Mass density, kg/m3	uncertainty
298.15	0.0234	947.5	0.5
298.15	0.0469	949.7	0.5
298.15	0.0703	951.9	0.5
298.15	0.0938	954	0.5
298.15	0.1172	956.1	0.5
298.15	0.1407	958.2	0.5
298.15	0.1641	960.2	0.5
298.15	0.1876	962.2	0.5
298.15	0.211	964.2	0.5
298.15	0.2345	966.1	0.5
303.15	0.0234	942.1	0.5
303.15	0.0469	944.4	0.5
303.15	0.0703	946.7	0.5
303.15	0.0938	948.9	0.5
303.15	0.1172	951.1	0.5
303.15	0.1407	953.2	0.5
303.15	0.1641	955.3	0.5
303.15	0.1876	957.4	0.5
303.15	0.211	959.4	0.5
303.15	0.2345	961.4	0.5
308.15	0.0234	938.1	0.6
308.15	0.0469	940.5	0.5
308.15	0.0703	942.8	0.5
308.15	0.0938	945.1	0.5
308.15	0.1172	947.3	0.5
308.15	0.1407	949.5	0.5
308.15	0.1641	951.6	0.5
308.15	0.1876	953.7	0.5
308.15	0.211	955.8	0.5
308.15	0.2345	957.8	0.5
313.15	0.0234	932.8	0.6
313.15	0.0469	935.3	0.6
313.15	0.0703	937.7	0.6
313.15	0.0938	940	0.6
313.15	0.1172	942.3	0.6
313.15	0.1407	944.5	0.6
313.15	0.1641	946.7	0.6
313.15	0.1876	948.8	0.6
313.15	0.211	950.8	0.6
313.15	0.2345	952.9	0.6
