Measured thermophysical data. Use of water in aiding olefin/paraffin (liquid + liquid) extraction via complexation with a silver bis(trifluoromethylsulfonyl)imide salt
Source: J. Chem. Thermodyn., 2014, 10.1016/j.jct.2014.02.002
Compound 1: silver bis(trifluoromethanesulfonyl)amide, C2AgF6NO4S2, InChI=1S/C2F6NO4S2.Ag/c3-1(4,5)14(10,11)9-15(12,13)2(6,7)8;/q-1;+1
Compound 2: 1-pentene, C5H10, InChI=1S/C5H10/c1-3-5-4-2/h3H,1,4-5H2,2H3, purity 98%
Compound 3: pentane, C5H12, InChI=1S/C5H12/c1-3-5-4-2/h3-5H2,1-2H3, purity 98%
Compound 4: hex-1-ene, C6H12, InChI=1S/C6H12/c1-3-5-6-4-2/h3H,1,4-6H2,2H3, purity 97%
Compound 5: hexane, C6H14, InChI=1S/C6H14/c1-3-5-6-4-2/h3-6H2,1-2H3, purity 95%
Compound 6: 1-heptene, C7H14, InChI=1S/C7H14/c1-3-5-7-6-4-2/h3H,1,4-7H2,2H3, purity 97%
Compound 7: water, H2O, InChI=1S/H2O/h1H2, purity 99.9%

System: 1-pentene + water + silver bis(trifluoromethanesulfonyl)amide; phases: Liquid mixture 1, Liquid mixture 2
Fixed: Temperature, K = 293
Fixed: Pressure, kPa = 101
Property: Mole fraction of 1-pentene (Liquid mixture 1); method: NMR
Solvent: Mole fraction of water	Mole fraction of 1-pentene	uncertainty
0	0.816	0.07
0.342	0.734	0.052
0.507	0.662	0.068
0.624	0.584	0.054
0.697	0.513	0.06

System: hex-1-ene + water + silver bis(trifluoromethanesulfonyl)amide; phases: Liquid mixture 1, Liquid mixture 2
Fixed: Temperature, K = 293
Fixed: Pressure, kPa = 101
Property: Mole fraction of hex-1-ene (Liquid mixture 1); method: NMR
Solvent: Mole fraction of water	Mole fraction of hex-1-ene	uncertainty
0	0.869	0.05
0.351	0.801	0.056
0.545	0.729	0.048
0.634	0.675	0.038
0.691	0.627	0.04

System: 1-heptene + water + silver bis(trifluoromethanesulfonyl)amide; phases: Liquid mixture 1, Liquid mixture 2
Fixed: Temperature, K = 293
Fixed: Pressure, kPa = 101
Property: Mole fraction of 1-heptene (Liquid mixture 1); method: NMR
Solvent: Mole fraction of water	Mole fraction of 1-heptene	uncertainty
0.333	0.867	0.03
0.444	0.841	0.04
0.6	0.783	0.039
0.701	0.718	0.026
0.784	0.632	0.034

System: pentane + 1-pentene + silver bis(trifluoromethanesulfonyl)amide; phases: Liquid mixture 2, Liquid mixture 1
Fixed: Temperature, K = 293
Fixed: Pressure, kPa = 101
Property: Mole fraction of pentane (Liquid mixture 2); method: NMR
Property: Mole fraction of pentane (Liquid mixture 1); method: NMR
Property: Mole fraction of 1-pentene (Liquid mixture 1); method: NMR
Mole fraction of 1-pentene	Mole fraction of pentane	uncertainty	Mole fraction of pentane	uncertainty	Mole fraction of 1-pentene	uncertainty
0.745	0.255	0.057	0.075	0.05	0.747	
0.632	0.368	0.057	0.106	0.044	0.706	
0.598	0.402	0.057	0.117	0.044	0.678	
0.487	0.513	0.058	0.121	0.043	0.649	
0.381	0.619	0.057	0.157	0.041	0.572	
0.337	0.663	0.057	0.161	0.041	0.555	
0.263	0.737	0.057	0.156	0.04	0.5	
0.167	0.833	0.057	0.168	0.041	0.425	

System: hexane + hex-1-ene + silver bis(trifluoromethanesulfonyl)amide; phases: Liquid mixture 1, Liquid mixture 2
Fixed: Temperature, K = 293
Fixed: Pressure, kPa = 101
Property: Mole fraction of hexane (Liquid mixture 1); method: NMR
Property: Mole fraction of hexane (Liquid mixture 2); method: NMR
Property: Mole fraction of hex-1-ene (Liquid mixture 2); method: NMR
Mole fraction of hex-1-ene	Mole fraction of hexane	uncertainty	Mole fraction of hexane	uncertainty	Mole fraction of hex-1-ene	uncertainty
0.767	0.069	0.049	0.084	0.057	0.916	
0.739	0.091	0.048	0.185	0.057	0.815	
0.679	0.132	0.047	0.257	0.057	0.743	
0.603	0.172	0.044	0.353	0.057	0.647	
0.567	0.18	0.044	0.434	0.057	0.566	
0.504	0.209	0.044	0.577	0.057	0.423	
0.413	0.248	0.043	0.659	0.057	0.341	
0.349	0.263	0.041	0.885	0.057	0.115	

System: 1-pentene + silver bis(trifluoromethanesulfonyl)amide; phases: Liquid mixture 1, Liquid mixture 2
Property: Mole fraction of 1-pentene (Liquid mixture 1); method: NMR
Temperature, K	Pressure, kPa	Mole fraction of 1-pentene	uncertainty
293	101	0.816	0.07

System: hex-1-ene + silver bis(trifluoromethanesulfonyl)amide; phases: Liquid mixture 1, Liquid mixture 2
Property: Mole fraction of hex-1-ene (Liquid mixture 1); method: NMR
Temperature, K	Pressure, kPa	Mole fraction of hex-1-ene	uncertainty
293	101	0.869	0.05
