Measured thermophysical data. High-temperature calorimetry of zirconia: Heat capacity and thermodynamics of the monoclinic tetragonal phase transition
Source: J. Chem. Thermodyn., 2006, 10.1016/j.jct.2005.05.002
Compound 1: zirconium oxide, O2Zr, InChI=1S/2O.Zr/q2*-2;+4

System: zirconium oxide; phases: Crystal 2
Fixed: Pressure, kPa = 101.325
Property: Molar enthalpy, kJ/mol (Crystal 2); method: Drop calorimetry
Temperature, K	Molar enthalpy, kJ/mol	uncertainty
978.4	47.1	1.2
1077.6	55.5	2.2
1177.1	63	1.8
1276.5	69.9	2
1375.9	77.2	2.3
1425.3	81.2	1.9
1435.2	82.5	2
1445.1	82.1	2.2
1454.9	85.7	2.4
1465	86.5	2.6
1474.9	87.3	2.4

System: zirconium oxide; phases: Crystal 1
Fixed: Pressure, kPa = 101.325
Property: Molar enthalpy, kJ/mol (Crystal 1); method: Drop calorimetry
Temperature, K	Molar enthalpy, kJ/mol	uncertainty
1484.7	91.7	2.5
1494.5	93.4	3
1524.7	95.4	2.6
1574	99.3	2.6
1623.4	102.4	2.7
1672.6	106.7	3.1
1721.4	110.7	4.4
1773.8	113.4	2.8
