Measured thermophysical data. Experimental and theoretical study of surface tension of n-pentane, n-heptane, and some of their mixtures at different temperatures
Source: J. Chem. Thermodyn., 2010, 10.1016/j.jct.2009.07.018
Compound 1: pentane, C5H12, InChI=1S/C5H12/c1-3-5-4-2/h3-5H2,1-2H3, purity 99%
Compound 2: heptane, C7H16, InChI=1S/C7H16/c1-3-5-7-6-4-2/h3-7H2,1-2H3, purity 99%
Compound 3: decane, C10H22, InChI=1S/C10H22/c1-3-5-7-9-10-8-6-4-2/h3-10H2,1-2H3, purity 99%
Compound 4: water, H2O, InChI=1S/H2O/h1H2

System: pentane; phases: Liquid, Air at 1 atmosphere
Property: Surface tension liquid-gas, N/m (Liquid); method: Maximal bubble pressure
Temperature, K	Surface tension liquid-gas, N/m	uncertainty
293.15	0.01594	0.00023
298.15	0.0153	0.00022
305.15	0.01436	0.00022
318.15	0.0126	0.00021
323.15	0.01195	0.00021

System: heptane; phases: Liquid, Air at 1 atmosphere
Property: Surface tension liquid-gas, N/m (Liquid); method: Maximal bubble pressure
Temperature, K	Surface tension liquid-gas, N/m	uncertainty
283.15	0.02111	0.00025
293.15	0.02012	0.00025
303.15	0.01913	0.00024
313.15	0.01811	0.00024
323.15	0.01715	0.00023

System: decane; phases: Liquid, Air at 1 atmosphere
Property: Surface tension liquid-gas, N/m (Liquid); method: Maximal bubble pressure
Temperature, K	Surface tension liquid-gas, N/m	uncertainty
293.15	0.02383	0.00026
303.15	0.02291	0.00026
313.15	0.02191	0.00025
323.15	0.02107	0.00025
333.15	0.02015	0.00025
343.15	0.01923	0.00024

System: water; phases: Liquid, Air at 1 atmosphere
Property: Surface tension liquid-gas, N/m (Liquid); method: Maximal bubble pressure
Temperature, K	Surface tension liquid-gas, N/m	uncertainty
293.15	0.07284	0.00042
298.15	0.07203	0.00042
303.15	0.07124	0.00041
308.15	0.07044	0.00041
313.15	0.06961	0.00041
323.15	0.06796	0.0004

System: pentane + heptane; phases: Liquid, Air at 1 atmosphere
Property: Surface tension liquid-gas, N/m (Liquid); method: Maximal bubble pressure
Temperature, K	Mole fraction of pentane	Surface tension liquid-gas, N/m	uncertainty
293.15	0.165	0.01962	0.00024
293.15	0.308	0.01911	0.00024
293.15	0.432	0.0186	0.00024
293.15	0.542	0.01815	0.00024
293.15	0.64	0.01771	0.00023
293.15	0.727	0.01729	0.00023
293.15	0.877	0.01665	0.00023
293.15	0.971	0.01608	0.00023
298.15	0.165	0.01898	0.00024
298.15	0.308	0.0185	0.00024
298.15	0.432	0.0179	0.00024
298.15	0.542	0.01735	0.00023
298.15	0.64	0.0169	0.00023
298.15	0.727	0.01648	0.00023
298.15	0.877	0.01585	0.00023
298.15	0.971	0.01529	0.00022
305.15	0.165	0.01816	0.00024
305.15	0.308	0.01764	0.00023
305.15	0.432	0.01713	0.00023
305.15	0.542	0.01664	0.00023
305.15	0.64	0.01617	0.00023
305.15	0.727	0.01574	0.00023
305.15	0.877	0.01497	0.00022
305.15	0.971	0.01449	0.00022
318.15	0.165	0.01691	0.00023
318.15	0.308	0.01624	0.00023
318.15	0.432	0.01566	0.00023
318.15	0.542	0.0151	0.00022
318.15	0.64	0.01457	0.00022
318.15	0.727	0.01408	0.00022
318.15	0.877	0.01323	0.00022
318.15	0.971	0.0127	0.00021
323.15	0.165	0.01633	0.00023
323.15	0.308	0.01555	0.00023
323.15	0.432	0.01488	0.00022
323.15	0.542	0.0144	0.00022
323.15	0.64	0.01393	0.00022
323.15	0.727	0.01341	0.00022
323.15	0.877	0.0126	0.00021
323.15	0.971	0.01212	0.00021
