Measured thermophysical data. PVTx properties in the gas phase for binary R290/R134a system
Source: J. Chem. Thermodyn., 2014, 10.1016/j.jct.2013.10.031
Compound 1: propane, C3H8, InChI=1S/C3H8/c1-3-2/h3H2,1-2H3, purity 99.9%
Compound 2: 1,1,1,2-tetrafluoroethane, C2H2F4, InChI=1S/C2H2F4/c3-1-2(4,5)6/h1H2, purity 99.9%
Compound 3: nitrogen, N2, InChI=1S/N2/c1-2, purity 99.999%

System: propane; phases: Liquid, Gas
Property: Vapor or sublimation pressure, kPa (Liquid); method: Closed cell (Static) method
Temperature, K	Vapor or sublimation pressure, kPa	uncertainty
252.104	236	20
256.211	273.3	20
260.101	311.1	20
264.211	358.7	20
268.093	406	20
272.131	460.2	20
276.141	519.7	20
280.213	585.8	20
284.091	653.2	20
288.095	731.4	20
292.101	814.2	20
296.212	906.2	20
300.176	1001.8	20.1
304.186	1107.5	20.1
308.179	1219.8	20.1
312.169	1339.6	20.1
316.201	1468.9	20.1
320.191	1606.7	20.1

System: 1,1,1,2-tetrafluoroethane; phases: Liquid, Gas
Property: Vapor or sublimation pressure, kPa (Liquid); method: Closed cell (Static) method
Temperature, K	Vapor or sublimation pressure, kPa	uncertainty
252.125	127.2	20
256.176	151.4	20
260.189	178.5	20
264.205	209.6	20
268.211	244.3	20
272.141	283	20
276.093	326.1	20
280.135	374.9	20
284.098	428.7	20
288.092	487	20
292.132	554.1	20
296.321	630.3	20
300.173	707.1	20
304.117	792.4	20
308.123	887	20
312.194	991.8	20.1
316.201	1103.5	20.1
320.091	1220.6	20.1

System: nitrogen; phases: Gas
Property: Mass density, kg/m3 (Gas); method: Burnett expansion method
Temperature, K	Pressure, kPa	Mass density, kg/m3	uncertainty
322.974	2004.451	20.889	0.267
322.975	1502.851	15.668	0.243
322.968	1127.121	11.749	0.229
322.973	845.668	8.818	0.222
322.976	634.949	6.619	0.215

System: propane + 1,1,1,2-tetrafluoroethane; phases: Gas
Property: Mass density, kg/m3 (Gas); method: Burnett expansion method
Mass fraction of propane	Pressure, kPa	Temperature, K	Mass density, kg/m3	uncertainty
0.4	201.9	251.855	13.26756	1.94919
0.4	167.7	251.845	9.96073	1.89796
0.4	140.8	251.864	7.47724	1.84122
0.4	122.9	251.876	5.6131	1.93598
0.4	276.5	255.819	9.7875	0.78708
0.4	214.2	255.824	7.34761	0.58577
0.4	163.9	255.828	5.51597	0.64844
0.4	125	255.828	4.14099	0.43412
0.4	265.9	260.191	8.93493	0.76095
0.4	204	260.255	6.70606	0.71198
0.4	155.8	260.185	5.03578	0.68162
0.4	117.7	260.181	3.78056	0.65617
0.4	373.8	264.055	12.68734	0.74505
0.4	288.1	264.054	9.52478	0.7278
0.4	220.5	264.052	7.15058	0.69644
0.4	168.1	264.058	5.36802	0.66603
0.4	127.7	264.056	4.02995	0.65813
0.4	437.9	268.071	14.83806	0.75422
0.4	338.5	267.998	11.14238	0.7333
0.4	259.7	267.962	8.36602	0.69755
0.4	198.3	267.953	6.28082	0.67292
0.4	150.8	267.953	4.71519	0.65458
0.4	114.5	267.955	3.5398	0.64857
0.4	486.9	272.141	16.34569	0.7524
0.4	376.9	272.136	12.2714	0.73058
0.4	289.6	272.135	9.21252	0.69245
0.4	221.2	272.138	6.91602	0.66614
0.4	168.4	272.137	5.19207	0.64232
0.4	127.8	272.137	3.89783	0.63893
0.4	503.4	276.094	16.61803	0.7383
0.4	389.5	276.089	12.47585	0.7182
0.4	299.1	276.09	9.36594	0.68099
0.4	228.4	276.088	7.03132	0.65547
0.4	173.8	276.092	5.27854	0.63783
0.4	131.9	276.092	3.96275	0.62944
0.4	670.7	280.015	22.72899	0.79722
0.4	524.7	280.022	17.06287	0.76254
0.4	405.9	280.022	12.80958	0.70827
0.4	311.5	280.024	9.61644	0.67121
0.4	237.8	280.024	7.21933	0.64607
0.4	180.8	280.025	5.41974	0.63385
0.4	655.1	283.94	21.55713	0.77401
0.4	510.3	283.9	16.18582	0.73217
0.4	393.6	283.885	12.15118	0.68458
0.4	301.6	283.871	9.12315	0.65218
0.4	229.9	283.866	6.84912	0.62991
0.4	174.7	283.855	5.14203	0.61932
0.4	714.8	287.93	23.48149	0.77021
0.4	558	287.905	17.62975	0.73826
0.4	431.5	287.899	13.23542	0.68719
0.4	331.1	287.891	9.93648	0.65256
0.4	253	287.889	7.45965	0.62814
0.4	192.3	287.891	5.60013	0.61028
0.4	145.9	287.887	4.20423	0.60269
0.4	950.3	292.027	32.58435	0.86439
0.4	753.1	292.03	24.46174	0.81311
0.4	587.9	292.033	18.36393	0.73276
0.4	454.4	292.035	13.78623	0.68157
0.4	348.8	292.036	10.34967	0.64741
0.4	266.5	292.037	7.76977	0.62325
0.4	202.8	292.033	5.83306	0.61228
0.4	1071.2	296.152	36.88077	0.89801
0.4	854.3	296.151	27.68752	0.83297
0.4	669.4	296.157	20.78538	0.73983
0.4	518.5	296.158	15.60412	0.68181
0.4	398.4	296.167	11.7141	0.64407
0.4	304.4	296.166	8.79413	0.61708
0.4	231.5	296.165	6.60203	0.60374
0.4	1014.7	300.038	33.33225	0.82308
0.4	801.2	300.035	25.02371	0.77193
0.4	624.3	300.035	18.78601	0.70066
0.4	481.6	300.036	14.10314	0.65296
0.4	369.1	300.043	10.58738	0.62113
0.4	281.4	300.045	7.94819	0.59885
0.4	213.8	300.042	5.96699	0.58386
0.4	162.1	300.04	4.47962	0.57653
0.4	1087.7	304.1	35.50238	0.82897
0.4	860.4	304.102	26.65246	0.77504
0.4	671.1	304.108	20.00836	0.69953
0.4	518.4	304.112	15.02064	0.65122
0.4	397.4	304.112	11.27642	0.61723
0.4	303.2	304.116	8.46542	0.59453
0.4	230.5	304.117	6.35521	0.57833
0.4	174.8	304.114	4.77108	0.57012
0.4	1208.1	308.235	39.68762	0.85947
0.4	960.1	308.231	29.795	0.79715
0.4	751.6	308.241	22.36722	0.71151
0.4	581.8	308.249	16.79127	0.65584
0.4	447.1	308.251	12.6056	0.61937
0.4	341.6	308.256	9.46322	0.5936
0.4	260.1	308.257	7.10429	0.5763
0.4	197.5	308.261	5.33332	0.56741
0.4	1427.9	312.091	48.05705	0.93662
0.4	1147.3	312.091	36.07779	0.85326
0.4	904.5	312.1	27.08383	0.74329
0.4	703.7	312.1	20.3326	0.67336
0.4	542.2	312.1	15.26425	0.62752
0.4	415.1	312.104	11.45916	0.59704
0.4	316.2	312.106	8.60266	0.5763
0.4	240.2	312.102	6.45834	0.56671
0.4	1496.5	316.026	49.72408	0.93031
0.4	1201.7	316.022	37.32974	0.84633
0.4	947.3	316.025	28.02422	0.73712
0.4	737	316.027	21.03844	0.66726
0.4	568	316.029	15.79405	0.62122
0.4	434.8	316.03	11.857	0.59074
0.4	331.4	316.033	8.9013	0.56949
0.4	251.6	316.033	6.68246	0.55869
0.4	1816.9	319.944	64.6378	1.10934
0.4	1488.2	319.967	48.52193	0.98285
0.4	1189.8	319.977	36.42564	0.8222
0.4	935.7	319.98	27.3455	0.7223
0.4	726.9	319.986	20.52865	0.65638
0.4	559.5	319.989	15.41129	0.61288
0.4	428.1	319.991	11.56962	0.58418
0.4	326.1	319.992	8.68561	0.56979
0.45	231.8	251.898	7.75442	0.87444
0.45	177.7	251.894	5.82156	0.54998
0.45	135.5	251.898	4.37034	0.62428
0.45	103.2	251.904	3.28086	0.40847
0.45	278.4	255.793	9.23624	0.72648
0.45	213.6	255.798	6.93377	0.69828
0.45	163.3	255.809	5.20515	0.67547
0.45	124.4	255.81	3.90764	0.66434
0.45	304	260.157	9.96648	0.7067
0.45	233.5	260.144	7.48249	0.70106
0.45	178.4	260.151	5.61717	0.6763
0.45	136	260.158	4.216685	0.662545
0.45	104.4	260.17	3.16556	0.63813
0.45	395.1	264.031	13.05775	0.72579
0.45	305.6	264.017	9.80334	0.71917
0.45	234.6	264.025	7.35423	0.6821
0.45	179.2	264.03	5.52482	0.65567
0.45	136.3	264.029	4.14766	0.64286
0.45	398.6	268.154	12.7103	0.71943
0.45	306.8	268.154	9.54198	0.68137
0.45	234.6	268.155	7.16341	0.65339
0.45	178.7	268.161	5.37765	0.63428
0.45	135.7	268.159	4.037186	0.618826
0.45	507.5	272.12	16.40057	0.72991
0.45	393.6	272.126	12.3121	0.70695
0.45	302.5	272.128	9.24297	0.66733
0.45	231.2	272.13	6.93891	0.64071
0.45	175.9	272.13	5.20923	0.62628
0.45	613	276.231	19.94432	0.75674
0.45	478.6	276.248	14.97184	0.72451
0.45	369.2	276.244	11.23995	0.67379
0.45	282.9	276.253	8.43787	0.64209
0.45	215.6	276.255	6.3345	0.6194
0.45	163.8	276.256	4.75547	0.60731
0.45	562.4	280.181	17.95085	0.6942
0.45	436.6	280.171	13.47669	0.70269
0.45	336.4	280.175	10.11719	0.6599
0.45	257.8	280.175	7.59526	0.63266
0.45	197.2	280.171	5.70206	0.61577
0.45	150	280.169	4.28073	0.6085
0.45	662.3	284.097	20.81902	0.72477
0.45	515.6	284.1	15.62926	0.69748
0.45	397.4	284.101	11.73329	0.65293
0.45	304.4	284.106	8.80835	0.62304
0.45	231.9	284.111	6.61256	0.6022
0.45	176.2	284.11	4.96426	0.59391
0.45	827.4	288.072	26.61336	0.781
0.45	650.7	288.061	19.98017	0.7394
0.45	505	288.067	14.99936	0.67613
0.45	388.5	288.068	11.2604	0.63624
0.45	297	288.066	8.45356	0.60945
0.45	226.1	288.074	6.34615	0.5914
0.45	171.7	288.075	4.76422	0.58378
0.45	852.9	292.099	26.9241	0.7708
0.45	669.6	292.102	20.21247	0.72469
0.45	519.4	292.109	15.1737	0.66521
0.45	399.4	292.114	11.39114	0.6266
0.45	305.2	292.116	8.55159	0.60008
0.45	232.3	292.122	6.41979	0.58222
0.45	176.3	292.119	4.81956	0.57458
0.45	914.3	296.034	28.64909	0.76633
0.45	718.9	296.039	21.50732	0.72546
0.45	558.2	296.041	16.14604	0.66263
0.45	429.5	296.044	12.12116	0.62138
0.45	328.4	296.048	9.09958	0.59358
0.45	250.1	296.046	6.83136	0.57557
0.45	189.8	296.047	5.12847	0.55928
0.45	1155.2	300.283	37.6831	0.87036
0.45	921.7	300.297	28.28845	0.7958
0.45	722.6	300.298	21.23687	0.70499
0.45	560	300.297	15.94317	0.64767
0.45	430.2	300.298	11.96895	0.6083
0.45	328.7	300.301	8.98533	0.58428
0.45	250.1	300.299	6.74559	0.57521
0.45	1142.8	304.233	36.73157	0.81684
0.45	907.2	304.24	27.57479	0.78163
0.45	710	304.247	20.7007	0.70103
0.45	550.2	304.25	15.54044	0.64797
0.45	423.5	304.252	11.66657	0.61215
0.45	324.7	304.254	8.75837	0.58621
0.45	248	304.255	6.57513	0.57361
0.45	1234.2	308.2	38.53433	0.87954
0.45	980.9	308.206	28.92824	0.75049
0.45	766.7	308.217	21.71647	0.66933
0.45	592.6	308.217	16.30317	0.61792
0.45	454.6	308.217	12.23929	0.58475
0.45	346.6	308.223	9.18817	0.56332
0.45	263.5	308.152	6.89941	0.55154
0.45	1384.5	312.145	44.96106	0.88243
0.45	1108.9	312.162	33.75169	0.8163
0.45	873	312.165	25.33811	0.71722
0.45	679.1	312.165	19.02203	0.65372
0.45	524.7	312.179	14.27973	0.61389
0.45	403.4	312.182	10.7201	0.58555
0.45	309.2	312.186	8.04778	0.5637
0.45	1628	316.09	55.72527	1.01383
0.45	1322.4	316.106	41.83241	0.91016
0.45	1051.5	316.115	31.40388	0.77786
0.45	825.1	316.12	23.5754	0.69576
0.45	641.4	316.122	17.69861	0.64299
0.45	496.6	316.124	13.28676	0.60713
0.45	382.7	316.127	9.97465	0.58106
0.45	1636.4	320.079	52.52031	0.92928
0.45	1320	320.08	39.42835	0.83795
0.45	1044.1	320.086	29.59942	0.72199
0.45	814.3	320.094	22.22056	0.64766
0.45	628.6	320.099	16.68134	0.59889
0.45	481.7	320.099	12.52316	0.56748
0.45	367.3	320.099	9.40149	0.54902
0.5	277.7	252.296	9.2069	0.7486
0.5	215.3	252.288	6.9121	0.7109
0.5	164.9	252.28	5.1893	0.6731
0.5	125.8	252.284	3.8957	0.6537
0.5	95.7	252.286	2.9246	0.6494
0.5	314.6	256.278	10.099	0.7069
0.5	242.9	256.284	7.58146	0.68721
0.5	185.6	256.284	5.69162	0.65373
0.5	141.3	256.284	4.27286	0.63447
0.5	107.2	256.287	3.20772	0.61983
0.5	282.8	260.392	8.73987	0.67942
0.5	216.7	260.162	6.56707	0.64994
0.5	165.1	260.205	4.92963	0.62755
0.5	125.4	260.205	3.70054	0.61512
0.5	95	260.213	2.77802	0.59395
0.5	367.3	264.29	11.39553	0.69353
0.5	282.6	264.288	8.55501	0.66182
0.5	216	264.293	6.42237	0.63493
0.5	164.5	264.297	4.82138	0.61722
0.5	124.9	264.295	3.61957	0.60739
0.5	391.6	268.249	11.9637	0.66969
0.5	301.4	268.24	8.98179	0.65038
0.5	230.4	268.235	6.74301	0.62423
0.5	175.4	268.226	5.06234	0.60619
0.5	133.2	268.224	3.80047	0.5967
0.5	526.1	271.582	16.43452	0.7283
0.5	411.1	271.6	12.33704	0.69224
0.5	316.5	271.618	9.26115	0.63764
0.5	241.2	271.623	6.95248	0.60741
0.5	182.9	271.643	5.21904	0.59336
0.5	138.7	271.651	3.918	0.59265
0.5	525	276.007	16.12703	0.68161
0.5	408.6	276.08	12.10688	0.67809
0.5	314.5	276.075	9.08914	0.63561
0.5	240.8	276.074	6.8235	0.60451
0.5	182.4	276.081	5.12246	0.58413
0.5	138.3	276.077	3.84563	0.58227
0.5	626.5	280.196	20.4828	0.77097
0.5	490.7	280.199	15.37685	0.74834
0.5	382.2	280.202	11.54371	0.69146
0.5	295.2	280.2	8.66625	0.65702
0.5	228	280.201	6.50598	0.63217
0.5	176.2	280.204	4.88417	0.63513
0.5	711.7	284.108	21.54005	0.71609
0.5	555.4	284.118	16.17016	0.67669
0.5	428.3	284.127	12.13901	0.62856
0.5	327.9	284.131	9.11297	0.59887
0.5	249.8	284.133	6.84131	0.5784
0.5	189.6	284.13	5.13602	0.56404
0.5	696.9	288.194	20.5413	0.68974
0.5	541.6	288.185	15.42142	0.65274
0.5	416.8	288.183	11.57737	0.6115
0.5	318.7	288.189	8.69128	0.58403
0.5	242.5	288.182	6.52495	0.56601
0.5	184.1	288.185	4.89841	0.55437
0.5	927	291.986	28.41647	0.76685
0.5	732.8	291.995	21.33239	0.71772
0.5	569.6	292.009	16.01406	0.64445
0.5	437.9	292.007	12.02229	0.60209
0.5	334.3	292.013	9.025286	0.576468
0.5	254.3	292.012	6.7756	0.56097
0.5	193.1	292.012	5.0866	0.55457
0.5	874.4	296.064	25.96248	0.72098
0.5	684.5	296.068	19.4905	0.67734
0.5	529.9	296.067	14.63212	0.62405
0.5	407	296.072	10.98456	0.58031
0.5	311	297.076	8.24631	0.5616
0.5	236.8	296.073	6.1908	0.54852
0.5	179.9	296.075	4.64758	0.53521
0.5	961.3	299.926	28.29397	0.76177
0.5	754.7	299.924	21.24122	0.67705
0.5	585.2	299.922	15.94649	0.62012
0.5	449.9	299.923	11.97144	0.58158
0.5	343.5	299.923	8.9873	0.55601
0.5	261.1	299.92	6.74709	0.54262
0.5	198.1	299.92	5.06523	0.53994
0.5	1088.7	304.188	32.60054	0.77898
0.5	860.4	304.184	24.47447	0.70915
0.5	670.5	304.188	18.37343	0.64073
0.5	517.4	304.187	13.7935	0.59626
0.5	396.5	304.189	10.3551	0.56671
0.5	302.4	304.193	7.77376	0.54689
0.5	1188.3	308.141	37.55634	0.72714
0.5	944.9	308.126	28.19598	0.75239
0.5	742.5	308.121	21.16786	0.67996
0.5	577.6	308.124	15.89115	0.63148
0.5	447.5	308.119	11.93013	0.60724
0.5	346.4	308.118	8.95632	0.57579
0.5	266.9	308.123	6.72365	0.54735
0.5	1330.8	312.237	41.11055	0.8095
0.5	1062.8	312.231	30.86345	0.76905
0.5	835.8	312.24	23.16939	0.68273
0.5	650.6	312.244	17.39369	0.6253
0.5	502.5	312.245	13.05789	0.58535
0.5	386.2	312.242	9.80302	0.55281
0.5	293.9	312.244	7.35936	0.53251
0.5	1580.4	315.983	50.22249	0.92539
0.5	1279.9	316.07	37.69306	0.83185
0.5	1015.3	316.106	28.29402	0.71452
0.5	793.6	316.128	21.23964	0.63971
0.5	614	316.132	15.945	0.58896
0.5	471.1	316.137	11.97017	0.55503
0.5	359.6	316.141	8.98623	0.54455
0.5	1619.8	320.005	49.44345	0.87687
0.5	1304.5	320.034	37.11523	0.79126
0.5	1030.2	320.054	27.8617	0.68341
0.5	802.1	320.071	20.91546	0.61479
0.5	618.5	320.077	15.70153	0.57021
0.5	473.5	320.083	11.78736	0.54034
0.5	360.7	320.085	8.84905	0.52366
0.55	275.1	255.011	8.3897	0.6586
0.55	211.6	255.007	6.3095	0.6449
0.55	161.7	255.009	4.7449	0.6192
0.55	122.9	255.017	3.5683	0.6019
0.55	319.6	259.146	9.6189	0.6525
0.55	246.1	259.151	7.2337	0.6387
0.55	188	259.16	5.4398	0.6119
0.55	143	259.161	4.0909	0.6052
0.55	376.6	263.059	11.2936	0.6685
0.55	291.1	263.052	8.4935	0.6426
0.55	222.9	263.041	6.3877	0.6107
0.55	169.8	263.055	4.8035	0.592
0.55	128.9	263.052	3.6124	0.582
0.55	438.6	267.048	13.1279	0.6699
0.55	340.3	267.043	9.8728	0.6499
0.55	261.1	267.044	7.4247	0.6124
0.55	199.2	267.045	5.5837	0.5912
0.55	151.4	267.072	4.1987	0.5799
0.55	493	271.007	14.7211	0.6853
0.55	384.1	270.991	11.0715	0.6539
0.55	295.2	270.987	8.3263	0.611
0.55	225.5	270.984	6.2618	0.5874
0.55	171.5	270.989	4.709	0.5725
0.55	513.5	275.039	14.954	0.6737
0.55	397.9	275.043	11.2458	0.6334
0.55	305.8	275.047	8.4571	0.599
0.55	233.5	275.033	6.3604	0.5754
0.55	177.6	275.041	4.7832	0.5606
0.55	134.8	275.048	3.597	0.5505
0.55	613.4	278.978	18.0169	0.7455
0.55	478.7	279.04	13.5464	0.6459
0.55	369.2	279.061	10.1866	0.6032
0.55	282.8	279.07	7.6605	0.5765
0.55	215.4	279.077	5.7608	0.5592
0.55	163.6	279.072	4.3324	0.5475
0.55	592.4	282.993	16.8344	0.6731
0.55	459.5	282.997	12.6599	0.6314
0.55	353.3	282.989	9.521	0.5854
0.55	270	283	7.1599	0.5625
0.55	205.5	283	5.3845	0.5478
0.55	155.9	283.001	4.0493	0.5393
0.55	677.5	287.007	19.2516	0.6608
0.55	527.4	287.008	14.4779	0.6281
0.55	406.7	287.013	10.8878	0.5888
0.55	311.4	287.011	8.1881	0.562
0.55	237.2	287.018	6.1576	0.5437
0.55	180	287.019	4.6307	0.5378
0.55	851.2	290.999	24.7999	0.7053
0.55	669.4	291.007	18.65	0.6687
0.55	519.6	291.014	14.0252	0.6119
0.55	399.8	291.022	10.5472	0.5764
0.55	305.7	291.03	7.9316	0.5521
0.55	232.6	291.038	5.9647	0.5406
0.55	881.4	295.065	25.2378	0.702
0.55	692.2	295.062	18.98	0.6576
0.55	537	295.06	14.2738	0.6038
0.55	413.2	295.081	10.7336	0.5683
0.55	315.8	295.074	8.0723	0.5436
0.55	240.3	295.08	6.0706	0.5305
0.55	1039.9	299.033	30.269	0.7386
0.55	824.2	299.044	22.7626	0.6895
0.55	642.9	299.045	17.1183	0.6208
0.55	496.4	299.044	12.8736	0.5786
0.55	380.6	299.044	9.6815	0.5492
0.55	290.2	299.044	7.2808	0.5292
0.55	220.4	299.043	5.4755	0.5184
0.55	1078.8	303.018	30.8763	0.6873
0.55	853.2	303.01	23.2201	0.6765
0.55	665.4	303.011	17.4628	0.6124
0.55	513.7	303.015	13.1325	0.5581
0.55	393.7	303.02	9.876	0.5409
0.55	300.2	303.019	7.4272	0.5218
0.55	228	303.013	5.5856	0.5121
0.55	1095.4	306.958	36.0371	0.582
0.55	865	306.968	27.1004	0.8006
0.55	673.4	306.973	20.3802	0.7268
0.55	519.6	306.982	15.3262	0.8204
0.55	449.3	306.975	11.5262	0.6859
0.55	343.1	306.975	8.6681	0.5342
0.55	260.5	306.974	6.5188	0.5521
0.55	1334.9	311.018	38.9056	0.8168
0.55	1067.2	311.023	29.258	0.7209
0.55	837.9	311.025	22.003	0.636
0.55	650.6	311.027	16.547	0.5823
0.55	500.4	311.025	12.444	0.5477
0.55	383.5	311.025	9.3582	0.529
0.55	1366.4	315.06	38.9077	0.7656
0.55	1090.2	315.055	29.2605	0.703
0.55	855	315.06	22.0047	0.622
0.55	663.2	315.068	16.5479	0.5702
0.55	509.9	315.074	12.4444	0.535
0.55	389.6	315.085	9.3584	0.5122
0.55	296.5	315.092	7.0377	0.5017
0.6	242.1	255.022	7.0088	0.617
0.6	185.5	255.025	5.2708	0.6068
0.6	141.3	255.03	3.9638	0.5873
0.6	107.3	255.031	2.9809	0.5763
0.6	273.1	259.041	7.7791	0.6166
0.6	209.2	259.044	5.8501	0.5944
0.6	159.4	259.044	4.3995	0.5755
0.6	121	259.048	3.3086	0.5733
0.6	371.3	263.066	10.733	0.6367
0.6	286.9	263.052	8.072	0.62
0.6	219.6	263.053	6.0704	0.5894
0.6	167.2	263.058	4.5651	0.5814
0.6	405.7	267.076	11.5178	0.6453
0.6	313.2	267.067	8.6621	0.6082
0.6	239.8	267.066	6.5142	0.5795
0.6	182.7	267.07	4.8989	0.5613
0.6	138.6	267.072	3.6841	0.5448
0.6	466.5	271.039	13.2292	0.6492
0.6	361.5	271.08	9.9474	0.611
0.6	277.5	271.098	7.4803	0.579
0.6	211.6	271.099	5.6254	0.5579
0.6	160.8	271.099	4.2305	0.5422
0.6	514	275.015	14.4598	0.6316
0.6	398.5	275.014	10.8743	0.6121
0.6	306	275.01	8.178	0.5783
0.6	233.7	275.022	6.1499	0.5639
0.6	577.6	279.059	16.1046	0.6513
0.6	448.9	279.056	12.1114	0.6114
0.6	345.5	279.055	9.1083	0.5754
0.6	264.1	279.054	6.8498	0.5513
0.6	201	279.054	5.1513	0.5346
0.6	152.4	279.055	3.874	0.5263
0.6	629.9	282.98	18.4329	0.213
0.6	514.9	282.961	16.8632	0.7314
0.6	397.4	282.975	10.4251	0.8915
0.6	304.4	282.989	7.8397	0.5525
0.6	232	282.992	5.8957	0.5342
0.6	176.1	282.999	4.4337	0.5257
0.6	730.6	287.013	20.2911	0.6556
0.6	571.1	287.007	15.26	0.6238
0.6	441.6	287.019	11.4756	0.5786
0.6	338.5	287.013	8.6303	0.5498
0.6	258.3	287.008	6.4904	0.5309
0.6	196.2	287.005	4.8811	0.5217
0.6	818.1	291.039	22.6914	0.6667
0.6	642.6	291.055	17.0639	0.6284
0.6	497.9	291.044	12.8332	0.572
0.6	382.5	291.04	9.6512	0.548
0.6	292.1	291.039	7.2581	0.5264
0.6	222.1	291.044	5.4582	0.5116
0.6	168.3	291.04	4.1049	0.5042
0.6	820	295.069	22.1527	0.6517
0.6	641.4	295.07	16.6596	0.6098
0.6	496	295.063	12.529	0.563
0.6	380.5	295.082	9.4217	0.5337
0.6	290.3	295.086	7.0853	0.5141
0.6	220.6	295.079	5.3286	0.5002
0.6	167	295.084	4.0072	0.4941
0.6	922.6	299.059	24.9906	0.6569
0.6	724.4	299.042	18.7949	0.6215
0.6	561.9	299.041	14.1346	0.5708
0.6	432.1	299.043	10.6297	0.5373
0.6	330.1	299.038	7.994	0.5144
0.6	251	299.039	6.0118	0.4996
0.6	190.4	299.035	4.5212	0.4874
0.6	1092.1	303.111	30.2268	0.7052
0.6	865.6	303.1	22.7325	0.6573
0.6	675.5	303.102	17.0956	0.5922
0.6	521.7	303.101	12.8566	0.5495
0.6	399.8	303.099	9.6687	0.5216
0.6	304.9	303.097	7.2713	0.5031
0.6	231.6	303.098	5.4683	0.4908
0.6	1304.3	307.04	37.3883	0.7785
0.6	1046.1	307.055	28.116	0.7267
0.6	823.4	307.051	21.1446	0.646
0.6	640	307.062	15.901	0.5883
0.6	492.8	307.056	11.9584	0.55
0.6	376.9	307.061	8.993	0.5097
0.6	286.9	307.063	6.763	0.4912
0.6	1343.8	311.064	37.8297	0.764
0.6	1076.1	311.071	28.4489	0.7002
0.6	846.4	311.068	21.3948	0.6154
0.6	657.2	311.071	16.0896	0.5626
0.6	505.8	311.074	12.1	0.5275
0.6	386.9	311.073	9.1	0.5036
0.6	294.6	311.075	6.8432	0.4921
0.6	1341.8	315.096	36.5492	0.7267
0.6	1068.9	315.091	27.4868	0.6691
0.6	837.4	315.096	20.6708	0.5936
0.6	648.9	315.097	15.5452	0.5454
0.6	498.6	315.104	11.6903	0.5129
0.6	380.8	315.106	8.7915	0.4913
0.6	289.6	315.104	6.6116	0.4752
0.65	251.7	254.942	7.0741	0.6014
0.65	193.1	254.939	5.32	0.5908
0.65	147.3	254.94	4.0008	0.5723
0.65	111.9	254.947	3.0009	0.5654
0.65	308.1	259.001	8.6533	0.6119
0.65	237.5	258.985	6.508	0.5967
0.65	181.5	258.982	4.8943	0.571
0.65	138.2	258.988	3.6806	0.5622
0.65	308.7	263.012	8.4537	0.5951
0.65	237	263.011	6.3575	0.578
0.65	181	263.016	4.781	0.5578
0.65	137.7	263.015	3.5955	0.5453
0.65	375.8	267.012	10.2907	0.5993
0.65	289.8	266.99	7.7396	0.5842
0.65	221.7	267.011	5.82	0.5589
0.65	169	267.025	4.3767	0.5433
0.65	128.5	267.02	3.2915	0.5374
0.65	409.9	271.051	11.0926	0.5934
0.65	316.1	271.026	8.3428	0.5792
0.65	242.2	271.031	6.274	0.5543
0.65	184.7	271.038	4.7181	0.5381
0.65	140.5	271.032	3.5483	0.5313
0.65	438.6	275.058	11.682	0.5847
0.65	338.2	275.046	8.7857	0.5701
0.65	259	275.041	6.6072	0.5459
0.65	197.5	275.049	4.9688	0.5296
0.65	150.2	275.063	3.7365	0.5224
0.65	555.1	279.004	14.9493	0.6094
0.65	431	278.994	11.2429	0.5892
0.65	331.6	278.998	8.4549	0.5549
0.65	253.6	279	6.3584	0.533
0.65	193.1	278.996	4.7818	0.5232
0.65	653.6	283.002	17.6674	0.6284
0.65	510.2	282.993	13.287	0.6074
0.65	393.8	282.997	9.9922	0.5605
0.65	301.9	282.994	7.5146	0.5345
0.65	230.2	283	5.6511	0.5168
0.65	175	283.008	4.2497	0.5088
0.65	768.5	287.002	20.9537	0.6529
0.65	603.8	287.01	15.7575	0.6193
0.65	467.8	287.017	11.85	0.5693
0.65	359.7	287.022	8.9115	0.5386
0.65	274.8	287.015	6.7019	0.5169
0.65	209	287.016	5.0401	0.506
0.65	675.9	291.079	17.4564	0.5983
0.65	525	291.061	13.1287	0.569
0.65	404.2	291.061	9.8733	0.5347
0.65	309.1	291.064	7.425	0.512
0.65	235.4	291.064	5.5839	0.497
0.65	178.7	291.065	4.1993	0.4896
0.65	929.7	295.084	25.1362	0.6679
0.65	733.9	295.087	18.9032	0.6296
0.65	571.2	295.089	14.2158	0.5724
0.65	440.4	295.101	10.6904	0.535
0.65	337.1	295.109	8.0394	0.5106
0.65	256.9	295.119	6.0457	0.4942
0.65	195	295.116	4.5466	0.4883
0.65	880.4	299.064	22.8543	0.622
0.65	689.6	299.058	17.1876	0.5917
0.65	534.3	299.048	12.9262	0.5457
0.65	410.5	299.052	9.7208	0.5151
0.65	313.5	299.051	7.3105	0.4947
0.65	238.4	299.052	5.4977	0.4811
0.65	180.8	299.053	4.1345	0.4745
0.65	991	303.028	25.7988	0.6416
0.65	780	303.01	19.4028	0.6033
0.65	605.7	303	14.5921	0.5511
0.65	466.3	302.997	10.974	0.5173
0.65	356.7	302.998	8.2528	0.4942
0.65	271.6	303	6.2064	0.4773
0.65	206	302.995	4.6675	0.4707
0.65	1113.5	306.995	29.2029	0.6654
0.65	880.8	306.974	21.9632	0.6212
0.65	686.8	306.972	16.5173	0.5607
0.65	530	306.965	12.4219	0.5218
0.65	406.3	306.961	9.3418	0.4957
0.65	309.8	306.958	7.0255	0.478
0.65	235.2	306.963	5.2834	0.469
0.65	1206.7	311.009	31.545	0.6752
0.65	956.7	311.013	23.7227	0.6272
0.65	747.3	311.015	17.8403	0.5631
0.65	577.7	311.018	13.4164	0.5208
0.65	443.1	311.023	10.0895	0.4926
0.65	338	311.016	7.5979	0.4645
0.65	256.8	311.018	5.8063	0.4437
0.65	1280.7	315.009	33.3212	0.6823
0.65	1017.2	315.01	25.0585	0.6306
0.65	795.5	315.011	18.8451	0.5633
0.65	615.4	315.014	14.1721	0.5202
0.65	472.6	315.018	10.6578	0.4916
0.65	360.8	315.02	8.015	0.4681
0.65	274.4	315.022	6.0676	0.4534

System: propane + 1,1,1,2-tetrafluoroethane; phases: Gas, Liquid
Property: Vapor or sublimation pressure, kPa (Gas); method: Closed cell (Static) method
Temperature, K	Mass fraction of propane	Vapor or sublimation pressure, kPa	uncertainty
252.03	0.4	282.5	20
255.986	0.4	322	20
260.206	0.4	343.2	20
264.044	0.4	436.3	20
268.079	0.4	490.2	20.1
272.185	0.4	565.9	20.1
276.18	0.4	638.6	20.1
280.033	0.4	713	20.1
284.034	0.4	800.7	20.1
288.003	0.4	889.6	20.2
292.069	0.4	1003.4	20.2
296.166	0.4	1115.7	20.3
300.051	0.4	1228.1	20.3
304.114	0.4	1363.6	20.4
308.263	0.4	1510	20.5
312.116	0.4	1649.5	20.6
316.034	0.4	1795.5	20.7
319.989	0.4	1966.3	20.8
251.98	0.45	286	20
255.897	0.45	330.9	20
260.17	0.45	386.6	20
264.09	0.45	440.8	20
268.161	0.45	492.8	20.1
272.146	0.45	565	20.1
276.261	0.45	643.4	20.1
280.212	0.45	710.8	20.1
284.111	0.45	802	20.1
288.07	0.45	886.5	20.2
292.114	0.45	1005.6	20.2
296.052	0.45	1111	20.3
300.305	0.45	1240.9	20.3
304.247	0.45	1358.2	20.4
308.219	0.45	1495.9	20.5
312.177	0.45	1647.3	20.6
316.116	0.45	1801.2	20.7
320.071	0.45	1958.8	20.8
252.349	0.5	292.1	20
256.321	0.5	334	20
260.176	0.5	384.1	20
264.311	0.5	438.3	20
268.282	0.5	493	20.1
271.605	0.5	558.1	20.1
276.095	0.5	638.2	20.1
280.209	0.5	716.9	20.1
284.121	0.5	806.8	20.1
288.208	0.5	878.1	20.2
292.014	0.5	1002.5	20.2
296.084	0.5	1093	20.2
299.942	0.5	1196.9	20.3
304.196	0.5	1341.6	20.4
308.175	0.5	1461.5	20.4
312.251	0.5	1614.2	20.5
315.61	0.5	1759	20.7
319.947	0.5	1941.1	20.8
255.02	0.55	315	20
259.144	0.55	365.7	20
263.087	0.55	418.8	20
267.036	0.55	480	20
271.028	0.55	543.1	20.1
275.074	0.55	613	20.1
279.011	0.55	689.8	20.1
283.011	0.55	749	20.1
287.025	0.55	849.3	20.2
291.022	0.55	962.4	20.2
295.077	0.55	1061.9	20.2
299.075	0.55	1184.7	20.3
303.039	0.55	1301.7	20.4
306.958	0.55	1428.9	20.4
311.039	0.55	1577.2	20.5
315.08	0.55	1670.5	20.6
255.033	0.6	305.5	20
259.051	0.6	347.2	20
263.101	0.6	414.6	20
267.117	0.6	471.6	20.1
271.077	0.6	534.1	20.1
275.04	0.6	602.4	20.1
279.092	0.6	679.1	20.1
283.023	0.6	760.8	20.1
287.055	0.6	849.3	20.2
291.084	0.6	947.9	20.2
295.076	0.6	1061.9	20.2
299.088	0.6	1146.4	20.3
303.132	0.6	1287.1	20.4
307.081	0.6	1422.6	20.4
311.098	0.6	1552.6	20.5
315.085	0.6	1643.5	20.6
254.957	0.65	300.8	20
259.013	0.65	352.1	20
263.021	0.65	391.1	20
267.016	0.65	454.5	20.1
271.071	0.65	509.8	20.1
275.067	0.65	560.6	20.1
279.032	0.65	663.5	20.1
283.04	0.65	746.5	20.1
287.033	0.65	836.1	20.2
291.079	0.65	907.3	20.2
295.114	0.65	1035.9	20.3
299.071	0.65	1101.2	20.3
303.079	0.65	1231.1	20.4
307.032	0.65	1368.5	20.4
311.024	0.65	1484.9	20.5
