Measured thermophysical data. Thermophysical properties of 1,2,4-trimethylbenzene in admixtures with 1-butanol or 2-butanol at high pressures
Source: J. Chem. Thermodyn., 2017, 10.1016/j.jct.2017.03.006
Compound 1: butan-1-ol, C4H10O, InChI=1S/C4H10O/c1-2-3-4-5/h5H,2-4H2,1H3, purity 99.9%
Compound 2: butan-2-ol, C4H10O, InChI=1S/C4H10O/c1-3-4(2)5/h4-5H,3H2,1-2H3, purity 99.7%
Compound 3: 1,2,4-trimethylbenzene, C9H12, InChI=1S/C9H12/c1-7-4-5-8(2)9(3)6-7/h4-6H,1-3H3, purity 99.7%

System: butan-1-ol; phases: Liquid
Fixed: Pressure, kPa = 100
Property: Viscosity, Pa*s (Liquid); method: Concentric cylinders viscometry
Temperature, K	Viscosity, Pa*s	uncertainty
323.15	0.001406	2.9e-05
333.15	0.001134	2.4e-05

System: butan-2-ol; phases: Liquid
Property: Mass density, kg/m3 (Liquid); method: Vibrating tube method
Pressure, kPa	Temperature, K	Mass density, kg/m3	uncertainty
100	273.15	822.3	0.7
1000	273.15	822.7	0.7
2000	273.15	823.4	0.7
5000	273.15	825.4	0.7
10000	273.15	828.7	0.7
15000	273.15	831.8	0.7
20000	273.15	834.7	0.7
30000	273.15	840.4	0.8
40000	273.15	845.7	0.8
50000	273.15	850.7	0.8
60000	273.15	855.4	0.8
70000	273.15	859.9	0.8
80000	273.15	864.3	0.8
90000	273.15	868.4	0.9
100000	273.15	872.4	0.9
110000	273.15	876.3	0.9
120000	273.15	879.9	0.9
130000	273.15	883.5	0.9
140000	273.15	887.2	0.9
100	293.15	806.3	0.7
1000	293.15	807	0.7
2000	293.15	807.8	0.7
5000	293.15	810	0.7
10000	293.15	813.6	0.7
15000	293.15	817	0.7
20000	293.15	820.2	0.7
30000	293.15	826.5	0.8
40000	293.15	832.3	0.8
50000	293.15	837.7	0.8
60000	293.15	842.8	0.8
70000	293.15	847.7	0.8
80000	293.15	852.3	0.9
90000	293.15	856.7	0.9
100000	293.15	860.9	0.9
110000	293.15	865	0.9
120000	293.15	868.8	1
130000	293.15	872.7	1
140000	293.15	876.3	1
100	313.15	789.4	0.7
1000	313.15	790.1	0.7
2000	313.15	791	0.7
5000	313.15	793.5	0.7
10000	313.15	797.5	0.7
15000	313.15	801.4	0.7
20000	313.15	805.1	0.7
30000	313.15	811.9	0.8
40000	313.15	818.3	0.8
50000	313.15	824.1	0.8
60000	313.15	829.6	0.8
70000	313.15	835	0.9
80000	313.15	839.9	0.9
90000	313.15	844.6	0.9
100000	313.15	849	0.9
110000	313.15	853.3	1
120000	313.15	857.5	1
130000	313.15	861.5	1
140000	313.15	865.4	1
100	333.15	770.7	0.7
1000	333.15	771.6	0.7
2000	333.15	772.6	0.7
5000	333.15	775.5	0.7
10000	333.15	780.1	0.7
15000	333.15	784.4	0.7
20000	333.15	788.6	0.7
30000	333.15	796.2	0.8
40000	333.15	803.2	0.8
50000	333.15	809.6	0.8
60000	333.15	815.7	0.9
70000	333.15	821.4	0.9
80000	333.15	826.7	0.9
90000	333.15	831.8	0.9
100000	333.15	836.6	1
110000	333.15	841.2	1
120000	333.15	845.5	1
130000	333.15	849.8	1.1
140000	333.15	853.9	1.1

System: butan-2-ol; phases: Liquid
Property: Molar heat capacity at constant pressure, J/K/mol (Liquid); method: Flow calorimetry
Temperature, K	Pressure, kPa	Molar heat capacity at constant pressure, J/K/mol	uncertainty
293.15	100	189.1	2.7
293.15	5000	187.1	2.6
293.15	10000	185.5	2.6
293.15	15000	185.2	2.6
293.15	20000	183.6	2.6
293.15	25000	182.7	2.6
313.15	100	214.9	3
313.15	5000	213.1	3
313.15	10000	211.1	3
313.15	15000	209.4	2.9
313.15	20000	207.2	2.9
313.15	25000	204.9	2.9

System: butan-2-ol; phases: Liquid
Fixed: Pressure, kPa = 100
Property: Viscosity, Pa*s (Liquid); method: Concentric cylinders viscometry
Temperature, K	Viscosity, Pa*s	uncertainty
293.15	0.003725	7.6e-05
303.15	0.002555	5.3e-05
313.15	0.001814	3.8e-05
323.15	0.001331	2.8e-05
333.15	0.001007	2.1e-05

System: 1,2,4-trimethylbenzene; phases: Liquid
Property: Mass density, kg/m3 (Liquid); method: Vibrating tube method
Temperature, K	Pressure, kPa	Mass density, kg/m3	uncertainty
273.15	100	891.7	0.7
273.15	1000	892.3	0.7
273.15	2000	892.9	0.7
273.15	5000	894.6	0.7
273.15	10000	897.4	0.7
273.15	15000	900.2	0.7
273.15	20000	902.8	0.7
273.15	30000	908	0.7
273.15	40000	912.9	0.7
273.15	50000	917.5	0.7
273.15	60000	921.9	0.7
273.15	70000	926.2	0.7
273.15	80000	930.3	0.8
273.15	90000	934.2	0.8
273.15	100000	938	0.8
273.15	110000	941.7	0.8
273.15	120000	945.2	0.8
273.15	130000	948.6	0.8
273.15	140000	952	0.8
283.15	100	883.3	0.7
283.15	1000	883.9	0.7
283.15	2000	884.5	0.7
283.15	5000	886.3	0.7
283.15	10000	889.3	0.7
283.15	15000	892.2	0.7
283.15	20000	895	0.7
283.15	30000	900.3	0.7
283.15	40000	905.4	0.7
283.15	50000	910.2	0.7
283.15	60000	914.8	0.7
283.15	70000	919.3	0.8
283.15	80000	923.5	0.8
283.15	90000	927.5	0.8
283.15	100000	931.4	0.8
283.15	110000	935.2	0.8
283.15	120000	938.9	0.8
283.15	130000	942.4	0.8
283.15	140000	945.8	0.8
293.15	100	875.1	0.7
293.15	1000	875.7	0.7
293.15	2000	876.3	0.7
293.15	5000	878.2	0.7
293.15	10000	881.4	0.7
293.15	15000	884.4	0.7
293.15	20000	887.3	0.7
293.15	30000	892.9	0.7
293.15	40000	898.2	0.7
293.15	50000	903.2	0.7
293.15	60000	908	0.8
293.15	70000	912.6	0.8
293.15	80000	916.9	0.8
293.15	90000	921.1	0.8
293.15	100000	925.1	0.8
293.15	110000	929	0.8
293.15	120000	932.8	0.8
293.15	130000	936.4	0.8
293.15	140000	939.9	0.8
303.15	100	867	0.7
303.15	1000	867.6	0.7
303.15	2000	868.3	0.7
303.15	5000	870.3	0.7
303.15	10000	873.6	0.7
303.15	15000	876.8	0.7
303.15	20000	879.8	0.7
303.15	30000	885.7	0.7
303.15	40000	891.2	0.7
303.15	50000	896.4	0.7
303.15	60000	901.4	0.8
303.15	70000	906.1	0.8
303.15	80000	910.6	0.8
303.15	90000	914.9	0.8
303.15	100000	919.1	0.8
303.15	110000	923.1	0.8
303.15	120000	927	0.8
303.15	130000	930.7	0.8
303.15	140000	934.3	0.8
313.15	100	859	0.7
313.15	1000	859.7	0.7
313.15	2000	860.4	0.7
313.15	5000	862.6	0.7
313.15	10000	866	0.7
313.15	15000	869.3	0.7
313.15	20000	872.6	0.7
313.15	30000	878.7	0.7
313.15	40000	884.5	0.7
313.15	50000	889.9	0.8
313.15	60000	895	0.8
313.15	70000	899.9	0.8
313.15	80000	904.6	0.8
313.15	90000	909	0.8
313.15	100000	913.3	0.8
313.15	110000	917.4	0.8
313.15	120000	921.4	0.8
313.15	130000	925.2	0.8
313.15	140000	928.9	0.8
323.15	100	851.3	0.7
323.15	1000	852	0.7
323.15	2000	852.7	0.7
323.15	5000	855	0.7
323.15	10000	858.6	0.7
323.15	15000	862.1	0.7
323.15	20000	865.5	0.7
323.15	30000	871.9	0.7
323.15	40000	877.9	0.7
323.15	50000	883.5	0.8
323.15	60000	888.9	0.8
323.15	70000	894	0.8
323.15	80000	898.8	0.8
323.15	90000	903.4	0.8
323.15	100000	907.8	0.8
323.15	110000	912	0.8
323.15	120000	916.1	0.8
323.15	130000	920	0.8
323.15	140000	923.8	0.8
333.15	100	843.6	0.7
333.15	1000	844.4	0.7
333.15	2000	845.2	0.7
333.15	5000	847.6	0.7
333.15	10000	851.4	0.7
333.15	15000	855.1	0.7
333.15	20000	858.6	0.7
333.15	30000	865.3	0.7
333.15	40000	871.6	0.8
333.15	50000	877.4	0.8
333.15	60000	883	0.8
333.15	70000	888.2	0.8
333.15	80000	893.2	0.8
333.15	90000	898	0.8
333.15	100000	902.5	0.8
333.15	110000	906.9	0.8
333.15	120000	911.1	0.8
333.15	130000	915.1	0.8
333.15	140000	919	0.8

System: 1,2,4-trimethylbenzene; phases: Liquid
Property: Molar heat capacity at constant pressure, J/K/mol (Liquid); method: Flow calorimetry
Temperature, K	Pressure, kPa	Molar heat capacity at constant pressure, J/K/mol	uncertainty
293.15	100	216.2	3
293.15	5000	215	3
293.15	10000	213.3	3
293.15	15000	212.5	3
293.15	20000	210.8	3
293.15	25000	209.8	3
313.15	100	222.5	3.1
313.15	5000	221.2	3.1
313.15	10000	219.6	3.1
313.15	15000	218.5	3.1
313.15	20000	217.7	3.1
313.15	25000	217.1	3.1
333.15	100	229.2	3.2
333.15	5000	227.9	3.2
333.15	10000	227.1	3.2
333.15	15000	225.9	3.2
333.15	20000	224.8	3.2
333.15	25000	223.5	3.1

System: 1,2,4-trimethylbenzene; phases: Liquid
Fixed: Pressure, kPa = 100
Property: Viscosity, Pa*s (Liquid); method: Concentric cylinders viscometry
Temperature, K	Viscosity, Pa*s	uncertainty
293.15	0.000888	1.9e-05
303.15	0.000779	1.7e-05
313.15	0.000692	1.5e-05
323.15	0.00062	1.4e-05
333.15	0.000562	1.2e-05

System: butan-2-ol + 1,2,4-trimethylbenzene; phases: Liquid
Property: Mass density, kg/m3 (Liquid); method: Vibrating tube method
Temperature, K	Pressure, kPa	Mole fraction of butan-2-ol	Mass density, kg/m3	uncertainty
273.15	100	0.1	885.9	0.7
273.15	1000	0.1	886.3	0.7
273.15	2000	0.1	886.9	0.7
273.15	5000	0.1	888.8	0.7
273.15	10000	0.1	891.8	0.7
273.15	15000	0.1	894.6	0.7
273.15	20000	0.1	897.4	0.7
273.15	30000	0.1	902.7	0.7
273.15	40000	0.1	907.8	0.7
273.15	50000	0.1	912.6	0.7
273.15	60000	0.1	917.1	0.7
273.15	70000	0.1	921.5	0.8
273.15	80000	0.1	925.7	0.8
273.15	90000	0.1	929.8	0.8
273.15	100000	0.1	933.7	0.8
273.15	110000	0.1	937.6	0.8
273.15	120000	0.1	941.3	0.8
273.15	130000	0.1	944.9	0.8
273.15	140000	0.1	948.2	0.8
293.15	100	0.1	869.3	0.7
293.15	1000	0.1	869.9	0.7
293.15	2000	0.1	870.6	0.7
293.15	5000	0.1	872.7	0.7
293.15	10000	0.1	875.9	0.7
293.15	15000	0.1	879	0.7
293.15	20000	0.1	882.1	0.7
293.15	30000	0.1	887.9	0.7
293.15	40000	0.1	893.4	0.7
293.15	50000	0.1	898.6	0.7
293.15	60000	0.1	903.6	0.8
293.15	70000	0.1	908.3	0.8
293.15	80000	0.1	912.9	0.8
293.15	90000	0.1	917.2	0.8
293.15	100000	0.1	921.4	0.8
293.15	110000	0.1	925.4	0.8
293.15	120000	0.1	929.3	0.8
293.15	130000	0.1	933.1	0.8
293.15	140000	0.1	936.7	0.8
313.15	100	0.1	852.6	0.7
313.15	1000	0.1	853.3	0.7
313.15	2000	0.1	854.1	0.7
313.15	5000	0.1	856.3	0.7
313.15	10000	0.1	860	0.7
313.15	15000	0.1	863.5	0.7
313.15	20000	0.1	866.8	0.7
313.15	30000	0.1	873.2	0.7
313.15	40000	0.1	879.2	0.7
313.15	50000	0.1	884.8	0.8
313.15	60000	0.1	890.1	0.8
313.15	70000	0.1	895.3	0.8
313.15	80000	0.1	900.1	0.8
313.15	90000	0.1	904.7	0.8
313.15	100000	0.1	909.2	0.8
313.15	110000	0.1	913.5	0.8
313.15	120000	0.1	917.6	0.8
313.15	130000	0.1	921.5	0.8
313.15	140000	0.1	925.4	0.8
333.15	100	0.1	835.7	0.7
333.15	1000	0.1	836.5	0.7
333.15	2000	0.1	837.4	0.7
333.15	5000	0.1	840	0.7
333.15	10000	0.1	843.9	0.7
333.15	15000	0.1	847.9	0.7
333.15	20000	0.1	851.6	0.7
333.15	30000	0.1	858.6	0.7
333.15	40000	0.1	865.1	0.8
333.15	50000	0.1	871.2	0.8
333.15	60000	0.1	876.9	0.8
333.15	70000	0.1	882.5	0.8
333.15	80000	0.1	887.6	0.8
333.15	90000	0.1	892.5	0.8
333.15	100000	0.1	897.2	0.8
333.15	110000	0.1	901.8	0.8
333.15	120000	0.1	906.1	0.8
333.15	130000	0.1	910.3	0.9
333.15	140000	0.1	914.3	0.9
273.15	100	0.1989	880.3	0.7
273.15	1000	0.1989	880.7	0.7
273.15	2000	0.1989	881.3	0.7
273.15	5000	0.1989	883.2	0.7
273.15	10000	0.1989	886.2	0.7
273.15	15000	0.1989	889.1	0.7
273.15	20000	0.1989	891.9	0.7
273.15	30000	0.1989	897.3	0.7
273.15	40000	0.1989	902.4	0.7
273.15	50000	0.1989	907.2	0.7
273.15	60000	0.1989	911.9	0.7
273.15	70000	0.1989	916.2	0.8
273.15	80000	0.1989	920.6	0.8
273.15	90000	0.1989	924.7	0.8
273.15	100000	0.1989	928.6	0.8
273.15	110000	0.1989	932.5	0.8
273.15	120000	0.1989	936.2	0.8
273.15	130000	0.1989	939.9	0.8
273.15	140000	0.1989	943.3	0.8
293.15	100	0.1989	863.6	0.7
293.15	1000	0.1989	864.2	0.7
293.15	2000	0.1989	864.9	0.7
293.15	5000	0.1989	867	0.7
293.15	10000	0.1989	870.3	0.7
293.15	15000	0.1989	873.4	0.7
293.15	20000	0.1989	876.5	0.7
293.15	30000	0.1989	882.4	0.7
293.15	40000	0.1989	888	0.7
293.15	50000	0.1989	893.2	0.8
293.15	60000	0.1989	898.3	0.8
293.15	70000	0.1989	903	0.8
293.15	80000	0.1989	907.6	0.8
293.15	90000	0.1989	912	0.8
293.15	100000	0.1989	916.2	0.8
293.15	110000	0.1989	920.3	0.8
293.15	120000	0.1989	924.2	0.8
293.15	130000	0.1989	928	0.8
293.15	140000	0.1989	931.6	0.8
313.15	100	0.1989	846.6	0.7
313.15	1000	0.1989	847.2	0.7
313.15	2000	0.1989	848	0.7
313.15	5000	0.1989	850.3	0.7
313.15	10000	0.1989	854.1	0.7
313.15	15000	0.1989	857.6	0.7
313.15	20000	0.1989	861	0.7
313.15	30000	0.1989	867.5	0.7
313.15	40000	0.1989	873.5	0.8
313.15	50000	0.1989	879.3	0.8
313.15	60000	0.1989	884.6	0.8
313.15	70000	0.1989	889.7	0.8
313.15	80000	0.1989	894.7	0.8
313.15	90000	0.1989	899.4	0.8
313.15	100000	0.1989	903.8	0.8
313.15	110000	0.1989	908.1	0.8
313.15	120000	0.1989	912.3	0.8
313.15	130000	0.1989	916.3	0.8
313.15	140000	0.1989	920.2	0.8
333.15	100	0.1989	829.2	0.7
333.15	1000	0.1989	830	0.7
333.15	2000	0.1989	830.9	0.7
333.15	5000	0.1989	833.5	0.7
333.15	10000	0.1989	837.6	0.7
333.15	15000	0.1989	841.6	0.7
333.15	20000	0.1989	845.4	0.7
333.15	30000	0.1989	852.5	0.7
333.15	40000	0.1989	859.1	0.8
333.15	50000	0.1989	865.3	0.8
333.15	60000	0.1989	871.1	0.8
333.15	70000	0.1989	876.6	0.8
333.15	80000	0.1989	881.9	0.8
333.15	90000	0.1989	886.9	0.8
333.15	100000	0.1989	891.7	0.8
333.15	110000	0.1989	896.2	0.9
333.15	120000	0.1989	900.7	0.9
333.15	130000	0.1989	904.9	0.9
333.15	140000	0.1989	909.1	0.9
273.15	100	0.3011	874.4	0.7
273.15	1000	0.3011	874.7	0.7
273.15	2000	0.3011	875.4	0.7
273.15	5000	0.3011	877.3	0.7
273.15	10000	0.3011	880.4	0.7
273.15	15000	0.3011	883.3	0.7
273.15	20000	0.3011	886.1	0.7
273.15	30000	0.3011	891.6	0.7
273.15	40000	0.3011	896.7	0.7
273.15	50000	0.3011	901.6	0.7
273.15	60000	0.3011	906.2	0.8
273.15	70000	0.3011	910.7	0.8
273.15	80000	0.3011	915	0.8
273.15	90000	0.3011	919.1	0.8
273.15	100000	0.3011	923.1	0.8
273.15	110000	0.3011	927	0.8
273.15	120000	0.3011	930.8	0.8
273.15	130000	0.3011	934.4	0.8
273.15	140000	0.3011	937.6	0.8
293.15	100	0.3011	857.4	0.7
293.15	1000	0.3011	858	0.7
293.15	2000	0.3011	858.8	0.7
293.15	5000	0.3011	860.9	0.7
293.15	10000	0.3011	864.2	0.7
293.15	15000	0.3011	867.5	0.7
293.15	20000	0.3011	870.6	0.7
293.15	30000	0.3011	876.6	0.7
293.15	40000	0.3011	882.2	0.7
293.15	50000	0.3011	887.5	0.8
293.15	60000	0.3011	892.5	0.8
293.15	70000	0.3011	897.3	0.8
293.15	80000	0.3011	902	0.8
293.15	90000	0.3011	906.4	0.8
293.15	100000	0.3011	910.6	0.8
293.15	110000	0.3011	914.8	0.8
293.15	120000	0.3011	918.7	0.8
293.15	130000	0.3011	922.6	0.8
293.15	140000	0.3011	926	0.8
313.15	100	0.3011	840.2	0.7
313.15	1000	0.3011	840.9	0.7
313.15	2000	0.3011	841.7	0.7
313.15	5000	0.3011	844.1	0.7
313.15	10000	0.3011	847.9	0.7
313.15	15000	0.3011	851.5	0.7
313.15	20000	0.3011	854.9	0.7
313.15	30000	0.3011	861.5	0.7
313.15	40000	0.3011	867.6	0.8
313.15	50000	0.3011	873.4	0.8
313.15	60000	0.3011	878.8	0.8
313.15	70000	0.3011	884.1	0.8
313.15	80000	0.3011	889	0.8
313.15	90000	0.3011	893.6	0.8
313.15	100000	0.3011	898.1	0.8
313.15	110000	0.3011	902.5	0.8
313.15	120000	0.3011	906.7	0.8
313.15	130000	0.3011	910.7	0.9
313.15	140000	0.3011	914.4	0.9
333.15	100	0.3011	822.5	0.7
333.15	1000	0.3011	823.3	0.7
333.15	2000	0.3011	824.2	0.7
333.15	5000	0.3011	826.9	0.7
333.15	10000	0.3011	831.1	0.7
333.15	15000	0.3011	835.1	0.7
333.15	20000	0.3011	839	0.7
333.15	30000	0.3011	846.2	0.7
333.15	40000	0.3011	852.9	0.8
333.15	50000	0.3011	859.2	0.8
333.15	60000	0.3011	865.1	0.8
333.15	70000	0.3011	870.6	0.8
333.15	80000	0.3011	875.9	0.8
333.15	90000	0.3011	881	0.8
333.15	100000	0.3011	885.8	0.9
333.15	110000	0.3011	890.5	0.9
333.15	120000	0.3011	894.8	0.9
333.15	130000	0.3011	899.1	0.9
333.15	140000	0.3011	903	0.9
273.15	100	0.4002	868.5	0.7
273.15	1000	0.4002	868.8	0.7
273.15	2000	0.4002	869.5	0.7
273.15	5000	0.4002	871.4	0.7
273.15	10000	0.4002	874.5	0.7
273.15	15000	0.4002	877.4	0.7
273.15	20000	0.4002	880.4	0.7
273.15	30000	0.4002	885.8	0.7
273.15	40000	0.4002	891.1	0.7
273.15	50000	0.4002	896	0.8
273.15	60000	0.4002	900.7	0.8
273.15	70000	0.4002	905.2	0.8
273.15	80000	0.4002	909.6	0.8
273.15	90000	0.4002	913.7	0.8
273.15	100000	0.4002	917.7	0.8
273.15	110000	0.4002	921.6	0.8
273.15	120000	0.4002	925.3	0.8
273.15	130000	0.4002	929	0.8
273.15	140000	0.4002	932.3	0.8
293.15	100	0.4002	851.4	0.7
293.15	1000	0.4002	852	0.7
293.15	2000	0.4002	852.8	0.7
293.15	5000	0.4002	854.9	0.7
293.15	10000	0.4002	858.3	0.7
293.15	15000	0.4002	861.6	0.7
293.15	20000	0.4002	864.7	0.7
293.15	30000	0.4002	870.8	0.7
293.15	40000	0.4002	876.5	0.7
293.15	50000	0.4002	881.8	0.8
293.15	60000	0.4002	886.9	0.8
293.15	70000	0.4002	891.8	0.8
293.15	80000	0.4002	896.4	0.8
293.15	90000	0.4002	900.9	0.8
293.15	100000	0.4002	905.1	0.8
293.15	110000	0.4002	909.2	0.8
293.15	120000	0.4002	913.2	0.8
293.15	130000	0.4002	917.1	0.8
293.15	140000	0.4002	920.5	0.8
313.15	100	0.4002	834	0.7
313.15	1000	0.4002	834.7	0.7
313.15	2000	0.4002	835.6	0.7
313.15	5000	0.4002	838	0.7
313.15	10000	0.4002	841.7	0.7
313.15	15000	0.4002	845.4	0.7
313.15	20000	0.4002	848.9	0.7
313.15	30000	0.4002	855.6	0.7
313.15	40000	0.4002	861.7	0.8
313.15	50000	0.4002	867.5	0.8
313.15	60000	0.4002	873.1	0.8
313.15	70000	0.4002	878.3	0.8
313.15	80000	0.4002	883.3	0.8
313.15	90000	0.4002	888.1	0.8
313.15	100000	0.4002	892.5	0.8
313.15	110000	0.4002	897	0.9
313.15	120000	0.4002	901.1	0.9
313.15	130000	0.4002	905.2	0.9
313.15	140000	0.4002	908.9	0.9
333.15	100	0.4002	816	0.7
333.15	1000	0.4002	816.8	0.7
333.15	2000	0.4002	817.8	0.7
333.15	5000	0.4002	820.4	0.7
333.15	10000	0.4002	824.7	0.7
333.15	15000	0.4002	828.8	0.7
333.15	20000	0.4002	832.7	0.7
333.15	30000	0.4002	840.1	0.8
333.15	40000	0.4002	846.8	0.8
333.15	50000	0.4002	853.2	0.8
333.15	60000	0.4002	859.1	0.8
333.15	70000	0.4002	864.8	0.8
333.15	80000	0.4002	870.1	0.8
333.15	90000	0.4002	875.2	0.9
333.15	100000	0.4002	880	0.9
333.15	110000	0.4002	884.7	0.9
333.15	120000	0.4002	889.1	0.9
333.15	130000	0.4002	893.4	0.9
333.15	140000	0.4002	897.5	0.9
273.15	100	0.5001	862.2	0.7
273.15	1000	0.5001	862.5	0.7
273.15	2000	0.5001	863.2	0.7
273.15	5000	0.5001	865.2	0.7
273.15	10000	0.5001	868.3	0.7
273.15	15000	0.5001	871.3	0.7
273.15	20000	0.5001	874.2	0.7
273.15	30000	0.5001	879.7	0.7
273.15	40000	0.5001	885	0.7
273.15	50000	0.5001	890	0.8
273.15	60000	0.5001	894.6	0.8
273.15	70000	0.5001	899.2	0.8
273.15	80000	0.5001	903.5	0.8
273.15	90000	0.5001	907.7	0.8
273.15	100000	0.5001	911.7	0.8
273.15	110000	0.5001	915.7	0.8
273.15	120000	0.5001	919.5	0.8
273.15	130000	0.5001	923.2	0.8
273.15	140000	0.5001	926.7	0.8
293.15	100	0.5001	845	0.7
293.15	1000	0.5001	845.6	0.7
293.15	2000	0.5001	846.4	0.7
293.15	5000	0.5001	848.5	0.7
293.15	10000	0.5001	852	0.7
293.15	15000	0.5001	855.3	0.7
293.15	20000	0.5001	858.5	0.7
293.15	30000	0.5001	864.6	0.7
293.15	40000	0.5001	870.4	0.8
293.15	50000	0.5001	875.7	0.8
293.15	60000	0.5001	880.9	0.8
293.15	70000	0.5001	885.8	0.8
293.15	80000	0.5001	890.4	0.8
293.15	90000	0.5001	894.9	0.8
293.15	100000	0.5001	899.2	0.8
293.15	110000	0.5001	903.4	0.8
293.15	120000	0.5001	907.4	0.8
293.15	130000	0.5001	911.3	0.9
293.15	140000	0.5001	914.9	0.9
313.15	100	0.5001	827.5	0.7
313.15	1000	0.5001	828.2	0.7
313.15	2000	0.5001	829.1	0.7
313.15	5000	0.5001	831.5	0.7
313.15	10000	0.5001	835.4	0.7
313.15	15000	0.5001	839.1	0.7
313.15	20000	0.5001	842.6	0.7
313.15	30000	0.5001	849.4	0.7
313.15	40000	0.5001	855.8	0.8
313.15	50000	0.5001	861.6	0.8
313.15	60000	0.5001	867.1	0.8
313.15	70000	0.5001	872.4	0.8
313.15	80000	0.5001	877.5	0.8
313.15	90000	0.5001	882.2	0.8
313.15	100000	0.5001	886.8	0.9
313.15	110000	0.5001	891.3	0.9
313.15	120000	0.5001	895.5	0.9
313.15	130000	0.5001	899.6	0.9
313.15	140000	0.5001	903.7	0.9
333.15	100	0.5001	809.8	0.7
333.15	1000	0.5001	810.7	0.7
333.15	2000	0.5001	811.7	0.7
333.15	5000	0.5001	814.4	0.7
333.15	10000	0.5001	818.7	0.7
333.15	15000	0.5001	822.9	0.7
333.15	20000	0.5001	826.9	0.7
333.15	30000	0.5001	834.4	0.8
333.15	40000	0.5001	841.2	0.8
333.15	50000	0.5001	847.6	0.8
333.15	60000	0.5001	853.7	0.8
333.15	70000	0.5001	859.3	0.8
333.15	80000	0.5001	864.7	0.8
333.15	90000	0.5001	869.8	0.9
333.15	100000	0.5001	874.7	0.9
333.15	110000	0.5001	879.4	0.9
333.15	120000	0.5001	883.9	0.9
333.15	130000	0.5001	888.2	0.9
333.15	140000	0.5001	892.2	0.9
273.15	100	0.5997	855.4	0.7
273.15	1000	0.5997	855.9	0.7
273.15	2000	0.5997	856.6	0.7
273.15	5000	0.5997	858.5	0.7
273.15	10000	0.5997	861.7	0.7
273.15	15000	0.5997	864.7	0.7
273.15	20000	0.5997	867.6	0.7
273.15	30000	0.5997	873.3	0.7
273.15	40000	0.5997	878.5	0.7
273.15	50000	0.5997	883.6	0.8
273.15	60000	0.5997	888.3	0.8
273.15	70000	0.5997	892.8	0.8
273.15	80000	0.5997	897.2	0.8
273.15	90000	0.5997	901.4	0.8
273.15	100000	0.5997	905.5	0.8
273.15	110000	0.5997	909.4	0.8
273.15	120000	0.5997	913.2	0.8
273.15	130000	0.5997	916.9	0.8
273.15	140000	0.5997	920.4	0.8
293.15	100	0.5997	838.2	0.7
293.15	1000	0.5997	838.9	0.7
293.15	2000	0.5997	839.7	0.7
293.15	5000	0.5997	841.9	0.7
293.15	10000	0.5997	845.4	0.7
293.15	15000	0.5997	848.7	0.7
293.15	20000	0.5997	851.9	0.7
293.15	30000	0.5997	858.1	0.7
293.15	40000	0.5997	863.9	0.8
293.15	50000	0.5997	869.3	0.8
293.15	60000	0.5997	874.4	0.8
293.15	70000	0.5997	879.4	0.8
293.15	80000	0.5997	884	0.8
293.15	90000	0.5997	888.6	0.8
293.15	100000	0.5997	892.9	0.8
293.15	110000	0.5997	897.1	0.9
293.15	120000	0.5997	901.2	0.9
293.15	130000	0.5997	905.1	0.9
293.15	140000	0.5997	908.7	0.9
313.15	100	0.5997	820.6	0.7
313.15	1000	0.5997	821.3	0.7
313.15	2000	0.5997	822.2	0.7
313.15	5000	0.5997	824.6	0.7
313.15	10000	0.5997	828.5	0.7
313.15	15000	0.5997	832.3	0.7
313.15	20000	0.5997	835.9	0.7
313.15	30000	0.5997	842.8	0.8
313.15	40000	0.5997	849	0.8
313.15	50000	0.5997	855	0.8
313.15	60000	0.5997	860.6	0.8
313.15	70000	0.5997	865.9	0.8
313.15	80000	0.5997	871	0.8
313.15	90000	0.5997	875.7	0.9
313.15	100000	0.5997	880.3	0.9
313.15	110000	0.5997	884.8	0.9
313.15	120000	0.5997	889.1	0.9
313.15	130000	0.5997	893.2	0.9
313.15	140000	0.5997	897.3	0.9
333.15	100	0.5997	802.2	0.7
333.15	1000	0.5997	803.1	0.7
333.15	2000	0.5997	804	0.7
333.15	5000	0.5997	806.9	0.7
333.15	10000	0.5997	811.3	0.7
333.15	15000	0.5997	815.5	0.7
333.15	20000	0.5997	819.5	0.7
333.15	30000	0.5997	827.1	0.8
333.15	40000	0.5997	834.1	0.8
333.15	50000	0.5997	840.5	0.8
333.15	60000	0.5997	846.6	0.8
333.15	70000	0.5997	852.3	0.8
333.15	80000	0.5997	857.8	0.9
333.15	90000	0.5997	862.9	0.9
333.15	100000	0.5997	867.9	0.9
333.15	110000	0.5997	872.6	0.9
333.15	120000	0.5997	877.1	0.9
333.15	130000	0.5997	881.5	0.9
333.15	140000	0.5997	885.9	1
273.15	100	0.6999	847.7	0.7
273.15	1000	0.6999	848.6	0.7
273.15	2000	0.6999	849.3	0.7
273.15	5000	0.6999	851.3	0.7
273.15	10000	0.6999	854.5	0.7
273.15	15000	0.6999	857.6	0.7
273.15	20000	0.6999	860.5	0.7
273.15	30000	0.6999	866.2	0.7
273.15	40000	0.6999	871.5	0.8
273.15	50000	0.6999	876.6	0.8
273.15	60000	0.6999	881.3	0.8
273.15	70000	0.6999	886	0.8
273.15	80000	0.6999	890.3	0.8
273.15	90000	0.6999	894.6	0.8
273.15	100000	0.6999	898.7	0.8
273.15	110000	0.6999	902.5	0.8
273.15	120000	0.6999	906.4	0.8
273.15	130000	0.6999	910.1	0.9
273.15	140000	0.6999	913.4	0.9
293.15	100	0.6999	831.1	0.7
293.15	1000	0.6999	831.8	0.7
293.15	2000	0.6999	832.6	0.7
293.15	5000	0.6999	834.8	0.7
293.15	10000	0.6999	838.3	0.7
293.15	15000	0.6999	841.7	0.7
293.15	20000	0.6999	845	0.7
293.15	30000	0.6999	851.2	0.7
293.15	40000	0.6999	857	0.8
293.15	50000	0.6999	862.5	0.8
293.15	60000	0.6999	867.7	0.8
293.15	70000	0.6999	872.7	0.8
293.15	80000	0.6999	877.3	0.8
293.15	90000	0.6999	881.9	0.8
293.15	100000	0.6999	886.2	0.9
293.15	110000	0.6999	890.4	0.9
293.15	120000	0.6999	894.4	0.9
293.15	130000	0.6999	898.4	0.9
293.15	140000	0.6999	901.9	0.9
313.15	100	0.6999	813.4	0.7
313.15	1000	0.6999	814.2	0.7
313.15	2000	0.6999	815	0.7
313.15	5000	0.6999	817.5	0.7
313.15	10000	0.6999	821.5	0.7
313.15	15000	0.6999	825.3	0.7
313.15	20000	0.6999	829	0.7
313.15	30000	0.6999	835.8	0.8
313.15	40000	0.6999	842.2	0.8
313.15	50000	0.6999	848.2	0.8
313.15	60000	0.6999	853.8	0.8
313.15	70000	0.6999	859.1	0.8
313.15	80000	0.6999	864.2	0.8
313.15	90000	0.6999	869	0.9
313.15	100000	0.6999	873.6	0.9
313.15	110000	0.6999	878.1	0.9
313.15	120000	0.6999	882.4	0.9
313.15	130000	0.6999	886.6	0.9
313.15	140000	0.6999	890.2	0.9
333.15	100	0.6999	794.7	0.7
333.15	1000	0.6999	795.6	0.7
333.15	2000	0.6999	796.6	0.7
333.15	5000	0.6999	799.5	0.7
333.15	10000	0.6999	803.9	0.7
333.15	15000	0.6999	808.2	0.7
333.15	20000	0.6999	812.3	0.7
333.15	30000	0.6999	819.9	0.8
333.15	40000	0.6999	826.9	0.8
333.15	50000	0.6999	833.4	0.8
333.15	60000	0.6999	839.5	0.8
333.15	70000	0.6999	845.3	0.8
333.15	80000	0.6999	850.8	0.9
333.15	90000	0.6999	856	0.9
333.15	100000	0.6999	860.9	0.9
333.15	110000	0.6999	865.7	0.9
333.15	120000	0.6999	870.2	0.9
333.15	130000	0.6999	874.5	1
333.15	140000	0.6999	878.5	1
273.15	100	0.7999	840.4	0.7
273.15	1000	0.7999	840.9	0.7
273.15	2000	0.7999	841.5	0.7
273.15	5000	0.7999	843.5	0.7
273.15	10000	0.7999	846.8	0.7
273.15	15000	0.7999	849.9	0.7
273.15	20000	0.7999	852.8	0.7
273.15	30000	0.7999	858.6	0.7
273.15	40000	0.7999	863.9	0.8
273.15	50000	0.7999	869	0.8
273.15	60000	0.7999	873.8	0.8
273.15	70000	0.7999	878.4	0.8
273.15	80000	0.7999	882.8	0.8
273.15	90000	0.7999	887.1	0.8
273.15	100000	0.7999	891.2	0.8
273.15	110000	0.7999	895.1	0.9
273.15	120000	0.7999	899	0.9
273.15	130000	0.7999	902.7	0.9
273.15	140000	0.7999	906	0.9
293.15	100	0.7999	823.6	0.7
293.15	1000	0.7999	824.3	0.7
293.15	2000	0.7999	825	0.7
293.15	5000	0.7999	827.3	0.7
293.15	10000	0.7999	830.9	0.7
293.15	15000	0.7999	834.3	0.7
293.15	20000	0.7999	837.6	0.7
293.15	30000	0.7999	843.9	0.8
293.15	40000	0.7999	849.7	0.8
293.15	50000	0.7999	855.2	0.8
293.15	60000	0.7999	860.4	0.8
293.15	70000	0.7999	865.5	0.8
293.15	80000	0.7999	870.1	0.8
293.15	90000	0.7999	874.8	0.9
293.15	100000	0.7999	879	0.9
293.15	110000	0.7999	883.3	0.9
293.15	120000	0.7999	887.3	0.9
293.15	130000	0.7999	891.2	0.9
293.15	140000	0.7999	894.7	0.9
313.15	100	0.7999	806	0.7
313.15	1000	0.7999	806.7	0.7
313.15	2000	0.7999	807.6	0.7
313.15	5000	0.7999	810.1	0.7
313.15	10000	0.7999	814.2	0.7
313.15	15000	0.7999	818	0.7
313.15	20000	0.7999	821.7	0.7
313.15	30000	0.7999	828.6	0.8
313.15	40000	0.7999	835	0.8
313.15	50000	0.7999	841.1	0.8
313.15	60000	0.7999	846.7	0.8
313.15	70000	0.7999	852.1	0.8
313.15	80000	0.7999	857.2	0.9
313.15	90000	0.7999	861.9	0.9
313.15	100000	0.7999	866.6	0.9
313.15	110000	0.7999	871.1	0.9
313.15	120000	0.7999	875.3	0.9
313.15	130000	0.7999	879.5	0.9
313.15	140000	0.7999	883.2	1
333.15	100	0.7999	787.1	0.7
333.15	1000	0.7999	788	0.7
333.15	2000	0.7999	789	0.7
333.15	5000	0.7999	791.9	0.7
333.15	10000	0.7999	796.5	0.7
333.15	15000	0.7999	800.8	0.7
333.15	20000	0.7999	805	0.7
333.15	30000	0.7999	812.7	0.8
333.15	40000	0.7999	819.7	0.8
333.15	50000	0.7999	826.3	0.8
333.15	60000	0.7999	832.5	0.8
333.15	70000	0.7999	838.4	0.9
333.15	80000	0.7999	843.7	0.9
333.15	90000	0.7999	849	0.9
333.15	100000	0.7999	853.9	0.9
333.15	110000	0.7999	858.7	1
333.15	120000	0.7999	863.2	1
333.15	130000	0.7999	867.5	1
333.15	140000	0.7999	871.5	1
273.15	100	0.9	831.5	0.7
273.15	1000	0.9	832.2	0.7
273.15	2000	0.9	832.9	0.7
273.15	5000	0.9	835	0.7
273.15	10000	0.9	838.2	0.7
273.15	15000	0.9	841.4	0.7
273.15	20000	0.9	844.4	0.7
273.15	30000	0.9	850.1	0.7
273.15	40000	0.9	855.6	0.8
273.15	50000	0.9	860.7	0.8
273.15	60000	0.9	865.5	0.8
273.15	70000	0.9	870.2	0.8
273.15	80000	0.9	874.6	0.8
273.15	90000	0.9	878.9	0.8
273.15	100000	0.9	883	0.9
273.15	110000	0.9	887	0.9
273.15	120000	0.9	890.8	0.9
273.15	130000	0.9	894.6	0.9
273.15	140000	0.9	897.9	0.9
293.15	100	0.9	815.3	0.7
293.15	1000	0.9	816	0.7
293.15	2000	0.9	816.8	0.7
293.15	5000	0.9	819.1	0.7
293.15	10000	0.9	822.7	0.7
293.15	15000	0.9	826.1	0.7
293.15	20000	0.9	829.5	0.7
293.15	30000	0.9	835.8	0.8
293.15	40000	0.9	841.7	0.8
293.15	50000	0.9	847.2	0.8
293.15	60000	0.9	852.5	0.8
293.15	70000	0.9	857.5	0.8
293.15	80000	0.9	862.3	0.9
293.15	90000	0.9	866.8	0.9
293.15	100000	0.9	871.2	0.9
293.15	110000	0.9	875.4	0.9
293.15	120000	0.9	879.5	0.9
293.15	130000	0.9	883.4	0.9
293.15	140000	0.9	887	1
313.15	100	0.9	797.9	0.7
313.15	1000	0.9	798.7	0.7
313.15	2000	0.9	799.6	0.7
313.15	5000	0.9	802.1	0.7
313.15	10000	0.9	806.2	0.7
313.15	15000	0.9	810.1	0.7
313.15	20000	0.9	813.8	0.7
313.15	30000	0.9	820.8	0.8
313.15	40000	0.9	827.3	0.8
313.15	50000	0.9	833.3	0.8
313.15	60000	0.9	839	0.8
313.15	70000	0.9	844.4	0.9
313.15	80000	0.9	849.5	0.9
313.15	90000	0.9	854.3	0.9
313.15	100000	0.9	859	0.9
313.15	110000	0.9	863.5	0.9
313.15	120000	0.9	867.7	1
313.15	130000	0.9	871.9	1
313.15	140000	0.9	875.6	1
333.15	100	0.9	779.1	0.7
333.15	1000	0.9	780	0.7
333.15	2000	0.9	781	0.7
333.15	5000	0.9	784	0.7
333.15	10000	0.9	788.6	0.7
333.15	15000	0.9	793	0.7
333.15	20000	0.9	797.2	0.7
333.15	30000	0.9	805	0.8
333.15	40000	0.9	812.1	0.8
333.15	50000	0.9	818.7	0.8
333.15	60000	0.9	824.9	0.8
333.15	70000	0.9	830.7	0.9
333.15	80000	0.9	836.2	0.9
333.15	90000	0.9	841.4	0.9
333.15	100000	0.9	846.4	0.9
333.15	110000	0.9	851.2	1
333.15	120000	0.9	855.7	1
333.15	130000	0.9	860.1	1
333.15	140000	0.9	864	1
273.15	100	1	822.3	0.7
273.15	1000	1	822.7	0.7
273.15	2000	1	823.4	0.7
273.15	5000	1	825.4	0.7
273.15	10000	1	828.7	0.7
273.15	15000	1	831.8	0.7
273.15	20000	1	834.7	0.7
273.15	30000	1	840.4	0.8
273.15	40000	1	845.7	0.8
273.15	50000	1	850.7	0.8
273.15	60000	1	855.4	0.8
273.15	70000	1	859.9	0.8
273.15	80000	1	864.3	0.8
273.15	90000	1	868.4	0.9
273.15	100000	1	872.4	0.9
273.15	110000	1	876.3	0.9
273.15	120000	1	879.9	0.9
273.15	130000	1	883.5	0.9
273.15	140000	1	887.2	0.9
293.15	100	1	806.3	0.7
293.15	1000	1	807	0.7
293.15	2000	1	807.8	0.7
293.15	5000	1	810	0.7
293.15	10000	1	813.6	0.7
293.15	15000	1	817	0.7
293.15	20000	1	820.2	0.7
293.15	30000	1	826.5	0.8
293.15	40000	1	832.3	0.8
293.15	50000	1	837.7	0.8
293.15	60000	1	842.8	0.8
293.15	70000	1	847.7	0.8
293.15	80000	1	852.3	0.9
293.15	90000	1	856.7	0.9
293.15	100000	1	860.9	0.9
293.15	110000	1	865	0.9
293.15	120000	1	868.8	1
293.15	130000	1	872.7	1
293.15	140000	1	876.3	1
313.15	100	1	789.4	0.7
313.15	1000	1	790.1	0.7
313.15	2000	1	791	0.7
313.15	5000	1	793.5	0.7
313.15	10000	1	797.5	0.7
313.15	15000	1	801.4	0.7
313.15	20000	1	805.1	0.7
313.15	30000	1	811.9	0.8
313.15	40000	1	818.3	0.8
313.15	50000	1	824.1	0.8
313.15	60000	1	829.6	0.8
313.15	70000	1	835	0.9
313.15	80000	1	839.9	0.9
313.15	90000	1	844.6	0.9
313.15	100000	1	849	0.9
313.15	110000	1	853.3	1
313.15	120000	1	857.5	1
313.15	130000	1	861.5	1
313.15	140000	1	865.4	1
333.15	100	1	770.7	0.7
333.15	1000	1	771.6	0.7
333.15	2000	1	772.6	0.7
333.15	5000	1	775.5	0.7
333.15	10000	1	780.1	0.7
333.15	15000	1	784.4	0.7
333.15	20000	1	788.6	0.7
333.15	30000	1	796.2	0.8
333.15	40000	1	803.2	0.8
333.15	50000	1	809.6	0.8
333.15	60000	1	815.7	0.9
333.15	70000	1	821.4	0.9
333.15	80000	1	826.7	0.9
333.15	90000	1	831.8	0.9
333.15	100000	1	836.6	1
333.15	110000	1	841.2	1
333.15	120000	1	845.5	1
333.15	130000	1	849.8	1.1
333.15	140000	1	853.9	1.1
273.15	100	0	891.7	0.7
273.15	1000	0	892.3	0.7
273.15	2000	0	892.9	0.7
273.15	5000	0	894.6	0.7
273.15	10000	0	897.4	0.7
273.15	15000	0	900.2	0.7
273.15	20000	0	902.8	0.7
273.15	30000	0	908	0.7
273.15	40000	0	912.9	0.7
273.15	50000	0	917.5	0.7
273.15	60000	0	921.9	0.7
273.15	70000	0	926.2	0.7
273.15	80000	0	930.3	0.8
273.15	90000	0	934.2	0.8
273.15	100000	0	938	0.8
273.15	110000	0	941.7	0.8
273.15	120000	0	945.2	0.8
273.15	130000	0	948.6	0.8
273.15	140000	0	952	0.8
293.15	100	0	875.1	0.7
293.15	1000	0	875.7	0.7
293.15	2000	0	876.3	0.7
293.15	5000	0	878.2	0.7
293.15	10000	0	881.4	0.7
293.15	15000	0	884.4	0.7
293.15	20000	0	887.3	0.7
293.15	30000	0	892.9	0.7
293.15	40000	0	898.2	0.7
293.15	50000	0	903.2	0.7
293.15	60000	0	908	0.8
293.15	70000	0	912.6	0.8
293.15	80000	0	916.9	0.8
293.15	90000	0	921.1	0.8
293.15	100000	0	925.1	0.8
293.15	110000	0	929	0.8
293.15	120000	0	932.8	0.8
293.15	130000	0	936.4	0.8
293.15	140000	0	939.9	0.8
313.15	100	0	859	0.7
313.15	1000	0	859.7	0.7
313.15	2000	0	860.4	0.7
313.15	5000	0	862.6	0.7
313.15	10000	0	866	0.7
313.15	15000	0	869.3	0.7
313.15	20000	0	872.6	0.7
313.15	30000	0	878.7	0.7
313.15	40000	0	884.5	0.7
313.15	50000	0	889.9	0.8
313.15	60000	0	895	0.8
313.15	70000	0	899.9	0.8
313.15	80000	0	904.6	0.8
313.15	90000	0	909	0.8
313.15	100000	0	913.3	0.8
313.15	110000	0	917.4	0.8
313.15	120000	0	921.4	0.8
313.15	130000	0	925.2	0.8
313.15	140000	0	928.9	0.8
333.15	100	0	843.6	0.7
333.15	1000	0	844.4	0.7
333.15	2000	0	845.2	0.7
333.15	5000	0	847.6	0.7
333.15	10000	0	851.4	0.7
333.15	15000	0	855.1	0.7
333.15	20000	0	858.6	0.7
333.15	30000	0	865.3	0.7
333.15	40000	0	871.6	0.8
333.15	50000	0	877.4	0.8
333.15	60000	0	883	0.8
333.15	70000	0	888.2	0.8
333.15	80000	0	893.2	0.8
333.15	90000	0	898	0.8
333.15	100000	0	902.5	0.8
333.15	110000	0	906.9	0.8
333.15	120000	0	911.1	0.8
333.15	130000	0	915.1	0.8
333.15	140000	0	919	0.8

System: butan-2-ol + 1,2,4-trimethylbenzene; phases: Liquid
Fixed: Pressure, kPa = 100
Property: Viscosity, Pa*s (Liquid); method: Concentric cylinders viscometry
Temperature, K	Mole fraction of butan-2-ol	Viscosity, Pa*s	uncertainty
293.15	0.1001	0.000885	1.9e-05
293.15	0.2261	0.000909	1.9e-05
293.15	0.3	0.000935	2e-05
293.15	0.3966	0.001013	2.1e-05
293.15	0.5298	0.001121	2.4e-05
293.15	0.6001	0.00125	2.6e-05
293.15	0.7001	0.00148	3.1e-05
293.15	0.7997	0.00185	3.8e-05
293.15	0.9001	0.00247	5.1e-05
293.15	1	0.003725	7.6e-05
303.15	0.1001	0.000774	1.7e-05
303.15	0.2261	0.000786	1.7e-05
303.15	0.3	0.000802	1.7e-05
303.15	0.3966	0.000858	1.8e-05
303.15	0.5298	0.000923	2e-05
303.15	0.6001	0.00101	2.1e-05
303.15	0.7001	0.00116	2.4e-05
303.15	0.7997	0.0014	2.9e-05
303.15	0.9001	0.0018	3.7e-05
303.15	1	0.002555	5.3e-05
313.15	0.1001	0.000687	1.5e-05
313.15	0.2261	0.000689	1.5e-05
313.15	0.3	0.000698	1.5e-05
313.15	0.3966	0.00074	1.6e-05
313.15	0.5298	0.000773	1.7e-05
313.15	0.6001	0.00084	1.8e-05
313.15	0.7001	0.00094	2e-05
313.15	0.7997	0.00109	2.3e-05
313.15	0.9001	0.00135	2.8e-05
313.15	1	0.001814	3.8e-05
323.15	0.1001	0.00062	1.4e-05
323.15	0.2261	0.000614	1.3e-05
323.15	0.3	0.000616	1.3e-05
323.15	0.3966	0.000646	1.4e-05
323.15	0.5298	0.000658	1.4e-05
323.15	0.6001	0.00071	1.5e-05
323.15	0.7001	0.00078	1.7e-05
323.15	0.7997	0.00088	1.9e-05
323.15	0.9001	0.00104	2.2e-05
323.15	1	0.001331	2.8e-05
333.15	0.1001	0.000558	1.2e-05
333.15	0.2261	0.000554	1.2e-05
333.15	0.3	0.000548	1.2e-05
333.15	0.3966	0.000568	1.3e-05
333.15	0.5298	0.000567	1.2e-05
333.15	0.6001	0.0006	1.3e-05
333.15	0.7001	0.00065	1.4e-05
333.15	0.7997	0.00072	1.6e-05
333.15	0.9001	0.00082	1.8e-05
333.15	1	0.001007	2.1e-05
293.15	0	0.000888	1.9e-05
303.15	0	0.000779	1.7e-05
313.15	0	0.000692	1.5e-05
323.15	0	0.00062	1.4e-05
333.15	0	0.000562	1.2e-05

System: butan-2-ol + 1,2,4-trimethylbenzene; phases: Liquid
Property: Molar heat capacity at constant pressure, J/K/mol (Liquid); method: Flow calorimetry
Temperature, K	Pressure, kPa	Mole fraction of butan-2-ol	Molar heat capacity at constant pressure, J/K/mol	uncertainty
293.15	100	0.1001	219.6	3.1
293.15	100	0.3	221.6	3.1
293.15	100	0.5298	223.7	3.1
293.15	100	0.6001	216	3
293.15	100	0.7001	213	3
293.15	100	0.7997	206.9	2.9
293.15	100	0.9001	200.5	2.8
293.15	5000	0.1001	218.1	3.1
293.15	5000	0.3	220.8	3.1
293.15	5000	0.5298	222.1	3.1
293.15	5000	0.6001	215.3	3
293.15	5000	0.7001	211.7	3
293.15	5000	0.7997	205.2	2.9
293.15	5000	0.9001	198.5	2.8
293.15	10000	0.1001	217	3.1
293.15	10000	0.3	219.6	3.1
293.15	10000	0.5298	220.3	3.1
293.15	10000	0.6001	213.9	3
293.15	10000	0.7001	210.4	3
293.15	10000	0.7997	203.7	2.9
293.15	10000	0.9001	196.8	2.8
293.15	15000	0.1001	216.2	3
293.15	15000	0.3	219	3.1
293.15	15000	0.5298	218.9	3.1
293.15	15000	0.6001	213.2	3
293.15	15000	0.7001	208.5	2.9
293.15	15000	0.7997	201.9	2.8
293.15	15000	0.9001	195.5	2.8
293.15	20000	0.1001	215.2	3
293.15	20000	0.3	218.3	3.1
293.15	20000	0.5298	217.6	3.1
293.15	20000	0.6001	211.7	3
293.15	20000	0.7001	206.9	2.9
293.15	20000	0.7997	200.7	2.8
293.15	20000	0.9001	194.6	2.7
293.15	25000	0.1001	214.6	3
293.15	25000	0.3	217.3	3.1
293.15	25000	0.5298	215.9	3
293.15	25000	0.6001	210.5	3
293.15	25000	0.7001	205.5	2.9
293.15	25000	0.7997	199.7	2.8
293.15	25000	0.9001	193.3	2.7
313.15	100	0.1001	231.1	3.3
313.15	100	0.3	235.8	3.3
313.15	100	0.5298	234.2	3.3
313.15	100	0.6001	233.8	3.3
313.15	100	0.7001	232.1	3.3
313.15	100	0.7997	226.9	3.2
313.15	100	0.9001	224.2	3.2
313.15	5000	0.1001	230.3	3.2
313.15	5000	0.3	233.7	3.3
313.15	5000	0.5298	232.8	3.3
313.15	5000	0.6001	232.6	3.3
313.15	5000	0.7001	230	3.2
313.15	5000	0.7997	224.8	3.2
313.15	5000	0.9001	221.1	3.1
313.15	10000	0.1001	229.5	3.2
313.15	10000	0.3	232.6	3.3
313.15	10000	0.5298	231.9	3.3
313.15	10000	0.6001	230.1	3.2
313.15	10000	0.7001	227.4	3.2
313.15	10000	0.7997	222.4	3.1
313.15	10000	0.9001	218.9	3.1
313.15	15000	0.1001	228.8	3.2
313.15	15000	0.3	231.1	3.3
313.15	15000	0.5298	230.9	3.3
313.15	15000	0.6001	229	3.2
313.15	15000	0.7001	225.3	3.2
313.15	15000	0.7997	220.6	3.1
313.15	15000	0.9001	217.3	3.1
313.15	20000	0.1001	227.7	3.2
313.15	20000	0.3	229.9	3.2
313.15	20000	0.5298	229.6	3.2
313.15	20000	0.6001	227.2	3.2
313.15	20000	0.7001	223.8	3.2
313.15	20000	0.7997	219.3	3.1
313.15	20000	0.9001	216	3
313.15	25000	0.1001	226.4	3.2
313.15	25000	0.3	229.5	3.2
313.15	25000	0.5298	228.2	3.2
313.15	25000	0.6001	225.6	3.2
313.15	25000	0.7001	222.7	3.1
313.15	25000	0.7997	218.1	3.1
313.15	25000	0.9001	214.1	3
293.15	100	0	216.2	3
293.15	5000	0	215	3
293.15	10000	0	213.3	3
293.15	15000	0	212.5	3
293.15	20000	0	210.8	3
293.15	25000	0	209.8	3
313.15	100	0	222.5	3.1
313.15	5000	0	221.2	3.1
313.15	10000	0	219.6	3.1
313.15	15000	0	218.5	3.1
313.15	20000	0	217.7	3.1
313.15	25000	0	217.1	3.1
293.15	100	1	189.1	2.7
293.15	5000	1	187.1	2.6
293.15	10000	1	185.5	2.6
293.15	15000	1	185.2	2.6
293.15	20000	1	183.6	2.6
293.15	25000	1	182.7	2.6
313.15	100	1	214.9	3
313.15	5000	1	213.1	3
313.15	10000	1	211.1	3
313.15	15000	1	209.4	2.9
313.15	20000	1	207.2	2.9
313.15	25000	1	204.9	2.9

System: butan-1-ol + 1,2,4-trimethylbenzene; phases: Liquid
Property: Mass density, kg/m3 (Liquid); method: Vibrating tube method
Temperature, K	Pressure, kPa	Mole fraction of butan-1-ol	Mass density, kg/m3	uncertainty
273.15	100	0.1005	886.7	0.7
273.15	1000	0.1005	887.1	0.7
273.15	5000	0.1005	889.5	0.7
273.15	10000	0.1005	892.4	0.7
273.15	20000	0.1005	897.9	0.7
273.15	30000	0.1005	903.1	0.7
273.15	40000	0.1005	908	0.7
273.15	50000	0.1005	912.6	0.7
273.15	60000	0.1005	917.1	0.7
273.15	70000	0.1005	921.4	0.8
273.15	80000	0.1005	925.5	0.8
273.15	90000	0.1005	929.4	0.8
273.15	100000	0.1005	933.3	0.8
273.15	120000	0.1005	940.6	0.8
273.15	140000	0.1005	947.3	0.8
293.15	100	0.1005	870.2	0.7
293.15	1000	0.1005	870.8	0.7
293.15	5000	0.1005	873.4	0.7
293.15	10000	0.1005	876.6	0.7
293.15	20000	0.1005	882.6	0.7
293.15	30000	0.1005	888.3	0.7
293.15	40000	0.1005	893.7	0.7
293.15	50000	0.1005	898.7	0.7
293.15	60000	0.1005	903.5	0.8
293.15	70000	0.1005	908.3	0.8
293.15	80000	0.1005	912.6	0.8
293.15	90000	0.1005	916.8	0.8
293.15	100000	0.1005	920.8	0.8
293.15	120000	0.1005	928.6	0.8
293.15	140000	0.1005	935.6	0.8
313.15	100	0.1005	853.7	0.7
313.15	1000	0.1005	854.4	0.7
313.15	5000	0.1005	857.3	0.7
313.15	10000	0.1005	860.8	0.7
313.15	20000	0.1005	867.5	0.7
313.15	30000	0.1005	873.8	0.7
313.15	40000	0.1005	879.6	0.7
313.15	50000	0.1005	885	0.8
313.15	60000	0.1005	890.2	0.8
313.15	70000	0.1005	895.2	0.8
313.15	80000	0.1005	899.9	0.8
313.15	90000	0.1005	904.4	0.8
313.15	100000	0.1005	908.7	0.8
313.15	120000	0.1005	916.9	0.8
313.15	140000	0.1005	924.3	0.8
333.15	100	0.1005	836.9	0.7
333.15	1000	0.1005	837.7	0.7
333.15	5000	0.1005	841	0.7
333.15	10000	0.1005	844.9	0.7
333.15	20000	0.1005	852.4	0.7
333.15	30000	0.1005	859.2	0.7
333.15	40000	0.1005	865.5	0.8
333.15	50000	0.1005	871.4	0.8
333.15	60000	0.1005	877.1	0.8
333.15	70000	0.1005	882.3	0.8
333.15	80000	0.1005	887.4	0.8
333.15	90000	0.1005	892.2	0.8
333.15	100000	0.1005	896.8	0.8
333.15	120000	0.1005	905.4	0.8
333.15	140000	0.1005	913.3	0.9
273.15	100	0.2261	880.3	0.7
273.15	1000	0.2261	880.5	0.7
273.15	5000	0.2261	883	0.7
273.15	10000	0.2261	885.9	0.7
273.15	20000	0.2261	891.4	0.7
273.15	30000	0.2261	896.7	0.7
273.15	40000	0.2261	901.7	0.7
273.15	50000	0.2261	906.3	0.7
273.15	60000	0.2261	910.9	0.7
273.15	70000	0.2261	915.1	0.8
273.15	80000	0.2261	919.3	0.8
273.15	90000	0.2261	923.2	0.8
273.15	100000	0.2261	927.1	0.8
273.15	120000	0.2261	934.5	0.8
273.15	140000	0.2261	941.3	0.8
293.15	100	0.2261	863.7	0.7
293.15	1000	0.2261	864.3	0.7
293.15	5000	0.2261	867	0.7
293.15	10000	0.2261	870.2	0.7
293.15	20000	0.2261	876.2	0.7
293.15	30000	0.2261	881.9	0.7
293.15	40000	0.2261	887.4	0.7
293.15	50000	0.2261	892.4	0.8
293.15	60000	0.2261	897.3	0.8
293.15	70000	0.2261	901.9	0.8
293.15	80000	0.2261	906.4	0.8
293.15	90000	0.2261	910.6	0.8
293.15	100000	0.2261	914.7	0.8
293.15	120000	0.2261	922.5	0.8
293.15	140000	0.2261	929.8	0.8
313.15	100	0.2261	847.1	0.7
313.15	1000	0.2261	847.8	0.7
313.15	5000	0.2261	850.7	0.7
313.15	10000	0.2261	854.3	0.7
313.15	20000	0.2261	861	0.7
313.15	30000	0.2261	867.4	0.7
313.15	40000	0.2261	873.2	0.7
313.15	50000	0.2261	878.7	0.8
313.15	60000	0.2261	883.9	0.8
313.15	70000	0.2261	888.9	0.8
313.15	80000	0.2261	893.7	0.8
313.15	90000	0.2261	898.1	0.8
313.15	100000	0.2261	902.5	0.8
313.15	120000	0.2261	910.7	0.8
313.15	140000	0.2261	918.7	0.8
333.15	100	0.2261	830.2	0.7
333.15	1000	0.2261	831	0.7
333.15	5000	0.2261	834.4	0.7
333.15	10000	0.2261	838.3	0.7
333.15	20000	0.2261	845.8	0.7
333.15	30000	0.2261	852.8	0.7
333.15	40000	0.2261	859.2	0.8
333.15	50000	0.2261	865.1	0.8
333.15	60000	0.2261	870.8	0.8
333.15	70000	0.2261	876.2	0.8
333.15	80000	0.2261	881.2	0.8
333.15	90000	0.2261	886	0.8
333.15	100000	0.2261	890.7	0.8
333.15	120000	0.2261	899.4	0.9
333.15	140000	0.2261	907.6	0.9
273.15	100	0.2999	876.4	0.7
273.15	1000	0.2999	876.7	0.7
273.15	5000	0.2999	879.2	0.7
273.15	10000	0.2999	882.1	0.7
273.15	20000	0.2999	887.7	0.7
273.15	30000	0.2999	893	0.7
273.15	40000	0.2999	897.9	0.7
273.15	50000	0.2999	902.7	0.7
273.15	60000	0.2999	907.2	0.8
273.15	70000	0.2999	911.4	0.8
273.15	80000	0.2999	915.6	0.8
273.15	90000	0.2999	919.6	0.8
273.15	100000	0.2999	923.4	0.8
273.15	120000	0.2999	930.8	0.8
273.15	140000	0.2999	937.7	0.8
293.15	100	0.2999	859.9	0.7
293.15	1000	0.2999	860.4	0.7
293.15	5000	0.2999	863.1	0.7
293.15	10000	0.2999	866.4	0.7
293.15	20000	0.2999	872.5	0.7
293.15	30000	0.2999	878.2	0.7
293.15	40000	0.2999	883.6	0.7
293.15	50000	0.2999	888.8	0.8
293.15	60000	0.2999	893.6	0.8
293.15	70000	0.2999	898.4	0.8
293.15	80000	0.2999	902.8	0.8
293.15	90000	0.2999	907	0.8
293.15	100000	0.2999	911.1	0.8
293.15	120000	0.2999	918.9	0.8
293.15	140000	0.2999	926	0.8
313.15	100	0.2999	843.2	0.7
313.15	1000	0.2999	843.9	0.7
313.15	5000	0.2999	846.9	0.7
313.15	10000	0.2999	850.5	0.7
313.15	20000	0.2999	857.2	0.7
313.15	30000	0.2999	863.6	0.7
313.15	40000	0.2999	869.5	0.8
313.15	50000	0.2999	875	0.8
313.15	60000	0.2999	880.2	0.8
313.15	70000	0.2999	885.2	0.8
313.15	80000	0.2999	890.1	0.8
313.15	90000	0.2999	894.5	0.8
313.15	100000	0.2999	898.8	0.8
313.15	120000	0.2999	907.1	0.8
313.15	140000	0.2999	914.5	0.9
333.15	100	0.2999	826.1	0.7
333.15	1000	0.2999	826.9	0.7
333.15	5000	0.2999	830.3	0.7
333.15	10000	0.2999	834.2	0.7
333.15	20000	0.2999	841.8	0.7
333.15	30000	0.2999	848.7	0.7
333.15	40000	0.2999	855.2	0.8
333.15	50000	0.2999	861.1	0.8
333.15	60000	0.2999	866.8	0.8
333.15	70000	0.2999	872.2	0.8
333.15	80000	0.2999	877.2	0.8
333.15	90000	0.2999	882.1	0.8
333.15	100000	0.2999	886.7	0.8
333.15	120000	0.2999	895.4	0.9
333.15	140000	0.2999	903.3	0.9
273.15	100	0.3966	870.8	0.7
273.15	1000	0.3966	871.1	0.7
273.15	5000	0.3966	873.6	0.7
273.15	10000	0.3966	876.6	0.7
273.15	20000	0.3966	882.2	0.7
273.15	30000	0.3966	887.5	0.7
273.15	40000	0.3966	892.5	0.7
273.15	50000	0.3966	897.3	0.7
273.15	60000	0.3966	901.8	0.8
273.15	70000	0.3966	906.1	0.8
273.15	80000	0.3966	910.3	0.8
273.15	90000	0.3966	914.3	0.8
273.15	100000	0.3966	918.2	0.8
273.15	120000	0.3966	925.6	0.8
273.15	140000	0.3966	932.5	0.8
293.15	100	0.3966	854.5	0.7
293.15	1000	0.3966	855	0.7
293.15	5000	0.3966	857.8	0.7
293.15	10000	0.3966	861.1	0.7
293.15	20000	0.3966	867.2	0.7
293.15	30000	0.3966	873	0.7
293.15	40000	0.3966	878.5	0.7
293.15	50000	0.3966	883.6	0.8
293.15	60000	0.3966	888.6	0.8
293.15	70000	0.3966	893.2	0.8
293.15	80000	0.3966	897.6	0.8
293.15	90000	0.3966	901.9	0.8
293.15	100000	0.3966	906	0.8
293.15	120000	0.3966	913.9	0.8
293.15	140000	0.3966	921.1	0.8
313.15	100	0.3966	837.7	0.7
313.15	1000	0.3966	838.4	0.7
313.15	5000	0.3966	841.5	0.7
313.15	10000	0.3966	845.1	0.7
313.15	20000	0.3966	851.9	0.7
313.15	30000	0.3966	858.3	0.7
313.15	40000	0.3966	864.1	0.8
313.15	50000	0.3966	869.7	0.8
313.15	60000	0.3966	875	0.8
313.15	70000	0.3966	880	0.8
313.15	80000	0.3966	884.8	0.8
313.15	90000	0.3966	889.2	0.8
313.15	100000	0.3966	893.6	0.8
313.15	120000	0.3966	901.9	0.9
313.15	140000	0.3966	909.6	0.9
333.15	100	0.3966	820.6	0.7
333.15	1000	0.3966	821.4	0.7
333.15	5000	0.3966	824.8	0.7
333.15	10000	0.3966	828.8	0.7
333.15	20000	0.3966	836.4	0.7
333.15	30000	0.3966	843.4	0.7
333.15	40000	0.3966	849.8	0.8
333.15	50000	0.3966	855.9	0.8
333.15	60000	0.3966	861.6	0.8
333.15	70000	0.3966	866.9	0.8
333.15	80000	0.3966	872	0.8
333.15	90000	0.3966	876.9	0.8
333.15	100000	0.3966	881.5	0.9
333.15	120000	0.3966	890.3	0.9
333.15	140000	0.3966	898.3	0.9
273.15	100	0.5289	862.9	0.7
273.15	1000	0.5289	863.2	0.7
273.15	5000	0.5289	865.7	0.7
273.15	10000	0.5289	868.8	0.7
273.15	20000	0.5289	874.4	0.7
273.15	30000	0.5289	879.7	0.7
273.15	40000	0.5289	884.8	0.7
273.15	50000	0.5289	889.6	0.8
273.15	60000	0.5289	894.1	0.8
273.15	70000	0.5289	898.5	0.8
273.15	80000	0.5289	902.7	0.8
273.15	90000	0.5289	906.7	0.8
273.15	100000	0.5289	910.6	0.8
273.15	120000	0.5289	918	0.8
273.15	140000	0.5289	924.9	0.8
293.15	100	0.5289	846.5	0.7
293.15	1000	0.5289	847.1	0.7
293.15	5000	0.5289	849.8	0.7
293.15	10000	0.5289	853.1	0.7
293.15	20000	0.5289	859.4	0.7
293.15	30000	0.5289	865.2	0.7
293.15	40000	0.5289	870.7	0.8
293.15	50000	0.5289	875.8	0.8
293.15	60000	0.5289	880.8	0.8
293.15	70000	0.5289	885.5	0.8
293.15	80000	0.5289	890	0.8
293.15	90000	0.5289	894.2	0.8
293.15	100000	0.5289	898.4	0.8
293.15	120000	0.5289	906.2	0.8
293.15	140000	0.5289	913.5	0.9
313.15	100	0.5289	829.9	0.7
313.15	1000	0.5289	830.6	0.7
313.15	5000	0.5289	833.7	0.7
313.15	10000	0.5289	837.3	0.7
313.15	20000	0.5289	844.1	0.7
313.15	30000	0.5289	850.6	0.7
313.15	40000	0.5289	856.5	0.8
313.15	50000	0.5289	862.1	0.8
313.15	60000	0.5289	867.4	0.8
313.15	70000	0.5289	872.5	0.8
313.15	80000	0.5289	877.3	0.8
313.15	90000	0.5289	881.9	0.8
313.15	100000	0.5289	886.2	0.8
313.15	120000	0.5289	894.5	0.9
313.15	140000	0.5289	902.2	0.9
333.15	100	0.5289	812.8	0.7
333.15	1000	0.5289	813.6	0.7
333.15	5000	0.5289	817.1	0.7
333.15	10000	0.5289	821.1	0.7
333.15	20000	0.5289	828.7	0.7
333.15	30000	0.5289	835.7	0.8
333.15	40000	0.5289	842.2	0.8
333.15	50000	0.5289	848.3	0.8
333.15	60000	0.5289	854	0.8
333.15	70000	0.5289	859.5	0.8
333.15	80000	0.5289	864.6	0.8
333.15	90000	0.5289	869.4	0.9
333.15	100000	0.5289	874.1	0.9
333.15	120000	0.5289	882.8	0.9
333.15	140000	0.5289	891	0.9
273.15	100	0.6367	855.6	0.7
273.15	1000	0.6367	855.9	0.7
273.15	5000	0.6367	858.5	0.7
273.15	10000	0.6367	861.5	0.7
273.15	20000	0.6367	867.2	0.7
273.15	30000	0.6367	872.6	0.7
273.15	40000	0.6367	877.7	0.7
273.15	50000	0.6367	882.5	0.8
273.15	60000	0.6367	887	0.8
273.15	70000	0.6367	891.4	0.8
273.15	80000	0.6367	895.7	0.8
273.15	90000	0.6367	899.7	0.8
273.15	100000	0.6367	903.6	0.8
273.15	120000	0.6367	911.1	0.8
273.15	140000	0.6367	918	0.8
293.15	100	0.6367	839.4	0.7
293.15	1000	0.6367	840	0.7
293.15	5000	0.6367	842.8	0.7
293.15	10000	0.6367	846.1	0.7
293.15	20000	0.6367	852.3	0.7
293.15	30000	0.6367	858.2	0.7
293.15	40000	0.6367	863.7	0.8
293.15	50000	0.6367	868.9	0.8
293.15	60000	0.6367	873.8	0.8
293.15	70000	0.6367	878.6	0.8
293.15	80000	0.6367	883	0.8
293.15	90000	0.6367	887.4	0.8
293.15	100000	0.6367	891.5	0.8
293.15	120000	0.6367	899.3	0.9
293.15	140000	0.6367	906.7	0.9
313.15	100	0.6367	822.9	0.7
313.15	1000	0.6367	823.6	0.7
313.15	5000	0.6367	826.7	0.7
313.15	10000	0.6367	830.4	0.7
313.15	20000	0.6367	837.3	0.7
313.15	30000	0.6367	843.7	0.7
313.15	40000	0.6367	849.7	0.8
313.15	50000	0.6367	855.3	0.8
313.15	60000	0.6367	860.6	0.8
313.15	70000	0.6367	865.6	0.8
313.15	80000	0.6367	870.5	0.8
313.15	90000	0.6367	875.1	0.8
313.15	100000	0.6367	879.4	0.9
313.15	120000	0.6367	887.7	0.9
313.15	140000	0.6367	895.5	0.9
333.15	100	0.6367	805.8	0.7
333.15	1000	0.6367	806.6	0.7
333.15	5000	0.6367	810.1	0.7
333.15	10000	0.6367	814.2	0.7
333.15	20000	0.6367	821.9	0.7
333.15	30000	0.6367	828.9	0.8
333.15	40000	0.6367	835.5	0.8
333.15	50000	0.6367	841.6	0.8
333.15	60000	0.6367	847.3	0.8
333.15	70000	0.6367	852.7	0.8
333.15	80000	0.6367	857.8	0.9
333.15	90000	0.6367	862.7	0.9
333.15	100000	0.6367	867.4	0.9
333.15	120000	0.6367	876.1	0.9
333.15	140000	0.6367	884.3	1
273.15	100	0.7249	849.2	0.7
273.15	1000	0.7249	849.5	0.7
273.15	5000	0.7249	852.1	0.7
273.15	10000	0.7249	855.2	0.7
273.15	20000	0.7249	860.8	0.7
273.15	30000	0.7249	866.3	0.7
273.15	40000	0.7249	871.4	0.7
273.15	50000	0.7249	876.2	0.8
273.15	60000	0.7249	880.8	0.8
273.15	70000	0.7249	885.2	0.8
273.15	80000	0.7249	889.5	0.8
273.15	90000	0.7249	893.6	0.8
273.15	100000	0.7249	897.5	0.8
273.15	120000	0.7249	905	0.8
273.15	140000	0.7249	911.9	0.9
293.15	100	0.7249	833.1	0.7
293.15	1000	0.7249	833.7	0.7
293.15	5000	0.7249	836.5	0.7
293.15	10000	0.7249	839.9	0.7
293.15	20000	0.7249	846.2	0.7
293.15	30000	0.7249	852.1	0.7
293.15	40000	0.7249	857.6	0.8
293.15	50000	0.7249	862.8	0.8
293.15	60000	0.7249	867.8	0.8
293.15	70000	0.7249	872.6	0.8
293.15	80000	0.7249	877	0.8
293.15	90000	0.7249	881.3	0.8
293.15	100000	0.7249	885.4	0.9
293.15	120000	0.7249	893.3	0.9
293.15	140000	0.7249	900.7	0.9
313.15	100	0.7249	816.8	0.7
313.15	1000	0.7249	817.5	0.7
313.15	5000	0.7249	820.6	0.7
313.15	10000	0.7249	824.3	0.7
313.15	20000	0.7249	831.2	0.7
313.15	30000	0.7249	837.7	0.8
313.15	40000	0.7249	843.7	0.8
313.15	50000	0.7249	849.4	0.8
313.15	60000	0.7249	854.7	0.8
313.15	70000	0.7249	859.8	0.8
313.15	80000	0.7249	864.6	0.8
313.15	90000	0.7249	869.1	0.9
313.15	100000	0.7249	873.5	0.9
313.15	120000	0.7249	881.8	0.9
313.15	140000	0.7249	889.6	0.9
333.15	100	0.7249	799.8	0.7
333.15	1000	0.7249	800.7	0.7
333.15	5000	0.7249	804.2	0.7
333.15	10000	0.7249	808.3	0.7
333.15	20000	0.7249	816	0.7
333.15	30000	0.7249	823.1	0.8
333.15	40000	0.7249	829.6	0.8
333.15	50000	0.7249	835.7	0.8
333.15	60000	0.7249	841.4	0.8
333.15	70000	0.7249	846.9	0.8
333.15	80000	0.7249	852	0.9
333.15	90000	0.7249	856.9	0.9
333.15	100000	0.7249	861.6	0.9
333.15	120000	0.7249	870.3	0.9
333.15	140000	0.7249	878.6	1
273.15	1000	0.7977	843.7	0.7
273.15	5000	0.7977	846.3	0.7
273.15	10000	0.7977	849.4	0.7
273.15	20000	0.7977	855.2	0.7
273.15	30000	0.7977	860.6	0.7
273.15	40000	0.7977	865.8	0.8
273.15	50000	0.7977	870.6	0.8
273.15	60000	0.7977	875.2	0.8
273.15	70000	0.7977	879.7	0.8
273.15	80000	0.7977	883.9	0.8
273.15	90000	0.7977	888	0.8
273.15	100000	0.7977	891.9	0.8
273.15	120000	0.7977	899.4	0.9
273.15	140000	0.7977	906.4	0.9
293.15	100	0.7977	827.5	0.7
293.15	1000	0.7977	828.1	0.7
293.15	5000	0.7977	831	0.7
293.15	10000	0.7977	834.3	0.7
293.15	20000	0.7977	840.6	0.7
293.15	30000	0.7977	846.5	0.7
293.15	40000	0.7977	852.1	0.8
293.15	50000	0.7977	857.3	0.8
293.15	60000	0.7977	862.3	0.8
293.15	70000	0.7977	867	0.8
293.15	80000	0.7977	871.6	0.8
293.15	90000	0.7977	875.9	0.8
293.15	100000	0.7977	880	0.9
293.15	120000	0.7977	887.9	0.9
293.15	140000	0.7977	895.4	0.9
313.15	100	0.7977	811.4	0.7
313.15	1000	0.7977	812	0.7
313.15	5000	0.7977	815.2	0.7
313.15	10000	0.7977	818.9	0.7
313.15	20000	0.7977	825.8	0.7
313.15	30000	0.7977	832.4	0.8
313.15	40000	0.7977	838.4	0.8
313.15	50000	0.7977	844	0.8
313.15	60000	0.7977	849.3	0.8
313.15	70000	0.7977	854.4	0.8
313.15	80000	0.7977	859.3	0.9
313.15	90000	0.7977	863.8	0.9
313.15	100000	0.7977	868.2	0.9
313.15	120000	0.7977	876.5	0.9
313.15	140000	0.7977	884.4	1
333.15	100	0.7977	794.5	0.7
333.15	1000	0.7977	795.3	0.7
333.15	5000	0.7977	798.8	0.7
333.15	10000	0.7977	803	0.7
333.15	20000	0.7977	810.7	0.7
333.15	30000	0.7977	817.8	0.8
333.15	40000	0.7977	824.4	0.8
333.15	50000	0.7977	830.5	0.8
333.15	60000	0.7977	836.3	0.8
333.15	70000	0.7977	841.7	0.9
333.15	80000	0.7977	846.8	0.9
333.15	90000	0.7977	851.7	0.9
333.15	100000	0.7977	856.4	0.9
333.15	120000	0.7977	865.2	1
333.15	140000	0.7977	873.5	1
273.15	100	0.9131	833.3	0.7
273.15	1000	0.9131	833.7	0.7
273.15	5000	0.9131	836.3	0.7
273.15	10000	0.9131	839.4	0.7
273.15	20000	0.9131	845.3	0.7
273.15	30000	0.9131	850.8	0.7
273.15	40000	0.9131	856	0.8
273.15	50000	0.9131	860.9	0.8
273.15	60000	0.9131	865.5	0.8
273.15	70000	0.9131	870.1	0.8
273.15	80000	0.9131	874.3	0.8
273.15	90000	0.9131	878.4	0.8
273.15	100000	0.9131	882.3	0.9
273.15	120000	0.9131	889.9	0.9
273.15	140000	0.9131	896.8	0.9
293.15	100	0.9131	817.8	0.7
293.15	1000	0.9131	818.4	0.7
293.15	5000	0.9131	821.3	0.7
293.15	10000	0.9131	824.7	0.7
293.15	20000	0.9131	831.1	0.7
293.15	30000	0.9131	837.1	0.8
293.15	40000	0.9131	842.7	0.8
293.15	50000	0.9131	847.9	0.8
293.15	60000	0.9131	852.9	0.8
293.15	70000	0.9131	857.7	0.8
293.15	80000	0.9131	862.3	0.8
293.15	90000	0.9131	866.6	0.9
293.15	100000	0.9131	870.7	0.9
293.15	120000	0.9131	878.7	0.9
293.15	140000	0.9131	886.1	0.9
313.15	100	0.9131	802	0.7
313.15	1000	0.9131	802.8	0.7
313.15	5000	0.9131	805.9	0.7
313.15	10000	0.9131	809.7	0.7
313.15	20000	0.9131	816.7	0.7
313.15	30000	0.9131	823.2	0.8
313.15	40000	0.9131	829.4	0.8
313.15	50000	0.9131	835	0.8
313.15	60000	0.9131	840.3	0.8
313.15	70000	0.9131	845.4	0.8
313.15	80000	0.9131	850.3	0.9
313.15	90000	0.9131	854.8	0.9
313.15	100000	0.9131	859.2	0.9
313.15	120000	0.9131	867.5	1
313.15	140000	0.9131	875.3	1
333.15	100	0.9131	785.6	0.7
333.15	1000	0.9131	786.4	0.7
333.15	5000	0.9131	789.9	0.7
333.15	10000	0.9131	794.1	0.7
333.15	20000	0.9131	801.9	0.7
333.15	30000	0.9131	809.1	0.8
333.15	40000	0.9131	815.6	0.8
333.15	50000	0.9131	821.7	0.8
333.15	60000	0.9131	827.5	0.8
333.15	70000	0.9131	832.9	0.9
333.15	80000	0.9131	838	0.9
333.15	90000	0.9131	842.9	0.9
333.15	100000	0.9131	847.6	0.9
333.15	120000	0.9131	856.4	1
333.15	140000	0.9131	864.5	1
273.15	100	1	824.6	0.7
273.15	1000	1	825.2	0.7
273.15	5000	1	827.7	0.7
273.15	10000	1	830.8	0.7
273.15	20000	1	836.7	0.7
273.15	30000	1	842.3	0.7
273.15	40000	1	847.6	0.8
273.15	50000	1	852.5	0.8
273.15	60000	1	857.2	0.8
273.15	70000	1	861.7	0.8
273.15	80000	1	866	0.8
273.15	90000	1	870.1	0.9
273.15	100000	1	874	0.9
273.15	120000	1	881.5	0.9
273.15	140000	1	888.5	0.9
293.15	100	1	809.6	0.7
293.15	1000	1	810.2	0.7
293.15	5000	1	813.1	0.7
293.15	10000	1	816.5	0.7
293.15	20000	1	822.9	0.7
293.15	30000	1	829	0.8
293.15	40000	1	834.7	0.8
293.15	50000	1	840	0.8
293.15	60000	1	845	0.8
293.15	70000	1	849.8	0.8
293.15	80000	1	854.4	0.9
293.15	90000	1	858.7	0.9
293.15	100000	1	862.9	0.9
293.15	120000	1	870.8	0.9
293.15	140000	1	878.2	1
313.15	100	1	794.1	0.7
313.15	1000	1	794.8	0.7
313.15	5000	1	798	0.7
313.15	10000	1	801.8	0.7
313.15	20000	1	808.9	0.7
313.15	30000	1	815.5	0.8
313.15	40000	1	821.6	0.8
313.15	50000	1	827.4	0.8
313.15	60000	1	832.7	0.8
313.15	70000	1	837.8	0.9
313.15	80000	1	842.7	0.9
313.15	90000	1	847.3	0.9
313.15	100000	1	851.7	0.9
313.15	120000	1	860	1
313.15	140000	1	867.8	1
333.15	100	1	778	0.7
333.15	1000	1	778.8	0.7
333.15	5000	1	782.4	0.7
333.15	10000	1	786.5	0.7
333.15	20000	1	794.4	0.7
333.15	30000	1	801.6	0.8
333.15	40000	1	808.2	0.8
333.15	50000	1	814.4	0.8
333.15	60000	1	820.1	0.8
333.15	70000	1	825.6	0.9
333.15	80000	1	830.7	0.9
333.15	90000	1	835.6	0.9
333.15	100000	1	840.3	1
333.15	120000	1	849	1
333.15	140000	1	857.1	1.1
273.15	100	0	891.7	0.7
273.15	1000	0	892.3	0.7
273.15	5000	0	894.6	0.7
273.15	10000	0	897.4	0.7
273.15	20000	0	902.8	0.7
273.15	30000	0	908	0.7
273.15	40000	0	912.9	0.7
273.15	50000	0	917.5	0.7
273.15	60000	0	921.9	0.7
273.15	70000	0	926.2	0.7
273.15	80000	0	930.3	0.8
273.15	90000	0	934.2	0.8
273.15	100000	0	938	0.8
273.15	120000	0	945.2	0.8
273.15	140000	0	952	0.8
293.15	100	0	875.1	0.7
293.15	1000	0	875.7	0.7
293.15	5000	0	878.2	0.7
293.15	10000	0	881.4	0.7
293.15	20000	0	887.3	0.7
293.15	30000	0	892.9	0.7
293.15	40000	0	898.2	0.7
293.15	50000	0	903.2	0.7
293.15	60000	0	908	0.8
293.15	70000	0	912.6	0.8
293.15	80000	0	916.9	0.8
293.15	90000	0	921.1	0.8
293.15	100000	0	925.1	0.8
293.15	120000	0	932.8	0.8
293.15	140000	0	939.9	0.8
313.15	100	0	859	0.7
313.15	1000	0	859.7	0.7
313.15	5000	0	862.6	0.7
313.15	10000	0	866	0.7
313.15	20000	0	872.6	0.7
313.15	30000	0	878.7	0.7
313.15	40000	0	884.5	0.7
313.15	50000	0	889.9	0.8
313.15	60000	0	895	0.8
313.15	70000	0	899.9	0.8
313.15	80000	0	904.6	0.8
313.15	90000	0	909	0.8
313.15	100000	0	913.3	0.8
313.15	120000	0	921.4	0.8
313.15	140000	0	928.9	0.8
333.15	100	0	843.6	0.7
333.15	1000	0	844.4	0.7
333.15	5000	0	847.6	0.7
333.15	10000	0	851.4	0.7
333.15	20000	0	858.6	0.7
333.15	30000	0	865.3	0.7
333.15	40000	0	871.6	0.8
333.15	50000	0	877.4	0.8
333.15	60000	0	883	0.8
333.15	70000	0	888.2	0.8
333.15	80000	0	893.2	0.8
333.15	90000	0	898	0.8
333.15	100000	0	902.5	0.8
333.15	120000	0	911.1	0.8
333.15	140000	0	919	0.8

System: butan-1-ol + 1,2,4-trimethylbenzene; phases: Liquid
Fixed: Pressure, kPa = 100
Property: Viscosity, Pa*s (Liquid); method: Concentric cylinders viscometry
Temperature, K	Mole fraction of butan-1-ol	Viscosity, Pa*s	uncertainty
293.15	0	0.000888	1.9e-05
293.15	0.1002	0.000898	1.9e-05
293.15	0.2327	0.000949	2e-05
293.15	0.3	0.001001	2.1e-05
293.15	0.3969	0.001087	2.3e-05
293.15	0.637	0.001483	3.1e-05
293.15	0.7975	0.001975	4.1e-05
293.15	0.9131	0.002464	5.1e-05
293.15	1	0.002953	6e-05
303.15	0	0.000779	1.7e-05
303.15	0.1002	0.000783	1.7e-05
303.15	0.2327	0.000818	1.7e-05
303.15	0.3	0.000857	1.8e-05
303.15	0.3969	0.000919	1.9e-05
303.15	0.53	0.001049	2.2e-05
303.15	0.637	0.001203	2.5e-05
303.15	0.7975	0.001559	3.2e-05
303.15	0.9131	0.001916	3.9e-05
303.15	1	0.002263	4.6e-05
313.15	0	0.000692	1.5e-05
313.15	0.1002	0.00069	1.5e-05
313.15	0.2327	0.000716	1.5e-05
313.15	0.3	0.000744	1.6e-05
313.15	0.3969	0.000787	1.7e-05
313.15	0.53	0.000882	1.9e-05
313.15	0.637	0.000994	2.1e-05
313.15	0.7975	0.001254	2.6e-05
313.15	0.9131	0.001516	3.1e-05
313.15	1	0.001769	3.6e-05
323.15	0	0.00062	1.4e-05
323.15	0.1002	0.000615	1.3e-05
323.15	0.2327	0.000631	1.4e-05
323.15	0.3	0.000653	1.4e-05
323.15	0.3969	0.000683	1.5e-05
323.15	0.53	0.000754	1.6e-05
323.15	0.637	0.000835	1.8e-05
323.15	0.7975	0.001027	2.2e-05
323.15	0.9131	0.00122	2.5e-05
323.15	1	0.001406	2.9e-05
333.15	0	0.000562	1.2e-05
333.15	0.1002	0.000552	1.2e-05
333.15	0.2327	0.000564	1.2e-05
333.15	0.3	0.000582	1.3e-05
333.15	0.3969	0.0006	1.3e-05
333.15	0.53	0.000652	1.4e-05
333.15	0.637	0.000711	1.5e-05
333.15	0.7975	0.000853	1.8e-05
333.15	0.9131	0.000996	2.1e-05
333.15	1	0.001134	2.4e-05

System: butan-1-ol + 1,2,4-trimethylbenzene; phases: Liquid
Property: Molar heat capacity at constant pressure, J/K/mol (Liquid); method: Flow calorimetry
Temperature, K	Pressure, kPa	Mole fraction of butan-1-ol	Molar heat capacity at constant pressure, J/K/mol	uncertainty
293.15	100	0.1002	220	3.1
293.15	100	0.2327	219.5	3.1
293.15	100	0.3969	214	3
293.15	100	0.53	209.9	3
293.15	100	0.637	203.6	2.9
293.15	100	0.7176	197	2.8
293.15	100	0.7975	192.5	2.7
293.15	100	0.8594	186.5	2.6
293.15	100	0.9131	181.9	2.6
293.15	5000	0.1002	219	3.1
293.15	5000	0.2327	219	3.1
293.15	5000	0.3969	213.4	3
293.15	5000	0.53	208.8	2.9
293.15	5000	0.637	203.3	2.9
293.15	5000	0.7176	196	2.8
293.15	5000	0.7975	191.8	2.7
293.15	5000	0.8594	186.3	2.6
293.15	5000	0.9131	181.4	2.6
293.15	10000	0.1002	217.3	3.1
293.15	10000	0.2327	218.1	3.1
293.15	10000	0.3969	212.8	3
293.15	10000	0.53	207.7	2.9
293.15	10000	0.637	202.4	2.8
293.15	10000	0.7176	194.9	2.7
293.15	10000	0.7975	190.8	2.7
293.15	10000	0.8594	185.1	2.6
293.15	10000	0.9131	181.1	2.5
293.15	15000	0.1002	216	3
293.15	15000	0.2327	217.4	3.1
293.15	15000	0.3969	212.1	3
293.15	15000	0.53	206.3	2.9
293.15	15000	0.637	202	2.8
293.15	15000	0.7176	194.2	2.7
293.15	15000	0.7975	190.2	2.7
293.15	15000	0.8594	184.1	2.6
293.15	15000	0.9131	180.7	2.5
293.15	20000	0.1002	215.4	3
293.15	20000	0.2327	216.9	3.1
293.15	20000	0.3969	211.3	3
293.15	20000	0.53	205.9	2.9
293.15	20000	0.637	201.1	2.8
293.15	20000	0.7176	193.3	2.7
293.15	20000	0.7975	189.6	2.7
293.15	20000	0.8594	183.4	2.6
293.15	20000	0.9131	180.3	2.5
293.15	25000	0.1002	214.5	3
293.15	25000	0.2327	216.3	3
293.15	25000	0.3969	210.3	3
293.15	25000	0.53	204.7	2.9
293.15	25000	0.637	199.9	2.8
293.15	25000	0.7176	192	2.7
293.15	25000	0.7975	188.6	2.7
293.15	25000	0.8594	182.4	2.6
293.15	25000	0.9131	180	2.5
313.15	100	0.1002	230.5	3.2
313.15	100	0.2327	231.1	3.3
313.15	100	0.3969	230	3.2
313.15	100	0.53	224.9	3.2
313.15	100	0.637	220.4	3.1
313.15	100	0.7176	214.4	3
313.15	100	0.7975	210.3	3
313.15	100	0.8594	204.5	2.9
313.15	100	0.9131	200.7	2.8
313.15	5000	0.1002	229.4	3.2
313.15	5000	0.2327	230.1	3.2
313.15	5000	0.3969	228.9	3.2
313.15	5000	0.53	223	3.1
313.15	5000	0.637	218.9	3.1
313.15	5000	0.7176	212.6	3
313.15	5000	0.7975	209.1	2.9
313.15	5000	0.8594	203.7	2.9
313.15	5000	0.9131	199.4	2.8
313.15	10000	0.1002	228.5	3.2
313.15	10000	0.2327	229.8	3.2
313.15	10000	0.3969	227.4	3.2
313.15	10000	0.53	222.3	3.1
313.15	10000	0.637	217.6	3.1
313.15	10000	0.7176	211.5	3
313.15	10000	0.7975	208.6	2.9
313.15	10000	0.8594	203.3	2.9
313.15	10000	0.9131	198.8	2.8
313.15	15000	0.1002	227.3	3.2
313.15	15000	0.2327	228.5	3.2
313.15	15000	0.3969	226.4	3.2
313.15	15000	0.53	220.5	3.1
313.15	15000	0.637	216.5	3
313.15	15000	0.7176	210.2	3
313.15	15000	0.7975	207.8	2.9
313.15	15000	0.8594	202.6	2.9
313.15	15000	0.9131	197.7	2.8
313.15	20000	0.1002	225.8	3.2
313.15	20000	0.2327	227.3	3.2
313.15	20000	0.3969	225.4	3.2
313.15	20000	0.53	219.2	3.1
313.15	20000	0.637	215.4	3
313.15	20000	0.7176	209.3	2.9
313.15	20000	0.7975	206.4	2.9
313.15	20000	0.8594	202	2.8
313.15	20000	0.9131	196.6	2.8
313.15	25000	0.1002	225.5	3.2
313.15	25000	0.2327	227	3.2
313.15	25000	0.3969	224.3	3.2
313.15	25000	0.53	218.4	3.1
313.15	25000	0.637	213.6	3
313.15	25000	0.7176	208.1	2.9
313.15	25000	0.7975	206.1	2.9
313.15	25000	0.8594	201.3	2.8
313.15	25000	0.9131	196	2.8
293.15	100	0	216.2	3
293.15	5000	0	215	3
293.15	10000	0	213.3	3
293.15	15000	0	212.5	3
293.15	20000	0	210.8	3
293.15	25000	0	209.8	3
313.15	100	0	222.5	3.1
313.15	5000	0	221.2	3.1
313.15	10000	0	219.6	3.1
313.15	15000	0	218.5	3.1
313.15	20000	0	217.7	3.1
313.15	25000	0	217.1	3.1
