Measured thermophysical data. Isobaric vapor-liquid equilibria for the extractive distillation of 2-propanol + water mixtures using 1-ethyl-3-methylimidazolium dicyanamide ionic liquid
Source: J. Chem. Thermodyn., 2017, 10.1016/j.jct.2017.02.005
Compound 1: propan-2-ol, C3H8O, InChI=1S/C3H8O/c1-3(2)4/h3-4H,1-2H3, purity 99.8%
Compound 2: 1-ethyl-3-methylimidazolium dicyanamide, C8H11N5, InChI=1S/C6H11N2.C2N3/c1-3-8-5-4-7(2)6-8;3-1-5-2-4/h4-6H,3H2,1-2H3;/q+1;-1, purity 98%
Compound 3: water, H2O, InChI=1S/H2O/h1H2, purity 99.8%

System: propan-2-ol; phases: Liquid, Gas
Property: Vapor or sublimation pressure, kPa (Liquid); method: Ebulliometric method (Recirculating still)
Temperature, K	Vapor or sublimation pressure, kPa	uncertainty
317.07	17.46	0.22
317.65	17.98	0.22
318.1	18.39	0.22
318.73	19.01	0.22
319.19	19.48	0.23
319.72	20.03	0.23
320.19	20.52	0.23
320.65	21	0.23
321.11	21.49	0.23
321.58	22.03	0.23
322.07	22.55	0.23
322.47	23.03	0.23
322.91	23.52	0.23
323.32	24.02	0.24
323.71	24.51	0.24
324.13	25.03	0.24
324.49	25.48	0.24
324.94	26.04	0.24
325.3	26.52	0.24
325.72	27.08	0.24
326.18	27.69	0.24
326.53	28.19	0.24
326.99	28.83	0.24
327.46	29.45	0.25
327.86	30.08	0.25
328.47	30.96	0.25
329.06	31.86	0.25
329.64	32.76	0.26
330.26	33.77	0.26
330.73	34.52	0.26
331.32	35.48	0.26
331.83	36.37	0.27
332.44	37.45	0.27
332.99	38.41	0.27
333.5	39.33	0.27
334.1	40.41	0.28
334.6	41.44	0.28
335.12	42.44	0.28
335.64	43.46	0.28
336.11	44.38	0.29
336.55	45.32	0.29
337.07	46.34	0.29
337.5	47.28	0.3
337.98	48.35	0.3
338.45	49.34	0.29
338.86	50.25	0.3
339.3	51.26	0.31
339.72	52.33	0.31
340.04	53.01	0.3
340.43	53.94	0.31
340.89	55.03	0.31
341.25	55.92	0.31
341.69	56.96	0.32
342.09	58.05	0.33
342.48	59.04	0.33
342.82	59.93	0.33
343.2	60.91	0.33
343.59	61.94	0.34
343.96	62.98	0.34
344.32	63.92	0.34
344.68	64.96	0.35
345.05	65.97	0.34
345.35	66.84	0.36
345.75	68.03	0.36
346.13	69.14	0.36
346.46	70.12	0.36
347.11	72.04	0.37
347.79	74.18	0.37
348.37	75.96	0.37
348.95	77.81	0.38
349.61	79.96	0.39
350.08	81.58	0.4
350.75	83.94	0.4
351.21	85.47	0.4
351.69	87.17	0.41
352.09	88.63	0.41
352.54	90.24	0.42
353.16	92.57	0.43
353.66	94.46	0.43
354.2	96.49	0.43
354.59	98.05	0.44
355.09	100	0.45
355.09	100.03	0.45
355.38	101.28	0.45
355.93	103.44	0.45
356.4	105.38	0.46
356.76	106.91	0.47
357.16	108.63	0.47
357.52	110.13	0.47
357.93	111.88	0.49
358.35	113.79	0.49
358.65	115.1	0.5
358.98	116.64	0.5
359.43	118.64	0.5
359.77	120.24	0.52
360.16	122.11	0.52
360.57	124.03	0.52
360.9	125.62	0.52
361.26	127.36	0.52
361.62	129.08	0.54
361.98	130.93	0.55
362.26	132.35	0.54
362.52	133.65	0.54

System: water; phases: Liquid, Gas
Property: Vapor or sublimation pressure, kPa (Liquid); method: Ebulliometric method (Recirculating still)
Temperature, K	Vapor or sublimation pressure, kPa	uncertainty
372.81	100	0.65
372.84	100	0.75

System: propan-2-ol + water; phases: Gas, Liquid
Fixed: Pressure, kPa = 100
Property: Mole fraction of propan-2-ol (Gas); method: Chromatography
Mole fraction of propan-2-ol	Mole fraction of propan-2-ol	uncertainty
0	0	
0.002	0.05	0.037
0.004	0.102	0.039
0.009	0.179	0.029
0.015	0.259	0.019
0.026	0.346	0.013
0.039	0.415	0.009
0.056	0.464	0.006
0.083	0.494	0.005
0.117	0.512	0.005
0.158	0.524	0.005
0.197	0.531	0.005
0.233	0.539	0.005
0.272	0.546	0.004
0.31	0.556	0.004
0.354	0.562	0.004
0.395	0.571	0.004
0.435	0.581	0.004
0.476	0.592	0.004
0.522	0.608	0.004
0.561	0.622	0.004
0.607	0.643	0.004
0.658	0.67	0.004
0.716	0.702	0.004
0.761	0.734	0.003
0.809	0.772	0.003
0.864	0.826	0.003
0.907	0.872	0.003
0.95	0.928	0.003
0.973	0.961	0.004
1	1	

System: propan-2-ol + water; phases: Liquid, Gas
Fixed: Pressure, kPa = 100
Property: Boiling temperature at pressure P, K (Liquid); method: Ebulliometric method (Recirculating still)
Mole fraction of propan-2-ol	Boiling temperature at pressure P, K	uncertainty
0	372.81	0.13
0.002	371.44	1.35
0.004	369.29	1.34
0.009	366.74	0.96
0.015	364.05	0.59
0.026	361.66	0.4
0.039	359.46	0.29
0.056	357.68	0.19
0.083	356.36	0.15
0.117	355.7	0.14
0.158	355.28	0.13
0.197	354.95	0.13
0.233	354.76	0.13
0.272	354.56	0.13
0.31	354.34	0.13
0.354	354.12	0.13
0.395	353.91	0.13
0.435	353.73	0.13
0.476	353.55	0.13
0.522	353.4	0.13
0.561	353.28	0.13
0.607	353.16	0.13
0.658	353.12	0.13
0.716	353.11	0.13
0.761	353.19	0.13
0.809	353.35	0.13
0.864	353.65	0.13
0.907	354.02	0.13
0.95	354.44	0.13
0.973	354.74	0.14
1	355.09	0.13

System: propan-2-ol + 1-ethyl-3-methylimidazolium dicyanamide; phases: Liquid, Gas
Fixed: Pressure, kPa = 100
Property: Boiling temperature at pressure P, K (Liquid); method: Ebulliometric method (Recirculating still)
Mole fraction of 1-ethyl-3-methylimidazolium dicyanamide	Boiling temperature at pressure P, K	uncertainty
0	355.09	0.15
0.0148	355.33	0.15
0.0148	355.49	0.15
0.0256	355.65	0.15
0.0367	355.85	0.15
0.0491	356.13	0.15
0.0607	356.31	0.15
0.0722	356.58	0.15
0.084	356.83	0.15
0.0961	357.18	0.15
0.1089	357.56	0.15
0.1218	358.05	0.15
0.1325	358.38	0.15
0.1447	358.84	0.15
0.1559	359.17	0.15
0.1671	359.49	0.15
0.1801	360.15	0.15
0.193	360.53	0.15
0.2057	361.11	0.15
0.2216	361.66	0.15
0.2362	362.13	0.15
0.25	362.75	0.15
0.2667	363.46	0.15
0.2873	364.5	0.15
0.3002	364.79	0.15
0.3082	365.13	0.15
0.3175	365.47	0.15
0.3253	365.83	0.15
0.3363	366.47	0.15
0.3459	366.82	0.15
0.3565	367.05	0.15
0.3616	367.43	0.15
0.3691	367.78	0.15
0.3758	368.22	0.15
0.3843	368.53	0.15
0.3908	369.08	0.16
0.3947	369.5	0.16

System: propan-2-ol + 1-ethyl-3-methylimidazolium dicyanamide; phases: Liquid, Gas
Fixed: Pressure, kPa = 100
Property: Boiling temperature at pressure P, K (Liquid); method: Ebulliometric method (Recirculating still)
Mole fraction of propan-2-ol	Boiling temperature at pressure P, K	uncertainty
0.951	356.13	0.16
0.897	357.56	0.17
0.775	361.97	0.17
0.713	364.5	0.17

System: water + 1-ethyl-3-methylimidazolium dicyanamide; phases: Liquid, Gas
Fixed: Pressure, kPa = 100
Property: Boiling temperature at pressure P, K (Liquid); method: Ebulliometric method (Recirculating still)
Mole fraction of 1-ethyl-3-methylimidazolium dicyanamide	Boiling temperature at pressure P, K	uncertainty
0	372.84	0.15
0.0059	373.08	0.15
0.0114	373.33	0.15
0.0191	373.56	0.15
0.028	373.86	0.15
0.035	374.1	0.15
0.0442	374.36	0.15
0.054	374.76	0.15
0.0643	375.16	0.15
0.0765	375.63	0.15
0.0886	376.11	0.15
0.1	376.69	0.15
0.1109	377.16	0.15
0.1191	377.62	0.15
0.1393	378.77	0.15
0.1479	379.22	0.15
0.1633	380.17	0.15
0.1797	381.18	0.15
0.1911	381.95	0.15
0.2037	382.72	0.15
0.2142	383.8	0.15
0.228	384.8	0.15
0.2407	385.55	0.71
0.2552	386.89	0.71
0.2724	388.42	0.71
0.2946	390.32	0.71
0.3252	392.64	0.71
0.3483	394.76	0.71
0.385	397.87	0.71
0.4331	401.78	0.71

System: water + 1-ethyl-3-methylimidazolium dicyanamide; phases: Liquid, Gas
Fixed: Pressure, kPa = 100
Property: Boiling temperature at pressure P, K (Liquid); method: Ebulliometric method (Recirculating still)
Mole fraction of water	Boiling temperature at pressure P, K	uncertainty
0.946	374.71	0.17
0.903	376.48	0.19
0.771	384.84	0.2
0.694	390.99	0.22

System: propan-2-ol + water + 1-ethyl-3-methylimidazolium dicyanamide; phases: Liquid, Gas
Fixed: Pressure, kPa = 100
Property: Mole fraction of water (Liquid); method: Chromatography
Property: Mole fraction of water (Gas); method: Chromatography
Property: Mole fraction of propan-2-ol (Gas); method: Chromatography
Temperature, K	Mole fraction of propan-2-ol	Mole fraction of water	uncertainty	Mole fraction of water	uncertainty	Mole fraction of propan-2-ol	uncertainty
374.71	0	0.946	0.002	1		0	
372.41	0.007	0.941	0.002	0.92	0.002	0.08	
367.09	0.027	0.92	0.002	0.756	0.003	0.244	
363.06	0.057	0.89	0.002	0.633	0.004	0.367	
359.97	0.097	0.85	0.002	0.542	0.004	0.458	
357.66	0.149	0.797	0.003	0.492	0.005	0.508	
356.41	0.214	0.732	0.003	0.456	0.004	0.544	
355.66	0.281	0.665	0.003	0.43	0.004	0.57	
355.2	0.347	0.598	0.004	0.404	0.004	0.596	
354.86	0.409	0.537	0.004	0.38	0.004	0.62	
354.66	0.469	0.476	0.004	0.353	0.004	0.647	
354.54	0.525	0.42	0.004	0.327	0.003	0.673	
354.46	0.577	0.368	0.003	0.3	0.003	0.7	
354.5	0.628	0.317	0.003	0.271	0.003	0.729	
354.58	0.679	0.266	0.003	0.239	0.003	0.761	
354.79	0.75	0.195	0.002	0.188	0.003	0.812	
355.23	0.819	0.124	0.002	0.13	0.002	0.87	
355.72	0.878	0.065	0.002	0.073	0.002	0.927	
356.13	0.951	0		0		1	
376.48	0	0.903	0.002	1		0	
374.22	0.008	0.896	0.002	0.921	0.002	0.079	
370.01	0.03	0.873	0.002	0.777	0.003	0.223	
365.62	0.062	0.84	0.002	0.647	0.004	0.353	
362.51	0.102	0.8	0.003	0.562	0.004	0.438	
360.22	0.148	0.753	0.003	0.498	0.005	0.502	
358.5	0.198	0.703	0.003	0.455	0.004	0.545	
357.41	0.263	0.638	0.003	0.415	0.004	0.585	
356.76	0.332	0.567	0.004	0.377	0.004	0.623	
356.35	0.408	0.49	0.004	0.338	0.004	0.662	
356.11	0.485	0.413	0.004	0.3	0.003	0.7	
356.02	0.56	0.337	0.003	0.257	0.003	0.743	
356.17	0.625	0.271	0.003	0.217	0.003	0.783	
356.29	0.681	0.215	0.003	0.179	0.003	0.821	
356.47	0.733	0.162	0.002	0.142	0.002	0.858	
356.73	0.777	0.118	0.002	0.108	0.002	0.892	
357.04	0.822	0.072	0.002	0.067	0.002	0.933	
357.32	0.857	0.037	0.002	0.035	0.002	0.965	
357.56	0.897	0		0		1	
384.84	0	0.771	0.003	1		0	
383.21	0.005	0.769	0.003	0.954	0.002	0.046	
379.48	0.022	0.751	0.003	0.839	0.003	0.161	
375.73	0.05	0.723	0.003	0.707	0.003	0.293	
371.77	0.088	0.684	0.003	0.585	0.004	0.415	
368.41	0.137	0.635	0.003	0.489	0.005	0.511	
365.75	0.192	0.579	0.004	0.415	0.004	0.585	
363.99	0.245	0.526	0.004	0.357	0.004	0.643	
363.18	0.293	0.475	0.004	0.317	0.003	0.683	
362.34	0.345	0.423	0.004	0.278	0.003	0.722	
361.93	0.394	0.372	0.003	0.244	0.003	0.756	
361.52	0.458	0.31	0.003	0.211	0.003	0.789	
361.39	0.503	0.265	0.003	0.184	0.003	0.816	
361.44	0.543	0.227	0.003	0.157	0.002	0.843	
361.33	0.593	0.178	0.002	0.124	0.002	0.876	
361.44	0.644	0.127	0.002	0.096	0.002	0.904	
361.56	0.691	0.085	0.002	0.062	0.002	0.938	
361.65	0.733	0.045	0.002	0.033	0.002	0.967	
361.97	0.775	0		0		1	
390.99	0	0.694	0.003	1		0	
389.47	0.006	0.694	0.003	0.939	0.002	0.061	
387.18	0.019	0.679	0.003	0.849	0.002	0.151	
383.91	0.038	0.655	0.003	0.739	0.003	0.261	
379.95	0.07	0.621	0.004	0.621	0.004	0.379	
376.08	0.106	0.584	0.004	0.515	0.005	0.485	
373.08	0.146	0.543	0.004	0.434	0.004	0.566	
370.95	0.188	0.502	0.004	0.373	0.004	0.627	
369.05	0.239	0.453	0.004	0.316	0.003	0.684	
367.46	0.292	0.401	0.004	0.268	0.003	0.732	
366.25	0.351	0.341	0.003	0.23	0.003	0.77	
364.98	0.417	0.287	0.003	0.195	0.003	0.805	
364.45	0.464	0.243	0.003	0.168	0.003	0.832	
364.18	0.506	0.205	0.003	0.139	0.002	0.861	
363.91	0.555	0.163	0.002	0.109	0.002	0.891	
363.83	0.591	0.125	0.002	0.083	0.002	0.917	
364.05	0.636	0.08	0.002	0.056	0.002	0.944	
364.3	0.663	0.054	0.002	0.039	0.002	0.961	
364.5	0.713	0		0		1	
