Measured thermophysical data. Thermodynamics of organic mixtures containing amines. VIII. Systems with quinoline
Source: J. Chem. Thermodyn., 2008, 10.1016/j.jct.2008.03.015
Compound 1: quinoline, C9H7N, InChI=1S/C9H7N/c1-2-6-9-8(4-1)5-3-7-10-9/h1-7H
Compound 2: 1-hexadecanol, C16H34O, InChI=1S/C16H34O/c1-2-3-4-5-6-7-8-9-10-11-12-13-14-15-16-17/h17H,2-16H2,1H3
Compound 3: dodecan-1-ol, C12H26O, InChI=1S/C12H26O/c1-2-3-4-5-6-7-8-9-10-11-12-13/h13H,2-12H2,1H3
Compound 4: 1-octadecanol, C18H38O, InChI=1S/C18H38O/c1-2-3-4-5-6-7-8-9-10-11-12-13-14-15-16-17-18-19/h19H,2-18H2,1H3

System: 1-hexadecanol; phases: Crystal 1, Liquid, Air at 1 atmosphere
Property: Normal melting temperature, K (Crystal 1); method: VISOBS::UFactor:4
Normal melting temperature, K	uncertainty
322.91	0.62

System: dodecan-1-ol; phases: Crystal 1, Liquid, Air at 1 atmosphere
Property: Normal melting temperature, K (Crystal 1); method: VISOBS::UFactor:4
Normal melting temperature, K	uncertainty
297.22	0.62

System: 1-octadecanol; phases: Crystal 1, Liquid, Air at 1 atmosphere
Property: Normal melting temperature, K (Crystal 1); method: VISOBS::UFactor:4
Normal melting temperature, K	uncertainty
331.53	0.62

System: quinoline + dodecan-1-ol; phases: Liquid, Crystal 1
Fixed: Pressure, kPa = 101
Property: Solid-liquid equilibrium temperature, K (Liquid); method: VISOBS:UFactor:4
Mole fraction of quinoline	Solid-liquid equilibrium temperature, K	uncertainty
0	297.22	0.62
0.0353	295.82	0.62

System: quinoline + dodecan-1-ol; phases: Liquid, Crystal 2
Fixed: Pressure, kPa = 101
Property: Solid-liquid equilibrium temperature, K (Liquid); method: VISOBS:UFactor:4
Mole fraction of quinoline	Solid-liquid equilibrium temperature, K	uncertainty
0.0695	294.69	0.62
0.1344	292.95	0.62
0.1615	292.11	0.62
0.1956	290.96	0.62

System: quinoline + dodecan-1-ol; phases: Liquid, Crystal 3
Fixed: Pressure, kPa = 101
Property: Solid-liquid equilibrium temperature, K (Liquid); method: VISOBS:UFactor:6
Mole fraction of quinoline	Solid-liquid equilibrium temperature, K	uncertainty
0.224	288.1	0.93
0.2483	287.16	0.93
0.2732	285.02	0.93
0.3	283.9	0.93
0.3312	283.24	0.93
0.3603	281.87	0.93
0.3837	280.98	0.93
0.4216	279.85	0.93
0.4474	278.96	0.93
0.4782	278.17	0.93
0.5051	277.52	0.93
0.5287	276.46	0.93
0.5495	275.77	0.93
0.5756	274.88	0.93
0.5972	273.73	0.93
0.6195	272.87	0.93
0.6422	272.22	0.93
0.6688	270.97	0.93
0.6989	269.9	0.93
0.7258	268.5	0.93
0.7481	267.23	0.93
0.77	265.96	0.93
0.7894	264.99	0.93
0.8126	263.59	0.93
0.837	261.87	0.93
0.8561	260.23	0.93
0.8851	257.79	0.94
0.9037	255.3	0.94
0.9209	252.57	0.93
0.9318	253.35	0.93

System: quinoline + 1-hexadecanol; phases: Liquid, Crystal 1
Fixed: Pressure, kPa = 101
Property: Solid-liquid equilibrium temperature, K (Liquid); method: VISOBS:UFactor:4
Mole fraction of quinoline	Solid-liquid equilibrium temperature, K	uncertainty
0	322.91	0.62
0.0499	319.47	0.62

System: quinoline + 1-hexadecanol; phases: Liquid, Crystal 2
Fixed: Pressure, kPa = 101
Property: Solid-liquid equilibrium temperature, K (Liquid); method: VISOBS:UFactor:4
Mole fraction of quinoline	Solid-liquid equilibrium temperature, K	uncertainty
0.0855	317.43	0.62
0.1195	315.61	0.62
0.1578	313.97	0.62
0.1873	312.42	0.62
0.2175	311.24	0.62
0.2557	309.92	0.62
0.2875	308.66	0.62

System: quinoline + 1-hexadecanol; phases: Liquid, Crystal 3
Fixed: Pressure, kPa = 101
Property: Solid-liquid equilibrium temperature, K (Liquid); method: VISOBS:UFactor:6
Mole fraction of quinoline	Solid-liquid equilibrium temperature, K	uncertainty
0.3188	307.74	0.93
0.3475	306.71	0.93
0.3722	305.77	0.93
0.3983	304.8	0.93
0.4269	303.59	0.93
0.4573	302.74	0.93
0.4816	301.92	0.93
0.5092	300.96	0.93
0.5344	300.06	0.93
0.5564	299.23	0.93
0.5824	298.36	0.93
0.6082	297.5	0.93
0.65	295.78	0.93
0.6991	294.04	0.93
0.7514	291.77	0.93
0.7963	289.28	0.93
0.8203	287.88	0.93
0.8453	286.34	0.93
0.8649	284.87	0.93
0.8804	283.57	0.93
0.8934	282.24	0.93
0.8983	282.5	0.93
0.904	281.23	0.94
0.9141	280.69	0.94
0.9214	278.88	0.94
0.9266	279.11	0.94
0.936	277.34	0.94
0.949	275.3	0.95
0.9568	273.53	0.97
0.97	269.3	0.99
0.9773	266.27	1.05
0.9847	262.27	1.08

System: quinoline + 1-octadecanol; phases: Liquid, Crystal 1
Fixed: Pressure, kPa = 101
Property: Solid-liquid equilibrium temperature, K (Liquid); method: VISOBS:UFactor:4
Mole fraction of quinoline	Solid-liquid equilibrium temperature, K	uncertainty
0	331.53	0.62
0.0125	330.26	0.63

System: quinoline + 1-octadecanol; phases: Liquid, Crystal 2
Fixed: Pressure, kPa = 101
Property: Solid-liquid equilibrium temperature, K (Liquid); method: VISOBS:UFactor:4
Mole fraction of quinoline	Solid-liquid equilibrium temperature, K	uncertainty
0.0811	325.86	0.62
0.1325	323.69	0.62

System: quinoline + 1-octadecanol; phases: Liquid, Crystal 3
Fixed: Pressure, kPa = 101
Property: Solid-liquid equilibrium temperature, K (Liquid); method: VISOBS:UFactor:6
Mole fraction of quinoline	Solid-liquid equilibrium temperature, K	uncertainty
0.1743	321.71	0.93
0.2112	319.77	0.93
0.244	318.36	0.93
0.2855	316.82	0.93
0.3293	315.38	0.93
0.373	313.74	0.93
0.4147	312.47	0.93
0.457	311.04	0.93
0.4976	309.64	0.93
0.5323	308.59	0.93
0.5653	307.6	0.93
0.6019	306.53	0.93
0.6451	305.16	0.93
0.6833	303.84	0.93
0.7273	302.24	0.93
0.7747	300.2	0.93
0.8165	298.28	0.93
0.8654	295.24	0.93
0.9055	291.18	0.94
0.9247	288.4	0.94
0.9392	286.01	0.94
0.9496	284.57	0.95
0.9588	282.57	0.97
0.9659	280.29	0.99
0.9736	277.36	1.04
0.9785	274.18	1.1
0.9843	271.14	1.09
0.9873	269.03	1.17
