Measured thermophysical data. (Vapour + liquid) equilibria of the {1,1-difluoroethane (HFC-152a) + n-butane (HC-600)} system
Source: J. Chem. Thermodyn., 2007, 10.1016/j.jct.2006.12.013
Compound 1: 1,1-difluoroethane, C2H4F2, InChI=1S/C2H4F2/c1-2(3)4/h2H,1H3, purity 99.9%
Compound 2: butane, C4H10, InChI=1S/C4H10/c1-3-4-2/h3-4H2,1-2H3, purity 99.5%

System: 1,1-difluoroethane; phases: Liquid, Gas
Property: Vapor or sublimation pressure, kPa (Liquid); method: CCELL:UFactor:2
Temperature, K	Vapor or sublimation pressure, kPa	uncertainty
313.15	909	6
323.15	1181	7
333.15	1509	10
343.15	1898	12
363.15	2901	18

System: butane; phases: Liquid, Gas
Property: Vapor or sublimation pressure, kPa (Liquid); method: CCELL:UFactor:2
Temperature, K	Vapor or sublimation pressure, kPa	uncertainty
313.15	377	3
323.15	495	4
333.15	638	4
343.15	810	5
353.15	1012	6
363.15	1249	8

System: 1,1-difluoroethane + butane; phases: Liquid, Gas
Property: Vapor or sublimation pressure, kPa (Liquid); method: CCELL:UFactor:2
Mole fraction of 1,1-difluoroethane	Temperature, K	Vapor or sublimation pressure, kPa	uncertainty
0	313.15	377	3
0	323.15	495	4
0	333.15	638	4
0	343.15	810	5
0	353.15	1012	6
0	363.15	1249	8
0.0823	313.15	541	4
0.0976	323.15	730	5
0.1025	333.15	909	6
0.1588	363.15	1847	12
0.1718	343.15	1291	8
0.1835	353.15	1590	10
0.2145	323.15	895	6
0.2251	333.15	1133	7
0.2304	313.15	717	5
0.29	363.15	2183	14
0.3307	313.15	789	5
0.3649	343.15	1597	10
0.382	353.15	1962	12
0.4305	333.15	1352	9
0.4557	323.15	1086	7
0.4562	363.15	2499	16
0.4951	353.15	2110	13
0.5338	313.15	875	6
0.5617	343.15	1788	11
0.6103	313.15	900	6
0.6305	323.15	1164	7
0.6384	353.15	2256	14
0.6396	363.15	2748	17
0.6668	313.15	915	6
0.6857	333.15	1498	9
0.7047	343.15	1878	12
0.7172	313.15	927	6
0.7361	333.15	1517	10
0.7632	363.15	2863	18
0.772	313.15	940	6
0.7793	333.15	1531	10
0.8002	343.15	1922	12
0.8015	313.15	946	6
0.8036	323.15	1211	8
0.8084	353.15	2368	15
0.8105	363.15	2894	18
0.8347	363.15	2908	18
0.8375	333.15	1543	10
0.8401	353.15	2381	15
0.8624	343.15	1936	12
0.8689	363.15	2916	18
0.8754	353.15	2384	15
0.8798	353.15	2385	15
0.8905	323.15	1218	8
0.9124	333.15	1542	10
0.923	343.15	1931	12
0.9396	323.15	1211	8
0.9424	363.15	2920	18
0.9425	313.15	940	6
0.9438	353.15	2358	15
0.961	343.15	1913	12
0.9744	313.15	932	6
1	313.15	909	6
1	323.15	1181	7
1	333.15	1509	10
1	343.15	1898	12
1	363.15	2901	18

System: 1,1-difluoroethane + butane; phases: Gas, Liquid
Property: Mole fraction of 1,1-difluoroethane (Gas); method: Chromatography
Mole fraction of 1,1-difluoroethane	Temperature, K	Mole fraction of 1,1-difluoroethane	uncertainty
0	313.15	0	0.0001
0	323.15	0	0.0001
0	333.15	0	0.0001
0	343.15	0	0.0001
0	353.15	0	0.0001
0	363.15	0	0.0001
0.0823	313.15	0.3295	0.0034
0.0976	323.15	0.3379	0.0035
0.1025	333.15	0.3181	0.0033
0.1588	363.15	0.3506	0.0035
0.1718	343.15	0.4118	0.004
0.1835	353.15	0.4048	0.004
0.2145	323.15	0.4941	0.0048
0.2251	333.15	0.4788	0.0046
0.2304	313.15	0.5336	0.0045
0.29	363.15	0.4843	0.0047
0.3307	313.15	0.6036	0.0038
0.3649	343.15	0.5807	0.004
0.382	353.15	0.5729	0.0041
0.4305	333.15	0.622	0.0036
0.4557	323.15	0.6555	0.0033
0.4562	363.15	0.6023	0.0038
0.4951	353.15	0.6416	0.0035
0.5338	313.15	0.6964	0.0029
0.5617	343.15	0.6878	0.003
0.6103	313.15	0.7278	0.0026
0.6305	323.15	0.735	0.0026
0.6384	353.15	0.7212	0.0027
0.6396	363.15	0.7135	0.0028
0.6668	313.15	0.7497	0.0024
0.6857	333.15	0.7514	0.0024
0.7047	343.15	0.7621	0.0023
0.7172	313.15	0.7771	0.0022
0.7361	333.15	0.7808	0.0021
0.7632	363.15	0.7928	0.002
0.772	313.15	0.8117	0.0018
0.7793	333.15	0.8058	0.0019
0.8002	343.15	0.8226	0.0017
0.8015	313.15	0.8253	0.0017
0.8036	323.15	0.8283	0.0017
0.8084	353.15	0.8281	0.0017
0.8105	363.15	0.8269	0.0017
0.8347	363.15	0.845	0.0015
0.8375	333.15	0.846	0.0015
0.8401	353.15	0.8501	0.0015
0.8624	343.15	0.8675	0.0014
0.8689	363.15	0.8699	0.0014
0.8754	353.15	0.8777	0.0013
0.8798	353.15	0.8822	0.0013
0.8905	323.15	0.8889	0.0012
0.9124	333.15	0.906	0.0012
0.923	343.15	0.9188	0.0011
0.9396	323.15	0.9334	0.001
0.9424	363.15	0.937	0.001
0.9425	313.15	0.931	0.0011
0.9438	353.15	0.9386	0.001
0.961	343.15	0.9543	0.001
0.9744	313.15	0.9674	0.001
1	313.15	1	0.0001
1	323.15	1	0.0001
1	333.15	1	0.0001
1	343.15	1	0.0001
1	363.15	1	0.0001
