Measured thermophysical data. On permittivity and density of the systems (tetraglyme + dimethyl or diethyl carbonate) and the formulation of De in terms of volume or mole fraction
Source: J. Chem. Thermodyn., 2007, 10.1016/j.jct.2007.05.006
Compound 1: 2,5,8,11,14-pentaoxapentadecane, C10H22O5, InChI=1S/C10H22O5/c1-11-3-5-13-7-9-15-10-8-14-6-4-12-2/h3-10H2,1-2H3
Compound 2: dimethyl carbonate, C3H6O3, InChI=1S/C3H6O3/c1-5-3(4)6-2/h1-2H3
Compound 3: diethyl carbonate, C5H10O3, InChI=1S/C5H10O3/c1-3-7-5(6)8-4-2/h3-4H2,1-2H3

System: 2,5,8,11,14-pentaoxapentadecane; phases: Liquid
Fixed: Pressure, kPa = 101.325
Property: Mass density, kg/m3 (Liquid); method: VIBTUB:UFactor:24
Temperature, K	Mass density, kg/m3	uncertainty
288.15	1015.86	1.1
298.15	1007.16	1.01
308.15	997.43	0.97
318.15	987.93	1.05
328.15	979.31	1.13

System: 2,5,8,11,14-pentaoxapentadecane; phases: Liquid
Fixed: Pressure, kPa = 101.3
Fixed: Frequency, MHz = 1
Property: Relative permittivity at various frequencies (Liquid); method: LCR meter
Temperature, K	Relative permittivity at various frequencies	uncertainty
288.15	8.03	0.16
298.15	7.79	0.16
308.15	7.55	0.15
318.15	7.31	0.15
328.15	7.07	0.14

System: dimethyl carbonate; phases: Liquid
Fixed: Pressure, kPa = 101.325
Property: Mass density, kg/m3 (Liquid); method: VIBTUB:UFactor:24
Temperature, K	Mass density, kg/m3	uncertainty
288.15	1076.43	1.7
298.15	1063.26	1.57
308.15	1050.01	1.44
318.15	1036.65	1.31
328.15	1022.92	1.17

System: dimethyl carbonate; phases: Liquid
Fixed: Pressure, kPa = 101.3
Fixed: Frequency, MHz = 1
Property: Relative permittivity at various frequencies (Liquid); method: LCR meter
Temperature, K	Relative permittivity at various frequencies	uncertainty
288.15	3.13	0.06
298.15	3.13	0.06
308.15	3.14	0.06
318.15	3.15	0.06
328.15	3.15	0.06

System: diethyl carbonate; phases: Liquid
Fixed: Pressure, kPa = 101.325
Property: Mass density, kg/m3 (Liquid); method: VIBTUB:UFactor:24
Temperature, K	Mass density, kg/m3	uncertainty
288.15	980.29	0.98
298.15	969.07	1.09
308.15	957.98	1.19
318.15	947.67	1.29
328.15	935.12	1.41

System: diethyl carbonate; phases: Liquid
Fixed: Pressure, kPa = 101.3
Fixed: Frequency, MHz = 1
Property: Relative permittivity at various frequencies (Liquid); method: LCR meter
Temperature, K	Relative permittivity at various frequencies	uncertainty
288.15	2.84	0.06
298.15	2.84	0.06
308.15	2.84	0.06
318.15	2.84	0.06
328.15	2.84	0.06

System: 2,5,8,11,14-pentaoxapentadecane + dimethyl carbonate; phases: Liquid
Fixed: Pressure, kPa = 101
Property: Relative permittivity at various frequencies (Liquid); method: LCR meter
Temperature, K	Mole fraction of 2,5,8,11,14-pentaoxapentadecane	Relative permittivity at various frequencies	uncertainty
288.15	0.0487	3.54	0.07
288.15	0.1001	3.92	0.08
288.15	0.2044	4.62	0.09
288.15	0.3057	5.21	0.1
288.15	0.3983	5.69	0.11
288.15	0.4946	6.15	0.12
288.15	0.5953	6.59	0.13
288.15	0.6962	7	0.14
288.15	0.7973	7.37	0.15
288.15	0.8908	7.69	0.15
298.15	0.0462	3.51	0.07
298.15	0.0989	3.88	0.08
298.15	0.1945	4.49	0.09
298.15	0.2951	5.06	0.1
298.15	0.3988	5.58	0.11
298.15	0.4991	6.03	0.12
298.15	0.5967	6.43	0.13
298.15	0.6923	6.8	0.14
298.15	0.7986	7.17	0.14
298.15	0.896	7.48	0.15
308.15	0.0486	3.51	0.07
308.15	0.0993	3.85	0.08
308.15	0.201	4.47	0.09
308.15	0.2978	4.98	0.1
308.15	0.4004	5.46	0.11
308.15	0.5022	5.89	0.12
308.15	0.5922	6.24	0.12
308.15	0.6945	6.61	0.13
308.15	0.8123	7	0.14
308.15	0.8961	7.24	0.14
318.15	0.0496	3.5	0.07
318.15	0.0982	3.82	0.08
318.15	0.1962	4.37	0.09
318.15	0.2996	4.9	0.1
318.15	0.3979	5.34	0.11
318.15	0.5026	5.76	0.12
318.15	0.5983	6.1	0.12
318.15	0.6991	6.44	0.13
318.15	0.7979	6.75	0.14
318.15	0.8967	7.03	0.14
328.15	0.0503	3.48	0.07
328.15	0.0991	3.77	0.08
328.15	0.1983	4.31	0.09
328.15	0.2934	4.77	0.1
328.15	0.3961	5.21	0.1
328.15	0.5002	5.61	0.11
328.15	0.5957	5.94	0.12
328.15	0.6941	6.25	0.13
328.15	0.7977	6.55	0.13
328.15	0.8955	6.82	0.14

System: 2,5,8,11,14-pentaoxapentadecane + dimethyl carbonate; phases: Liquid
Fixed: Pressure, kPa = 101
Property: Mass density, kg/m3 (Liquid); method: VIBTUB:UFactor:24
Temperature, K	Mole fraction of 2,5,8,11,14-pentaoxapentadecane	Mass density, kg/m3	uncertainty
288.15	0.0505	1069.22	1.62
288.15	0.1038	1062.71	1.56
288.15	0.2043	1052.62	1.46
288.15	0.298	1045.17	1.38
288.15	0.3951	1038.87	1.32
288.15	0.4974	1033.36	1.27
288.15	0.5988	1028.78	1.22
288.15	0.6995	1024.89	1.19
288.15	0.8033	1021.42	1.15
288.15	0.9041	1018.44	1.12
298.15	0.0494	1056.86	1.5
298.15	0.1003	1051.11	1.44
298.15	0.1998	1041.89	1.35
298.15	0.3013	1034.46	1.28
298.15	0.4018	1028.47	1.22
298.15	0.5	1023.59	1.17
298.15	0.6	1019.34	1.13
298.15	0.7055	1015.5	1.09
298.15	0.8004	1012.49	1.06
298.15	0.9	1009.68	1.04
308.15	0.0512	1043.95	1.37
308.15	0.1005	1038.88	1.32
308.15	0.1956	1030.64	1.24
308.15	0.2985	1023.51	1.17
308.15	0.3927	1018.15	1.12
308.15	0.5014	1012.99	1.07
308.15	0.601	1008.99	1.03
308.15	0.6999	1005.55	1
308.15	0.801	1002.48	0.97
308.15	0.8965	999.92	0.94
318.15	0.05	1031.27	1.25
318.15	0.1006	1026.49	1.2
318.15	0.2005	1018.59	1.12
318.15	0.3034	1012.08	1.06
318.15	0.4008	1007.01	1.01
318.15	0.4972	1002.75	0.97
318.15	0.6101	998.53	0.96
318.15	0.692	995.86	0.98
318.15	0.798	992.81	1.01
318.15	0.9	990.2	1.03
328.15	0.0501	1018.22	1.12
328.15	0.1008	1014.03	1.08
328.15	0.2073	1006.67	1.01
328.15	0.3	1001.46	0.96
328.15	0.4	996.75	0.97
328.15	0.5	992.76	1.01
328.15	0.6002	989.34	1.04
328.15	0.7	986.38	1.07
328.15	0.8003	983.75	1.09
328.15	0.9	981.4	1.11

System: diethyl carbonate + 2,5,8,11,14-pentaoxapentadecane; phases: Liquid
Fixed: Pressure, kPa = 101
Property: Relative permittivity at various frequencies (Liquid); method: LCR meter
Temperature, K	Mole fraction of 2,5,8,11,14-pentaoxapentadecane	Relative permittivity at various frequencies	uncertainty
288.15	0.0999	3.46	0.07
288.15	0.2001	4.04	0.08
288.15	0.3001	4.6	0.09
288.15	0.4002	5.13	0.1
288.15	0.4996	5.64	0.11
288.15	0.6021	6.16	0.12
288.15	0.7006	6.65	0.13
288.15	0.8011	7.13	0.14
288.15	0.9023	7.61	0.15
288.15	0.9504	7.82	0.16
298.15	0.0977	3.4	0.07
298.15	0.1967	3.95	0.08
298.15	0.2938	4.47	0.09
298.15	0.3898	4.96	0.1
298.15	0.4912	5.46	0.11
298.15	0.5726	5.86	0.12
298.15	0.6918	6.42	0.13
298.15	0.7953	6.9	0.14
298.15	0.897	7.35	0.15
298.15	0.9488	7.57	0.15
308.15	0.1005	3.39	0.07
308.15	0.1991	3.9	0.08
308.15	0.2968	4.4	0.09
308.15	0.4004	4.9	0.1
308.15	0.4914	5.33	0.11
308.15	0.5501	5.6	0.11
308.15	0.6926	6.25	0.13
308.15	0.7964	6.71	0.13
308.15	0.9	7.14	0.14
308.15	0.9478	7.34	0.15
318.15	0.0959	3.33	0.07
318.15	0.197	3.83	0.08
318.15	0.2963	4.31	0.09
318.15	0.3989	4.79	0.1
318.15	0.4951	5.22	0.1
318.15	0.5935	5.65	0.11
318.15	0.6976	6.1	0.12
318.15	0.79	6.48	0.13
318.15	0.8959	6.91	0.14
318.15	0.9473	7.11	0.14
328.15	0.1	3.32	0.07
328.15	0.1972	3.78	0.08
328.15	0.3	4.24	0.08
328.15	0.4	4.69	0.09
328.15	0.5	5.11	0.1
328.15	0.5995	5.53	0.11
328.15	0.6965	5.92	0.12
328.15	0.7971	6.32	0.13
328.15	0.8996	6.7	0.13
328.15	0.9488	6.88	0.14

System: diethyl carbonate + 2,5,8,11,14-pentaoxapentadecane; phases: Liquid
Fixed: Pressure, kPa = 101
Property: Mass density, kg/m3 (Liquid); method: VIBTUB:UFactor:24
Temperature, K	Mole fraction of 2,5,8,11,14-pentaoxapentadecane	Mass density, kg/m3	uncertainty
288.15	0.0969	986.81	0.93
288.15	0.1954	992.24	0.89
288.15	0.2988	996.98	0.86
288.15	0.3936	1000.66	0.85
288.15	0.497	1004.13	0.89
288.15	0.5946	1007	0.94
288.15	0.6929	1009.57	0.98
288.15	0.7973	1012	1.02
288.15	0.8971	1014.05	1.06
288.15	0.9456	1014.94	1.08
298.15	0.0984	976.11	1.03
298.15	0.1969	981.9	0.98
298.15	0.2944	986.7	0.95
298.15	0.4019	991.18	0.92
298.15	0.478	993.95	0.91
298.15	0.5937	997.65	0.89
298.15	0.688	1000.29	0.89
298.15	0.7965	1002.98	0.93
298.15	0.8977	1005.2	0.97
298.15	0.9458	1006.17	0.99
308.15	0.1003	965.4	1.12
308.15	0.2011	971.49	1.08
308.15	0.3024	976.63	1.04
308.15	0.4022	980.93	1.02
308.15	0.4948	984.38	1
308.15	0.5964	987.68	0.98
308.15	0.6933	990.45	0.97
308.15	0.7953	993.05	0.97
308.15	0.8982	995.4	0.96
308.15	0.9453	996.39	0.96
318.15	0.0969	955.01	1.22
318.15	0.1952	961.16	1.17
318.15	0.3052	966.88	1.13
318.15	0.3875	970.53	1.11
318.15	0.5069	975.08	1.08
318.15	0.6016	978.17	1.07
318.15	0.6966	980.92	1.06
318.15	0.7944	983.44	1.05
318.15	0.8974	985.84	1.05
318.15	0.9472	986.89	1.05
328.15	0.1019	943.48	1.33
328.15	0.2085	950.66	1.27
328.15	0.305	956.1	1.23
328.15	0.3904	960.24	1.21
328.15	0.4974	964.74	1.18
328.15	0.5852	967.97	1.16
328.15	0.6968	971.57	1.15
328.15	0.7981	974.45	1.14
328.15	0.8956	976.94	1.13
328.15	0.948	978.17	1.13
