Measured thermophysical data. Using bis(trifluoromethylsulfonyl)imide based ionic liquids to extract phenolic compounds
Source: J. Chem. Thermodyn., 2019, 10.1016/j.jct.2018.11.002
Compound 1: 1-methyl-3-propylimidazolium bis[(trifluoromethyl)sulfonyl]imide, C9H13F6N3O4S2, InChI=1S/C7H13N2.C2F6NO4S2/c1-3-4-9-6-5-8(2)7-9;3-1(4,5)14(10,11)9-15(12,13)2(6,7)8/h5-7H,3-4H2,1-2H3;/q+1;-1, purity 99%
Compound 2: 1-butyl-3-methylimidazolium bis(trifluoromethylsulfonyl)imide, C10H15F6N3O4S2, InChI=1S/C8H15N2.C2F6NO4S2/c1-3-4-5-10-7-6-9(2)8-10;3-1(4,5)14(10,11)9-15(12,13)2(6,7)8/h6-8H,3-5H2,1-2H3;/q+1;-1, purity 98%
Compound 3: 1-hexyl-3-methylimidazolium bis[(trifluoromethyl)sulfonyl]imide, C12H19F6N3O4S2, InChI=1S/C10H19N2.C2F6NO4S2/c1-3-4-5-6-7-12-9-8-11(2)10-12;3-1(4,5)14(10,11)9-15(12,13)2(6,7)8/h8-10H,3-7H2,1-2H3;/q+1;-1, purity 99.5%
Compound 4: phenol, C6H6O, InChI=1S/C6H6O/c7-6-4-2-1-3-5-6/h1-5,7H, purity 99.5%
Compound 5: 2-methylphenol, C7H8O, InChI=1S/C7H8O/c1-6-4-2-3-5-7(6)8/h2-5,8H,1H3, purity 99%
Compound 6: 2-chlorophenol, C6H5ClO, InChI=1S/C6H5ClO/c7-5-3-1-2-4-6(5)8/h1-4,8H, purity 99%
Compound 7: 1,3-benzenediol, C6H6O2, InChI=1S/C6H6O2/c7-5-2-1-3-6(8)4-5/h1-4,7-8H, purity 99%
Compound 8: water, H2O, InChI=1S/H2O/h1H2, purity 99.8%

System: 1-methyl-3-propylimidazolium bis[(trifluoromethyl)sulfonyl]imide + phenol + water; phases: Liquid, Liquid
Fixed: Pressure, kPa = 101.3
Fixed: Temperature, K = 298.15
Property: Mass concentration, kg/m3 of phenol (Liquid); method: UV/Vis spectrophotometry
Ratio of mass of solute to volume of solution, kg/m3 of phenol	Mass concentration, kg/m3 of phenol	uncertainty
0.00587	6.5e-05	1.3e-05
0.00992	4e-05	1e-05
0.0197	0.000149	3.1e-05
0.0994	0.000298	0.0001
0.198	0.00084	0.00028
0.597	0.00131	0.00043
0.994	0.00314	0.00111
3.99	0.00502	0.00213
9.954	0.0232	0.0076
19.894	0.0531	0.0138
29.865	0.0673	0.0159

System: 1-methyl-3-propylimidazolium bis[(trifluoromethyl)sulfonyl]imide + 2-methylphenol + water; phases: Liquid, Liquid
Fixed: Pressure, kPa = 101.3
Fixed: Temperature, K = 298.15
Property: Mass concentration, kg/m3 of 2-methylphenol (Liquid); method: UV/Vis spectrophotometry
Ratio of mass of solute to volume of solution, kg/m3 of 2-methylphenol	Mass concentration, kg/m3 of 2-methylphenol	uncertainty
0.00589	5.4e-05	1.1e-05
0.00988	5.9e-05	1.2e-05
0.0198	7.6e-05	1.5e-05
0.0999	6.1e-05	1.9e-05
0.2	0.000195	4.7e-05
0.599	0.000421	0.000105
0.999	0.00061	0.00015
3.995	0.00237	0.00074
9.986	0.00699	0.00151
19.985	0.00736	0.00201
29.972	0.0138	0.0047

System: 1-methyl-3-propylimidazolium bis[(trifluoromethyl)sulfonyl]imide + 2-chlorophenol + water; phases: Liquid, Liquid
Fixed: Pressure, kPa = 101.3
Fixed: Temperature, K = 298.15
Property: Mass concentration, kg/m3 of 2-chlorophenol (Liquid); method: UV/Vis spectrophotometry
Ratio of mass of solute to volume of solution, kg/m3 of 2-chlorophenol	Mass concentration, kg/m3 of 2-chlorophenol	uncertainty
0.00598	1.1e-05	2e-06
0.00998	1.1e-05	2e-06
0.02	1.1e-05	2e-06
0.1	1.1e-05	2e-06
0.2	1.5e-05	1.4e-05
0.6	0.000172	5.4e-05
0.999	0.000292	8.4e-05
3.997	0.00147	0.00041
9.993	0.00359	0.00108
19.984	0.00787	0.00233
29.976	0.0122	0.0036

System: 1-methyl-3-propylimidazolium bis[(trifluoromethyl)sulfonyl]imide + 1,3-benzenediol + water; phases: Liquid, Liquid
Fixed: Pressure, kPa = 101.3
Fixed: Temperature, K = 298.15
Property: Mass concentration, kg/m3 of 1,3-benzenediol (Liquid); method: UV/Vis spectrophotometry
Ratio of mass of solute to volume of solution, kg/m3 of 1,3-benzenediol	Mass concentration, kg/m3 of 1,3-benzenediol	uncertainty
0.00515	0.000427	9.8e-05
0.00842	0.000788	0.000174
0.0164	0.00182	0.00038
0.0912	0.0044	0.002
0.167	0.0163	0.0062
0.492	0.054	0.013
0.865	0.0674	0.0148
3.606	0.197	0.043
9.44	0.28	0.058
19.372	0.314	0.064
29.34	0.33	0.067

System: 1-butyl-3-methylimidazolium bis(trifluoromethylsulfonyl)imide + phenol + water; phases: Liquid, Liquid
Fixed: Pressure, kPa = 101.3
Fixed: Temperature, K = 298.15
Property: Mass concentration, kg/m3 of phenol (Liquid); method: UV/Vis spectrophotometry
Ratio of mass of solute to volume of solution, kg/m3 of phenol	Mass concentration, kg/m3 of phenol	uncertainty
0.00587	6.6e-05	1.4e-05
0.00985	7.4e-05	1.7e-05
0.0198	0.000108	2.9e-05
0.099	0.000489	0.000113
0.199	0.000628	0.000183
0.596	0.00208	0.00055
0.994	0.00299	0.00075
3.983	0.00832	0.00309
9.937	0.0313	0.0099
19.86	0.0699	0.0203
29.79	0.105	0.03

System: 1-butyl-3-methylimidazolium bis(trifluoromethylsulfonyl)imide + 2-methylphenol + water; phases: Liquid, Liquid
Fixed: Pressure, kPa = 101.3
Fixed: Temperature, K = 298.15
Property: Mass concentration, kg/m3 of 2-methylphenol (Liquid); method: UV/Vis spectrophotometry
Ratio of mass of solute to volume of solution, kg/m3 of 2-methylphenol	Mass concentration, kg/m3 of 2-methylphenol	uncertainty
0.00591	4.7e-05	9e-06
0.00987	6.3e-05	1.3e-05
0.0198	7.9e-05	1.6e-05
0.0997	0.000129	2.6e-05
0.2	0.000202	4e-05
0.599	0.000383	7.7e-05
0.999	0.000494	9.9e-05
3.995	0.00252	0.0005
9.988	0.00581	0.00116
19.977	0.0113	0.0023
29.968	0.016	0.003
0.0219	0.00062	0.00012
0.466	0.00681	0.00136
2.372	0.0257	0.0051
23.62	0.276	0.055
46.95	0.61	0.122
70.785	0.843	0.169
0.00883	0.000586	0.000117
0.194	0.00309	0.00062
0.979	0.0105	0.0021
9.722	0.139	0.028
19.43	0.285	0.057
29.286	0.357	0.071
0.00468	0.000319	6.4e-05
0.0981	0.00187	0.00037
0.492	0.00773	0.00155
4.929	0.071	0.014
9.826	0.174	0.035
14.861	0.139	0.028

System: 1-butyl-3-methylimidazolium bis(trifluoromethylsulfonyl)imide + 2-methylphenol + water; phases: Liquid, Liquid
Fixed: Pressure, kPa = 101.3
Property: Mass concentration, kg/m3 of 2-methylphenol (Liquid); method: UV/Vis spectrophotometry
Temperature, K	Ratio of mass of solute to volume of solution, kg/m3 of 2-methylphenol	Mass concentration, kg/m3 of 2-methylphenol	uncertainty
288.15	9.62	0.00019	5e-05
288.15	195	0.00271	0.00076
288.15	985	0.00765	0.00196
288.15	9748	0.126	0.033
288.15	19570	0.215	0.079
288.15	29090	0.455	0.173
298.15	8.83	0.000586	0.00012
298.15	194	0.00309	0.00078
298.15	979	0.0105	0.0025
298.15	9722	0.139	0.04
298.15	19430	0.285	0.072
298.15	29286	0.357	0.098
308.15	9.52	0.000239	5.4e-05
308.15	194	0.00289	0.00091
308.15	983	0.00828	0.0023
308.15	9734	0.133	0.045
308.15	19308	0.346	0.085
308.15	29232	0.384	0.083
318.15	9.28	0.000361	8.5e-05
318.15	191	0.00474	0.00132
318.15	982	0.00901	0.00209
318.15	9652	0.174	0.045
318.15	19432	0.284	0.079
318.15	29096	0.452	0.136

System: 1-butyl-3-methylimidazolium bis(trifluoromethylsulfonyl)imide + 2-chlorophenol + water; phases: Liquid, Liquid
Fixed: Pressure, kPa = 101.3
Fixed: Temperature, K = 298.15
Property: Mass concentration, kg/m3 of 2-chlorophenol (Liquid); method: UV/Vis spectrophotometry
Ratio of mass of solute to volume of solution, kg/m3 of 2-chlorophenol	Mass concentration, kg/m3 of 2-chlorophenol	uncertainty
0.00583	8.3e-05	1.7e-05
0.00983	8.7e-05	1.8e-05
0.0199	4.7e-05	1.2e-05
0.0996	0.00018	4e-05
0.2	9.5e-05	2.7e-05
0.599	0.000383	0.000104
0.999	0.00056	0.00014
3.996	0.00216	0.00045
9.995	0.00226	0.00063
19.989	0.00551	0.00178
29.982	0.00923	0.0029

System: 1-butyl-3-methylimidazolium bis(trifluoromethylsulfonyl)imide + 1,3-benzenediol + water; phases: Liquid, Liquid
Fixed: Pressure, kPa = 101.3
Fixed: Temperature, K = 298.15
Property: Mass concentration, kg/m3 of 1,3-benzenediol (Liquid); method: UV/Vis spectrophotometry
Ratio of mass of solute to volume of solution, kg/m3 of 1,3-benzenediol	Mass concentration, kg/m3 of 1,3-benzenediol	uncertainty
0.00468	0.000659	0.000146
0.00794	0.00103	0.00023
0.0161	0.00194	0.00043
0.0877	0.00613	0.002
0.169	0.0155	0.005
0.51	0.0451	0.0117
0.866	0.067	0.017
3.626	0.187	0.041
9.452	0.274	0.056
19.41	0.295	0.059
29.422	0.289	0.058

System: 1-hexyl-3-methylimidazolium bis[(trifluoromethyl)sulfonyl]imide + phenol + water; phases: Liquid, Liquid
Fixed: Pressure, kPa = 101.3
Fixed: Temperature, K = 298.15
Property: Mass concentration, kg/m3 of phenol (Liquid); method: UV/Vis spectrophotometry
Ratio of mass of solute to volume of solution, kg/m3 of phenol	Mass concentration, kg/m3 of phenol	uncertainty
0.0059	4.8e-05	1e-05
0.00989	5.6e-05	1.2e-05
0.0198	0.000116	2.5e-05
0.0994	0.0003	0.0001
0.199	0.000661	0.000193
0.596	0.00205	0.00057
0.993	0.00334	0.00093
3.991	0.00465	0.00217
9.952	0.0242	0.0077
19.894	0.0529	0.0139
29.862	0.069	0.017

System: 1-hexyl-3-methylimidazolium bis[(trifluoromethyl)sulfonyl]imide + 2-methylphenol + water; phases: Liquid, Liquid
Fixed: Pressure, kPa = 101.3
Fixed: Temperature, K = 298.15
Property: Mass concentration, kg/m3 of 2-methylphenol (Liquid); method: UV/Vis spectrophotometry
Ratio of mass of solute to volume of solution, kg/m3 of 2-methylphenol	Mass concentration, kg/m3 of 2-methylphenol	uncertainty
0.0059	5.2e-05	1e-05
0.00989	5.7e-05	1.1e-05
0.0198	8.6e-05	1.7e-05
0.0998	0.0001	0.0001
0.199	0.000255	5.1e-05
0.599	0.000333	6.7e-05
0.999	0.000507	0.000101
3.996	0.00207	0.00041
9.99	0.00523	0.00105
19.983	0.0087	0.0017
29.979	0.0103	0.0021
0.0229	0.000411	8.2e-05
0.47	0.00602	0.0012
2.357	0.0286	0.0057
23.24	0.352	0.07
47.245	0.551	0.11
69.855	1.029	0.206
0.00942	0.000289	5.8e-05
0.193	0.00345	0.00069
0.976	0.012	0.002
9.586	0.207	0.041
19.222	0.389	0.078
29.182	0.409	0.082
0.00478	0.000218	4.4e-05
0.0972	0.00278	0.00056
0.492	0.00758	0.00152
4.84	0.16	0.032
9.802	0.198	0.04
14.749	0.251	0.05

System: 1-hexyl-3-methylimidazolium bis[(trifluoromethyl)sulfonyl]imide + 2-methylphenol + water; phases: Liquid, Liquid
Fixed: Pressure, kPa = 101.3
Property: Mass concentration, kg/m3 of 2-methylphenol (Liquid); method: UV/Vis spectrophotometry
Temperature, K	Ratio of mass of solute to volume of solution, kg/m3 of 2-methylphenol	Mass concentration, kg/m3 of 2-methylphenol	uncertainty
288.15	9.26	0.00037	8e-05
288.15	194	0.00282	0.00076
288.15	983	0.00867	0.00227
288.15	9718	0.141	0.041
288.15	19422	0.289	0.077
288.15	29204	0.398	0.103
298.15	9.42	0.000289	6.6e-05
298.15	193	0.00345	0.00088
298.15	976	0.012	0.003
298.15	9586	0.207	0.057
298.15	19222	0.389	0.087
298.15	29182	0.409	0.082
308.15	8.94	0.000529	0.000107
308.15	195	0.00238	0.00093
308.15	983	0.00861	0.00259
308.15	9863	0.0687	0.0329
308.15	19424	0.288	0.078
308.15	29328	0.336	0.078
318.15	8.9	0.000552	0.000129
318.15	186	0.00715	0.00199
318.15	980	0.00976	0.00206
318.15	9809	0.0957	0.0314
318.15	19512	0.244	0.066
318.15	29362	0.319	0.078

System: 1-hexyl-3-methylimidazolium bis[(trifluoromethyl)sulfonyl]imide + 2-chlorophenol + water; phases: Liquid, Liquid
Fixed: Pressure, kPa = 101.3
Fixed: Temperature, K = 298.15
Property: Mass concentration, kg/m3 of 2-chlorophenol (Liquid); method: UV/Vis spectrophotometry
Ratio of mass of solute to volume of solution, kg/m3 of 2-chlorophenol	Mass concentration, kg/m3 of 2-chlorophenol	uncertainty
0.00581	9.7e-05	1.9e-05
0.00989	5.6e-05	1.1e-05
0.0199	5.6e-05	1.1e-05
0.0998	7.6e-05	1.5e-05
0.2	0.000108	2.4e-05
0.6	0.000201	5.4e-05
0.999	0.000353	0.000104
3.998	0.00114	0.00032
9.994	0.00285	0.00095
19.986	0.0071	0.0021
29.978	0.0109	0.0032

System: 1-hexyl-3-methylimidazolium bis[(trifluoromethyl)sulfonyl]imide + 1,3-benzenediol + water; phases: Liquid, Liquid
Fixed: Pressure, kPa = 101.3
Fixed: Temperature, K = 298.15
Property: Mass concentration, kg/m3 of 1,3-benzenediol (Liquid); method: UV/Vis spectrophotometry
Ratio of mass of solute to volume of solution, kg/m3 of 1,3-benzenediol	Mass concentration, kg/m3 of 1,3-benzenediol	uncertainty
0.00382	0.00109	0.00025
0.00562	0.00219	0.00047
0.0133	0.00336	0.00091
0.074	0.013	0.004
0.136	0.032	0.008
0.43	0.0849	0.021
0.756	0.122	0.03
3.206	0.397	0.081
9.2	0.4	0.08
19.196	0.402	0.08
29.168	0.416	0.084
