Measured thermophysical data. Sublimation study of anhydrous ferric chloride
Source: J. Chem. Thermodyn., 2006, 10.1016/j.jct.2005.12.012
Compound 1: ferric chloride, Cl3Fe, InChI=1S/3ClH.Fe/h3*1H;/q;;;+3/p-3

System: ferric chloride; phases: Crystal, Gas
Property: Vapor or sublimation pressure, kPa (Crystal); method: KNUDSEN:UFactor:4
Temperature, K	Vapor or sublimation pressure, kPa	uncertainty
383.9	2.1598e-05	4.386e-06
386.3	1.586e-05	3.34e-06
386.3	2.159e-05	4.45e-06
389.3	4.4663e-05	9.982e-06
389.6	3.8101e-05	7.804e-06
389.7	3.8797e-05	7.965e-06
390.4	3.5329e-05	7.107e-06
392	3.693e-05	7.7e-06
392.7	6.2928e-05	1.3666e-05
393.8	8.5059e-05	1.7086e-05
394.2	6.5061e-05	1.3174e-05
394.8	9.1059e-05	1.8254e-05
394.9	4.6796e-05	9.412e-06
394.9	7.4927e-05	1.506e-05
395.1	5.7061e-05	1.3364e-05
395.4	7.0394e-05	1.6684e-05
396.6	7.053e-05	1.415e-05
398	6.426e-05	1.33e-05
398.6	0.000112257	2.8279e-05
398.9	0.000142254	3.4809e-05
399	0.000134822	2.9267e-05
399	0.000119057	2.4093e-05
401.2	0.00010346	2.08e-05
403	0.000171185	3.4919e-05
403	0.000162119	3.4863e-05
403	0.000170252	3.4861e-05
403.2	0.000257311	5.2446e-05
403.3	0.000181182	3.821e-05
404.5	0.000258511	5.1776e-05
404.6	0.000249045	4.9875e-05
406.8	0.00016572	3.33e-05
407.7	0.000329839	7.0399e-05
408.6	0.000385967	7.7245e-05
408.6	0.0003425	6.85e-05
409.1	0.00032797	6.861e-05
409.3	0.000305841	6.313e-05
409.8	0.000494491	0.000124432
409.9	0.00038223	8.061e-05
412.7	0.00032744	6.56e-05
413.5	0.000479692	0.000105271
413.9	0.00059208	0.00012531
413.9	0.00070874	0.00014657
414.1	0.00053262	0.00011419
414.6	0.000709662	0.000142238
416.4	0.00049609	0.00010112
416.4	0.00048382	9.872e-05
418.4	0.001063243	0.000431527
419.3	0.00070207	0.00015418
419.3	0.001330963	0.000567422
419.4	0.00082286	0.00017479
419.8	0.00063395	0.00015814
419.9	0.000936587	0.000187686
421.9	0.000989916	0.000198389
422.2	0.00100791	0.00040407
423.6	0.00164746	0.00073118
424	0.00111042	0.00045431
424.2	0.00105324	0.0004264
424.8	0.001548535	0.00068034
424.9	0.001032502	0.000419843
425.6	0.00145454	0.00063201
426.4	0.001488407	0.000647757
426.8	0.0012023	0.0005203
428.8	0.00176678	0.00090825
428.8	0.001985165	0.000970749
429.2	0.002648441	0.001357067
430.9	0.002750566	0.001342892
431.6	0.00189451	0.00086788
434	0.003811809	0.001996906
434.4	0.0031324	0.0016001
434.5	0.004176978	0.002194368
439.7	0.006419454	0.003605487
445.2	0.008537941	0.005006184
