Measured thermophysical data. Crystal structure and thermochemical properties of bis(n-undecylammonium) tetrachlorozincate (C11H23NH3)2ZnCl4(s)
Source: J. Chem. Thermodyn., 2012, 10.1016/j.jct.2012.03.035
Compound 1: undecan-1-aminium tetrachlorozincate(II), C22H52Cl4N2Zn, InChI=1S/2C11H25N.4ClH.Zn/c2*1-2-3-4-5-6-7-8-9-10-11-12;;;;;/h2*2-12H2,1H3;4*1H;/q;;;;;;+2/p-2
Compound 2: water, H2O, InChI=1S/H2O/h1H2

System: undecan-1-aminium tetrachlorozincate(II); phases: Crystal
Property: Mass density, kg/m3 (Crystal); method: X-ray diffraction
Temperature, K	Pressure, kPa	Mass density, kg/m3	uncertainty
298	101.325	1093	6

System: water + undecan-1-aminium tetrachlorozincate(II); phases: Liquid
Fixed: Pressure, kPa = 101
Fixed: Temperature, K = 298.15
Property: Molar enthalpy of solution, kJ/mol (Liquid); method: ISOPERIBOL
Molality, mol/kg of undecan-1-aminium tetrachlorozincate(II)	Molar enthalpy of solution, kJ/mol	uncertainty
0.0002711	40.96	2.98
0.0004528	39.29	2.33
0.0006344	38.1	1.94
0.000816	36.93	2.24
0.0009976	36.16	1.8
0.001177	35.51	1.47
0.001358	34.94	1.21
0.00154	34.49	0.81
0.001721	34.2	0.71
0.001816	34.04	0.45
0.002174	33.95	0.33
0.002537	33.93	0.32
0.002901	33.89	0.32
0.003261	33.85	0.32
0.003625	33.87	0.31
