Measured thermophysical data. Thermochemistry of ammonium based ionic liquids: Tetra-alkyl-ammonium nitrates - experiments and computations
Source: J. Chem. Thermodyn., 2012, 10.1016/j.jct.2012.02.035
Compound 1: carbon dioxide, CO2, InChI=1S/CO2/c2-1-3
Compound 2: nitrogen, N2, InChI=1S/N2/c1-2
Compound 3: water, H2O, InChI=1S/H2O/h1H2
Compound 4: oxygen, O2, InChI=1S/O2/c1-2
Compound 5: tetramethylammonium nitrate, C4H12N2O3, InChI=1S/C4H12N.NO3/c1-5(2,3)4;2-1(3)4/h1-4H3;/q+1;-1
Compound 6: tetraethylammonium nitrate, C8H20N2O3, InChI=1S/C8H20N.NO3/c1-5-9(6-2,7-3)8-4;2-1(3)4/h5-8H2,1-4H3;/q+1;-1
Compound 7: tetrabutylammonium nitrate, C16H36N2O3, InChI=1S/C16H36N.NO3/c1-5-9-13-17(14-10-6-2,15-11-7-3)16-12-8-4;2-1(3)4/h5-16H2,1-4H3;/q+1;-1

System: tetraethylammonium nitrate; phases: Crystal 2, Crystal 1, Air at 1 atmosphere
Property: Molar enthalpy of transition or fusion, kJ/mol (Crystal 2); method: DSC
Molar enthalpy of transition or fusion, kJ/mol	uncertainty
10.8	0.4

System: tetraethylammonium nitrate; phases: Crystal 2, Crystal 1
Property: Solid-liquid equilibrium temperature, K (Crystal 2); method: DTA
Pressure, kPa	Solid-liquid equilibrium temperature, K	uncertainty
101	371.5	0.3

System: tetrabutylammonium nitrate; phases: Crystal, Liquid, Air at 1 atmosphere
Property: Molar enthalpy of transition or fusion, kJ/mol (Crystal); method: DSC
Molar enthalpy of transition or fusion, kJ/mol	uncertainty
14.3	0.5

System: tetrabutylammonium nitrate; phases: Crystal 2, Crystal 1, Air at 1 atmosphere
Property: Molar enthalpy of transition or fusion, kJ/mol (Crystal 2); method: DSC
Molar enthalpy of transition or fusion, kJ/mol	uncertainty
0.2	0.1

System: tetrabutylammonium nitrate; phases: Crystal, Liquid, Air at 1 atmosphere
Property: Normal melting temperature, K (Crystal); method: DTA
Normal melting temperature, K	uncertainty
391.1	1.1

System: tetrabutylammonium nitrate; phases: Crystal 2, Crystal 1
Property: Solid-liquid equilibrium temperature, K (Crystal 2); method: DTA
Pressure, kPa	Solid-liquid equilibrium temperature, K	uncertainty
101	361.4	0.2

Reaction: -1 tetramethylammonium nitrate + 4 carbon dioxide + 1 nitrogen + 6 water + -5.5 oxygen
Property: Molar enthalpy of reaction, kJ/mol
-2960.5

Reaction: -1 tetraethylammonium nitrate + 8 carbon dioxide + 1 nitrogen + 10 water + -11.5 oxygen
Property: Molar enthalpy of reaction, kJ/mol
-5573.4

Reaction: -1 tetrabutylammonium nitrate + 16 carbon dioxide + 1 nitrogen + 18 water + -23.5 oxygen
Property: Molar enthalpy of reaction, kJ/mol
-10840.9
