Measured thermophysical data. Bubble points measurement for (triethyl orthoformate + diethyl malonate)
Source: J. Chem. Thermodyn., 2004, 10.1016/j.jct.2004.07.023
Compound 1: ethyl orthomethanoate, C7H16O3, InChI=1S/C7H16O3/c1-4-8-7(9-5-2)10-6-3/h7H,4-6H2,1-3H3, purity 99.5%
Compound 2: diethyl 1,3-propanedioate, C7H12O4, InChI=1S/C7H12O4/c1-3-10-6(8)5-7(9)11-4-2/h3-5H2,1-2H3, purity 99.5%

System: ethyl orthomethanoate; phases: Liquid
Property: Refractive index (Na D-line) (Liquid); method: Standard Abbe refractometry
Temperature, K	Pressure, kPa	Refractive index (Na D-line)	uncertainty
293.15	101.325	1.3923	0.0007

System: ethyl orthomethanoate; phases: Liquid
Property: Mass density, kg/m3 (Liquid); method: VIBTUB:UFactor:4
Temperature, K	Pressure, kPa	Mass density, kg/m3	uncertainty
293.15	101.325	891.1	0.4

System: ethyl orthomethanoate; phases: Liquid, Gas
Property: Vapor or sublimation pressure, kPa (Liquid); method: Ebulliometric method (Recirculating still)
Temperature, K	Vapor or sublimation pressure, kPa	uncertainty
329.02	3.5	0.07
349.3	8.37	0.17
360.73	13.33	0.27
360.79	13.21	0.26
362.63	14.01	0.28
365.46	15.61	0.31
370.08	18.53	0.37
373.15	20.95	0.42
373.63	21.34	0.43
375.39	22.61	0.45
377.09	24	0.48
378.08	24.95	0.5
381.58	28.25	0.57
382.9	29.35	0.59
383.15	29.98	0.6
383.97	30.34	0.61
385.17	31.51	0.63
386.71	33.3	0.67
393.15	41.99	0.84
419.36	101.3	2

System: diethyl 1,3-propanedioate; phases: Liquid
Property: Refractive index (Na D-line) (Liquid); method: Standard Abbe refractometry
Temperature, K	Pressure, kPa	Refractive index (Na D-line)	uncertainty
293.15	101.325	1.414	0.0007

System: diethyl 1,3-propanedioate; phases: Liquid
Property: Mass density, kg/m3 (Liquid); method: VIBTUB:UFactor:4
Temperature, K	Pressure, kPa	Mass density, kg/m3	uncertainty
293.15	101.325	1055	0.3

System: diethyl 1,3-propanedioate; phases: Liquid, Gas
Property: Vapor or sublimation pressure, kPa (Liquid); method: EBULLIO:UFactor:4
Temperature, K	Vapor or sublimation pressure, kPa	uncertainty
373.15	3.04	0.32
383.15	4.7	0.33
393.15	7.08	0.33
409.56	13.33	0.33

System: diethyl 1,3-propanedioate + ethyl orthomethanoate; phases: Liquid, Gas
Fixed: Pressure, kPa = 13.33
Property: Boiling temperature at pressure P, K (Liquid); method: Ebulliometric method (Recirculating still)
Mole fraction of ethyl orthomethanoate	Boiling temperature at pressure P, K	uncertainty
0	409.56	0.43
0.0505	404.89	0.43
0.1001	399.58	0.43
0.1999	391.07	0.43
0.3001	383.15	0.43
0.4001	377.35	0.43
0.5998	369.18	0.43
0.6998	366.31	0.43
0.7956	364.28	0.43
0.899	362.4	0.43
0.9499	361.41	0.43
1	360.73	0.43

System: diethyl 1,3-propanedioate + ethyl orthomethanoate; phases: Liquid, Gas
Property: Vapor or sublimation pressure, kPa (Liquid); method: EBULLIO:UFactor:4
Temperature, K	Mole fraction of ethyl orthomethanoate	Vapor or sublimation pressure, kPa	uncertainty
373.15	0	3.04	0.32
373.15	0.0505	3.7	0.32
373.15	0.1001	4.55	0.32
373.15	0.1999	6.53	0.33
373.15	0.3001	8.66	0.34
373.15	0.4001	10.94	0.35
373.15	0.5998	15.32	0.37
373.15	0.6998	17.05	0.37
373.15	0.7956	18.44	0.38
373.15	0.899	19.59	0.38
373.15	0.9499	20.3	0.38
373.15	1	20.95	0.39
383.15	0	4.7	0.33
383.15	0.0505	5.74	0.33
383.15	0.1001	6.89	0.33
383.15	0.1999	9.87	0.34
383.15	0.3001	13.14	0.35
383.15	0.4001	16.63	0.37
383.15	0.5998	22.75	0.39
383.15	0.6998	24.93	0.4
383.15	0.7956	27.26	0.41
383.15	0.899	28.59	0.41
383.15	0.9499	29.23	0.41
383.15	1	29.98	0.42
393.15	0	7.08	0.33
393.15	0.0505	8.51	0.34
393.15	0.1001	10.34	0.34
393.15	0.1999	14.61	0.36
393.15	0.3001	19.48	0.38
393.15	0.4001	24.61	0.39
393.15	0.5998	32.75	0.42
393.15	0.6998	35.72	0.43
393.15	0.7956	38.98	0.44
393.15	0.899	40.76	0.45
393.15	0.9499	41.34	0.45
393.15	1	41.99	0.46
