Measured thermophysical data. Equilibrium solubility, dissolution thermodynamics and preferential solvation of adenosine in aqueous solutions of N,N-dimethylformamide, N-methyl-2-pyrrolidone, dimethylsulfoxide and propylene glycol
Source: J. Chem. Thermodyn., 2017, 10.1016/j.jct.2017.07.023
Compound 1: .beta.-adenosine, C10H13N5O4, InChI=1S/C10H13N5O4/c11-8-5-9(13-2-12-8)15(3-14-5)10-7(18)6(17)4(1-16)19-10/h2-4,6-7,10,16-18H,1H2,(H2,11,12,13)/t4-,6-,7-,10-/m1/s1, purity 98.3%
Compound 2: dimethylformamide, C3H7NO, InChI=1S/C3H7NO/c1-4(2)3-5/h3H,1-2H3, purity 99.4%
Compound 3: N-methylpyrrolidone, C5H9NO, InChI=1S/C5H9NO/c1-6-4-2-3-5(6)7/h2-4H2,1H3, purity 99.5%
Compound 4: dimethyl sulfoxide, C2H6OS, InChI=1S/C2H6OS/c1-4(2)3/h1-2H3, purity 99.6%
Compound 5: 1,2-propanediol, C3H8O2, InChI=1S/C3H8O2/c1-3(5)2-4/h3-5H,2H2,1H3, purity 99.4%
Compound 6: water, H2O, InChI=1S/H2O/h1H2

System: .beta.-adenosine + dimethylformamide + water; phases: Liquid, Crystal
Fixed: Pressure, kPa = 101
Property: Mole fraction of .beta.-adenosine (Liquid); method: Chromatography
Solvent: Mass fraction of dimethylformamide	Temperature, K	Mole fraction of .beta.-adenosine	uncertainty
0	278.15	0.0001905	1.6e-05
0	283.15	0.0002371	1.99e-05
0	288.15	0.0002904	2.44e-05
0	293.15	0.0003531	2.97e-05
0	298.15	0.0004259	3.58e-05
0	303.15	0.0005162	4.34e-05
0	308.15	0.0006107	5.14e-05
0	313.15	0.000731	6.15e-05
0	318.15	0.0008758	7.37e-05
0	323.15	0.001048	8.8e-05
0.099	278.15	0.0003506	2.95e-05
0.099	283.15	0.0004619	3.89e-05
0.099	288.15	0.0006413	5.4e-05
0.099	293.15	0.0007948	6.69e-05
0.099	298.15	0.0009855	8.29e-05
0.099	303.15	0.001131	9.5e-05
0.099	308.15	0.0013	0.000109
0.099	313.15	0.001514	0.000127
0.099	318.15	0.00175	0.000147
0.099	323.15	0.002005	0.000169
0.2006	278.15	0.000576	4.85e-05
0.2006	283.15	0.000767	6.46e-05
0.2006	288.15	0.001008	8.5e-05
0.2006	293.15	0.001208	0.000102
0.2006	298.15	0.001568	0.000132
0.2006	303.15	0.001768	0.000149
0.2006	308.15	0.002054	0.000173
0.2006	313.15	0.002398	0.000202
0.2006	318.15	0.002778	0.000234
0.2006	323.15	0.003088	0.00026
0.2995	278.15	0.0008045	6.78e-05
0.2995	283.15	0.001074	9e-05
0.2995	288.15	0.001407	0.000118
0.2995	293.15	0.001744	0.000147
0.2995	298.15	0.002056	0.000173
0.2995	303.15	0.00245	0.000206
0.2995	308.15	0.002786	0.000234
0.2995	313.15	0.003216	0.00027
0.2995	318.15	0.003626	0.000305
0.2995	323.15	0.0039882	0.0003352
0.4005	278.15	0.001092	9.2e-05
0.4005	283.15	0.001478	0.000124
0.4005	288.15	0.001841	0.000155
0.4005	293.15	0.0023	0.000193
0.4005	298.15	0.002622	0.00022
0.4005	303.15	0.003072	0.000258
0.4005	308.15	0.003468	0.000292
0.4005	313.15	0.003992	0.000336
0.4005	318.15	0.00455	0.000382
0.4005	323.15	0.005088	0.000428
0.5004	278.15	0.00143	0.00012
0.5004	283.15	0.00185	0.000156
0.5004	288.15	0.00233	0.000196
0.5004	293.15	0.00294	0.000247
0.5004	298.15	0.00334	0.000281
0.5004	303.15	0.0039	0.000328
0.5004	308.15	0.00423	0.000356
0.5004	313.15	0.00494	0.000415
0.5004	318.15	0.00545	0.000458
0.5004	323.15	0.005928	0.000498
0.6006	278.15	0.001844	0.000155
0.6006	283.15	0.002266	0.000191
0.6006	288.15	0.002886	0.000243
0.6006	293.15	0.003594	0.000302
0.6006	298.15	0.004007	0.000337
0.6006	303.15	0.004784	0.000402
0.6006	308.15	0.005164	0.000434
0.6006	313.15	0.005912	0.000497
0.6006	318.15	0.006484	0.000545
0.6006	323.15	0.007012	0.000589
0.6987	278.15	0.002305	0.000194
0.6987	283.15	0.002877	0.000242
0.6987	288.15	0.003483	0.000293
0.6987	293.15	0.004273	0.000359
0.6987	298.15	0.004972	0.000418
0.6987	303.15	0.005675	0.000477
0.6987	308.15	0.006243	0.000525
0.6987	313.15	0.007008	0.000589
0.6987	318.15	0.007576	0.000637
0.6987	323.15	0.008147	0.000685
0.7996	278.15	0.002861	0.000241
0.7996	283.15	0.003529	0.000297
0.7996	288.15	0.004371	0.000368
0.7996	293.15	0.005147	0.000433
0.7996	298.15	0.006023	0.000506
0.7996	303.15	0.006717	0.000565
0.7996	308.15	0.007601	0.000639
0.7996	313.15	0.00834	0.000701
0.7996	318.15	0.009031	0.000759
0.7996	323.15	0.009728	0.000818
0.8995	278.15	0.003449	0.00029
0.8995	283.15	0.004261	0.000358
0.8995	288.15	0.00518	0.000436
0.8995	293.15	0.00622	0.000523
0.8995	298.15	0.00688	0.000578
0.8995	303.15	0.007689	0.000646
0.8995	308.15	0.008731	0.000734
0.8995	313.15	0.0095	0.000798
0.8995	318.15	0.0107	0.0009
0.8995	323.15	0.01149	0.00097
1	278.15	0.00414	0.000348
1	283.15	0.00502	0.000422
1	288.15	0.005939	0.000499
1	293.15	0.006869	0.000577
1	298.15	0.007841	0.000659
1	303.15	0.00906	0.000762
1	308.15	0.00993	0.000835
1	313.15	0.01078	0.00091
1	318.15	0.01204	0.00101
1	323.15	0.01269	0.00107

System: .beta.-adenosine + N-methylpyrrolidone + water; phases: Liquid, Crystal
Fixed: Pressure, kPa = 101
Property: Mole fraction of .beta.-adenosine (Liquid); method: Chromatography
Solvent: Mass fraction of N-methylpyrrolidone	Temperature, K	Mole fraction of .beta.-adenosine	uncertainty
0	278.15	0.0001905	1.6e-05
0	283.15	0.0002371	1.99e-05
0	288.15	0.0002904	2.44e-05
0	293.15	0.0003531	2.97e-05
0	298.15	0.0004259	3.58e-05
0	303.15	0.0005162	4.34e-05
0	308.15	0.0006107	5.14e-05
0	313.15	0.000731	6.15e-05
0	318.15	0.0008758	7.37e-05
0	323.15	0.001048	8.8e-05
0.0995	278.15	0.001688	0.000142
0.0995	283.15	0.002016	0.00017
0.0995	288.15	0.002368	0.000199
0.0995	293.15	0.002759	0.000232
0.0995	298.15	0.003209	0.00027
0.0995	303.15	0.003725	0.000313
0.0995	308.15	0.004257	0.000358
0.0995	313.15	0.004884	0.000411
0.0995	318.15	0.005658	0.000476
0.0995	323.15	0.006557	0.000553
0.2005	278.15	0.00538	0.000452
0.2005	283.15	0.006215	0.000523
0.2005	288.15	0.007142	0.0006
0.2005	293.15	0.008173	0.000687
0.2005	298.15	0.009276	0.00078
0.2005	303.15	0.01052	0.00088
0.2005	308.15	0.01182	0.00099
0.2005	313.15	0.01343	0.00113
0.2005	318.15	0.01514	0.00127
0.2005	323.15	0.01706	0.00143
0.2995	278.15	0.008655	0.000728
0.2995	283.15	0.009914	0.000833
0.2995	288.15	0.01126	0.00095
0.2995	293.15	0.01275	0.00107
0.2995	298.15	0.01442	0.00121
0.2995	303.15	0.01622	0.00136
0.2995	308.15	0.01826	0.00153
0.2995	313.15	0.02022	0.0017
0.2995	318.15	0.02273	0.00191
0.2995	323.15	0.02523	0.00212
0.3998	278.15	0.01062	0.00089
0.3998	283.15	0.01209	0.00102
0.3998	288.15	0.01389	0.00117
0.3998	293.15	0.01551	0.0013
0.3998	298.15	0.01739	0.00146
0.3998	303.15	0.01945	0.00163
0.3998	308.15	0.02134	0.00179
0.3998	313.15	0.02366	0.00199
0.3998	318.15	0.02592	0.00218
0.3998	323.15	0.02853	0.0024
0.4986	278.15	0.01156	0.00097
0.4986	283.15	0.01328	0.00112
0.4986	288.15	0.01484	0.00125
0.4986	293.15	0.01666	0.0014
0.4986	298.15	0.01864	0.00157
0.4986	303.15	0.02047	0.00172
0.4986	308.15	0.02259	0.0019
0.4986	313.15	0.02484	0.00209
0.4986	318.15	0.0271	0.00228
0.4986	323.15	0.02948	0.00248
0.5999	278.15	0.01357	0.00114
0.5999	283.15	0.01528	0.00128
0.5999	288.15	0.01712	0.00144
0.5999	293.15	0.01897	0.00159
0.5999	298.15	0.02091	0.00176
0.5999	303.15	0.02306	0.00194
0.5999	308.15	0.02524	0.00212
0.5999	313.15	0.02751	0.00231
0.5999	318.15	0.03002	0.00252
0.5999	323.15	0.03268	0.00275
0.6984	278.15	0.01716	0.00144
0.6984	283.15	0.0194	0.00163
0.6984	288.15	0.02158	0.00181
0.6984	293.15	0.02364	0.00199
0.6984	298.15	0.02609	0.00219
0.6984	303.15	0.02828	0.00238
0.6984	308.15	0.03046	0.00256
0.6984	313.15	0.03299	0.00277
0.6984	318.15	0.03576	0.00301
0.6984	323.15	0.03874	0.00326
0.7993	278.15	0.02403	0.00202
0.7993	283.15	0.02664	0.00224
0.7993	288.15	0.02911	0.00245
0.7993	293.15	0.03151	0.00265
0.7993	298.15	0.03433	0.00289
0.7993	303.15	0.03703	0.00311
0.7993	308.15	0.03985	0.00335
0.7993	313.15	0.04268	0.00359
0.7993	318.15	0.04607	0.00387
0.7993	323.15	0.04924	0.00414
0.8995	278.15	0.03069	0.00258
0.8995	283.15	0.03342	0.00281
0.8995	288.15	0.03616	0.00304
0.8995	293.15	0.03924	0.0033
0.8995	298.15	0.04277	0.00359
0.8995	303.15	0.04548	0.00382
0.8995	308.15	0.04858	0.00408
0.8995	313.15	0.05196	0.00437
0.8995	318.15	0.05479	0.0046
0.8995	323.15	0.05789	0.00486
1	278.15	0.03211	0.0027
1	283.15	0.03495	0.00294
1	288.15	0.03762	0.00316
1	293.15	0.0407	0.00342
1	298.15	0.04365	0.00367
1	303.15	0.04675	0.00393
1	308.15	0.04963	0.00417
1	313.15	0.05217	0.00438
1	318.15	0.05545	0.00466
1	323.15	0.05821	0.00489

System: .beta.-adenosine + dimethyl sulfoxide + water; phases: Liquid, Crystal
Fixed: Pressure, kPa = 101
Property: Mole fraction of .beta.-adenosine (Liquid); method: Chromatography
Solvent: Mass fraction of dimethyl sulfoxide	Temperature, K	Mole fraction of .beta.-adenosine	uncertainty
0	293.15	0.0003531	2.97e-05
0	298.15	0.0004259	3.58e-05
0	303.15	0.0005162	4.34e-05
0	308.15	0.0006107	5.14e-05
0	313.15	0.000731	6.15e-05
0	318.15	0.0008758	7.37e-05
0	323.15	0.001048	8.8e-05
0.1008	293.15	0.0004558	3.83e-05
0.1008	298.15	0.0005497	4.62e-05
0.1008	303.15	0.000672	5.65e-05
0.1008	308.15	0.0007962	6.7e-05
0.1008	313.15	0.0009422	7.92e-05
0.1008	318.15	0.001101	9.3e-05
0.1008	323.15	0.001293	0.000109
0.2007	293.15	0.0005746	4.83e-05
0.2007	298.15	0.0006989	5.88e-05
0.2007	303.15	0.000846	7.11e-05
0.2007	308.15	0.0009888	8.31e-05
0.2007	313.15	0.001163	9.8e-05
0.2007	318.15	0.001375	0.000116
0.2007	323.15	0.001637	0.000138
0.2997	293.15	0.000687	5.78e-05
0.2997	298.15	0.0008367	7.04e-05
0.2997	303.15	0.001018	8.6e-05
0.2997	308.15	0.001203	0.000101
0.2997	313.15	0.001434	0.000121
0.2997	318.15	0.001658	0.000139
0.2997	323.15	0.001954	0.000164
0.4009	293.15	0.0008369	7.04e-05
0.4009	298.15	0.001	8.41e-05
0.4009	303.15	0.001208	0.000102
0.4009	308.15	0.001481	0.000125
0.4009	313.15	0.001765	0.000148
0.4009	318.15	0.002048	0.000172
0.4009	323.15	0.002412	0.000203
0.501	293.15	0.001067	9e-05
0.501	298.15	0.001281	0.000108
0.501	303.15	0.001514	0.000127
0.501	308.15	0.001759	0.000148
0.501	313.15	0.002012	0.000169
0.501	318.15	0.002303	0.000194
0.501	323.15	0.002607	0.000219
0.5998	293.15	0.001311	0.00011
0.5998	298.15	0.001511	0.000127
0.5998	303.15	0.001813	0.000152
0.5998	308.15	0.002135	0.00018
0.5998	313.15	0.002445	0.000206
0.5998	318.15	0.002772	0.000233
0.5998	323.15	0.003118	0.000262
0.6979	293.15	0.001578	0.000133
0.6979	298.15	0.001828	0.000154
0.6979	303.15	0.002177	0.000183
0.6979	308.15	0.002527	0.000212
0.6979	313.15	0.002893	0.000243
0.6979	318.15	0.003264	0.000274
0.6979	323.15	0.003663	0.000308
0.799	293.15	0.001885	0.000158
0.799	298.15	0.002187	0.000184
0.799	303.15	0.002619	0.00022
0.799	308.15	0.003001	0.000252
0.799	313.15	0.003461	0.000291
0.799	318.15	0.003857	0.000324
0.799	323.15	0.004261	0.000358
0.8999	293.15	0.00226	0.00019
0.8999	298.15	0.002634	0.000221
0.8999	303.15	0.003041	0.000256
0.8999	308.15	0.0035	0.000294
0.8999	313.15	0.00396	0.000333
0.8999	318.15	0.004405	0.00037
0.8999	323.15	0.004817	0.000405
1	293.15	0.002624	0.000221
1	298.15	0.002992	0.000252
1	303.15	0.003483	0.000293
1	308.15	0.003939	0.000331
1	313.15	0.004423	0.000372
1	318.15	0.004884	0.00041
1	323.15	0.005372	0.000451

System: .beta.-adenosine + 1,2-propanediol + water; phases: Liquid, Crystal
Fixed: Pressure, kPa = 101
Property: Mole fraction of .beta.-adenosine (Liquid); method: Chromatography
Solvent: Mass fraction of 1,2-propanediol	Temperature, K	Mole fraction of .beta.-adenosine	uncertainty
0	278.15	0.0001905	1.6e-05
0	283.15	0.0002371	1.99e-05
0	288.15	0.0002904	2.44e-05
0	293.15	0.0003531	2.97e-05
0	298.15	0.0004259	3.58e-05
0	303.15	0.0005162	4.34e-05
0	308.15	0.0006107	5.14e-05
0	313.15	0.000731	6.15e-05
0	318.15	0.0008758	7.37e-05
0	323.15	0.001048	8.8e-05
0.1006	278.15	0.0002905	2.44e-05
0.1006	283.15	0.0003777	3.18e-05
0.1006	288.15	0.0004686	3.94e-05
0.1006	293.15	0.0005551	4.67e-05
0.1006	298.15	0.0006518	5.48e-05
0.1006	303.15	0.0007597	6.39e-05
0.1006	308.15	0.000904	7.6e-05
0.1006	313.15	0.001072	9e-05
0.1006	318.15	0.001265	0.000106
0.1006	323.15	0.001479	0.000124
0.1998	278.15	0.0004468	3.76e-05
0.1998	283.15	0.0005413	4.55e-05
0.1998	288.15	0.0006462	5.44e-05
0.1998	293.15	0.0007937	6.67e-05
0.1998	298.15	0.0008952	7.53e-05
0.1998	303.15	0.001102	9.3e-05
0.1998	308.15	0.001277	0.000107
0.1998	313.15	0.001482	0.000125
0.1998	318.15	0.001703	0.000143
0.1998	323.15	0.001974	0.000166
0.2987	278.15	0.0006676	5.61e-05
0.2987	283.15	0.0007636	6.42e-05
0.2987	288.15	0.0009011	7.58e-05
0.2987	293.15	0.001096	9.2e-05
0.2987	298.15	0.00126	0.000106
0.2987	303.15	0.00149	0.000125
0.2987	308.15	0.001721	0.000145
0.2987	313.15	0.001978	0.000166
0.2987	318.15	0.00225	0.000189
0.2987	323.15	0.002516	0.000211
0.3999	278.15	0.0009509	7.99e-05
0.3999	283.15	0.001064	8.9e-05
0.3999	288.15	0.001204	0.000101
0.3999	293.15	0.001412	0.000119
0.3999	298.15	0.001657	0.000139
0.3999	303.15	0.001937	0.000163
0.3999	308.15	0.002233	0.000188
0.3999	313.15	0.002506	0.000211
0.3999	318.15	0.002825	0.000237
0.3999	323.15	0.003125	0.000263
0.4989	278.15	0.001238	0.000104
0.4989	283.15	0.001446	0.000122
0.4989	288.15	0.001614	0.000136
0.4989	293.15	0.00183	0.000154
0.4989	298.15	0.002136	0.00018
0.4989	303.15	0.00241	0.000203
0.4989	308.15	0.002695	0.000227
0.4989	313.15	0.003028	0.000255
0.4989	318.15	0.003389	0.000285
0.4989	323.15	0.003714	0.000312
0.5999	278.15	0.001666	0.00014
0.5999	283.15	0.001867	0.000157
0.5999	288.15	0.002112	0.000178
0.5999	293.15	0.002269	0.000191
0.5999	298.15	0.002615	0.00022
0.5999	303.15	0.002905	0.000244
0.5999	308.15	0.003268	0.000275
0.5999	313.15	0.003602	0.000303
0.5999	318.15	0.003936	0.000331
0.5999	323.15	0.004279	0.00036
0.6997	278.15	0.002145	0.00018
0.6997	283.15	0.002326	0.000195
0.6997	288.15	0.002532	0.000213
0.6997	293.15	0.002781	0.000234
0.6997	298.15	0.003104	0.000261
0.6997	303.15	0.003455	0.00029
0.6997	308.15	0.003769	0.000317
0.6997	313.15	0.004095	0.000344
0.6997	318.15	0.004533	0.000381
0.6997	323.15	0.004911	0.000413
0.8013	278.15	0.002576	0.000216
0.8013	283.15	0.002802	0.000235
0.8013	288.15	0.003048	0.000256
0.8013	293.15	0.003288	0.000276
0.8013	298.15	0.003664	0.000308
0.8013	303.15	0.003969	0.000334
0.8013	308.15	0.004306	0.000362
0.8013	313.15	0.004655	0.000391
0.8013	318.15	0.00509	0.000428
0.8013	323.15	0.005518	0.000464
0.8967	278.15	0.003059	0.000257
0.8967	283.15	0.00329	0.000276
0.8967	288.15	0.003544	0.000298
0.8967	293.15	0.00378	0.000318
0.8967	298.15	0.004091	0.000344
0.8967	303.15	0.004439	0.000373
0.8967	308.15	0.004821	0.000405
0.8967	313.15	0.005224	0.000439
0.8967	318.15	0.005663	0.000476
0.8967	323.15	0.006122	0.000514
1	278.15	0.003523	0.000296
1	283.15	0.003747	0.000315
1	288.15	0.004	0.000336
1	293.15	0.004308	0.000362
1	298.15	0.004635	0.00039
1	303.15	0.004967	0.000417
1	308.15	0.005369	0.000451
1	313.15	0.005801	0.000488
1	318.15	0.006228	0.000523
1	323.15	0.006653	0.000559

System: .beta.-adenosine + water; phases: Liquid, Crystal
Fixed: Pressure, kPa = 101
Property: Mole fraction of .beta.-adenosine (Liquid); method: Chromatography
Temperature, K	Mole fraction of .beta.-adenosine	uncertainty
278.15	0.0001905	1.6e-05
283.15	0.0002371	1.99e-05
288.15	0.0002904	2.44e-05
293.15	0.0003531	2.97e-05
298.15	0.0004259	3.58e-05
303.15	0.0005162	4.34e-05
308.15	0.0006107	5.14e-05
313.15	0.000731	6.15e-05
318.15	0.0008758	7.37e-05
323.15	0.001048	8.8e-05

System: .beta.-adenosine + dimethylformamide; phases: Liquid, Crystal
Fixed: Pressure, kPa = 101
Property: Mole fraction of .beta.-adenosine (Liquid); method: Chromatography
Temperature, K	Mole fraction of .beta.-adenosine	uncertainty
278.15	0.00414	0.000348
283.15	0.00502	0.000422
288.15	0.005939	0.000499
293.15	0.006869	0.000577
298.15	0.007841	0.000659
303.15	0.00906	0.000762
308.15	0.00993	0.000835
313.15	0.01078	0.00091
318.15	0.01204	0.00101
323.15	0.01269	0.00107

System: .beta.-adenosine + N-methylpyrrolidone; phases: Liquid, Crystal
Fixed: Pressure, kPa = 101
Property: Mole fraction of .beta.-adenosine (Liquid); method: Chromatography
Temperature, K	Mole fraction of .beta.-adenosine	uncertainty
278.15	0.03211	0.0027
283.15	0.03495	0.00294
288.15	0.03762	0.00316
293.15	0.0407	0.00342
298.15	0.04365	0.00367
303.15	0.04675	0.00393
308.15	0.04963	0.00417
313.15	0.05217	0.00438
318.15	0.05545	0.00466
323.15	0.05821	0.00489

System: .beta.-adenosine + dimethyl sulfoxide; phases: Liquid, Crystal
Fixed: Pressure, kPa = 101
Property: Mole fraction of .beta.-adenosine (Liquid); method: Chromatography
Temperature, K	Mole fraction of .beta.-adenosine	uncertainty
293.15	0.002624	0.000221
298.15	0.002992	0.000252
303.15	0.003483	0.000293
308.15	0.003939	0.000331
313.15	0.004423	0.000372
318.15	0.004884	0.00041
323.15	0.005372	0.000451

System: .beta.-adenosine + 1,2-propanediol; phases: Liquid, Crystal
Fixed: Pressure, kPa = 101
Property: Mole fraction of .beta.-adenosine (Liquid); method: Chromatography
Temperature, K	Mole fraction of .beta.-adenosine	uncertainty
278.15	0.003523	0.000296
283.15	0.003747	0.000315
288.15	0.004	0.000336
293.15	0.004308	0.000362
298.15	0.004635	0.00039
303.15	0.004967	0.000417
308.15	0.005369	0.000451
313.15	0.005801	0.000488
318.15	0.006228	0.000523
323.15	0.006653	0.000559
