Measured thermophysical data. Solubility of water in fluorocarbons: Experimental and COSMO-RS prediction results
Source: J. Chem. Thermodyn., 2010, 10.1016/j.jct.2009.08.005
Compound 1: perfluoro(methylcyclohexane), C7F14, InChI=1S/C7F14/c8-1(7(19,20)21)2(9,10)4(13,14)6(17,18)5(15,16)3(1,11)12, purity 99.98%
Compound 2: perfluorodecalin, C10F18, InChI=1S/C10F18/c11-1-2(12,5(17,18)9(25,26)7(21,22)3(1,13)14)6(19,20)10(27,28)8(23,24)4(1,15)16
Compound 3: hexafluorobenzene, C6F6, InChI=1S/C6F6/c7-1-2(8)4(10)6(12)5(11)3(1)9, purity 99.99%
Compound 4: octafluorotoluene, C7F8, InChI=1S/C7F8/c8-2-1(7(13,14)15)3(9)5(11)6(12)4(2)10, purity 99.9%
Compound 5: water, H2O, InChI=1S/H2O/h1H2, purity 99.9%

System: perfluoro(methylcyclohexane) + water; phases: Liquid, Crystal
Property: Molar enthalpy of solution, kJ/mol (Liquid); method: Treatment of solubility-temperature data
Temperature, K	Pressure, kPa	Molar enthalpy of solution, kJ/mol	uncertainty
298.15	101.32	31	3

System: perfluoro(methylcyclohexane) + water; phases: Liquid, Crystal
Fixed: Pressure, kPa = 101.325
Property: Mole fraction of perfluoro(methylcyclohexane) (Liquid); method: Coulometric Karl Fischer titraton
Temperature, K	Mole fraction of perfluoro(methylcyclohexane)	uncertainty
288.15	0.00021	1.3e-05
293.15	0.000248	1.6e-05
298.15	0.0003	2.2e-05
303.15	0.000407	2.2e-05
308.15	0.000464	2.6e-05
313.15	0.000581	2.8e-05
318.15	0.000684	3.3e-05

System: perfluorodecalin + water; phases: Liquid, Crystal
Property: Molar enthalpy of solution, kJ/mol (Liquid); method: Treatment of solubility-temperature data
Temperature, K	Pressure, kPa	Molar enthalpy of solution, kJ/mol	uncertainty
298.15	101.32	33.1	1

System: perfluorodecalin + water; phases: Liquid, Crystal
Fixed: Pressure, kPa = 101.325
Property: Mole fraction of perfluorodecalin (Liquid); method: Coulometric Karl Fischer titraton
Temperature, K	Mole fraction of perfluorodecalin	uncertainty
288.15	0.000241	2.1e-05
293.15	0.000304	3.3e-05
298.15	0.000384	4e-05
303.15	0.000458	4.4e-05
308.15	0.000594	3.5e-05
313.15	0.000727	4.3e-05
318.15	0.000884	5.3e-05

System: hexafluorobenzene + water; phases: Liquid, Crystal
Property: Molar enthalpy of solution, kJ/mol (Liquid); method: Treatment of solubility-temperature data
Temperature, K	Pressure, kPa	Molar enthalpy of solution, kJ/mol	uncertainty
298.15	101.32	27.5	1

System: hexafluorobenzene + water; phases: Liquid, Crystal
Fixed: Pressure, kPa = 101.325
Property: Mole fraction of hexafluorobenzene (Liquid); method: Coulometric Karl Fischer titraton
Temperature, K	Mole fraction of hexafluorobenzene	uncertainty
288.15	0.000128	3e-06
293.15	0.000156	4e-06
298.15	0.000192	5e-06
303.15	0.000223	6e-06
308.15	0.000273	7e-06
313.15	0.000315	1.6e-05
318.15	0.000384	1e-05

System: octafluorotoluene + water; phases: Liquid, Crystal
Property: Molar enthalpy of solution, kJ/mol (Liquid); method: Treatment of solubility-temperature data
Temperature, K	Pressure, kPa	Molar enthalpy of solution, kJ/mol	uncertainty
298.15	101.32	28.1	1.8

System: octafluorotoluene + water; phases: Liquid, Crystal
Fixed: Pressure, kPa = 101.325
Property: Mole fraction of octafluorotoluene (Liquid); method: Coulometric Karl Fischer titraton
Temperature, K	Mole fraction of octafluorotoluene	uncertainty
288.15	0.000157	5e-06
293.15	0.000186	6e-06
298.15	0.00023	7e-06
303.15	0.000272	8e-06
308.15	0.000342	1.4e-05
313.15	0.000406	1.3e-05
318.15	0.000454	1.5e-05
