Measured thermophysical data. The heat capacity of BaUO4
Source: J. Chem. Thermodyn., 2007, 10.1016/j.jct.2006.05.010
Compound 1: barium uranate, BaO4U, InChI=1S/Ba.4O.U/q+2;;;2*-1;, purity 99%

System: barium uranate; phases: Crystal
Fixed: Pressure, kPa = 101.325
Property: Molar heat capacity at constant pressure, J/K/mol (Crystal); method: hybrid adiabatic relaxation method
Temperature, K	Molar heat capacity at constant pressure, J/K/mol	uncertainty
1.911	0.00795	0.00049
1.937	0.00696	0.00044
2.026	0.00774	0.00048
2.129	0.0088	0.00054
2.227	0.00998	0.00061
2.329	0.0102	0.0006
2.427	0.012	0.0007
2.525	0.0129	0.0008
2.626	0.0128	0.0008
2.733	0.0145	0.0009
2.835	0.0134	0.0008
2.931	0.0138	0.0008
3.041	0.0142	0.0009
3.134	0.0152	0.0009
3.245	0.0159	0.001
3.335	0.0164	0.001
3.444	0.0181	0.0011
3.549	0.0192	0.0012
3.635	0.0203	0.0012
3.742	0.0218	0.0013
3.839	0.0241	0.0015
3.942	0.0254	0.0016
4.048	0.0274	0.0017
4.147	0.0295	0.0018
4.243	0.0317	0.002
4.347	0.034	0.0021
4.448	0.0363	0.0022
4.553	0.0395	0.0024
4.655	0.0422	0.0026
4.753	0.0459	0.0028
4.854	0.0481	0.003
4.951	0.0513	0.0031
5.057	0.0541	0.0033
5.161	0.0579	0.0035
5.256	0.0613	0.0038
5.357	0.0655	0.004
5.46	0.0683	0.0042
5.564	0.0724	0.0044
5.663	0.0761	0.0046
5.767	0.0811	0.0049
5.866	0.0857	0.0052
5.967	0.0917	0.0056
6.066	0.0969	0.0059
6.168	0.1023	0.0062
6.27	0.1069	0.0065
6.37	0.1137	0.0069
6.469	0.1196	0.0073
6.573	0.1252	0.0076
6.673	0.1305	0.0079
6.774	0.1364	0.0083
6.874	0.1428	0.0087
6.975	0.1499	0.0091
7.082	0.158	0.0096
7.182	0.1674	0.0102
7.283	0.1747	0.0106
7.385	0.1832	0.0111
7.486	0.1911	0.0116
7.586	0.2009	0.0122
7.687	0.21	0.0127
7.788	0.2194	0.0133
7.889	0.2296	0.0139
7.991	0.2394	0.0145
8.091	0.2492	0.0151
8.193	0.2608	0.0158
8.294	0.2716	0.0165
8.395	0.2829	0.0171
8.497	0.2951	0.0179
8.598	0.3071	0.0186
8.699	0.3207	0.0194
8.8	0.3341	0.0202
8.901	0.3472	0.021
9.001	0.3609	0.0218
9.102	0.3747	0.0227
9.203	0.3903	0.0236
9.305	0.4053	0.0245
9.409	0.4197	0.0254
9.51	0.4361	0.0264
9.611	0.4527	0.0273
9.713	0.4696	0.0284
9.814	0.4873	0.0294
9.914	0.5049	0.0305
10.01	0.5218	0.0315
10.12	0.5364	0.0324
10.48	0.6051	0.0365
10.84	0.6837	0.0412
11.22	0.7697	0.0464
11.61	0.868	0.0523
12.02	0.9777	0.0589
12.44	1.098	0.066
12.87	1.234	0.074
13.32	1.384	0.083
13.79	1.556	0.094
14.27	1.739	0.105
14.76	1.944	0.117
15.28	2.162	0.13
15.82	2.41	0.145
16.36	2.686	0.161
16.94	3.029	0.182
17.53	3.31	0.199
18.15	3.658	0.22
18.78	4.041	0.243
19.44	4.46	0.268
20.11	4.904	0.295
20.82	5.377	0.323
21.54	5.89	0.354
22.3	6.435	0.386
23.07	7.009	0.421
23.88	7.627	0.458
24.7	8.29	0.498
25.57	8.996	0.54
26.46	9.752	0.585
27.39	10.53	0.63
28.34	11.35	0.68
29.33	12.18	0.73
30.35	13.04	0.78
31.41	13.96	0.84
32.51	14.93	0.9
33.64	15.92	0.96
34.82	16.92	1.02
36.03	17.97	1.08
37.29	19.05	1.14
38.6	20.18	1.21
39.95	21.38	1.28
41.36	22.4	1.34
42.8	23.82	1.43
44.3	24.96	1.5
45.85	26.26	1.58
47.46	27.69	1.66
49.11	29.07	1.74
50.83	30.45	1.83
52.61	31.86	1.91
54.44	33.27	2
56.35	34.77	2.09
58.31	36.32	2.18
60.35	37.89	2.27
62.46	39.52	2.37
64.65	41.17	2.47
66.9	42.88	2.57
69.24	44.65	2.68
71.65	46.4	2.78
74.16	48.15	2.89
76.74	49.95	3
79.43	51.8	3.11
82.2	53.59	3.22
85.07	55.4	3.32
88.04	57.3	3.44
91.1	59.35	3.56
94.27	61.2	3.67
97.55	63.24	3.79
100.95	65.25	3.92
104.48	67.26	4.04
108.14	69.31	4.16
111.92	71.29	4.28
115.84	73.25	4.4
119.88	75.36	4.52
124.07	77.4	4.64
128.4	79.57	4.77
132.89	81.43	4.89
137.53	83.64	5.02
142.34	85.75	5.15
147.3	87.75	5.27
152.45	89.6	5.38
157.78	91.65	5.5
163.29	93.54	5.61
168.99	95.15	5.71
174.9	97.21	5.83
181.01	99.06	5.94
187.32	100.7	6
193.87	102.8	6.2
200.64	104.7	6.3
207.63	106.2	6.4
214.88	108.2	6.5
222.38	109.7	6.6
230.15	111.4	6.7
238.2	113.2	6.8
246.52	115.3	6.9
255.13	116.2	7
264.03	117.3	7
273.24	118.7	7.1
282.76	120.4	7.2
292.58	122.3	7.3

System: barium uranate; phases: Crystal
Fixed: Pressure, kPa = 101.325
Property: Molar enthalpy, kJ/mol (Crystal); method: Drop calorimetry
Temperature, K	Molar enthalpy, kJ/mol	uncertainty
586.5	39.89	2.197
687.5	55.096	4.06

System: barium uranate; phases: Crystal
Property: Molar enthalpy, kJ/mol (Crystal); method: Drop calorimetry
Temperature, K	Pressure, kPa	Molar enthalpy, kJ/mol	uncertainty
787.7	101.325	69.054	3.678

System: barium uranate; phases: Crystal
Fixed: Pressure, kPa = 101.325
Property: Molar enthalpy, kJ/mol (Crystal); method: Drop calorimetry
Temperature, K	Molar enthalpy, kJ/mol	uncertainty
887.4	83.081	3.324
986.9	98.774	3.128

System: barium uranate; phases: Crystal
Property: Molar enthalpy, kJ/mol (Crystal); method: Drop calorimetry
Temperature, K	Pressure, kPa	Molar enthalpy, kJ/mol	uncertainty
1086.4	101.325	113.566	4.591

System: barium uranate; phases: Crystal
Property: Molar enthalpy, kJ/mol (Crystal); method: Drop calorimetry
Temperature, K	Pressure, kPa	Molar enthalpy, kJ/mol	uncertainty
1186	101.325	127.784	5.248

System: barium uranate; phases: Crystal
Property: Molar enthalpy, kJ/mol (Crystal); method: Drop calorimetry
Temperature, K	Pressure, kPa	Molar enthalpy, kJ/mol	uncertainty
1285.8	101.325	142.63	7.448

System: barium uranate; phases: Crystal
Property: Molar enthalpy, kJ/mol (Crystal); method: Drop calorimetry
Temperature, K	Pressure, kPa	Molar enthalpy, kJ/mol	uncertainty
1385.5	101.325	158.668	11.324

System: barium uranate; phases: Crystal
Property: Molar enthalpy, kJ/mol (Crystal); method: Drop calorimetry
Temperature, K	Pressure, kPa	Molar enthalpy, kJ/mol	uncertainty
1485.9	101.325	171.921	12.745

System: barium uranate; phases: Crystal
Property: Molar enthalpy, kJ/mol (Crystal); method: Drop calorimetry
Temperature, K	Pressure, kPa	Molar enthalpy, kJ/mol	uncertainty
1566.4	101.325	185.079	7.529

System: barium uranate; phases: Crystal
Property: Molar enthalpy, kJ/mol (Crystal); method: Drop calorimetry
Temperature, K	Pressure, kPa	Molar enthalpy, kJ/mol	uncertainty
484.2	101.325	25.087	1.166
