Measured thermophysical data. (Vapour + liquid) equilibrium data for the binary system of {trifluoroiodomethane (R13I1) + trans-1, 3, 3, 3-tetrafluoropropene (R1234ze (E))} at various temperatures from (258.150 to 298.150) K
Source: J. Chem. Thermodyn., 2012, 10.1016/j.jct.2011.11.024
Compound 1: trifluoroiodomethane, CF3I, InChI=1S/CF3I/c2-1(3,4)5, purity 99%
Compound 2: trans-1,3,3,3-tetrafluoropropene, C3H2F4, InChI=1S/C3H2F4/c4-2-1-3(5,6)7/h1-2H/b2-1+, purity 99.5%

System: trifluoroiodomethane; phases: Liquid, Gas
Property: Vapor or sublimation pressure, kPa (Liquid); method: Closed cell (Static) method
Temperature, K	Vapor or sublimation pressure, kPa	uncertainty
258.15	132	1
268.15	191.1	1.1
278.15	268.4	1.1
288.15	367.6	1.2
298.15	491.7	1.3

System: trifluoroiodomethane + trans-1,3,3,3-tetrafluoropropene; phases: Liquid, Gas
Property: Azeotropic composition: mole fraction of trifluoroiodomethane (Liquid); method: By X=Y
Temperature, K	Azeotropic composition: mole fraction of trifluoroiodomethane	uncertainty
258.15	0.58	0.011
268.15	0.565	0.011
278.15	0.543	0.011
288.15	0.521	0.011
298.15	0.498	0.011

System: trifluoroiodomethane + trans-1,3,3,3-tetrafluoropropene; phases: Liquid, Gas
Property: Azeotropic composition: mole fraction of trifluoroiodomethane (Liquid); method: By X=Y
Pressure, kPa	Azeotropic composition: mole fraction of trifluoroiodomethane	uncertainty
147.8	0.58	0.011
214.7	0.565	0.011
302.9	0.543	0.011
416.5	0.521	0.011
559.9	0.498	0.011

System: trifluoroiodomethane + trans-1,3,3,3-tetrafluoropropene; phases: Liquid, Gas
Property: Vapor or sublimation pressure, kPa (Liquid); method: Closed cell (Static) method
Mole fraction of trifluoroiodomethane	Temperature, K	Vapor or sublimation pressure, kPa	uncertainty
0	258.15	120.2	1.1
0	268.15	179.3	1.1
0	278.15	259.2	1.3
0	288.15	364.2	1.5
0	298.15	498.5	1.8
0.075	258.15	128.7	1.5
0.075	268.15	190	1.8
0.075	278.15	272.4	2.2
0.075	288.15	379.9	2.7
0.077	298.15	517.1	3
0.123	258.15	132.9	1.3
0.124	298.15	527.1	2.6
0.125	268.15	195.3	1.4
0.125	278.15	279.2	1.7
0.125	288.15	388.4	2
0.194	278.15	286.4	1.5
0.194	288.15	397.6	1.7
0.194	298.15	538.6	2.2
0.195	258.15	136.9	1.2
0.195	268.15	201.1	1.3
0.388	258.15	145.4	1.2
0.388	268.15	211.8	1.4
0.388	278.15	299.8	1.6
0.388	288.15	413.4	1.9
0.388	298.15	557.1	2.2
0.44	258.15	146.8	1.1
0.445	268.15	213.7	1.3
0.453	278.15	301.9	1.5
0.454	288.15	415.7	1.7
0.455	298.15	559.5	2.1
0.484	258.15	147.2	1.1
0.488	268.15	214.1	1.2
0.49	278.15	302.3	1.4
0.496	298.15	559.9	2.1
0.498	288.15	416.4	1.7
0.58	258.15	147.5	1.1
0.581	268.15	214.3	1.2
0.581	278.15	302.4	1.4
0.591	288.15	415.8	1.7
0.592	298.15	556.9	2.1
0.673	258.15	147.2	1.1
0.675	268.15	213.5	1.3
0.681	278.15	300.6	1.5
0.682	288.15	412.4	1.9
0.684	298.15	552.9	2.3
0.819	258.15	144	1.2
0.822	268.15	208.4	1.4
0.822	278.15	292.6	1.8
0.822	298.15	535.8	2.9
0.823	288.15	400.5	2.3
1	258.15	132	1.1
1	268.15	191.1	1.2
1	278.15	268.4	1.4
1	288.15	367.6	1.6
1	298.15	491.7	2

System: trifluoroiodomethane + trans-1,3,3,3-tetrafluoropropene; phases: Gas, Liquid
Property: Mole fraction of trifluoroiodomethane (Gas); method: Chromatography
Mole fraction of trifluoroiodomethane	Temperature, K	Mole fraction of trifluoroiodomethane	uncertainty
0	258.15	0	
0	268.15	0	
0	278.15	0	
0	288.15	0	
0	298.15	0	
0.075	258.15	0.121	0.018
0.075	268.15	0.115	0.018
0.075	278.15	0.109	0.017
0.075	288.15	0.104	0.017
0.077	298.15	0.099	0.016
0.123	258.15	0.19	0.016
0.124	298.15	0.158	0.015
0.125	268.15	0.181	0.016
0.125	278.15	0.172	0.016
0.125	288.15	0.165	0.015
0.194	278.15	0.25	0.014
0.194	288.15	0.24	0.014
0.194	298.15	0.232	0.014
0.195	258.15	0.27	0.014
0.195	268.15	0.26	0.014
0.388	258.15	0.444	0.014
0.388	268.15	0.433	0.014
0.388	278.15	0.424	0.014
0.388	288.15	0.416	0.014
0.388	298.15	0.409	0.014
0.44	258.15	0.48	0.013
0.445	268.15	0.477	0.013
0.453	278.15	0.476	0.013
0.454	288.15	0.47	0.013
0.455	298.15	0.464	0.014
0.484	258.15	0.516	0.013
0.488	268.15	0.508	0.014
0.49	278.15	0.502	0.014
0.496	298.15	0.497	0.014
0.498	288.15	0.499	0.014
0.58	258.15	0.585	0.013
0.581	268.15	0.58	0.013
0.581	278.15	0.574	0.014
0.591	288.15	0.576	0.014
0.592	298.15	0.574	0.014
0.673	258.15	0.654	0.013
0.675	268.15	0.651	0.014
0.681	278.15	0.653	0.014
0.682	288.15	0.651	0.014
0.684	298.15	0.65	0.014
0.819	258.15	0.776	0.015
0.822	268.15	0.778	0.015
0.822	278.15	0.779	0.015
0.822	298.15	0.78	0.015
0.823	288.15	0.779	0.015
1	258.15	1	
1	268.15	1	
1	278.15	1	
1	288.15	1	
1	298.15	1	
