Measured thermophysical data. Interactions in (L-phenylalanine/L-histidine + 0.01 mol kg-1 aqueous  beta-cyclodextrin) systems at T = (293.15, 298.15, 303.15 and 308.15) K
Source: J. Chem. Thermodyn., 2012, 10.1016/j.jct.2012.03.029
Compound 1: .beta.-cyclodextrin, C42H70O35, InChI=1S/C42H70O35/c43-1-8-29-15(50)22(57)36(64-8)72-30-9(2-44)66-38(24(59)17(30)52)74-32-11(4-46)68-40(26(61)19(32)54)76-34-13(6-48)70-42(28(63)21(34)56)77-35-14(7-49)69-41(27(62)20(35)55)75-33-12(5-47)67-39(25(60)18(33)53)73-31-10(3-45)65-37(71-29)23(58)16(31)51/h8-63H,1-7H2/t8-,9-,10-,11-,12-,13-,14-,15-,16-,17-,18-,19-,20-,21-,22-,23-,24-,25-,26-,27-,28-,29-,30-,31-,32-,33-,34-,35-,36-,37-,38-,39-,40-,41-,42-/m1/s1, purity 99.9%
Compound 2: L-phenylalanine, C9H11NO2, InChI=1S/C9H11NO2/c10-8(9(11)12)6-7-4-2-1-3-5-7/h1-5,8H,6,10H2,(H,11,12)/t8-/m0/s1, purity 99%
Compound 3: L-histidine, C6H9N3O2, InChI=1S/C6H9N3O2/c7-5(6(10)11)1-4-2-8-3-9-4/h2-3,5H,1,7H2,(H,8,9)(H,10,11)/t5-/m0/s1, purity 99%
Compound 4: water, H2O, InChI=1S/H2O/h1H2, purity 99.9%

System: .beta.-cyclodextrin + water; phases: Liquid
Fixed: Pressure, kPa = 101
Fixed: Molality, mol/kg of .beta.-cyclodextrin = 0.01
Property: Speed of sound, m/s (Liquid); method: Sing-around technique in a fixed-path interferometer
Temperature, K	Speed of sound, m/s	uncertainty
293.15	1484.42	1.24
298.15	1498.53	0.91
303.15	1510.86	0.88
308.15	1521.53	1.25

System: .beta.-cyclodextrin + water; phases: Liquid
Fixed: Pressure, kPa = 101
Fixed: Molality, mol/kg of .beta.-cyclodextrin = 0.01
Property: Mass density, kg/m3 (Liquid); method: Vibrating tube method
Temperature, K	Mass density, kg/m3	uncertainty
293.15	1001.931	2.015
293.15	1001.93	2.01
298.15	1000.753	2.001
303.15	999.217	2.001
308.15	997.709	2.015

System: L-phenylalanine + .beta.-cyclodextrin + water; phases: Liquid
Fixed: Pressure, kPa = 101
Fixed: Solvent: Molality, mol/kg of .beta.-cyclodextrin = 0.01
Property: Speed of sound, m/s (Liquid); method: Sing-around technique in a fixed-path interferometer
Temperature, K	Molality, mol/kg of L-phenylalanine	Speed of sound, m/s	uncertainty
293.15	0	1484.42	4.01
293.15	0.02	1486.47	4.01
293.15	0.0402	1488.86	4.01
293.15	0.0604	1491.27	4.01
293.15	0.0807	1493.63	4.01
293.15	0.1012	1495.83	4.01
298.15	0	1498.53	4
298.15	0.02	1500.5	4
298.15	0.0402	1502.75	4
298.15	0.0604	1505	4
298.15	0.0807	1507.26	4
298.15	0.1012	1509.4	4
303.15	0	1510.86	4
303.15	0.02	1512.76	4
303.15	0.0402	1514.87	4
303.15	0.0604	1516.95	4
303.15	0.0807	1519.11	3.99
303.15	0.1012	1521.14	3.99
308.15	0	1521.53	3.99
308.15	0.02	1523.21	3.99
308.15	0.0402	1525.23	3.99
308.15	0.0604	1527.27	3.99
308.15	0.0807	1529.31	3.99
308.15	0.1012	1531.22	3.99

System: L-phenylalanine + .beta.-cyclodextrin + water; phases: Liquid
Fixed: Pressure, kPa = 101
Fixed: Solvent: Molality, mol/kg of .beta.-cyclodextrin = 0.01
Property: Mass density, kg/m3 (Liquid); method: Vibrating tube method
Molality, mol/kg of L-phenylalanine	Temperature, K	Mass density, kg/m3	uncertainty
0	293.15	1001.931	3.566
0	298.15	1000.753	3.56
0	303.15	999.217	3.553
0	308.15	997.709	3.546
0.02	293.15	1002.742	3.57
0.02	298.15	1001.557	3.564
0.02	303.15	1000.135	3.557
0.02	308.15	998.501	3.549
0.0402	293.15	1003.637	3.575
0.0402	298.15	1002.442	3.568
0.0402	303.15	1001.009	3.561
0.0402	308.15	999.366	3.553
0.0604	293.15	1004.504	3.579
0.0604	298.15	1003.298	3.573
0.0604	303.15	1001.855	3.566
0.0604	308.15	1000.199	3.557
0.0807	293.15	1005.31	3.583
0.0807	298.15	1004.13	3.577
0.0807	303.15	1002.69	3.57
0.0807	308.15	1001.04	3.562
0.1012	293.15	1006.183	3.588
0.1012	298.15	1004.955	3.581
0.1012	303.15	1003.495	3.574
0.1012	308.15	1001.823	3.566

System: L-histidine + .beta.-cyclodextrin + water; phases: Liquid
Fixed: Pressure, kPa = 101
Fixed: Solvent: Molality, mol/kg of .beta.-cyclodextrin = 0.01
Property: Speed of sound, m/s (Liquid); method: Sing-around technique in a fixed-path interferometer
Temperature, K	Molality, mol/kg of L-histidine	Speed of sound, m/s	uncertainty
293.15	0	1484.42	4.01
293.15	0.0201	1486.05	4.01
293.15	0.0503	1488.9	4.01
293.15	0.1014	1493.2	4.01
293.15	0.1533	1497.58	4
293.15	0.206	1502.3	4
293.15	0.2595	1506.68	4
298.15	0	1498.53	4
298.15	0.0201	1500.1	4
298.15	0.0503	1502.75	4
298.15	0.1014	1506.97	4
298.15	0.1533	1511.11	4
298.15	0.206	1515.59	4
298.15	0.2595	1519.83	4
303.15	0	1510.86	4
303.15	0.0201	1512.4	4
303.15	0.0503	1515.05	4
303.15	0.1014	1518.92	4
303.15	0.1533	1522.79	3.99
303.15	0.206	1527.19	3.99
303.15	0.2595	1531.19	3.99
308.15	0	1521.53	3.99
308.15	0.0201	1522.91	3.99
308.15	0.0503	1525.46	3.99
308.15	0.1014	1529.21	3.99
308.15	0.1533	1532.95	3.99
308.15	0.206	1537.07	3.99
308.15	0.2595	1540.97	3.99

System: L-histidine + .beta.-cyclodextrin + water; phases: Liquid
Fixed: Pressure, kPa = 101
Fixed: Solvent: Molality, mol/kg of .beta.-cyclodextrin = 0.01
Property: Mass density, kg/m3 (Liquid); method: Vibrating tube method
Molality, mol/kg of L-histidine	Temperature, K	Mass density, kg/m3	uncertainty
0	293.15	1001.93	3.566
0	298.15	1000.753	3.56
0	303.15	999.217	3.553
0	308.15	997.709	3.546
0.0201	293.15	1003.001	3.572
0.0201	298.15	1001.813	3.566
0.0201	303.15	1000.327	3.558
0.0201	308.15	998.8	3.551
0.0503	293.15	1004.736	3.581
0.0503	298.15	1003.53	3.574
0.0503	303.15	1002.092	3.567
0.0503	308.15	1000.44	3.559
0.1014	293.15	1007.5	3.595
0.1014	298.15	1006.268	3.589
0.1014	303.15	1004.805	3.581
0.1014	308.15	1003.134	3.573
0.1533	293.15	1010.192	3.609
0.1533	298.15	1008.932	3.602
0.1533	303.15	1007.449	3.595
0.1533	308.15	1005.753	3.586
0.206	293.15	1013.183	3.624
0.206	298.15	1011.897	3.618
0.206	303.15	1010.384	3.61
0.206	308.15	1008.672	3.601
0.2595	293.15	1015.944	3.639
0.2595	298.15	1014.628	3.632
0.2595	303.15	1013.095	3.624
0.2595	308.15	1011.36	3.615
