Measured thermophysical data. Structural studies of cyclic ureas: 3. Enthalpy of formation of barbital
Source: J. Chem. Thermodyn., 2009, 10.1016/j.jct.2009.06.018
Compound 1: carbon dioxide, CO2, InChI=1S/CO2/c2-1-3
Compound 2: nitrogen, N2, InChI=1S/N2/c1-2
Compound 3: water, H2O, InChI=1S/H2O/h1H2
Compound 4: oxygen, O2, InChI=1S/O2/c1-2
Compound 5: barbituric acid, 5,5-diethyl-, C8H12N2O3, InChI=1S/C8H12N2O3/c1-3-8(4-2)5(11)9-7(13)10-6(8)12/h3-4H2,1-2H3,(H2,9,10,11,12,13), purity 99%

System: barbituric acid, 5,5-diethyl-; phases: Crystal 2, Crystal 1, Gas
Property: Molar enthalpy of transition or fusion, kJ/mol (Crystal 2); method: DSC
Molar enthalpy of transition or fusion, kJ/mol	uncertainty
0.7	0.4

System: barbituric acid, 5,5-diethyl-; phases: Crystal 1, Liquid, Gas
Property: Molar enthalpy of transition or fusion, kJ/mol (Crystal 1); method: DSC
Molar enthalpy of transition or fusion, kJ/mol	uncertainty
24.8	1.9

System: barbituric acid, 5,5-diethyl-; phases: Crystal 2, Crystal 1, Gas
Property: Triple point temperature, K (Crystal 2); method: DTA
Triple point temperature, K	uncertainty
413.3	3

System: barbituric acid, 5,5-diethyl-; phases: Crystal 1, Liquid, Gas
Property: Triple point temperature, K (Crystal 1); method: DTA
Triple point temperature, K	uncertainty
462	1.1

System: barbituric acid, 5,5-diethyl-; phases: Crystal 2, Gas
Property: Molar enthalpy of vaporization or sublimation, kJ/mol (Crystal 2); method: DSC
Temperature, K	Molar enthalpy of vaporization or sublimation, kJ/mol	uncertainty
366.15	113.9	2.6

System: barbituric acid, 5,5-diethyl-; phases: Crystal 2
Fixed: Pressure, kPa = 101.325
Property: Molar heat capacity at constant pressure, J/K/mol (Crystal 2); method: Small sample (50 mg) DSC
Temperature, K	Molar heat capacity at constant pressure, J/K/mol	uncertainty
265.15	210.8	8.9
270.15	213.4	9.1
275.15	215.9	9.2
280.15	218.7	9.3
285.15	221.2	9.4
290.15	224.2	9.5
295.15	227.1	9.6
298.15	228.7	9.7
300.15	230	9.8
305.15	233.1	9.9
310.15	236.4	10
315.15	239.7	10.2
320.15	243	10.3
325.15	247	10.5
330.15	250	10.6
335.15	253	10.7
340.15	256	10.9
345.15	259.7	11
350.15	262.7	11.1
355.15	266.5	11.3
360.15	267.6	11.4
365.15	270.3	11.5
370.15	273.1	11.6
375.15	272.9	11.6
380.15	275.4	11.7
385.15	278	11.8
390.15	280.3	11.9
395.15	283	12
400.15	286.3	12.1
405.15	290.4	12.3

System: barbituric acid, 5,5-diethyl-; phases: Crystal 1
Fixed: Pressure, kPa = 101.325
Property: Molar heat capacity at constant pressure, J/K/mol (Crystal 1); method: Small sample (50 mg) DSC
Temperature, K	Molar heat capacity at constant pressure, J/K/mol	uncertainty
430.15	338.9	14.4
435.15	342.5	14.5
440.15	347	14.7
445.15	350.6	14.9
450.15	355.6	15.1
455.15	360.3	15.3

System: barbituric acid, 5,5-diethyl-; phases: Crystal 2, Gas
Property: Vapor or sublimation pressure, kPa (Crystal 2); method: Calculated from knudsen effusion weight loss
Temperature, K	Vapor or sublimation pressure, kPa	uncertainty
355.11	0.0001119	5.6e-06
355.11	0.0001104	5.5e-06
357.14	0.0001404	7e-06
357.14	0.0001395	7e-06
357.14	0.0001338	6.7e-06
359.18	0.0001735	8.7e-06
359.18	0.0001715	8.6e-06
359.18	0.0001657	8.3e-06
361.13	0.0002088	1.05e-05
361.13	0.0002103	1.05e-05
361.13	0.0002072	1.04e-05
363.17	0.0002616	1.31e-05
363.17	0.0002609	1.31e-05
363.17	0.000248	1.24e-05
365.18	0.0003169	1.59e-05
365.18	0.0003007	1.51e-05
367.17	0.0004008	2.01e-05
367.17	0.0003943	1.97e-05
367.17	0.0003865	1.94e-05
369.23	0.0004779	2.39e-05
369.23	0.0004839	2.42e-05
369.23	0.0004643	2.32e-05
371.18	0.0005859	2.93e-05
371.18	0.0005868	2.94e-05
371.18	0.0005679	2.84e-05
373.21	0.0007288	3.65e-05
373.21	0.0007281	3.64e-05
373.21	0.0006985	3.5e-05
375.15	0.0008937	4.47e-05
375.15	0.0008675	4.34e-05
375.15	0.0008677	4.34e-05
377.18	0.0010559	0.0001069
377.18	0.0010445	0.0001055

Reaction: -1 barbituric acid, 5,5-diethyl- + 8 carbon dioxide + 1 nitrogen + 6 water + -9.5 oxygen
Property: Specific internal energy of reaction at constant volume, J/g
-22307.3
