Measured thermophysical data. Thermophysical properties of aqueous solutions of tetraalkylphosphonium based ionic liquids at different temperatures and atmospheric pressure
Source: J. Chem. Thermodyn., 2016, 10.1016/j.jct.2015.09.029
Compound 1: tributylmethylphosphonium methyl sulfate, C14H33O4PS, InChI=1S/C13H30P.CH4O4S/c1-5-8-11-14(4,12-9-6-2)13-10-7-3;1-5-6(2,3)4/h5-13H2,1-4H3;1H3,(H,2,3,4)/q+1;/p-1, purity 95%
Compound 2: triisobutylmethylphosphonium p-toluenesulfonate, C20H37O3PS, InChI=1S/C13H30P.C7H8O3S/c1-11(2)8-14(7,9-12(3)4)10-13(5)6;1-6-2-4-7(5-3-6)11(8,9)10/h11-13H,8-10H2,1-7H3;2-5H,1H3,(H,8,9,10)/q+1;/p-1, purity 95%
Compound 3: tetrabutylphosphonium chloride, C16H36ClP, InChI=1S/C16H36P.ClH/c1-5-9-13-17(14-10-6-2,15-11-7-3)16-12-8-4;/h5-16H2,1-4H3;1H/q+1;/p-1, purity 95%
Compound 4: 1-butyl-3-methylimidazolium chloride, C8H15ClN2, InChI=1S/C8H15N2.ClH/c1-3-4-5-10-7-6-9(2)8-10;/h6-8H,3-5H2,1-2H3;1H/q+1;/p-1, purity 98%
Compound 5: water, H2O, InChI=1S/H2O/h1H2, purity 99.9%

System: water; phases: Liquid
Fixed: Pressure, kPa = 100
Property: Mass density, kg/m3 (Liquid); method: Vibrating tube method
Temperature, K	Mass density, kg/m3	uncertainty
298.15	997.04	0.11
303.15	995.64	0.11
308.15	994.03	0.11
313.15	992.21	0.11

System: water; phases: Liquid
Fixed: Pressure, kPa = 100
Property: Viscosity, Pa*s (Liquid); method: Capillary tube (Ostwald; Ubbelohde) method
Temperature, K	Viscosity, Pa*s	uncertainty
298.15	0.0008905	1.87e-05
303.15	0.0007977	1.67e-05
308.15	0.0007195	1.51e-05
313.15	0.0006532	1.37e-05

System: water; phases: Liquid
Fixed: Pressure, kPa = 100
Fixed: Frequency, MHz = 2
Property: Speed of sound, m/s (Liquid); method: Linear variable-path acoustic interferometer
Temperature, K	Speed of sound, m/s	uncertainty
298.15	1497.6	4.3
303.15	1509.6	4.3
308.15	1519.9	4.3
313.15	1528.5	4.3

System: water + tributylmethylphosphonium methyl sulfate; phases: Liquid
Fixed: Pressure, kPa = 100
Property: Mass density, kg/m3 (Liquid); method: Vibrating tube method
Temperature, K	Molality, mol/kg of tributylmethylphosphonium methyl sulfate	Mass density, kg/m3	uncertainty
298.15	0	997.04	0.11
298.15	0.0282	997.65	0.11
298.15	0.0438	997.98	0.11
298.15	0.0564	998.25	0.11
298.15	0.0658	998.45	0.11
298.15	0.0847	998.86	0.11
298.15	0.113	999.46	0.11
298.15	0.174	1000.77	0.12
298.15	0.2336	1002.05	0.12
298.15	0.2813	1003.07	0.13
303.15	0	995.64	0.11
303.15	0.0282	996.22	0.11
303.15	0.0438	996.54	0.11
303.15	0.0564	996.8	0.11
303.15	0.0658	996.99	0.11
303.15	0.0847	997.38	0.11
303.15	0.113	997.96	0.11
303.15	0.174	999.21	0.12
303.15	0.2336	1000.44	0.12
303.15	0.2813	1001.42	0.13
308.15	0	994.03	0.11
308.15	0.0282	994.58	0.11
308.15	0.0438	994.89	0.11
308.15	0.0564	995.14	0.11
308.15	0.0658	995.32	0.11
308.15	0.0847	995.7	0.11
308.15	0.113	996.25	0.11
308.15	0.174	997.45	0.12
308.15	0.2336	998.62	0.12
308.15	0.2813	999.56	0.13
313.15	0	992.21	0.11
313.15	0.0282	992.74	0.11
313.15	0.0438	993.04	0.11
313.15	0.0564	993.27	0.11
313.15	0.0658	993.45	0.11
313.15	0.0847	993.81	0.11
313.15	0.113	994.34	0.11
313.15	0.174	995.49	0.12
313.15	0.2336	996.62	0.12
313.15	0.2813	997.52	0.13

System: water + tributylmethylphosphonium methyl sulfate; phases: Liquid
Fixed: Pressure, kPa = 100
Property: Viscosity, Pa*s (Liquid); method: Capillary tube (Ostwald; Ubbelohde) method
Temperature, K	Molality, mol/kg of tributylmethylphosphonium methyl sulfate	Viscosity, Pa*s	uncertainty
298.15	0	0.0008905	1.87e-05
298.15	0.0282	0.0009199	1.93e-05
298.15	0.0438	0.0009362	1.96e-05
298.15	0.0564	0.0009494	1.99e-05
298.15	0.0658	0.0009592	2.01e-05
298.15	0.0847	0.0009789	2.05e-05
298.15	0.113	0.0010085	2.11e-05
298.15	0.174	0.0010726	2.25e-05
298.15	0.2336	0.0011352	2.39e-05
298.15	0.2813	0.0011855	2.5e-05
303.15	0	0.0007977	1.67e-05
303.15	0.0282	0.0008225	1.73e-05
303.15	0.0438	0.0008362	1.75e-05
303.15	0.0564	0.0008473	1.78e-05
303.15	0.0658	0.0008555	1.79e-05
303.15	0.0847	0.0008722	1.83e-05
303.15	0.113	0.0008971	1.88e-05
303.15	0.174	0.000951	2e-05
303.15	0.2336	0.0010038	2.11e-05
303.15	0.2813	0.0010461	2.21e-05
308.15	0	0.0007195	1.51e-05
308.15	0.0282	0.0007395	1.55e-05
308.15	0.0438	0.0007505	1.57e-05
308.15	0.0564	0.0007595	1.59e-05
308.15	0.0658	0.0007662	1.61e-05
308.15	0.0847	0.0007796	1.64e-05
308.15	0.113	0.0007997	1.68e-05
308.15	0.174	0.0008432	1.77e-05
308.15	0.2336	0.0008857	1.86e-05
308.15	0.2813	0.0009199	1.94e-05
313.15	0	0.0006532	1.37e-05
313.15	0.0282	0.0006725	1.41e-05
313.15	0.0438	0.0006832	1.44e-05
313.15	0.0564	0.0006919	1.45e-05
313.15	0.0658	0.0006983	1.47e-05
313.15	0.0847	0.0007113	1.49e-05
313.15	0.113	0.0007308	1.53e-05
313.15	0.174	0.0007728	1.62e-05
313.15	0.2336	0.000814	1.71e-05
313.15	0.2813	0.000847	1.78e-05

System: water + tributylmethylphosphonium methyl sulfate; phases: Liquid
Fixed: Pressure, kPa = 100
Fixed: Frequency, MHz = 2
Property: Speed of sound, m/s (Liquid); method: Linear variable-path acoustic interferometer
Temperature, K	Molality, mol/kg of tributylmethylphosphonium methyl sulfate	Speed of sound, m/s	uncertainty
298.15	0	1497.6	4.3
298.15	0.0282	1504.7	4.3
298.15	0.0438	1507.9	4.3
298.15	0.0564	1510.3	4.3
298.15	0.0658	1512.1	4.3
298.15	0.0847	1515.5	4.3
298.15	0.113	1520.9	4.3
298.15	0.174	1533.3	4.3
298.15	0.2336	1545.1	4.3
298.15	0.2813	1554.3	4.3
303.15	0	1509.6	4.3
303.15	0.0282	1517.7	4.3
303.15	0.0438	1521.6	4.3
303.15	0.0564	1524.6	4.3
303.15	0.0658	1526.7	4.3
303.15	0.0847	1530.7	4.3
303.15	0.113	1536.2	4.3
303.15	0.174	1547.8	4.3
303.15	0.2336	1558.6	4.3
303.15	0.2813	1566.7	4.3
308.15	0	1519.9	4.3
308.15	0.0282	1527.2	4.3
308.15	0.0438	1530.9	4.3
308.15	0.0564	1533.7	4.3
308.15	0.0658	1535.9	4.3
308.15	0.0847	1539.9	4.3
308.15	0.113	1545.9	4.3
308.15	0.174	1557.5	4.3
308.15	0.2336	1568.4	4.3
308.15	0.2813	1576.3	4.3
313.15	0	1528.5	4.3
313.15	0.0282	1536.3	4.3
313.15	0.0438	1540	4.3
313.15	0.0564	1542.7	4.3
313.15	0.0658	1544.8	4.3
313.15	0.0847	1548.8	4.3
313.15	0.113	1554.2	4.3
313.15	0.174	1564.7	4.3
313.15	0.2336	1572	4.3
313.15	0.2813	1578	4.3

System: water + triisobutylmethylphosphonium p-toluenesulfonate; phases: Liquid
Fixed: Pressure, kPa = 100
Property: Mass density, kg/m3 (Liquid); method: Vibrating tube method
Temperature, K	Molality, mol/kg of triisobutylmethylphosphonium p-toluenesulfonate	Mass density, kg/m3	uncertainty
298.15	0	997.04	0.11
298.15	0.0237	997.74	0.11
298.15	0.0468	998.42	0.11
298.15	0.0663	999	0.11
298.15	0.0901	999.7	0.11
298.15	0.1848	1002.5	0.12
298.15	0.2883	1005.48	0.14
298.15	0.3948	1008.42	0.17
298.15	0.4278	1009.28	0.18
298.15	0.478	1010.56	0.2
298.15	0.5156	1011.48	0.22
303.15	0	995.64	0.11
303.15	0.0237	996.31	0.11
303.15	0.0468	996.97	0.11
303.15	0.0663	997.53	0.11
303.15	0.0901	998.21	0.11
303.15	0.1848	1000.89	0.12
303.15	0.2883	1003.76	0.14
303.15	0.3948	1006.58	0.17
303.15	0.4278	1007.42	0.18
303.15	0.478	1008.64	0.2
303.15	0.5156	1009.52	0.21
308.15	0	994.03	0.11
308.15	0.0253	994.73	0.11
308.15	0.053	995.49	0.11
308.15	0.0791	996.21	0.11
308.15	0.1003	996.79	0.11
308.15	0.2056	999.66	0.13
308.15	0.2689	1001.35	0.14
308.15	0.3193	1002.66	0.15
308.15	0.3643	1003.8	0.16
308.15	0.4345	1005.51	0.18
308.15	0.5175	1007.42	0.21
313.15	0	992.21	0.11
313.15	0.0253	992.9	0.11
313.15	0.053	993.66	0.11
313.15	0.0791	994.36	0.11
313.15	0.1003	994.92	0.11
313.15	0.2056	997.66	0.13
313.15	0.2689	999.26	0.14
313.15	0.3193	1000.5	0.15
313.15	0.3643	1001.59	0.16
313.15	0.4345	1003.25	0.18
313.15	0.5175	1005.14	0.21

System: water + triisobutylmethylphosphonium p-toluenesulfonate; phases: Liquid
Fixed: Pressure, kPa = 100
Property: Viscosity, Pa*s (Liquid); method: Capillary tube (Ostwald; Ubbelohde) method
Temperature, K	Molality, mol/kg of triisobutylmethylphosphonium p-toluenesulfonate	Viscosity, Pa*s	uncertainty
298.15	0	0.0008905	1.87e-05
298.15	0.0237	0.0009191	1.93e-05
298.15	0.0468	0.0009471	1.98e-05
298.15	0.0663	0.0009707	2.03e-05
298.15	0.0901	0.0009996	2.1e-05
298.15	0.1848	0.0011148	2.34e-05
298.15	0.2883	0.0012413	2.62e-05
298.15	0.3948	0.0013725	2.91e-05
298.15	0.4278	0.0014132	3e-05
298.15	0.478	0.0014753	3.14e-05
298.15	0.5156	0.001522	3.25e-05
303.15	0	0.0007977	1.67e-05
303.15	0.0237	0.0008224	1.73e-05
303.15	0.0468	0.0008466	1.78e-05
303.15	0.0663	0.0008669	1.82e-05
303.15	0.0901	0.0008919	1.87e-05
303.15	0.1848	0.0009914	2.09e-05
303.15	0.2883	0.0011006	2.33e-05
303.15	0.3948	0.0012138	2.58e-05
303.15	0.4278	0.0012489	2.66e-05
303.15	0.478	0.0013025	2.78e-05
303.15	0.5156	0.0013428	2.87e-05
308.15	0	0.0007195	1.51e-05
308.15	0.0253	0.0007415	1.56e-05
308.15	0.053	0.0007656	1.61e-05
308.15	0.0791	0.0007883	1.66e-05
308.15	0.1003	0.0008068	1.7e-05
308.15	0.2056	0.0008989	1.89e-05
308.15	0.2689	0.0009546	2.02e-05
308.15	0.3193	0.000999	2.11e-05
308.15	0.3643	0.0010388	2.2e-05
308.15	0.4345	0.001101	2.35e-05
308.15	0.5175	0.0011749	2.52e-05
313.15	0	0.0006532	1.37e-05
313.15	0.0253	0.0006717	1.41e-05
313.15	0.053	0.000692	1.46e-05
313.15	0.0791	0.0007111	1.5e-05
313.15	0.1003	0.0007266	1.53e-05
313.15	0.2056	0.0008042	1.7e-05
313.15	0.2689	0.000851	1.8e-05
313.15	0.3193	0.0008883	1.88e-05
313.15	0.3643	0.0009218	1.96e-05
313.15	0.4345	0.0009741	2.08e-05
313.15	0.5175	0.0010362	2.22e-05

System: water + triisobutylmethylphosphonium p-toluenesulfonate; phases: Liquid
Fixed: Pressure, kPa = 100
Fixed: Frequency, MHz = 2
Property: Speed of sound, m/s (Liquid); method: Linear variable-path acoustic interferometer
Temperature, K	Molality, mol/kg of triisobutylmethylphosphonium p-toluenesulfonate	Speed of sound, m/s	uncertainty
298.15	0	1497.6	4.3
298.15	0.0237	1507.2	4.3
298.15	0.0468	1513.7	4.3
298.15	0.0663	1518.8	4.3
298.15	0.0901	1524.8	4.3
298.15	0.1848	1546.4	4.3
298.15	0.2883	1566.5	4.3
298.15	0.3948	1586.1	4.3
298.15	0.4278	1592.4	4.3
298.15	0.478	1601.7	4.4
298.15	0.5156	1608.3	4.4
303.15	0	1509.6	4.3
303.15	0.0237	1518.8	4.3
303.15	0.0468	1525.3	4.3
303.15	0.0663	1530.8	4.3
303.15	0.0901	1536.6	4.3
303.15	0.1848	1555.9	4.3
303.15	0.2883	1574.5	4.3
303.15	0.3948	1590.7	4.3
303.15	0.4278	1596.2	4.3
303.15	0.478	1604	4.4
303.15	0.5156	1609.4	4.4
308.15	0	1519.9	4.3
308.15	0.0253	1528.8	4.3
308.15	0.053	1536.4	4.3
308.15	0.0791	1541.7	4.3
308.15	0.1003	1545.6	4.3
308.15	0.2056	1566.2	4.3
308.15	0.2689	1577.9	4.3
308.15	0.3193	1587.2	4.3
308.15	0.3643	1592.7	4.3
308.15	0.4345	1602	4.3
308.15	0.5175	1612.8	4.4
313.15	0	1528.5	4.3
313.15	0.0253	1538.7	4.3
313.15	0.053	1545.1	4.3
313.15	0.0791	1551.5	4.3
313.15	0.1003	1556.3	4.3
313.15	0.2056	1575.1	4.3
313.15	0.2689	1584.7	4.3
313.15	0.3193	1592.3	4.3
313.15	0.3643	1598.1	4.3
313.15	0.4345	1607.3	4.3
313.15	0.5175	1617.1	4.4

System: tetrabutylphosphonium chloride + water; phases: Liquid
Fixed: Pressure, kPa = 100
Property: Mass density, kg/m3 (Liquid); method: Vibrating tube method
Temperature, K	Molality, mol/kg of tetrabutylphosphonium chloride	Mass density, kg/m3	uncertainty
298.15	0	997.04	0.11
298.15	0.0249	996.83	0.11
298.15	0.0773	996.44	0.11
298.15	0.1592	995.93	0.11
298.15	0.2659	995.41	0.12
298.15	0.3842	994.99	0.14
298.15	0.4509	994.8	0.15
298.15	0.504	994.67	0.16
298.15	0.5771	994.5	0.18
303.15	0	995.64	0.11
303.15	0.0249	995.41	0.11
303.15	0.0773	994.97	0.11
303.15	0.1592	994.37	0.11
303.15	0.2659	993.73	0.12
303.15	0.3842	993.17	0.14
303.15	0.4509	992.9	0.15
303.15	0.504	992.7	0.16
303.15	0.5771	992.42	0.18
308.15	0	994.03	0.11
308.15	0.0295	993.74	0.11
308.15	0.0842	993.23	0.11
308.15	0.1722	992.52	0.11
308.15	0.2979	991.68	0.13
308.15	0.3554	991.35	0.14
308.15	0.4266	990.98	0.15
308.15	0.4508	990.86	0.15
308.15	0.5619	990.34	0.18
313.15	0	992.21	0.11
313.15	0.0295	991.9	0.11
313.15	0.0842	991.36	0.11
313.15	0.1722	990.57	0.12
313.15	0.2979	989.61	0.13
313.15	0.3554	989.21	0.14
313.15	0.4266	988.76	0.15
313.15	0.4508	988.61	0.15
313.15	0.5619	987.95	0.18

System: tetrabutylphosphonium chloride + water; phases: Liquid
Fixed: Pressure, kPa = 100
Property: Viscosity, Pa*s (Liquid); method: Capillary tube (Ostwald; Ubbelohde) method
Temperature, K	Molality, mol/kg of tetrabutylphosphonium chloride	Viscosity, Pa*s	uncertainty
298.15	0	0.0008905	1.87e-05
298.15	0.0249	0.0009234	1.94e-05
298.15	0.0773	0.0009925	2.08e-05
298.15	0.1592	0.0011006	2.31e-05
298.15	0.2659	0.0012414	2.61e-05
298.15	0.3842	0.0013974	2.95e-05
298.15	0.4509	0.0014855	3.14e-05
298.15	0.504	0.0015557	3.3e-05
298.15	0.5771	0.0016522	3.51e-05
303.15	0	0.0007977	1.67e-05
303.15	0.0249	0.0008256	1.73e-05
303.15	0.0773	0.0008843	1.86e-05
303.15	0.1592	0.0009761	2.05e-05
303.15	0.2659	0.0010955	2.3e-05
303.15	0.3842	0.0012279	2.59e-05
303.15	0.4509	0.0013025	2.76e-05
303.15	0.504	0.001362	2.89e-05
303.15	0.5771	0.0014438	3.07e-05
308.15	0	0.0007195	1.51e-05
308.15	0.0295	0.0007476	1.57e-05
308.15	0.0842	0.0007998	1.68e-05
308.15	0.1722	0.0008836	1.86e-05
308.15	0.2979	0.0010036	2.11e-05
308.15	0.3554	0.0010583	2.23e-05
308.15	0.4266	0.0011262	2.38e-05
308.15	0.4508	0.0011494	2.44e-05
308.15	0.5619	0.0012553	2.67e-05
313.15	0	0.0006532	1.37e-05
313.15	0.0295	0.0006773	1.42e-05
313.15	0.0842	0.000722	1.52e-05
313.15	0.1722	0.0007937	1.67e-05
313.15	0.2979	0.0008964	1.89e-05
313.15	0.3554	0.0009432	1.99e-05
313.15	0.4266	0.0010014	2.12e-05
313.15	0.4508	0.0010212	2.17e-05
313.15	0.5619	0.0011119	2.37e-05

System: tetrabutylphosphonium chloride + water; phases: Liquid
Fixed: Pressure, kPa = 100
Fixed: Frequency, MHz = 2
Property: Speed of sound, m/s (Liquid); method: Linear variable-path acoustic interferometer
Temperature, K	Molality, mol/kg of tetrabutylphosphonium chloride	Speed of sound, m/s	uncertainty
298.15	0	1497.6	4.3
298.15	0.0249	1506.4	4.3
298.15	0.0773	1520	4.3
298.15	0.1592	1541.6	4.3
298.15	0.2659	1567.7	4.3
298.15	0.3842	1593.7	4.3
298.15	0.4509	1607.4	4.3
298.15	0.504	1617.5	4.3
298.15	0.5771	1630.3	4.4
303.15	0	1509.6	4.3
303.15	0.0249	1518.2	4.3
303.15	0.0773	1532.4	4.3
303.15	0.1592	1551.9	4.3
303.15	0.2659	1575.2	4.3
303.15	0.3842	1598.2	4.3
303.15	0.4509	1610.1	4.3
303.15	0.504	1619.5	4.3
303.15	0.5771	1633.2	4.4
308.15	0	1519.9	4.3
308.15	0.0295	1529.8	4.3
308.15	0.0842	1541.2	4.3
308.15	0.1722	1559.9	4.3
308.15	0.2979	1585.8	4.3
308.15	0.3554	1595.6	4.3
308.15	0.4266	1607.8	4.3
308.15	0.4508	1611.9	4.3
308.15	0.5619	1628.9	4.4
313.15	0	1528.5	4.3
313.15	0.0295	1537.3	4.3
313.15	0.0842	1547.8	4.3
313.15	0.1722	1566.5	4.3
313.15	0.2979	1588.4	4.3
313.15	0.3554	1597.3	4.3
313.15	0.4266	1607.8	4.3
313.15	0.4508	1611.4	4.3
313.15	0.5619	1627.3	4.4

System: water + 1-butyl-3-methylimidazolium chloride; phases: Liquid
Fixed: Temperature, K = 298.15
Fixed: Pressure, kPa = 100
Property: Viscosity, Pa*s (Liquid); method: Capillary tube (Ostwald; Ubbelohde) method
Molality, mol/kg of 1-butyl-3-methylimidazolium chloride	Viscosity, Pa*s	uncertainty
0	0.0008905	1.86e-05
0.0155	0.0008976	1.87e-05
0.0257	0.0009023	1.88e-05
0.0567	0.0009166	1.91e-05
0.0653	0.0009205	1.92e-05
0.0782	0.0009265	1.93e-05
0.0895	0.0009317	1.94e-05
0.0923	0.000933	1.95e-05
0.1052	0.0009389	1.96e-05
0.1123	0.0009422	1.96e-05
