Measured thermophysical data. Bubble points of the binary mixtures formed by ethylbenzene with some chloroaliphatics and substituted benzenes at p = 94.7 kPa
Source: J. Chem. Thermodyn., 2006, 10.1016/j.jct.2005.12.009
Compound 1: ethylbenzene, C8H10, InChI=1S/C8H10/c1-2-8-6-4-3-5-7-8/h3-7H,2H2,1H3
Compound 2: 1,2-dichloroethane, C2H4Cl2, InChI=1S/C2H4Cl2/c3-1-2-4/h1-2H2
Compound 3: 1,1,1-trichloroethane, C2H3Cl3, InChI=1S/C2H3Cl3/c1-2(3,4)5/h1H3
Compound 4: 1,1,2,2-tetrachloroethane, C2H2Cl4, InChI=1S/C2H2Cl4/c3-1(4)2(5)6/h1-2H
Compound 5: trichloroethene, C2HCl3, InChI=1S/C2HCl3/c3-1-2(4)5/h1H
Compound 6: tetrachloroethene, C2Cl4, InChI=1S/C2Cl4/c3-1(4)2(5)6
Compound 7: chlorobenzene, C6H5Cl, InChI=1S/C6H5Cl/c7-6-4-2-1-3-5-6/h1-5H
Compound 8: nitrobenzene, C6H5NO2, InChI=1S/C6H5NO2/c8-7(9)6-4-2-1-3-5-6/h1-5H

System: ethylbenzene; phases: Liquid
Property: Refractive index (Na D-line) (Liquid); method: ABBE:UFactor:8
Temperature, K	Pressure, kPa	Refractive index (Na D-line)	uncertainty
293.15	101.325	1.54395	0.00326

System: ethylbenzene; phases: Liquid
Property: Mass density, kg/m3 (Liquid); method: PYCNOM:UFactor:32
Temperature, K	Pressure, kPa	Mass density, kg/m3	uncertainty
293.15	101.325	901.2	8.4

System: ethylbenzene; phases: Liquid, Gas
Property: Vapor or sublimation pressure, kPa (Liquid); method: EBULLIO:UFactor:8
Temperature, K	Vapor or sublimation pressure, kPa	uncertainty
406.95	94.7	2.9

System: 1,2-dichloroethane; phases: Liquid
Property: Refractive index (Na D-line) (Liquid); method: ABBE:UFactor:8
Temperature, K	Pressure, kPa	Refractive index (Na D-line)	uncertainty
293.15	101.325	1.4196	0.0033

System: 1,2-dichloroethane; phases: Liquid
Property: Mass density, kg/m3 (Liquid); method: PYCNOM:UFactor:32
Temperature, K	Pressure, kPa	Mass density, kg/m3	uncertainty
293.15	101.325	1252.9	12.9

System: 1,2-dichloroethane; phases: Liquid, Gas
Property: Vapor or sublimation pressure, kPa (Liquid); method: EBULLIO:UFactor:8
Temperature, K	Vapor or sublimation pressure, kPa	uncertainty
354.85	94.7	2.9

System: 1,1,1-trichloroethane; phases: Liquid
Property: Refractive index (Na D-line) (Liquid); method: ABBE:UFactor:8
Temperature, K	Pressure, kPa	Refractive index (Na D-line)	uncertainty
293.15	101.325	1.4379	0.0033

System: 1,1,1-trichloroethane; phases: Liquid
Property: Mass density, kg/m3 (Liquid); method: PYCNOM:UFactor:32
Temperature, K	Pressure, kPa	Mass density, kg/m3	uncertainty
293.15	101.325	1324.9	13.8

System: 1,1,1-trichloroethane; phases: Liquid, Gas
Property: Vapor or sublimation pressure, kPa (Liquid); method: EBULLIO:UFactor:8
Temperature, K	Vapor or sublimation pressure, kPa	uncertainty
346.45	94.7	2.9

System: 1,1,2,2-tetrachloroethane; phases: Liquid
Property: Refractive index (Na D-line) (Liquid); method: ABBE:UFactor:8
Temperature, K	Pressure, kPa	Refractive index (Na D-line)	uncertainty
293.15	101.325	1.494	0.0033

System: 1,1,2,2-tetrachloroethane; phases: Liquid
Property: Mass density, kg/m3 (Liquid); method: PYCNOM:UFactor:32
Temperature, K	Pressure, kPa	Mass density, kg/m3	uncertainty
293.15	101.325	1593	17

System: 1,1,2,2-tetrachloroethane; phases: Liquid, Gas
Property: Vapor or sublimation pressure, kPa (Liquid); method: EBULLIO:UFactor:8
Temperature, K	Vapor or sublimation pressure, kPa	uncertainty
416.95	94.7	2.9

System: trichloroethene; phases: Liquid
Property: Refractive index (Na D-line) (Liquid); method: ABBE:UFactor:8
Temperature, K	Pressure, kPa	Refractive index (Na D-line)	uncertainty
298.15	101.325	1.4782	0.0033

System: trichloroethene; phases: Liquid
Property: Mass density, kg/m3 (Liquid); method: PYCNOM:UFactor:32
Temperature, K	Pressure, kPa	Mass density, kg/m3	uncertainty
298.15	101.325	1464	16

System: trichloroethene; phases: Liquid, Gas
Property: Vapor or sublimation pressure, kPa (Liquid); method: EBULLIO:UFactor:8
Temperature, K	Vapor or sublimation pressure, kPa	uncertainty
358.15	94.7	2.9

System: tetrachloroethene; phases: Liquid
Property: Refractive index (Na D-line) (Liquid); method: ABBE:UFactor:8
Temperature, K	Pressure, kPa	Refractive index (Na D-line)	uncertainty
298.15	101.325	1.505	0.0033

System: tetrachloroethene; phases: Liquid
Property: Mass density, kg/m3 (Liquid); method: PYCNOM:UFactor:32
Temperature, K	Pressure, kPa	Mass density, kg/m3	uncertainty
298.15	101.325	1625	18

System: tetrachloroethene; phases: Liquid, Gas
Property: Vapor or sublimation pressure, kPa (Liquid); method: EBULLIO:UFactor:8
Temperature, K	Vapor or sublimation pressure, kPa	uncertainty
391.85	94.7	2.9

System: chlorobenzene; phases: Liquid
Property: Refractive index (Na D-line) (Liquid); method: ABBE:UFactor:8
Temperature, K	Pressure, kPa	Refractive index (Na D-line)	uncertainty
298.15	101.325	1.5218	0.0033

System: chlorobenzene; phases: Liquid
Property: Mass density, kg/m3 (Liquid); method: PYCNOM:UFactor:32
Temperature, K	Pressure, kPa	Mass density, kg/m3	uncertainty
298.15	101.325	1100.9	11.4

System: chlorobenzene; phases: Liquid, Gas
Property: Vapor or sublimation pressure, kPa (Liquid); method: EBULLIO:UFactor:8
Temperature, K	Vapor or sublimation pressure, kPa	uncertainty
402.45	94.7	2.9

System: nitrobenzene; phases: Liquid
Property: Refractive index (Na D-line) (Liquid); method: Standard Abbe refractometry
Temperature, K	Pressure, kPa	Refractive index (Na D-line)	uncertainty
298.15	101.325	1.55	0.0007

System: nitrobenzene; phases: Liquid
Property: Mass density, kg/m3 (Liquid); method: PYCNOM:UFactor:32
Temperature, K	Pressure, kPa	Mass density, kg/m3	uncertainty
298.15	101.325	1198.3	12.7

System: nitrobenzene; phases: Liquid, Gas
Property: Vapor or sublimation pressure, kPa (Liquid); method: EBULLIO:UFactor:8
Temperature, K	Vapor or sublimation pressure, kPa	uncertainty
481.15	94.7	2.9

System: ethylbenzene + 1,2-dichloroethane; phases: Liquid, Gas
Fixed: Pressure, kPa = 94.7
Property: Boiling temperature at pressure P, K (Liquid); method: EBULLIO:UFactor:8
Mole fraction of 1,2-dichloroethane	Boiling temperature at pressure P, K	uncertainty
0	406.95	0.69
0.1146	398.85	0.69
0.2053	392.95	0.69
0.3047	386.95	0.69
0.5087	375.75	0.69
0.6481	368.95	0.69
0.7597	363.85	0.69
0.8215	361.25	0.69
0.902	358.15	0.69
1	354.85	0.69

System: 1,1,2,2-tetrachloroethane + ethylbenzene; phases: Liquid, Gas
Fixed: Pressure, kPa = 94.7
Property: Boiling temperature at pressure P, K (Liquid); method: EBULLIO:UFactor:8
Mole fraction of ethylbenzene	Boiling temperature at pressure P, K	uncertainty
0	416.95	0.69
0.1251	416.45	0.69
0.2224	415.95	0.69
0.3003	415.45	0.69
0.4178	414.55	0.69
0.6318	412.35	0.69
0.7202	411.15	0.69
0.837	409.55	0.69
0.9116	408.45	0.69
1	406.95	0.69

System: ethylbenzene + tetrachloroethene; phases: Liquid, Gas
Fixed: Pressure, kPa = 94.7
Property: Boiling temperature at pressure P, K (Liquid); method: EBULLIO:UFactor:8
Mole fraction of tetrachloroethene	Boiling temperature at pressure P, K	uncertainty
0	406.95	0.69
0.165	404.15	0.69
0.2906	401.95	0.69
0.3806	400.45	0.69
0.506	398.35	0.69
0.5955	396.95	0.69
0.677	395.75	0.69
0.7863	394.25	0.69
0.8804	393.15	0.69
1	391.85	0.69

System: nitrobenzene + ethylbenzene; phases: Liquid, Gas
Fixed: Pressure, kPa = 94.7
Property: Boiling temperature at pressure P, K (Liquid); method: EBULLIO:UFactor:8
Mole fraction of ethylbenzene	Boiling temperature at pressure P, K	uncertainty
0	481.15	0.69
0.1225	462.65	0.69
0.3277	441.55	0.69
0.4105	435.25	0.69
0.6256	422.25	0.69
0.7148	417.95	0.69
0.8343	412.95	0.69
0.9093	410.15	0.69
1	406.95	0.69

System: 1,1,1-trichloroethane + ethylbenzene; phases: Liquid, Gas
Fixed: Pressure, kPa = 94.7
Property: Boiling temperature at pressure P, K (Liquid); method: EBULLIO:UFactor:8
Mole fraction of 1,1,1-trichloroethane	Boiling temperature at pressure P, K	uncertainty
0	406.95	0.69
0.121	381.35	0.69
0.2171	371.05	0.69
0.293	365.65	0.69
0.4095	360.05	0.69
0.6246	353.65	0.69
0.713	351.85	0.69
0.833	349.55	0.69
0.908	348.15	0.69
1	346.45	0.69

System: trichloroethene + ethylbenzene; phases: Liquid, Gas
Fixed: Pressure, kPa = 94.7
Property: Boiling temperature at pressure P, K (Liquid); method: EBULLIO:UFactor:8
Mole fraction of trichloroethene	Boiling temperature at pressure P, K	uncertainty
0	406.95	0.69
0.102	401.85	0.69
0.185	397.15	0.69
0.3126	389.35	0.69
0.4058	383.75	0.69
0.6026	373.15	0.69
0.7316	367.35	0.69
0.8035	364.55	0.69
0.891	361.45	0.69
1	358.15	0.69

System: ethylbenzene + chlorobenzene; phases: Liquid, Gas
Fixed: Pressure, kPa = 94.7
Property: Boiling temperature at pressure P, K (Liquid); method: EBULLIO:UFactor:8
Mole fraction of chlorobenzene	Boiling temperature at pressure P, K	uncertainty
0	406.95	0.69
0.1671	406.35	0.69
0.2863	405.95	0.69
0.4453	405.35	0.69
0.6163	404.55	0.69
0.7431	403.85	0.69
0.8785	403.15	0.69
1	402.45	0.69
