Measured thermophysical data. Densities and derived thermodynamic properties of binary alkanol + boldine mixtures in the compressed liquid region
Source: J. Chem. Thermodyn., 2012, 10.1016/j.jct.2012.03.003
Compound 1: boldine, C19H21NO4, InChI=1S/C19H21NO4/c1-20-5-4-10-7-15(22)19(24-3)18-12-9-16(23-2)14(21)8-11(12)6-13(20)17(10)18/h7-9,13,21-22H,4-6H2,1-3H3, purity 99%
Compound 2: propan-1-ol, C3H8O, InChI=1S/C3H8O/c1-2-3-4/h4H,2-3H2,1H3, purity 99.9%
Compound 3: ethanol, C2H6O, InChI=1S/C2H6O/c1-2-3/h3H,2H2,1H3, purity 99.8%

System: propan-1-ol + boldine; phases: Liquid
Property: Mass density, kg/m3 (Liquid); method: Vibrating tube method
Mole fraction of boldine	Temperature, K	Pressure, kPa	Mass density, kg/m3	uncertainty
0.0018	313.15	1000	790.99	0.9
0.0018	313.15	2000	791.76	0.9
0.0018	313.15	3000	792.55	0.9
0.0018	313.15	4000	793.33	0.9
0.0018	313.15	5000	794.13	0.9
0.0018	313.15	6000	794.94	0.91
0.0018	313.15	7000	795.75	0.91
0.0018	313.15	8000	796.57	0.91
0.0018	313.15	9000	797.38	0.91
0.0018	313.15	10000	798.19	0.91
0.0018	313.15	11000	799.01	0.92
0.0018	313.15	12000	799.83	0.92
0.0018	313.15	13000	800.62	0.92
0.0018	313.15	14000	801.41	0.92
0.0018	313.15	15000	802.19	0.92
0.0018	313.15	16000	802.95	0.92
0.0018	313.15	17000	803.72	0.93
0.0018	313.15	18000	804.46	0.93
0.0018	313.15	19000	805.19	0.93
0.0018	313.15	20000	805.9	0.93
0.0018	323.1	1000	782.67	0.93
0.0018	323.1	2000	783.52	0.93
0.0018	323.1	3000	784.36	0.93
0.0018	323.1	4000	785.2	0.93
0.0018	323.1	5000	786.06	0.93
0.0018	323.1	6000	786.91	0.93
0.0018	323.1	7000	787.78	0.93
0.0018	323.1	8000	788.64	0.93
0.0018	323.1	9000	789.49	0.94
0.0018	323.1	10000	790.35	0.94
0.0018	323.1	11000	791.2	0.94
0.0018	323.1	12000	792.05	0.94
0.0018	323.1	13000	792.88	0.94
0.0018	323.1	14000	793.69	0.94
0.0018	323.1	15000	794.51	0.95
0.0018	323.1	16000	795.32	0.95
0.0018	323.1	17000	796.1	0.95
0.0018	323.1	18000	796.89	0.95
0.0018	323.1	19000	797.65	0.95
0.0018	323.1	20000	798.39	0.96
0.0018	333.04	1000	774.01	0.92
0.0018	333.04	2000	774.92	0.92
0.0018	333.04	3000	775.82	0.92
0.0018	333.04	4000	776.73	0.92
0.0018	333.04	5000	777.64	0.93
0.0018	333.04	6000	778.55	0.93
0.0018	333.04	7000	779.47	0.93
0.0018	333.04	8000	780.38	0.93
0.0018	333.04	9000	781.29	0.93
0.0018	333.04	10000	782.18	0.93
0.0018	333.04	11000	783.07	0.94
0.0018	333.04	12000	783.97	0.94
0.0018	333.04	13000	784.84	0.94
0.0018	333.04	14000	785.7	0.94
0.0018	333.04	15000	786.56	0.95
0.0018	333.04	16000	787.41	0.95
0.0018	333.04	17000	788.23	0.95
0.0018	333.04	18000	789.05	0.95
0.0018	333.04	19000	789.86	0.95
0.0018	333.04	20000	790.65	0.96
0.0018	343	1000	765.31	0.95
0.0018	343	2000	766.28	0.94
0.0018	343	3000	767.25	0.94
0.0018	343	4000	768.23	0.94
0.0018	343	5000	769.21	0.93
0.0018	343	6000	770.18	0.94
0.0018	343	7000	771.15	0.94
0.0018	343	8000	772.11	0.94
0.0018	343	9000	773.07	0.94
0.0018	343	10000	774.02	0.94
0.0018	343	11000	774.96	0.94
0.0018	343	12000	775.89	0.95
0.0018	343	13000	776.81	0.95
0.0018	343	14000	777.73	0.95
0.0018	343	15000	778.63	0.95
0.0018	343	16000	779.51	0.95
0.0018	343	17000	780.4	0.95
0.0018	343	18000	781.25	0.95
0.0018	343	19000	782.1	0.96
0.0018	343	20000	782.93	0.96
0.0018	352.94	1000	756.19	0.93
0.0018	352.94	2000	757.24	0.92
0.0018	352.94	3000	758.3	0.93
0.0018	352.94	4000	759.35	0.93
0.0018	352.94	5000	760.39	0.93
0.0018	352.94	6000	761.42	0.93
0.0018	352.94	7000	762.46	0.93
0.0018	352.94	8000	763.48	0.93
0.0018	352.94	9000	764.5	0.93
0.0018	352.94	10000	765.51	0.93
0.0018	352.94	11000	766.51	0.93
0.0018	352.94	12000	767.49	0.94
0.0018	352.94	13000	768.45	0.94
0.0018	352.94	14000	769.42	0.94
0.0018	352.94	15000	770.37	0.95
0.0018	352.94	16000	771.31	0.95
0.0018	352.94	17000	772.22	0.95
0.0018	352.94	18000	773.13	0.95
0.0018	352.94	19000	774.01	0.96
0.0018	352.94	20000	774.9	0.96
0.0018	362.94	1000	746.61	0.91
0.0018	362.94	2000	747.75	0.91
0.0018	362.94	3000	748.91	0.91
0.0018	362.94	4000	750.05	0.91
0.0018	362.94	5000	751.17	0.91
0.0018	362.94	6000	752.28	0.91
0.0018	362.94	7000	753.38	0.91
0.0018	362.94	8000	754.49	0.92
0.0018	362.94	9000	755.54	0.92
0.0018	362.94	10000	756.62	0.92
0.0018	362.94	11000	757.69	0.92
0.0018	362.94	12000	758.72	0.93
0.0018	362.94	13000	759.77	0.93
0.0018	362.94	14000	760.8	0.93
0.0018	362.94	15000	761.77	0.93
0.0018	362.94	16000	762.79	0.93
0.0018	362.94	17000	763.76	0.94
0.0018	362.94	18000	764.68	0.94
0.0018	362.94	19000	765.63	0.95
0.0018	362.94	20000	766.58	0.94
0.0046	313.14	1000	797.2	0.7
0.0046	313.14	2000	797.97	0.7
0.0046	313.14	3000	798.75	0.7
0.0046	313.14	4000	799.53	0.7
0.0046	313.14	5000	800.32	0.71
0.0046	313.14	6000	801.13	0.71
0.0046	313.14	7000	801.93	0.71
0.0046	313.14	8000	802.74	0.71
0.0046	313.14	9000	803.55	0.71
0.0046	313.14	10000	804.36	0.72
0.0046	313.14	11000	805.17	0.72
0.0046	313.14	12000	805.97	0.72
0.0046	313.14	13000	806.77	0.72
0.0046	313.14	14000	807.55	0.73
0.0046	313.14	15000	808.32	0.73
0.0046	313.14	16000	809.08	0.73
0.0046	313.14	17000	809.85	0.73
0.0046	313.14	18000	810.58	0.74
0.0046	313.14	19000	811.3	0.74
0.0046	313.14	20000	812.01	0.75
0.0046	323.14	1000	788.94	0.7
0.0046	323.14	2000	789.78	0.7
0.0046	323.14	3000	790.61	0.7
0.0046	323.14	4000	791.45	0.7
0.0046	323.14	5000	792.3	0.71
0.0046	323.14	6000	793.15	0.71
0.0046	323.14	7000	794.01	0.71
0.0046	323.14	8000	794.86	0.71
0.0046	323.14	9000	795.72	0.71
0.0046	323.14	10000	796.56	0.72
0.0046	323.14	11000	797.4	0.72
0.0046	323.14	12000	798.24	0.72
0.0046	323.14	13000	799.07	0.72
0.0046	323.14	14000	799.88	0.73
0.0046	323.14	15000	800.71	0.73
0.0046	323.14	16000	801.5	0.73
0.0046	323.14	17000	802.28	0.74
0.0046	323.14	18000	803.06	0.74
0.0046	323.14	19000	803.81	0.74
0.0046	323.14	20000	804.56	0.75
0.0046	333.07	1000	780.3	0.7
0.0046	333.07	2000	781.23	0.7
0.0046	333.07	3000	782.1	0.7
0.0046	333.07	4000	783.02	0.71
0.0046	333.07	5000	783.92	0.71
0.0046	333.07	6000	784.83	0.71
0.0046	333.07	7000	785.74	0.71
0.0046	333.07	8000	786.64	0.72
0.0046	333.07	9000	787.54	0.72
0.0046	333.07	10000	788.44	0.72
0.0046	333.07	11000	789.33	0.72
0.0046	333.07	12000	790.21	0.73
0.0046	333.07	13000	791.08	0.73
0.0046	333.07	14000	791.94	0.73
0.0046	333.07	15000	792.79	0.74
0.0046	333.07	16000	793.62	0.74
0.0046	333.07	17000	794.45	0.74
0.0046	333.07	18000	795.27	0.75
0.0046	333.07	19000	796.06	0.75
0.0046	333.07	20000	796.84	0.75
0.0046	343.04	1000	771.67	0.7
0.0046	343.04	2000	772.63	0.7
0.0046	343.04	3000	773.6	0.71
0.0046	343.04	4000	774.56	0.71
0.0046	343.04	5000	775.44	0.71
0.0046	343.04	6000	776.45	0.71
0.0046	343.04	7000	777.41	0.72
0.0046	343.04	8000	778.35	0.72
0.0046	343.04	9000	779.29	0.72
0.0046	343.04	10000	780.23	0.72
0.0046	343.04	11000	781.16	0.73
0.0046	343.04	12000	782.09	0.73
0.0046	343.04	13000	782.98	0.73
0.0046	343.04	14000	783.89	0.74
0.0046	343.04	15000	784.78	0.74
0.0046	343.04	16000	785.65	0.74
0.0046	343.04	17000	786.52	0.75
0.0046	343.04	18000	787.37	0.75
0.0046	343.04	19000	788.26	0.75
0.0046	343.04	20000	789.03	0.76
0.0046	352.95	1000	762.42	0.71
0.0046	352.95	2000	763.47	0.71
0.0046	352.95	3000	764.53	0.71
0.0046	352.95	4000	765.57	0.71
0.0046	352.95	5000	766.6	0.72
0.0046	352.95	6000	767.63	0.72
0.0046	352.95	7000	768.64	0.72
0.0046	352.95	8000	769.68	0.72
0.0046	352.95	9000	770.67	0.73
0.0046	352.95	10000	771.67	0.73
0.0046	352.95	11000	772.65	0.73
0.0046	352.95	12000	773.64	0.73
0.0046	352.95	13000	774.6	0.74
0.0046	352.95	14000	775.56	0.74
0.0046	352.95	15000	776.52	0.74
0.0046	352.95	16000	777.42	0.75
0.0046	352.95	17000	778.33	0.75
0.0046	352.95	18000	779.23	0.76
0.0046	352.95	19000	780.13	0.76
0.0046	352.95	20000	780.98	0.77
0.0046	362.92	1000	752.84	0.71
0.0046	362.92	2000	753.97	0.71
0.0046	362.92	3000	755.11	0.71
0.0046	362.92	4000	756.24	0.71
0.0046	362.92	5000	757.34	0.72
0.0046	362.92	6000	758.46	0.72
0.0046	362.92	7000	759.55	0.72
0.0046	362.92	8000	760.63	0.72
0.0046	362.92	9000	761.7	0.73
0.0046	362.92	10000	762.78	0.73
0.0046	362.92	11000	763.79	0.73
0.0046	362.92	12000	764.85	0.74
0.0046	362.92	13000	765.87	0.74
0.0046	362.92	14000	766.88	0.74
0.0046	362.92	15000	767.86	0.75
0.0046	362.92	16000	768.85	0.75
0.0046	362.92	17000	769.81	0.75
0.0046	362.92	18000	770.76	0.76
0.0046	362.92	19000	771.7	0.76
0.0046	362.92	20000	772.56	0.77
0.0077	313.15	1000	801.14	0.67
0.0077	313.15	2000	801.89	0.68
0.0077	313.15	3000	802.66	0.68
0.0077	313.15	4000	803.44	0.68
0.0077	313.15	5000	804.23	0.68
0.0077	313.15	6000	805.03	0.68
0.0077	313.15	7000	805.83	0.69
0.0077	313.15	8000	806.63	0.69
0.0077	313.15	9000	807.44	0.69
0.0077	313.15	10000	808.25	0.69
0.0077	313.15	11000	809.05	0.69
0.0077	313.15	12000	809.85	0.7
0.0077	313.15	13000	810.64	0.7
0.0077	313.15	14000	811.41	0.7
0.0077	313.15	15000	812.18	0.7
0.0077	313.15	16000	812.94	0.71
0.0077	313.15	17000	813.69	0.71
0.0077	313.15	18000	814.42	0.71
0.0077	313.15	19000	815.14	0.72
0.0077	313.15	20000	815.85	0.72
0.0077	323.12	1000	792.79	0.66
0.0077	323.12	2000	793.61	0.67
0.0077	323.12	3000	794.44	0.67
0.0077	323.12	4000	795.28	0.67
0.0077	323.12	5000	796.12	0.67
0.0077	323.12	6000	796.97	0.67
0.0077	323.12	7000	797.82	0.68
0.0077	323.12	8000	798.67	0.68
0.0077	323.12	9000	799.51	0.68
0.0077	323.12	10000	800.35	0.68
0.0077	323.12	11000	801.2	0.69
0.0077	323.12	12000	802.03	0.69
0.0077	323.12	13000	802.85	0.69
0.0077	323.12	14000	803.66	0.69
0.0077	323.12	15000	804.47	0.7
0.0077	323.12	16000	805.27	0.7
0.0077	323.12	17000	806.04	0.7
0.0077	323.12	18000	806.81	0.71
0.0077	323.12	19000	807.57	0.71
0.0077	323.12	20000	808.3	0.71
0.0077	333.04	1000	784.16	0.67
0.0077	333.04	2000	785.05	0.67
0.0077	333.04	3000	785.95	0.67
0.0077	333.04	4000	786.85	0.67
0.0077	333.04	5000	787.74	0.67
0.0077	333.04	6000	788.65	0.68
0.0077	333.04	7000	789.55	0.68
0.0077	333.04	8000	790.45	0.68
0.0077	333.04	9000	791.35	0.68
0.0077	333.04	10000	792.22	0.69
0.0077	333.04	11000	793.11	0.69
0.0077	333.04	12000	793.99	0.69
0.0077	333.04	13000	794.86	0.69
0.0077	333.04	14000	795.71	0.7
0.0077	333.04	15000	796.55	0.7
0.0077	333.04	16000	797.38	0.7
0.0077	333.04	17000	798.2	0.71
0.0077	333.04	18000	799.02	0.71
0.0077	333.04	19000	799.81	0.71
0.0077	333.04	20000	800.56	0.72
0.0077	343.01	1000	775.45	0.66
0.0077	343.01	2000	776.42	0.66
0.0077	343.01	3000	777.38	0.66
0.0077	343.01	4000	778.34	0.66
0.0077	343.01	5000	779.31	0.67
0.0077	343.01	6000	780.26	0.67
0.0077	343.01	7000	781.23	0.67
0.0077	343.01	8000	782.18	0.68
0.0077	343.01	9000	783.12	0.68
0.0077	343.01	10000	784.05	0.68
0.0077	343.01	11000	784.98	0.69
0.0077	343.01	12000	785.91	0.69
0.0077	343.01	13000	786.82	0.69
0.0077	343.01	14000	787.72	0.7
0.0077	343.01	15000	788.61	0.7
0.0077	343.01	16000	789.48	0.7
0.0077	343.01	17000	790.35	0.71
0.0077	343.01	18000	791.2	0.71
0.0077	343.01	19000	792.04	0.71
0.0077	343.01	20000	792.86	0.72
0.0077	352.95	1000	766.39	0.67
0.0077	352.95	2000	767.42	0.67
0.0077	352.95	3000	768.43	0.68
0.0077	352.95	4000	769.48	0.67
0.0077	352.95	5000	770.53	0.68
0.0077	352.95	6000	771.55	0.68
0.0077	352.95	7000	772.55	0.68
0.0077	352.95	8000	773.58	0.68
0.0077	352.95	9000	774.57	0.69
0.0077	352.95	10000	775.56	0.69
0.0077	352.95	11000	776.53	0.69
0.0077	352.95	12000	777.51	0.7
0.0077	352.95	13000	778.48	0.7
0.0077	352.95	14000	779.42	0.7
0.0077	352.95	15000	780.35	0.71
0.0077	352.95	16000	781.26	0.71
0.0077	352.95	17000	782.19	0.71
0.0077	352.95	18000	783.07	0.72
0.0077	352.95	19000	783.97	0.72
0.0077	352.95	20000	784.83	0.72
0.0077	362.92	1000	756.81	0.67
0.0077	362.92	2000	757.93	0.68
0.0077	362.92	3000	759.06	0.68
0.0077	362.92	4000	760.16	0.68
0.0077	362.92	5000	761.28	0.68
0.0077	362.92	6000	762.37	0.69
0.0077	362.92	7000	763.46	0.69
0.0077	362.92	8000	764.54	0.69
0.0077	362.92	9000	765.61	0.71
0.0077	362.92	10000	766.65	0.7
0.0077	362.92	11000	767.68	0.7
0.0077	362.92	12000	768.72	0.7
0.0077	362.92	13000	769.74	0.71
0.0077	362.92	14000	770.74	0.71
0.0077	362.92	15000	771.74	0.72
0.0077	362.92	16000	772.72	0.72
0.0077	362.92	17000	773.68	0.72
0.0077	362.92	18000	774.6	0.73
0.0077	362.92	19000	775.55	0.73
0.0077	362.92	20000	776.45	0.74
0.0112	313.15	1000	807.94	0.72
0.0112	313.15	2000	808.71	0.72
0.0112	313.15	3000	809.47	0.72
0.0112	313.15	4000	810.25	0.72
0.0112	313.15	5000	811.06	0.72
0.0112	313.15	6000	811.83	0.73
0.0112	313.15	7000	812.63	0.73
0.0112	313.15	8000	813.42	0.73
0.0112	313.15	9000	814.2	0.73
0.0112	313.15	10000	815	0.73
0.0112	313.15	11000	815.81	0.73
0.0112	313.15	12000	816.58	0.74
0.0112	313.15	13000	817.36	0.74
0.0112	313.15	14000	818.14	0.74
0.0112	313.15	15000	818.89	0.74
0.0112	313.15	16000	819.65	0.75
0.0112	313.15	17000	820.39	0.75
0.0112	313.15	18000	821.12	0.75
0.0112	313.15	19000	821.85	0.75
0.0112	313.15	20000	822.53	0.75
0.0112	323.11	1000	799.52	0.72
0.0112	323.11	2000	800.32	0.72
0.0112	323.11	3000	801.16	0.72
0.0112	323.11	4000	801.99	0.73
0.0112	323.11	5000	802.82	0.73
0.0112	323.11	6000	803.66	0.73
0.0112	323.11	7000	804.52	0.73
0.0112	323.11	8000	805.34	0.73
0.0112	323.11	9000	806.15	0.74
0.0112	323.11	10000	807.01	0.74
0.0112	323.11	11000	807.85	0.74
0.0112	323.11	12000	808.67	0.74
0.0112	323.11	13000	809.47	0.74
0.0112	323.11	14000	810.29	0.75
0.0112	323.11	15000	811.07	0.75
0.0112	323.11	16000	811.88	0.75
0.0112	323.11	17000	812.65	0.75
0.0112	323.11	18000	813.42	0.76
0.0112	323.11	19000	814.16	0.76
0.0112	323.11	20000	814.92	0.76
0.0112	333.04	1000	790.89	0.72
0.0112	333.04	2000	791.78	0.72
0.0112	333.04	3000	792.66	0.72
0.0112	333.04	4000	793.55	0.72
0.0112	333.04	5000	794.46	0.73
0.0112	333.04	6000	795.35	0.73
0.0112	333.04	7000	796.25	0.73
0.0112	333.04	8000	797.14	0.73
0.0112	333.04	9000	798.03	0.73
0.0112	333.04	10000	798.91	0.74
0.0112	333.04	11000	799.78	0.74
0.0112	333.04	12000	800.64	0.74
0.0112	333.04	13000	801.49	0.74
0.0112	333.04	14000	802.35	0.75
0.0112	333.04	15000	803.19	0.75
0.0112	333.04	16000	804	0.75
0.0112	333.04	17000	804.81	0.75
0.0112	333.04	18000	805.61	0.76
0.0112	333.04	19000	806.39	0.76
0.0112	333.04	20000	807.16	0.76
0.0112	343.02	1000	782.08	0.72
0.0112	343.02	2000	783.03	0.72
0.0112	343.02	3000	783.98	0.72
0.0112	343.02	4000	784.93	0.73
0.0112	343.02	5000	785.88	0.73
0.0112	343.02	6000	786.83	0.73
0.0112	343.02	7000	787.77	0.73
0.0112	343.02	8000	788.71	0.73
0.0112	343.02	9000	789.64	0.73
0.0112	343.02	10000	790.57	0.74
0.0112	343.02	11000	791.49	0.74
0.0112	343.02	12000	792.4	0.74
0.0112	343.02	13000	793.29	0.74
0.0112	343.02	14000	794.19	0.75
0.0112	343.02	15000	795.06	0.75
0.0112	343.02	16000	795.93	0.75
0.0112	343.02	17000	796.79	0.76
0.0112	343.02	18000	797.62	0.76
0.0112	343.02	19000	798.46	0.76
0.0112	343.02	20000	799.28	0.76
0.0112	352.94	1000	772.97	0.72
0.0112	352.94	2000	774.02	0.72
0.0112	352.94	3000	775.24	0.72
0.0112	352.94	4000	776.07	0.72
0.0112	352.94	5000	777.15	0.72
0.0112	352.94	6000	778.1	0.73
0.0112	352.94	7000	779.1	0.73
0.0112	352.94	8000	780.11	0.73
0.0112	352.94	9000	781.09	0.73
0.0112	352.94	10000	782.07	0.74
0.0112	352.94	11000	783.04	0.74
0.0112	352.94	12000	784.02	0.74
0.0112	352.94	13000	784.98	0.74
0.0112	352.94	14000	785.8	0.75
0.0112	352.94	15000	786.85	0.75
0.0112	352.94	16000	787.79	0.75
0.0112	352.94	17000	788.61	0.76
0.0112	352.94	18000	789.5	0.76
0.0112	352.94	19000	790.38	0.76
0.0112	352.94	20000	791.19	0.77
0.0112	362.93	1000	763.51	0.72
0.0112	362.93	2000	764.63	0.72
0.0112	362.93	3000	765.74	0.72
0.0112	362.93	4000	766.83	0.73
0.0112	362.93	5000	767.93	0.72
0.0112	362.93	6000	769	0.73
0.0112	362.93	7000	770.08	0.73
0.0112	362.93	8000	771.14	0.74
0.0112	362.93	9000	772.39	0.74
0.0112	362.93	10000	773.24	0.74
0.0112	362.93	11000	774.29	0.74
0.0112	362.93	12000	775.28	0.75
0.0112	362.93	13000	776.29	0.75
0.0112	362.93	14000	777.28	0.75
0.0112	362.93	15000	778.25	0.75
0.0112	362.93	16000	779.21	0.76
0.0112	362.93	17000	780.16	0.76
0.0112	362.93	18000	781.11	0.76
0.0112	362.93	19000	782.03	0.77
0.0112	362.93	20000	782.93	0.77
0.0142	313.09	1000	812.51	0.62
0.0142	313.09	2000	813.26	0.62
0.0142	313.09	3000	814.02	0.62
0.0142	313.09	4000	814.8	0.63
0.0142	313.09	5000	815.58	0.62
0.0142	313.09	6000	816.36	0.63
0.0142	313.09	7000	817.15	0.63
0.0142	313.09	8000	817.95	0.63
0.0142	313.09	9000	818.75	0.64
0.0142	313.09	10000	819.54	0.64
0.0142	313.09	11000	820.32	0.64
0.0142	313.09	12000	821.12	0.64
0.0142	313.09	13000	821.89	0.65
0.0142	313.09	14000	822.65	0.65
0.0142	313.09	15000	823.42	0.65
0.0142	313.09	16000	824.16	0.66
0.0142	313.09	17000	824.91	0.66
0.0142	313.09	18000	825.63	0.66
0.0142	313.09	19000	826.34	0.66
0.0142	313.09	20000	827.03	0.67
0.0142	323.11	1000	804.17	0.62
0.0142	323.11	2000	804.99	0.63
0.0142	323.11	3000	805.81	0.63
0.0142	323.11	4000	806.63	0.64
0.0142	323.11	5000	807.51	0.64
0.0142	323.11	6000	808.3	0.64
0.0142	323.11	7000	809.14	0.64
0.0142	323.11	8000	809.97	0.65
0.0142	323.11	9000	810.81	0.65
0.0142	323.11	10000	811.64	0.65
0.0142	323.11	11000	812.47	0.65
0.0142	323.11	12000	813.28	0.66
0.0142	323.11	13000	814.1	0.66
0.0142	323.11	14000	814.89	0.66
0.0142	323.11	15000	815.69	0.67
0.0142	323.11	16000	816.47	0.67
0.0142	323.11	17000	817.24	0.67
0.0142	323.11	18000	818	0.67
0.0142	323.11	19000	818.74	0.68
0.0142	323.11	20000	819.49	0.67
0.0142	333.04	1000	795.51	0.64
0.0142	333.04	2000	796.38	0.64
0.0142	333.04	3000	797.27	0.64
0.0142	333.04	4000	798.15	0.64
0.0142	333.04	5000	799.05	0.64
0.0142	333.04	6000	799.92	0.64
0.0142	333.04	7000	800.8	0.64
0.0142	333.04	8000	801.7	0.65
0.0142	333.04	9000	802.57	0.65
0.0142	333.04	10000	803.44	0.65
0.0142	333.04	11000	804.31	0.65
0.0142	333.04	12000	805.16	0.66
0.0142	333.04	13000	806.02	0.66
0.0142	333.04	14000	806.86	0.66
0.0142	333.04	15000	807.69	0.67
0.0142	333.04	16000	808.51	0.67
0.0142	333.04	17000	809.32	0.67
0.0142	333.04	18000	810.12	0.68
0.0142	333.04	19000	810.91	0.68
0.0142	333.04	20000	811.68	0.69
0.0142	343.01	1000	786.8	0.63
0.0142	343.01	2000	787.75	0.64
0.0142	343.01	3000	788.7	0.64
0.0142	343.01	4000	789.64	0.64
0.0142	343.01	5000	790.58	0.65
0.0142	343.01	6000	791.54	0.65
0.0142	343.01	7000	792.46	0.65
0.0142	343.01	8000	793.4	0.66
0.0142	343.01	9000	794.32	0.66
0.0142	343.01	10000	795.24	0.66
0.0142	343.01	11000	796.17	0.66
0.0142	343.01	12000	797.07	0.67
0.0142	343.01	13000	797.96	0.67
0.0142	343.01	14000	798.86	0.67
0.0142	343.01	15000	799.72	0.68
0.0142	343.01	16000	800.59	0.68
0.0142	343.01	17000	801.44	0.68
0.0142	343.01	18000	802.3	0.69
0.0142	343.01	19000	803.11	0.69
0.0142	343.01	20000	803.92	0.69
0.0142	352.94	1000	777.66	0.63
0.0142	352.94	2000	778.69	0.64
0.0142	352.94	3000	779.72	0.62
0.0142	352.94	4000	780.73	0.64
0.0142	352.94	5000	781.74	0.64
0.0142	352.94	6000	782.74	0.65
0.0142	352.94	7000	783.74	0.65
0.0142	352.94	8000	784.73	0.65
0.0142	352.94	9000	785.73	0.66
0.0142	352.94	10000	786.7	0.66
0.0142	352.94	11000	787.66	0.66
0.0142	352.94	12000	788.61	0.67
0.0142	352.94	13000	789.57	0.67
0.0142	352.94	14000	790.48	0.68
0.0142	352.94	15000	791.41	0.67
0.0142	352.94	16000	792.32	0.67
0.0142	352.94	17000	793.21	0.69
0.0142	352.94	18000	794.1	0.69
0.0142	352.94	19000	794.97	0.69
0.0142	352.94	20000	795.82	0.7
0.0142	362.91	1000	768.06	0.63
0.0142	362.91	2000	769.19	0.63
0.0142	362.91	3000	770.27	0.64
0.0142	362.91	4000	771.41	0.64
0.0142	362.91	5000	772.43	0.64
0.0142	362.91	6000	773.54	0.64
0.0142	362.91	7000	774.62	0.65
0.0142	362.91	8000	775.73	0.65
0.0142	362.91	9000	776.73	0.63
0.0142	362.91	10000	777.77	0.66
0.0142	362.91	11000	778.78	0.66
0.0142	362.91	12000	779.82	0.67
0.0142	362.91	13000	780.81	0.67
0.0142	362.91	14000	781.79	0.67
0.0142	362.91	15000	782.77	0.68
0.0142	362.91	16000	783.72	0.68
0.0142	362.91	17000	784.68	0.69
0.0142	362.91	18000	785.6	0.69
0.0142	362.91	19000	786.52	0.69
0.0142	362.91	20000	787.4	0.7

System: ethanol + boldine; phases: Liquid
Property: Mass density, kg/m3 (Liquid); method: Vibrating tube method
Mole fraction of boldine	Temperature, K	Pressure, kPa	Mass density, kg/m3	uncertainty
0.0012	313.09	1000	775.75	0.86
0.0012	313.09	2000	776.61	0.86
0.0012	313.09	3000	777.49	0.86
0.0012	313.09	4000	778.37	0.86
0.0012	313.09	5000	779.27	0.86
0.0012	313.09	6000	780.17	0.86
0.0012	313.09	7000	781.08	0.87
0.0012	313.09	8000	781.99	0.87
0.0012	313.09	9000	782.89	0.87
0.0012	313.09	10000	783.79	0.87
0.0012	313.09	11000	784.7	0.87
0.0012	313.09	12000	785.59	0.88
0.0012	313.09	13000	786.48	0.88
0.0012	313.09	14000	787.35	0.88
0.0012	313.09	15000	788.21	0.88
0.0012	313.09	16000	789.07	0.88
0.0012	313.09	17000	789.89	0.89
0.0012	313.09	18000	790.71	0.89
0.0012	313.09	19000	791.52	0.89
0.0012	313.09	20000	792.31	0.89
0.0012	323.03	1000	766.88	0.87
0.0012	323.03	2000	767.82	0.86
0.0012	323.03	3000	768.76	0.87
0.0012	323.03	4000	769.71	0.87
0.0012	323.03	5000	770.66	0.87
0.0012	323.03	6000	771.62	0.87
0.0012	323.03	7000	772.58	0.87
0.0012	323.03	8000	773.53	0.87
0.0012	323.03	9000	774.49	0.87
0.0012	323.03	10000	775.44	0.88
0.0012	323.03	11000	776.38	0.88
0.0012	323.03	12000	777.32	0.88
0.0012	323.03	13000	778.24	0.88
0.0012	323.03	14000	779.15	0.89
0.0012	323.03	15000	780.06	0.89
0.0012	323.03	16000	780.94	0.89
0.0012	323.03	17000	781.82	0.89
0.0012	323.03	18000	782.68	0.9
0.0012	323.03	19000	783.53	0.9
0.0012	323.03	20000	784.35	0.9
0.0012	332.92	1000	757.69	0.86
0.0012	332.92	2000	758.72	0.86
0.0012	332.92	3000	759.75	0.87
0.0012	332.92	4000	760.77	0.87
0.0012	332.92	5000	761.81	0.87
0.0012	332.92	6000	762.85	0.87
0.0012	332.92	7000	763.86	0.87
0.0012	332.92	8000	764.88	0.87
0.0012	332.92	9000	765.9	0.88
0.0012	332.92	10000	766.9	0.88
0.0012	332.92	11000	767.9	0.88
0.0012	332.92	12000	768.88	0.88
0.0012	332.92	13000	769.87	0.88
0.0012	332.92	14000	770.83	0.89
0.0012	332.92	15000	771.78	0.89
0.0012	332.92	16000	772.72	0.89
0.0012	332.92	17000	773.63	0.89
0.0012	332.92	18000	774.53	0.9
0.0012	332.92	19000	775.42	0.9
0.0012	332.92	20000	776.29	0.9
0.0012	342.92	1000	748.44	0.88
0.0012	342.92	2000	749.56	0.87
0.0012	342.92	3000	750.65	0.87
0.0012	342.92	4000	751.76	0.87
0.0012	342.92	5000	752.85	0.87
0.0012	342.92	6000	753.94	0.88
0.0012	342.92	7000	755.02	0.88
0.0012	342.92	8000	756.1	0.88
0.0012	342.92	9000	757.16	0.88
0.0012	342.92	10000	758.21	0.88
0.0012	342.92	11000	759.27	0.89
0.0012	342.92	12000	760.3	0.89
0.0012	342.92	13000	761.33	0.89
0.0012	342.92	14000	762.33	0.89
0.0012	342.92	15000	763.33	0.89
0.0012	342.92	16000	764.31	0.9
0.0012	342.92	17000	765.26	0.9
0.0012	342.92	18000	766.22	0.9
0.0012	342.92	19000	767.14	0.91
0.0012	342.92	20000	768.07	0.91
0.0012	352.81	1000	738.74	0.88
0.0012	352.81	2000	739.95	0.89
0.0012	352.81	3000	741.15	0.88
0.0012	352.81	4000	742.33	0.88
0.0012	352.81	5000	743.51	0.89
0.0012	352.81	6000	744.68	0.89
0.0012	352.81	7000	745.85	0.89
0.0012	352.81	8000	746.99	0.89
0.0012	352.81	9000	748.13	0.89
0.0012	352.81	10000	749.26	0.89
0.0012	352.81	11000	750.37	0.9
0.0012	352.81	12000	751.47	0.9
0.0012	352.81	13000	752.55	0.9
0.0012	352.81	14000	753.61	0.9
0.0012	352.81	15000	754.67	0.91
0.0012	352.81	16000	755.72	0.91
0.0012	352.81	17000	756.73	0.91
0.0012	352.81	18000	757.73	0.92
0.0012	352.81	19000	758.72	0.92
0.0012	352.81	20000	759.69	0.92
0.0012	362.78	1000	728.71	0.88
0.0012	362.78	2000	730.01	0.89
0.0012	362.78	3000	731.31	0.89
0.0012	362.78	4000	732.6	0.89
0.0012	362.78	5000	733.87	0.89
0.0012	362.78	6000	735.12	0.89
0.0012	362.78	7000	736.36	0.89
0.0012	362.78	8000	737.59	0.89
0.0012	362.78	9000	738.8	0.9
0.0012	362.78	10000	739.99	0.9
0.0012	362.78	11000	741.18	0.9
0.0012	362.78	12000	742.33	0.9
0.0012	362.78	13000	743.48	0.91
0.0012	362.78	14000	744.62	0.91
0.0012	362.78	15000	745.73	0.91
0.0012	362.78	16000	746.83	0.91
0.0012	362.78	17000	747.9	0.92
0.0012	362.78	18000	748.97	0.92
0.0012	362.78	19000	750.01	0.93
0.0012	362.78	20000	751.05	0.93
0.0074	313.1	1000	788.76	0.86
0.0074	313.1	2000	789.61	0.86
0.0074	313.1	3000	790.46	0.86
0.0074	313.1	4000	791.34	0.86
0.0074	313.1	5000	792.21	0.87
0.0074	313.1	6000	793.1	0.87
0.0074	313.1	7000	793.98	0.87
0.0074	313.1	8000	794.88	0.87
0.0074	313.1	9000	795.77	0.87
0.0074	313.1	10000	796.66	0.87
0.0074	313.1	11000	797.53	0.87
0.0074	313.1	12000	798.41	0.88
0.0074	313.1	13000	799.28	0.88
0.0074	313.1	14000	800.14	0.88
0.0074	313.1	15000	800.98	0.88
0.0074	313.1	16000	801.81	0.88
0.0074	313.1	17000	802.63	0.89
0.0074	313.1	18000	803.44	0.89
0.0074	313.1	19000	804.23	0.89
0.0074	313.1	20000	805	0.89
0.0074	323.04	1000	779.9	0.87
0.0074	323.04	2000	780.82	0.88
0.0074	323.04	3000	781.75	0.88
0.0074	323.04	4000	782.68	0.88
0.0074	323.04	5000	783.61	0.88
0.0074	323.04	6000	784.55	0.88
0.0074	323.04	7000	785.48	0.88
0.0074	323.04	8000	786.42	0.88
0.0074	323.04	9000	787.36	0.88
0.0074	323.04	10000	788.29	0.89
0.0074	323.04	11000	789.22	0.89
0.0074	323.04	12000	790.13	0.89
0.0074	323.04	13000	791.03	0.89
0.0074	323.04	14000	791.94	0.89
0.0074	323.04	15000	792.82	0.9
0.0074	323.04	16000	793.69	0.9
0.0074	323.04	17000	794.55	0.9
0.0074	323.04	18000	795.4	0.9
0.0074	323.04	19000	796.23	0.91
0.0074	323.04	20000	797.04	0.91
0.0074	332.93	1000	770.77	0.88
0.0074	332.93	2000	771.77	0.88
0.0074	332.93	3000	772.79	0.89
0.0074	332.93	4000	773.79	0.89
0.0074	332.93	5000	774.8	0.89
0.0074	332.93	6000	775.81	0.89
0.0074	332.93	7000	776.8	0.89
0.0074	332.93	8000	777.8	0.89
0.0074	332.93	9000	778.8	0.89
0.0074	332.93	10000	779.77	0.9
0.0074	332.93	11000	780.75	0.9
0.0074	332.93	12000	781.71	0.9
0.0074	332.93	13000	782.66	0.9
0.0074	332.93	14000	783.61	0.9
0.0074	332.93	15000	784.53	0.91
0.0074	332.93	16000	785.45	0.91
0.0074	332.93	17000	786.34	0.91
0.0074	332.93	18000	787.23	0.91
0.0074	332.93	19000	788.09	0.92
0.0074	332.93	20000	788.95	0.92
0.0074	342.92	1000	761.5	0.89
0.0074	342.92	2000	762.58	0.89
0.0074	342.92	3000	763.66	0.89
0.0074	342.92	4000	764.73	0.89
0.0074	342.92	5000	765.81	0.89
0.0074	342.92	6000	766.87	0.89
0.0074	342.92	7000	767.93	0.89
0.0074	342.92	8000	768.98	0.9
0.0074	342.92	9000	770.04	0.9
0.0074	342.92	10000	771.07	0.9
0.0074	342.92	11000	772.09	0.9
0.0074	342.92	12000	773.12	0.9
0.0074	342.92	13000	774.1	0.91
0.0074	342.92	14000	775.1	0.91
0.0074	342.92	15000	776.07	0.91
0.0074	342.92	16000	777.04	0.91
0.0074	342.92	17000	777.98	0.92
0.0074	342.92	18000	778.92	0.92
0.0074	342.92	19000	779.83	0.92
0.0074	342.92	20000	780.71	0.93
0.0074	352.88	1000	751.94	0.96
0.0074	352.88	2000	753.18	0.89
0.0074	352.88	3000	754.29	0.89
0.0074	352.88	4000	755.45	0.89
0.0074	352.88	5000	756.6	0.89
0.0074	352.88	6000	757.75	0.89
0.0074	352.88	7000	758.88	0.9
0.0074	352.88	8000	760.01	0.9
0.0074	352.88	9000	761.12	0.9
0.0074	352.88	10000	762.21	0.9
0.0074	352.88	11000	763.3	0.9
0.0074	352.88	12000	764.38	0.91
0.0074	352.88	13000	765.43	0.91
0.0074	352.88	14000	766.48	0.91
0.0074	352.88	15000	767.51	0.91
0.0074	352.88	16000	768.53	0.92
0.0074	352.88	17000	769.53	0.92
0.0074	352.88	18000	770.52	0.92
0.0074	352.88	19000	771.48	0.92
0.0074	352.88	20000	772.43	0.87
0.0074	362.87	1000	741.96	0.89
0.0074	362.87	2000	743.24	0.89
0.0074	362.87	3000	744.5	0.89
0.0074	362.87	4000	745.75	0.9
0.0074	362.87	5000	746.98	0.9
0.0074	362.87	6000	748.21	0.9
0.0074	362.87	7000	749.43	0.9
0.0074	362.87	8000	750.63	0.9
0.0074	362.87	9000	751.81	0.9
0.0074	362.87	10000	752.98	0.91
0.0074	362.87	11000	754.12	0.91
0.0074	362.87	12000	755.27	0.91
0.0074	362.87	13000	756.39	0.91
0.0074	362.87	14000	757.5	0.92
0.0074	362.87	15000	758.59	0.92
0.0074	362.87	16000	759.65	0.92
0.0074	362.87	17000	760.72	0.93
0.0074	362.87	18000	761.76	0.93
0.0074	362.87	19000	762.79	0.93
0.0074	362.87	20000	763.81	0.93
0.0136	313.13	1000	801.85	0.96
0.0136	313.13	2000	802.69	0.96
0.0136	313.13	3000	803.55	0.96
0.0136	313.13	4000	804.42	0.96
0.0136	313.13	5000	805.28	0.96
0.0136	313.13	6000	806.15	0.96
0.0136	313.13	7000	807.04	0.96
0.0136	313.13	8000	807.92	0.96
0.0136	313.13	9000	808.79	0.96
0.0136	313.13	10000	809.66	0.96
0.0136	313.13	11000	810.53	0.96
0.0136	313.13	12000	811.4	0.97
0.0136	313.13	13000	812.25	0.97
0.0136	313.13	14000	813.1	0.97
0.0136	313.13	15000	813.94	0.97
0.0136	313.13	16000	814.77	0.97
0.0136	313.13	17000	815.58	0.97
0.0136	313.13	18000	816.37	0.97
0.0136	313.13	19000	817.16	0.98
0.0136	313.13	20000	817.92	0.98
0.0136	323.11	1000	793.39	0.96
0.0136	323.11	2000	794.29	0.96
0.0136	323.11	3000	795.2	0.96
0.0136	323.11	4000	796.12	0.96
0.0136	323.11	5000	797.04	0.96
0.0136	323.11	6000	797.96	0.96
0.0136	323.11	7000	798.88	0.96
0.0136	323.11	8000	799.8	0.96
0.0136	323.11	9000	800.72	0.97
0.0136	323.11	10000	801.63	0.97
0.0136	323.11	11000	802.53	0.97
0.0136	323.11	12000	803.44	0.97
0.0136	323.11	13000	804.33	0.97
0.0136	323.11	14000	805.21	0.97
0.0136	323.11	15000	806.08	0.97
0.0136	323.11	16000	806.95	0.97
0.0136	323.11	17000	807.79	0.98
0.0136	323.11	18000	808.63	0.98
0.0136	323.11	19000	809.44	0.98
0.0136	323.11	20000	810.25	0.98
0.0136	333.04	1000	784.43	0.96
0.0136	333.04	2000	785.41	0.96
0.0136	333.04	3000	786.41	0.96
0.0136	333.04	4000	787.39	0.96
0.0136	333.04	5000	788.38	0.96
0.0136	333.04	6000	789.37	0.97
0.0136	333.04	7000	790.36	0.97
0.0136	333.04	8000	791.33	0.97
0.0136	333.04	9000	792.31	0.97
0.0136	333.04	10000	793.27	0.97
0.0136	333.04	11000	794.24	0.97
0.0136	333.04	12000	795.2	0.97
0.0136	333.04	13000	796.14	0.97
0.0136	333.04	14000	797.07	0.98
0.0136	333.04	15000	797.98	0.98
0.0136	333.04	16000	798.89	0.98
0.0136	333.04	17000	799.78	0.98
0.0136	333.04	18000	800.65	0.98
0.0136	333.04	19000	801.51	0.98
0.0136	333.04	20000	802.34	0.99
0.0136	343.02	1000	775.25	0.96
0.0136	343.02	2000	776.31	0.96
0.0136	343.02	3000	777.37	0.96
0.0136	343.02	4000	778.42	0.96
0.0136	343.02	5000	779.47	0.96
0.0136	343.02	6000	780.52	0.96
0.0136	343.02	7000	781.56	0.97
0.0136	343.02	8000	782.6	0.97
0.0136	343.02	9000	783.63	0.97
0.0136	343.02	10000	784.63	0.97
0.0136	343.02	11000	785.65	0.97
0.0136	343.02	12000	786.65	0.97
0.0136	343.02	13000	787.64	0.97
0.0136	343.02	14000	788.62	0.97
0.0136	343.02	15000	789.58	0.98
0.0136	343.02	16000	790.53	0.98
0.0136	343.02	17000	791.46	0.98
0.0136	343.02	18000	792.39	0.98
0.0136	343.02	19000	793.28	0.98
0.0136	343.02	20000	794.17	0.99
0.0136	352.81	1000	765.67	0.96
0.0136	352.81	2000	766.82	0.96
0.0136	352.81	3000	767.97	0.96
0.0136	352.81	4000	769.1	0.96
0.0136	352.81	5000	770.24	0.96
0.0136	352.81	6000	771.36	0.96
0.0136	352.81	7000	772.46	0.96
0.0136	352.81	8000	773.56	0.96
0.0136	352.81	9000	774.65	0.96
0.0136	352.81	10000	775.73	0.97
0.0136	352.81	11000	776.81	0.97
0.0136	352.81	12000	777.86	0.97
0.0136	352.81	13000	778.9	0.97
0.0136	352.81	14000	779.93	0.97
0.0136	352.81	15000	780.95	0.97
0.0136	352.81	16000	781.95	0.98
0.0136	352.81	17000	782.94	0.98
0.0136	352.81	18000	783.9	0.98
0.0136	352.81	19000	784.85	0.98
0.0136	352.81	20000	785.8	0.99
0.0136	362.77	1000	755.74	0.96
0.0136	362.77	2000	756.99	0.96
0.0136	362.77	3000	758.22	0.96
0.0136	362.77	4000	759.44	0.96
0.0136	362.77	5000	760.66	0.96
0.0136	362.77	6000	761.86	0.96
0.0136	362.77	7000	763.05	0.96
0.0136	362.77	8000	764.22	0.96
0.0136	362.77	9000	765.39	0.97
0.0136	362.77	10000	766.54	0.97
0.0136	362.77	11000	767.67	0.97
0.0136	362.77	12000	768.79	0.97
0.0136	362.77	13000	769.9	0.97
0.0136	362.77	14000	770.98	0.97
0.0136	362.77	15000	772.08	0.98
0.0136	362.77	16000	773.14	0.98
0.0136	362.77	17000	774.19	0.98
0.0136	362.77	18000	775.2	0.98
0.0136	362.77	19000	776.22	0.98
0.0136	362.77	20000	777.21	0.99
0.0196	313.01	1000	817.64	0.86
0.0196	313.01	2000	818.47	0.86
0.0196	313.01	3000	819.29	0.86
0.0196	313.01	4000	820.13	0.86
0.0196	313.01	5000	820.98	0.86
0.0196	313.01	6000	821.82	0.86
0.0196	313.01	7000	822.67	0.86
0.0196	313.01	8000	823.53	0.86
0.0196	313.01	9000	824.37	0.86
0.0196	313.01	10000	825.22	0.86
0.0196	313.01	11000	826.07	0.86
0.0196	313.01	12000	826.9	0.86
0.0196	313.01	13000	827.74	0.87
0.0196	313.01	14000	828.55	0.87
0.0196	313.01	15000	829.36	0.87
0.0196	313.01	16000	830.17	0.87
0.0196	313.01	17000	830.96	0.87
0.0196	313.01	18000	831.74	0.87
0.0196	313.01	19000	832.5	0.87
0.0196	313.01	20000	833.23	0.88
0.0196	323.04	1000	808.75	0.85
0.0196	323.04	2000	809.64	0.84
0.0196	323.04	3000	810.53	0.84
0.0196	323.04	4000	811.42	0.84
0.0196	323.04	5000	812.32	0.85
0.0196	323.04	6000	813.21	0.85
0.0196	323.04	7000	814.12	0.85
0.0196	323.04	8000	815.02	0.85
0.0196	323.04	9000	815.91	0.85
0.0196	323.04	10000	816.8	0.85
0.0196	323.04	11000	817.69	0.85
0.0196	323.04	12000	818.56	0.85
0.0196	323.04	13000	819.44	0.85
0.0196	323.04	14000	820.29	0.86
0.0196	323.04	15000	821.15	0.86
0.0196	323.04	16000	821.98	0.86
0.0196	323.04	17000	822.81	0.86
0.0196	323.04	18000	823.62	0.86
0.0196	323.04	19000	824.42	0.86
0.0196	323.04	20000	825.2	0.87
0.0196	332.95	1000	799.67	0.84
0.0196	332.95	2000	800.63	0.84
0.0196	332.95	3000	801.6	0.84
0.0196	332.95	4000	802.56	0.84
0.0196	332.95	5000	803.52	0.85
0.0196	332.95	6000	804.48	0.85
0.0196	332.95	7000	805.45	0.85
0.0196	332.95	8000	806.4	0.85
0.0196	332.95	9000	807.35	0.85
0.0196	332.95	10000	808.29	0.85
0.0196	332.95	11000	809.23	0.85
0.0196	332.95	12000	810.15	0.85
0.0196	332.95	13000	811.07	0.85
0.0196	332.95	14000	811.98	0.85
0.0196	332.95	15000	812.86	0.86
0.0196	332.95	16000	813.75	0.86
0.0196	332.95	17000	814.61	0.86
0.0196	332.95	18000	815.46	0.86
0.0196	332.95	19000	816.3	0.86
0.0196	332.95	20000	817.11	0.87
0.0196	342.9	1000	790.39	0.84
0.0196	342.9	2000	791.42	0.84
0.0196	342.9	3000	792.45	0.84
0.0196	342.9	4000	793.47	0.84
0.0196	342.9	5000	794.49	0.84
0.0196	342.9	6000	795.52	0.84
0.0196	342.9	7000	796.52	0.84
0.0196	342.9	8000	797.53	0.84
0.0196	342.9	9000	798.53	0.84
0.0196	342.9	10000	799.52	0.84
0.0196	342.9	11000	800.49	0.84
0.0196	342.9	12000	801.46	0.85
0.0196	342.9	13000	802.42	0.85
0.0196	342.9	14000	803.37	0.85
0.0196	342.9	15000	804.3	0.85
0.0196	342.9	16000	805.22	0.85
0.0196	342.9	17000	806.13	0.86
0.0196	342.9	18000	807.03	0.86
0.0196	342.9	19000	807.91	0.86
0.0196	342.9	20000	808.78	0.86
0.0196	352.79	1000	780.8	0.84
0.0196	352.79	2000	781.92	0.84
0.0196	352.79	3000	783.03	0.84
0.0196	352.79	4000	784.09	0.84
0.0196	352.79	5000	785.23	0.84
0.0196	352.79	6000	786.32	0.84
0.0196	352.79	7000	787.4	0.85
0.0196	352.79	8000	788.47	0.85
0.0196	352.79	9000	789.53	0.85
0.0196	352.79	10000	790.58	0.85
0.0196	352.79	11000	791.62	0.85
0.0196	352.79	12000	792.64	0.85
0.0196	352.79	13000	793.65	0.85
0.0196	352.79	14000	794.65	0.86
0.0196	352.79	15000	795.64	0.86
0.0196	352.79	16000	796.61	0.86
0.0196	352.79	17000	797.57	0.86
0.0196	352.79	18000	798.51	0.86
0.0196	352.79	19000	799.44	0.87
0.0196	352.79	20000	800.36	0.87
0.0196	362.76	1000	770.85	0.85
0.0196	362.76	2000	772.05	0.84
0.0196	362.76	3000	773.24	0.85
0.0196	362.76	4000	774.43	0.85
0.0196	362.76	5000	775.6	0.85
0.0196	362.76	6000	776.76	0.85
0.0196	362.76	7000	777.92	0.85
0.0196	362.76	8000	779.06	0.85
0.0196	362.76	9000	780.2	0.85
0.0196	362.76	10000	781.28	0.85
0.0196	362.76	11000	782.39	0.85
0.0196	362.76	12000	783.48	0.85
0.0196	362.76	13000	784.55	0.86
0.0196	362.76	14000	785.61	0.86
0.0196	362.76	15000	786.65	0.86
0.0196	362.76	16000	787.68	0.86
0.0196	362.76	17000	788.71	0.86
0.0196	362.76	18000	789.69	0.87
0.0196	362.76	19000	790.66	0.87
0.0196	362.76	20000	791.63	0.87
0.0267	313.09	1000	829.8	0.7
0.0267	313.09	2000	830.62	0.71
0.0267	313.09	3000	831.43	0.71
0.0267	313.09	4000	832.27	0.71
0.0267	313.09	5000	833.1	0.71
0.0267	313.09	6000	833.94	0.71
0.0267	313.09	7000	834.77	0.71
0.0267	313.09	8000	835.61	0.71
0.0267	313.09	9000	836.46	0.71
0.0267	313.09	10000	837.26	0.72
0.0267	313.09	11000	838.09	0.72
0.0267	313.09	12000	838.91	0.72
0.0267	313.09	13000	839.73	0.72
0.0267	313.09	14000	840.53	0.72
0.0267	313.09	15000	841.33	0.72
0.0267	313.09	16000	842.12	0.72
0.0267	313.09	17000	842.89	0.73
0.0267	313.09	18000	843.66	0.73
0.0267	313.09	19000	844.41	0.73
0.0267	313.09	20000	845.14	0.73
0.0267	323.05	1000	820.88	0.7
0.0267	323.05	2000	821.74	0.7
0.0267	323.05	3000	822.62	0.7
0.0267	323.05	4000	823.5	0.7
0.0267	323.05	5000	824.37	0.7
0.0267	323.05	6000	825.26	0.71
0.0267	323.05	7000	826.15	0.71
0.0267	323.05	8000	827.02	0.71
0.0267	323.05	9000	827.89	0.71
0.0267	323.05	10000	828.78	0.71
0.0267	323.05	11000	829.64	0.71
0.0267	323.05	12000	830.5	0.71
0.0267	323.05	13000	831.36	0.72
0.0267	323.05	14000	832.21	0.72
0.0267	323.05	15000	833.04	0.72
0.0267	323.05	16000	833.87	0.72
0.0267	323.05	17000	834.68	0.72
0.0267	323.05	18000	835.48	0.73
0.0267	323.05	19000	836.27	0.73
0.0267	323.05	20000	837.04	0.73
0.0267	333	1000	811.86	0.7
0.0267	333	2000	812.8	0.7
0.0267	333	3000	813.76	0.7
0.0267	333	4000	814.69	0.71
0.0267	333	5000	815.65	0.71
0.0267	333	6000	816.59	0.71
0.0267	333	7000	817.53	0.71
0.0267	333	8000	818.45	0.71
0.0267	333	9000	819.38	0.71
0.0267	333	10000	820.29	0.71
0.0267	333	11000	821.22	0.71
0.0267	333	12000	822.11	0.72
0.0267	333	13000	823.01	0.72
0.0267	333	14000	823.9	0.72
0.0267	333	15000	824.77	0.72
0.0267	333	16000	825.63	0.72
0.0267	333	17000	826.48	0.73
0.0267	333	18000	827.32	0.73
0.0267	333	19000	828.13	0.73
0.0267	333	20000	828.94	0.73
0.0267	342.88	1000	802.49	0.7
0.0267	342.88	2000	803.51	0.7
0.0267	342.88	3000	804.51	0.7
0.0267	342.88	4000	805.52	0.7
0.0267	342.88	5000	806.51	0.7
0.0267	342.88	6000	807.51	0.7
0.0267	342.88	7000	808.51	0.71
0.0267	342.88	8000	809.49	0.71
0.0267	342.88	9000	810.47	0.71
0.0267	342.88	10000	811.43	0.71
0.0267	342.88	11000	812.4	0.71
0.0267	342.88	12000	813.36	0.72
0.0267	342.88	13000	814.3	0.72
0.0267	342.88	14000	815.22	0.72
0.0267	342.88	15000	816.14	0.72
0.0267	342.88	16000	817.05	0.73
0.0267	342.88	17000	817.95	0.73
0.0267	342.88	18000	818.81	0.73
0.0267	342.88	19000	819.68	0.73
0.0267	342.88	20000	820.53	0.74
0.0267	352.82	1000	792.92	0.7
0.0267	352.82	2000	794.02	0.7
0.0267	352.82	3000	795.11	0.7
0.0267	352.82	4000	796.19	0.71
0.0267	352.82	5000	797.27	0.71
0.0267	352.82	6000	798.34	0.71
0.0267	352.82	7000	799.39	0.71
0.0267	352.82	8000	800.44	0.71
0.0267	352.82	9000	801.49	0.71
0.0267	352.82	10000	802.51	0.71
0.0267	352.82	11000	803.53	0.72
0.0267	352.82	12000	804.54	0.72
0.0267	352.82	13000	805.54	0.72
0.0267	352.82	14000	806.51	0.72
0.0267	352.82	15000	807.49	0.73
0.0267	352.82	16000	808.44	0.73
0.0267	352.82	17000	809.38	0.73
0.0267	352.82	18000	810.32	0.73
0.0267	352.82	19000	811.24	0.74
0.0267	352.82	20000	812.14	0.74
0.0267	362.77	1000	783.02	0.71
0.0267	362.77	2000	784.19	0.71
0.0267	362.77	3000	785.37	0.71
0.0267	362.77	4000	786.53	0.71
0.0267	362.77	5000	787.67	0.71
0.0267	362.77	6000	788.81	0.71
0.0267	362.77	7000	789.94	0.72
0.0267	362.77	8000	791.05	0.72
0.0267	362.77	9000	792.16	0.72
0.0267	362.77	10000	793.25	0.72
0.0267	362.77	11000	794.34	0.72
0.0267	362.77	12000	795.38	0.73
0.0267	362.77	13000	796.43	0.73
0.0267	362.77	14000	797.48	0.73
0.0267	362.77	15000	798.5	0.73
0.0267	362.77	16000	799.5	0.74
0.0267	362.77	17000	800.5	0.74
0.0267	362.77	18000	801.48	0.74
0.0267	362.77	19000	802.44	0.74
0.0267	362.77	20000	803.41	0.75
