Measured thermophysical data. Thermophysical and optical studies of molecular interactions in binary mixtures of diethyl carbonate with aromatic compounds at temperatures from 298.15 to 323.15 K
Source: J. Chem. Thermodyn., 2016, 10.1016/j.jct.2016.08.001
Compound 1: diethyl carbonate, C5H10O3, InChI=1S/C5H10O3/c1-3-7-5(6)8-4-2/h3-4H2,1-2H3, purity 99%
Compound 2: aniline, C6H7N, InChI=1S/C6H7N/c7-6-4-2-1-3-5-6/h1-5H,7H2, purity 99%
Compound 3: benzonitrile, C7H5N, InChI=1S/C7H5N/c8-6-7-4-2-1-3-5-7/h1-5H, purity 99%
Compound 4: benzaldehyde, C7H6O, InChI=1S/C7H6O/c8-6-7-4-2-1-3-5-7/h1-6H, purity 99%

System: diethyl carbonate; phases: Liquid
Fixed: Pressure, kPa = 100
Property: Mass density, kg/m3 (Liquid); method: Vibrating tube method
Temperature, K	Mass density, kg/m3	uncertainty
298.15	969.1	1
303.15	963.5	1
308.15	957.8	1
313.15	952.1	1
318.15	946.4	1
323.15	940.7	1

System: diethyl carbonate; phases: Liquid
Fixed: Pressure, kPa = 100
Fixed: Frequency, MHz = 3
Property: Speed of sound, m/s (Liquid); method: Sing-around technique in a fixed-path interferometer
Temperature, K	Speed of sound, m/s	uncertainty
298.15	1177.5	1.6
303.15	1156.9	1.6
308.15	1136.6	1.5
313.15	1116.5	1.5
318.15	1096.5	1.5
323.15	1076.7	1.5

System: diethyl carbonate; phases: Liquid
Fixed: Pressure, kPa = 100
Property: Refractive index (Na D-line) (Liquid); method: Standard Abbe refractometry
Temperature, K	Refractive index (Na D-line)	uncertainty
298.15	1.3825	0.0016
303.15	1.3802	0.0016
308.15	1.3779	0.0016
313.15	1.3756	0.0016
318.15	1.3733	0.0016
323.15	1.371	0.0016

System: aniline; phases: Liquid
Fixed: Pressure, kPa = 100
Property: Mass density, kg/m3 (Liquid); method: Vibrating tube method
Temperature, K	Mass density, kg/m3	uncertainty
298.15	1017.1	1
303.15	1012.7	1
308.15	1008.4	1
313.15	1004.1	1
318.15	999.7	1
323.15	995.4	1

System: aniline; phases: Liquid
Fixed: Pressure, kPa = 100
Fixed: Frequency, MHz = 3
Property: Speed of sound, m/s (Liquid); method: Sing-around technique in a fixed-path interferometer
Temperature, K	Speed of sound, m/s	uncertainty
298.15	1636.8	1.5
303.15	1617.5	1.5
308.15	1598.3	1.5
313.15	1579.1	1.5
318.15	1560	1.5
323.15	1540.9	1.5

System: aniline; phases: Liquid
Fixed: Pressure, kPa = 100
Property: Refractive index (Na D-line) (Liquid); method: Standard Abbe refractometry
Temperature, K	Refractive index (Na D-line)	uncertainty
298.15	1.5826	0.0016
303.15	1.5793	0.0016
308.15	1.576	0.0016
313.15	1.5727	0.0016
318.15	1.5694	0.0016
323.15	1.5661	0.0016

System: benzonitrile; phases: Liquid
Fixed: Pressure, kPa = 100
Property: Mass density, kg/m3 (Liquid); method: Vibrating tube method
Temperature, K	Mass density, kg/m3	uncertainty
298.15	1000.6	1
303.15	995.9	1
308.15	991.4	1
313.15	986.9	1
318.15	982.5	1
323.15	977.9	1

System: benzonitrile; phases: Liquid
Fixed: Pressure, kPa = 100
Fixed: Frequency, MHz = 3
Property: Speed of sound, m/s (Liquid); method: Sing-around technique in a fixed-path interferometer
Temperature, K	Speed of sound, m/s	uncertainty
298.15	1415.6	1.5
303.15	1398.1	1.5
308.15	1380.8	1.5
313.15	1363.6	1.5
318.15	1346.5	1.5
323.15	1329.5	1.5

System: benzonitrile; phases: Liquid
Fixed: Pressure, kPa = 100
Property: Refractive index (Na D-line) (Liquid); method: Standard Abbe refractometry
Temperature, K	Refractive index (Na D-line)	uncertainty
298.15	1.526	0.0016
303.15	1.5235	0.0016
308.15	1.5209	0.0016
313.15	1.5184	0.0016
318.15	1.5158	0.0016
323.15	1.5133	0.0016

System: benzaldehyde; phases: Liquid
Fixed: Pressure, kPa = 100
Property: Mass density, kg/m3 (Liquid); method: Vibrating tube method
Temperature, K	Mass density, kg/m3	uncertainty
298.15	1041	1
303.15	1036.5	1
308.15	1032	1
313.15	1027.5	1
318.15	1023	1
323.15	1018.4	1

System: benzaldehyde; phases: Liquid
Fixed: Pressure, kPa = 100
Fixed: Frequency, MHz = 3
Property: Speed of sound, m/s (Liquid); method: Sing-around technique in a fixed-path interferometer
Temperature, K	Speed of sound, m/s	uncertainty
298.15	1457.3	1.6
303.15	1438.9	1.6
308.15	1420.6	1.6
313.15	1402.4	1.6
318.15	1384.4	1.6
323.15	1366.4	1.6

System: benzaldehyde; phases: Liquid
Fixed: Pressure, kPa = 100
Property: Refractive index (Na D-line) (Liquid); method: Standard Abbe refractometry
Temperature, K	Refractive index (Na D-line)	uncertainty
298.15	1.541	0.0016
303.15	1.5383	0.0016
308.15	1.5357	0.0016
313.15	1.5332	0.0016
318.15	1.5307	0.0016
323.15	1.5282	0.0016

System: aniline + diethyl carbonate; phases: Liquid
Fixed: Pressure, kPa = 100
Property: Mass density, kg/m3 (Liquid); method: Vibrating tube method
Temperature, K	Mole fraction of diethyl carbonate	Mass density, kg/m3	uncertainty
298.15	0	1017.1	1
298.15	0.073	1014.2	1
298.15	0.1652	1010.2	1
298.15	0.2537	1006.4	1
298.15	0.3387	1002.6	1
298.15	0.4432	998	1
298.15	0.5468	993	1
298.15	0.6546	987.7	1
298.15	0.7559	982.5	1
298.15	0.884	975.9	1
298.15	1	969.1	1
303.15	0	1012.7	1
303.15	0.073	1009.8	1
303.15	0.1652	1005.7	1
303.15	0.2537	1001.8	1
303.15	0.3387	997.9	1
303.15	0.4432	993.2	1
303.15	0.5468	988.1	1
303.15	0.6546	982.6	1
303.15	0.7559	977.3	1
303.15	0.884	970.5	1
303.15	1	963.5	1
308.15	0	1008.4	1
308.15	0.073	1005.4	1
308.15	0.1652	1001.2	1
308.15	0.2537	997.1	1
308.15	0.3387	993.2	1
308.15	0.4432	988.3	1
308.15	0.5468	983.1	1
308.15	0.6546	977.5	1
308.15	0.7559	972	1
308.15	0.884	965.1	1
308.15	1	957.8	1
313.15	0	1004.1	1
313.15	0.073	1001	1
313.15	0.1652	996.6	1
313.15	0.2537	992.5	1
313.15	0.3387	988.5	1
313.15	0.4432	983.5	1
313.15	0.5468	978.1	1
313.15	0.6546	972.4	1
313.15	0.7559	966.8	1
313.15	0.884	959.8	1
313.15	1	952.1	1
318.15	0	999.7	1
318.15	0.073	996.5	1
318.15	0.1652	992.1	1
318.15	0.2537	987.9	1
318.15	0.3387	983.7	1
318.15	0.4432	978.6	1
318.15	0.5468	973.1	1
318.15	0.6546	967.2	1
318.15	0.7559	961.4	1
318.15	0.884	954.3	1
318.15	1	946.4	1
323.15	0	995.4	1
323.15	0.073	992.1	1
323.15	0.1652	987.6	1
323.15	0.2537	983.2	1
323.15	0.3387	979	1
323.15	0.4432	973.7	1
323.15	0.5468	968.1	1
323.15	0.6546	962	1
323.15	0.7559	956.1	1
323.15	0.884	948.8	1
323.15	1	940.7	1

System: aniline + diethyl carbonate; phases: Liquid
Fixed: Pressure, kPa = 100
Fixed: Frequency, MHz = 3
Property: Speed of sound, m/s (Liquid); method: Sing-around technique in a fixed-path interferometer
Temperature, K	Mole fraction of diethyl carbonate	Speed of sound, m/s	uncertainty
298.15	0	1636.8	1.5
298.15	0.073	1594.4	1.5
298.15	0.1652	1543.3	1.5
298.15	0.2537	1497.7	1.5
298.15	0.3387	1455.9	1.5
298.15	0.4432	1407.9	1.5
298.15	0.5468	1361.3	1.5
298.15	0.6546	1316	1.5
298.15	0.7559	1274.2	1.5
298.15	0.884	1222.6	1.5
298.15	1	1177.5	1.6
303.15	0	1617.5	1.5
303.15	0.073	1575.1	1.5
303.15	0.1652	1523.9	1.5
303.15	0.2537	1478.3	1.5
303.15	0.3387	1436.4	1.5
303.15	0.4432	1388.2	1.5
303.15	0.5468	1341.5	1.5
303.15	0.6546	1296	1.5
303.15	0.7559	1254.1	1.5
303.15	0.884	1202.3	1.5
303.15	1	1156.9	1.6
308.15	0	1598.3	1.5
308.15	0.073	1555.8	1.5
308.15	0.1652	1504.6	1.5
308.15	0.2537	1458.5	1.5
308.15	0.3387	1416.8	1.5
308.15	0.4432	1368.5	1.5
308.15	0.5468	1321.7	1.5
308.15	0.6546	1276	1.5
308.15	0.7559	1234.1	1.5
308.15	0.884	1182.1	1.5
308.15	1	1136.6	1.5
313.15	0	1579.1	1.5
313.15	0.073	1536.6	1.5
313.15	0.1652	1485.3	1.5
313.15	0.2537	1439.1	1.5
313.15	0.3387	1397.4	1.5
313.15	0.4432	1349	1.5
313.15	0.5468	1302	1.5
313.15	0.6546	1256.3	1.5
313.15	0.7559	1214.2	1.5
313.15	0.884	1162.1	1.5
313.15	1	1116.5	1.5
318.15	0	1560	1.5
318.15	0.073	1517.6	1.5
318.15	0.1652	1466	1.5
318.15	0.2537	1419.8	1.5
318.15	0.3387	1378	1.5
318.15	0.4432	1329.5	1.5
318.15	0.5468	1282.5	1.5
318.15	0.6546	1236.6	1.5
318.15	0.7559	1194.5	1.5
318.15	0.884	1142.2	1.5
318.15	1	1096.5	1.5
323.15	0	1540.9	1.5
323.15	0.073	1498.2	1.5
323.15	0.1652	1446.8	1.5
323.15	0.2537	1400.5	1.5
323.15	0.3387	1358.7	1.5
323.15	0.4432	1310.1	1.5
323.15	0.5468	1263	1.5
323.15	0.6546	1217.1	1.5
323.15	0.7559	1174.9	1.5
323.15	0.884	1122.5	1.5
323.15	1	1076.7	1.5

System: aniline + diethyl carbonate; phases: Liquid
Fixed: Pressure, kPa = 100
Property: Refractive index (Na D-line) (Liquid); method: Standard Abbe refractometry
Temperature, K	Mole fraction of diethyl carbonate	Refractive index (Na D-line)	uncertainty
298.15	0	1.5826	0.0016
298.15	0.073	1.5649	0.0016
298.15	0.1652	1.5435	0.0016
298.15	0.2537	1.5237	0.0016
298.15	0.3387	1.5053	0.0016
298.15	0.4432	1.4835	0.0016
298.15	0.5468	1.4626	0.0016
298.15	0.6546	1.4419	0.0016
298.15	0.7559	1.4235	0.0016
298.15	0.884	1.4016	0.0016
298.15	1	1.3825	0.0016
303.15	0	1.5793	0.0016
303.15	0.073	1.562	0.0016
303.15	0.1652	1.5408	0.0016
303.15	0.2537	1.5212	0.0016
303.15	0.3387	1.5029	0.0016
303.15	0.4432	1.4813	0.0016
303.15	0.5468	1.4606	0.0016
303.15	0.6546	1.4401	0.0016
303.15	0.7559	1.4216	0.0016
303.15	0.884	1.3995	0.0016
303.15	1	1.3802	0.0016
308.15	0	1.576	0.0016
308.15	0.073	1.559	0.0016
308.15	0.1652	1.538	0.0016
308.15	0.2537	1.5187	0.0016
308.15	0.3387	1.5006	0.0016
308.15	0.4432	1.4791	0.0016
308.15	0.5468	1.4586	0.0016
308.15	0.6546	1.4381	0.0016
308.15	0.7559	1.4196	0.0016
308.15	0.884	1.3974	0.0016
308.15	1	1.3779	0.0016
313.15	0	1.5727	0.0016
313.15	0.073	1.556	0.0016
313.15	0.1652	1.5354	0.0016
313.15	0.2537	1.5162	0.0016
313.15	0.3387	1.4983	0.0016
313.15	0.4432	1.477	0.0016
313.15	0.5468	1.4566	0.0016
313.15	0.6546	1.4362	0.0016
313.15	0.7559	1.4176	0.0016
313.15	0.884	1.3954	0.0016
313.15	1	1.3756	0.0016
318.15	0	1.5694	0.0016
318.15	0.073	1.5531	0.0016
318.15	0.1652	1.5327	0.0016
318.15	0.2537	1.5137	0.0016
318.15	0.3387	1.496	0.0016
318.15	0.4432	1.4749	0.0016
318.15	0.5468	1.4545	0.0016
318.15	0.6546	1.4343	0.0016
318.15	0.7559	1.4156	0.0016
318.15	0.884	1.3933	0.0016
318.15	1	1.3733	0.0016
323.15	0	1.5661	0.0016
323.15	0.073	1.5501	0.0016
323.15	0.1652	1.5302	0.0016
323.15	0.2537	1.5113	0.0016
323.15	0.3387	1.4937	0.0016
323.15	0.4432	1.4728	0.0016
323.15	0.5468	1.4525	0.0016
323.15	0.6546	1.4323	0.0016
323.15	0.7559	1.4138	0.0016
323.15	0.884	1.3913	0.0016
323.15	1	1.371	0.0016

System: benzonitrile + diethyl carbonate; phases: Liquid
Fixed: Pressure, kPa = 100
Property: Mass density, kg/m3 (Liquid); method: Vibrating tube method
Temperature, K	Mole fraction of diethyl carbonate	Mass density, kg/m3	uncertainty
298.15	0	1000.6	1
298.15	0.0854	998.8	1
298.15	0.1886	996.7	1
298.15	0.2618	994.9	1
298.15	0.3642	992.1	1
298.15	0.462	989.3	1
298.15	0.5563	986.3	1
298.15	0.6599	982.7	1
298.15	0.7732	978.5	1
298.15	0.8703	974.6	1
298.15	1	969.1	1
303.15	0	995.9	1
303.15	0.0854	994	1
303.15	0.1886	991.9	1
303.15	0.2618	990	1
303.15	0.3642	987.2	1
303.15	0.462	984.3	1
303.15	0.5563	981.2	1
303.15	0.6599	977.5	1
303.15	0.7732	973.2	1
303.15	0.8703	969.2	1
303.15	1	963.5	1
308.15	0	991.4	1
308.15	0.0854	989.5	1
308.15	0.1886	987.2	1
308.15	0.2618	985.3	1
308.15	0.3642	982.3	1
308.15	0.462	979.3	1
308.15	0.5563	976.1	1
308.15	0.6599	972.3	1
308.15	0.7732	967.8	1
308.15	0.8703	963.7	1
308.15	1	957.8	1
313.15	0	986.9	1
313.15	0.0854	984.9	1
313.15	0.1886	982.5	1
313.15	0.2618	980.5	1
313.15	0.3642	977.4	1
313.15	0.462	974.2	1
313.15	0.5563	970.9	1
313.15	0.6599	967	1
313.15	0.7732	962.4	1
313.15	0.8703	958.2	1
313.15	1	952.1	1
318.15	0	982.5	1
318.15	0.0854	980.4	1
318.15	0.1886	977.9	1
318.15	0.2618	975.8	1
318.15	0.3642	972.5	1
318.15	0.462	969.2	1
318.15	0.5563	965.8	1
318.15	0.6599	961.7	1
318.15	0.7732	956.9	1
318.15	0.8703	952.7	1
318.15	1	946.4	1
323.15	0	977.9	1
323.15	0.0854	975.8	1
323.15	0.1886	973.2	1
323.15	0.2618	971	1
323.15	0.3642	967.6	1
323.15	0.462	964.2	1
323.15	0.5563	960.6	1
323.15	0.6599	956.5	1
323.15	0.7732	951.5	1
323.15	0.8703	947.1	1
323.15	1	940.7	1

System: benzonitrile + diethyl carbonate; phases: Liquid
Fixed: Pressure, kPa = 100
Fixed: Frequency, MHz = 3
Property: Speed of sound, m/s (Liquid); method: Sing-around technique in a fixed-path interferometer
Temperature, K	Mole fraction of diethyl carbonate	Speed of sound, m/s	uncertainty
298.15	0	1415.6	1.5
298.15	0.0854	1396.3	1.5
298.15	0.1886	1373.1	1.5
298.15	0.2618	1356.1	1.5
298.15	0.3642	1331.9	1.5
298.15	0.462	1308.6	1.5
298.15	0.5563	1286.1	1.5
298.15	0.6599	1261	1.5
298.15	0.7732	1233.3	1.5
298.15	0.8703	1209.4	1.6
298.15	1	1177.5	1.6
303.15	0	1398.1	1.5
303.15	0.0854	1378.5	1.5
303.15	0.1886	1354.8	1.5
303.15	0.2618	1337.7	1.5
303.15	0.3642	1313.1	1.5
303.15	0.462	1289.5	1.5
303.15	0.5563	1266.7	1.5
303.15	0.6599	1241.3	1.5
303.15	0.7732	1213.3	1.5
303.15	0.8703	1189.2	1.5
303.15	1	1156.9	1.6
308.15	0	1380.8	1.5
308.15	0.0854	1360.8	1.5
308.15	0.1886	1336.7	1.5
308.15	0.2618	1319.3	1.5
308.15	0.3642	1294.4	1.5
308.15	0.462	1270.6	1.5
308.15	0.5563	1247.4	1.5
308.15	0.6599	1221.8	1.5
308.15	0.7732	1193.5	1.5
308.15	0.8703	1169.1	1.5
308.15	1	1136.6	1.5
313.15	0	1363.6	1.5
313.15	0.0854	1343.2	1.5
313.15	0.1886	1318.7	1.5
313.15	0.2618	1301	1.5
313.15	0.3642	1275.9	1.5
313.15	0.462	1251.8	1.5
313.15	0.5563	1228.3	1.5
313.15	0.6599	1202.4	1.5
313.15	0.7732	1173.8	1.5
313.15	0.8703	1149.2	1.5
313.15	1	1116.5	1.5
318.15	0	1346.5	1.5
318.15	0.0854	1325.7	1.5
318.15	0.1886	1300.8	1.5
318.15	0.2618	1282.9	1.5
318.15	0.3642	1257.4	1.5
318.15	0.462	1233	1.5
318.15	0.5563	1209.3	1.5
318.15	0.6599	1183.2	1.5
318.15	0.7732	1154.3	1.5
318.15	0.8703	1129.5	1.5
318.15	1	1096.5	1.5
323.15	0	1329.5	1.5
323.15	0.0854	1308.3	1.5
323.15	0.1886	1282.9	1.5
323.15	0.2618	1264.9	1.5
323.15	0.3642	1239.3	1.5
323.15	0.462	1214.5	1.5
323.15	0.5563	1190.6	1.5
323.15	0.6599	1164.1	1.5
323.15	0.7732	1135	1.5
323.15	0.8703	1110	1.5
323.15	1	1076.7	1.5

System: benzonitrile + diethyl carbonate; phases: Liquid
Fixed: Pressure, kPa = 100
Property: Refractive index (Na D-line) (Liquid); method: Standard Abbe refractometry
Temperature, K	Mole fraction of diethyl carbonate	Refractive index (Na D-line)	uncertainty
298.15	0	1.526	0.0016
298.15	0.0854	1.5123	0.0016
298.15	0.1886	1.4963	0.0016
298.15	0.2618	1.4851	0.0016
298.15	0.3642	1.4698	0.0016
298.15	0.462	1.4556	0.0016
298.15	0.5563	1.442	0.0016
298.15	0.6599	1.4275	0.0016
298.15	0.7732	1.412	0.0016
298.15	0.8703	1.3991	0.0016
298.15	1	1.3825	0.0016
303.15	0	1.5235	0.0016
303.15	0.0854	1.5098	0.0016
303.15	0.1886	1.494	0.0016
303.15	0.2618	1.4828	0.0016
303.15	0.3642	1.4676	0.0016
303.15	0.462	1.4533	0.0016
303.15	0.5563	1.4398	0.0016
303.15	0.6599	1.4253	0.0016
303.15	0.7732	1.4098	0.0016
303.15	0.8703	1.3969	0.0016
303.15	1	1.3802	0.0016
308.15	0	1.5209	0.0016
308.15	0.0854	1.5074	0.0016
308.15	0.1886	1.4916	0.0016
308.15	0.2618	1.4806	0.0016
308.15	0.3642	1.4653	0.0016
308.15	0.462	1.4511	0.0016
308.15	0.5563	1.4376	0.0016
308.15	0.6599	1.4231	0.0016
308.15	0.7732	1.4076	0.0016
308.15	0.8703	1.3946	0.0016
308.15	1	1.3779	0.0016
313.15	0	1.5184	0.0016
313.15	0.0854	1.505	0.0016
313.15	0.1886	1.4893	0.0016
313.15	0.2618	1.4783	0.0016
313.15	0.3642	1.4631	0.0016
313.15	0.462	1.4489	0.0016
313.15	0.5563	1.4353	0.0016
313.15	0.6599	1.4208	0.0016
313.15	0.7732	1.4054	0.0016
313.15	0.8703	1.3924	0.0016
313.15	1	1.3756	0.0016
318.15	0	1.5158	0.0016
318.15	0.0854	1.5025	0.0016
318.15	0.1886	1.487	0.0016
318.15	0.2618	1.4761	0.0016
318.15	0.3642	1.4609	0.0016
318.15	0.462	1.4466	0.0016
318.15	0.5563	1.4332	0.0016
318.15	0.6599	1.4187	0.0016
318.15	0.7732	1.4032	0.0016
318.15	0.8703	1.3902	0.0016
318.15	1	1.3733	0.0016
323.15	0	1.5133	0.0016
323.15	0.0854	1.5002	0.0016
323.15	0.1886	1.4848	0.0016
323.15	0.2618	1.4739	0.0016
323.15	0.3642	1.4587	0.0016
323.15	0.462	1.4445	0.0016
323.15	0.5563	1.431	0.0016
323.15	0.6599	1.4165	0.0016
323.15	0.7732	1.401	0.0016
323.15	0.8703	1.3881	0.0016
323.15	1	1.371	0.0016

System: benzaldehyde + diethyl carbonate; phases: Liquid
Fixed: Pressure, kPa = 100
Property: Mass density, kg/m3 (Liquid); method: Vibrating tube method
Temperature, K	Mole fraction of diethyl carbonate	Mass density, kg/m3	uncertainty
298.15	0	1041	1
298.15	0.0933	1035	1
298.15	0.1658	1030.2	1
298.15	0.267	1023.4	1
298.15	0.36	1016.9	1
298.15	0.4554	1010.4	1
298.15	0.5605	1003	1
298.15	0.6547	996.2	1
298.15	0.7716	987.4	1
298.15	0.8473	981.4	1
298.15	1	969.1	1
303.15	0	1036.5	1
303.15	0.0933	1030.6	1
303.15	0.1658	1025.7	1
303.15	0.267	1018.7	1
303.15	0.36	1012.2	1
303.15	0.4554	1005.4	1
303.15	0.5605	997.9	1
303.15	0.6547	991	1
303.15	0.7716	982.1	1
303.15	0.8473	976	1
303.15	1	963.5	1
308.15	0	1032	1
308.15	0.0933	1026.2	1
308.15	0.1658	1021.2	1
308.15	0.267	1014.1	1
308.15	0.36	1007.4	1
308.15	0.4554	1000.6	1
308.15	0.5605	992.9	1
308.15	0.6547	985.8	1
308.15	0.7716	976.8	1
308.15	0.8473	970.7	1
308.15	1	957.8	1
313.15	0	1027.5	1
313.15	0.0933	1021.8	1
313.15	0.1658	1016.7	1
313.15	0.267	1009.5	1
313.15	0.36	1002.7	1
313.15	0.4554	995.6	1
313.15	0.5605	987.9	1
313.15	0.6547	980.7	1
313.15	0.7716	971.6	1
313.15	0.8473	965.4	1
313.15	1	952.1	1
318.15	0	1023	1
318.15	0.0933	1017.3	1
318.15	0.1658	1012.2	1
318.15	0.267	1004.9	1
318.15	0.36	997.9	1
318.15	0.4554	990.7	1
318.15	0.5605	982.8	1
318.15	0.6547	975.6	1
318.15	0.7716	966.4	1
318.15	0.8473	960.1	1
318.15	1	946.4	1
323.15	0	1018.4	1
323.15	0.0933	1012.8	1
323.15	0.1658	1007.7	1
323.15	0.267	1000.2	1
323.15	0.36	993.1	1
323.15	0.4554	985.8	1
323.15	0.5605	977.7	1
323.15	0.6547	970.4	1
323.15	0.7716	961.1	1
323.15	0.8473	954.8	1
323.15	1	940.7	1

System: benzaldehyde + diethyl carbonate; phases: Liquid
Fixed: Pressure, kPa = 100
Fixed: Frequency, MHz = 3
Property: Speed of sound, m/s (Liquid); method: Sing-around technique in a fixed-path interferometer
Temperature, K	Mole fraction of diethyl carbonate	Speed of sound, m/s	uncertainty
298.15	0	1457.3	1.6
298.15	0.0933	1430.7	1.6
298.15	0.1658	1409	1.6
298.15	0.267	1379.1	1.6
298.15	0.36	1352.5	1.6
298.15	0.4554	1325.4	1.6
298.15	0.5605	1296.3	1.6
298.15	0.6547	1269.8	1.6
298.15	0.7716	1238.2	1.6
298.15	0.8473	1217	1.6
298.15	1	1177.5	1.6
303.15	0	1438.9	1.6
303.15	0.0933	1412.1	1.6
303.15	0.1658	1389.9	1.6
303.15	0.267	1359.9	1.6
303.15	0.36	1333.1	1.6
303.15	0.4554	1305.8	1.6
303.15	0.5605	1276.5	1.6
303.15	0.6547	1249.9	1.6
303.15	0.7716	1218.1	1.6
303.15	0.8473	1196.8	1.6
303.15	1	1156.9	1.6
308.15	0	1420.6	1.6
308.15	0.0933	1393.5	1.6
308.15	0.1658	1371.1	1.6
308.15	0.267	1340.8	1.6
308.15	0.36	1313.8	1.6
308.15	0.4554	1286.3	1.6
308.15	0.5605	1256.9	1.6
308.15	0.6547	1230.1	1.6
308.15	0.7716	1198.1	1.6
308.15	0.8473	1176.7	1.6
308.15	1	1136.6	1.5
313.15	0	1402.4	1.6
313.15	0.0933	1375	1.6
313.15	0.1658	1352.4	1.6
313.15	0.267	1321.8	1.6
313.15	0.36	1294.6	1.6
313.15	0.4554	1267	1.6
313.15	0.5605	1237.4	1.6
313.15	0.6547	1210.4	1.6
313.15	0.7716	1178.3	1.6
313.15	0.8473	1156.8	1.6
313.15	1	1116.5	1.5
318.15	0	1384.4	1.6
318.15	0.0933	1356.6	1.6
318.15	0.1658	1333.8	1.6
318.15	0.267	1303.3	1.6
318.15	0.36	1275.8	1.6
318.15	0.4554	1248	1.6
318.15	0.5605	1218.3	1.6
318.15	0.6547	1191.5	1.6
318.15	0.7716	1159	1.6
318.15	0.8473	1137.3	1.5
318.15	1	1096.5	1.5
323.15	0	1366.4	1.6
323.15	0.0933	1339.3	1.6
323.15	0.1658	1316.3	1.6
323.15	0.267	1285.3	1.6
323.15	0.36	1257.7	1.6
323.15	0.4554	1229.8	1.6
323.15	0.5605	1199.9	1.6
323.15	0.6547	1173.1	1.6
323.15	0.7716	1140.6	1.6
323.15	0.8473	1118.8	1.5
323.15	1	1076.7	1.5

System: benzaldehyde + diethyl carbonate; phases: Liquid
Fixed: Pressure, kPa = 100
Property: Refractive index (Na D-line) (Liquid); method: Standard Abbe refractometry
Temperature, K	Mole fraction of diethyl carbonate	Refractive index (Na D-line)	uncertainty
298.15	0	1.541	0.0016
298.15	0.0933	1.5244	0.0016
298.15	0.1658	1.5118	0.0016
298.15	0.267	1.4947	0.0016
298.15	0.36	1.4794	0.0016
298.15	0.4554	1.4638	0.0016
298.15	0.5605	1.4472	0.0016
298.15	0.6547	1.4325	0.0016
298.15	0.7716	1.415	0.0016
298.15	0.8473	1.4039	0.0016
298.15	1	1.3825	0.0016
303.15	0	1.5383	0.0016
303.15	0.0933	1.522	0.0016
303.15	0.1658	1.5094	0.0016
303.15	0.267	1.4924	0.0016
303.15	0.36	1.4771	0.0016
303.15	0.4554	1.4616	0.0016
303.15	0.5605	1.445	0.0016
303.15	0.6547	1.4304	0.0016
303.15	0.7716	1.4129	0.0016
303.15	0.8473	1.4017	0.0016
303.15	1	1.3802	0.0016
308.15	0	1.5357	0.0016
308.15	0.0933	1.5195	0.0016
308.15	0.1658	1.5071	0.0016
308.15	0.267	1.4902	0.0016
308.15	0.36	1.475	0.0016
308.15	0.4554	1.4596	0.0016
308.15	0.5605	1.443	0.0016
308.15	0.6547	1.4283	0.0016
308.15	0.7716	1.4108	0.0016
308.15	0.8473	1.3995	0.0016
308.15	1	1.3779	0.0016
313.15	0	1.5332	0.0016
313.15	0.0933	1.5171	0.0016
313.15	0.1658	1.5048	0.0016
313.15	0.267	1.488	0.0016
313.15	0.36	1.4728	0.0016
313.15	0.4554	1.4574	0.0016
313.15	0.5605	1.4409	0.0016
313.15	0.6547	1.4262	0.0016
313.15	0.7716	1.4087	0.0016
313.15	0.8473	1.3973	0.0016
313.15	1	1.3756	0.0016
318.15	0	1.5307	0.0016
318.15	0.0933	1.515	0.0016
318.15	0.1658	1.5028	0.0016
318.15	0.267	1.486	0.0016
318.15	0.36	1.4708	0.0016
318.15	0.4554	1.4555	0.0016
318.15	0.5605	1.439	0.0016
318.15	0.6547	1.4242	0.0016
318.15	0.7716	1.4067	0.0016
318.15	0.8473	1.3952	0.0016
318.15	1	1.3733	0.0016
323.15	0	1.5282	0.0016
323.15	0.0933	1.5124	0.0016
323.15	0.1658	1.5003	0.0016
323.15	0.267	1.4836	0.0016
323.15	0.36	1.4685	0.0016
323.15	0.4554	1.4532	0.0016
323.15	0.5605	1.4368	0.0016
323.15	0.6547	1.4221	0.0016
323.15	0.7716	1.4046	0.0016
323.15	0.8473	1.3931	0.0016
323.15	1	1.371	0.0016
