Measured thermophysical data. (P,Vm,T) Measurements of (octane + 1-chlorohexane) at temperatures from 298.15 K to 328.15 K and at pressures up to 40 MPa
Source: J. Chem. Thermodyn., 2006, 10.1016/j.jct.2005.09.003
Compound 1: octane, C8H18, InChI=1S/C8H18/c1-3-5-7-8-6-4-2/h3-8H2,1-2H3, purity 99.5%
Compound 2: 1-chlorohexane, C6H13Cl, InChI=1S/C6H13Cl/c1-2-3-4-5-6-7/h2-6H2,1H3, purity 99%

System: octane; phases: Liquid
Property: Refractive index (Na D-line) (Liquid); method: Standard Abbe refractometry
Temperature, K	Pressure, kPa	Refractive index (Na D-line)	uncertainty
298.15	101.325	1.395	0.0004

System: octane; phases: Liquid
Property: Mass density, kg/m3 (Liquid); method: VIBTUB:UFactor:4
Temperature, K	Pressure, kPa	Mass density, kg/m3	uncertainty
298.15	100	698.64	0.61
298.15	2130	700.14	0.71
298.15	4150	701.87	0.8
298.15	6180	703.56	0.88
298.15	8210	705.17	0.97
298.15	10230	706.78	1.06
298.15	11250	707.58	1.1
298.15	12260	708.37	1.14
298.15	14290	709.9	1.23
298.15	16310	711.41	1.31
298.15	18340	712.9	1.39
298.15	20370	714.36	1.48
298.15	22390	715.78	1.56
298.15	24420	717.18	1.64
298.15	26450	718.56	1.72
298.15	28470	719.9	1.8
298.15	29490	720.57	1.84
298.15	30500	721.22	1.88
298.15	32530	722.53	1.96
298.15	34550	723.82	2.03
298.15	36580	725.06	2.11
298.15	38600	726.32	2.19
298.15	39620	726.94	2.23
308.15	100	690.43	0.63
308.15	2130	692.18	0.73
308.15	4150	694	0.82
308.15	6180	695.79	0.9
308.15	8210	697.53	0.99
308.15	10230	699.24	1.08
308.15	11250	700.07	1.12
308.15	12260	700.88	1.17
308.15	14290	702.55	1.25
308.15	16310	704.13	1.34
308.15	18340	705.71	1.42
308.15	20370	707.23	1.51
308.15	22390	708.76	1.59
308.15	24420	710.22	1.68
308.15	26450	711.66	1.76
308.15	28470	713.09	1.84
308.15	29490	713.77	1.88
308.15	30500	714.47	1.92
308.15	32530	715.84	2
308.15	34550	717.18	2.08
308.15	36580	718.5	2.16
308.15	38600	719.82	2.24
308.15	39620	720.45	2.28
318.15	100	682.47	0.65
318.15	2130	684.48	0.74
318.15	4150	686.45	0.83
318.15	6180	688.29	0.92
318.15	8210	690.17	1.02
318.15	10230	691.97	1.1
318.15	11250	692.85	1.15
318.15	12260	693.77	1.19
318.15	14290	695.49	1.28
318.15	16310	697.2	1.37
318.15	18340	698.86	1.46
318.15	20370	700.47	1.54
318.15	22390	702.07	1.63
318.15	24420	703.61	1.71
318.15	26450	705.13	1.8
318.15	28470	706.66	1.88
318.15	29490	707.38	1.92
318.15	30500	708.13	1.96
318.15	32530	709.54	2.04
318.15	34550	710.96	2.12
318.15	36580	712.33	2.2
318.15	38600	713.68	2.28
318.15	39620	714.38	2.32
328.15	100	674.53	0.66
328.15	2130	676.49	0.76
328.15	4150	678.56	0.85
328.15	6180	680.59	0.95
328.15	8210	682.57	1.04
328.15	10230	684.51	1.13
328.15	11250	685.44	1.17
328.15	12260	686.38	1.22
328.15	14290	688.23	1.31
328.15	16310	690.03	1.4
328.15	18340	691.76	1.49
328.15	20370	693.5	1.58
328.15	22390	695.17	1.66
328.15	24420	696.82	1.75
328.15	26450	698.41	1.83
328.15	28470	699.98	1.92
328.15	29490	700.75	1.96
328.15	30500	701.53	2
328.15	32530	703.01	2.09
328.15	34550	704.5	2.17
328.15	36580	705.96	2.25
328.15	38600	707.36	2.33
328.15	39620	708.06	2.37

System: 1-chlorohexane; phases: Liquid
Property: Refractive index (Na D-line) (Liquid); method: Standard Abbe refractometry
Temperature, K	Pressure, kPa	Refractive index (Na D-line)	uncertainty
298.15	101.325	1.4172	0.0004

System: 1-chlorohexane; phases: Liquid
Property: Mass density, kg/m3 (Liquid); method: VIBTUB:UFactor:4
Temperature, K	Pressure, kPa	Mass density, kg/m3	uncertainty
298.15	100	873.42	0.43
298.15	2130	874.73	0.46
298.15	4150	876.45	0.49
298.15	6180	878.31	0.51
298.15	8210	879.79	0.53
298.15	10230	881.44	0.56
298.15	11250	882.22	0.57
298.15	12260	883.01	0.59
298.15	14290	884.61	0.62
298.15	16310	886.16	0.64
298.15	18340	887.68	0.67
298.15	20370	889.18	0.69
298.15	22390	890.65	0.72
298.15	24420	892.14	0.74
298.15	26450	893.54	0.77
298.15	28470	894.96	0.79
298.15	29490	895.65	0.8
298.15	30500	896.32	0.81
298.15	32530	897.71	0.84
298.15	34550	899.05	0.86
298.15	36580	900.38	0.88
298.15	38600	901.69	0.9
298.15	39620	902.33	0.91
308.15	100	863.99	0.45
308.15	2130	865.56	0.48
308.15	4150	867.35	0.51
308.15	6180	869.15	0.53
308.15	8210	870.9	0.56
308.15	10230	872.61	0.59
308.15	11250	873.47	0.6
308.15	12260	874.3	0.62
308.15	14290	875.96	0.65
308.15	16310	877.59	0.68
308.15	18340	879.2	0.7
308.15	20370	880.78	0.73
308.15	22390	882.35	0.76
308.15	24420	883.86	0.79
308.15	26450	885.35	0.81
308.15	28470	886.84	0.84
308.15	29490	887.56	0.85
308.15	30500	888.21	0.86
308.15	32530	889.73	0.89
308.15	34550	891.14	0.91
308.15	36580	892.52	0.93
308.15	38600	893.9	0.96
308.15	39620	894.55	0.97
318.15	100	854.58	0.46
318.15	2130	856.27	0.49
318.15	4150	858.19	0.52
318.15	6180	860.06	0.55
318.15	8210	861.91	0.58
318.15	10230	863.73	0.61
318.15	11250	864.62	0.63
318.15	12260	865.5	0.65
318.15	14290	867.28	0.68
318.15	16310	869	0.71
318.15	18340	870.66	0.74
318.15	20370	872.33	0.77
318.15	22390	873.95	0.8
318.15	24420	875.54	0.83
318.15	26450	877.12	0.86
318.15	28470	878.67	0.89
318.15	29490	879.43	0.9
318.15	30500	880.19	0.91
318.15	32530	881.7	0.94
318.15	34550	883.17	0.96
318.15	36580	884.63	0.99
318.15	38600	886.04	1.01
318.15	39620	886.76	1.03
328.15	100	845.18	0.48
328.15	2130	847.12	0.51
328.15	4150	849.17	0.54
328.15	6180	851.16	0.57
328.15	8210	853.13	0.61
328.15	10230	855.02	0.64
328.15	11250	855.98	0.66
328.15	12260	856.91	0.68
328.15	14290	858.76	0.71
328.15	16310	860.59	0.74
328.15	18340	862.35	0.78
328.15	20370	864.12	0.81
328.15	22390	865.82	0.84
328.15	24420	867.51	0.87
328.15	26450	869.18	0.9
328.15	28470	870.8	0.93
328.15	29490	871.6	0.95
328.15	30500	872.4	0.96
328.15	32530	873.95	0.99
328.15	34550	875.49	1.02
328.15	36580	877.05	1.04
328.15	38600	878.53	1.07
328.15	39620	879.31	1.08

System: octane + 1-chlorohexane; phases: Liquid
Property: Mass density, kg/m3 (Liquid); method: VIBTUB:UFactor:4
Temperature, K	Pressure, kPa	Mole fraction of octane	Mass density, kg/m3	uncertainty
298.15	100	0	873.42	0.43
298.15	100	0.10158	852.6	0.44
298.15	100	0.19955	833.25	0.45
298.15	100	0.31533	811.26	0.47
298.15	100	0.39483	796.69	0.49
298.15	100	0.4862	780.47	0.5
298.15	100	0.59385	762.03	0.52
298.15	100	0.69659	745.09	0.55
298.15	100	0.79402	729.61	0.57
298.15	100	0.90012	713.36	0.59
298.15	100	1	698.64	0.61
298.15	2130	0	874.73	0.46
298.15	2130	0.10158	854.08	0.48
298.15	2130	0.19955	834.69	0.5
298.15	2130	0.31533	812.8	0.53
298.15	2130	0.39483	798.13	0.54
298.15	2130	0.4862	781.96	0.57
298.15	2130	0.59385	763.56	0.6
298.15	2130	0.69659	746.66	0.63
298.15	2130	0.79402	731.16	0.65
298.15	2130	0.90012	714.88	0.68
298.15	2130	1	700.14	0.71
298.15	4150	0	876.45	0.49
298.15	4150	0.10158	855.81	0.52
298.15	4150	0.19955	836.43	0.54
298.15	4150	0.31533	814.54	0.58
298.15	4150	0.39483	799.88	0.6
298.15	4150	0.4862	783.71	0.63
298.15	4150	0.59385	765.29	0.67
298.15	4150	0.69659	748.4	0.7
298.15	4150	0.79402	732.88	0.73
298.15	4150	0.90012	716.61	0.77
298.15	4150	1	701.87	0.8
298.15	6180	0	878.31	0.51
298.15	6180	0.10158	857.67	0.54
298.15	6180	0.19955	838.25	0.58
298.15	6180	0.31533	816.37	0.62
298.15	6180	0.39483	801.68	0.66
298.15	6180	0.4862	785.49	0.69
298.15	6180	0.59385	767.08	0.73
298.15	6180	0.69659	750.15	0.77
298.15	6180	0.79402	734.61	0.81
298.15	6180	0.90012	718.33	0.85
298.15	6180	1	703.56	0.88
298.15	8210	0	879.79	0.53
298.15	8210	0.10158	859.18	0.58
298.15	8210	0.19955	839.81	0.62
298.15	8210	0.31533	817.9	0.67
298.15	8210	0.39483	803.24	0.71
298.15	8210	0.4862	787.05	0.75
298.15	8210	0.59385	768.66	0.8
298.15	8210	0.69659	751.72	0.84
298.15	8210	0.79402	736.21	0.89
298.15	8210	0.90012	719.94	0.93
298.15	8210	1	705.17	0.97
298.15	10230	0	881.44	0.56
298.15	10230	0.10158	860.8	0.61
298.15	10230	0.19955	841.43	0.66
298.15	10230	0.31533	819.53	0.72
298.15	10230	0.39483	804.88	0.77
298.15	10230	0.4862	788.69	0.81
298.15	10230	0.59385	770.3	0.87
298.15	10230	0.69659	753.38	0.92
298.15	10230	0.79402	737.85	0.96
298.15	10230	0.90012	721.55	1.01
298.15	10230	1	706.78	1.06
298.15	11250	0	882.22	0.57
298.15	11250	0.10158	861.6	0.63
298.15	11250	0.19955	842.23	0.68
298.15	11250	0.31533	820.34	0.75
298.15	11250	0.39483	805.7	0.79
298.15	11250	0.4862	789.48	0.84
298.15	11250	0.59385	771.11	0.9
298.15	11250	0.69659	754.16	0.95
298.15	11250	0.79402	738.66	1
298.15	11250	0.90012	722.34	1.05
298.15	11250	1	707.58	1.1
298.15	12260	0	883.01	0.59
298.15	12260	0.10158	862.42	0.65
298.15	12260	0.19955	843.03	0.7
298.15	12260	0.31533	821.13	0.77
298.15	12260	0.39483	806.5	0.82
298.15	12260	0.4862	790.3	0.87
298.15	12260	0.59385	771.9	0.93
298.15	12260	0.69659	754.95	0.98
298.15	12260	0.79402	739.44	1.04
298.15	12260	0.90012	723.13	1.09
298.15	12260	1	708.37	1.14
298.15	14290	0	884.61	0.62
298.15	14290	0.10158	864.01	0.68
298.15	14290	0.19955	844.63	0.74
298.15	14290	0.31533	822.72	0.82
298.15	14290	0.39483	808.08	0.87
298.15	14290	0.4862	791.9	0.93
298.15	14290	0.59385	773.49	0.99
298.15	14290	0.69659	756.55	1.05
298.15	14290	0.79402	741	1.11
298.15	14290	0.90012	724.69	1.17
298.15	14290	1	709.9	1.23
298.15	16310	0	886.16	0.64
298.15	16310	0.10158	865.53	0.71
298.15	16310	0.19955	846.17	0.78
298.15	16310	0.31533	824.27	0.87
298.15	16310	0.39483	809.62	0.92
298.15	16310	0.4862	793.43	0.98
298.15	16310	0.59385	775.01	1.06
298.15	16310	0.69659	758.05	1.12
298.15	16310	0.79402	742.51	1.18
298.15	16310	0.90012	726.2	1.25
298.15	16310	1	711.41	1.31
298.15	18340	0	887.68	0.67
298.15	18340	0.10158	867.07	0.75
298.15	18340	0.19955	847.69	0.82
298.15	18340	0.31533	825.8	0.91
298.15	18340	0.39483	811.15	0.97
298.15	18340	0.4862	794.94	1.04
298.15	18340	0.59385	776.55	1.12
298.15	18340	0.69659	759.59	1.19
298.15	18340	0.79402	744.03	1.26
298.15	18340	0.90012	727.69	1.33
298.15	18340	1	712.9	1.39
298.15	20370	0	889.18	0.69
298.15	20370	0.10158	868.58	0.78
298.15	20370	0.19955	849.18	0.86
298.15	20370	0.31533	827.29	0.96
298.15	20370	0.39483	812.64	1.02
298.15	20370	0.4862	796.42	1.1
298.15	20370	0.59385	778.03	1.18
298.15	20370	0.69659	761.06	1.26
298.15	20370	0.79402	745.51	1.33
298.15	20370	0.90012	729.16	1.41
298.15	20370	1	714.36	1.48
298.15	22390	0	890.65	0.72
298.15	22390	0.10158	870.05	0.81
298.15	22390	0.19955	850.64	0.9
298.15	22390	0.31533	828.77	1
298.15	22390	0.39483	814.1	1.07
298.15	22390	0.4862	797.89	1.15
298.15	22390	0.59385	779.48	1.24
298.15	22390	0.69659	762.51	1.33
298.15	22390	0.79402	746.97	1.4
298.15	22390	0.90012	730.59	1.48
298.15	22390	1	715.78	1.56
298.15	24420	0	892.14	0.74
298.15	24420	0.10158	871.52	0.84
298.15	24420	0.19955	852.13	0.94
298.15	24420	0.31533	830.22	1.05
298.15	24420	0.39483	815.56	1.12
298.15	24420	0.4862	799.35	1.21
298.15	24420	0.59385	780.91	1.3
298.15	24420	0.69659	763.95	1.39
298.15	24420	0.79402	748.37	1.47
298.15	24420	0.90012	732.01	1.56
298.15	24420	1	717.18	1.64
298.15	26450	0	893.54	0.77
298.15	26450	0.10158	872.95	0.87
298.15	26450	0.19955	853.55	0.98
298.15	26450	0.31533	831.64	1.09
298.15	26450	0.39483	816.97	1.17
298.15	26450	0.4862	800.75	1.26
298.15	26450	0.59385	782.33	1.36
298.15	26450	0.69659	765.32	1.46
298.15	26450	0.79402	749.76	1.54
298.15	26450	0.90012	733.39	1.64
298.15	26450	1	718.56	1.72
298.15	28470	0	894.96	0.79
298.15	28470	0.10158	874.35	0.9
298.15	28470	0.19955	854.96	1.01
298.15	28470	0.31533	833.04	1.14
298.15	28470	0.39483	818.37	1.22
298.15	28470	0.4862	802.14	1.32
298.15	28470	0.59385	783.71	1.42
298.15	28470	0.69659	766.73	1.52
298.15	28470	0.79402	751.13	1.61
298.15	28470	0.90012	734.74	1.71
298.15	28470	1	719.9	1.8
298.15	29490	0	895.65	0.8
298.15	29490	0.10158	875.05	0.92
298.15	29490	0.19955	855.64	1.03
298.15	29490	0.31533	833.73	1.16
298.15	29490	0.39483	819.06	1.25
298.15	29490	0.4862	802.85	1.34
298.15	29490	0.59385	784.39	1.45
298.15	29490	0.69659	767.4	1.55
298.15	29490	0.79402	751.81	1.65
298.15	29490	0.90012	735.41	1.75
298.15	29490	1	720.57	1.84
298.15	30500	0	896.32	0.81
298.15	30500	0.10158	875.72	0.93
298.15	30500	0.19955	856.33	1.05
298.15	30500	0.31533	834.42	1.18
298.15	30500	0.39483	819.73	1.27
298.15	30500	0.4862	803.52	1.37
298.15	30500	0.59385	785.07	1.48
298.15	30500	0.69659	768.07	1.59
298.15	30500	0.79402	752.47	1.68
298.15	30500	0.90012	736.07	1.78
298.15	30500	1	721.22	1.88
298.15	32530	0	897.71	0.84
298.15	32530	0.10158	877.11	0.96
298.15	32530	0.19955	857.7	1.08
298.15	32530	0.31533	835.79	1.22
298.15	32530	0.39483	821.11	1.32
298.15	32530	0.4862	804.86	1.42
298.15	32530	0.59385	786.42	1.54
298.15	32530	0.69659	769.4	1.65
298.15	32530	0.79402	753.8	1.75
298.15	32530	0.90012	737.38	1.86
298.15	32530	1	722.53	1.96
298.15	34550	0	899.05	0.86
298.15	34550	0.10158	878.46	0.99
298.15	34550	0.19955	859.03	1.12
298.15	34550	0.31533	837.12	1.26
298.15	34550	0.39483	822.43	1.36
298.15	34550	0.4862	806.19	1.47
298.15	34550	0.59385	787.72	1.6
298.15	34550	0.69659	770.72	1.71
298.15	34550	0.79402	755.08	1.82
298.15	34550	0.90012	738.69	1.93
298.15	34550	1	723.82	2.03
298.15	36580	0	900.38	0.88
298.15	36580	0.10158	879.77	1.02
298.15	36580	0.19955	860.35	1.15
298.15	36580	0.31533	838.43	1.3
298.15	36580	0.39483	823.74	1.41
298.15	36580	0.4862	807.48	1.52
298.15	36580	0.59385	789.01	1.65
298.15	36580	0.69659	772.01	1.78
298.15	36580	0.79402	756.36	1.89
298.15	36580	0.90012	739.94	2.01
298.15	36580	1	725.06	2.11
298.15	38600	0	901.69	0.9
298.15	38600	0.10158	881.06	1.05
298.15	38600	0.19955	861.67	1.19
298.15	38600	0.31533	839.72	1.35
298.15	38600	0.39483	825.03	1.45
298.15	38600	0.4862	808.77	1.57
298.15	38600	0.59385	790.32	1.71
298.15	38600	0.69659	773.27	1.84
298.15	38600	0.79402	757.63	1.95
298.15	38600	0.90012	741.21	2.08
298.15	38600	1	726.32	2.19
298.15	39620	0	902.33	0.91
298.15	39620	0.10158	881.71	1.06
298.15	39620	0.19955	862.31	1.21
298.15	39620	0.31533	840.38	1.37
298.15	39620	0.39483	825.68	1.48
298.15	39620	0.4862	809.4	1.6
298.15	39620	0.59385	790.96	1.74
298.15	39620	0.69659	773.9	1.87
298.15	39620	0.79402	758.25	1.99
298.15	39620	0.90012	741.83	2.12
298.15	39620	1	726.94	2.23
308.15	100	0	863.99	0.45
308.15	100	0.10158	843.29	0.46
308.15	100	0.19955	824.06	0.47
308.15	100	0.31533	802.22	0.49
308.15	100	0.39483	787.75	0.5
308.15	100	0.4862	771.63	0.52
308.15	100	0.59385	753.33	0.54
308.15	100	0.69659	736.52	0.57
308.15	100	0.79402	721.15	0.59
308.15	100	0.90012	705.03	0.61
308.15	100	1	690.43	0.63
308.15	2130	0	865.56	0.48
308.15	2130	0.10158	845	0.5
308.15	2130	0.19955	825.77	0.52
308.15	2130	0.31533	803.94	0.54
308.15	2130	0.39483	789.46	0.56
308.15	2130	0.4862	773.39	0.59
308.15	2130	0.59385	755.1	0.62
308.15	2130	0.69659	738.36	0.65
308.15	2130	0.79402	722.94	0.67
308.15	2130	0.90012	706.75	0.7
308.15	2130	1	692.18	0.73
308.15	4150	0	867.35	0.51
308.15	4150	0.10158	846.81	0.53
308.15	4150	0.19955	827.59	0.56
308.15	4150	0.31533	805.76	0.6
308.15	4150	0.39483	791.31	0.62
308.15	4150	0.4862	775.22	0.65
308.15	4150	0.59385	756.95	0.69
308.15	4150	0.69659	740.19	0.72
308.15	4150	0.79402	724.76	0.75
308.15	4150	0.90012	708.57	0.79
308.15	4150	1	694	0.82
308.15	6180	0	869.15	0.53
308.15	6180	0.10158	848.61	0.56
308.15	6180	0.19955	829.39	0.6
308.15	6180	0.31533	807.57	0.65
308.15	6180	0.39483	793.1	0.68
308.15	6180	0.4862	777.03	0.71
308.15	6180	0.59385	758.74	0.76
308.15	6180	0.69659	742	0.79
308.15	6180	0.79402	726.58	0.83
308.15	6180	0.90012	710.37	0.87
308.15	6180	1	695.79	0.9
308.15	8210	0	870.9	0.56
308.15	8210	0.10158	850.37	0.6
308.15	8210	0.19955	831.16	0.65
308.15	8210	0.31533	809.34	0.7
308.15	8210	0.39483	794.85	0.74
308.15	8210	0.4862	778.81	0.78
308.15	8210	0.59385	760.51	0.82
308.15	8210	0.69659	743.77	0.87
308.15	8210	0.79402	728.34	0.91
308.15	8210	0.90012	712.11	0.95
308.15	8210	1	697.53	0.99
308.15	10230	0	872.61	0.59
308.15	10230	0.10158	852.08	0.64
308.15	10230	0.19955	832.88	0.69
308.15	10230	0.31533	811.05	0.75
308.15	10230	0.39483	796.6	0.79
308.15	10230	0.4862	780.52	0.84
308.15	10230	0.59385	762.22	0.89
308.15	10230	0.69659	745.47	0.94
308.15	10230	0.79402	730.04	0.99
308.15	10230	0.90012	713.8	1.04
308.15	10230	1	699.24	1.08
308.15	11250	0	873.47	0.6
308.15	11250	0.10158	852.95	0.66
308.15	11250	0.19955	833.74	0.71
308.15	11250	0.31533	811.91	0.78
308.15	11250	0.39483	797.46	0.82
308.15	11250	0.4862	781.38	0.87
308.15	11250	0.59385	763.1	0.92
308.15	11250	0.69659	746.33	0.98
308.15	11250	0.79402	730.91	1.03
308.15	11250	0.90012	714.66	1.08
308.15	11250	1	700.07	1.12
308.15	12260	0	874.3	0.62
308.15	12260	0.10158	853.78	0.68
308.15	12260	0.19955	834.58	0.73
308.15	12260	0.31533	812.74	0.8
308.15	12260	0.39483	798.31	0.85
308.15	12260	0.4862	782.22	0.9
308.15	12260	0.59385	763.93	0.96
308.15	12260	0.69659	747.17	1.01
308.15	12260	0.79402	731.72	1.06
308.15	12260	0.90012	715.48	1.12
308.15	12260	1	700.88	1.17
308.15	14290	0	875.96	0.65
308.15	14290	0.10158	855.47	0.71
308.15	14290	0.19955	836.25	0.78
308.15	14290	0.31533	814.43	0.85
308.15	14290	0.39483	799.98	0.9
308.15	14290	0.4862	783.88	0.96
308.15	14290	0.59385	765.62	1.02
308.15	14290	0.69659	748.84	1.08
308.15	14290	0.79402	733.37	1.14
308.15	14290	0.90012	717.14	1.2
308.15	14290	1	702.55	1.25
308.15	16310	0	877.59	0.68
308.15	16310	0.10158	857.09	0.75
308.15	16310	0.19955	837.88	0.82
308.15	16310	0.31533	816.06	0.9
308.15	16310	0.39483	801.61	0.96
308.15	16310	0.4862	785.51	1.02
308.15	16310	0.59385	767.22	1.09
308.15	16310	0.69659	750.45	1.15
308.15	16310	0.79402	735	1.22
308.15	16310	0.90012	718.74	1.28
308.15	16310	1	704.13	1.34
308.15	18340	0	879.2	0.7
308.15	18340	0.10158	858.68	0.78
308.15	18340	0.19955	839.49	0.86
308.15	18340	0.31533	817.66	0.95
308.15	18340	0.39483	803.22	1.01
308.15	18340	0.4862	787.12	1.08
308.15	18340	0.59385	768.81	1.15
308.15	18340	0.69659	752.06	1.23
308.15	18340	0.79402	736.58	1.29
308.15	18340	0.90012	720.34	1.36
308.15	18340	1	705.71	1.42
308.15	20370	0	880.78	0.73
308.15	20370	0.10158	860.28	0.82
308.15	20370	0.19955	841.08	0.9
308.15	20370	0.31533	819.25	1
308.15	20370	0.39483	804.79	1.06
308.15	20370	0.4862	788.69	1.13
308.15	20370	0.59385	770.37	1.22
308.15	20370	0.69659	753.6	1.29
308.15	20370	0.79402	738.13	1.37
308.15	20370	0.90012	721.86	1.44
308.15	20370	1	707.23	1.51
308.15	22390	0	882.35	0.76
308.15	22390	0.10158	861.81	0.85
308.15	22390	0.19955	842.63	0.94
308.15	22390	0.31533	820.79	1.04
308.15	22390	0.39483	806.33	1.11
308.15	22390	0.4862	790.24	1.19
308.15	22390	0.59385	771.9	1.28
308.15	22390	0.69659	755.13	1.36
308.15	22390	0.79402	739.65	1.44
308.15	22390	0.90012	723.39	1.52
308.15	22390	1	708.76	1.59
308.15	24420	0	883.86	0.79
308.15	24420	0.10158	863.33	0.89
308.15	24420	0.19955	844.15	0.98
308.15	24420	0.31533	822.3	1.09
308.15	24420	0.39483	807.85	1.17
308.15	24420	0.4862	791.75	1.25
308.15	24420	0.59385	773.44	1.34
308.15	24420	0.69659	756.65	1.43
308.15	24420	0.79402	741.13	1.51
308.15	24420	0.90012	724.85	1.6
308.15	24420	1	710.22	1.68
308.15	26450	0	885.35	0.81
308.15	26450	0.10158	864.85	0.92
308.15	26450	0.19955	845.66	1.02
308.15	26450	0.31533	823.79	1.14
308.15	26450	0.39483	809.33	1.22
308.15	26450	0.4862	793.23	1.3
308.15	26450	0.59385	774.9	1.41
308.15	26450	0.69659	758.1	1.5
308.15	26450	0.79402	742.61	1.59
308.15	26450	0.90012	726.31	1.68
308.15	26450	1	711.66	1.76
308.15	28470	0	886.84	0.84
308.15	28470	0.10158	866.32	0.95
308.15	28470	0.19955	847.13	1.06
308.15	28470	0.31533	825.28	1.18
308.15	28470	0.39483	810.81	1.27
308.15	28470	0.4862	794.7	1.36
308.15	28470	0.59385	776.37	1.47
308.15	28470	0.69659	759.57	1.57
308.15	28470	0.79402	744.06	1.66
308.15	28470	0.90012	727.75	1.75
308.15	28470	1	713.09	1.84
308.15	29490	0	887.56	0.85
308.15	29490	0.10158	867.04	0.97
308.15	29490	0.19955	847.84	1.08
308.15	29490	0.31533	825.98	1.21
308.15	29490	0.39483	811.52	1.29
308.15	29490	0.4862	795.4	1.39
308.15	29490	0.59385	777.07	1.5
308.15	29490	0.69659	760.27	1.6
308.15	29490	0.79402	744.75	1.69
308.15	29490	0.90012	728.43	1.79
308.15	29490	1	713.77	1.88
308.15	30500	0	888.21	0.86
308.15	30500	0.10158	867.77	0.98
308.15	30500	0.19955	848.57	1.1
308.15	30500	0.31533	826.72	1.23
308.15	30500	0.39483	812.26	1.32
308.15	30500	0.4862	796.13	1.41
308.15	30500	0.59385	777.79	1.53
308.15	30500	0.69659	760.96	1.63
308.15	30500	0.79402	745.47	1.73
308.15	30500	0.90012	729.14	1.83
308.15	30500	1	714.47	1.92
308.15	32530	0	889.73	0.89
308.15	32530	0.10158	869.2	1.01
308.15	32530	0.19955	850.02	1.13
308.15	32530	0.31533	828.15	1.27
308.15	32530	0.39483	813.68	1.37
308.15	32530	0.4862	797.54	1.47
308.15	32530	0.59385	779.17	1.59
308.15	32530	0.69659	762.38	1.7
308.15	32530	0.79402	746.85	1.8
308.15	32530	0.90012	730.54	1.9
308.15	32530	1	715.84	2
308.15	34550	0	891.14	0.91
308.15	34550	0.10158	870.61	1.04
308.15	34550	0.19955	851.41	1.17
308.15	34550	0.31533	829.56	1.32
308.15	34550	0.39483	815.08	1.41
308.15	34550	0.4862	798.95	1.52
308.15	34550	0.59385	780.59	1.65
308.15	34550	0.69659	763.77	1.76
308.15	34550	0.79402	748.23	1.87
308.15	34550	0.90012	731.86	1.98
308.15	34550	1	717.18	2.08
308.15	36580	0	892.52	0.93
308.15	36580	0.10158	872.01	1.07
308.15	36580	0.19955	852.79	1.21
308.15	36580	0.31533	830.94	1.36
308.15	36580	0.39483	816.46	1.46
308.15	36580	0.4862	800.32	1.57
308.15	36580	0.59385	781.95	1.71
308.15	36580	0.69659	765.13	1.83
308.15	36580	0.79402	749.58	1.94
308.15	36580	0.90012	733.19	2.05
308.15	36580	1	718.5	2.16
308.15	38600	0	893.9	0.96
308.15	38600	0.10158	873.39	1.1
308.15	38600	0.19955	854.16	1.24
308.15	38600	0.31533	832.28	1.4
308.15	38600	0.39483	817.83	1.51
308.15	38600	0.4862	801.66	1.63
308.15	38600	0.59385	783.3	1.76
308.15	38600	0.69659	766.43	1.89
308.15	38600	0.79402	750.88	2.01
308.15	38600	0.90012	734.53	2.13
308.15	38600	1	719.82	2.24
308.15	39620	0	894.55	0.97
308.15	39620	0.10158	874.04	1.12
308.15	39620	0.19955	854.82	1.26
308.15	39620	0.31533	832.94	1.43
308.15	39620	0.39483	818.49	1.53
308.15	39620	0.4862	802.33	1.66
308.15	39620	0.59385	783.95	1.8
308.15	39620	0.69659	767.08	1.92
308.15	39620	0.79402	751.54	2.04
308.15	39620	0.90012	735.19	2.17
308.15	39620	1	720.45	2.28
318.15	100	0	854.58	0.46
318.15	100	0.10158	834.04	0.48
318.15	100	0.19955	814.96	0.48
318.15	100	0.31533	793.28	0.51
318.15	100	0.39483	778.92	0.52
318.15	100	0.4862	762.93	0.54
318.15	100	0.59385	744.78	0.56
318.15	100	0.69659	728.11	0.58
318.15	100	0.79402	712.89	0.61
318.15	100	0.90012	696.93	0.63
318.15	100	1	682.47	0.65
318.15	2130	0	856.27	0.49
318.15	2130	0.10158	835.95	0.52
318.15	2130	0.19955	816.81	0.53
318.15	2130	0.31533	795.21	0.56
318.15	2130	0.39483	780.76	0.58
318.15	2130	0.4862	764.83	0.61
318.15	2130	0.59385	746.83	0.64
318.15	2130	0.69659	730.05	0.66
318.15	2130	0.79402	714.94	0.69
318.15	2130	0.90012	698.9	0.72
318.15	2130	1	684.48	0.74
318.15	4150	0	858.19	0.52
318.15	4150	0.10158	837.89	0.55
318.15	4150	0.19955	818.74	0.58
318.15	4150	0.31533	797.18	0.62
318.15	4150	0.39483	782.71	0.64
318.15	4150	0.4862	766.77	0.67
318.15	4150	0.59385	748.78	0.71
318.15	4150	0.69659	732.01	0.74
318.15	4150	0.79402	716.9	0.77
318.15	4150	0.90012	700.85	0.8
318.15	4150	1	686.45	0.83
318.15	6180	0	860.06	0.55
318.15	6180	0.10158	839.78	0.59
318.15	6180	0.19955	820.64	0.62
318.15	6180	0.31533	799.07	0.67
318.15	6180	0.39483	784.6	0.7
318.15	6180	0.4862	768.67	0.74
318.15	6180	0.59385	750.71	0.78
318.15	6180	0.69659	733.92	0.82
318.15	6180	0.79402	718.79	0.85
318.15	6180	0.90012	702.75	0.89
318.15	6180	1	688.29	0.92
318.15	8210	0	861.91	0.58
318.15	8210	0.10158	841.62	0.63
318.15	8210	0.19955	822.49	0.67
318.15	8210	0.31533	800.94	0.72
318.15	8210	0.39483	786.48	0.76
318.15	8210	0.4862	770.55	0.8
318.15	8210	0.59385	752.56	0.85
318.15	8210	0.69659	735.77	0.89
318.15	8210	0.79402	720.67	0.93
318.15	8210	0.90012	704.6	0.98
318.15	8210	1	690.17	1.02
318.15	10230	0	863.73	0.61
318.15	10230	0.10158	843.46	0.67
318.15	10230	0.19955	824.34	0.72
318.15	10230	0.31533	802.79	0.78
318.15	10230	0.39483	788.32	0.82
318.15	10230	0.4862	772.38	0.86
318.15	10230	0.59385	754.41	0.92
318.15	10230	0.69659	737.61	0.97
318.15	10230	0.79402	722.49	1.01
318.15	10230	0.90012	706.41	1.06
318.15	10230	1	691.97	1.1
318.15	11250	0	864.62	0.63
318.15	11250	0.10158	844.35	0.69
318.15	11250	0.19955	825.23	0.74
318.15	11250	0.31533	803.67	0.8
318.15	11250	0.39483	789.21	0.85
318.15	11250	0.4862	773.28	0.9
318.15	11250	0.59385	755.31	0.95
318.15	11250	0.69659	738.5	1
318.15	11250	0.79402	723.39	1.05
318.15	11250	0.90012	707.3	1.1
318.15	11250	1	692.85	1.15
318.15	12260	0	865.5	0.65
318.15	12260	0.10158	845.27	0.7
318.15	12260	0.19955	826.11	0.76
318.15	12260	0.31533	804.57	0.83
318.15	12260	0.39483	790.11	0.87
318.15	12260	0.4862	774.2	0.93
318.15	12260	0.59385	756.2	0.98
318.15	12260	0.69659	739.4	1.04
318.15	12260	0.79402	724.3	1.09
318.15	12260	0.90012	708.21	1.14
318.15	12260	1	693.77	1.19
318.15	14290	0	867.28	0.68
318.15	14290	0.10158	847.01	0.74
318.15	14290	0.19955	827.89	0.81
318.15	14290	0.31533	806.35	0.88
318.15	14290	0.39483	791.88	0.93
318.15	14290	0.4862	775.94	0.99
318.15	14290	0.59385	757.98	1.05
318.15	14290	0.69659	741.15	1.11
318.15	14290	0.79402	726.04	1.17
318.15	14290	0.90012	709.95	1.23
318.15	14290	1	695.49	1.28
318.15	16310	0	869	0.71
318.15	16310	0.10158	848.75	0.78
318.15	16310	0.19955	829.61	0.85
318.15	16310	0.31533	808.09	0.93
318.15	16310	0.39483	793.61	0.99
318.15	16310	0.4862	777.66	1.05
318.15	16310	0.59385	759.69	1.12
318.15	16310	0.69659	742.89	1.19
318.15	16310	0.79402	727.75	1.25
318.15	16310	0.90012	711.66	1.31
318.15	16310	1	697.2	1.37
318.15	18340	0	870.66	0.74
318.15	18340	0.10158	850.43	0.82
318.15	18340	0.19955	831.3	0.9
318.15	18340	0.31533	809.76	0.98
318.15	18340	0.39483	795.29	1.04
318.15	18340	0.4862	779.35	1.11
318.15	18340	0.59385	761.37	1.19
318.15	18340	0.69659	744.57	1.26
318.15	18340	0.79402	729.42	1.32
318.15	18340	0.90012	713.3	1.39
318.15	18340	1	698.86	1.46
318.15	20370	0	872.33	0.77
318.15	20370	0.10158	852.13	0.86
318.15	20370	0.19955	832.97	0.94
318.15	20370	0.31533	811.43	1.03
318.15	20370	0.39483	796.96	1.1
318.15	20370	0.4862	781.01	1.17
318.15	20370	0.59385	763.03	1.25
318.15	20370	0.69659	746.2	1.33
318.15	20370	0.79402	731.08	1.4
318.15	20370	0.90012	714.96	1.47
318.15	20370	1	700.47	1.54
318.15	22390	0	873.95	0.8
318.15	22390	0.10158	853.71	0.89
318.15	22390	0.19955	834.6	0.98
318.15	22390	0.31533	813.06	1.08
318.15	22390	0.39483	798.59	1.15
318.15	22390	0.4862	782.65	1.23
318.15	22390	0.59385	764.67	1.32
318.15	22390	0.69659	747.82	1.4
318.15	22390	0.79402	732.69	1.48
318.15	22390	0.90012	716.55	1.55
318.15	22390	1	702.07	1.63
318.15	24420	0	875.54	0.83
318.15	24420	0.10158	855.32	0.93
318.15	24420	0.19955	836.2	1.02
318.15	24420	0.31533	814.65	1.13
318.15	24420	0.39483	800.17	1.21
318.15	24420	0.4862	784.23	1.29
318.15	24420	0.59385	766.24	1.38
318.15	24420	0.69659	749.39	1.47
318.15	24420	0.79402	734.25	1.55
318.15	24420	0.90012	718.09	1.64
318.15	24420	1	703.61	1.71
318.15	26450	0	877.12	0.86
318.15	26450	0.10158	856.9	0.96
318.15	26450	0.19955	837.77	1.06
318.15	26450	0.31533	816.23	1.18
318.15	26450	0.39483	801.75	1.26
318.15	26450	0.4862	785.8	1.35
318.15	26450	0.59385	767.8	1.45
318.15	26450	0.69659	750.95	1.54
318.15	26450	0.79402	735.8	1.62
318.15	26450	0.90012	719.69	1.71
318.15	26450	1	705.13	1.8
318.15	28470	0	878.67	0.89
318.15	28470	0.10158	858.45	1
318.15	28470	0.19955	839.34	1.11
318.15	28470	0.31533	817.78	1.23
318.15	28470	0.39483	803.29	1.31
318.15	28470	0.4862	787.34	1.4
318.15	28470	0.59385	769.34	1.51
318.15	28470	0.69659	752.48	1.61
318.15	28470	0.79402	737.32	1.7
318.15	28470	0.90012	721.17	1.79
318.15	28470	1	706.66	1.88
318.15	29490	0	879.43	0.9
318.15	29490	0.10158	859.22	1.01
318.15	29490	0.19955	840.08	1.12
318.15	29490	0.31533	818.54	1.25
318.15	29490	0.39483	804.05	1.34
318.15	29490	0.4862	788.09	1.43
318.15	29490	0.59385	770.08	1.54
318.15	29490	0.69659	753.23	1.64
318.15	29490	0.79402	738.07	1.73
318.15	29490	0.90012	721.87	1.83
318.15	29490	1	707.38	1.92
318.15	30500	0	880.19	0.91
318.15	30500	0.10158	859.99	1.03
318.15	30500	0.19955	840.84	1.14
318.15	30500	0.31533	819.31	1.27
318.15	30500	0.39483	804.81	1.36
318.15	30500	0.4862	788.85	1.46
318.15	30500	0.59385	770.85	1.57
318.15	30500	0.69659	753.99	1.68
318.15	30500	0.79402	738.83	1.77
318.15	30500	0.90012	722.64	1.87
318.15	30500	1	708.13	1.96
318.15	32530	0	881.7	0.94
318.15	32530	0.10158	861.5	1.06
318.15	32530	0.19955	842.34	1.18
318.15	32530	0.31533	820.8	1.32
318.15	32530	0.39483	806.31	1.41
318.15	32530	0.4862	790.33	1.52
318.15	32530	0.59385	772.31	1.63
318.15	32530	0.69659	755.45	1.74
318.15	32530	0.79402	740.27	1.84
318.15	32530	0.90012	724.08	1.95
318.15	32530	1	709.54	2.04
318.15	34550	0	883.17	0.96
318.15	34550	0.10158	862.97	1.1
318.15	34550	0.19955	843.8	1.22
318.15	34550	0.31533	822.26	1.37
318.15	34550	0.39483	807.75	1.46
318.15	34550	0.4862	791.8	1.57
318.15	34550	0.59385	773.76	1.69
318.15	34550	0.69659	756.87	1.81
318.15	34550	0.79402	741.69	1.91
318.15	34550	0.90012	725.5	2.02
318.15	34550	1	710.96	2.12
318.15	36580	0	884.63	0.99
318.15	36580	0.10158	864.41	1.13
318.15	36580	0.19955	845.26	1.26
318.15	36580	0.31533	823.71	1.41
318.15	36580	0.39483	809.2	1.51
318.15	36580	0.4862	793.22	1.63
318.15	36580	0.59385	775.19	1.75
318.15	36580	0.69659	758.28	1.88
318.15	36580	0.79402	743.11	1.98
318.15	36580	0.90012	726.91	2.1
318.15	36580	1	712.33	2.2
318.15	38600	0	886.04	1.01
318.15	38600	0.10158	865.86	1.16
318.15	38600	0.19955	846.68	1.3
318.15	38600	0.31533	825.13	1.45
318.15	38600	0.39483	810.6	1.56
318.15	38600	0.4862	794.61	1.68
318.15	38600	0.59385	776.59	1.81
318.15	38600	0.69659	759.68	1.94
318.15	38600	0.79402	744.49	2.05
318.15	38600	0.90012	728.26	2.17
318.15	38600	1	713.68	2.28
318.15	39620	0	886.76	1.03
318.15	39620	0.10158	866.55	1.17
318.15	39620	0.19955	847.39	1.32
318.15	39620	0.31533	825.83	1.48
318.15	39620	0.39483	811.31	1.59
318.15	39620	0.4862	795.32	1.71
318.15	39620	0.59385	777.27	1.84
318.15	39620	0.69659	760.4	1.98
318.15	39620	0.79402	745.19	2.09
318.15	39620	0.90012	728.95	2.21
318.15	39620	1	714.38	2.32
328.15	100	0	845.18	0.48
328.15	100	0.10158	824.75	0.48
328.15	100	0.31533	784.31	0.51
328.15	100	0.39483	770.08	0.54
328.15	100	0.4862	754.25	0.55
328.15	100	0.59385	736.27	0.57
328.15	100	0.69659	719.76	0.6
328.15	100	0.79402	704.68	0.62
328.15	100	0.90012	688.86	0.64
328.15	100	1	674.53	0.66
328.15	2130	0	847.12	0.51
328.15	2130	0.10158	826.75	0.53
328.15	2130	0.19955	807.96	0.55
328.15	2130	0.31533	786.36	0.58
328.15	2130	0.39483	772.17	0.6
328.15	2130	0.4862	756.35	0.63
328.15	2130	0.59385	738.33	0.66
328.15	2130	0.69659	721.87	0.68
328.15	2130	0.79402	706.7	0.71
328.15	2130	0.90012	690.84	0.73
328.15	2130	1	676.49	0.76
328.15	4150	0	849.17	0.54
328.15	4150	0.10158	828.82	0.57
328.15	4150	0.19955	810.05	0.6
328.15	4150	0.31533	788.45	0.64
328.15	4150	0.39483	774.26	0.66
328.15	4150	0.4862	758.45	0.69
328.15	4150	0.59385	740.42	0.73
328.15	4150	0.69659	723.96	0.76
328.15	4150	0.79402	708.79	0.79
328.15	4150	0.90012	692.91	0.82
328.15	4150	1	678.56	0.85
328.15	6180	0	851.16	0.57
328.15	6180	0.10158	830.83	0.61
328.15	6180	0.19955	812.05	0.65
328.15	6180	0.31533	790.48	0.69
328.15	6180	0.39483	776.28	0.72
328.15	6180	0.4862	760.49	0.76
328.15	6180	0.59385	742.45	0.8
328.15	6180	0.69659	725.98	0.84
328.15	6180	0.79402	710.81	0.87
328.15	6180	0.90012	694.93	0.91
328.15	6180	1	680.59	0.95
328.15	8210	0	853.13	0.61
328.15	8210	0.10158	832.8	0.65
328.15	8210	0.19955	814.05	0.7
328.15	8210	0.31533	792.45	0.75
328.15	8210	0.39483	778.27	0.78
328.15	8210	0.4862	762.48	0.82
328.15	8210	0.59385	744.42	0.87
328.15	8210	0.69659	728	0.92
328.15	8210	0.79402	712.79	0.96
328.15	8210	0.90012	696.92	1
328.15	8210	1	682.57	1.04
328.15	10230	0	855.02	0.64
328.15	10230	0.10158	834.72	0.7
328.15	10230	0.19955	815.97	0.75
328.15	10230	0.31533	794.38	0.81
328.15	10230	0.39483	780.21	0.85
328.15	10230	0.4862	764.41	0.89
328.15	10230	0.59385	746.38	0.94
328.15	10230	0.69659	729.93	0.99
328.15	10230	0.79402	714.74	1.04
328.15	10230	0.90012	698.84	1.09
328.15	10230	1	684.51	1.13
328.15	11250	0	855.98	0.66
328.15	11250	0.10158	835.67	0.71
328.15	11250	0.19955	816.92	0.77
328.15	11250	0.31533	795.34	0.83
328.15	11250	0.39483	781.17	0.87
328.15	11250	0.4862	765.37	0.92
328.15	11250	0.59385	747.33	0.98
328.15	11250	0.69659	730.88	1.03
328.15	11250	0.79402	715.68	1.08
328.15	11250	0.90012	699.79	1.13
328.15	11250	1	685.44	1.17
328.15	12260	0	856.91	0.68
328.15	12260	0.10158	836.61	0.73
328.15	12260	0.19955	817.87	0.79
328.15	12260	0.31533	796.3	0.86
328.15	12260	0.39483	782.13	0.9
328.15	12260	0.4862	766.33	0.95
328.15	12260	0.59385	748.28	1.01
328.15	12260	0.69659	731.81	1.07
328.15	12260	0.79402	716.64	1.12
328.15	12260	0.90012	700.74	1.17
328.15	12260	1	686.38	1.22
328.15	14290	0	858.76	0.71
328.15	14290	0.10158	838.48	0.78
328.15	14290	0.19955	819.73	0.84
328.15	14290	0.31533	798.16	0.91
328.15	14290	0.39483	784	0.96
328.15	14290	0.4862	768.18	1.02
328.15	14290	0.59385	750.17	1.08
328.15	14290	0.69659	733.7	1.14
328.15	14290	0.79402	718.5	1.2
328.15	14290	0.90012	702.6	1.26
328.15	14290	1	688.23	1.31
328.15	16310	0	860.59	0.74
328.15	16310	0.10158	840.3	0.82
328.15	16310	0.19955	821.56	0.89
328.15	16310	0.31533	799.99	0.97
328.15	16310	0.39483	785.83	1.02
328.15	16310	0.4862	770.03	1.08
328.15	16310	0.59385	752	1.15
328.15	16310	0.69659	735.52	1.22
328.15	16310	0.79402	720.32	1.28
328.15	16310	0.90012	704.39	1.34
328.15	16310	1	690.03	1.4
328.15	18340	0	862.35	0.78
328.15	18340	0.10158	842.06	0.86
328.15	18340	0.19955	823.33	0.93
328.15	18340	0.31533	801.75	1.02
328.15	18340	0.39483	787.59	1.08
328.15	18340	0.4862	771.78	1.14
328.15	18340	0.59385	753.76	1.22
328.15	18340	0.69659	737.29	1.29
328.15	18340	0.79402	722.07	1.36
328.15	18340	0.90012	706.15	1.43
328.15	18340	1	691.76	1.49
328.15	20370	0	864.12	0.81
328.15	20370	0.10158	843.84	0.9
328.15	20370	0.19955	825.11	0.98
328.15	20370	0.31533	803.54	1.07
328.15	20370	0.39483	789.37	1.14
328.15	20370	0.4862	773.56	1.21
328.15	20370	0.59385	755.51	1.29
328.15	20370	0.69659	739.04	1.36
328.15	20370	0.79402	723.83	1.43
328.15	20370	0.90012	707.88	1.51
328.15	20370	1	693.5	1.58
328.15	22390	0	865.82	0.84
328.15	22390	0.10158	845.55	0.93
328.15	22390	0.19955	826.81	1.02
328.15	22390	0.31533	805.24	1.12
328.15	22390	0.39483	791.08	1.19
328.15	22390	0.4862	775.27	1.27
328.15	22390	0.59385	757.24	1.36
328.15	22390	0.69659	740.74	1.44
328.15	22390	0.79402	725.52	1.51
328.15	22390	0.90012	709.57	1.59
328.15	22390	1	695.17	1.66
328.15	24420	0	867.51	0.87
328.15	24420	0.10158	847.24	0.97
328.15	24420	0.19955	828.51	1.06
328.15	24420	0.31533	806.94	1.17
328.15	24420	0.39483	792.78	1.25
328.15	24420	0.4862	776.96	1.33
328.15	24420	0.59385	758.91	1.42
328.15	24420	0.69659	742.4	1.51
328.15	24420	0.79402	727.18	1.59
328.15	24420	0.90012	711.21	1.67
328.15	24420	1	696.82	1.75
328.15	26450	0	869.18	0.9
328.15	26450	0.10158	848.91	1.01
328.15	26450	0.19955	830.19	1.11
328.15	26450	0.31533	808.59	1.22
328.15	26450	0.39483	794.43	1.3
328.15	26450	0.4862	778.61	1.39
328.15	26450	0.59385	760.54	1.49
328.15	26450	0.69659	744.05	1.58
328.15	26450	0.79402	728.79	1.66
328.15	26450	0.90012	712.83	1.75
328.15	26450	1	698.41	1.83
328.15	28470	0	870.8	0.93
328.15	28470	0.10158	850.52	1.04
328.15	28470	0.19955	831.8	1.15
328.15	28470	0.31533	810.22	1.27
328.15	28470	0.39483	796.05	1.36
328.15	28470	0.4862	780.22	1.45
328.15	28470	0.59385	762.15	1.55
328.15	28470	0.69659	745.64	1.65
328.15	28470	0.79402	730.38	1.74
328.15	28470	0.90012	714.38	1.83
328.15	28470	1	699.98	1.92
328.15	29490	0	871.6	0.95
328.15	29490	0.10158	851.32	1.06
328.15	29490	0.19955	832.59	1.17
328.15	29490	0.31533	811.01	1.3
328.15	29490	0.39483	796.83	1.38
328.15	29490	0.4862	781.01	1.48
328.15	29490	0.59385	762.93	1.58
328.15	29490	0.69659	746.43	1.68
328.15	29490	0.79402	731.16	1.78
328.15	29490	0.90012	715.18	1.87
328.15	29490	1	700.75	1.96
328.15	30500	0	872.4	0.96
328.15	30500	0.10158	852.13	1.08
328.15	30500	0.19955	833.4	1.19
328.15	30500	0.31533	811.81	1.32
328.15	30500	0.39483	797.63	1.41
328.15	30500	0.4862	781.8	1.5
328.15	30500	0.59385	763.73	1.62
328.15	30500	0.69659	747.21	1.72
328.15	30500	0.79402	731.95	1.81
328.15	30500	0.90012	715.96	1.91
328.15	30500	1	701.53	2
328.15	32530	0	873.95	0.99
328.15	32530	0.10158	853.71	1.11
328.15	32530	0.19955	834.95	1.23
328.15	32530	0.31533	813.36	1.37
328.15	32530	0.39483	799.19	1.46
328.15	32530	0.4862	783.35	1.56
328.15	32530	0.59385	765.25	1.68
328.15	32530	0.69659	748.74	1.79
328.15	32530	0.79402	733.44	1.89
328.15	32530	0.90012	717.46	1.99
328.15	32530	1	703.01	2.09
328.15	34550	0	875.49	1.02
328.15	34550	0.10158	855.25	1.15
328.15	34550	0.19955	836.5	1.27
328.15	34550	0.31533	814.87	1.42
328.15	34550	0.39483	800.71	1.51
328.15	34550	0.4862	784.87	1.62
328.15	34550	0.59385	766.77	1.74
328.15	34550	0.69659	750.23	1.86
328.15	34550	0.79402	734.96	1.96
328.15	34550	0.90012	718.95	2.07
328.15	34550	1	704.5	2.17
328.15	36580	0	877.05	1.04
328.15	36580	0.10158	856.79	1.18
328.15	36580	0.19955	838.03	1.31
328.15	36580	0.31533	816.42	1.46
328.15	36580	0.39483	802.23	1.56
328.15	36580	0.4862	786.39	1.68
328.15	36580	0.59385	768.27	1.8
328.15	36580	0.69659	751.74	1.92
328.15	36580	0.79402	736.44	2.03
328.15	36580	0.90012	720.42	2.15
328.15	36580	1	705.96	2.25
328.15	38600	0	878.53	1.07
328.15	38600	0.10158	858.28	1.22
328.15	38600	0.19955	839.51	1.35
328.15	38600	0.31533	817.9	1.51
328.15	38600	0.39483	803.7	1.61
328.15	38600	0.4862	787.85	1.73
328.15	38600	0.59385	769.73	1.87
328.15	38600	0.69659	753.2	1.99
328.15	38600	0.79402	737.86	2.1
328.15	38600	0.90012	721.85	2.22
328.15	38600	1	707.36	2.33
328.15	39620	0	879.31	1.08
328.15	39620	0.10158	859.03	1.24
328.15	39620	0.19955	840.27	1.37
328.15	39620	0.31533	818.64	1.54
328.15	39620	0.39483	804.43	1.64
328.15	39620	0.4862	788.56	1.76
328.15	39620	0.59385	770.44	1.9
328.15	39620	0.69659	753.9	2.02
328.15	39620	0.79402	738.58	2.14
328.15	39620	0.90012	722.55	2.26
328.15	39620	1	708.06	2.37
