Measured thermophysical data. Thermodynamic and acoustic properties of (heptane + dodecane) mixtures under elevated pressures
Source: J. Chem. Thermodyn., 2008, 10.1016/j.jct.2008.05.014
Compound 1: heptane, C7H16, InChI=1S/C7H16/c1-3-5-7-6-4-2/h3-7H2,1-2H3, purity 99%
Compound 2: dodecane, C12H26, InChI=1S/C12H26/c1-3-5-7-9-11-12-10-8-6-4-2/h3-12H2,1-2H3, purity 99%

System: heptane; phases: Liquid
Property: Refractive index (Na D-line) (Liquid); method: Standard Abbe refractometry
Temperature, K	Pressure, kPa	Refractive index (Na D-line)	uncertainty
298.15	101.325	1.3853	0.0008

System: heptane; phases: Liquid
Property: Speed of sound, m/s (Liquid); method: Pulse-echo method
Temperature, K	Pressure, kPa	Speed of sound, m/s	uncertainty
292.83	101	1153.15	1.58
292.88	45590	1417.74	2.43
292.88	60790	1485.51	2.47
292.88	75990	1547.22	2.52
292.88	91180	1605.01	2.57
292.88	101320	1641.16	2.6
292.89	15200	1257.03	2.37
292.89	30390	1342.44	2.39
298.12	101	1130.11	1.58
298.15	15200	1236.71	2.37
298.15	30390	1323.71	2.4
298.15	45590	1400.07	2.44
298.15	60790	1469.06	2.48
298.15	91180	1589.69	2.57
298.15	101320	1626.37	2.61
298.16	75990	1531.64	2.52
303.1	101	1108.55	1.57
303.13	60790	1453.51	2.48
303.13	91180	1575.64	2.58
303.13	101320	1612.63	2.61
303.14	30390	1306.4	2.39
303.14	45590	1383.71	2.44
303.14	75990	1517.05	2.53
303.15	15200	1217.79	2.36
308.08	101	1086.97	1.57
308.12	45590	1367.92	2.44
308.12	75990	1502.72	2.53
308.12	91180	1561.51	2.58
308.12	101320	1599.11	2.62
308.13	15200	1199.18	2.36
308.13	30390	1289.35	2.39
308.13	60790	1438.41	2.48
313.06	101	1065.59	1.57
313.1	30390	1272.52	2.39
313.1	45590	1352.49	2.44
313.1	60790	1423.83	2.48
313.1	75990	1488.71	2.53
313.1	91180	1548.07	2.58
313.1	101320	1585.66	2.62
313.11	15200	1180.69	2.36
318.28	15200	1161.79	2.36
318.28	30390	1255.32	2.41
318.28	45590	1336.49	2.45
318.28	60790	1408.63	2.49
318.28	75990	1474.4	2.54
318.28	91180	1534.29	2.58
318.28	101320	1572.33	2.62
318.35	101	1043.05	1.56

System: heptane; phases: Liquid
Fixed: Pressure, kPa = 101
Property: Mass density, kg/m3 (Liquid); method: VIBTUB::UFactor:4
Temperature, K	Mass density, kg/m3	uncertainty
293.152	683.803	0.712
298.152	679.548	0.718
303.149	675.293	0.723
308.15	671.015	0.729
313.149	666.684	0.734
318.149	662.324	0.74

System: dodecane; phases: Liquid
Property: Refractive index (Na D-line) (Liquid); method: Standard Abbe refractometry
Temperature, K	Pressure, kPa	Refractive index (Na D-line)	uncertainty
298.15	101.325	1.4197	0.0008

System: dodecane; phases: Liquid
Property: Speed of sound, m/s (Liquid); method: Pulse-echo method
Temperature, K	Pressure, kPa	Speed of sound, m/s	uncertainty
292.87	15200	1384.86	2.37
292.87	30390	1457.92	2.39
292.87	45590	1524.08	2.42
292.87	60790	1584.48	2.46
292.87	75990	1640.68	2.5
292.87	91180	1692.75	2.54
292.87	101320	1725.79	2.57
292.89	101	1299.49	1.59
298.16	101	1278.87	1.58
298.16	15200	1365.87	2.37
298.16	30390	1440.05	2.39
298.16	45580	1506.96	2.43
298.16	60790	1567.98	2.47
298.16	75990	1625.22	2.51
298.16	91180	1677.72	2.55
298.16	101320	1711.12	2.58
303.14	30390	1423.76	2.39
303.14	45590	1491.41	2.43
303.14	60790	1553.13	2.47
303.14	75990	1610.86	2.51
303.14	91180	1664.07	2.55
303.14	101320	1697.44	2.58
303.15	101	1259.35	1.58
303.15	15200	1348.47	2.36
308.12	101	1240.15	1.58
308.13	75990	1596.77	2.51
308.13	91180	1650.93	2.56
308.14	15200	1331	2.36
308.14	30390	1407.58	2.39
308.14	45590	1476.26	2.42
308.14	60790	1538.62	2.46
313.1	101	1220.98	1.57
313.21	15200	1313.37	2.36
313.21	30390	1391.07	2.39
313.21	45590	1460.8	2.43
313.21	60790	1524.06	2.47
313.21	75990	1582.53	2.51
313.21	91180	1637.3	2.55
313.21	101320	1671.27	2.58
318.29	15200	1296.21	2.36
318.29	30390	1375.02	2.39
318.29	45590	1445.53	2.43
318.29	60790	1509.73	2.47
318.29	91180	1624.11	2.56
318.29	101320	1658.55	2.58
318.3	75990	1568.82	2.51
318.39	101	1200.9	1.57

System: dodecane; phases: Liquid
Fixed: Pressure, kPa = 101
Property: Mass density, kg/m3 (Liquid); method: VIBTUB::UFactor:4
Temperature, K	Mass density, kg/m3	uncertainty
293.153	748.921	0.628
298.15	745.269	0.633
303.152	741.636	0.638
308.15	738.031	0.642
313.15	734.369	0.647
318.15	730.715	0.652

System: dodecane + heptane; phases: Liquid
Fixed: Pressure, kPa = 101
Property: Speed of sound, m/s (Liquid); method: Pulse-echo method
Mole fraction of heptane	Temperature, K	Speed of sound, m/s	uncertainty
0	292.89	1299.49	1.59
0	298.16	1278.87	1.58
0	303.15	1259.35	1.58
0	308.12	1240.15	1.58
0	313.1	1220.98	1.57
0	318.39	1200.9	1.57
0.1007	292.91	1289.61	1.58
0.1007	298.18	1268.88	1.58
0.1007	303.16	1249.38	1.58
0.1007	308.15	1230.02	1.58
0.1007	313.14	1210.72	1.57
0.1007	318.4	1190.49	1.57
0.2001	292.91	1278.96	1.58
0.2001	298.19	1258.11	1.58
0.2001	303.17	1238.52	1.58
0.2001	308.15	1219.03	1.57
0.2001	313.13	1199.68	1.57
0.2001	318.41	1179.32	1.57
0.3002	292.89	1267.46	1.58
0.3002	298.16	1246.46	1.58
0.3002	303.15	1226.72	1.58
0.3002	308.13	1207.11	1.57
0.3002	313.11	1187.59	1.57
0.3002	318.39	1167.04	1.57
0.3996	292.89	1255.03	1.58
0.3996	298.18	1233.83	1.58
0.3996	303.16	1213.89	1.58
0.3996	308.14	1194.08	1.57
0.3996	313.11	1174.38	1.57
0.3996	318.39	1153.57	1.57
0.5002	292.91	1241.28	1.58
0.5002	298.18	1219.89	1.58
0.5002	303.16	1199.79	1.58
0.5002	308.15	1179.78	1.57
0.5002	313.13	1159.9	1.57
0.5002	318.41	1138.87	1.57
0.6	292.89	1226.77	1.58
0.6	298.16	1205.14	1.58
0.6	303.14	1184.85	1.58
0.6	308.12	1164.56	1.57
0.6	313.1	1144.44	1.57
0.6	318.37	1123.24	1.57
0.7002	292.89	1210.71	1.58
0.7002	298.17	1188.84	1.58
0.7002	303.15	1168.23	1.57
0.7002	308.13	1147.73	1.57
0.7002	313.11	1127.33	1.57
0.7002	318.38	1105.86	1.57
0.8	292.9	1193.43	1.58
0.8	298.17	1171.22	1.58
0.8	303.16	1150.35	1.57
0.8	308.13	1129.56	1.57
0.8	313.12	1108.92	1.57
0.8	318.4	1087.03	1.57
0.8995	292.89	1174.42	1.58
0.8995	298.16	1151.86	1.58
0.8995	303.14	1130.67	1.57
0.8995	308.12	1109.56	1.57
0.8995	313.1	1088.45	1.57
0.8995	318.38	1066.33	1.57
1	292.83	1153.15	1.58
1	298.12	1130.11	1.58
1	303.1	1108.55	1.57
1	308.08	1086.97	1.57
1	313.06	1065.59	1.57
1	318.35	1043.05	1.56

System: dodecane + heptane; phases: Liquid
Fixed: Pressure, kPa = 101
Property: Mass density, kg/m3 (Liquid); method: VIBTUB:UFactor:4
Mole fraction of heptane	Temperature, K	Mass density, kg/m3	uncertainty
0	293.153	748.921	0.628
0	298.15	745.269	0.633
0	303.152	741.636	0.638
0	308.15	738.031	0.642
0	313.15	734.369	0.647
0	318.15	730.715	0.652
0.0991	293.152	744.788	0.634
0.0991	298.15	741.128	0.638
0.0991	303.152	737.456	0.643
0.0991	308.15	733.816	0.648
0.0991	313.149	730.129	0.652
0.0991	318.149	726.449	0.657
0.2008	293.153	740.186	0.64
0.2008	298.149	736.497	0.644
0.2008	303.152	732.789	0.649
0.2008	308.15	729.111	0.654
0.2008	313.151	725.372	0.659
0.2008	318.149	721.654	0.663
0.2998	293.154	735.319	0.646
0.2998	298.154	731.58	0.651
0.2998	303.155	727.833	0.656
0.2998	308.152	724.073	0.66
0.2998	313.155	720.306	0.665
0.2998	318.147	716.534	0.67
0.3996	293.155	729.97	0.653
0.3996	298.156	726.184	0.658
0.3996	303.156	722.389	0.663
0.3996	308.155	718.583	0.668
0.3996	313.155	714.763	0.673
0.3996	318.148	710.938	0.678
0.5	293.155	724.072	0.661
0.5	298.155	720.233	0.666
0.5	303.156	716.383	0.671
0.5	308.155	712.522	0.676
0.5	313.151	708.645	0.681
0.5	318.152	704.756	0.686
0.6	293.155	717.632	0.669
0.6	298.156	713.735	0.674
0.6	303.156	709.824	0.679
0.6	308.155	705.898	0.684
0.6	313.153	701.955	0.689
0.6	318.148	698	0.694
0.7005	293.149	710.489	0.678
0.7005	298.15	706.501	0.683
0.7005	303.15	702.52	0.688
0.7005	308.15	698.575	0.693
0.7005	313.15	694.545	0.699
0.7005	318.15	690.511	0.704
0.7995	293.151	702.66	0.688
0.7995	298.149	698.598	0.693
0.7995	303.15	694.549	0.698
0.7995	308.15	690.497	0.704
0.7995	313.149	686.378	0.709
0.7995	318.149	682.231	0.714
0.8486	293.152	698.428	0.693
0.8486	298.151	694.34	0.699
0.8486	303.152	690.238	0.704
0.8486	308.148	686.148	0.709
0.8486	313.151	682.014	0.715
0.8486	318.149	677.842	0.72
0.8988	293.15	693.851	0.699
0.8988	298.148	689.718	0.704
0.8988	303.151	685.588	0.71
0.8988	308.152	681.426	0.715
0.8988	313.15	677.238	0.721
0.8988	318.15	673.004	0.726
0.9498	293.151	688.947	0.705
0.9498	298.149	684.775	0.711
0.9498	303.149	680.563	0.716
0.9498	308.151	676.348	0.722
0.9498	313.151	672.083	0.727
0.9498	318.15	667.78	0.733
1	293.152	683.803	0.712
1	298.152	679.548	0.718
1	303.149	675.293	0.723
1	308.15	671.015	0.729
1	313.149	666.684	0.734
1	318.149	662.324	0.74

System: dodecane + heptane; phases: Liquid
Property: Speed of sound, m/s (Liquid); method: Pulse-echo method
Mole fraction of heptane	Temperature, K	Pressure, kPa	Speed of sound, m/s	uncertainty
0	292.87	15200	1384.86	2.37
0	292.87	30390	1457.92	2.39
0	292.87	45590	1524.08	2.42
0	292.87	60790	1584.48	2.46
0	292.87	75990	1640.68	2.5
0	292.87	91180	1692.75	2.54
0	292.87	101320	1725.79	2.57
0	298.16	15200	1365.87	2.37
0	298.16	30390	1440.05	2.39
0	298.16	45580	1506.96	2.43
0	298.16	60790	1567.98	2.47
0	298.16	75990	1625.22	2.51
0	298.16	91180	1677.72	2.55
0	298.16	101320	1711.12	2.58
0	303.14	30390	1423.76	2.39
0	303.14	45590	1491.41	2.43
0	303.14	60790	1553.13	2.47
0	303.14	75990	1610.86	2.51
0	303.14	91180	1664.07	2.55
0	303.14	101320	1697.44	2.58
0	303.15	15200	1348.47	2.36
0	308.13	75990	1596.77	2.51
0	308.13	91180	1650.93	2.56
0	308.14	15200	1331	2.36
0	308.14	30390	1407.58	2.39
0	308.14	45590	1476.26	2.42
0	308.14	60790	1538.62	2.46
0	313.21	15200	1313.37	2.36
0	313.21	30390	1391.07	2.39
0	313.21	45590	1460.8	2.43
0	313.21	60790	1524.06	2.47
0	313.21	75990	1582.53	2.51
0	313.21	91180	1637.3	2.55
0	313.21	101320	1671.27	2.58
0	318.29	15200	1296.21	2.36
0	318.29	30390	1375.02	2.39
0	318.29	45590	1445.53	2.43
0	318.29	60790	1509.73	2.47
0	318.29	91180	1624.11	2.56
0	318.29	101320	1658.55	2.58
0	318.3	75990	1568.82	2.51
0.1014	292.86	30390	1449.59	2.39
0.1014	292.86	45590	1516.22	2.42
0.1014	292.86	60790	1576.99	2.46
0.1014	292.86	75990	1633.56	2.5
0.1014	292.86	91180	1686.1	2.55
0.1014	292.86	101320	1719.18	2.57
0.1014	292.87	15200	1375.72	2.37
0.1014	298.15	45590	1499.13	2.43
0.1014	298.15	60790	1560.55	2.47
0.1014	298.15	75990	1618.24	2.51
0.1014	298.15	91180	1671	2.55
0.1014	298.15	101320	1704.39	2.58
0.1014	298.17	15200	1356.61	2.37
0.1014	298.18	30390	1431.67	2.39
0.1014	303.13	101320	1691.24	2.57
0.1014	303.14	15200	1339.11	2.37
0.1014	303.14	30390	1415.25	2.39
0.1014	303.14	45590	1483.54	2.43
0.1014	303.14	60790	1545.65	2.47
0.1014	303.14	75990	1603.75	2.51
0.1014	303.14	91180	1657.4	2.55
0.1014	308.12	45590	1468.21	2.43
0.1014	308.12	60790	1531.01	2.47
0.1014	308.12	75990	1589.42	2.51
0.1014	308.12	91180	1643.78	2.55
0.1014	308.12	101320	1677.8	2.58
0.1014	308.13	15200	1321.52	2.36
0.1014	308.13	30390	1398.85	2.39
0.1014	313.1	101320	1665	2.58
0.1014	313.11	15200	1304.05	2.36
0.1014	313.11	30390	1382.65	2.39
0.1014	313.11	45590	1452.96	2.43
0.1014	313.11	60790	1516.71	2.47
0.1014	313.11	75990	1575.78	2.51
0.1014	313.11	91180	1630.7	2.55
0.1014	318.19	101320	1652.23	2.58
0.1014	318.2	15200	1286.68	2.36
0.1014	318.2	30390	1366.57	2.39
0.1014	318.2	45590	1437.84	2.43
0.1014	318.2	60790	1502.48	2.47
0.1014	318.2	76190	1562.64	2.51
0.1014	318.2	91180	1617.71	2.56
0.3007	292.87	15200	1355.27	2.37
0.3007	292.87	30390	1430.93	2.39
0.3007	292.87	45590	1498.79	2.42
0.3007	292.87	60790	1560.58	2.47
0.3007	292.87	75990	1618.52	2.51
0.3007	292.87	91180	1671.55	2.55
0.3007	292.87	101320	1705.08	2.57
0.3007	298.15	60790	1544.37	2.47
0.3007	298.16	15200	1336.04	2.37
0.3007	298.16	30390	1413	2.39
0.3007	298.16	45590	1481.87	2.43
0.3007	298.16	75990	1602.74	2.51
0.3007	298.16	91180	1656.72	2.55
0.3007	298.16	101320	1690.72	2.58
0.3007	303.14	45590	1466.1	2.43
0.3007	303.14	91180	1642.84	2.55
0.3007	303.14	101320	1677	2.58
0.3007	303.15	15200	1317.94	2.36
0.3007	303.15	30390	1396.02	2.39
0.3007	303.15	60790	1529.42	2.47
0.3007	303.15	75990	1588.11	2.51
0.3007	308.13	30390	1379.74	2.39
0.3007	308.13	45590	1450.61	2.43
0.3007	308.13	91180	1629.54	2.56
0.3007	308.13	101320	1664.11	2.58
0.3007	308.14	15200	1300.37	2.36
0.3007	308.14	60790	1514.95	2.47
0.3007	308.14	75990	1574.27	2.51
0.3007	313.11	15200	1282.94	2.36
0.3007	313.11	30390	1363.59	2.39
0.3007	313.11	75990	1560.13	2.51
0.3007	313.11	91180	1616.38	2.56
0.3007	313.11	101320	1651.13	2.58
0.3007	313.12	45590	1435.47	2.43
0.3007	313.12	60790	1500.53	2.47
0.3007	318.29	15200	1265.2	2.36
0.3007	318.29	45590	1420.19	2.43
0.3007	318.29	60790	1486	2.47
0.3007	318.29	75990	1546.09	2.51
0.3007	318.29	91180	1602.72	2.56
0.3007	318.29	101320	1638.19	2.59
0.3007	318.3	30390	1347.31	2.39
0.4999	292.85	15200	1334.08	2.36
0.4999	292.85	30390	1411.63	2.39
0.4999	292.85	45590	1480.83	2.42
0.4999	292.85	60790	1543.74	2.47
0.4999	292.85	75990	1602.4	2.51
0.4999	292.85	91180	1656.6	2.55
0.4999	292.85	101320	1690.54	2.57
0.4999	298.15	30390	1393.37	2.39
0.4999	298.15	45590	1463.98	2.43
0.4999	298.15	60790	1527.72	2.47
0.4999	298.15	75990	1586.78	2.51
0.4999	298.15	91180	1641.68	2.56
0.4999	298.15	101320	1675.98	2.58
0.4999	298.16	15200	1314.64	2.37
0.4999	303.14	15200	1296.52	2.37
0.4999	303.14	30390	1376.63	2.39
0.4999	303.14	45590	1448.02	2.43
0.4999	303.14	60790	1512.86	2.47
0.4999	303.14	75990	1572.42	2.51
0.4999	303.14	91180	1627.94	2.56
0.4999	303.14	101320	1662.59	2.58
0.4999	308.11	101320	1649.49	2.58
0.4999	308.12	45590	1432.66	2.43
0.4999	308.12	91180	1614.63	2.56
0.4999	308.13	15200	1278.78	2.36
0.4999	308.13	30390	1360.22	2.39
0.4999	308.13	60790	1498.11	2.47
0.4999	308.13	75990	1558.06	2.52
0.4999	313.08	101320	1636.7	2.58
0.4999	313.09	60790	1483.79	2.47
0.4999	313.09	75990	1544.19	2.52
0.4999	313.09	91180	1601.22	2.56
0.4999	313.1	15200	1261.23	2.36
0.4999	313.1	30390	1344.09	2.39
0.4999	313.1	45590	1417.58	2.43
0.4999	318.18	30390	1327.83	2.43
0.4999	318.18	45590	1402.23	2.42
0.4999	318.18	60790	1469.45	2.46
0.4999	318.18	75990	1530.55	2.53
0.4999	318.18	91180	1587.8	2.65
0.4999	318.18	101320	1623.81	2.99
0.4999	318.19	15200	1243.62	3.68
0.5003	292.86	15200	1333.83	2.36
0.5003	292.86	30390	1411.41	2.39
0.5003	292.86	45590	1480.83	2.42
0.5003	292.86	60790	1543.85	2.47
0.5003	292.86	75990	1602.5	2.51
0.5003	292.86	91180	1656.85	2.55
0.5003	292.87	101320	1690.95	2.56
0.5003	298.15	15200	1314.59	2.37
0.5003	298.15	30390	1393.35	2.39
0.5003	298.15	45590	1464.06	2.43
0.5003	298.15	60790	1527.95	2.47
0.5003	298.15	75990	1586.99	2.51
0.5003	298.15	91180	1642.08	2.56
0.5003	298.15	101320	1676.37	2.57
0.5003	303.13	101320	1663.02	2.58
0.5003	303.14	30390	1376.54	2.39
0.5003	303.14	45590	1448.06	2.43
0.5003	303.14	60790	1513.04	2.47
0.5003	303.14	75990	1572.62	2.51
0.5003	303.14	91180	1628.32	2.56
0.5003	303.15	15200	1296.54	2.37
0.5003	308.13	30390	1360.18	2.39
0.5003	308.13	60790	1498.15	2.47
0.5003	308.13	75990	1558.18	2.52
0.5003	308.13	91180	1614.72	2.56
0.5003	308.13	101320	1649.8	2.58
0.5003	308.14	15200	1278.68	2.36
0.5003	308.14	45590	1432.62	2.43
0.5003	313.11	30390	1344.17	2.39
0.5003	313.11	45590	1417.54	2.43
0.5003	313.11	60790	1483.92	2.47
0.5003	313.11	75990	1544.42	2.52
0.5003	313.11	91180	1601.43	2.56
0.5003	313.11	101320	1637.03	2.58
0.5003	313.12	15200	1261.21	2.36
0.5003	318.28	101320	1623.85	2.97
0.5003	318.29	15200	1243.23	3.68
0.5003	318.29	30390	1327.48	3.77
0.5003	318.29	45590	1401.87	3.47
0.5003	318.29	60790	1469.14	3.32
0.5003	318.29	75990	1530.37	3.03
0.5003	318.29	91180	1587.58	2.95
0.7007	292.87	15200	1306.22	2.37
0.7007	292.87	30390	1386.25	2.39
0.7007	292.87	45590	1457.87	2.43
0.7007	292.87	60790	1522.75	2.47
0.7007	292.87	75990	1582.41	2.51
0.7007	292.87	91180	1637.96	2.56
0.7007	292.87	101320	1672.59	2.58
0.7007	298.15	45590	1440.76	2.43
0.7007	298.15	60790	1506.48	2.47
0.7007	298.15	75990	1566.49	2.52
0.7007	298.16	15200	1286.56	2.37
0.7007	298.16	30390	1368.16	2.39
0.7007	298.16	91180	1623.2	2.57
0.7007	298.16	101320	1658.09	2.59
0.7007	303.14	60790	1491.33	2.47
0.7007	303.14	75990	1552.04	2.52
0.7007	303.14	91180	1609.1	2.57
0.7007	303.14	101320	1644.6	2.59
0.7007	303.15	15200	1268.13	2.36
0.7007	303.15	30390	1351.31	2.39
0.7007	303.15	45590	1424.99	2.43
0.7007	308.13	30390	1334.72	2.39
0.7007	308.13	45590	1409.4	2.43
0.7007	308.13	60790	1476.64	2.47
0.7007	308.13	75990	1537.9	2.52
0.7007	308.13	91180	1595.34	2.57
0.7007	308.13	101320	1631.3	2.6
0.7007	308.14	15200	1250.11	2.36
0.7007	313.1	60790	1462.11	2.48
0.7007	313.1	91180	1581.89	2.57
0.7007	313.11	15200	1232.21	2.36
0.7007	313.11	30390	1318.2	2.39
0.7007	313.11	45590	1393.77	2.43
0.7007	313.11	75990	1524.13	2.52
0.7007	313.11	101320	1618.47	2.6
0.7007	318.3	75990	1510	2.52
0.7007	318.3	101320	1605.02	2.6
0.7007	318.31	15200	1213.91	2.36
0.7007	318.31	30390	1301.35	2.4
0.7007	318.31	45590	1378.02	2.44
0.7007	318.31	60790	1447.06	2.48
0.7007	318.31	91180	1568.11	2.57
0.8496	292.87	101320	1658.59	2.58
0.8496	292.88	15200	1284	2.36
0.8496	292.88	75990	1566.35	2.52
0.8496	292.89	30390	1366.45	2.39
0.8496	292.89	45590	1439.71	2.43
0.8496	292.89	60790	1505.88	2.47
0.8496	292.89	91180	1623.3	2.56
0.8496	298.17	15200	1264.45	2.37
0.8496	298.17	30390	1348.6	2.39
0.8496	298.17	45590	1422.91	2.43
0.8496	298.17	60790	1489.86	2.48
0.8496	298.17	75990	1551.04	2.52
0.8496	298.17	91180	1608.32	2.57
0.8496	298.17	101320	1644.11	2.59
0.8496	303.15	30390	1331.43	2.39
0.8496	303.15	75990	1536.54	2.52
0.8496	303.15	91180	1594.21	2.57
0.8496	303.15	101320	1630.51	2.59
0.8496	303.16	15200	1245.81	2.37
0.8496	303.16	45590	1406.76	2.43
0.8496	303.16	60790	1474.78	2.48
0.8496	308.15	15200	1227.4	2.36
0.8496	308.15	30390	1314.44	2.39
0.8496	308.15	45590	1390.76	2.43
0.8496	308.15	60790	1459.69	2.48
0.8496	308.15	75990	1522.28	2.52
0.8496	308.15	91180	1580.38	2.57
0.8496	308.15	101320	1617.18	2.6
0.8496	313.12	30390	1297.86	2.39
0.8496	313.12	45590	1375.28	2.43
0.8496	313.12	60790	1444.9	2.48
0.8496	313.12	75990	1508.43	2.52
0.8496	313.12	91180	1566.77	2.57
0.8496	313.12	101320	1603.95	2.6
0.8496	313.13	15200	1209.32	2.36
0.8496	318.19	45590	1359.93	2.44
0.8496	318.2	15200	1191.3	2.37
0.8496	318.2	30390	1281.34	2.4
0.8496	318.2	60790	1430.41	2.49
0.8496	318.2	75990	1494.55	2.53
0.8496	318.2	91180	1553.34	2.58
0.8496	318.2	101320	1590.76	2.6
0.9391	292.86	15200	1268.7	2.37
0.9391	292.86	30410	1352.91	2.39
0.9391	292.86	45590	1427.28	2.43
0.9391	292.86	60790	1494.13	2.48
0.9391	292.86	75990	1555.34	2.52
0.9391	292.86	91180	1612.73	2.57
0.9391	292.86	101320	1647.3	2.6
0.9391	298.14	30410	1333.19	2.4
0.9391	298.14	45590	1408.65	2.44
0.9391	298.14	60790	1476.57	2.48
0.9391	298.14	91180	1596.37	2.57
0.9391	298.14	101320	1632.61	2.61
0.9391	298.15	15200	1247.06	2.37
0.9391	298.15	75990	1538.65	2.52
0.9391	303.12	15200	1228.3	2.36
0.9391	303.12	30390	1315.49	2.39
0.9391	303.12	45590	1392.01	2.44
0.9391	303.12	60790	1461.1	2.48
0.9391	303.12	75990	1523.83	2.52
0.9391	303.12	91180	1582.05	2.58
0.9391	303.12	101320	1618.87	2.62
0.9391	308.11	30390	1298.47	2.39
0.9391	308.11	45590	1376.13	2.44
0.9391	308.11	60790	1445.89	2.48
0.9391	308.11	75990	1509.54	2.52
0.9391	308.11	91180	1567.99	2.58
0.9391	308.11	101320	1605.32	2.62
0.9391	308.12	15200	1209.54	2.36
0.9391	313.08	15200	1191.35	2.36
0.9391	313.08	30390	1281.76	2.39
0.9391	313.08	45590	1360.59	2.44
0.9391	313.08	60790	1431.36	2.48
0.9391	313.08	75990	1495.62	2.53
0.9391	313.08	91180	1554.5	2.58
0.9391	313.08	101320	1592.12	2.62
0.9391	318.17	30390	1264.93	2.4
0.9391	318.17	60790	1416.68	2.49
0.9391	318.17	75990	1481.55	2.53
0.9391	318.17	91180	1540.89	2.58
0.9391	318.17	101320	1578.83	2.63
0.9391	318.18	15200	1172.88	2.36
0.9391	318.18	45590	1344.99	2.44
0.97	292.85	15200	1263.43	2.37
0.97	292.85	30390	1348.3	2.39
0.97	292.85	60790	1490.39	2.48
0.97	292.85	75990	1551.97	2.52
0.97	292.85	91180	1609.5	2.57
0.97	292.86	45590	1423.08	2.43
0.97	292.86	101320	1645.41	2.59
0.97	298.14	30390	1329.39	2.4
0.97	298.14	45590	1405.37	2.44
0.97	298.14	60790	1473.91	2.48
0.97	298.14	75990	1536.16	2.52
0.97	298.14	91180	1594.08	2.57
0.97	298.14	101320	1630.61	2.6
0.97	298.15	15200	1242.93	2.37
0.97	303.12	30390	1311.97	2.39
0.97	303.12	45590	1388.91	2.44
0.97	303.12	60790	1458.37	2.48
0.97	303.12	75990	1521.53	2.53
0.97	303.12	91180	1579.93	2.58
0.97	303.12	101320	1616.93	2.6
0.97	303.13	15200	1223.98	2.36
0.97	308.11	30390	1294.92	2.39
0.97	308.11	45590	1372.98	2.44
0.97	308.11	60790	1443.2	2.48
0.97	308.11	75990	1507.23	2.53
0.97	308.11	101320	1603.35	2.61
0.97	308.12	15200	1205.41	2.36
0.97	308.12	91180	1565.8	2.58
0.97	313.09	30390	1278.09	2.39
0.97	313.09	45590	1357.45	2.44
0.97	313.09	60790	1428.55	2.48
0.97	313.09	75990	1493.12	2.53
0.97	313.09	91180	1552.26	2.58
0.97	313.09	101320	1589.86	2.61
0.97	313.1	15200	1186.91	2.36
0.97	318.18	75990	1479.08	2.53
0.97	318.19	15200	1168.36	2.36
0.97	318.19	30390	1261.12	2.4
0.97	318.19	45590	1341.73	2.44
0.97	318.19	60790	1413.75	2.49
0.97	318.19	91180	1538.71	2.58
0.97	318.19	101320	1576.66	2.61
1	292.88	45590	1417.74	2.43
1	292.88	60790	1485.51	2.47
1	292.88	75990	1547.22	2.52
1	292.88	91180	1605.01	2.57
1	292.88	101320	1641.16	2.6
1	292.89	15200	1257.03	2.37
1	292.89	30390	1342.44	2.39
1	298.15	15200	1236.71	2.37
1	298.15	30390	1323.71	2.4
1	298.15	45590	1400.07	2.44
1	298.15	60790	1469.06	2.48
1	298.15	91180	1589.69	2.57
1	298.15	101320	1626.37	2.61
1	298.16	75990	1531.64	2.52
1	303.13	60790	1453.51	2.48
1	303.13	91180	1575.64	2.58
1	303.13	101320	1612.63	2.61
1	303.14	30390	1306.4	2.39
1	303.14	45590	1383.71	2.44
1	303.14	75990	1517.05	2.53
1	303.15	15200	1217.79	2.36
1	308.12	45590	1367.92	2.44
1	308.12	75990	1502.72	2.53
1	308.12	91180	1561.51	2.58
1	308.12	101320	1599.11	2.62
1	308.13	15200	1199.18	2.36
1	308.13	30390	1289.35	2.39
1	308.13	60790	1438.41	2.48
1	313.1	30390	1272.52	2.39
1	313.1	45590	1352.49	2.44
1	313.1	60790	1423.83	2.48
1	313.1	75990	1488.71	2.53
1	313.1	91180	1548.07	2.58
1	313.1	101320	1585.66	2.62
1	313.11	15200	1180.69	2.36
1	318.28	15200	1161.79	2.36
1	318.28	30390	1255.32	2.41
1	318.28	45590	1336.49	2.45
1	318.28	60790	1408.63	2.49
1	318.28	75990	1474.4	2.54
1	318.28	91180	1534.29	2.58
1	318.28	101320	1572.33	2.62
