Measured thermophysical data. Saturated liquid densities of propane at T = (280 to 365) K
Source: J. Chem. Thermodyn., 2007, 10.1016/j.jct.2006.07.012
Compound 1: propane, C3H8, InChI=1S/C3H8/c1-3-2/h3H2,1-2H3, purity 99.997%

System: propane; phases: Fluid (supercritical or subcritical phases)
Property: Mass density, kg/m3 (Fluid (supercritical or subcritical phases)); method: Bellows volumetry
Temperature, K	Pressure, kPa	Mass density, kg/m3	uncertainty
280	581.4	519.39	0.94
280	604.8	519.45	0.94
280	628.1	519.49	0.96
280	651.4	519.57	0.97
280	674.7	519.62	0.97
280	698	519.69	0.94
280	721.4	519.75	0.94
300	1006	489.83	0.88
300	1029.4	489.89	0.88
300	1052.6	489.98	0.88
300	1075.9	490.05	0.88
300	1099.3	490.1	0.88
300	1122.6	490.2	0.9
300	1145.9	490.3	0.88
320	1611.1	455.49	0.82
320	1634.4	455.61	0.82
320	1657.6	455.75	0.82
320	1680.9	455.88	0.84
320	1704.2	455.99	0.84
320	1727.5	456.09	0.82
320	1750.7	456.24	0.82
340	2447.1	412.74	0.74
340	2470.3	412.98	0.74
340	2493.4	413.23	0.74
340	2516.6	413.48	0.76
340	2539.8	413.66	0.76
340	2563	413.88	0.75
340	2586.2	414.08	0.74
360	3558	346.61	0.64
360	3558.8	346.43	0.64
360	3566.8	346.83	0.63
360	3569.1	347.17	0.63
360	3569.9	346.97	0.64
360	3580.3	347.61	0.63
360	3591.6	348.04	0.63
360	3592.2	347.94	0.63
360	3602.8	348.46	0.64
360	3614	348.96	0.69
360	3614.5	348.91	0.63
360	3622.6	349.31	0.63
360	3625.2	349.4	0.63
360	3636.5	349.82	0.71
360	3636.9	349.82	0.63
360	3647.8	350.25	0.65
360	3659	350.7	0.65
360	3659.4	350.7	0.65
360	3670.3	351.13	0.65
360	3678.7	351.52	0.65
360	3681.8	351.59	0.65
360	3704.3	352.44	0.8
360	3726.8	353.19	0.65
365	3897.8	317.84	0.66
365	3903	318.4	0.65
365	3923.7	320.49	0.64
365	3944.7	322.39	0.63
365	3965.9	324.14	0.63
365	3987.2	325.86	0.62
365	4008.7	327.39	0.61
365	4030.4	328.84	0.63
