Measured thermophysical data. Molecular interactions in (2,4,6-trimethyl-1,3,5-trioxane + n-alkyl acetates) at T=(298.15, 303.15, and 308.15) K
Source: J. Chem. Thermodyn., 2006, 10.1016/j.jct.2006.03.014
Compound 1: 2,4,6-trimethyl-1,3,5-trioxane, C6H12O3, InChI=1S/C6H12O3/c1-4-7-5(2)9-6(3)8-4/h4-6H,1-3H3
Compound 2: methyl ethanoate, C3H6O2, InChI=1S/C3H6O2/c1-3(4)5-2/h1-2H3
Compound 3: ethyl acetate, C4H8O2, InChI=1S/C4H8O2/c1-3-6-4(2)5/h3H2,1-2H3
Compound 4: butyl ethanoate, C6H12O2, InChI=1S/C6H12O2/c1-3-4-5-8-6(2)7/h3-5H2,1-2H3

System: 2,4,6-trimethyl-1,3,5-trioxane; phases: Liquid
Fixed: Pressure, kPa = 101
Property: Viscosity, Pa*s (Liquid); method: Capillary tube (Ostwald; Ubbelohde) method
Temperature, K	Viscosity, Pa*s	uncertainty
298.15	0.001107	1.5e-05
303.15	0.001001	1.4e-05
308.15	0.000907	1.3e-05

System: 2,4,6-trimethyl-1,3,5-trioxane; phases: Liquid
Fixed: Pressure, kPa = 101
Property: Mass density, kg/m3 (Liquid); method: Pycnometric method
Temperature, K	Mass density, kg/m3	uncertainty
298.15	988.4	1.3
303.15	982.6	1.3
308.15	976.4	1.4

System: methyl ethanoate; phases: Liquid
Property: Refractive index (Na D-line) (Liquid); method: Standard Abbe refractometry
Temperature, K	Pressure, kPa	Refractive index (Na D-line)	uncertainty
298.15	101.325	1.3585	0.0009

System: methyl ethanoate; phases: Liquid
Fixed: Pressure, kPa = 101
Property: Viscosity, Pa*s (Liquid); method: Capillary tube (Ostwald; Ubbelohde) method
Temperature, K	Viscosity, Pa*s	uncertainty
298.15	0.000367	8e-06
303.15	0.000351	7e-06
308.15	0.000338	7e-06

System: methyl ethanoate; phases: Liquid
Fixed: Pressure, kPa = 101
Property: Mass density, kg/m3 (Liquid); method: Pycnometric method
Temperature, K	Mass density, kg/m3	uncertainty
298.15	926.7	1.3
303.15	919.7	1.2
308.15	916.2	1

System: ethyl acetate; phases: Liquid
Property: Refractive index (Na D-line) (Liquid); method: Standard Abbe refractometry
Temperature, K	Pressure, kPa	Refractive index (Na D-line)	uncertainty
298.15	101.325	1.37	0.0009

System: ethyl acetate; phases: Liquid
Fixed: Pressure, kPa = 101
Property: Viscosity, Pa*s (Liquid); method: Capillary tube (Ostwald; Ubbelohde) method
Temperature, K	Viscosity, Pa*s	uncertainty
298.15	0.00043	8e-06
303.15	0.000401	8e-06
308.15	0.000387	8e-06

System: ethyl acetate; phases: Liquid
Fixed: Pressure, kPa = 101
Property: Mass density, kg/m3 (Liquid); method: Pycnometric method
Temperature, K	Mass density, kg/m3	uncertainty
298.15	893.8	1.2
303.15	887.6	1.2
308.15	881.2	1.2

System: butyl ethanoate; phases: Liquid
Property: Refractive index (Na D-line) (Liquid); method: Standard Abbe refractometry
Temperature, K	Pressure, kPa	Refractive index (Na D-line)	uncertainty
298.15	101.325	1.3918	0.0009

System: butyl ethanoate; phases: Liquid
Fixed: Pressure, kPa = 101
Property: Viscosity, Pa*s (Liquid); method: Capillary tube (Ostwald; Ubbelohde) method
Temperature, K	Viscosity, Pa*s	uncertainty
298.15	0.000685	1e-05
303.15	0.000636	1e-05
308.15	0.000579	9e-06

System: butyl ethanoate; phases: Liquid
Fixed: Pressure, kPa = 101
Property: Mass density, kg/m3 (Liquid); method: Pycnometric method
Temperature, K	Mass density, kg/m3	uncertainty
298.15	876.4	1.1
303.15	871.3	1.1
308.15	866.2	1.1

System: methyl ethanoate + 2,4,6-trimethyl-1,3,5-trioxane; phases: Liquid
Fixed: Pressure, kPa = 101
Property: Viscosity, Pa*s (Liquid); method: Capillary tube (Ostwald; Ubbelohde) method
Temperature, K	Mole fraction of 2,4,6-trimethyl-1,3,5-trioxane	Viscosity, Pa*s	uncertainty
298.15	0	0.000367	8e-06
298.15	0.0203	0.000378	8e-06
298.15	0.0405	0.000388	8e-06
298.15	0.0601	0.000398	8e-06
298.15	0.0807	0.000408	8e-06
298.15	0.1002	0.000416	8e-06
298.15	0.201	0.000455	8e-06
298.15	0.3009	0.000489	9e-06
298.15	0.397	0.000522	9e-06
298.15	0.5001	0.000566	1e-05
298.15	0.7002	0.000696	1.1e-05
298.15	0.8005	0.000795	1.2e-05
298.15	0.9001	0.000925	1.3e-05
298.15	1	0.001107	1.5e-05
303.15	0	0.000351	7e-06
303.15	0.0203	0.000359	7e-06
303.15	0.0405	0.000367	8e-06
303.15	0.0601	0.000373	8e-06
303.15	0.0807	0.00038	8e-06
303.15	0.1002	0.000386	8e-06
303.15	0.201	0.00041	8e-06
303.15	0.3009	0.000429	8e-06
303.15	0.397	0.00045	9e-06
303.15	0.5001	0.000481	9e-06
303.15	0.7002	0.000593	1e-05
303.15	0.8005	0.000688	1.1e-05
303.15	0.9001	0.000816	1.2e-05
303.15	1	0.001001	1.4e-05
308.15	0	0.000338	7e-06
308.15	0.0203	0.000345	7e-06
308.15	0.0405	0.00035	7e-06
308.15	0.0601	0.000355	7e-06
308.15	0.0807	0.000359	7e-06
308.15	0.1002	0.000362	8e-06
308.15	0.201	0.000372	8e-06
308.15	0.3009	0.000374	8e-06
308.15	0.397	0.000377	8e-06
308.15	0.5001	0.00039	8e-06
308.15	0.7002	0.000479	9e-06
308.15	0.8005	0.00057	1e-05
308.15	0.9001	0.000704	1.1e-05
308.15	1	0.000907	1.3e-05

System: methyl ethanoate + 2,4,6-trimethyl-1,3,5-trioxane; phases: Liquid
Fixed: Pressure, kPa = 101
Property: Mass density, kg/m3 (Liquid); method: Pycnometric method
Temperature, K	Mole fraction of 2,4,6-trimethyl-1,3,5-trioxane	Mass density, kg/m3	uncertainty
298.15	0	926.7	1.3
298.15	0.0203	928.4	1.3
298.15	0.0405	930.1	1.3
298.15	0.0601	931.8	1.3
298.15	0.0807	933.4	1.3
298.15	0.1002	935	1.3
298.15	0.201	942.9	1.3
298.15	0.3009	950.3	1.3
298.15	0.397	956.9	1.3
298.15	0.5001	963.5	1.3
298.15	0.7002	974.8	1.3
298.15	0.8005	979.8	1.3
298.15	0.9001	984.3	1.3
298.15	1	988.4	1.3
303.15	0	919.7	1.2
303.15	0.0203	921.5	1.2
303.15	0.0405	923.3	1.2
303.15	0.0601	925	1.2
303.15	0.0807	926.7	1.2
303.15	0.1002	928.4	1.2
303.15	0.201	936.6	1.2
303.15	0.3009	944.2	1.2
303.15	0.397	951	1.2
303.15	0.5001	957.7	1.2
303.15	0.7002	969.1	1.3
303.15	0.8005	974	1.3
303.15	0.9001	978.5	1.3
303.15	1	982.6	1.3
308.15	0	916.2	1
308.15	0.0203	918	1
308.15	0.0405	919.7	1.1
308.15	0.0601	921.4	1.1
308.15	0.0807	923.1	1.1
308.15	0.1002	924.7	1.1
308.15	0.201	932.6	1.1
308.15	0.3009	939.8	1.2
308.15	0.397	946.3	1.2
308.15	0.5001	952.7	1.2
308.15	0.7002	963.5	1.3
308.15	0.8005	968.2	1.3
308.15	0.9001	972.5	1.3
308.15	1	976.4	1.4

System: 2,4,6-trimethyl-1,3,5-trioxane + ethyl acetate; phases: Liquid
Fixed: Pressure, kPa = 101
Property: Viscosity, Pa*s (Liquid); method: Capillary tube (Ostwald; Ubbelohde) method
Temperature, K	Mole fraction of 2,4,6-trimethyl-1,3,5-trioxane	Viscosity, Pa*s	uncertainty
298.15	0	0.00043	8e-06
298.15	0.0203	0.000435	8e-06
298.15	0.04	0.000439	8e-06
298.15	0.0601	0.000446	8e-06
298.15	0.0799	0.000451	8e-06
298.15	0.1002	0.000457	8e-06
298.15	0.1957	0.000491	9e-06
298.15	0.3	0.00053	9e-06
298.15	0.4	0.000567	9e-06
298.15	0.5001	0.00061	9e-06
298.15	0.6001	0.000663	1e-05
298.15	0.7	0.000739	1.1e-05
298.15	0.8001	0.000832	1.2e-05
298.15	0.9	0.000947	1.3e-05
298.15	1	0.001107	1.5e-05
303.15	0	0.000401	8e-06
303.15	0.0203	0.000405	8e-06
303.15	0.04	0.000411	8e-06
303.15	0.0601	0.000419	8e-06
303.15	0.0799	0.000421	8e-06
303.15	0.1002	0.000428	8e-06
303.15	0.1957	0.000455	8e-06
303.15	0.3	0.000492	8e-06
303.15	0.4	0.00053	9e-06
303.15	0.5001	0.000574	9e-06
303.15	0.6001	0.000628	1e-05
303.15	0.7	0.000691	1e-05
303.15	0.8001	0.000766	1.1e-05
303.15	0.9	0.000861	1.2e-05
303.15	1	0.001001	1.4e-05
308.15	0	0.000387	8e-06
308.15	0.0203	0.000392	8e-06
308.15	0.04	0.000395	8e-06
308.15	0.0601	0.0004	8e-06
308.15	0.0799	0.000407	8e-06
308.15	0.1002	0.000412	8e-06
308.15	0.1957	0.000439	8e-06
308.15	0.3	0.000468	8e-06
308.15	0.4	0.000503	9e-06
308.15	0.5001	0.000539	9e-06
308.15	0.6001	0.000586	9e-06
308.15	0.7	0.000639	1e-05
308.15	0.8001	0.000708	1e-05
308.15	0.9	0.000789	1.1e-05
308.15	1	0.000907	1.3e-05

System: 2,4,6-trimethyl-1,3,5-trioxane + ethyl acetate; phases: Liquid
Fixed: Pressure, kPa = 101
Property: Mass density, kg/m3 (Liquid); method: Pycnometric method
Temperature, K	Mole fraction of 2,4,6-trimethyl-1,3,5-trioxane	Mass density, kg/m3	uncertainty
298.15	0	893.8	1.2
298.15	0.0203	896.3	1.2
298.15	0.04	898.7	1.2
298.15	0.0601	901.1	1.2
298.15	0.0799	903.5	1.2
298.15	0.1002	905.8	1.2
298.15	0.1957	916.6	1.2
298.15	0.3	927.8	1.2
298.15	0.4	937.9	1.3
298.15	0.5001	947.4	1.3
298.15	0.6001	956.4	1.3
298.15	0.7	965	1.3
298.15	0.8001	973.1	1.3
298.15	0.9	980.9	1.3
298.15	1	988.4	1.3
303.15	0	887.6	1.2
303.15	0.0203	890	1.2
303.15	0.04	892.4	1.2
303.15	0.0601	894.8	1.2
303.15	0.0799	897.2	1.3
303.15	0.1002	899.6	1.3
303.15	0.1957	910.4	1.3
303.15	0.3	921.6	1.3
303.15	0.4	931.8	1.3
303.15	0.5001	941.3	1.3
303.15	0.6001	950.4	1.3
303.15	0.7	959	1.3
303.15	0.8001	967.3	1.3
303.15	0.9	975.1	1.3
303.15	1	982.6	1.3
308.15	0	881.2	1.2
308.15	0.0203	883.7	1.2
308.15	0.04	886	1.2
308.15	0.0601	888.5	1.3
308.15	0.0799	890.8	1.3
308.15	0.1002	893.2	1.3
308.15	0.1957	904	1.3
308.15	0.3	915.2	1.3
308.15	0.4	925.4	1.3
308.15	0.5001	935	1.3
308.15	0.6001	944.1	1.3
308.15	0.7	952.7	1.3
308.15	0.8001	960.9	1.4
308.15	0.9	968.8	1.4
308.15	1	976.4	1.4

System: 2,4,6-trimethyl-1,3,5-trioxane + butyl ethanoate; phases: Liquid
Fixed: Pressure, kPa = 101
Property: Viscosity, Pa*s (Liquid); method: Capillary tube (Ostwald; Ubbelohde) method
Temperature, K	Mole fraction of 2,4,6-trimethyl-1,3,5-trioxane	Viscosity, Pa*s	uncertainty
298.15	0	0.000685	1e-05
298.15	0.0186	0.000688	1e-05
298.15	0.0368	0.000693	1e-05
298.15	0.0556	0.000696	1e-05
298.15	0.0744	0.000697	1e-05
298.15	0.093	0.000699	1e-05
298.15	0.1873	0.000713	1e-05
298.15	0.2831	0.000728	1.1e-05
298.15	0.3807	0.000755	1.1e-05
298.15	0.4799	0.000786	1.1e-05
298.15	0.5802	0.000831	1.2e-05
298.15	0.6828	0.000882	1.2e-05
298.15	0.7863	0.000945	1.3e-05
298.15	0.8924	0.001025	1.4e-05
298.15	1	0.001107	1.5e-05
303.15	0	0.000636	1e-05
303.15	0.0186	0.000637	1e-05
303.15	0.0368	0.000641	1e-05
303.15	0.0556	0.000646	1e-05
303.15	0.0744	0.00065	1e-05
303.15	0.093	0.000653	1e-05
303.15	0.1873	0.000668	1e-05
303.15	0.2831	0.000685	1e-05
303.15	0.3807	0.000706	1e-05
303.15	0.4799	0.000735	1.1e-05
303.15	0.5802	0.000771	1.1e-05
303.15	0.6828	0.000816	1.2e-05
303.15	0.7863	0.000867	1.2e-05
303.15	0.8924	0.000933	1.3e-05
303.15	1	0.001001	1.4e-05
308.15	0	0.000579	9e-06
308.15	0.0186	0.000581	9e-06
308.15	0.0368	0.000586	9e-06
308.15	0.0556	0.000588	9e-06
308.15	0.0744	0.000592	9e-06
308.15	0.093	0.000594	1e-05
308.15	0.1873	0.000612	1e-05
308.15	0.2831	0.000629	1e-05
308.15	0.3807	0.000649	1e-05
308.15	0.4799	0.000676	1e-05
308.15	0.5802	0.000708	1e-05
308.15	0.6828	0.000746	1.1e-05
308.15	0.7863	0.000793	1.1e-05
308.15	0.8924	0.000848	1.2e-05
308.15	1	0.000907	1.3e-05

System: 2,4,6-trimethyl-1,3,5-trioxane + butyl ethanoate; phases: Liquid
Fixed: Pressure, kPa = 101
Property: Mass density, kg/m3 (Liquid); method: Pycnometric method
Temperature, K	Mole fraction of 2,4,6-trimethyl-1,3,5-trioxane	Mass density, kg/m3	uncertainty
298.15	0	876.4	1.1
298.15	0.0186	878.3	1.1
298.15	0.0368	880.3	1.1
298.15	0.0556	882.3	1.1
298.15	0.0744	884.3	1.1
298.15	0.093	886.3	1.1
298.15	0.1873	896.5	1.2
298.15	0.2831	906.9	1.2
298.15	0.3807	917.7	1.2
298.15	0.4799	928.6	1.2
298.15	0.5802	939.8	1.2
298.15	0.6828	951.5	1.3
298.15	0.7863	963.2	1.3
298.15	0.8924	975.6	1.3
298.15	1	988.4	1.3
303.15	0	871.3	1.1
303.15	0.0186	873.2	1.1
303.15	0.0368	875.1	1.1
303.15	0.0556	877.1	1.1
303.15	0.0744	879.1	1.1
303.15	0.093	881	1.1
303.15	0.1873	891.1	1.2
303.15	0.2831	901.4	1.2
303.15	0.3807	912	1.2
303.15	0.4799	922.9	1.2
303.15	0.5802	934.1	1.2
303.15	0.6828	945.7	1.3
303.15	0.7863	957.6	1.3
303.15	0.8924	969.9	1.3
303.15	1	982.6	1.3
308.15	0	866.2	1.1
308.15	0.0186	868.2	1.1
308.15	0.0368	870.1	1.1
308.15	0.0556	872	1.1
308.15	0.0744	874	1.1
308.15	0.093	875.9	1.1
308.15	0.1873	885.7	1.1
308.15	0.2831	895.9	1.2
308.15	0.3807	906.4	1.2
308.15	0.4799	917.2	1.2
308.15	0.5802	928.2	1.3
308.15	0.6828	939.7	1.3
308.15	0.7863	951.4	1.3
308.15	0.8924	963.7	1.3
308.15	1	976.4	1.4
