Measured thermophysical data. Lithium bis(trifluoromethylsulfonyl)imide-added ionic liquid 1-ethyl-3-methylimidazolium bis(trifluoromethylsulfonyl)imide mixture: Densities and dynamic viscosities in the temperature range (298.15-358.15) K
Source: J. Chem. Thermodyn., 2018, 10.1016/j.jct.2017.08.033
Compound 1: 1-ethyl-3-methylimidazolium bis((trifluoromethyl)sulfonyl)imide, C8H11F6N3O4S2, InChI=1S/C6H11N2.C2F6NO4S2/c1-3-8-5-4-7(2)6-8;3-1(4,5)14(10,11)9-15(12,13)2(6,7)8/h4-6H,3H2,1-2H3;/q+1;-1, purity 99%
Compound 2: lithium bis((trifluoromethyl)sulfonyl)amide, C2F6LiNO4S2, InChI=1S/C2F6NO4S2.Li/c3-1(4,5)14(10,11)9-15(12,13)2(6,7)8;/q-1;+1, purity 99.95%

System: 1-ethyl-3-methylimidazolium bis((trifluoromethyl)sulfonyl)imide; phases: Liquid
Fixed: Pressure, kPa = 101
Property: Mass density, kg/m3 (Liquid); method: Vibrating tube method
Temperature, K	Mass density, kg/m3	uncertainty
298.15	1516	10
313.15	1500	10
328.15	1488	10
343.15	1474	10
358.15	1460	10

System: 1-ethyl-3-methylimidazolium bis((trifluoromethyl)sulfonyl)imide; phases: Liquid
Fixed: Pressure, kPa = 101
Property: Viscosity, Pa*s (Liquid); method: Falling or rolling sphere viscometry
Temperature, K	Viscosity, Pa*s	uncertainty
298.15	0.03072	0.00126
313.15	0.01926	0.00079
328.15	0.0131	0.00054
343.15	0.009465	0.000388
358.15	0.007117	0.000292

System: 1-ethyl-3-methylimidazolium bis((trifluoromethyl)sulfonyl)imide + lithium bis((trifluoromethyl)sulfonyl)amide; phases: Liquid
Fixed: Pressure, kPa = 101
Property: Mass density, kg/m3 (Liquid); method: Vibrating tube method
Temperature, K	Mole fraction of lithium bis((trifluoromethyl)sulfonyl)amide	Mass density, kg/m3	uncertainty
298.15	0	1516	10
298.15	0.05	1530	10
298.15	0.1	1542	10
298.15	0.2	1574	11
298.15	0.3	1607	11
298.15	0.4	1643	11
313.15	0	1500	10
313.15	0.05	1514	10
313.15	0.1	1526	10
313.15	0.2	1558	11
313.15	0.3	1590	11
313.15	0.4	1626	11
328.15	0	1488	10
328.15	0.05	1504	10
328.15	0.1	1516	10
328.15	0.2	1548	11
328.15	0.3	1580	11
328.15	0.4	1615	11
343.15	0	1474	10
343.15	0.05	1492	10
343.15	0.1	1504	10
343.15	0.2	1535	11
343.15	0.3	1567	11
343.15	0.4	1602	11
358.15	0	1460	10
358.15	0.05	1478	10
358.15	0.1	1490	10
358.15	0.2	1521	10
358.15	0.3	1552	11
358.15	0.4	1587	11

System: 1-ethyl-3-methylimidazolium bis((trifluoromethyl)sulfonyl)imide + lithium bis((trifluoromethyl)sulfonyl)amide; phases: Liquid
Fixed: Pressure, kPa = 101
Property: Viscosity, Pa*s (Liquid); method: Falling or rolling sphere viscometry
Temperature, K	Mole fraction of lithium bis((trifluoromethyl)sulfonyl)amide	Viscosity, Pa*s	uncertainty
298.15	0	0.03072	0.00126
298.15	0.05	0.03742	0.00221
298.15	0.1	0.0466	0.00409
298.15	0.2	0.08994	0.00789
298.15	0.3	0.1829	0.027
298.15	0.4	0.5881	0.0647
313.15	0	0.01926	0.00079
313.15	0.05	0.02272	0.00124
313.15	0.1	0.02737	0.002
313.15	0.2	0.04748	0.00355
313.15	0.3	0.08661	0.00966
313.15	0.4	0.2252	0.0261
328.15	0	0.0131	0.00054
328.15	0.05	0.0151	0.00078
328.15	0.1	0.01777	0.00116
328.15	0.2	0.02854	0.0019
328.15	0.3	0.04764	0.00444
328.15	0.4	0.1082	0.0098
343.15	0	0.009465	0.000388
343.15	0.05	0.01069	0.00053
343.15	0.1	0.01242	0.00075
343.15	0.2	0.01885	0.00115
343.15	0.3	0.02961	0.00242
343.15	0.4	0.06079	0.00466
358.15	0	0.007117	0.000292
358.15	0.05	0.007959	0.000381
358.15	0.1	0.00908	0.00052
358.15	0.2	0.01333	0.00078
358.15	0.3	0.02013	0.00149
358.15	0.4	0.03827	0.0024
