Measured thermophysical data. Possible precursors and products of deep hydrodesulfurization of gasoline and distillate fuels IV. Heat capacities, enthalpy increments, vapor pressures, and derived thermodynamic functions for dicyclohexylsulfide between the temperatures (5 and 520) K
Source: J. Chem. Thermodyn., 2004, 10.1016/j.jct.2003.11.012
Compound 1: dicyclohexyl sulfide, C12H22S, InChI=1S/C12H22S/c1-3-7-11(8-4-1)13-12-9-5-2-6-10-12/h11-12H,1-10H2

System: dicyclohexyl sulfide; phases: Crystal 3, Crystal 2, Gas
Property: Molar enthalpy of transition or fusion, kJ/mol (Crystal 3); method: Adiabatic calorimetry
Molar enthalpy of transition or fusion, kJ/mol	uncertainty
0	0.001

System: dicyclohexyl sulfide; phases: Crystal 2, Crystal 1, Gas
Property: Molar enthalpy of transition or fusion, kJ/mol (Crystal 2); method: ADIACA:UFactor:0.5
Molar enthalpy of transition or fusion, kJ/mol	uncertainty
10.009	0.011

System: dicyclohexyl sulfide; phases: Crystal 1, Liquid, Gas
Property: Molar enthalpy of transition or fusion, kJ/mol (Crystal 1); method: ADIACA:UFactor:0.5
Molar enthalpy of transition or fusion, kJ/mol	uncertainty
5.682	0.011

System: dicyclohexyl sulfide; phases: Crystal 3, Crystal 2, Gas
Property: Triple point temperature, K (Crystal 3); method: Adiabatic calorimetry
Triple point temperature, K	uncertainty
41.35	0.1

System: dicyclohexyl sulfide; phases: Crystal 2, Crystal 1, Gas
Property: Triple point temperature, K (Crystal 2); method: Adiabatic calorimetry
Triple point temperature, K	uncertainty
264.7	0.05

System: dicyclohexyl sulfide; phases: Crystal 1, Liquid, Gas
Property: Triple point temperature, K (Crystal 1); method: Adiabatic calorimetry
Triple point temperature, K	uncertainty
284.2	0.05

System: dicyclohexyl sulfide; phases: Crystal 3, Gas
Property: Molar heat capacity at saturation pressure, J/K/mol (Crystal 3); method: Vacuum adiabatic calorimetry
Temperature, K	Molar heat capacity at saturation pressure, J/K/mol	uncertainty
7.076	1.83	0.03
8.093	2.68	0.03
9.092	3.7	0.04
10.115	4.94	0.06
11.22	6.32	0.07
12.479	8.05	0.07
13.882	10.26	0.091
15.439	12.81	0.1
17.173	15.8	0.116
19.095	19.16	0.125
21.195	22.91	0.133
23.53	27.09	0.141
26.119	31.54	0.15
28.997	36.28	0.141
32.203	41.46	0.125
33.512	43.05	0.133
35.738	46.49	0.133
37.543	49.5	0.141
39.079	53.4	0.158

System: dicyclohexyl sulfide; phases: Crystal 2, Gas
Property: Molar heat capacity at saturation pressure, J/K/mol (Crystal 2); method: Vacuum adiabatic calorimetry
Temperature, K	Molar heat capacity at saturation pressure, J/K/mol	uncertainty
44.502	62.94	0.166
45.828	62.98	0.166
48.815	64.58	0.166
53.618	68.84	0.183
54.448	69.65	0.183
58.574	73.26	0.191
64.059	78.07	0.2
70.236	83.652	0.208
77.054	89.464	0.216
82.723	94.203	0.233
84.661	95.882	0.233
89.866	100.11	0.241
93.058	102.76	0.299
98.246	106.88	0.308
101.968	109.92	0.308
107.358	114.09	0.316
117.008	121.51	0.324
126.841	128.96	0.333
136.798	136.33	0.333
146.83	143.7	0.341
156.794	151.02	0.349
167.83	159.16	0.358
179.896	168.19	0.366
191.998	177.65	0.374
204.096	187.6	0.391
212.644	194.77	0.399
216.177	197.93	0.399
223.239	204.46	0.407
227.23	208.11	0.407
229.687	210.53	0.407
233.561	214.23	0.416
239.462	220.49	0.424
243.617	224.96	0.424
245.759	227.13	0.424
249.494	232.29	0.432
252.11	235.33	0.441
255.105	241.32	0.449
255.365	242.85	0.449
256.105	244.36	0.449
258.04	251.78	0.466
258.755	257.57	0.482

System: dicyclohexyl sulfide; phases: Crystal 1, Gas
Property: Molar heat capacity at saturation pressure, J/K/mol (Crystal 1); method: Vacuum adiabatic calorimetry
Temperature, K	Molar heat capacity at saturation pressure, J/K/mol	uncertainty
267.108	316.81	0.515
270.498	319.58	0.524
270.992	319.82	0.524
272.568	320.97	0.524
274.721	322.6	0.524
275.182	322.61	0.524
276.682	324.34	0.524
277.721	325.42	0.524
278.968	327.22	0.532

System: dicyclohexyl sulfide; phases: Liquid, Gas
Property: Molar heat capacity at saturation pressure, J/K/mol (Liquid); method: Vacuum adiabatic calorimetry
Temperature, K	Molar heat capacity at saturation pressure, J/K/mol	uncertainty
287.6	319.48	0.515
289.366	320.58	0.524
290.601	321.35	0.524
296.184	324.86	0.524
296.806	325.28	0.524
307.92	332.58	0.532
321.65	341.93	0.54
336.785	352.46	0.549
352.296	363.66	0.565
367.759	375.02	0.574
383.002	386.42	0.59
398.087	397.79	0.599
413.102	409.16	0.607
428.059	420.5	0.624
439.988	429.5	0.632

System: dicyclohexyl sulfide; phases: Crystal 3, Gas
Property: Molar heat capacity at saturation pressure, J/K/mol (Crystal 3); method: VADIAC:UFactor:0.5
Temperature, K	Molar heat capacity at saturation pressure, J/K/mol	uncertainty
5	0.65	0.02
10	4.79	0.03
15	12.08	0.06
20	20.77	0.07
25	29.63	0.083
30	37.98	0.07
35	45.26	0.07
36	46.79	0.07
37	48.49	0.07
38	50.1	0.083
39	53.43	0.116
40	59.33	0.241
40.2	61.57	0.299
40.4	65.04	0.457
40.6	70.56	0.715
40.8	79.24	1.1058
41	92.565	1.4717
41.1	101.56	1.9955
41.2	112.49	2.4112
41.3	125.67	2.6773
41.35	132.62	2.6856

System: dicyclohexyl sulfide; phases: Crystal 2, Gas
Property: Molar heat capacity at saturation pressure, J/K/mol (Crystal 2); method: VADIAC:UFactor:0.5
Temperature, K	Molar heat capacity at saturation pressure, J/K/mol	uncertainty
41.35	132.62	1.6296
41.4	124.85	1.3885
41.5	113.3	1.1308
41.6	103.72	1.2056
41.7	95.824	1.1308
41.8	89.372	1.0643
41.9	84.142	1.0144
42	79.94	0.9645
42.1	76.58	0.8398
42.2	73.92	0.682
42.3	71.85	0.549
42.4	70.24	0.474
42.5	68.99	0.416
42.6	68.04	0.358
42.7	67.3	0.175
42.8	66.72	0.158
42.9	66.27	0.141
43	65.89	0.133
44	63.21	0.091
45	62.78	0.083
46	63.03	0.083
48	64	0.083
50	65.53	0.091
55	70.15	0.091
60	74.51	0.1
70	83.419	0.108
80	91.908	0.116
90	100.24	0.15
100	108.32	0.158
120	123.79	0.166
140	138.69	0.166
160	153.38	0.175
180	168.28	0.183
200	184.16	0.191
220	201.6	0.2
240	221.21	0.208
250	231.72	0.216
260	264.46	0.258
264.7	316.1	0.341

System: dicyclohexyl sulfide; phases: Crystal 1, Gas
Property: Molar heat capacity at saturation pressure, J/K/mol (Crystal 1); method: VADIAC:UFactor:0.5
Temperature, K	Molar heat capacity at saturation pressure, J/K/mol	uncertainty
264.7	315.22	0.258
270	318.74	0.258
280	325.48	0.266
284.2	328.37	0.266

System: dicyclohexyl sulfide; phases: Liquid, Gas
Property: Molar heat capacity at saturation pressure, J/K/mol (Liquid); method: VADIAC:UFactor:0.5
Temperature, K	Molar heat capacity at saturation pressure, J/K/mol	uncertainty
284.2	317.32	0.258
298.15	326.14	0.266
300	327.33	0.266
320	340.79	0.274
340	354.76	0.274
360	369.3	0.283
380	384.16	0.291
400	399.24	0.299
420	414.4	0.308
440	429.57	0.316

System: dicyclohexyl sulfide; phases: Crystal 3
Fixed: Pressure, kPa = 101.325
Property: Molar enthalpy function {Hm(T)-Hm(0)}/T, J/K/mol (Crystal 3); method: VADIAC:UFactor:0.5
Temperature, K	Molar enthalpy function {Hm(T)-Hm(0)}/T, J/K/mol	uncertainty
5	0.16	0.008
10	1.26	0.02
15	3.57	0.02
20	6.78	0.02
25	10.47	0.03
30	14.36	0.04
35	18.27	0.04
36	19.04	0.04
37	19.81	0.04
38	20.59	0.04
39	21.38	0.04
40	22.25	0.05
40.2	22.44	0.05
40.4	22.64	0.05
40.6	22.86	0.05
40.8	23.11	0.05
41	23.42	0.06
41.1	23.6	0.06
41.2	23.8	0.06
41.3	24.03	0.07
41.35	24.16	0.07

System: dicyclohexyl sulfide; phases: Crystal 2
Fixed: Pressure, kPa = 101.325
Property: Molar enthalpy function {Hm(T)-Hm(0)}/T, J/K/mol (Crystal 2); method: VADIAC:UFactor:0.5
Temperature, K	Molar enthalpy function {Hm(T)-Hm(0)}/T, J/K/mol	uncertainty
41.35	24.16	0.06
41.4	24.29	0.06
41.5	24.51	0.06
41.6	24.72	0.06
41.7	24.89	0.06
41.8	25.06	0.06
41.9	25.2	0.05
42	25.34	0.05
42.1	25.47	0.05
42.2	25.58	0.05
42.3	25.69	0.05
42.4	25.8	0.05
42.5	25.9	0.05
42.6	26	0.05
42.7	26.1	0.05
42.8	26.2	0.05
42.9	26.29	0.05
43	26.38	0.05
44	27.25	0.05
45	28.04	0.05
46	28.8	0.05
48	30.24	0.05
50	31.62	0.05
55	34.91	0.06
60	38.03	0.06
70	43.88	0.07
80	49.35	0.07
90	54.55	0.125
100	59.52	0.133
120	68.96	0.133
140	77.87	0.141
160	86.379	0.141
180	94.652	0.15
200	102.79	0.15
220	110.96	0.158
240	119.29	0.158
250	123.57	0.158
260	128.18	0.166
264.7	131	0.166

System: dicyclohexyl sulfide; phases: Crystal 1
Fixed: Pressure, kPa = 101.325
Property: Molar enthalpy function {Hm(T)-Hm(0)}/T, J/K/mol (Crystal 1); method: VADIAC:UFactor:0.5
Temperature, K	Molar enthalpy function {Hm(T)-Hm(0)}/T, J/K/mol	uncertainty
264.7	168.81	0.183
270	171.72	0.183
280	177.09	0.191
284.2	179.3	0.191

System: dicyclohexyl sulfide; phases: Liquid
Fixed: Pressure, kPa = 101.325
Property: Molar enthalpy function {Hm(T)-Hm(0)}/T, J/K/mol (Liquid); method: VADIAC:UFactor:0.5
Temperature, K	Molar enthalpy function {Hm(T)-Hm(0)}/T, J/K/mol	uncertainty
284.2	199.3	0.2
298.15	205.03	0.2
300	205.77	0.2
320	213.79	0.208
340	221.67	0.208
360	229.46	0.216
380	237.21	0.216
400	244.94	0.224
420	252.64	0.224
440	260.34	0.233

System: dicyclohexyl sulfide; phases: Liquid, Gas
Property: Vapor or sublimation pressure, kPa (Liquid); method: INCPIST:UFactor:0.5
Temperature, K	Vapor or sublimation pressure, kPa	uncertainty
334.984	0.0195	0.0005
344.987	0.0387	0.0005
354.977	0.073	0.0006
364.977	0.1323	0.0006
374.979	0.2307	0.0007
384.967	0.3883	0.0008
394.979	0.6338	0.001
404.977	1.0036	0.0014
414.963	1.5464	0.0018
419.967	1.9019	0.0022
424.961	2.3244	0.0025
429.965	2.8255	0.0028

System: dicyclohexyl sulfide; phases: Crystal 3
Fixed: Pressure, kPa = 101.325
Property: Molar entropy, J/K/mol (Crystal 3); method: VADIAC:UFactor:0.5
Temperature, K	Molar entropy, J/K/mol	uncertainty
5	0.22	0.008
10	1.68	0.02
15	4.91	0.03
20	9.562	0.05
25	15.16	0.07
30	21.3	0.07
35	27.72	0.07
36	29.02	0.07
37	30.32	0.083
38	31.64	0.083
39	32.98	0.083
40	34.4	0.083
40.2	34.7	0.091
40.4	35.01	0.091
40.6	35.34	0.091
40.8	35.71	0.091
41	36.13	0.091
41.1	36.36	0.1
41.2	36.63	0.1
41.3	36.91	0.1
41.35	37.07	0.1

System: dicyclohexyl sulfide; phases: Crystal 2
Fixed: Pressure, kPa = 101.325
Property: Molar entropy, J/K/mol (Crystal 2); method: VADIAC:UFactor:0.5
Temperature, K	Molar entropy, J/K/mol	uncertainty
41.35	37.07	0.1
41.4	37.22	0.1
41.5	37.51	0.1
41.6	37.77	0.1
41.7	38.01	0.1
41.8	38.23	0.1
41.9	38.44	0.1
42	38.64	0.1
42.1	38.82	0.1
42.2	38.99	0.1
42.3	39.17	0.1
42.4	39.34	0.1
42.5	39.5	0.1
42.6	39.66	0.1
42.7	39.83	0.091
42.8	39.98	0.091
42.9	40.13	0.091
43	40.29	0.091
44	41.77	0.1
45	43.19	0.1
46	44.57	0.1
48	47.27	0.108
50	49.91	0.108
55	56.37	0.116
60	62.66	0.125
70	74.81	0.141
80	86.512	0.158
90	97.828	0.224
100	108.8	0.233
120	129.93	0.249
140	150.14	0.266
160	169.62	0.274
180	188.54	0.291
200	207.08	0.308
220	225.42	0.316
240	243.76	0.333
250	253	0.341
260	262.55	0.349
264.7	267.68	0.349

System: dicyclohexyl sulfide; phases: Crystal 1
Fixed: Pressure, kPa = 101.325
Property: Molar entropy, J/K/mol (Crystal 1); method: VADIAC:UFactor:0.5
Temperature, K	Molar entropy, J/K/mol	uncertainty
264.7	305.49	0.382
270	311.78	0.382
280	323.49	0.391
284.2	328.36	0.399

System: dicyclohexyl sulfide; phases: Liquid
Fixed: Pressure, kPa = 101.325
Property: Molar entropy, J/K/mol (Liquid); method: VADIAC:UFactor:0.5
Temperature, K	Molar entropy, J/K/mol	uncertainty
284.2	348.35	0.416
298.15	363.77	0.424
300	365.79	0.424
320	387.34	0.441
340	408.42	0.457
360	429.1	0.474
380	449.46	0.491
400	469.55	0.499
420	489.4	0.515
440	509.03	0.532
