Measured thermophysical data. Liquid densities and excess molar volumes for  (ionic liquids + methanol + water) ternary system at  atmospheric pressure and at various temperatures
Source: J. Chem. Thermodyn., 2007, 10.1016/j.jct.2007.01.012
Compound 1: water, H2O, InChI=1S/H2O/h1H2
Compound 2: methanol, CH4O, InChI=1S/CH4O/c1-2/h2H,1H3
Compound 3: 1-ethyl-3-methylimidazolium 2-(2-methoxyethoxy) ethylsulfate, C11H22N2O6S, InChI=1S/C6H11N2.C5H12O6S/c1-3-8-5-4-7(2)6-8;1-9-2-3-10-4-5-11-12(6,7)8/h4-6H,3H2,1-2H3;2-5H2,1H3,(H,6,7,8)/q+1;/p-1

System: methanol; phases: Liquid
Fixed: Pressure, kPa = 101.325
Property: Mass density, kg/m3 (Liquid); method: VIBTUB:UFactor:8
Temperature, K	Mass density, kg/m3	uncertainty
298.15	786.7	1.4
303.15	782	1.4
313.15	772.7	1.4

System: 1-ethyl-3-methylimidazolium 2-(2-methoxyethoxy) ethylsulfate; phases: Liquid
Fixed: Pressure, kPa = 101.325
Property: Mass density, kg/m3 (Liquid); method: VIBTUB:UFactor:8
Temperature, K	Mass density, kg/m3	uncertainty
298.15	1236.5	2.9
303.15	1232.6	2.9
313.15	1225.6	2.8

System: methanol + water + 1-ethyl-3-methylimidazolium 2-(2-methoxyethoxy) ethylsulfate; phases: Liquid
Fixed: Pressure, kPa = 101
Property: Mass density, kg/m3 (Liquid); method: VIBTUB:UFactor:8
Temperature, K	Mole fraction of 1-ethyl-3-methylimidazolium 2-(2-methoxyethoxy) ethylsulfate	Mole fraction of methanol	Mass density, kg/m3	uncertainty
298.15	0.0019	0.7078	933.4	2.6
298.15	0.0027	0.6147	915.2	4
298.15	0.0033	0.5048	893.3	2.7
298.15	0.004	0.4016	873.9	2.2
298.15	0.005	0.3102	858.3	2.2
298.15	0.0053	0.2273	843.4	1.7
298.15	0.0064	0.1101	825	2.3
298.15	0.0871	0.6008	1075.3	2.7
298.15	0.1928	0.5887	1152.3	2.2
298.15	0.3087	0.4066	1172.2	2.1
298.15	0.3403	0.5555	1194.8	1.8
298.15	0.482	0.4648	1215.6	2
298.15	0.5212	0.2834	1205.8	1.9
303.15	0.0019	0.7078	930	2.6
303.15	0.0027	0.6147	911.5	4
303.15	0.0033	0.5048	889.4	2.7
303.15	0.004	0.4016	869.8	2.2
303.15	0.005	0.3102	854.1	2.2
303.15	0.0053	0.2273	839	1.7
303.15	0.0064	0.1101	820.5	2.3
303.15	0.0871	0.6008	1071.3	2.8
303.15	0.1928	0.5887	1148.4	2.1
303.15	0.3087	0.4066	1168.3	2.1
303.15	0.3403	0.5555	1194.7	1.8
303.15	0.482	0.4648	1211.9	2
303.15	0.5212	0.2834	1202.1	1.9
313.15	0.0019	0.7078	923.4	2.6
313.15	0.0027	0.6147	904.2	4
313.15	0.0033	0.5048	881.6	2.7
313.15	0.004	0.4016	861.7	2.2
313.15	0.005	0.3102	845.7	2.2
313.15	0.0053	0.2273	830.5	1.8
313.15	0.0064	0.1101	811.8	2.3
313.15	0.0871	0.6008	1063.8	2.7
313.15	0.1928	0.5887	1141.1	2.1
313.15	0.3087	0.4066	1161.1	2.1
313.15	0.3403	0.5555	1187.6	1.8
313.15	0.482	0.4648	1204.9	2
313.15	0.5212	0.2834	1195.1	1.9
