Measured thermophysical data. Partition of metallic cations between aqueous solutions and mixed crystals of hydrated cobalt and nickel nitrates: Modelling of the influence of temperature and composition
Source: J. Chem. Thermodyn., 2018, 10.1016/j.jct.2017.12.006
Compound 1: water, H2O, InChI=1S/H2O/h1H2, purity 99.8%
Compound 2: cobalt(II) nitrate, CoN2O6, InChI=1S/Co.2NO3/c;2*2-1(3)4/q+2;2*-1, purity 99.4%
Compound 3: nickel(II) nitrate, N2NiO6, InChI=1S/2NO3.Ni/c2*2-1(3)4;/q2*-1;+2, purity 99.9%

System: water + cobalt(II) nitrate + nickel(II) nitrate; phases: Liquid, Crystal of intercomponent compound 1
Fixed: Pressure, kPa = 101
Property: Mole fraction of nickel(II) nitrate (Liquid); method: Titration method
Temperature, K	Mole fraction of cobalt(II) nitrate	Mole fraction of nickel(II) nitrate	uncertainty
287.15	0.0197	0.0639	0.0021
287.15	0.0242	0.06	0.0021
287.15	0.0318	0.0535	0.0021
287.15	0.0333	0.0522	0.0021
313.15	0.0023	0.1004	0.0017
313.15	0.0044	0.1001	0.0022
313.15	0.0068	0.0963	0.003
313.15	0.008	0.0963	0.0023
313.15	0.008	0.0972	0.0021

System: water + cobalt(II) nitrate + nickel(II) nitrate; phases: Liquid, Crystal of intercomponent compound 2
Fixed: Pressure, kPa = 101
Property: Mole fraction of cobalt(II) nitrate (Liquid); method: Titration method
Temperature, K	Mole fraction of nickel(II) nitrate	Mole fraction of cobalt(II) nitrate	uncertainty
287.15	0.0535	0.0318	0.0016
287.15	0.0522	0.0333	0.0022
313.15	0.0963	0.0068	0.0021
313.15	0.0963	0.008	0.0018
313.15	0.0972	0.008	0.0017
313.15	0.0929	0.0097	0.0026
313.15	0.0921	0.0117	0.0026
313.15	0.0893	0.0159	0.0023
313.15	0.0871	0.0166	0.0024
313.15	0.086	0.0192	0.0024
313.15	0.0815	0.0243	0.0021
313.15	0.0694	0.0341	0.0023
313.15	0.0525	0.0527	0.0023
313.15	0.0217	0.0813	0.0022
