Measured thermophysical data. Measurement of (liquid + liquid) equilibria for ternary systems of (N-formylmorpholine + benzene + cyclohexane) at  temperatures (303.15, 308.15, and 313.15) K
Source: J. Chem. Thermodyn., 2011, 10.1016/j.jct.2011.01.011
Compound 1: benzene, C6H6, InChI=1S/C6H6/c1-2-4-6-5-3-1/h1-6H, purity 99.5%
Compound 2: cyclohexane, C6H12, InChI=1S/C6H12/c1-2-4-6-5-3-1/h1-6H2, purity 99.5%
Compound 3: N-formylmorpholine, C5H9NO2, InChI=1S/C5H9NO2/c7-5-6-1-3-8-4-2-6/h5H,1-4H2, purity 99.5%

System: benzene + cyclohexane + N-formylmorpholine; phases: Liquid mixture 2, Liquid mixture 1
Fixed: Pressure, kPa = 101.3
Property: Mass fraction of benzene (Liquid mixture 2); method: Chromatography
Property: Mass fraction of benzene (Liquid mixture 1); method: Chromatography
Property: Mass fraction of N-formylmorpholine (Liquid mixture 1); method: Chromatography
Temperature, K	Mass fraction of N-formylmorpholine	Mass fraction of benzene	uncertainty	Mass fraction of benzene	uncertainty	Mass fraction of N-formylmorpholine	uncertainty
303.15	0.9496	0.0312	0.0101	0.0526	0.017	0.1422	
303.15	0.9016	0.0681	0.0103	0.1092	0.011	0.1724	
303.15	0.8462	0.115	0.0105	0.181	0.011	0.27	
303.15	0.7995	0.155	0.0105	0.2419	0.0155	0.3084	
303.15	0.7458	0.1995	0.0104	0.2822	0.0123	0.331	
303.15	0.7124	0.2255	0.0103	0.3055	0.0101	0.3633	
308.15	0.9422	0.0365	0.01	0.0599	0.0148	0.1426	
308.15	0.8938	0.0719	0.0103	0.1124	0.011	0.1801	
308.15	0.8389	0.1197	0.0106	0.1866	0.0112	0.2693	
308.15	0.7889	0.1614	0.0104	0.2483	0.0143	0.3105	
308.15	0.7332	0.2066	0.0103	0.2907	0.0114	0.3376	
308.15	0.7002	0.2309	0.0103	0.3096	0.0096	0.3711	
313.15	0.9321	0.0404	0.0102	0.0644	0.0156	0.1561	
313.15	0.8845	0.0783	0.0103	0.1202	0.0114	0.1897	
313.15	0.8276	0.1251	0.0105	0.1906	0.0112	0.2773	
313.15	0.7768	0.1701	0.0104	0.2558	0.0148	0.3266	
313.15	0.7208	0.2131	0.0104	0.2983	0.0119	0.3451	
313.15	0.6888	0.2411	0.0108	0.3177	0.0094	0.3809	
