Measured thermophysical data. Thermodynamic properties of triphenylantimony dipropionate Ph3Sb(OC(O)C2H5)2 over the range from T = 0 to 430 K
Source: J. Chem. Thermodyn., 2017, 10.1016/j.jct.2016.10.049
Compound 1: triphenylantimony dipropionate, C24H25O4Sb, InChI=1S/3C6H5.2C3H6O2.Sb/c3*1-2-4-6-5-3-1;2*1-2-3(4)5;/h3*1-5H;2*2H2,1H3,(H,4,5);/q;;;;;+2/p-2

System: triphenylantimony dipropionate; phases: Crystal, Liquid, Air at 1 atmosphere
Property: Normal melting temperature, K (Crystal); method: DTA
Normal melting temperature, K	uncertainty
398.8	1.1

System: triphenylantimony dipropionate; phases: Crystal, Liquid, Air at 1 atmosphere
Property: Molar enthalpy of transition or fusion, kJ/mol (Crystal); method: DSC
Molar enthalpy of transition or fusion, kJ/mol	uncertainty
19.4	0.6

System: triphenylantimony dipropionate; phases: Crystal
Property: Mass density, kg/m3 (Crystal); method: X-ray diffraction
Temperature, K	Pressure, kPa	Mass density, kg/m3	uncertainty
298	101.325	1486	30

System: triphenylantimony dipropionate; phases: Crystal
Fixed: Pressure, kPa = 101.325
Property: Molar heat capacity at constant pressure, J/K/mol (Crystal); method: Small (less than 1 g) adiabatic calorimetry
Temperature, K	Molar heat capacity at constant pressure, J/K/mol	uncertainty
5.52	2.8601741712	0.1330313568
5.57	2.91006093	0.1330313568
5.61	2.993205528	0.1330313568
5.66	3.0929790456	0.1413458166
5.71	3.1511802642	0.1413458166
5.74	3.2509537818	0.1496602764
5.81	3.3922995984	0.1496602764
5.86	3.4671297366	0.1579747362
5.91	3.6001610934	0.1579747362
5.96	3.7082490708	0.166289196
6.02	3.7997081286	0.166289196
6.1	3.949368405	0.1746036558
6.23	4.198802199	0.1829181156
6.39	4.4814938322	0.1995470352
6.54	4.7226131664	0.207861495
6.69	4.9720469604	0.2161759548
6.85	5.2547385936	0.2244904146
7.01	5.529115767	0.2411193342
7.17	5.8284363198	0.249433794
7.33	6.1776436314	0.2660627136
7.5	6.5351654028	0.2826916332
7.67	6.8926871742	0.291006093
7.84	7.233580026	0.3076350126
8.02	7.649303016	0.3242639322
8.19	8.0982838452	0.3408928518
8.38	8.397604398	0.332578392
8.56	8.813327388	0.41572299
8.74	9.229050378	0.41572299
8.97	9.811062564	0.41572299
9.12	10.143640956	0.41572299
9.32	10.559363946	0.41572299
9.51	10.975086936	0.498867588
9.71	11.307665328	0.498867588
9.91	11.972822112	0.498867588
10.11	12.388545102	0.498867588
10.5	13.552569474	0.582012186
11.1	15.464895228	0.665156784
11.72	17.127787188	0.748301382
12.34	19.289546736	0.83144598
12.99	21.20187249	0.914590578
13.64	23.031053646	0.997735176
14.3	24.860234802	0.997735176
14.97	26.855705154	1.080879774
15.65	28.7347730688	0.41572299
16.34	30.7967590992	0.4406663694
17.04	32.758971612	0.457295289
17.74	34.5133226298	0.4822386684
18.46	36.3258748662	0.498867588
19.3	38.2964018388	0.5238109674
20.4	41.7967894146	0.5570688066
21.9	46.4030001438	0.6069555654
24.5	53.7030958482	0.6734712438
27.53	62.7242847312	0.7566158418
30.56	71.1800903478	0.7815592212
33.65	79.4363489292	0.873018279
36.78	87.800695488	0.997735176
39.94	96.364589082	1.080879774
43.13	104.429615088	0.582012186
46.35	112.411496496	0.665156784
49.6	120.227088708	0.665156784
52.87	127.710102528	0.748301382
56.17	135.193116348	0.748301382
59.48	143.00870856	0.83144598
63.18	151.489457556	0.83144598
66.14	158.639892984	0.914590578
70.56	168.700389342	0.914590578
73.92	175.601390976	0.997735176
77.27	182.336103414	0.997735176
80.64	188.73823746	1.080879774
84.01	194.641503918	1.080879774
86.77	200.877348768	1.080879774
81.73	190.81685241	1.080879774
85.92	199.380746004	1.080879774
89.29	204.95143407	1.164024372
92.66	211.436712714	1.164024372
94.19	214.92878583	1.164024372
96.05	218.504003544	1.164024372
100	225.488149776	1.164024372
102.84	230.643114852	1.24716897
106.25	235.71493533	1.24716897
106.56	236.13065832	1.24716897
109.97	242.117069376	1.24716897
113.08	246.690022266	1.330313568
116.5	252.094421136	1.330313568
119.93	256.833663222	1.330313568
123.62	262.487495886	1.413458166
127.07	266.395291992	1.413458166
130.51	271.383967872	1.413458166
133.68	275.374908576	1.413458166
137.15	280.529873652	1.496602764
140.6	285.435404934	1.496602764
144.05	290.340936216	1.496602764
147.71	295.828479684	1.496602764
150.96	300.15199878	1.579747362
154.42	305.223819258	1.579747362
157.88	310.295639736	1.579747362
161.34	315.284315616	1.66289196
164.81	320.688714486	1.66289196
166.97	323.515630818	1.66289196
168.28	325.594245768	1.66289196
171.75	330.666066246	1.746036558
173.81	332.99411499	1.746036558
175.9	336.985055694	1.746036558
178.7	340.643418006	1.746036558
181.61	345.133226298	1.746036558
185.08	349.62303459	1.829181156
189.14	355.02743346	1.829181156
192.2	359.60038635	1.829181156
195.69	363.591327054	1.829181156
199.6	369.078870522	1.912325754
202.65	372.986666628	1.912325754
206.14	378.72364389	1.912325754
209.99	383.71231977	1.995470352
213.53	388.202128062	1.995470352
217.04	392.525647158	1.995470352
220.55	397.763756832	1.995470352
224.07	402.83557731	2.07861495
227.58	408.156831582	2.07861495
231.1	413.311796658	2.07861495
234.63	417.552171156	2.161759548
238.15	423.20600382	2.161759548
241.68	428.360968896	2.161759548
245.21	433.848512364	2.244904146
248.81	439.252911234	2.244904146
252.35	444.324731712	2.244904146
255.89	448.897684602	2.244904146
259.44	453.387492894	2.328048744
262.98	459.041325558	2.328048744
266.53	464.279435232	2.328048744
270.09	469.933267896	2.411193342
273.64	474.921943776	2.411193342
277.19	480.409487244	2.411193342
280.75	485.065584732	2.49433794
284.3	489.389103828	2.49433794
287.86	494.627213502	2.49433794
291.42	498.867588	2.49433794
294.7	503.191107096	2.577482538
296.7	505.685445036	2.577482538
298.51	508.262927574	2.577482538
300	510.50783172	2.577482538
302.7	515.163929208	2.577482538
303.69	515.995375188	2.577482538
307.36	519.986315892	2.660627136
307.3	519.986315892	2.660627136
312.02	525.806437752	2.660627136
312.99	526.30530534	2.660627136
316.65	530.87825823	2.660627136
318.1	534.786054336	2.743771734
321.24	540.02416401	2.743771734
322.28	542.352212754	2.743771734
325.9	548.671202202	2.743771734
326.91	549.835226574	2.743771734
330.57	557.318240394	2.826916332
331.54	558.73169856	2.826916332
335.21	563.30465145	2.826916332
336.16	563.30465145	2.826916332
339.84	569.291062506	2.91006093
341.1	573.032569416	2.91006093
344.48	577.938100698	2.91006093
345.35	580.016715648	2.91006093
349.92	587.00086188	2.993205528
354.5	597.975948816	2.993205528
359.09	604.960095048	3.076350126

System: triphenylantimony dipropionate; phases: Crystal
Fixed: Pressure, kPa = 101.325
Property: Molar heat capacity at constant pressure, J/K/mol (Crystal); method: Small sample (50 mg) DSC
Temperature, K	Molar heat capacity at constant pressure, J/K/mol	uncertainty
307.31	521.31662946	22.44904146
310.81	524.64241338	22.44904146
313.81	528.79964328	22.44904146
316.31	531.29398122	22.44904146
319.31	536.2826571	22.44904146
322.4	543.76567092	23.28048744
324.31	547.09145484	23.28048744
327.31	551.24868474	23.28048744
330.31	557.90025258	24.11193342
333	560.39459052	24.11193342
336.31	564.55182042	24.11193342
339.31	567.87760434	24.11193342
341.9	572.86628022	24.11193342
345.31	577.8549561	24.9433794
348.31	585.33796992	24.9433794
351.31	590.3266458	24.9433794
354.31	597.80965962	25.77482538
357.31	603.62978148	25.77482538
360.31	606.9555654	25.77482538
362.81	610.28134932	25.77482538
365.81	615.2700252	25.77482538
368.81	621.09014706	26.60627136
371.81	631.8989448	27.43771734
374.81	642.70774254	27.43771734
377.81	664.32533802	29.1006093
380.81	691.76305536	31.59494724
383.81	730.00957044	33.2578392

System: triphenylantimony dipropionate; phases: Crystal
Fixed: Pressure, kPa = 101.325
Property: Molar heat capacity at constant pressure, J/K/mol (Crystal); method: Small (less than 1 g) adiabatic calorimetry
Temperature, K	Molar heat capacity at constant pressure, J/K/mol	uncertainty
5	2.10023254548	0.10226785554
10	12.305400504	0.498867588
15	26.938849752	1.080879774
20	40.4997336858	0.540439887
25	55.3659878082	0.6901001634
30	69.633600825	0.7649303016
40	96.281444484	1.080879774
50	120.97539009	0.665156784
60	144.505311324	0.83144598
70	166.788063588	0.914590578
80	187.574213088	1.080879774
90	206.61432603	1.080879774
100	225.488149776	1.164024372
120	256.667374026	1.330313568
140	285.102826542	1.496602764
160	313.288845264	1.66289196
180	341.72429778	1.746036558
200	370.076605698	1.912325754
220	398.428913616	2.07861495
240	426.282353946	2.161759548
260	453.96950508	2.328048744
273.15	472.178172042	2.411193342
280	481.739800812	2.411193342
298.15	507.265192398	2.577482538
300	510.008964132	2.577482538
320	539.359007226	2.743771734
340	570.78766527	2.91006093

System: triphenylantimony dipropionate; phases: Crystal
Fixed: Pressure, kPa = 101.325
Property: Molar enthalpy function {Hm(T)-Hm(0)}/T, J/K/mol (Crystal); method: Small (less than 1 g) adiabatic calorimetry
Temperature, K	Molar enthalpy function {Hm(T)-Hm(0)}/T, J/K/mol	uncertainty
5	0.5196537375	0.0332578392
10	3.6334189326	0.166289196
15	8.896471986	0.41572299
20	15.173889135	0.2577482538
25	21.7256834574	0.3492073116
30	28.5352260336	0.4323519096
40	42.1709401056	0.6318989448
50	55.499019165	0.6152700252
60	68.4030607746	0.7566158418
70	80.8830649344	0.8813327388
80	92.955660564	0.997735176
90	104.512759686	1.164024372
100	115.57099122	1.24716897
120	136.77286371	1.496602764
140	155.812976652	1.66289196
160	173.77220982	1.829181156
180	190.81685241	1.995470352
200	207.362627412	2.161759548
220	223.409534826	2.328048744
240	239.207008446	2.49433794
260	254.588759076	2.660627136
273.15	264.649255434	2.826916332
280	269.887365108	2.826916332
298.15	283.52307918	2.993205528
300	284.936537346	2.993205528
320	299.902564986	3.159494724
340	314.70230343	3.32578392

System: triphenylantimony dipropionate; phases: Crystal
Fixed: Pressure, kPa = 101.325
Property: Molar entropy, J/K/mol (Crystal); method: Small (less than 1 g) adiabatic calorimetry
Temperature, K	Molar entropy, J/K/mol	uncertainty
5	0.70506619104	0.0623584485
10	4.9637325006	0.3575217714
15	12.721123494	0.914590578
20	22.2993811836	0.6152700252
25	32.9834620266	0.873018279
30	44.3493285732	1.122452073
40	68.0871113022	1.6961497992
50	92.29050378	1.746036558
60	116.4024372	2.244904146
70	140.264936826	2.660627136
80	163.961147256	3.076350126
90	187.158490098	3.492073116
100	210.023254548	3.907796106
120	253.923602292	4.739242086
140	295.57904589	5.487543468
160	335.48845293	6.23584485
180	374.067546402	6.984146232
200	411.5657601	7.649303016
220	448.232527818	8.3144598
240	483.984704958	8.979616584
260	519.23801451	9.644773368
273.15	542.10277896	10.060496358
280	553.909311876	10.309930152
298.15	585.005391528	10.891942338
300	588.081741654	10.891942338
320	622.004737638	11.557099122
340	655.59515523	12.139111308

System: triphenylantimony dipropionate; phases: Liquid
Fixed: Pressure, kPa = 101.325
Property: Molar heat capacity at constant pressure, J/K/mol (Liquid); method: Small sample (50 mg) DSC
Temperature, K	Molar heat capacity at constant pressure, J/K/mol	uncertainty
398.8	699.24606918	29.93205528
400	700.07751516	29.93205528
410	706.729083	29.93205528
420	716.70643476	30.76350126
430	720.86366466	30.76350126
432	720.86366466	30.76350126

System: triphenylantimony dipropionate; phases: Liquid
Fixed: Pressure, kPa = 101.325
Property: Molar enthalpy function {Hm(T)-Hm(0)}/T, J/K/mol (Liquid); method: Small sample (50 mg) DSC
Temperature, K	Molar enthalpy function {Hm(T)-Hm(0)}/T, J/K/mol	uncertainty
398.8	409.07142216	19.12325754
400	407.4085302	19.12325754
410	417.38588196	19.12325754
420	424.0374498	19.95470352
430	429.85757166	19.95470352
432	430.68901764	19.95470352

System: triphenylantimony dipropionate; phases: Liquid
Fixed: Pressure, kPa = 101.325
Property: Molar entropy, J/K/mol (Liquid); method: Small sample (50 mg) DSC
Temperature, K	Molar entropy, J/K/mol	uncertainty
398.8	803.17681668	58.2012186
400	804.83970864	58.2012186
410	822.30007422	59.03266458
420	839.7604398	58.2012186
430	856.3893594	58.2012186
432	856.3893594	58.2012186

System: triphenylantimony dipropionate; phases: Liquid
Fixed: Pressure, kPa = 101.325
Property: Molar heat capacity at constant pressure, J/K/mol (Liquid); method: Small sample (50 mg) DSC
Temperature, K	Molar heat capacity at constant pressure, J/K/mol	uncertainty
407.81	710.05486692	29.93205528
410.81	709.22342094	29.93205528
413.81	713.38065084	29.93205528
416.81	714.21209682	29.93205528
419.81	717.53788074	30.76350126
422.81	720.03221868	30.76350126
425.81	720.86366466	30.76350126
428.81	720.86366466	30.76350126
431.81	723.3580026	30.76350126

System: triphenylantimony dipropionate; phases: Crystal
Fixed: Pressure, kPa = 101.325
Property: Molar heat capacity at constant pressure, J/K/mol (Crystal); method: Small sample (50 mg) DSC
Temperature, K	Molar heat capacity at constant pressure, J/K/mol	uncertainty
360	605.29267344	25.77482538
380	641.04485058	27.43771734
398.8	674.30268978	28.26916332

System: triphenylantimony dipropionate; phases: Crystal
Fixed: Pressure, kPa = 101.325
Property: Molar enthalpy function {Hm(T)-Hm(0)}/T, J/K/mol (Crystal); method: Small sample (50 mg) DSC
Temperature, K	Molar enthalpy function {Hm(T)-Hm(0)}/T, J/K/mol	uncertainty
360	327.58971612	14.96602764
380	345.0500817	15.79747362
398.8	358.35321738	16.6289196

System: triphenylantimony dipropionate; phases: Crystal
Fixed: Pressure, kPa = 101.325
Property: Molar entropy, J/K/mol (Crystal); method: Small sample (50 mg) DSC
Temperature, K	Molar entropy, J/K/mol	uncertainty
360	689.26871742	49.8867588
380	721.69511064	52.38109674
398.8	754.12150386	54.87543468
