Measured thermophysical data. Experimental and computational study on the molecular energetics of monobromoanisole isomers
Source: J. Chem. Thermodyn., 2009, 10.1016/j.jct.2008.11.008
Compound 1: hydrogen bromide, BrH, InChI=1S/BrH/h1H
Compound 2: carbon dioxide, CO2, InChI=1S/CO2/c2-1-3
Compound 3: water, H2O, InChI=1S/H2O/h1H2
Compound 4: oxygen, O2, InChI=1S/O2/c1-2
Compound 5: 1-bromo-2-methoxybenzene, C7H7BrO, InChI=1S/C7H7BrO/c1-9-7-5-3-2-4-6(7)8/h2-5H,1H3, purity 97%
Compound 6: 1-bromo-3-methoxybenzene, C7H7BrO, InChI=1S/C7H7BrO/c1-9-7-4-2-3-6(8)5-7/h2-5H,1H3, purity 98%
Compound 7: 1-bromo-4-methoxybenzene, C7H7BrO, InChI=1S/C7H7BrO/c1-9-7-4-2-6(8)3-5-7/h2-5H,1H3, purity 99%
Compound 8: 4-bromobenzoic acid, C7H5BrO2, InChI=1S/C7H5BrO2/c8-6-3-1-5(2-4-6)7(9)10/h1-4H,(H,9,10)

System: 1-bromo-2-methoxybenzene; phases: Liquid, Gas
Property: Molar enthalpy of vaporization or sublimation, kJ/mol (Liquid); method: Calvet microcalorimetry
Temperature, K	Molar enthalpy of vaporization or sublimation, kJ/mol	uncertainty
298.15	61.8	2.6

System: 1-bromo-2-methoxybenzene; phases: Gas
Property: Molar enthalpy, kJ/mol (Gas); method: Calvet microcalorimetry
Temperature, K	Pressure, kPa	Molar enthalpy, kJ/mol	uncertainty
329	101	66.2	0.4

System: 1-bromo-3-methoxybenzene; phases: Liquid, Gas
Property: Molar enthalpy of vaporization or sublimation, kJ/mol (Liquid); method: Calvet microcalorimetry
Temperature, K	Molar enthalpy of vaporization or sublimation, kJ/mol	uncertainty
298.15	58	2.4

System: 1-bromo-3-methoxybenzene; phases: Gas
Property: Molar enthalpy, kJ/mol (Gas); method: Calvet microcalorimetry
Temperature, K	Pressure, kPa	Molar enthalpy, kJ/mol	uncertainty
328.9	101	62.4	0.4

System: 1-bromo-4-methoxybenzene; phases: Liquid, Gas
Property: Molar enthalpy of vaporization or sublimation, kJ/mol (Liquid); method: Calvet microcalorimetry
Temperature, K	Molar enthalpy of vaporization or sublimation, kJ/mol	uncertainty
298.15	58.3	2.4

System: 1-bromo-4-methoxybenzene; phases: Gas
Property: Molar enthalpy, kJ/mol (Gas); method: Calvet microcalorimetry
Temperature, K	Pressure, kPa	Molar enthalpy, kJ/mol	uncertainty
329	101	62.8	0.2

Reaction: -1 1-bromo-2-methoxybenzene + 1 hydrogen bromide + 7 carbon dioxide + 3 water + -8 oxygen
Property: Specific internal energy of reaction at constant volume, J/g
-19402.7

Reaction: -1 1-bromo-3-methoxybenzene + 1 hydrogen bromide + 7 carbon dioxide + 3 water + -8 oxygen
Property: Specific internal energy of reaction at constant volume, J/g
-19375.9

Reaction: -1 1-bromo-4-methoxybenzene + 1 hydrogen bromide + 7 carbon dioxide + 3 water + -8 oxygen
Property: Specific internal energy of reaction at constant volume, J/g
-19375.1

Reaction: -1 4-bromobenzoic acid + 1 hydrogen bromide + 7 carbon dioxide + 2 water + -7 oxygen
Property: Specific internal energy of reaction at constant volume, J/g
-15260.9
