Measured thermophysical data. Static permittivity, density, speed of sound, and refractive index of 2-propoxyethanol mixtures with water in a wide temperature range
Source: J. Chem. Thermodyn., 2016, 10.1016/j.jct.2016.07.002
Compound 1: 2-propoxyethanol, C5H12O2, InChI=1S/C5H12O2/c1-2-4-7-5-3-6/h6H,2-5H2,1H3, purity 99.4%
Compound 2: water, H2O, InChI=1S/H2O/h1H2

System: 2-propoxyethanol; phases: Liquid
Fixed: Pressure, kPa = 100
Property: Mass density, kg/m3 (Liquid); method: Vibrating tube method
Temperature, K	Mass density, kg/m3	uncertainty
288.15	915.949	0.611
293.15	911.592	0.611
298.15	907.213	0.611
303.15	902.807	0.611
308.15	898.373	0.611
313.15	893.908	0.612
318.15	889.409	0.612

System: 2-propoxyethanol; phases: Liquid
Fixed: Pressure, kPa = 100
Fixed: Frequency, MHz = 5
Property: Speed of sound, m/s (Liquid); method: Pulse-echo method
Temperature, K	Speed of sound, m/s	uncertainty
288.15	1334.3	1
293.15	1317.43	1
298.15	1300.44	0.99
303.15	1283.51	0.99
308.15	1266.5	0.99
313.15	1249.46	0.98
318.15	1232.57	0.98

System: 2-propoxyethanol; phases: Liquid
Fixed: Pressure, kPa = 100
Property: Refractive index (Na D-line) (Liquid); method: Standard Abbe refractometry
Temperature, K	Refractive index (Na D-line)	uncertainty
288.15	1.41646	0.00034
293.15	1.41434	0.00034
298.15	1.41222	0.00034
303.15	1.41011	0.00034
308.15	1.40801	0.00034
313.15	1.40592	0.00034
318.15	1.40384	0.00034

System: 2-propoxyethanol; phases: Liquid
Fixed: Pressure, kPa = 100
Fixed: Frequency, MHz = 0.1
Property: Relative permittivity at various frequencies (Liquid); method: Coaxial cylinder capacitor
Temperature, K	Relative permittivity at various frequencies	uncertainty
283.15	11.83	0.2
288.15	11.51	0.2
293.15	11.2	0.2
298.15	10.96	0.2
303.15	10.68	0.2
308.15	10.42	0.2
313.15	10.2	0.2
318.15	9.92	0.2
323.15	9.69	0.2
328.15	9.46	0.2
333.15	9.22	0.2

System: water; phases: Liquid
Fixed: Pressure, kPa = 100
Fixed: Frequency, MHz = 5
Property: Speed of sound, m/s (Liquid); method: Pulse-echo method
Temperature, K	Speed of sound, m/s	uncertainty
288.15	1466.27	0.84
293.15	1482.33	0.85
298.15	1496.75	0.85
303.15	1509.39	0.85
308.15	1520.13	0.86
313.15	1528.82	0.86
318.15	1536.65	0.86

System: water; phases: Liquid
Fixed: Pressure, kPa = 100
Property: Refractive index (Na D-line) (Liquid); method: Standard Abbe refractometry
Temperature, K	Refractive index (Na D-line)	uncertainty
288.15	1.33339	0.00031
293.15	1.33299	0.00031
298.15	1.3325	0.00031
303.15	1.33194	0.00031
308.15	1.33131	0.00031
313.15	1.33061	0.00031
318.15	1.32985	0.00031

System: water; phases: Liquid
Fixed: Pressure, kPa = 100
Fixed: Frequency, MHz = 0.1
Property: Relative permittivity at various frequencies (Liquid); method: Coaxial cylinder capacitor
Temperature, K	Relative permittivity at various frequencies	uncertainty
283.15	83.83	0.2
288.15	81.94	0.2
293.15	80.1	0.2
298.15	78.36	0.2
303.15	76.55	0.2
308.15	74.83	0.2
313.15	73.15	0.2
318.15	71.51	0.2
323.15	69.91	0.2
328.15	68.35	0.2
333.15	66.82	0.2

System: 2-propoxyethanol + water; phases: Liquid
Fixed: Pressure, kPa = 100
Property: Mass density, kg/m3 (Liquid); method: Vibrating tube method
Temperature, K	Mole fraction of 2-propoxyethanol	Mass density, kg/m3	uncertainty
288.15	0	999.099	0.153
288.15	0.001	998.996	0.154
288.15	0.003	998.81	0.154
288.15	0.005	998.675	0.154
288.15	0.01	998.486	0.153
288.15	0.0202	998.509	0.163
288.15	0.03	998.633	0.163
288.15	0.04	998.468	0.173
288.15	0.0499	997.75	0.175
288.15	0.075	993.855	0.187
288.15	0.0999	988.949	0.198
288.15	0.1499	979.415	0.227
288.15	0.2001	971.098	0.247
288.15	0.2499	964.045	0.267
288.15	0.2997	957.969	0.287
288.15	0.3495	952.688	0.316
288.15	0.3999	947.921	0.337
288.15	0.4511	943.577	0.357
288.15	0.5002	939.837	0.387
288.15	0.55	936.476	0.407
288.15	0.5994	933.336	0.428
288.15	0.6489	930.588	0.448
288.15	0.697	928.12	0.468
288.15	0.75	925.523	0.498
288.15	0.7979	923.457	0.519
288.15	0.8201	922.487	0.529
288.15	0.871	920.48	0.55
288.15	0.8982	919.414	0.56
288.15	0.9202	918.674	0.57
288.15	0.95	917.632	0.59
288.15	0.9699	916.95	0.6
288.15	1	915.949	0.611
293.15	0	998.203	0.153
293.15	0.001	998.082	0.154
293.15	0.003	997.859	0.155
293.15	0.005	997.678	0.154
293.15	0.01	997.368	0.153
293.15	0.0202	997.081	0.163
293.15	0.03	996.835	0.164
293.15	0.04	996.264	0.174
293.15	0.0499	995.168	0.177
293.15	0.075	990.671	0.188
293.15	0.0999	985.479	0.198
293.15	0.1499	975.658	0.227
293.15	0.2001	967.181	0.247
293.15	0.2499	959.974	0.267
293.15	0.2997	953.874	0.287
293.15	0.3495	948.543	0.317
293.15	0.3999	943.734	0.337
293.15	0.4511	939.37	0.357
293.15	0.5002	935.61	0.387
293.15	0.55	932.228	0.407
293.15	0.5994	929.061	0.428
293.15	0.6489	926.299	0.448
293.15	0.697	923.817	0.468
293.15	0.75	921.206	0.499
293.15	0.7979	919.14	0.519
293.15	0.8201	918.161	0.529
293.15	0.871	916.153	0.55
293.15	0.8982	915.081	0.56
293.15	0.9202	914.345	0.57
293.15	0.95	913.297	0.59
293.15	0.9699	912.608	0.601
293.15	1	911.592	0.611
298.15	0	997.043	0.153
298.15	0.001	996.904	0.155
298.15	0.003	996.645	0.155
298.15	0.005	996.426	0.155
298.15	0.01	995.997	0.154
298.15	0.0202	995.417	0.164
298.15	0.03	994.823	0.164
298.15	0.04	993.878	0.175
298.15	0.0499	992.447	0.178
298.15	0.075	987.416	0.189
298.15	0.0999	981.957	0.199
298.15	0.1499	971.853	0.228
298.15	0.2001	963.224	0.247
298.15	0.2499	955.895	0.267
298.15	0.2997	949.748	0.287
298.15	0.3495	944.361	0.317
298.15	0.3999	939.514	0.337
298.15	0.4511	935.122	0.357
298.15	0.5002	931.338	0.387
298.15	0.55	927.942	0.408
298.15	0.5994	924.755	0.428
298.15	0.6489	921.985	0.448
298.15	0.697	919.497	0.469
298.15	0.75	916.87	0.499
298.15	0.7979	914.8	0.519
298.15	0.8201	913.817	0.529
298.15	0.871	911.803	0.55
298.15	0.8982	910.724	0.56
298.15	0.9202	909.988	0.57
298.15	0.95	908.934	0.591
298.15	0.9699	908.24	0.601
298.15	1	907.213	0.611
303.15	0	995.645	0.153
303.15	0.001	995.487	0.155
303.15	0.003	995.194	0.156
303.15	0.005	994.937	0.155
303.15	0.01	994.396	0.155
303.15	0.0202	993.539	0.164
303.15	0.03	992.616	0.165
303.15	0.04	991.327	0.176
303.15	0.0499	989.594	0.179
303.15	0.075	984.088	0.19
303.15	0.0999	978.381	0.199
303.15	0.1499	968.008	0.228
303.15	0.2001	959.221	0.248
303.15	0.2499	951.82	0.267
303.15	0.2997	945.573	0.287
303.15	0.3495	940.14	0.317
303.15	0.3999	935.252	0.337
303.15	0.4511	930.833	0.358
303.15	0.5002	927.03	0.388
303.15	0.55	923.619	0.408
303.15	0.5994	920.416	0.428
303.15	0.6489	917.64	0.449
303.15	0.697	915.148	0.469
303.15	0.75	912.509	0.499
303.15	0.7979	910.427	0.52
303.15	0.8201	909.444	0.53
303.15	0.871	907.423	0.55
303.15	0.8982	906.34	0.56
303.15	0.9202	905.6	0.571
303.15	0.95	904.541	0.591
303.15	0.9699	903.842	0.601
303.15	1	902.807	0.611
308.15	0	994.029	0.154
308.15	0.001	993.853	0.156
308.15	0.003	993.525	0.157
308.15	0.005	993.232	0.156
308.15	0.01	992.583	0.155
308.15	0.0202	991.459	0.165
308.15	0.03	990.227	0.166
308.15	0.04	988.621	0.178
308.15	0.0499	986.62	0.18
308.15	0.075	980.685	0.191
308.15	0.0999	974.746	0.2
308.15	0.1499	964.107	0.229
308.15	0.2001	955.173	0.248
308.15	0.2499	947.695	0.268
308.15	0.2997	941.352	0.288
308.15	0.3495	935.876	0.317
308.15	0.3999	930.953	0.338
308.15	0.4511	926.506	0.358
308.15	0.5002	922.686	0.388
308.15	0.55	919.256	0.408
308.15	0.5994	916.039	0.428
308.15	0.6489	913.255	0.449
308.15	0.697	910.755	0.469
308.15	0.75	908.109	0.499
308.15	0.7979	906.024	0.52
308.15	0.8201	905.039	0.53
308.15	0.871	903.013	0.55
308.15	0.8982	901.927	0.561
308.15	0.9202	901.184	0.571
308.15	0.95	900.12	0.591
308.15	0.9699	899.417	0.601
308.15	1	898.373	0.611
313.15	0	992.212	0.154
313.15	0.001	992.02	0.157
313.15	0.003	991.657	0.158
313.15	0.005	991.327	0.157
313.15	0.01	990.571	0.156
313.15	0.0202	989.193	0.166
313.15	0.03	987.668	0.168
313.15	0.04	985.773	0.179
313.15	0.0499	983.53	0.181
313.15	0.075	977.209	0.191
313.15	0.0999	971.05	0.2
313.15	0.1499	960.158	0.229
313.15	0.2001	951.075	0.248
313.15	0.2499	943.432	0.268
313.15	0.2997	937.081	0.288
313.15	0.3495	931.567	0.318
313.15	0.3999	926.607	0.338
313.15	0.4511	922.142	0.358
313.15	0.5002	918.3	0.388
313.15	0.55	914.864	0.408
313.15	0.5994	911.627	0.429
313.15	0.6489	908.836	0.449
313.15	0.697	906.334	0.469
313.15	0.75	903.672	0.5
313.15	0.7979	901.587	0.52
313.15	0.8201	900.598	0.53
313.15	0.871	898.573	0.551
313.15	0.8982	897.482	0.561
313.15	0.9202	896.743	0.571
313.15	0.95	895.674	0.591
313.15	0.9699	894.965	0.601
313.15	1	893.908	0.612
318.15	0	990.208	0.154
318.15	0.001	990	0.159
318.15	0.003	989.604	0.159
318.15	0.005	989.236	0.158
318.15	0.01	988.38	0.158
318.15	0.0202	986.754	0.168
318.15	0.03	984.953	0.169
318.15	0.04	982.79	0.18
318.15	0.0499	980.333	0.182
318.15	0.075	973.657	0.192
318.15	0.0999	967.292	0.201
318.15	0.1499	956.152	0.229
318.15	0.2001	946.924	0.249
318.15	0.2499	939.185	0.268
318.15	0.2997	932.788	0.288
318.15	0.3495	927.21	0.318
318.15	0.3999	922.222	0.338
318.15	0.4511	917.734	0.358
318.15	0.5002	913.875	0.388
318.15	0.55	910.425	0.409
318.15	0.5994	907.174	0.429
318.15	0.6489	904.376	0.449
318.15	0.697	901.869	0.47
318.15	0.75	899.199	0.5
318.15	0.7979	897.113	0.52
318.15	0.8201	896.121	0.53
318.15	0.871	894.095	0.551
318.15	0.8982	893	0.561
318.15	0.9202	892.261	0.571
318.15	0.95	891.189	0.591
318.15	0.9699	890.475	0.602
318.15	1	889.409	0.612

System: 2-propoxyethanol + water; phases: Liquid
Fixed: Pressure, kPa = 100
Fixed: Frequency, MHz = 5
Property: Speed of sound, m/s (Liquid); method: Pulse-echo method
Temperature, K	Mole fraction of 2-propoxyethanol	Speed of sound, m/s	uncertainty
288.15	0	1466.27	0.84
288.15	0.0004	1469.12	1.54
288.15	0.001	1473.13	1.53
288.15	0.0021	1480.47	1.55
288.15	0.004	1492.24	1.44
288.15	0.008	1514.05	1.31
288.15	0.0129	1536.51	1.21
288.15	0.0164	1549.76	1.11
288.15	0.0206	1563.07	1.04
288.15	0.0248	1573.57	0.99
288.15	0.0284	1581.1	0.95
288.15	0.032	1587.01	0.93
288.15	0.0349	1590.9	0.91
288.15	0.0358	1592.01	0.91
288.15	0.0371	1593.4	0.9
288.15	0.0384	1594.62	0.9
288.15	0.0395	1595.6	0.9
288.15	0.041	1596.78	0.89
288.15	0.0427	1597.89	0.89
288.15	0.0442	1598.67	0.89
288.15	0.046	1599.5	0.88
288.15	0.0475	1600	0.88
288.15	0.0498	1600.53	0.88
288.15	0.053	1600.83	0.88
288.15	0.0577	1600.4	0.88
288.15	0.0611	1599.58	0.88
288.15	0.0648	1598.21	0.89
288.15	0.0705	1595.36	0.89
288.15	0.0799	1589.27	0.89
288.15	0.0852	1585.22	0.89
288.15	0.0915	1580.06	0.9
288.15	0.1027	1570.47	0.89
288.15	0.1149	1559.76	0.89
288.15	0.1205	1554.9	0.89
288.15	0.1258	1550.45	0.89
288.15	0.1347	1543.15	0.89
288.15	0.1467	1533.84	0.88
288.15	0.1604	1524.16	0.88
288.15	0.1746	1515.07	0.88
288.15	0.1913	1505.59	0.88
288.15	0.204	1499.16	0.87
288.15	0.2201	1491.76	0.87
288.15	0.2463	1481.28	0.87
288.15	0.2646	1474.74	0.87
288.15	0.2831	1468.61	0.87
288.15	0.3116	1459.84	0.87
288.15	0.3363	1452.58	0.88
288.15	0.3645	1444.61	0.88
288.15	0.405	1433.45	0.88
288.15	0.4539	1420.4	0.89
288.15	0.495	1409.91	0.89
288.15	0.555	1395.62	0.9
288.15	0.6169	1382.55	0.91
288.15	0.7313	1363.4	0.93
288.15	0.8095	1353.78	0.95
288.15	0.8855	1346.14	0.97
288.15	0.9389	1340.98	0.98
288.15	0.9792	1336.74	0.99
288.15	1	1334.3	1
293.15	0	1482.33	0.85
293.15	0.0004	1484.6	1.47
293.15	0.0014	1490.77	1.45
293.15	0.0037	1504.09	1.36
293.15	0.0087	1528.8	1.28
293.15	0.0107	1536.86	1.12
293.15	0.0168	1558.14	1.06
293.15	0.0224	1572.54	0.99
293.15	0.0255	1578.73	0.95
293.15	0.0289	1584.31	0.92
293.15	0.0328	1589.26	0.91
293.15	0.0349	1591.27	0.89
293.15	0.0377	1593.5	0.89
293.15	0.0413	1595.46	0.88
293.15	0.0435	1596.25	0.88
293.15	0.0451	1596.64	0.88
293.15	0.0487	1596.99	0.88
293.15	0.054	1596.38	0.88
293.15	0.0599	1594.36	0.88
293.15	0.0653	1591.57	0.89
293.15	0.0696	1588.89	0.89
293.15	0.0801	1580.84	0.89
293.15	0.0917	1570.65	0.9
293.15	0.1098	1553.9	0.89
293.15	0.1176	1546.75	0.89
293.15	0.1215	1543.35	0.89
293.15	0.1272	1538.31	0.89
293.15	0.1404	1527.38	0.89
293.15	0.1428	1525.48	0.88
293.15	0.1616	1511.74	0.88
293.15	0.1625	1511.14	0.88
293.15	0.1855	1496.77	0.87
293.15	0.2072	1485.23	0.87
293.15	0.2458	1468.34	0.87
293.15	0.2829	1454.78	0.87
293.15	0.3285	1440.03	0.87
293.15	0.3846	1423.28	0.88
293.15	0.4464	1406	0.88
293.15	0.5273	1385.42	0.89
293.15	0.6136	1366.73	0.91
293.15	0.7356	1346.75	0.93
293.15	0.8748	1331.09	0.96
293.15	0.9408	1324.4	0.98
293.15	0.9799	1319.97	0.99
293.15	1	1317.43	1
298.15	0	1496.75	0.85
298.15	0.0002	1498.04	3.35
298.15	0.0007	1500.75	1.36
298.15	0.002	1508	1.35
298.15	0.0047	1521.18	1.26
298.15	0.0085	1537.9	1.12
298.15	0.0154	1560.65	1.01
298.15	0.0252	1581.31	0.94
298.15	0.0333	1590.24	0.89
298.15	0.0426	1593.94	0.88
298.15	0.0454	1594.01	0.88
298.15	0.0489	1593.54	0.88
298.15	0.0536	1592.07	0.88
298.15	0.0574	1590.3	0.89
298.15	0.0631	1586.84	0.89
298.15	0.0715	1580.47	0.89
298.15	0.0809	1572.11	0.9
298.15	0.0941	1559.45	0.89
298.15	0.1061	1547.67	0.89
298.15	0.1171	1537.12	0.89
298.15	0.1189	1535.47	0.89
298.15	0.1296	1525.85	0.89
298.15	0.1336	1522.37	0.88
298.15	0.145	1512.99	0.88
298.15	0.1494	1509.6	0.88
298.15	0.163	1499.67	0.88
298.15	0.1669	1497.02	0.87
298.15	0.1916	1481.79	0.87
298.15	0.2312	1461.99	0.87
298.15	0.2646	1448.22	0.87
298.15	0.3071	1432.91	0.87
298.15	0.3462	1420.03	0.87
298.15	0.3994	1403.76	0.87
298.15	0.4812	1381.01	0.88
298.15	0.5884	1355.92	0.9
298.15	0.7202	1333.14	0.92
298.15	0.8644	1316.02	0.96
298.15	0.9495	1306.82	0.98
298.15	0.98	1303.1	0.99
298.15	1	1300.44	0.99
303.15	0	1509.39	0.85
303.15	0.0006	1512.49	1.29
303.15	0.0014	1516.43	1.28
303.15	0.0025	1522.06	1.22
303.15	0.0042	1529.4	1.21
303.15	0.0079	1544.21	1.12
303.15	0.012	1557.47	1.04
303.15	0.0163	1568.5	0.99
303.15	0.0187	1573.44	0.96
303.15	0.0217	1578.73	0.93
303.15	0.025	1583.24	0.91
303.15	0.0283	1586.6	0.9
303.15	0.0302	1588.14	0.89
303.15	0.0318	1589.13	0.88
303.15	0.0328	1589.67	0.88
303.15	0.0339	1590.17	0.88
303.15	0.0348	1590.52	0.88
303.15	0.0361	1590.91	0.88
303.15	0.0388	1591.38	0.88
303.15	0.0421	1591.36	0.88
303.15	0.0471	1590.26	0.88
303.15	0.052	1588.17	0.88
303.15	0.0538	1587.14	0.89
303.15	0.0599	1583.11	0.89
303.15	0.0649	1579.11	0.89
303.15	0.0707	1573.98	0.9
303.15	0.0815	1563.39	0.9
303.15	0.0914	1553.24	0.9
303.15	0.1032	1541.02	0.89
303.15	0.1151	1529.13	0.89
303.15	0.1177	1526.64	0.89
303.15	0.1296	1515.57	0.88
303.15	0.1331	1512.45	0.88
303.15	0.1491	1499.21	0.88
303.15	0.1533	1495.96	0.87
303.15	0.1644	1487.81	0.87
303.15	0.1704	1483.65	0.87
303.15	0.1918	1470.3	0.87
303.15	0.2215	1454.5	0.86
303.15	0.2539	1439.85	0.86
303.15	0.3007	1421.64	0.86
303.15	0.3466	1405.71	0.87
303.15	0.4039	1387.59	0.87
303.15	0.4643	1370.31	0.88
303.15	0.5499	1348.99	0.89
303.15	0.6144	1335.47	0.9
303.15	0.7105	1319.17	0.92
303.15	0.8307	1303.74	0.95
303.15	0.9021	1295.71	0.96
303.15	0.9478	1290.36	0.98
303.15	0.9795	1286.34	0.98
303.15	1	1283.51	0.99
308.15	0	1520.13	0.86
308.15	0.0006	1523	1.25
308.15	0.0016	1527.5	1.24
308.15	0.0028	1532.85	1.18
308.15	0.004	1537.83	1.18
308.15	0.0069	1548.11	1.1
308.15	0.0092	1555.42	1.04
308.15	0.0134	1566.61	0.98
308.15	0.0178	1575.18	0.94
308.15	0.021	1579.9	0.91
308.15	0.0249	1584.22	0.89
308.15	0.0279	1586.47	0.88
308.15	0.0301	1587.68	0.88
308.15	0.0327	1588.56	0.88
308.15	0.035	1588.94	0.88
308.15	0.0379	1588.94	0.88
308.15	0.0422	1588.09	0.88
308.15	0.0469	1586.13	0.88
308.15	0.0499	1584.43	0.89
308.15	0.0528	1582.54	0.89
308.15	0.0548	1581.04	0.89
308.15	0.0618	1575.19	0.89
308.15	0.0681	1569.18	0.9
308.15	0.0775	1559.39	0.9
308.15	0.0859	1550.27	0.9
308.15	0.0956	1539.65	0.89
308.15	0.1062	1528.39	0.89
308.15	0.1206	1513.86	0.88
308.15	0.134	1501.33	0.88
308.15	0.1482	1489.32	0.87
308.15	0.1576	1482	0.87
308.15	0.1646	1476.85	0.87
308.15	0.1728	1471.13	0.87
308.15	0.192	1458.9	0.86
308.15	0.2167	1445.12	0.86
308.15	0.2398	1433.76	0.86
308.15	0.2724	1419.54	0.86
308.15	0.3082	1405.53	0.86
308.15	0.3429	1393.04	0.86
308.15	0.375	1382.31	0.86
308.15	0.4316	1364.86	0.87
308.15	0.5045	1345.06	0.88
308.15	0.5736	1328.95	0.89
308.15	0.6598	1312.29	0.9
308.15	0.745	1298.99	0.92
308.15	0.8315	1287.73	0.94
308.15	0.9199	1277.07	0.96
308.15	0.9789	1269.47	0.98
308.15	1	1266.5	0.99
313.15	0	1528.82	0.86
313.15	0.0004	1530.43	1.18
313.15	0.0011	1533.66	1.15
313.15	0.003	1540.93	1.16
313.15	0.0051	1548.44	1.09
313.15	0.0089	1559.79	1.02
313.15	0.0123	1567.81	0.97
313.15	0.0157	1574.1	0.93
313.15	0.0191	1578.9	0.9
313.15	0.0233	1583.01	0.89
313.15	0.0255	1584.46	0.88
313.15	0.0267	1585.08	0.88
313.15	0.0284	1585.72	0.88
313.15	0.0302	1586.18	0.88
313.15	0.0315	1586.36	0.88
313.15	0.0335	1586.41	0.88
313.15	0.0355	1586.21	0.88
313.15	0.038	1585.63	0.88
313.15	0.0399	1584.97	0.88
313.15	0.0432	1583.44	0.88
313.15	0.047	1581.09	0.89
313.15	0.0517	1577.58	0.89
313.15	0.058	1571.95	0.9
313.15	0.066	1563.78	0.9
313.15	0.0755	1553.26	0.9
313.15	0.0851	1542.29	0.9
313.15	0.0958	1530.12	0.89
313.15	0.1078	1516.85	0.89
313.15	0.1188	1505.48	0.88
313.15	0.1194	1504.9	0.88
313.15	0.1283	1496.19	0.87
313.15	0.1295	1495.06	0.87
313.15	0.1386	1486.79	0.88
313.15	0.1486	1478.33	0.88
313.15	0.1504	1476.86	0.88
313.15	0.1643	1466.16	0.87
313.15	0.1651	1465.55	0.87
313.15	0.186	1451.26	0.86
313.15	0.208	1438.1	0.86
313.15	0.2429	1420.11	0.86
313.15	0.2861	1401.04	0.86
313.15	0.3341	1382.54	0.86
313.15	0.3997	1360.38	0.86
313.15	0.456	1343.64	0.87
313.15	0.5421	1321.58	0.88
313.15	0.6064	1307.7	0.89
313.15	0.7757	1279.38	0.92
313.15	0.8628	1267.74	0.95
313.15	0.9328	1258.69	0.96
313.15	0.9808	1252.19	0.98
313.15	1	1249.46	0.98
318.15	0	1536.65	0.86
318.15	0.0004	1538.32	1.12
318.15	0.0012	1541.33	1.09
318.15	0.003	1547.65	1.1
318.15	0.0059	1556.7	1.02
318.15	0.0101	1566.96	0.98
318.15	0.0124	1571.23	0.94
318.15	0.0152	1575.75	0.91
318.15	0.0184	1579.47	0.9
318.15	0.0214	1582.03	0.88
318.15	0.0236	1583.31	0.88
318.15	0.0254	1584.03	0.88
318.15	0.0272	1584.49	0.88
318.15	0.0291	1584.7	0.88
318.15	0.0323	1584.46	0.88
318.15	0.0349	1583.81	0.88
318.15	0.0372	1582.92	0.88
318.15	0.0386	1582.24	0.88
318.15	0.0431	1579.56	0.89
318.15	0.0476	1576.08	0.89
318.15	0.0552	1568.93	0.9
318.15	0.0626	1560.93	0.9
318.15	0.0697	1552.76	0.9
318.15	0.0767	1544.39	0.9
318.15	0.0857	1533.49	0.9
318.15	0.0975	1519.52	0.89
318.15	0.1103	1505.22	0.89
318.15	0.1186	1496.52	0.88
318.15	0.1223	1492.74	0.88
318.15	0.1281	1487.05	0.88
318.15	0.1337	1481.75	0.88
318.15	0.1417	1474.54	0.87
318.15	0.1608	1458.82	0.87
318.15	0.1839	1442.29	0.86
318.15	0.2106	1425.9	0.86
318.15	0.2415	1409.53	0.85
318.15	0.2912	1386.97	0.85
318.15	0.3313	1371.13	0.85
318.15	0.3931	1349.57	0.86
318.15	0.459	1329.65	0.86
318.15	0.5535	1305.61	0.88
318.15	0.6553	1284.59	0.9
318.15	0.8059	1259.95	0.93
318.15	0.8723	1250.48	0.94
318.15	0.9424	1240.74	0.96
318.15	0.9789	1235.6	0.97
318.15	1	1232.57	0.98

System: 2-propoxyethanol + water; phases: Liquid
Fixed: Pressure, kPa = 100
Property: Refractive index (Na D-line) (Liquid); method: Standard Abbe refractometry
Temperature, K	Mole fraction of 2-propoxyethanol	Refractive index (Na D-line)	uncertainty
288.15	0	1.33339	0.00031
288.15	0.003	1.33525	0.00034
288.15	0.0051	1.33661	0.00034
288.15	0.007	1.33786	0.00034
288.15	0.012	1.34105	0.00033
288.15	0.02	1.34557	0.00033
288.15	0.03	1.35081	0.00033
288.15	0.0501	1.36023	0.00032
288.15	0.075	1.36897	0.00032
288.15	0.1001	1.376	0.00031
288.15	0.15	1.38539	0.00032
288.15	0.1993	1.39267	0.00032
288.15	0.2501	1.3976	0.00032
288.15	0.3	1.40133	0.00032
288.15	0.3496	1.40438	0.00032
288.15	0.4004	1.40672	0.00032
288.15	0.4491	1.40834	0.00033
288.15	0.4992	1.40987	0.00033
288.15	0.5997	1.41222	0.00033
288.15	0.6989	1.41378	0.00033
288.15	0.8011	1.41502	0.00033
288.15	0.8964	1.41552	0.00034
288.15	1	1.41646	0.00034
293.15	0	1.33299	0.00031
293.15	0.003	1.33482	0.00034
293.15	0.0051	1.33617	0.00034
293.15	0.007	1.33741	0.00033
293.15	0.012	1.34037	0.00033
293.15	0.02	1.34492	0.00033
293.15	0.03	1.35	0.00033
293.15	0.0501	1.35912	0.00032
293.15	0.075	1.36766	0.00032
293.15	0.1001	1.37455	0.00032
293.15	0.15	1.38386	0.00032
293.15	0.1993	1.39094	0.00032
293.15	0.2501	1.3957	0.00032
293.15	0.3	1.39943	0.00032
293.15	0.3496	1.40254	0.00032
293.15	0.4004	1.40486	0.00032
293.15	0.4491	1.40644	0.00033
293.15	0.4992	1.40791	0.00033
293.15	0.5997	1.41017	0.00033
293.15	0.6989	1.4118	0.00033
293.15	0.8011	1.41299	0.00034
293.15	0.8964	1.41362	0.00034
293.15	1	1.41434	0.00034
298.15	0	1.3325	0.00031
298.15	0.003	1.33431	0.00034
298.15	0.0051	1.33565	0.00034
298.15	0.007	1.33688	0.00033
298.15	0.012	1.3397	0.00033
298.15	0.02	1.34421	0.00033
298.15	0.03	1.34916	0.00033
298.15	0.0501	1.358	0.00032
298.15	0.075	1.36635	0.00032
298.15	0.1001	1.37309	0.00032
298.15	0.15	1.38233	0.00032
298.15	0.1993	1.3892	0.00032
298.15	0.2501	1.39387	0.00032
298.15	0.3	1.39756	0.00032
298.15	0.3496	1.40067	0.00032
298.15	0.4004	1.40297	0.00032
298.15	0.4491	1.40454	0.00033
298.15	0.4992	1.40597	0.00033
298.15	0.5997	1.40815	0.00033
298.15	0.6989	1.40979	0.00033
298.15	0.8011	1.41095	0.00034
298.15	0.8964	1.41166	0.00034
298.15	1	1.41222	0.00034
303.15	0	1.33194	0.00031
303.15	0.003	1.33374	0.00034
303.15	0.0051	1.33504	0.00034
303.15	0.007	1.33626	0.00033
303.15	0.012	1.33902	0.00033
303.15	0.02	1.34344	0.00033
303.15	0.03	1.34829	0.00033
303.15	0.0501	1.35688	0.00032
303.15	0.075	1.36503	0.00032
303.15	0.1001	1.3716	0.00032
303.15	0.15	1.3808	0.00032
303.15	0.1993	1.38746	0.00032
303.15	0.2501	1.39211	0.00032
303.15	0.3	1.39574	0.00032
303.15	0.3496	1.39879	0.00032
303.15	0.4004	1.40104	0.00033
303.15	0.4491	1.40261	0.00033
303.15	0.4992	1.40404	0.00033
303.15	0.5997	1.40615	0.00033
303.15	0.6989	1.40775	0.00033
303.15	0.8011	1.4089	0.00034
303.15	0.8964	1.40963	0.00034
303.15	1	1.41011	0.00034
308.15	0	1.33131	0.00031
308.15	0.003	1.33311	0.00033
308.15	0.0051	1.33435	0.00033
308.15	0.007	1.33555	0.00033
308.15	0.012	1.33833	0.00033
308.15	0.02	1.34261	0.00033
308.15	0.03	1.34738	0.00032
308.15	0.0501	1.35574	0.00032
308.15	0.075	1.36372	0.00032
308.15	0.1001	1.3701	0.00032
308.15	0.15	1.37927	0.00032
308.15	0.1993	1.38573	0.00032
308.15	0.2501	1.39042	0.00032
308.15	0.3	1.39397	0.00032
308.15	0.3496	1.39689	0.00032
308.15	0.4004	1.39907	0.00033
308.15	0.4491	1.40067	0.00033
308.15	0.4992	1.40213	0.00033
308.15	0.5997	1.40417	0.00033
308.15	0.6989	1.40569	0.00033
308.15	0.8011	1.40684	0.00034
308.15	0.8964	1.40753	0.00034
308.15	1	1.40801	0.00034
313.15	0	1.33061	0.00031
313.15	0.003	1.3324	0.00033
313.15	0.0051	1.33358	0.00033
313.15	0.007	1.33476	0.00033
313.15	0.012	1.33764	0.00033
313.15	0.02	1.34171	0.00033
313.15	0.03	1.34645	0.00032
313.15	0.0501	1.35461	0.00032
313.15	0.075	1.3624	0.00032
313.15	0.1001	1.36857	0.00032
313.15	0.15	1.37774	0.00032
313.15	0.1993	1.38399	0.00032
313.15	0.2501	1.38881	0.00032
313.15	0.3	1.39223	0.00032
313.15	0.3496	1.39497	0.00032
313.15	0.4004	1.39706	0.00033
313.15	0.4491	1.39872	0.00033
313.15	0.4992	1.40024	0.00033
313.15	0.5997	1.4022	0.00033
313.15	0.6989	1.40361	0.00033
313.15	0.8011	1.40477	0.00034
313.15	0.8964	1.40537	0.00034
313.15	1	1.40592	0.00034
318.15	0	1.32985	0.00031
318.15	0.003	1.33162	0.00033
318.15	0.0051	1.33272	0.00033
318.15	0.007	1.33389	0.00033
318.15	0.012	1.33695	0.00033
318.15	0.02	1.34076	0.00033
318.15	0.03	1.34549	0.00033
318.15	0.0501	1.35346	0.00033
318.15	0.075	1.36109	0.00032
318.15	0.1001	1.36702	0.00033
318.15	0.15	1.37621	0.00033
318.15	0.1993	1.38225	0.00032
318.15	0.2501	1.38727	0.00032
318.15	0.3	1.39054	0.00032
318.15	0.3496	1.39303	0.00033
318.15	0.4004	1.39502	0.00033
318.15	0.4491	1.39675	0.00033
318.15	0.4992	1.39835	0.00033
318.15	0.5997	1.40026	0.00033
318.15	0.6989	1.4015	0.00033
318.15	0.8011	1.40269	0.00034
318.15	0.8964	1.40314	0.00034
318.15	1	1.40384	0.00034

System: 2-propoxyethanol + water; phases: Liquid
Fixed: Pressure, kPa = 100
Fixed: Frequency, MHz = 0.1
Property: Relative permittivity at various frequencies (Liquid); method: Coaxial cylinder capacitor
Mole fraction of 2-propoxyethanol	Temperature, K	Relative permittivity at various frequencies	uncertainty
0	283.15	83.83	0.2
0.0252	283.15	75.5	0.21
0.0499	283.15	68.7	0.21
0.07	283.15	63.56	0.21
0.1006	283.15	56.68	0.2
0.1252	283.15	51.85	0.2
0.1498	283.15	47.61	0.2
0.2	283.15	40.49	0.2
0.27	283.15	33.3	0.2
0.3494	283.15	28.26	0.2
0.4212	283.15	24.89	0.2
0.5022	283.15	21.81	0.2
0.5999	283.15	19.06	0.2
0.7032	283.15	16.71	0.2
0.7999	283.15	14.86	0.2
0.9014	283.15	13.26	0.2
0.9511	283.15	12.55	0.2
1	283.15	11.83	0.2
0	288.15	81.94	0.2
0.0252	288.15	73.72	0.21
0.0499	288.15	67.03	0.21
0.07	288.15	61.98	0.21
0.1006	288.15	55.22	0.2
0.1252	288.15	50.5	0.2
0.1498	288.15	46.35	0.2
0.2	288.15	39.32	0.2
0.27	288.15	32.58	0.2
0.3494	288.15	27.5	0.2
0.4212	288.15	24.25	0.2
0.5022	288.15	21.25	0.2
0.5999	288.15	18.57	0.2
0.7032	288.15	16.27	0.2
0.7999	288.15	14.48	0.2
0.9014	288.15	12.93	0.2
0.9511	288.15	12.24	0.2
1	288.15	11.51	0.2
0	293.15	80.1	0.2
0.0252	293.15	71.98	0.21
0.0499	293.15	65.4	0.21
0.07	293.15	60.43	0.21
0.1006	293.15	53.8	0.2
0.1252	293.15	49.18	0.2
0.1498	293.15	45.12	0.2
0.2	293.15	38.3	0.2
0.27	293.15	31.65	0.2
0.3494	293.15	26.76	0.2
0.4212	293.15	23.63	0.2
0.5022	293.15	20.71	0.2
0.5999	293.15	18.1	0.2
0.7032	293.15	15.88	0.2
0.7999	293.15	14.11	0.2
0.9014	293.15	12.6	0.2
0.9511	293.15	11.93	0.2
1	293.15	11.2	0.2
0	298.15	78.36	0.2
0.0252	298.15	70.28	0.21
0.0499	298.15	63.8	0.21
0.07	298.15	58.92	0.21
0.1006	298.15	52.42	0.2
0.1252	298.15	47.89	0.2
0.1498	298.15	43.93	0.2
0.2	298.15	37.28	0.2
0.27	298.15	30.83	0.2
0.3494	298.15	26.07	0.2
0.4212	298.15	23.02	0.2
0.5022	298.15	20.18	0.2
0.5999	298.15	17.63	0.2
0.7032	298.15	15.49	0.2
0.7999	298.15	13.75	0.2
0.9014	298.15	12.27	0.2
0.9511	298.15	11.64	0.2
1	298.15	10.96	0.2
0	303.15	76.55	0.2
0.0252	303.15	68.62	0.21
0.0499	303.15	62.25	0.21
0.07	303.15	57.45	0.2
0.1006	303.15	51.07	0.2
0.1252	303.15	46.64	0.2
0.1498	303.15	42.77	0.2
0.2	303.15	36.35	0.2
0.27	303.15	29.98	0.2
0.3494	303.15	25.39	0.2
0.4212	303.15	22.43	0.2
0.5022	303.15	19.67	0.2
0.5999	303.15	17.18	0.2
0.7032	303.15	15.08	0.2
0.7999	303.15	13.4	0.2
0.9014	303.15	11.98	0.2
0.9511	303.15	11.35	0.2
1	303.15	10.68	0.2
0	308.15	74.83	0.2
0.0252	308.15	67	0.21
0.0499	308.15	60.74	0.21
0.07	308.15	56.02	0.2
0.1006	308.15	49.76	0.2
0.1252	308.15	45.42	0.2
0.1498	308.15	41.64	0.2
0.2	308.15	35.38	0.2
0.27	308.15	29.17	0.2
0.3494	308.15	24.72	0.2
0.4212	308.15	21.86	0.2
0.5022	308.15	19.17	0.2
0.5999	308.15	16.74	0.2
0.7032	308.15	14.69	0.2
0.7999	308.15	13.06	0.2
0.9014	308.15	11.66	0.2
0.9511	308.15	11.07	0.2
1	308.15	10.42	0.2
0	313.15	73.15	0.2
0.0252	313.15	65.42	0.21
0.0499	313.15	59.26	0.21
0.07	313.15	54.62	0.2
0.1006	313.15	48.48	0.2
0.1252	313.15	44.24	0.2
0.1498	313.15	40.54	0.2
0.2	313.15	34.45	0.2
0.27	313.15	28.45	0.2
0.3494	313.15	24.06	0.2
0.4212	313.15	21.3	0.2
0.5022	313.15	18.68	0.2
0.5999	313.15	16.32	0.2
0.7032	313.15	14.32	0.2
0.7999	313.15	12.73	0.2
0.9014	313.15	11.38	0.2
0.9511	313.15	10.79	0.2
1	313.15	10.2	0.2
0	318.15	71.51	0.2
0.0252	318.15	63.87	0.21
0.0499	318.15	57.82	0.21
0.07	318.15	53.26	0.2
0.1006	318.15	47.23	0.2
0.1252	318.15	43.08	0.2
0.1498	318.15	39.47	0.2
0.2	318.15	33.53	0.2
0.27	318.15	27.7	0.2
0.3494	318.15	23.45	0.2
0.4212	318.15	20.75	0.2
0.5022	318.15	18.21	0.2
0.5999	318.15	15.9	0.2
0.7032	318.15	13.94	0.2
0.7999	318.15	12.4	0.2
0.9014	318.15	11.09	0.2
0.9511	318.15	10.52	0.2
1	318.15	9.92	0.2
0	323.15	69.91	0.2
0.0252	323.15	62.36	0.21
0.0499	323.15	56.41	0.21
0.07	323.15	51.93	0.2
0.1006	323.15	46.02	0.2
0.1252	323.15	41.95	0.2
0.1498	323.15	38.43	0.2
0.2	323.15	32.65	0.2
0.27	323.15	26.97	0.2
0.3494	323.15	22.84	0.2
0.4212	323.15	20.22	0.2
0.5022	323.15	17.74	0.2
0.5999	323.15	15.49	0.2
0.7032	323.15	13.61	0.2
0.7999	323.15	12.09	0.2
0.9014	323.15	10.82	0.2
0.9511	323.15	10.26	0.2
1	323.15	9.69	0.2
0	328.15	68.35	0.2
0.0252	328.15	60.89	0.21
0.0499	328.15	55.03	0.21
0.07	328.15	50.63	0.2
0.1006	328.15	44.84	0.2
0.1252	328.15	40.86	0.2
0.1498	328.15	37.42	0.2
0.2	328.15	31.79	0.2
0.27	328.15	26.28	0.2
0.3494	328.15	22.28	0.2
0.4212	328.15	19.7	0.2
0.5022	328.15	17.29	0.2
0.5999	328.15	15.1	0.2
0.7032	328.15	13.23	0.2
0.7999	328.15	11.78	0.2
0.9014	328.15	10.54	0.2
0.9511	328.15	10.01	0.2
1	328.15	9.46	0.2
0	333.15	66.82	0.2
0.0252	333.15	59.45	0.21
0.0499	333.15	53.69	0.21
0.07	333.15	49.37	0.2
0.1006	333.15	43.69	0.2
0.1252	333.15	39.79	0.2
0.1498	333.15	36.44	0.2
0.2	333.15	30.95	0.2
0.27	333.15	25.6	0.2
0.3494	333.15	21.73	0.2
0.4212	333.15	19.19	0.2
0.5022	333.15	16.86	0.2
0.5999	333.15	14.71	0.2
0.7032	333.15	12.88	0.2
0.7999	333.15	11.48	0.2
0.9014	333.15	10.27	0.2
0.9511	333.15	9.76	0.2
1	333.15	9.22	0.2
