Measured thermophysical data. Volumetric properties of room temperature ionic liquid 2 The concentrated aqueous solutions of {1-methyl-3-ethylimidazolium ethyl sulfate + water} in a temperature range of 278.2 K to 338.2 K
Source: J. Chem. Thermodyn., 2005, 10.1016/j.jct.2005.03.002
Compound 1: 1-ethyl-3-methylimidazolium ethyl sulfate, C8H16N2O4S, InChI=1S/C6H11N2.C2H6O4S/c1-3-8-5-4-7(2)6-8;1-2-6-7(3,4)5/h4-6H,3H2,1-2H3;2H2,1H3,(H,3,4,5)/q+1;/p-1
Compound 2: water, H2O, InChI=1S/H2O/h1H2

System: 1-ethyl-3-methylimidazolium ethyl sulfate; phases: Liquid
Fixed: Pressure, kPa = 101.325
Property: Mass density, kg/m3 (Liquid); method: BUOYAN:UFactor:32
Temperature, K	Mass density, kg/m3	uncertainty
278.2	1243	6.1
288.2	1236.2	6
298.2	1229.6	5.9
308.2	1223	5.8
318.2	1216.2	5.7
328.2	1209.9	5.7
338.2	1203.7	5.6

System: water + 1-ethyl-3-methylimidazolium ethyl sulfate; phases: Liquid
Fixed: Pressure, kPa = 101.325
Property: Mass density, kg/m3 (Liquid); method: BUOYAN:UFactor:32
Temperature, K	Mole fraction of water	Mass density, kg/m3	uncertainty
278.2	0	1243	6.1
278.2	0.0503	1242.6	6.1
278.2	0.0983	1241.6	6.1
278.2	0.1495	1240.2	6.1
278.2	0.1996	1239.2	6.1
278.2	0.2505	1238.3	6.1
278.2	0.2999	1236.7	6.1
278.2	0.3504	1235.6	6
278.2	0.3987	1233.4	6
278.2	0.4505	1231.1	6
278.2	0.4994	1228.7	5.9
278.2	0.5495	1225.8	5.9
278.2	0.6	1222.1	5.8
278.2	0.6504	1217.2	5.8
278.2	0.6999	1211.5	5.7
278.2	0.7502	1203.2	5.6
278.2	0.8	1192.4	5.4
278.2	0.8499	1176.4	5.2
278.2	0.9	1149.2	4.8
278.2	0.94	1107.2	4.2
288.2	0	1236.2	6
288.2	0.0503	1235.5	6
288.2	0.0983	1234.7	6
288.2	0.1495	1233.5	6
288.2	0.1996	1232.7	6
288.2	0.2505	1231.1	6
288.2	0.2999	1229.8	6
288.2	0.3504	1228.5	5.9
288.2	0.3987	1226.6	5.9
288.2	0.4505	1224.4	5.9
288.2	0.4994	1222	5.8
288.2	0.5495	1219.1	5.8
288.2	0.6	1215.3	5.7
288.2	0.6504	1210.7	5.7
288.2	0.6999	1204.7	5.6
288.2	0.7502	1196.8	5.5
288.2	0.8	1185.7	5.3
288.2	0.8499	1169.9	5.1
288.2	0.9	1142.9	4.7
288.2	0.94	1101.8	4.1
298.2	0	1229.6	5.9
298.2	0.0503	1229	5.9
298.2	0.0983	1227.9	5.9
298.2	0.1495	1226.9	5.9
298.2	0.1996	1226.2	5.9
298.2	0.2505	1224.7	5.9
298.2	0.2999	1223.1	5.9
298.2	0.3504	1221.8	5.8
298.2	0.3987	1220.1	5.8
298.2	0.4505	1218	5.8
298.2	0.4994	1215.4	5.7
298.2	0.5495	1212.3	5.7
298.2	0.6	1208.7	5.6
298.2	0.6504	1203.8	5.6
298.2	0.6999	1198.3	5.5
298.2	0.7502	1190	5.4
298.2	0.8	1178.9	5.2
298.2	0.8499	1163.4	5
298.2	0.9	1136.6	4.6
298.2	0.94	1096.4	4
308.2	0	1223	5.8
308.2	0.0503	1222.6	5.8
308.2	0.0983	1221.6	5.8
308.2	0.1495	1220.5	5.8
308.2	0.1996	1219.5	5.8
308.2	0.2505	1218.3	5.8
308.2	0.2999	1216.6	5.8
308.2	0.3504	1215.3	5.7
308.2	0.3987	1213.4	5.7
308.2	0.4505	1211.2	5.7
308.2	0.4994	1208.8	5.6
308.2	0.5495	1205.8	5.6
308.2	0.6	1202	5.5
308.2	0.6504	1197.4	5.5
308.2	0.6999	1191.5	5.4
308.2	0.7502	1183.3	5.3
308.2	0.8	1172.4	5.1
308.2	0.8499	1156.8	4.9
308.2	0.9	1130.3	4.5
308.2	0.94	1090.8	4
318.2	0	1216.2	5.7
318.2	0.0503	1216.2	5.7
318.2	0.0983	1215.1	5.7
318.2	0.1495	1213.9	5.7
318.2	0.1996	1213	5.7
318.2	0.2505	1211.7	5.7
318.2	0.2999	1210.1	5.7
318.2	0.3504	1208.7	5.6
318.2	0.3987	1206.8	5.6
318.2	0.4505	1204.6	5.6
318.2	0.4994	1202.2	5.5
318.2	0.5495	1199.4	5.5
318.2	0.6	1195.6	5.4
318.2	0.6504	1190.8	5.4
318.2	0.6999	1184.7	5.3
318.2	0.7502	1176.6	5.2
318.2	0.8	1165.6	5
318.2	0.8499	1150	4.8
318.2	0.9	1124.4	4.4
328.2	0	1209.9	5.7
328.2	0.0503	1209.8	5.7
328.2	0.0983	1208.6	5.6
328.2	0.1495	1207.5	5.6
328.2	0.1996	1206.6	5.6
328.2	0.2505	1205.3	5.6
328.2	0.2999	1203.8	5.6
328.2	0.3504	1202.4	5.5
328.2	0.3987	1200.3	5.5
328.2	0.4505	1198.6	5.5
328.2	0.4994	1196.2	5.5
328.2	0.5495	1193	5.4
328.2	0.6	1189.2	5.3
328.2	0.6504	1184.4	5.3
328.2	0.6999	1178.2	5.2
328.2	0.7502	1170	5.1
328.2	0.8	1159.1	4.9
328.2	0.8499	1143.9	4.7
328.2	0.9	1117.8	4.3
338.2	0	1203.7	5.6
338.2	0.0503	1203.6	5.6
338.2	0.0983	1202.5	5.5
338.2	0.1495	1201.2	5.5
338.2	0.1996	1200.1	5.5
338.2	0.2505	1198.7	5.5
338.2	0.2999	1198	5.5
338.2	0.3504	1196.1	5.5
338.2	0.3987	1194.3	5.4
338.2	0.4505	1192.2	5.4
338.2	0.4994	1189.9	5.4
338.2	0.5495	1186.8	5.3
338.2	0.6	1183	5.3
338.2	0.6504	1178	5.2
338.2	0.6999	1171.8	5.1
338.2	0.7502	1163.8	5
338.2	0.8	1153.1	4.8
338.2	0.8499	1137.8	4.6
338.2	0.9	1112.4	4.3
