Measured thermophysical data. Solubility of 4-methyl-2-nitroaniline in fourteen organic solvents from T = (278.15 to 313.15) K and mixing properties of solutions
Source: J. Chem. Thermodyn., 2017, 10.1016/j.jct.2017.02.008
Compound 1: 4-methyl-2-nitroaniline, C7H8N2O2, InChI=1S/C7H8N2O2/c1-5-2-3-6(8)7(4-5)9(10)11/h2-4H,8H2,1H3, purity 97.9%
Compound 2: butanone, C4H8O, InChI=1S/C4H8O/c1-3-4(2)5/h3H2,1-2H3, purity 99.4%
Compound 3: propan-1-ol, C3H8O, InChI=1S/C3H8O/c1-2-3-4/h4H,2-3H2,1H3, purity 99.4%
Compound 4: butan-1-ol, C4H10O, InChI=1S/C4H10O/c1-2-3-4-5/h5H,2-4H2,1H3, purity 99.3%
Compound 5: propan-2-ol, C3H8O, InChI=1S/C3H8O/c1-3(2)4/h3-4H,1-2H3, purity 99.5%
Compound 6: ethanol, C2H6O, InChI=1S/C2H6O/c1-2-3/h3H,2H2,1H3, purity 99.5%
Compound 7: methanol, CH4O, InChI=1S/CH4O/c1-2/h2H,1H3, purity 99.7%
Compound 8: toluene, C7H8, InChI=1S/C7H8/c1-7-5-3-2-4-6-7/h2-6H,1H3, purity 99.6%
Compound 9: ethyl acetate, C4H8O2, InChI=1S/C4H8O2/c1-3-6-4(2)5/h3H2,1-2H3, purity 99.5%
Compound 10: acetonitrile, C2H3N, InChI=1S/C2H3N/c1-2-3/h1H3, purity 99.4%
Compound 11: 1,4-dioxane, C4H8O2, InChI=1S/C4H8O2/c1-2-6-4-3-5-1/h1-4H2, purity 99.6%
Compound 12: dimethylformamide, C3H7NO, InChI=1S/C3H7NO/c1-4(2)3-5/h3H,1-2H3, purity 99.6%
Compound 13: tetrachloromethane, CCl4, InChI=1S/CCl4/c2-1(3,4)5, purity 99.5%
Compound 14: 1,2-dichloroethane, C2H4Cl2, InChI=1S/C2H4Cl2/c3-1-2-4/h1-2H2, purity 99.6%
Compound 15: chlorobenzene, C6H5Cl, InChI=1S/C6H5Cl/c7-6-4-2-1-3-5-6/h1-5H, purity 99.4%

System: 4-methyl-2-nitroaniline; phases: Crystal, Liquid, Air at 1 atmosphere
Property: Normal melting temperature, K (Crystal); method: DTA
Normal melting temperature, K	uncertainty
388.56	1.06

System: 4-methyl-2-nitroaniline; phases: Crystal, Liquid, Air at 1 atmosphere
Property: Molar enthalpy of transition or fusion, kJ/mol (Crystal); method: DSC
Molar enthalpy of transition or fusion, kJ/mol	uncertainty
21.15	0.92

System: acetonitrile + 4-methyl-2-nitroaniline; phases: Liquid, Crystal
Fixed: Pressure, kPa = 101.2
Property: Mole fraction of 4-methyl-2-nitroaniline (Liquid); method: Chromatography
Temperature, K	Mole fraction of 4-methyl-2-nitroaniline	uncertainty
278.15	0.02739	0.00143
280.65	0.03023	0.00157
283.15	0.03339	0.00174
285.65	0.03692	0.00192
288.15	0.04062	0.00211
290.65	0.04473	0.00233
293.15	0.04929	0.00257
295.65	0.05431	0.00283
298.15	0.06018	0.00313
300.65	0.06572	0.00342
303.15	0.07211	0.00375
305.65	0.07941	0.00413
308.15	0.08721	0.00454
310.65	0.09546	0.00497
313.15	0.1049	0.0055

System: 4-methyl-2-nitroaniline + ethyl acetate; phases: Liquid, Crystal
Fixed: Pressure, kPa = 101.2
Property: Mole fraction of 4-methyl-2-nitroaniline (Liquid); method: Chromatography
Temperature, K	Mole fraction of 4-methyl-2-nitroaniline	uncertainty
278.15	0.07604	0.00396
280.65	0.08158	0.00425
283.15	0.08702	0.00453
285.65	0.09329	0.00486
288.15	0.09957	0.00518
290.65	0.1063	0.0055
293.15	0.113	0.0059
295.65	0.1205	0.0063
298.15	0.128	0.0067
300.65	0.136	0.0071
303.15	0.1443	0.0075
305.65	0.1531	0.008
308.15	0.162	0.0084
310.65	0.1715	0.0089
313.15	0.1817	0.0095

System: ethanol + 4-methyl-2-nitroaniline; phases: Liquid, Crystal
Fixed: Pressure, kPa = 101.2
Property: Mole fraction of 4-methyl-2-nitroaniline (Liquid); method: Chromatography
Temperature, K	Mole fraction of 4-methyl-2-nitroaniline	uncertainty
278.15	0.009826	0.000512
280.65	0.01072	0.00056
283.15	0.01175	0.00061
285.65	0.01278	0.00067
288.15	0.01392	0.00072
290.65	0.01517	0.00079
293.15	0.01654	0.00086
295.65	0.01791	0.00093
298.15	0.01941	0.00101
300.65	0.02099	0.00109
303.15	0.02282	0.00119
305.65	0.02464	0.00128
308.15	0.02664	0.00139
310.65	0.02886	0.0015
313.15	0.03115	0.00162

System: propan-1-ol + 4-methyl-2-nitroaniline; phases: Liquid, Crystal
Fixed: Pressure, kPa = 101.2
Property: Mole fraction of 4-methyl-2-nitroaniline (Liquid); method: Chromatography
Temperature, K	Mole fraction of 4-methyl-2-nitroaniline	uncertainty
278.15	0.01109	0.00058
280.65	0.01203	0.00063
283.15	0.01318	0.00069
285.65	0.01433	0.00075
288.15	0.01569	0.00082
290.65	0.01705	0.00089
293.15	0.01851	0.00096
295.65	0.02019	0.00105
298.15	0.02184	0.00114
300.65	0.02374	0.00124
303.15	0.02573	0.00134
305.65	0.02782	0.00145
308.15	0.0301	0.00157
310.65	0.03263	0.0017
313.15	0.03521	0.00183

System: propan-2-ol + 4-methyl-2-nitroaniline; phases: Liquid, Crystal
Fixed: Pressure, kPa = 101.2
Property: Mole fraction of 4-methyl-2-nitroaniline (Liquid); method: Chromatography
Temperature, K	Mole fraction of 4-methyl-2-nitroaniline	uncertainty
278.15	0.0102	0.00053
280.65	0.01118	0.00058
283.15	0.0122	0.00064
285.65	0.01335	0.0007
288.15	0.0146	0.00076
290.65	0.01608	0.00084
293.15	0.01757	0.00091
295.65	0.01916	0.001
298.15	0.02088	0.00109
300.65	0.0227	0.00118
303.15	0.02476	0.00129
305.65	0.02681	0.0014
308.15	0.0293	0.00153
310.65	0.03172	0.00165
313.15	0.03457	0.0018

System: 4-methyl-2-nitroaniline + 1,4-dioxane; phases: Liquid, Crystal
Fixed: Pressure, kPa = 101.2
Property: Mole fraction of 4-methyl-2-nitroaniline (Liquid); method: Chromatography
Temperature, K	Mole fraction of 4-methyl-2-nitroaniline	uncertainty
283.15	0.04039	0.0021
285.65	0.04518	0.00235
288.15	0.05066	0.00264
290.65	0.05682	0.00296
293.15	0.06367	0.00332
295.65	0.0712	0.00371
298.15	0.07936	0.00413
300.65	0.08831	0.0046
303.15	0.09858	0.00513
305.65	0.1095	0.0057
308.15	0.1212	0.0063
310.65	0.1342	0.007
313.15	0.1486	0.0077

System: 4-methyl-2-nitroaniline + toluene; phases: Liquid, Crystal
Fixed: Pressure, kPa = 101.2
Property: Mole fraction of 4-methyl-2-nitroaniline (Liquid); method: Chromatography
Temperature, K	Mole fraction of 4-methyl-2-nitroaniline	uncertainty
278.15	0.01185	0.00062
280.65	0.0131	0.00068
283.15	0.01455	0.00076
285.65	0.016	0.00083
288.15	0.01762	0.00092
290.65	0.0194	0.00101
293.15	0.0215	0.00112
295.65	0.0236	0.00123
298.15	0.02592	0.00135
300.65	0.02845	0.00148
303.15	0.0312	0.00162
305.65	0.03427	0.00178
308.15	0.03748	0.00195
310.65	0.04106	0.00214
313.15	0.04501	0.00234

System: tetrachloromethane + 4-methyl-2-nitroaniline; phases: Liquid, Crystal
Fixed: Pressure, kPa = 101.2
Property: Mole fraction of 4-methyl-2-nitroaniline (Liquid); method: Chromatography
Temperature, K	Mole fraction of 4-methyl-2-nitroaniline	uncertainty
278.15	0.002415	0.000126
280.65	0.002647	0.000138
283.15	0.002966	0.000154
285.65	0.003331	0.000173
288.15	0.003714	0.000193
290.65	0.004061	0.000211
293.15	0.004518	0.000235
295.65	0.004974	0.000259
298.15	0.005501	0.000286
300.65	0.006024	0.000314
303.15	0.006617	0.000345
305.65	0.007211	0.000375
308.15	0.007968	0.000415
310.65	0.008762	0.000456
313.15	0.00963	0.0005
315.65	0.01054	0.00055
318.15	0.01165	0.00061

System: methanol + 4-methyl-2-nitroaniline; phases: Liquid, Crystal
Fixed: Pressure, kPa = 101.2
Property: Mole fraction of 4-methyl-2-nitroaniline (Liquid); method: Chromatography
Temperature, K	Mole fraction of 4-methyl-2-nitroaniline	uncertainty
278.15	0.008632	0.000449
280.65	0.00933	0.000486
283.15	0.01036	0.00054
285.65	0.01121	0.00058
288.15	0.01215	0.00063
290.65	0.01327	0.00069
293.15	0.01438	0.00075
295.65	0.01558	0.00081
298.15	0.01686	0.00088
300.65	0.01823	0.00095
303.15	0.01977	0.00103
305.65	0.02131	0.00111
308.15	0.02303	0.0012
310.65	0.02482	0.00129
313.15	0.02682	0.0014

System: butanone + 4-methyl-2-nitroaniline; phases: Liquid, Crystal
Fixed: Pressure, kPa = 101.2
Property: Mole fraction of 4-methyl-2-nitroaniline (Liquid); method: Chromatography
Temperature, K	Mole fraction of 4-methyl-2-nitroaniline	uncertainty
278.15	0.1202	0.0063
280.65	0.1278	0.0067
283.15	0.1358	0.0071
285.65	0.1443	0.0075
288.15	0.1528	0.008
290.65	0.1619	0.0084
293.15	0.1714	0.0089
295.65	0.181	0.0094
298.15	0.1911	0.0099
300.65	0.2018	0.0105
303.15	0.213	0.0111
305.65	0.2242	0.0117
308.15	0.236	0.0123
310.65	0.2487	0.0129
313.15	0.2614	0.0136

System: butan-1-ol + 4-methyl-2-nitroaniline; phases: Liquid, Crystal
Fixed: Pressure, kPa = 101.2
Property: Mole fraction of 4-methyl-2-nitroaniline (Liquid); method: Chromatography
Temperature, K	Mole fraction of 4-methyl-2-nitroaniline	uncertainty
278.15	0.01263	0.00066
280.65	0.01384	0.00072
283.15	0.0152	0.00079
285.65	0.01656	0.00086
288.15	0.01804	0.00094
290.65	0.01965	0.00102
293.15	0.02138	0.00111
295.65	0.02324	0.00121
298.15	0.0253	0.00132
300.65	0.02731	0.00142
303.15	0.02966	0.00154
305.65	0.03214	0.00167
308.15	0.03477	0.00181
310.65	0.03757	0.00196
313.15	0.04064	0.00212

System: dimethylformamide + 4-methyl-2-nitroaniline; phases: Liquid, Crystal
Fixed: Pressure, kPa = 101.2
Property: Mole fraction of 4-methyl-2-nitroaniline (Liquid); method: Chromatography
Temperature, K	Mole fraction of 4-methyl-2-nitroaniline	uncertainty
278.15	0.09842	0.00512
280.65	0.1053	0.0055
283.15	0.1118	0.0058
285.65	0.1219	0.0063
288.15	0.1307	0.0068
290.65	0.1403	0.0073
293.15	0.1497	0.0078
295.65	0.1608	0.0084
298.15	0.171	0.0089
300.65	0.1823	0.0095
303.15	0.1936	0.0101
305.65	0.2059	0.0107
308.15	0.2188	0.0114
310.65	0.2324	0.0121
313.15	0.2468	0.0128

System: 4-methyl-2-nitroaniline + 1,2-dichloroethane; phases: Liquid, Crystal
Fixed: Pressure, kPa = 101.2
Property: Mole fraction of 4-methyl-2-nitroaniline (Liquid); method: Chromatography
Temperature, K	Mole fraction of 4-methyl-2-nitroaniline	uncertainty
278.15	0.02894	0.00151
280.65	0.03264	0.0017
283.15	0.0355	0.00185
285.65	0.03974	0.00207
288.15	0.04325	0.00225
290.65	0.04677	0.00243
293.15	0.05059	0.00263
295.65	0.05482	0.00285
298.15	0.05936	0.00309
300.65	0.06417	0.00334
303.15	0.06921	0.0036
305.65	0.07472	0.00389
308.15	0.08061	0.0042
310.65	0.08702	0.00453
313.15	0.09366	0.00488
315.65	0.1009	0.0053
318.15	0.1087	0.0057

System: 4-methyl-2-nitroaniline + chlorobenzene; phases: Liquid, Crystal
Fixed: Pressure, kPa = 101.2
Property: Mole fraction of 4-methyl-2-nitroaniline (Liquid); method: Chromatography
Temperature, K	Mole fraction of 4-methyl-2-nitroaniline	uncertainty
278.15	0.01596	0.00083
280.65	0.01741	0.00091
283.15	0.01939	0.00101
285.65	0.02159	0.00112
288.15	0.02388	0.00124
290.65	0.02621	0.00136
293.15	0.02876	0.0015
295.65	0.03161	0.00165
298.15	0.03491	0.00182
300.65	0.03826	0.00199
303.15	0.04208	0.00219
305.65	0.04628	0.00241
308.15	0.05071	0.00264
310.65	0.05563	0.0029
313.15	0.0611	0.00318
315.65	0.06709	0.00349
318.15	0.07376	0.00384
