Measured thermophysical data. Solubility of oxcarbazepine in eight solvents within the temperature range T = (288.15 308.15) K
Source: J. Chem. Thermodyn., 2017, 10.1016/j.jct.2016.09.011
Compound 1: Oxacarbazepine, C15H12N2O2, InChI=1S/C15H12N2O2/c16-15(19)17-12-7-3-1-5-10(12)9-14(18)11-6-2-4-8-13(11)17/h1-8H,9H2,(H2,16,19), purity 99.9%
Compound 2: methanol, CH4O, InChI=1S/CH4O/c1-2/h2H,1H3, purity 99.9%
Compound 3: ethanol, C2H6O, InChI=1S/C2H6O/c1-2-3/h3H,2H2,1H3, purity 99.9%
Compound 4: propan-1-ol, C3H8O, InChI=1S/C3H8O/c1-2-3-4/h4H,2-3H2,1H3, purity 99.5%
Compound 5: propan-2-ol, C3H8O, InChI=1S/C3H8O/c1-3(2)4/h3-4H,1-2H3, purity 99.7%
Compound 6: butan-1-ol, C4H10O, InChI=1S/C4H10O/c1-2-3-4-5/h5H,2-4H2,1H3, purity 99.5%
Compound 7: tetrahydrofuran, C4H8O, InChI=1S/C4H8O/c1-2-4-5-3-1/h1-4H2, purity 99.8%
Compound 8: acetone, C3H6O, InChI=1S/C3H6O/c1-3(2)4/h1-2H3, purity 99.5%
Compound 9: acetonitrile, C2H3N, InChI=1S/C2H3N/c1-2-3/h1H3, purity 99.9%

System: methanol + Oxacarbazepine; phases: Liquid, Crystal
Fixed: Pressure, kPa = 100
Property: Mole fraction of Oxacarbazepine (Liquid); method: Chromatography
Temperature, K	Mole fraction of Oxacarbazepine	uncertainty
288.15	0.000534	2.2e-05
293.15	0.000619	2.5e-05
298.15	0.000759	3.1e-05
303.15	0.000907	3.7e-05
308.15	0.00111	5e-05

System: ethanol + Oxacarbazepine; phases: Liquid, Crystal
Fixed: Pressure, kPa = 100
Property: Mole fraction of Oxacarbazepine (Liquid); method: Chromatography
Temperature, K	Mole fraction of Oxacarbazepine	uncertainty
288.15	0.000273	1.1e-05
293.15	0.000322	1.3e-05
298.15	0.000383	1.6e-05
303.15	0.000488	2e-05
308.15	0.000617	2.5e-05

System: propan-1-ol + Oxacarbazepine; phases: Liquid, Crystal
Fixed: Pressure, kPa = 100
Property: Mole fraction of Oxacarbazepine (Liquid); method: Chromatography
Temperature, K	Mole fraction of Oxacarbazepine	uncertainty
288.15	0.000245	1e-05
293.15	0.000301	1.2e-05
298.15	0.000358	1.5e-05
303.15	0.000475	2e-05
308.15	0.000616	2.5e-05

System: propan-2-ol + Oxacarbazepine; phases: Liquid, Crystal
Fixed: Pressure, kPa = 100
Property: Mole fraction of Oxacarbazepine (Liquid); method: Chromatography
Temperature, K	Mole fraction of Oxacarbazepine	uncertainty
288.15	0.000151	6e-06
293.15	0.000187	8e-06
298.15	0.000217	9e-06
303.15	0.000299	1.3e-05
308.15	0.000413	1.7e-05

System: butan-1-ol + Oxacarbazepine; phases: Liquid, Crystal
Fixed: Pressure, kPa = 100
Property: Mole fraction of Oxacarbazepine (Liquid); method: Chromatography
Temperature, K	Mole fraction of Oxacarbazepine	uncertainty
288.15	0.000251	1e-05
293.15	0.000309	1.3e-05
298.15	0.000355	1.5e-05
303.15	0.000479	2e-05
308.15	0.000617	2.5e-05

System: tetrahydrofuran + Oxacarbazepine; phases: Liquid, Crystal
Fixed: Pressure, kPa = 100
Property: Mole fraction of Oxacarbazepine (Liquid); method: Chromatography
Temperature, K	Mole fraction of Oxacarbazepine	uncertainty
288.15	0.00204	8e-05
293.15	0.00217	9e-05
298.15	0.00241	0.0001
303.15	0.00266	0.00011
308.15	0.00308	0.00012

System: acetone + Oxacarbazepine; phases: Liquid, Crystal
Fixed: Pressure, kPa = 100
Property: Mole fraction of Oxacarbazepine (Liquid); method: Chromatography
Temperature, K	Mole fraction of Oxacarbazepine	uncertainty
288.15	0.00105	4e-05
293.15	0.0012	5e-05
298.15	0.00134	5e-05
303.15	0.00154	6e-05
308.15	0.00182	7e-05

System: acetonitrile + Oxacarbazepine; phases: Liquid, Crystal
Fixed: Pressure, kPa = 100
Property: Mole fraction of Oxacarbazepine (Liquid); method: Chromatography
Temperature, K	Mole fraction of Oxacarbazepine	uncertainty
288.15	0.000641	2.6e-05
293.15	0.000751	3e-05
298.15	0.000839	3.4e-05
303.15	0.00103	4e-05
308.15	0.00122	5e-05
