Measured thermophysical data. The organisation of water around creatine and creatinine molecules
Source: J. Chem. Thermodyn., 2019, 10.1016/j.jct.2018.08.007
Compound 1: N-amidinosarcasine, C4H9N3O2, InChI=1S/C4H9N3O2/c1-7(4(5)6)2-3(8)9/h2H2,1H3,(H3,5,6)(H,8,9), purity 99%
Compound 2: creatinine, C4H7N3O, InChI=1S/C4H7N3O/c1-7-2-3(8)6-4(7)5/h2H2,1H3,(H2,5,6,8), purity 98%
Compound 3: water, H2O, InChI=1S/H2O/h1H2, purity 99.8%

System: N-amidinosarcasine + water; phases: Liquid
Fixed: Pressure, kPa = 100
Property: Mass density, kg/m3 (Liquid); method: Vibrating tube method
Temperature, K	Molality, mol/kg of N-amidinosarcasine	Mass density, kg/m3	uncertainty
293.15	0.0306	999.51	1.4
293.15	0.04	999.9	1.4
293.15	0.0406	999.93	1.4
293.15	0.0477	1000.23	1.4
293.15	0.05	1000.33	1.4
293.15	0.0548	1000.53	1.4
293.15	0.0564	1000.59	1.4
293.15	0.0597	1000.73	1.4
293.15	0.0597	1000.73	1.4
293.15	0.0675	1001.06	1.4
293.15	0.0701	1001.17	1.4
293.15	0.0727	1001.27	1.4
293.15	0.0782	1001.5	1.4
293.15	0.08	1001.58	1.4
293.15	0.0898	1001.98	1.4
293.15	0.09	1001.99	1.4
293.15	0.0926	1002.1	1.4
293.15	0.1038	1002.56	1.4
293.15	0.1113	1002.87	1.4
293.15	0.1207	1003.25	1.4
293.15	0.1287	1003.58	1.4
293.15	0.1326	1003.74	1.4
298.15	0.0306	998.33	1.4
298.15	0.04	998.72	1.4
298.15	0.0406	998.74	1.4
298.15	0.0477	999.04	1.4
298.15	0.05	999.13	1.4
298.15	0.0548	999.33	1.4
298.15	0.0564	999.4	1.4
298.15	0.0597	999.53	1.4
298.15	0.0597	999.53	1.4
298.15	0.0675	999.86	1.4
298.15	0.0701	999.96	1.4
298.15	0.0727	1000.07	1.4
298.15	0.0782	1000.29	1.4
298.15	0.08	1000.37	1.4
298.15	0.0898	1000.77	1.4
298.15	0.09	1000.78	1.4
298.15	0.0926	1000.89	1.4
298.15	0.1038	1001.35	1.4
298.15	0.1113	1001.65	1.4
298.15	0.1207	1002.04	1.4
298.15	0.1287	1002.36	1.4
298.15	0.1326	1002.52	1.4
303.15	0.0306	996.9	1.4
303.15	0.04	997.28	1.4
303.15	0.0406	997.31	1.4
303.15	0.0477	997.6	1.4
303.15	0.05	997.69	1.4
303.15	0.0548	997.89	1.4
303.15	0.0564	997.96	1.4
303.15	0.0597	998.09	1.4
303.15	0.0597	998.09	1.4
303.15	0.0675	998.41	1.4
303.15	0.0701	998.52	1.4
303.15	0.0727	998.63	1.4
303.15	0.0782	998.85	1.4
303.15	0.08	998.93	1.4
303.15	0.0898	999.34	1.4
303.15	0.09	999.34	1.4
303.15	0.0926	999.45	1.4
303.15	0.1038	999.92	1.4
303.15	0.1113	1000.23	1.4
303.15	0.1207	1000.62	1.4
303.15	0.1287	1000.96	1.4
303.15	0.1326	1001.12	1.4
308.15	0.0306	995.23	1.4
308.15	0.04	995.6	1.4
308.15	0.0406	995.63	1.4
308.15	0.0477	995.91	1.4
308.15	0.05	996	1.4
308.15	0.0548	996.2	1.4
308.15	0.0564	996.26	1.4
308.15	0.0597	996.39	1.4
308.15	0.0597	996.39	1.4
308.15	0.0675	996.71	1.4
308.15	0.0701	996.82	1.4
308.15	0.0727	996.92	1.4
308.15	0.0782	997.15	1.4
308.15	0.08	997.22	1.4
308.15	0.0898	997.63	1.4
308.15	0.09	997.64	1.4
308.15	0.0926	997.74	1.4
308.15	0.1038	998.21	1.4
308.15	0.1113	998.53	1.4
308.15	0.1207	998.93	1.4
308.15	0.1287	999.26	1.4
308.15	0.1326	999.43	1.4
313.15	0.0306	993.35	1.4
313.15	0.04	993.7	1.4
313.15	0.0406	993.73	1.4
313.15	0.0477	994	1.4
313.15	0.05	994.09	1.4
313.15	0.0548	994.28	1.4
313.15	0.0564	994.35	1.4
313.15	0.0597	994.47	1.4
313.15	0.0597	994.48	1.4
313.15	0.0675	994.79	1.4
313.15	0.0701	994.89	1.4
313.15	0.0727	995	1.4
313.15	0.0782	995.22	1.4
313.15	0.08	995.3	1.4
313.15	0.0898	995.71	1.4
313.15	0.09	995.71	1.4
313.15	0.0926	995.82	1.4
313.15	0.1038	996.3	1.4
313.15	0.1113	996.62	1.4
313.15	0.1207	997.03	1.4
313.15	0.1287	997.39	1.4
313.15	0.1326	997.56	1.4

System: N-amidinosarcasine + water; phases: Liquid
Fixed: Pressure, kPa = 100
Property: Viscosity, Pa*s (Liquid); method: Capillary tube (Ostwald; Ubbelohde) method
Temperature, K	Molality, mol/kg of N-amidinosarcasine	Viscosity, Pa*s	uncertainty
293.15	0.02	0.001008	2e-05
293.15	0.03	0.001011	2e-05
293.15	0.04	0.001014	2e-05
293.15	0.05	0.001017	2e-05
293.15	0.0597	0.001019	2e-05
293.15	0.0701	0.001024	2e-05
293.15	0.08	0.001028	2e-05
293.15	0.09	0.001033	2.1e-05
298.15	0.02	0.000895	1.8e-05
298.15	0.03	0.000898	1.8e-05
298.15	0.04	0.000901	1.8e-05
298.15	0.05	0.000904	1.8e-05
298.15	0.0597	0.000907	1.8e-05
298.15	0.0701	0.00091	1.8e-05
298.15	0.08	0.000913	1.8e-05
298.15	0.09	0.000917	1.8e-05
303.15	0.02	0.000804	1.6e-05
303.15	0.03	0.000806	1.6e-05
303.15	0.04	0.000808	1.6e-05
303.15	0.05	0.00081	1.6e-05
303.15	0.0597	0.000811	1.6e-05
303.15	0.0701	0.000817	1.6e-05
303.15	0.08	0.000818	1.6e-05
303.15	0.09	0.000823	1.6e-05
308.15	0.02	0.000723	1.4e-05
308.15	0.03	0.000727	1.5e-05
308.15	0.04	0.000729	1.5e-05
308.15	0.05	0.000731	1.5e-05
308.15	0.0597	0.000733	1.5e-05
308.15	0.0701	0.000737	1.5e-05
308.15	0.08	0.000738	1.5e-05
308.15	0.09	0.00074	1.5e-05
313.15	0.02	0.000658	1.3e-05
313.15	0.03	0.000659	1.3e-05
313.15	0.04	0.000662	1.3e-05
313.15	0.05	0.000664	1.3e-05
313.15	0.0597	0.000665	1.3e-05
313.15	0.0701	0.000669	1.3e-05
313.15	0.08	0.00067	1.3e-05
313.15	0.09	0.000672	1.3e-05

System: creatinine + water; phases: Liquid
Fixed: Pressure, kPa = 100
Property: Mass density, kg/m3 (Liquid); method: Vibrating tube method
Temperature, K	Molality, mol/kg of creatinine	Mass density, kg/m3	uncertainty
293.15	0.1001	1001.16	1.4
293.15	0.147	1002.53	1.4
293.15	0.202	1004.12	1.4
293.15	0.25	1005.5	1.4
293.15	0.3023	1006.99	1.4
293.15	0.3496	1008.33	1.4
293.15	0.4028	1009.83	1.4
293.15	0.5014	1012.57	1.4
293.15	0.5514	1013.95	1.4
293.15	0.6018	1015.33	1.4
293.15	0.6087	1015.52	1.4
293.15	0.6491	1016.62	1.4
298.15	0.1001	999.95	1.4
298.15	0.147	1001.29	1.4
298.15	0.202	1002.86	1.4
298.15	0.25	1004.22	1.4
298.15	0.3023	1005.69	1.4
298.15	0.3496	1007.01	1.4
298.15	0.4028	1008.48	1.4
298.15	0.5014	1011.2	1.4
298.15	0.5514	1012.56	1.4
298.15	0.6018	1013.93	1.4
298.15	0.6087	1014.11	1.4
298.15	0.6491	1015.21	1.4
303.15	0.1001	998.49	1.4
303.15	0.147	999.82	1.4
303.15	0.202	1001.37	1.4
303.15	0.25	1002.71	1.4
303.15	0.3023	1004.16	1.4
303.15	0.3496	1005.48	1.4
303.15	0.4028	1006.94	1.4
303.15	0.5014	1009.63	1.4
303.15	0.5514	1010.97	1.4
303.15	0.6018	1012.34	1.4
303.15	0.6087	1012.53	1.4
303.15	0.6491	1013.61	1.4
308.15	0.1001	996.82	1.4
308.15	0.147	998.13	1.4
308.15	0.202	999.64	1.4
308.15	0.25	1000.97	1.4
308.15	0.3023	1002.4	1.4
308.15	0.3496	1003.7	1.4
308.15	0.4028	1005.13	1.4
308.15	0.5014	1007.79	1.4
308.15	0.5514	1009.12	1.4
308.15	0.6018	1010.48	1.4
308.15	0.6087	1010.65	1.4
308.15	0.6491	1011.72	1.4
313.15	0.1001	994.94	1.4
313.15	0.147	996.21	1.4
313.15	0.202	997.69	1.4
313.15	0.25	999	1.4
313.15	0.3023	1000.43	1.4
313.15	0.3496	1001.71	1.4
313.15	0.4028	1003.12	1.4
313.15	0.5014	1005.76	1.4
313.15	0.5514	1007.08	1.4
313.15	0.6018	1008.4	1.4
313.15	0.6087	1008.61	1.4
313.15	0.6491	1009.65	1.4

System: creatinine + water; phases: Liquid
Fixed: Pressure, kPa = 100
Property: Viscosity, Pa*s (Liquid); method: Capillary tube (Ostwald; Ubbelohde) method
Temperature, K	Molality, mol/kg of creatinine	Viscosity, Pa*s	uncertainty
293.15	0.2001	0.001053	2.1e-05
293.15	0.2999	0.001077	2.1e-05
293.15	0.3996	0.001102	2.2e-05
293.15	0.5002	0.001126	2.2e-05
293.15	0.6	0.00115	2.3e-05
293.15	0.7	0.001173	2.3e-05
298.15	0.2001	0.000935	1.9e-05
298.15	0.2999	0.000956	1.9e-05
298.15	0.3996	0.000978	1.9e-05
298.15	0.5002	0.000999	2e-05
298.15	0.6	0.00102	2e-05
298.15	0.7	0.00104	2.1e-05
303.15	0.2001	0.000837	1.7e-05
303.15	0.2999	0.000856	1.7e-05
303.15	0.3996	0.000875	1.7e-05
303.15	0.5002	0.000894	1.8e-05
303.15	0.6	0.000912	1.8e-05
303.15	0.7	0.00093	1.9e-05
308.15	0.2001	0.000755	1.5e-05
308.15	0.2999	0.000772	1.5e-05
308.15	0.3996	0.000789	1.6e-05
308.15	0.5002	0.000806	1.6e-05
308.15	0.6	0.000822	1.6e-05
308.15	0.7	0.000838	1.7e-05
313.15	0.2001	0.000685	1.4e-05
313.15	0.2999	0.0007	1.4e-05
313.15	0.3996	0.000715	1.4e-05
313.15	0.5002	0.00073	1.5e-05
313.15	0.6	0.000745	1.5e-05
313.15	0.7	0.000759	1.5e-05
