Measured thermophysical data. Evaluation of anion chain length impact on aqueous two phase systems formed by carboxylate anion functionalized ionic liquids
Source: J. Chem. Thermodyn., 2018, 10.1016/j.jct.2018.01.009
Compound 1: water, H2O, InChI=1S/H2O/h1H2, purity 99.9%
Compound 2: tripotassium phosphate, K3O4P, InChI=1S/3K.H3O4P/c;;;1-5(2,3)4/h;;;(H3,1,2,3,4)/q3*+1;/p-3, purity 98%
Compound 3: tetrabutylammonium butyrate, C20H43NO2, InChI=1S/C16H36N.C4H8O2/c1-5-9-13-17(14-10-6-2,15-11-7-3)16-12-8-4;1-2-3-4(5)6/h5-16H2,1-4H3;2-3H2,1H3,(H,5,6)/q+1;/p-1
Compound 4: tetrabutylammonium pentanoate, C21H45NO2, InChI=1S/C16H36N.C5H10O2/c1-5-9-13-17(14-10-6-2,15-11-7-3)16-12-8-4;1-2-3-4-5(6)7/h5-16H2,1-4H3;2-4H2,1H3,(H,6,7)/q+1;/p-1
Compound 5: tetrabutylammonium hexanoate, C22H47NO2, InChI=1S/C16H36N.C6H12O2/c1-5-9-13-17(14-10-6-2,15-11-7-3)16-12-8-4;1-2-3-4-5-6(7)8/h5-16H2,1-4H3;2-5H2,1H3,(H,7,8)/q+1;/p-1
Compound 6: tetrabutylammonium heptanoate, C23H49NO2, InChI=1S/C16H36N.C7H14O2/c1-5-9-13-17(14-10-6-2,15-11-7-3)16-12-8-4;1-2-3-4-5-6-7(8)9/h5-16H2,1-4H3;2-6H2,1H3,(H,8,9)/q+1;/p-1
Compound 7: tetrabutylammonium octanoate, C24H51NO2, InChI=1S/C16H36N.C8H16O2/c1-5-9-13-17(14-10-6-2,15-11-7-3)16-12-8-4;1-2-3-4-5-6-7-8(9)10/h5-16H2,1-4H3;2-7H2,1H3,(H,9,10)/q+1;/p-1
Compound 8: tetrabutylammonium decanoate, C26H55NO2, InChI=1S/C16H36N.C10H20O2/c1-5-9-13-17(14-10-6-2,15-11-7-3)16-12-8-4;1-2-3-4-5-6-7-8-9-10(11)12/h5-16H2,1-4H3;2-9H2,1H3,(H,11,12)/q+1;/p-1
Compound 9: tetrabutylammonium bromide, C16H36BrN, InChI=1S/C16H36N.BrH/c1-5-9-13-17(14-10-6-2,15-11-7-3)16-12-8-4;/h5-16H2,1-4H3;1H/q+1;/p-1, purity 98%

System: tripotassium phosphate + tetrabutylammonium butyrate + water; phases: Liquid mixture 1, Liquid mixture 2
Fixed: Temperature, K = 298.15
Fixed: Pressure, kPa = 100
Property: Mass fraction of tetrabutylammonium butyrate (Liquid mixture 1); method: Titration method
Mass fraction of tripotassium phosphate	Mass fraction of tetrabutylammonium butyrate	uncertainty
0.0134	0.4059	0.0153
0.0188	0.3823	0.0144
0.0267	0.3516	0.0129
0.0337	0.331	0.0123
0.0392	0.3092	0.0115
0.0501	0.2782	0.0099
0.0602	0.2578	0.0088
0.0697	0.2423	0.0082
0.0763	0.2308	0.0081
0.082	0.2194	0.0079
0.0895	0.2044	0.0075
0.0981	0.1875	0.007
0.104	0.1767	0.0065
0.114	0.1599	0.0057
0.1232	0.1506	0.0052
0.1275	0.1446	0.0052
0.1333	0.1377	0.005
0.1386	0.1315	0.0049
0.1476	0.1199	0.0047
0.1486	0.1184	0.0047
0.1572	0.1069	0.0044
0.1636	0.0996	0.0041
0.1683	0.0943	0.0041
0.1735	0.0879	0.004
0.1782	0.0821	0.0039
0.1822	0.0773	0.0038
0.1882	0.0704	0.0038
0.1959	0.0601	0.0033
0.2037	0.0544	0.003
0.2069	0.051	0.0031
0.2119	0.0467	0.0029
0.2173	0.0422	0.0029

System: tripotassium phosphate + tetrabutylammonium pentanoate + water; phases: Liquid mixture 1, Liquid mixture 2
Fixed: Temperature, K = 298.15
Fixed: Pressure, kPa = 100
Property: Mass fraction of tetrabutylammonium pentanoate (Liquid mixture 1); method: Titration method
Mass fraction of tripotassium phosphate	Mass fraction of tetrabutylammonium pentanoate	uncertainty
0.0079	0.5327	0.0247
0.0119	0.4928	0.0244
0.0153	0.4622	0.0198
0.0206	0.4322	0.0165
0.0323	0.3797	0.0142
0.0462	0.3296	0.0122
0.058	0.2951	0.0106
0.0693	0.2668	0.0095
0.081	0.2416	0.0087
0.0892	0.2225	0.0081
0.1005	0.2007	0.0074
0.1092	0.1831	0.0069
0.1199	0.1621	0.0063
0.1301	0.1438	0.0058
0.1383	0.1293	0.0056
0.1438	0.118	0.0052
0.1548	0.101	0.0048
0.1628	0.0862	0.0045
0.1685	0.0788	0.0042
0.1768	0.0661	0.0039
0.1844	0.0569	0.0035
0.1903	0.0496	0.0036
0.1951	0.043	0.0033
0.2009	0.0372	0.0029
0.2098	0.0301	0.0029
0.2133	0.0249	0.0037

System: tripotassium phosphate + tetrabutylammonium hexanoate + water; phases: Liquid mixture 1, Liquid mixture 2
Fixed: Temperature, K = 298.15
Fixed: Pressure, kPa = 100
Property: Mass fraction of tetrabutylammonium hexanoate (Liquid mixture 1); method: Titration method
Mass fraction of tripotassium phosphate	Mass fraction of tetrabutylammonium hexanoate	uncertainty
0.0108	0.5542	0.0246
0.0175	0.4862	0.0247
0.0196	0.4692	0.0206
0.0241	0.4375	0.019
0.0282	0.4122	0.0172
0.032	0.3923	0.0162
0.0352	0.3748	0.0152
0.0401	0.3523	0.0142
0.0422	0.3432	0.0135
0.047	0.3235	0.0127
0.0522	0.3042	0.0119
0.0576	0.2854	0.0112
0.061	0.2741	0.0106
0.0685	0.2508	0.0098
0.0773	0.2254	0.0089
0.0874	0.1985	0.008
0.0987	0.1704	0.0072
0.106	0.1532	0.0066
0.1127	0.1385	0.0061
0.1202	0.1227	0.0057
0.128	0.1072	0.0052
0.1436	0.0797	0.0046
0.1499	0.0698	0.0041
0.1583	0.0579	0.0037
0.1673	0.0466	0.0034
0.1763	0.0368	0.003
0.1859	0.0281	0.0026
0.2051	0.0153	0.0024
0.213	0.0115	0.0022

System: tripotassium phosphate + tetrabutylammonium heptanoate + water; phases: Liquid mixture 1, Liquid mixture 2
Fixed: Pressure, kPa = 100
Property: Mass fraction of tetrabutylammonium heptanoate (Liquid mixture 1); method: Titration method
Temperature, K	Mass fraction of tripotassium phosphate	Mass fraction of tetrabutylammonium heptanoate	uncertainty
298.15	0.0152	0.5153	0.025
298.15	0.0196	0.4715	0.0236
298.15	0.0229	0.4445	0.0175
298.15	0.0273	0.4291	0.0167
298.15	0.0302	0.4068	0.0188
298.15	0.0337	0.3843	0.016
298.15	0.0397	0.3554	0.0139
298.15	0.0467	0.3288	0.0126
298.15	0.0547	0.3004	0.0116
298.15	0.0617	0.2765	0.0109
298.15	0.0683	0.2551	0.01
298.15	0.0746	0.2369	0.0092
298.15	0.0808	0.2208	0.009
298.15	0.0881	0.1981	0.0088
298.15	0.0931	0.1819	0.0081
298.15	0.0984	0.1681	0.0082
298.15	0.1044	0.1464	0.0083
298.15	0.1075	0.137	0.0065
298.15	0.1126	0.1263	0.0056
298.15	0.12	0.1128	0.0063
298.15	0.1257	0.0925	0.0067
298.15	0.1301	0.0837	0.0051
298.15	0.135	0.074	0.0052
298.15	0.1386	0.0656	0.0049
298.15	0.1432	0.0573	0.0044
298.15	0.1527	0.0402	0.0044
298.15	0.1563	0.0327	0.0037
298.15	0.1637	0.0234	0.0033
298.15	0.1705	0.0143	0.0034
308.15	0.0091	0.4954	0.0189
308.15	0.0156	0.4399	0.02
308.15	0.0228	0.4022	0.0159
308.15	0.0295	0.3674	0.014
308.15	0.0364	0.3434	0.0128
308.15	0.0419	0.3223	0.0134
308.15	0.0456	0.3047	0.0126
308.15	0.0538	0.2738	0.0108
308.15	0.0609	0.251	0.0101
308.15	0.0674	0.232	0.0094
308.15	0.073	0.2147	0.0093
308.15	0.0794	0.1936	0.0087
308.15	0.0847	0.1773	0.0077
308.15	0.0914	0.1595	0.0072
308.15	0.0968	0.145	0.0071
308.15	0.1023	0.1301	0.0067
308.15	0.1072	0.1183	0.0067
308.15	0.1111	0.1059	0.0065
308.15	0.1163	0.0936	0.006
308.15	0.1211	0.0817	0.0055
308.15	0.1269	0.0698	0.005
308.15	0.1339	0.0559	0.0044
318.15	0.0138	0.4552	0.026
318.15	0.0175	0.4149	0.0184
318.15	0.0252	0.3769	0.0153
318.15	0.0326	0.3408	0.0135
318.15	0.0393	0.318	0.0123
318.15	0.0445	0.2965	0.012
318.15	0.0496	0.2786	0.0112
318.15	0.0576	0.2503	0.0101
318.15	0.0651	0.2288	0.0094
318.15	0.071	0.2092	0.0094
318.15	0.0777	0.1856	0.0096
318.15	0.0814	0.1691	0.0095
318.15	0.0873	0.1476	0.0078
318.15	0.0929	0.133	0.0076
318.15	0.0955	0.1209	0.0072
318.15	0.1016	0.1059	0.0062
318.15	0.1062	0.094	0.0057
318.15	0.1117	0.0827	0.0053
318.15	0.1167	0.0716	0.0051
318.15	0.1215	0.062	0.0046
318.15	0.1268	0.0526	0.0043
318.15	0.1319	0.0436	0.0038
318.15	0.1371	0.0371	0.0034

System: tripotassium phosphate + tetrabutylammonium octanoate + water; phases: Liquid mixture 1, Liquid mixture 2
Fixed: Temperature, K = 298.15
Fixed: Pressure, kPa = 100
Property: Mass fraction of tetrabutylammonium octanoate (Liquid mixture 1); method: Titration method
Mass fraction of tripotassium phosphate	Mass fraction of tetrabutylammonium octanoate	uncertainty
0.0069	0.5792	0.0193
0.0181	0.4994	0.0203
0.0233	0.4733	0.0182
0.0272	0.4498	0.0192
0.0303	0.427	0.0174
0.0358	0.4	0.0163
0.0411	0.3697	0.0154
0.0465	0.3453	0.0138
0.0501	0.3309	0.0134
0.0528	0.318	0.0128
0.0557	0.3081	0.0119
0.0601	0.2919	0.0117
0.0634	0.2797	0.0129
0.0667	0.2605	0.0116
0.0716	0.2447	0.0103
0.0777	0.2223	0.0099
0.0849	0.1977	0.0091
0.0908	0.1779	0.0085
0.0961	0.1614	0.0079
0.1007	0.1474	0.0075
0.1057	0.1333	0.0063
0.1112	0.123	0.0058
0.1154	0.1129	0.0066
0.1178	0.1047	0.0069
0.1205	0.0979	0.0062
0.1249	0.0864	0.0064
0.1319	0.0665	0.0062
0.1343	0.0606	0.0049
0.1393	0.051	0.0044
0.1426	0.0458	0.004
0.1571	0.0343	0.0029
0.1626	0.0258	0.0033
0.1723	0.0148	0.0025
0.186	0.0093	0.0022

System: tripotassium phosphate + tetrabutylammonium decanoate + water; phases: Liquid mixture 1, Liquid mixture 2
Fixed: Temperature, K = 298.15
Fixed: Pressure, kPa = 100
Property: Mass fraction of tetrabutylammonium decanoate (Liquid mixture 1); method: Titration method
Mass fraction of tripotassium phosphate	Mass fraction of tetrabutylammonium decanoate	uncertainty
0.0112	0.5811	0.0196
0.0153	0.5509	0.0204
0.0191	0.5223	0.0213
0.0223	0.4971	0.0201
0.0337	0.4266	0.0173
0.0429	0.3822	0.0149
0.051	0.3479	0.0137
0.0576	0.3196	0.0131
0.0627	0.2976	0.0122
0.0681	0.2776	0.0111
0.0728	0.2619	0.011
0.0799	0.234	0.0104
0.0864	0.211	0.0096
0.0924	0.1899	0.0091
0.0978	0.1714	0.008
0.1031	0.1576	0.0079
0.1086	0.138	0.0061
0.1159	0.1294	0.0057
0.1222	0.1114	0.0069
0.1272	0.0965	0.0063
0.1359	0.0749	0.0048
0.1471	0.0583	0.0044
0.1549	0.0406	0.0046
0.1597	0.034	0.0036
0.1628	0.0294	0.0037

System: tripotassium phosphate + tetrabutylammonium bromide + water; phases: Liquid mixture 1, Liquid mixture 2
Fixed: Pressure, kPa = 100
Property: Mass fraction of tetrabutylammonium bromide (Liquid mixture 1); method: Titration method
Temperature, K	Mass fraction of tripotassium phosphate	Mass fraction of tetrabutylammonium bromide	uncertainty
298.15	0.0095	0.5389	0.0269
298.15	0.0138	0.4898	0.0236
298.15	0.0172	0.4702	0.019
298.15	0.0207	0.4478	0.0186
298.15	0.029	0.3967	0.0165
298.15	0.0364	0.3617	0.0138
298.15	0.0433	0.3394	0.0124
298.15	0.0493	0.3198	0.0119
298.15	0.0546	0.3019	0.011
298.15	0.0646	0.2749	0.0101
298.15	0.0689	0.263	0.0098
298.15	0.0765	0.2422	0.0091
298.15	0.0834	0.2259	0.0084
298.15	0.0915	0.2078	0.0078
298.15	0.1003	0.1893	0.0072
298.15	0.1084	0.1722	0.0067
298.15	0.1159	0.1573	0.0063
298.15	0.1278	0.1341	0.0056
298.15	0.1369	0.12	0.0051
298.15	0.1498	0.0987	0.0041
298.15	0.1627	0.091	0.0037
298.15	0.168	0.0812	0.0042
298.15	0.1755	0.0719	0.0043
298.15	0.1829	0.057	0.0038
298.15	0.1932	0.0468	0.0031
298.15	0.1996	0.0409	0.0028
298.15	0.2048	0.0372	0.0028
298.15	0.2117	0.0314	0.0026
298.15	0.2221	0.0254	0.0025
298.15	0.2282	0.0199	0.0025
298.15	0.2329	0.0179	0.0023
298.15	0.2369	0.0162	0.0023
308.15	0.0122	0.5254	0.0151
308.15	0.0157	0.4955	0.0254
308.15	0.019	0.4712	0.0233
308.15	0.0213	0.4495	0.0169
308.15	0.0289	0.4081	0.0161
308.15	0.0355	0.3779	0.0142
308.15	0.0421	0.3537	0.0127
308.15	0.0528	0.3178	0.0117
308.15	0.0619	0.2909	0.0113
308.15	0.0693	0.2681	0.0102
308.15	0.0787	0.2412	0.0093
308.15	0.0867	0.2199	0.0085
308.15	0.0934	0.2024	0.0076
308.15	0.1022	0.1839	0.0069
308.15	0.1095	0.1683	0.0065
308.15	0.1175	0.1509	0.0062
308.15	0.1253	0.1366	0.006
308.15	0.1315	0.1248	0.0052
308.15	0.1383	0.1116	0.0054
308.15	0.1445	0.1013	0.0049
308.15	0.1503	0.0934	0.0042
308.15	0.1564	0.0849	0.0043
308.15	0.1625	0.0767	0.0038
308.15	0.1689	0.0691	0.004
318.15	0.0059	0.5479	0.0305
318.15	0.0087	0.51	0.0228
318.15	0.0178	0.4429	0.0182
318.15	0.027	0.4001	0.0156
318.15	0.0337	0.3682	0.0144
318.15	0.0394	0.3456	0.0129
318.15	0.0449	0.3284	0.0126
318.15	0.0489	0.3098	0.0126
318.15	0.057	0.2789	0.0107
318.15	0.0651	0.2584	0.0099
318.15	0.0708	0.2389	0.0098
318.15	0.0761	0.2233	0.0094
318.15	0.0804	0.2085	0.0085
318.15	0.0875	0.1916	0.0076
318.15	0.0935	0.1776	0.0073
318.15	0.1002	0.1615	0.0068
318.15	0.1073	0.1456	0.0062
318.15	0.1138	0.1329	0.0058
318.15	0.1191	0.1223	0.0059
318.15	0.1247	0.1096	0.0052
318.15	0.1317	0.0992	0.0045
318.15	0.1415	0.085	0.0042
318.15	0.1495	0.0747	0.0039
318.15	0.1577	0.0647	0.0036
318.15	0.1679	0.0532	0.0034
