Measured thermophysical data. Thermodynamic and spectroscopic interpretation of molecular interactions of nicotine + alcohol binary mixtures
Source: J. Chem. Thermodyn., 2016, 10.1016/j.jct.2016.07.005
Compound 1: (-)-3-(N-methylpyrrolidino)pyridine, C10H14N2, InChI=1S/C10H14N2/c1-12-7-3-5-10(12)9-4-2-6-11-8-9/h2,4,6,8,10H,3,5,7H2,1H3/t10-/m0/s1, purity 99%
Compound 2: butan-1-ol, C4H10O, InChI=1S/C4H10O/c1-2-3-4-5/h5H,2-4H2,1H3, purity 99.5%
Compound 3: butan-2-ol, C4H10O, InChI=1S/C4H10O/c1-3-4(2)5/h4-5H,3H2,1-2H3, purity 99.5%
Compound 4: 1,2-propanediol, C3H8O2, InChI=1S/C3H8O2/c1-3(5)2-4/h3-5H,2H2,1H3, purity 99.5%
Compound 5: propan-1,3-diol, C3H8O2, InChI=1S/C3H8O2/c4-2-1-3-5/h4-5H,1-3H2, purity 98%

System: (-)-3-(N-methylpyrrolidino)pyridine; phases: Liquid
Fixed: Pressure, kPa = 100
Property: Mass density, kg/m3 (Liquid); method: Vibrating tube method
Temperature, K	Mass density, kg/m3	uncertainty
293.15	1010.232	1.023
298.15	1006.162	1.023
303.15	1002.103	1.022
308.15	998.055	1.022
313.15	994.014	1.022
318.15	989.984	1.022
323.15	985.962	1.022

System: (-)-3-(N-methylpyrrolidino)pyridine; phases: Liquid
Fixed: Pressure, kPa = 100
Property: Refractive index (Na D-line) (Liquid); method: Standard Abbe refractometry
Temperature, K	Refractive index (Na D-line)	uncertainty
293.15	1.52665	0.0004
298.15	1.52439	0.0004
303.15	1.52214	0.0004
308.15	1.51988	0.0004
313.15	1.5179	0.0004
318.15	1.51592	0.0004
323.15	1.51373	0.0004

System: (-)-3-(N-methylpyrrolidino)pyridine; phases: Liquid
Fixed: Pressure, kPa = 100
Property: Viscosity, Pa*s (Liquid); method: Concentric cylinders viscometry
Temperature, K	Viscosity, Pa*s	uncertainty
293.15	0.0046943	9.83e-05
298.15	0.0040477	8.48e-05
303.15	0.0035177	7.38e-05
308.15	0.0030883	6.49e-05
313.15	0.0027583	5.8e-05
318.15	0.0024114	5.08e-05
323.15	0.0021954	4.63e-05

System: butan-1-ol; phases: Liquid
Fixed: Pressure, kPa = 100
Property: Mass density, kg/m3 (Liquid); method: Vibrating tube method
Temperature, K	Mass density, kg/m3	uncertainty
293.15	809.819	1.008
298.15	805.995	1.008
303.15	802.148	1.008
308.15	798.276	1.008
313.15	794.372	1.009
318.15	790.429	1.009
323.15	786.444	1.009

System: butan-1-ol; phases: Liquid
Fixed: Pressure, kPa = 100
Property: Refractive index (Na D-line) (Liquid); method: Standard Abbe refractometry
Temperature, K	Refractive index (Na D-line)	uncertainty
293.15	1.39922	0.00036
298.15	1.39719	0.00036
303.15	1.39517	0.00036
308.15	1.39311	0.00036
313.15	1.39102	0.00036
318.15	1.38896	0.00036
323.15	1.38688	0.00036

System: butan-1-ol; phases: Liquid
Fixed: Pressure, kPa = 100
Property: Viscosity, Pa*s (Liquid); method: Concentric cylinders viscometry
Temperature, K	Viscosity, Pa*s	uncertainty
293.15	0.0029144	5.99e-05
298.15	0.0025637	5.28e-05
303.15	0.0022582	4.66e-05
308.15	0.0019938	4.12e-05
313.15	0.0017774	3.68e-05
318.15	0.0015887	3.3e-05
323.15	0.0013723	2.87e-05

System: butan-2-ol; phases: Liquid
Fixed: Pressure, kPa = 100
Property: Mass density, kg/m3 (Liquid); method: Vibrating tube method
Temperature, K	Mass density, kg/m3	uncertainty
293.15	807.19	1.008
298.15	803.049	1.008
303.15	798.829	1.008
308.15	794.525	1.009
313.15	790.127	1.009
318.15	785.636	1.009
323.15	781.043	1.009

System: butan-2-ol; phases: Liquid
Fixed: Pressure, kPa = 100
Property: Refractive index (Na D-line) (Liquid); method: Standard Abbe refractometry
Temperature, K	Refractive index (Na D-line)	uncertainty
293.15	1.39715	0.00036
298.15	1.39497	0.00036
303.15	1.39274	0.00036
308.15	1.39045	0.00036
313.15	1.38803	0.00036
318.15	1.38571	0.00036
323.15	1.38322	0.00036

System: butan-2-ol; phases: Liquid
Fixed: Pressure, kPa = 100
Property: Viscosity, Pa*s (Liquid); method: Concentric cylinders viscometry
Temperature, K	Viscosity, Pa*s	uncertainty
293.15	0.0037604	7.72e-05
298.15	0.0030933	6.36e-05
303.15	0.0025664	5.29e-05
308.15	0.0021494	4.44e-05
313.15	0.001816	3.76e-05
318.15	0.0015484	3.22e-05
323.15	0.0013319	2.78e-05

System: 1,2-propanediol; phases: Liquid
Fixed: Pressure, kPa = 100
Property: Mass density, kg/m3 (Liquid); method: Vibrating tube method
Temperature, K	Mass density, kg/m3	uncertainty
293.15	1036.296	1.004
298.15	1032.62	1.004
303.15	1028.91	1.004
308.15	1025.16	1.004
313.15	1021.39	1.004
318.15	1017.57	1.003
323.15	1013.72	1.003

System: 1,2-propanediol; phases: Liquid
Fixed: Pressure, kPa = 100
Property: Refractive index (Na D-line) (Liquid); method: Standard Abbe refractometry
Temperature, K	Refractive index (Na D-line)	uncertainty
293.15	1.43279	0.00036
298.15	1.43111	0.00036
303.15	1.42941	0.00036
308.15	1.42773	0.00036
313.15	1.42601	0.00036
318.15	1.42429	0.00036
323.15	1.42257	0.00036

System: 1,2-propanediol; phases: Liquid
Fixed: Pressure, kPa = 100
Property: Viscosity, Pa*s (Liquid); method: Concentric cylinders viscometry
Temperature, K	Viscosity, Pa*s	uncertainty
293.15	0.059564	0.001209
298.15	0.044143	0.0009
303.15	0.033248	0.000678
308.15	0.025503	0.00052
313.15	0.019781	0.000404
318.15	0.015759	0.000322
323.15	0.012747	0.00026

System: propan-1,3-diol; phases: Liquid
Fixed: Pressure, kPa = 100
Property: Mass density, kg/m3 (Liquid); method: Vibrating tube method
Temperature, K	Mass density, kg/m3	uncertainty
293.15	1053.03	1.321
298.15	1049.903	1.317
303.15	1046.773	1.314
308.15	1043.635	1.31
313.15	1040.49	1.306
318.15	1037.329	1.302
323.15	1034.157	1.298

System: propan-1,3-diol; phases: Liquid
Fixed: Pressure, kPa = 100
Property: Refractive index (Na D-line) (Liquid); method: Standard Abbe refractometry
Temperature, K	Refractive index (Na D-line)	uncertainty
293.15	1.43918	0.00053
298.15	1.43783	0.00053
303.15	1.43648	0.00053
308.15	1.43515	0.00053
313.15	1.43382	0.00053
318.15	1.4324	0.00053
323.15	1.43101	0.00053

System: propan-1,3-diol; phases: Liquid
Fixed: Pressure, kPa = 100
Property: Viscosity, Pa*s (Liquid); method: Concentric cylinders viscometry
Temperature, K	Viscosity, Pa*s	uncertainty
293.15	0.052307	0.001171
298.15	0.041546	0.000938
303.15	0.033221	0.00075
308.15	0.026867	0.000606
313.15	0.021846	0.000493
318.15	0.018125	0.000409
323.15	0.015211	0.000344

System: (-)-3-(N-methylpyrrolidino)pyridine + butan-1-ol; phases: Liquid
Fixed: Pressure, kPa = 100
Property: Mass density, kg/m3 (Liquid); method: Vibrating tube method
Temperature, K	Mole fraction of (-)-3-(N-methylpyrrolidino)pyridine	Mass density, kg/m3	uncertainty
293.15	0	809.819	1.008
293.15	0.1	845.043	1.01
293.15	0.196	874.098	1.009
293.15	0.3	901.216	1.009
293.15	0.3931	922.268	1.009
293.15	0.5	943.285	1.01
293.15	0.593	960.358	1.011
293.15	0.7	975.308	1.013
293.15	0.7931	987.593	1.015
293.15	0.9	1000.011	1.018
293.15	1	1010.232	1.023
298.15	0	805.995	1.008
298.15	0.1	841.123	1.01
298.15	0.196	870.112	1.009
298.15	0.3	897.182	1.009
298.15	0.3931	918.206	1.01
298.15	0.5	939.205	1.01
298.15	0.593	956.271	1.012
298.15	0.7	971.222	1.013
298.15	0.7931	983.509	1.015
298.15	0.9	995.934	1.018
298.15	1	1006.162	1.023
303.15	0	802.148	1.008
303.15	0.1	837.185	1.01
303.15	0.196	866.114	1.009
303.15	0.3	893.14	1.009
303.15	0.3931	914.139	1.01
303.15	0.5	935.124	1.011
303.15	0.593	952.186	1.012
303.15	0.7	967.138	1.013
303.15	0.7931	979.432	1.016
303.15	0.9	991.866	1.018
303.15	1	1002.103	1.022
308.15	0	798.276	1.008
308.15	0.1	833.229	1.01
308.15	0.196	862.102	1.009
308.15	0.3	889.089	1.009
308.15	0.3931	910.068	1.01
308.15	0.5	931.041	1.011
308.15	0.593	948.102	1.012
308.15	0.7	963.059	1.014
308.15	0.7931	975.36	1.016
308.15	0.9	987.806	1.019
308.15	1	998.055	1.022
313.15	0	794.372	1.009
313.15	0.1	829.249	1.01
313.15	0.196	858.073	1.01
313.15	0.3	885.026	1.01
313.15	0.3931	905.989	1.01
313.15	0.5	926.955	1.011
313.15	0.593	944.017	1.012
313.15	0.7	958.981	1.014
313.15	0.7931	971.292	1.016
313.15	0.9	983.751	1.019
313.15	1	994.014	1.022
318.15	0	790.429	1.009
318.15	0.1	825.24	1.01
318.15	0.196	854.022	1.01
318.15	0.3	880.948	1.01
318.15	0.3931	901.899	1.01
318.15	0.5	922.862	1.011
318.15	0.593	939.982	1.012
318.15	0.7	954.903	1.014
318.15	0.7931	967.226	1.016
318.15	0.9	979.704	1.019
318.15	1	989.984	1.022
323.15	0	786.444	1.009
323.15	0.1	821.198	1.011
323.15	0.196	849.946	1.01
323.15	0.3	876.851	1.01
323.15	0.3931	897.795	1.01
323.15	0.5	918.759	1.011
323.15	0.593	935.834	1.012
323.15	0.7	950.822	1.014
323.15	0.7931	963.162	1.016
323.15	0.9	975.66	1.019
323.15	1	985.962	1.022

System: (-)-3-(N-methylpyrrolidino)pyridine + butan-1-ol; phases: Liquid
Fixed: Pressure, kPa = 100
Property: Refractive index (Na D-line) (Liquid); method: Standard Abbe refractometry
Temperature, K	Mole fraction of (-)-3-(N-methylpyrrolidino)pyridine	Refractive index (Na D-line)	uncertainty
293.15	0	1.39922	0.00036
293.15	0.1	1.42126	0.00037
293.15	0.196	1.44053	0.00037
293.15	0.3	1.45673	0.00037
293.15	0.3931	1.46978	0.00037
293.15	0.5	1.48302	0.00038
293.15	0.593	1.49254	0.00038
293.15	0.7	1.50289	0.00039
293.15	0.7931	1.51169	0.00039
293.15	0.9	1.51909	0.0004
293.15	1	1.52665	0.0004
298.15	0	1.39719	0.00036
298.15	0.1	1.41913	0.00037
298.15	0.196	1.43825	0.00037
298.15	0.3	1.45448	0.00037
298.15	0.3931	1.46759	0.00037
298.15	0.5	1.48076	0.00038
298.15	0.593	1.49031	0.00038
298.15	0.7	1.50065	0.00039
298.15	0.7931	1.50945	0.00039
298.15	0.9	1.51685	0.0004
298.15	1	1.52439	0.0004
303.15	0	1.39517	0.00036
303.15	0.1	1.41697	0.00037
303.15	0.196	1.43598	0.00037
303.15	0.3	1.45225	0.00037
303.15	0.3931	1.46538	0.00037
303.15	0.5	1.47856	0.00038
303.15	0.593	1.48808	0.00038
303.15	0.7	1.49847	0.00039
303.15	0.7931	1.50721	0.00039
303.15	0.9	1.51463	0.0004
303.15	1	1.52214	0.0004
308.15	0	1.39311	0.00036
308.15	0.1	1.41481	0.00037
308.15	0.196	1.43367	0.00037
308.15	0.3	1.45	0.00037
308.15	0.3931	1.46318	0.00037
308.15	0.5	1.4763	0.00038
308.15	0.593	1.48583	0.00038
308.15	0.7	1.49623	0.00039
308.15	0.7931	1.50495	0.00039
308.15	0.9	1.51238	0.0004
308.15	1	1.51988	0.0004
313.15	0	1.39102	0.00036
313.15	0.1	1.4127	0.00037
313.15	0.196	1.43148	0.00037
313.15	0.3	1.44779	0.00037
313.15	0.3931	1.46096	0.00037
313.15	0.5	1.47404	0.00038
313.15	0.593	1.48355	0.00038
313.15	0.7	1.49404	0.00039
313.15	0.7931	1.5028	0.00039
313.15	0.9	1.51035	0.0004
313.15	1	1.5179	0.0004
318.15	0	1.38896	0.00036
318.15	0.1	1.41058	0.00037
318.15	0.196	1.42931	0.00037
318.15	0.3	1.44562	0.00037
318.15	0.3931	1.45876	0.00037
318.15	0.5	1.47184	0.00038
318.15	0.593	1.48131	0.00038
318.15	0.7	1.49183	0.00039
318.15	0.7931	1.50058	0.00039
318.15	0.9	1.50823	0.0004
318.15	1	1.51592	0.0004
323.15	0	1.38688	0.00036
323.15	0.1	1.40842	0.00037
323.15	0.196	1.42705	0.00037
323.15	0.3	1.44337	0.00037
323.15	0.3931	1.45655	0.00037
323.15	0.5	1.46958	0.00038
323.15	0.593	1.47906	0.00038
323.15	0.7	1.48961	0.00039
323.15	0.7931	1.49837	0.00039
323.15	0.9	1.50604	0.0004
323.15	1	1.51373	0.0004

System: (-)-3-(N-methylpyrrolidino)pyridine + butan-1-ol; phases: Liquid
Fixed: Pressure, kPa = 100
Property: Viscosity, Pa*s (Liquid); method: Concentric cylinders viscometry
Temperature, K	Mole fraction of (-)-3-(N-methylpyrrolidino)pyridine	Viscosity, Pa*s	uncertainty
293.15	0	0.0029144	5.99e-05
293.15	0.1	0.0030486	6.28e-05
293.15	0.196	0.0032088	6.61e-05
293.15	0.3	0.0034078	7.03e-05
293.15	0.3931	0.0036007	7.44e-05
293.15	0.5	0.0038292	7.93e-05
293.15	0.593	0.0040271	8.35e-05
293.15	0.7	0.0042424	8.82e-05
293.15	0.7931	0.0044124	9.19e-05
293.15	0.9	0.0045776	9.56e-05
293.15	1	0.0046943	9.83e-05
298.15	0	0.0025637	5.28e-05
298.15	0.1	0.0026923	5.55e-05
298.15	0.196	0.002833	5.85e-05
298.15	0.3	0.0029991	6.2e-05
298.15	0.3931	0.0031551	6.53e-05
298.15	0.5	0.0033374	6.92e-05
298.15	0.593	0.0034937	7.25e-05
298.15	0.7	0.0036656	7.63e-05
298.15	0.7931	0.0038032	7.93e-05
298.15	0.9	0.003942	8.24e-05
298.15	1	0.0040477	8.48e-05
303.15	0	0.0022582	4.66e-05
303.15	0.1	0.0023741	4.9e-05
303.15	0.196	0.0024982	5.16e-05
303.15	0.3	0.0026423	5.47e-05
303.15	0.3931	0.0027762	5.75e-05
303.15	0.5	0.0029307	6.08e-05
303.15	0.593	0.0030623	6.36e-05
303.15	0.7	0.0032054	6.68e-05
303.15	0.7931	0.0033191	6.93e-05
303.15	0.9	0.0034326	7.18e-05
303.15	1	0.0035177	7.38e-05
308.15	0	0.0019938	4.12e-05
308.15	0.1	0.0021053	4.36e-05
308.15	0.196	0.0022186	4.59e-05
308.15	0.3	0.0023457	4.86e-05
308.15	0.3931	0.0024609	5.11e-05
308.15	0.5	0.0025917	5.39e-05
308.15	0.593	0.0027019	5.62e-05
308.15	0.7	0.0028214	5.88e-05
308.15	0.7931	0.0029168	6.1e-05
308.15	0.9	0.0030133	6.31e-05
308.15	1	0.0030883	6.49e-05
313.15	0	0.0017774	3.68e-05
313.15	0.1	0.0018852	3.91e-05
313.15	0.196	0.0019898	4.13e-05
313.15	0.3	0.0021032	4.37e-05
313.15	0.3931	0.0022034	4.58e-05
313.15	0.5	0.0023161	4.82e-05
313.15	0.593	0.0024102	5.02e-05
313.15	0.7	0.0025138	5.25e-05
313.15	0.7931	0.0025977	5.44e-05
313.15	0.9	0.0026856	5.63e-05
313.15	1	0.0027583	5.8e-05
318.15	0	0.0015887	3.3e-05
318.15	0.1	0.0016835	3.5e-05
318.15	0.196	0.0017772	3.7e-05
318.15	0.3	0.0018796	3.91e-05
318.15	0.3931	0.00197	4.1e-05
318.15	0.5	0.0020703	4.32e-05
318.15	0.593	0.0021523	4.49e-05
318.15	0.7	0.0022385	4.68e-05
318.15	0.7931	0.0023044	4.83e-05
318.15	0.9	0.0023672	4.97e-05
318.15	1	0.0024114	5.08e-05
323.15	0	0.0013723	2.87e-05
323.15	0.1	0.0014953	3.12e-05
323.15	0.196	0.0016027	3.34e-05
323.15	0.3	0.001708	3.56e-05
323.15	0.3931	0.0017935	3.74e-05
323.15	0.5	0.0018822	3.93e-05
323.15	0.593	0.0019521	4.08e-05
323.15	0.7	0.0020249	4.24e-05
323.15	0.7931	0.0020826	4.37e-05
323.15	0.9	0.0021432	4.51e-05
323.15	1	0.0021954	4.63e-05

System: (-)-3-(N-methylpyrrolidino)pyridine + butan-2-ol; phases: Liquid
Fixed: Pressure, kPa = 100
Property: Mass density, kg/m3 (Liquid); method: Vibrating tube method
Temperature, K	Mole fraction of (-)-3-(N-methylpyrrolidino)pyridine	Mass density, kg/m3	uncertainty
293.15	0	807.19	1.008
293.15	0.1	841.874	1.01
293.15	0.2036	873.003	1.009
293.15	0.3	898.284	1.009
293.15	0.4	921.306	1.01
293.15	0.5	941.501	1.01
293.15	0.6	959.218	1.012
293.15	0.6956	974.099	1.013
293.15	0.8	988.293	1.016
293.15	0.9	1000.071	1.018
293.15	1	1010.232	1.023
298.15	0	803.049	1.008
298.15	0.1	837.728	1.01
298.15	0.2036	868.857	1.009
298.15	0.3	894.137	1.009
298.15	0.4	917.159	1.01
298.15	0.5	937.354	1.011
298.15	0.6	955.075	1.012
298.15	0.6956	969.963	1.013
298.15	0.8	984.171	1.016
298.15	0.9	995.971	1.018
298.15	1	1006.162	1.023
303.15	0	798.829	1.008
303.15	0.1	833.532	1.01
303.15	0.2036	864.676	1.01
303.15	0.3	889.965	1.009
303.15	0.4	912.993	1.01
303.15	0.5	933.194	1.011
303.15	0.6	950.921	1.012
303.15	0.6956	965.82	1.013
303.15	0.8	980.047	1.016
303.15	0.9	991.873	1.018
303.15	1	1002.103	1.022
308.15	0	794.525	1.009
308.15	0.1	829.273	1.01
308.15	0.2036	860.452	1.01
308.15	0.3	885.762	1.01
308.15	0.4	908.808	1.01
308.15	0.5	929.021	1.011
308.15	0.6	946.761	1.012
308.15	0.6956	961.675	1.014
308.15	0.8	975.925	1.016
308.15	0.9	987.783	1.019
308.15	1	998.055	1.022
313.15	0	790.127	1.009
313.15	0.1	824.949	1.01
313.15	0.2036	856.182	1.01
313.15	0.3	881.53	1.01
313.15	0.4	904.598	1.01
313.15	0.5	924.831	1.011
313.15	0.6	942.588	1.012
313.15	0.6956	957.521	1.014
313.15	0.8	971.798	1.016
313.15	0.9	983.692	1.019
313.15	1	994.014	1.022
318.15	0	785.636	1.009
318.15	0.1	820.559	1.011
318.15	0.2036	851.865	1.01
318.15	0.3	877.259	1.01
318.15	0.4	900.359	1.01
318.15	0.5	920.616	1.011
318.15	0.6	938.394	1.012
318.15	0.6956	953.35	1.014
318.15	0.8	967.662	1.016
318.15	0.9	979.601	1.019
318.15	1	989.984	1.022
323.15	0	781.043	1.009
323.15	0.1	816.09	1.011
323.15	0.2036	847.491	1.01
323.15	0.3	872.943	1.01
323.15	0.4	896.089	1.01
323.15	0.5	916.374	1.011
323.15	0.6	934.178	1.012
323.15	0.6956	949.16	1.014
323.15	0.8	963.511	1.016
323.15	0.9	975.504	1.019
323.15	1	985.962	1.022

System: (-)-3-(N-methylpyrrolidino)pyridine + butan-2-ol; phases: Liquid
Fixed: Pressure, kPa = 100
Property: Refractive index (Na D-line) (Liquid); method: Standard Abbe refractometry
Temperature, K	Mole fraction of (-)-3-(N-methylpyrrolidino)pyridine	Refractive index (Na D-line)	uncertainty
293.15	0	1.39715	0.00036
293.15	0.1	1.41889	0.00037
293.15	0.2036	1.43839	0.00037
293.15	0.3	1.4542	0.00037
293.15	0.4	1.46843	0.00037
293.15	0.5	1.48084	0.00038
293.15	0.6	1.49173	0.00038
293.15	0.6956	1.50103	0.00039
293.15	0.8	1.51029	0.00039
293.15	0.9	1.51858	0.0004
293.15	1	1.52665	0.0004
298.15	0	1.39497	0.00036
298.15	0.1	1.41668	0.00037
298.15	0.2036	1.43618	0.00037
298.15	0.3	1.45199	0.00037
298.15	0.4	1.46621	0.00037
298.15	0.5	1.47864	0.00038
298.15	0.6	1.48952	0.00038
298.15	0.6956	1.4988	0.00039
298.15	0.8	1.50803	0.00039
298.15	0.9	1.51632	0.0004
298.15	1	1.52439	0.0004
303.15	0	1.39274	0.00036
303.15	0.1	1.41438	0.00037
303.15	0.2036	1.43393	0.00037
303.15	0.3	1.44972	0.00037
303.15	0.4	1.46397	0.00037
303.15	0.5	1.47644	0.00038
303.15	0.6	1.48735	0.00038
303.15	0.6956	1.49664	0.00039
303.15	0.8	1.50585	0.00039
303.15	0.9	1.5141	0.0004
303.15	1	1.52214	0.0004
308.15	0	1.39045	0.00036
308.15	0.1	1.41211	0.00037
308.15	0.2036	1.43166	0.00037
308.15	0.3	1.44747	0.00037
308.15	0.4	1.46172	0.00037
308.15	0.5	1.4742	0.00038
308.15	0.6	1.48511	0.00038
308.15	0.6956	1.49439	0.00039
308.15	0.8	1.50359	0.00039
308.15	0.9	1.51184	0.0004
308.15	1	1.51988	0.0004
313.15	0	1.38803	0.00036
313.15	0.1	1.40979	0.00037
313.15	0.2036	1.42936	0.00037
313.15	0.3	1.44519	0.00037
313.15	0.4	1.45945	0.00037
313.15	0.5	1.47192	0.00038
313.15	0.6	1.48284	0.00038
313.15	0.6956	1.49217	0.00039
313.15	0.8	1.50145	0.00039
313.15	0.9	1.50978	0.0004
313.15	1	1.5179	0.0004
318.15	0	1.38571	0.00036
318.15	0.1	1.40753	0.00037
318.15	0.2036	1.4271	0.00037
318.15	0.3	1.44297	0.00037
318.15	0.4	1.45725	0.00037
318.15	0.5	1.46971	0.00038
318.15	0.6	1.48065	0.00038
318.15	0.6956	1.49001	0.00039
318.15	0.8	1.49933	0.00039
318.15	0.9	1.50772	0.0004
318.15	1	1.51592	0.0004
323.15	0	1.38322	0.00036
323.15	0.1	1.40509	0.00037
323.15	0.2036	1.42476	0.00037
323.15	0.3	1.44065	0.00037
323.15	0.4	1.45496	0.00037
323.15	0.5	1.46747	0.00038
323.15	0.6	1.47843	0.00038
323.15	0.6956	1.48779	0.00039
323.15	0.8	1.49711	0.00039
323.15	0.9	1.5055	0.0004
323.15	1	1.51373	0.0004

System: (-)-3-(N-methylpyrrolidino)pyridine + butan-2-ol; phases: Liquid
Fixed: Pressure, kPa = 100
Property: Viscosity, Pa*s (Liquid); method: Concentric cylinders viscometry
Temperature, K	Mole fraction of (-)-3-(N-methylpyrrolidino)pyridine	Viscosity, Pa*s	uncertainty
293.15	0	0.0037604	7.72e-05
293.15	0.1	0.0034956	7.19e-05
293.15	0.2036	0.0034603	7.13e-05
293.15	0.3	0.003593	7.41e-05
293.15	0.4	0.0038447	7.94e-05
293.15	0.5	0.0041572	8.6e-05
293.15	0.6	0.0044757	9.28e-05
293.15	0.6956	0.0047343	9.83e-05
293.15	0.8	0.0049074	0.0001021
293.15	0.9	0.0049093	0.0001024
293.15	1	0.0046943	9.83e-05
298.15	0	0.0030933	6.36e-05
298.15	0.1	0.0029599	6.1e-05
298.15	0.2036	0.0029808	6.15e-05
298.15	0.3	0.0031102	6.42e-05
298.15	0.4	0.0033187	6.86e-05
298.15	0.5	0.0035655	7.39e-05
298.15	0.6	0.003813	7.91e-05
298.15	0.6956	0.0040152	8.35e-05
298.15	0.8	0.0041578	8.66e-05
298.15	0.9	0.0041788	8.73e-05
298.15	1	0.0040477	8.48e-05
303.15	0	0.0025664	5.29e-05
303.15	0.1	0.0025207	5.2e-05
303.15	0.2036	0.0025785	5.33e-05
303.15	0.3	0.0027035	5.59e-05
303.15	0.4	0.0028807	5.97e-05
303.15	0.5	0.0030804	6.39e-05
303.15	0.6	0.0032771	6.81e-05
303.15	0.6956	0.0034386	7.16e-05
303.15	0.8	0.0035583	7.42e-05
303.15	0.9	0.0035911	7.51e-05
303.15	1	0.0035177	7.38e-05
308.15	0	0.0021494	4.44e-05
308.15	0.1	0.0021621	4.47e-05
308.15	0.2036	0.0022443	4.65e-05
308.15	0.3	0.0023666	4.9e-05
308.15	0.4	0.0025228	5.23e-05
308.15	0.5	0.002691	5.59e-05
308.15	0.6	0.0028534	5.94e-05
308.15	0.6956	0.0029869	6.23e-05
308.15	0.8	0.0030896	6.45e-05
308.15	0.9	0.0031276	6.55e-05
308.15	1	0.0030883	6.49e-05
313.15	0	0.001816	3.76e-05
313.15	0.1	0.001875	3.89e-05
313.15	0.2036	0.0019754	4.1e-05
313.15	0.3	0.0020938	4.35e-05
313.15	0.4	0.0022316	4.64e-05
313.15	0.5	0.0023732	4.94e-05
313.15	0.6	0.0025079	5.23e-05
313.15	0.6956	0.0026201	5.47e-05
313.15	0.8	0.0027127	5.67e-05
313.15	0.9	0.0027608	5.79e-05
313.15	1	0.0027583	5.8e-05
318.15	0	0.0015484	3.22e-05
318.15	0.1	0.001627	3.39e-05
318.15	0.2036	0.0017338	3.61e-05
318.15	0.3	0.0018484	3.85e-05
318.15	0.4	0.0019742	4.11e-05
318.15	0.5	0.0020991	4.38e-05
318.15	0.6	0.0022144	4.62e-05
318.15	0.6956	0.0023079	4.83e-05
318.15	0.8	0.0023826	4.99e-05
318.15	0.9	0.0024187	5.08e-05
318.15	1	0.0024114	5.08e-05
323.15	0	0.0013319	2.78e-05
323.15	0.1	0.0014342	2.99e-05
323.15	0.2036	0.0015502	3.23e-05
323.15	0.3	0.001662	3.47e-05
323.15	0.4	0.0017781	3.71e-05
323.15	0.5	0.0018884	3.94e-05
323.15	0.6	0.0019891	4.16e-05
323.15	0.6956	0.0020715	4.34e-05
323.15	0.8	0.0021412	4.49e-05
323.15	0.9	0.0021829	4.59e-05
323.15	1	0.0021954	4.63e-05

System: (-)-3-(N-methylpyrrolidino)pyridine + 1,2-propanediol; phases: Liquid
Fixed: Pressure, kPa = 100
Property: Mass density, kg/m3 (Liquid); method: Vibrating tube method
Temperature, K	Mole fraction of (-)-3-(N-methylpyrrolidino)pyridine	Mass density, kg/m3	uncertainty
293.15	0	1036.296	1.004
293.15	0.1	1035.043	1.005
293.15	0.2009	1033.097	1.006
293.15	0.3	1030.493	1.007
293.15	0.4016	1027.642	1.009
293.15	0.5	1024.734	1.01
293.15	0.6005	1021.544	1.012
293.15	0.7	1018.73	1.014
293.15	0.7983	1015.983	1.017
293.15	0.9	1012.956	1.02
293.15	1	1010.232	1.023
298.15	0	1032.62	1.004
298.15	0.1	1031.1	1.005
298.15	0.2009	1029.06	1.006
298.15	0.3	1026.32	1.007
298.15	0.4016	1023.44	1.008
298.15	0.5	1020.54	1.01
298.15	0.6005	1017.36	1.012
298.15	0.7	1014.59	1.014
298.15	0.7983	1011.83	1.016
298.15	0.9	1008.87	1.019
298.15	1	1006.162	1.023
303.15	0	1028.91	1.004
303.15	0.1	1027.18	1.005
303.15	0.2009	1025	1.006
303.15	0.3	1022.19	1.007
303.15	0.4016	1019.27	1.008
303.15	0.5	1016.35	1.01
303.15	0.6005	1013.17	1.012
303.15	0.7	1010.42	1.014
303.15	0.7983	1007.68	1.016
303.15	0.9	1004.77	1.019
303.15	1	1002.103	1.022
308.15	0	1025.16	1.004
308.15	0.1	1023.28	1.004
308.15	0.2009	1020.91	1.005
308.15	0.3	1018.08	1.007
308.15	0.4016	1015.09	1.008
308.15	0.5	1012.14	1.009
308.15	0.6005	1008.98	1.011
308.15	0.7	1006.13	1.013
308.15	0.7983	1003.54	1.016
308.15	0.9	1000.64	1.018
308.15	1	998.055	1.022
313.15	0	1021.39	1.004
313.15	0.1	1019.3	1.004
313.15	0.2009	1016.8	1.005
313.15	0.3	1013.89	1.006
313.15	0.4016	1010.88	1.008
313.15	0.5	1007.92	1.009
313.15	0.6005	1004.79	1.011
313.15	0.7	1002.03	1.013
313.15	0.7983	999.39	1.015
313.15	0.9	996.55	1.018
313.15	1	994.014	1.022
318.15	0	1017.57	1.003
318.15	0.1	1015.29	1.004
318.15	0.2009	1012.66	1.005
318.15	0.3	1009.7	1.006
318.15	0.4016	1006.65	1.007
318.15	0.5	1003.69	1.009
318.15	0.6005	1000.58	1.01
318.15	0.7	997.85	1.013
318.15	0.7983	995.25	1.015
318.15	0.9	992.46	1.018
318.15	1	989.984	1.022
323.15	0	1013.72	1.003
323.15	0.1	1011.25	1.004
323.15	0.2009	1008.51	1.005
323.15	0.3	1005.48	1.006
323.15	0.4016	1002.41	1.007
323.15	0.5	999.45	1.008
323.15	0.6005	996.37	1.01
323.15	0.7	993.67	1.013
323.15	0.7983	991.1	1.015
323.15	0.9	988.38	1.018
323.15	1	985.962	1.022

System: (-)-3-(N-methylpyrrolidino)pyridine + 1,2-propanediol; phases: Liquid
Fixed: Pressure, kPa = 100
Property: Refractive index (Na D-line) (Liquid); method: Standard Abbe refractometry
Temperature, K	Mole fraction of (-)-3-(N-methylpyrrolidino)pyridine	Refractive index (Na D-line)	uncertainty
293.15	0	1.43279	0.00036
293.15	0.1	1.45151	0.00037
293.15	0.2009	1.46746	0.00037
293.15	0.3	1.48003	0.00037
293.15	0.4016	1.4907	0.00037
293.15	0.5	1.49923	0.00038
293.15	0.6005	1.50631	0.00038
293.15	0.7	1.51219	0.00039
293.15	0.7983	1.51744	0.00039
293.15	0.9	1.52199	0.0004
293.15	1	1.52665	0.0004
298.15	0	1.43111	0.00036
298.15	0.1	1.44969	0.00037
298.15	0.2009	1.4656	0.00037
298.15	0.3	1.47804	0.00037
298.15	0.4016	1.48864	0.00037
298.15	0.5	1.49711	0.00038
298.15	0.6005	1.50413	0.00038
298.15	0.7	1.50997	0.00039
298.15	0.7983	1.5152	0.00039
298.15	0.9	1.51971	0.0004
298.15	1	1.52439	0.0004
303.15	0	1.42941	0.00036
303.15	0.1	1.448	0.00037
303.15	0.2009	1.46377	0.00037
303.15	0.3	1.47612	0.00037
303.15	0.4016	1.48662	0.00037
303.15	0.5	1.49496	0.00038
303.15	0.6005	1.50195	0.00038
303.15	0.7	1.50774	0.00039
303.15	0.7983	1.51296	0.00039
303.15	0.9	1.51749	0.0004
303.15	1	1.52214	0.0004
308.15	0	1.42773	0.00036
308.15	0.1	1.44622	0.00037
308.15	0.2009	1.46193	0.00037
308.15	0.3	1.47424	0.00037
308.15	0.4016	1.48462	0.00037
308.15	0.5	1.49301	0.00038
308.15	0.6005	1.49987	0.00038
308.15	0.7	1.50568	0.00039
308.15	0.7983	1.51076	0.00039
308.15	0.9	1.5153	0.0004
308.15	1	1.51988	0.0004
313.15	0	1.42601	0.00036
313.15	0.1	1.44441	0.00037
313.15	0.2009	1.46029	0.00037
313.15	0.3	1.4723	0.00037
313.15	0.4016	1.48255	0.00037
313.15	0.5	1.49092	0.00038
313.15	0.6005	1.49774	0.00038
313.15	0.7	1.50345	0.00039
313.15	0.7983	1.5087	0.00039
313.15	0.9	1.51312	0.0004
313.15	1	1.5179	0.0004
318.15	0	1.42429	0.00036
318.15	0.1	1.44265	0.00037
318.15	0.2009	1.45843	0.00037
318.15	0.3	1.47031	0.00037
318.15	0.4016	1.48043	0.00037
318.15	0.5	1.48871	0.00038
318.15	0.6005	1.49555	0.00038
318.15	0.7	1.50118	0.00039
318.15	0.7983	1.50651	0.00039
318.15	0.9	1.511	0.0004
318.15	1	1.51592	0.0004
323.15	0	1.42257	0.00036
323.15	0.1	1.44081	0.00037
323.15	0.2009	1.45653	0.00037
323.15	0.3	1.46833	0.00037
323.15	0.4016	1.47837	0.00037
323.15	0.5	1.48665	0.00038
323.15	0.6005	1.49341	0.00038
323.15	0.7	1.49904	0.00039
323.15	0.7983	1.50435	0.00039
323.15	0.9	1.50881	0.0004
323.15	1	1.51373	0.0004

System: (-)-3-(N-methylpyrrolidino)pyridine + 1,2-propanediol; phases: Liquid
Fixed: Pressure, kPa = 100
Property: Viscosity, Pa*s (Liquid); method: Concentric cylinders viscometry
Temperature, K	Mole fraction of (-)-3-(N-methylpyrrolidino)pyridine	Viscosity, Pa*s	uncertainty
293.15	0	0.059564	0.001209
293.15	0.1	0.059354	0.001206
293.15	0.2009	0.053524	0.001085
293.15	0.3	0.044848	0.000919
293.15	0.4016	0.035018	0.00072
293.15	0.5	0.026039	0.000536
293.15	0.6005	0.01844	0.000381
293.15	0.7	0.012887	0.000267
293.15	0.7983	0.009269	0.0001926
293.15	0.9	0.0068754	0.0001433
293.15	1	0.0046943	9.83e-05
298.15	0	0.044143	0.0009
298.15	0.1	0.043285	0.000885
298.15	0.2009	0.038882	0.000796
298.15	0.3	0.032722	0.000671
298.15	0.4016	0.025845	0.000531
298.15	0.5	0.019595	0.000404
298.15	0.6005	0.014246	0.000294
298.15	0.7	0.010265	0.000213
298.15	0.7983	0.0075758	0.0001575
298.15	0.9	0.0057065	0.0001191
298.15	1	0.0040477	8.48e-05
303.15	0	0.033248	0.000678
303.15	0.1	0.032209	0.000658
303.15	0.2009	0.028847	0.000591
303.15	0.3	0.024365	0.0005
303.15	0.4016	0.019443	0.0004
303.15	0.5	0.014987	0.000309
303.15	0.6005	0.011165	0.000231
303.15	0.7	0.0082838	0.0001717
303.15	0.7983	0.0062856	0.0001307
303.15	0.9	0.0048342	0.0001009
303.15	1	0.0035177	7.38e-05
308.15	0	0.025503	0.00052
308.15	0.1	0.024456	0.0005
308.15	0.2009	0.02187	0.000448
308.15	0.3	0.018562	0.000381
308.15	0.4016	0.014976	0.000308
308.15	0.5	0.011733	0.000242
308.15	0.6005	0.0089348	0.0001847
308.15	0.7	0.0067911	0.0001409
308.15	0.7983	0.0052638	0.0001096
308.15	0.9	0.0041199	8.61e-05
308.15	1	0.0030883	6.49e-05
313.15	0	0.019781	0.000404
313.15	0.1	0.018792	0.000384
313.15	0.2009	0.016791	0.000344
313.15	0.3	0.014329	0.000294
313.15	0.4016	0.011691	0.00024
313.15	0.5	0.0093022	0.0001919
313.15	0.6005	0.0072236	0.0001494
313.15	0.7	0.0056053	0.0001163
313.15	0.7983	0.0044249	9.22e-05
313.15	0.9	0.0035321	7.39e-05
313.15	1	0.0027583	5.8e-05
318.15	0	0.015759	0.000322
318.15	0.1	0.014912	0.000305
318.15	0.2009	0.013341	0.000273
318.15	0.3	0.011449	0.000235
318.15	0.4016	0.0094383	0.0001942
318.15	0.5	0.0076203	0.0001572
318.15	0.6005	0.0060308	0.0001248
318.15	0.7	0.0047795	9.93e-05
318.15	0.7983	0.0038391	8e-05
318.15	0.9	0.0030936	6.48e-05
318.15	1	0.0024114	5.08e-05
323.15	0	0.012747	0.00026
323.15	0.1	0.01203	0.000246
323.15	0.2009	0.010782	0.000221
323.15	0.3	0.0093057	0.0001911
323.15	0.4016	0.0077462	0.0001595
323.15	0.5	0.006339	0.0001309
323.15	0.6005	0.0051039	0.0001057
323.15	0.7	0.0041241	8.57e-05
323.15	0.7983	0.0033747	7.04e-05
323.15	0.9	0.002765	5.8e-05
323.15	1	0.0021954	4.63e-05

System: (-)-3-(N-methylpyrrolidino)pyridine + propan-1,3-diol; phases: Liquid
Fixed: Pressure, kPa = 100
Property: Mass density, kg/m3 (Liquid); method: Vibrating tube method
Temperature, K	Mole fraction of (-)-3-(N-methylpyrrolidino)pyridine	Mass density, kg/m3	uncertainty
293.15	0	1053.03	1.321
293.15	0.1	1049.361	1.266
293.15	0.1999	1045.432	1.217
293.15	0.3	1041.303	1.175
293.15	0.3994	1037.045	1.139
293.15	0.5	1032.672	1.108
293.15	0.6004	1028.248	1.083
293.15	0.7	1023.757	1.062
293.15	0.8	1019.327	1.046
293.15	0.9	1014.739	1.033
293.15	1	1010.232	1.023
298.15	0	1049.903	1.317
298.15	0.1	1045.959	1.262
298.15	0.1999	1041.826	1.214
298.15	0.3	1037.545	1.172
298.15	0.3994	1033.174	1.136
298.15	0.5	1028.722	1.106
298.15	0.6004	1024.243	1.081
298.15	0.7	1019.713	1.061
298.15	0.8	1015.262	1.045
298.15	0.9	1010.666	1.032
298.15	1	1006.162	1.023
303.15	0	1046.773	1.314
303.15	0.1	1042.554	1.259
303.15	0.1999	1038.215	1.211
303.15	0.3	1033.78	1.169
303.15	0.3994	1029.295	1.134
303.15	0.5	1024.769	1.104
303.15	0.6004	1020.238	1.08
303.15	0.7	1015.677	1.06
303.15	0.8	1011.203	1.044
303.15	0.9	1006.607	1.031
303.15	1	1002.103	1.022
308.15	0	1043.635	1.31
308.15	0.1	1039.137	1.255
308.15	0.1999	1034.593	1.207
308.15	0.3	1030.008	1.166
308.15	0.3994	1025.41	1.132
308.15	0.5	1020.811	1.102
308.15	0.6004	1016.232	1.078
308.15	0.7	1011.637	1.058
308.15	0.8	1007.147	1.043
308.15	0.9	1002.55	1.031
308.15	1	998.055	1.022
313.15	0	1040.49	1.306
313.15	0.1	1035.712	1.252
313.15	0.1999	1030.963	1.204
313.15	0.3	1026.228	1.163
313.15	0.3994	1021.521	1.129
313.15	0.5	1016.849	1.1
313.15	0.6004	1012.221	1.076
313.15	0.7	1007.597	1.057
313.15	0.8	1003.094	1.042
313.15	0.9	998.498	1.03
313.15	1	994.014	1.022
318.15	0	1037.329	1.302
318.15	0.1	1032.271	1.248
318.15	0.1999	1027.317	1.201
318.15	0.3	1022.434	1.161
318.15	0.3994	1017.622	1.127
318.15	0.5	1012.878	1.098
318.15	0.6004	1008.206	1.075
318.15	0.7	1003.556	1.056
318.15	0.8	999.04	1.041
318.15	0.9	994.453	1.03
318.15	1	989.984	1.022
323.15	0	1034.157	1.298
323.15	0.1	1028.815	1.244
323.15	0.1999	1023.658	1.198
323.15	0.3	1018.628	1.158
323.15	0.3994	1013.715	1.124
323.15	0.5	1008.898	1.096
323.15	0.6004	1004.185	1.073
323.15	0.7	999.506	1.055
323.15	0.8	994.989	1.041
323.15	0.9	990.406	1.03
323.15	1	985.962	1.022

System: (-)-3-(N-methylpyrrolidino)pyridine + propan-1,3-diol; phases: Liquid
Fixed: Pressure, kPa = 100
Property: Refractive index (Na D-line) (Liquid); method: Standard Abbe refractometry
Temperature, K	Mole fraction of (-)-3-(N-methylpyrrolidino)pyridine	Refractive index (Na D-line)	uncertainty
293.15	0	1.43918	0.00053
293.15	0.1	1.45763	0.00052
293.15	0.1999	1.47282	0.0005
293.15	0.3	1.48522	0.00049
293.15	0.3994	1.49551	0.00047
293.15	0.5	1.50314	0.00046
293.15	0.6004	1.50913	0.00045
293.15	0.7	1.51461	0.00043
293.15	0.8	1.51947	0.00042
293.15	0.9	1.5228	0.00041
293.15	1	1.52665	0.0004
298.15	0	1.43783	0.00053
298.15	0.1	1.4561	0.00052
298.15	0.1999	1.47118	0.0005
298.15	0.3	1.4835	0.00049
298.15	0.3994	1.49364	0.00047
298.15	0.5	1.50131	0.00046
298.15	0.6004	1.50702	0.00045
298.15	0.7	1.51264	0.00043
298.15	0.8	1.51729	0.00042
298.15	0.9	1.52064	0.00041
298.15	1	1.52439	0.0004
303.15	0	1.43648	0.00053
303.15	0.1	1.45463	0.00052
303.15	0.1999	1.46959	0.0005
303.15	0.3	1.48179	0.00049
303.15	0.3994	1.49178	0.00047
303.15	0.5	1.49939	0.00046
303.15	0.6004	1.5052	0.00045
303.15	0.7	1.51056	0.00043
303.15	0.8	1.51508	0.00042
303.15	0.9	1.51845	0.00041
303.15	1	1.52214	0.0004
308.15	0	1.43515	0.00053
308.15	0.1	1.45312	0.00052
308.15	0.1999	1.46793	0.0005
308.15	0.3	1.48	0.00049
308.15	0.3994	1.48991	0.00047
308.15	0.5	1.49739	0.00046
308.15	0.6004	1.50305	0.00045
308.15	0.7	1.50843	0.00043
308.15	0.8	1.51294	0.00042
308.15	0.9	1.51623	0.00041
308.15	1	1.51988	0.0004
313.15	0	1.43382	0.00053
313.15	0.1	1.45171	0.00052
313.15	0.1999	1.46637	0.0005
313.15	0.3	1.47831	0.00049
313.15	0.3994	1.48799	0.00047
313.15	0.5	1.49571	0.00046
313.15	0.6004	1.50113	0.00045
313.15	0.7	1.50703	0.00043
313.15	0.8	1.51089	0.00042
313.15	0.9	1.51476	0.00041
313.15	1	1.5179	0.0004
318.15	0	1.4324	0.00053
318.15	0.1	1.45006	0.00052
318.15	0.1999	1.46458	0.0005
318.15	0.3	1.4764	0.00049
318.15	0.3994	1.48604	0.00047
318.15	0.5	1.49341	0.00046
318.15	0.6004	1.49907	0.00045
318.15	0.7	1.50429	0.00043
318.15	0.8	1.50872	0.00042
318.15	0.9	1.51216	0.00041
318.15	1	1.51592	0.0004
323.15	0	1.43101	0.00053
323.15	0.1	1.44849	0.00052
323.15	0.1999	1.46287	0.0005
323.15	0.3	1.4746	0.00049
323.15	0.3994	1.48415	0.00047
323.15	0.5	1.49147	0.00046
323.15	0.6004	1.49703	0.00045
323.15	0.7	1.50221	0.00043
323.15	0.8	1.5066	0.00042
323.15	0.9	1.50996	0.00041
323.15	1	1.51373	0.0004

System: (-)-3-(N-methylpyrrolidino)pyridine + propan-1,3-diol; phases: Liquid
Fixed: Pressure, kPa = 100
Property: Viscosity, Pa*s (Liquid); method: Concentric cylinders viscometry
Temperature, K	Mole fraction of (-)-3-(N-methylpyrrolidino)pyridine	Viscosity, Pa*s	uncertainty
293.15	0	0.052307	0.001171
293.15	0.1	0.063859	0.001428
293.15	0.1999	0.06355	0.001408
293.15	0.3	0.055974	0.00122
293.15	0.3994	0.044968	0.000979
293.15	0.5	0.033152	0.000716
293.15	0.6004	0.022752	0.000488
293.15	0.7	0.014909	0.000317
293.15	0.8	0.0098052	0.0002075
293.15	0.9	0.006894	0.000145
293.15	1	0.0046943	9.83e-05
298.15	0	0.041546	0.000938
298.15	0.1	0.04897	0.001095
298.15	0.1999	0.048129	0.001066
298.15	0.3	0.042256	0.000928
298.15	0.3994	0.034045	0.000741
298.15	0.5	0.025351	0.000548
298.15	0.6004	0.017707	0.00038
298.15	0.7	0.011927	0.000254
298.15	0.8	0.0081055	0.0001715
298.15	0.9	0.0058317	0.0001227
298.15	1	0.0040477	8.48e-05
303.15	0	0.033221	0.00075
303.15	0.1	0.037969	0.000849
303.15	0.1999	0.036901	0.000817
303.15	0.3	0.032314	0.00071
303.15	0.3994	0.026123	0.000569
303.15	0.5	0.019637	0.000424
303.15	0.6004	0.013946	0.000299
303.15	0.7	0.0096241	0.000205
303.15	0.8	0.006722	0.0001423
303.15	0.9	0.0049427	0.0001041
303.15	1	0.0035177	7.38e-05
308.15	0	0.026867	0.000606
308.15	0.1	0.029839	0.000667
308.15	0.1999	0.028714	0.000636
308.15	0.3	0.025116	0.000552
308.15	0.3994	0.020407	0.000444
308.15	0.5	0.015504	0.000335
308.15	0.6004	0.011194	0.00024
308.15	0.7	0.0078851	0.000168
308.15	0.8	0.0056209	0.0001191
308.15	0.9	0.0041998	8.85e-05
308.15	1	0.0030883	6.49e-05
313.15	0	0.021846	0.000493
313.15	0.1	0.023687	0.00053
313.15	0.1999	0.022595	0.000501
313.15	0.3	0.01974	0.000434
313.15	0.3994	0.016108	0.000351
313.15	0.5	0.012357	0.000267
313.15	0.6004	0.0090597	0.0001944
313.15	0.7	0.0065134	0.0001389
313.15	0.8	0.0047488	0.0001007
313.15	0.9	0.0036247	7.65e-05
313.15	1	0.0027583	5.8e-05
318.15	0	0.018125	0.000409
318.15	0.1	0.019277	0.000431
318.15	0.1999	0.01826	0.000405
318.15	0.3	0.015948	0.00035
318.15	0.3994	0.01308	0.000285
318.15	0.5	0.010142	0.000219
318.15	0.6004	0.0075589	0.0001622
318.15	0.7	0.0055492	0.0001184
318.15	0.8	0.0041275	8.76e-05
318.15	0.9	0.0031801	6.72e-05
318.15	1	0.0024114	5.08e-05
323.15	0	0.015211	0.000344
323.15	0.1	0.015872	0.000355
323.15	0.1999	0.014935	0.000331
323.15	0.3	0.013049	0.000287
323.15	0.3994	0.010763	0.000235
323.15	0.5	0.0084372	0.0001825
323.15	0.6004	0.0063889	0.0001372
323.15	0.7	0.0047824	0.0001021
323.15	0.8	0.0036254	7.7e-05
323.15	0.9	0.0028368	6e-05
323.15	1	0.0021954	4.63e-05
