Measured thermophysical data. Effect of temperature and composition on the density, viscosity, surface tension, and thermodynamic properties of binary mixtures of N-octylisoquinolinium bis{(trifluoromethyl)sulfonyl}imide with alcohols
Source: J. Chem. Thermodyn., 2012, 10.1016/j.jct.2011.12.003
Compound 1: 2-octylisoquinolinium bis((trifluoromethyl)sulfonyl)amide, C19H24F6N2O4S2, InChI=1S/C17H24N.C2F6NO4S2/c1-2-3-4-5-6-9-13-18-14-12-16-10-7-8-11-17(16)15-18;3-1(4,5)14(10,11)9-15(12,13)2(6,7)8/h7-8,10-12,14-15H,2-6,9,13H2,1H3;/q+1;-1
Compound 2: butan-1-ol, C4H10O, InChI=1S/C4H10O/c1-2-3-4-5/h5H,2-4H2,1H3
Compound 3: hexan-1-ol, C6H14O, InChI=1S/C6H14O/c1-2-3-4-5-6-7/h7H,2-6H2,1H3
Compound 4: 2-phenylethanol, C8H10O, InChI=1S/C8H10O/c9-7-6-8-4-2-1-3-5-8/h1-5,9H,6-7H2

System: 2-octylisoquinolinium bis((trifluoromethyl)sulfonyl)amide; phases: Liquid
Fixed: Pressure, kPa = 101
Property: Mass density, kg/m3 (Liquid); method: Vibrating tube method
Temperature, K	Mass density, kg/m3	uncertainty
298.15	1330.76	1.76
308.15	1322.03	1.75
318.15	1313.59	1.73
328.15	1305.2	1.71
338.15	1296.85	1.7
298.15	1330.8	1.8
308.15	1322	1.7
318.15	1313.6	1.7
338.15	1296.9	1.7

System: 2-octylisoquinolinium bis((trifluoromethyl)sulfonyl)amide; phases: Liquid
Fixed: Pressure, kPa = 101
Property: Viscosity, Pa*s (Liquid); method: Capillary tube (Ostwald; Ubbelohde) method
Temperature, K	Viscosity, Pa*s	uncertainty
298.15	0.36931	0.01452
308.15	0.19097	0.00639
318.15	0.10867	0.00303
328.15	0.06788	0.00168
338.15	0.04488	0.00112
338.15	0.0448	0.00112

System: 2-octylisoquinolinium bis((trifluoromethyl)sulfonyl)amide; phases: Liquid, Air at 1 atmosphere
Property: Surface tension liquid-gas, N/m (Liquid); method: Ring tensiometer
Temperature, K	Surface tension liquid-gas, N/m	uncertainty
298.15	0.03187	0.00095
308.15	0.03093	0.00095
318.15	0.03026	0.00094

System: butan-1-ol; phases: Liquid
Fixed: Pressure, kPa = 101
Property: Mass density, kg/m3 (Liquid); method: Vibrating tube method
Temperature, K	Mass density, kg/m3	uncertainty
298.15	805.77	0.15
308.15	798.06	0.15
318.15	790.19	0.15
328.15	782.15	0.15
338.15	773.89	0.15

System: butan-1-ol; phases: Liquid
Fixed: Pressure, kPa = 101
Property: Viscosity, Pa*s (Liquid); method: Capillary tube (Ostwald; Ubbelohde) method
Temperature, K	Viscosity, Pa*s	uncertainty
298.15	0.00254	2e-05
308.15	0.00198	2e-05
318.15	0.00157	1e-05
328.15	0.00126	1e-05
338.15	0.00103	1e-05

System: hexan-1-ol; phases: Liquid
Fixed: Pressure, kPa = 101
Property: Mass density, kg/m3 (Liquid); method: Vibrating tube method
Temperature, K	Mass density, kg/m3	uncertainty
298.15	815.2	0.2
308.15	808	0.2
318.15	800.6	0.2
328.15	793.2	0.2
338.15	785.5	0.2

System: hexan-1-ol; phases: Liquid
Fixed: Pressure, kPa = 101
Property: Viscosity, Pa*s (Liquid); method: Capillary tube (Ostwald; Ubbelohde) method
Temperature, K	Viscosity, Pa*s	uncertainty
298.15	0.00448	3e-05
308.15	0.00334	3e-05
318.15	0.00254	2e-05
328.15	0.00197	2e-05
338.15	0.00156	1e-05

System: hexan-1-ol; phases: Liquid, Air at 1 atmosphere
Property: Surface tension liquid-gas, N/m (Liquid); method: Ring tensiometer
Temperature, K	Surface tension liquid-gas, N/m	uncertainty
298.15	0.02555	0.00038
308.15	0.02468	0.00037
318.15	0.02359	0.00035

System: 2-phenylethanol; phases: Liquid
Fixed: Pressure, kPa = 101
Property: Mass density, kg/m3 (Liquid); method: Vibrating tube method
Temperature, K	Mass density, kg/m3	uncertainty
298.15	1016.16	0.11
308.15	1008.61	0.11
318.15	1000.98	0.11
328.15	993.29	0.11
338.15	985.48	0.11

System: 2-phenylethanol; phases: Liquid
Fixed: Pressure, kPa = 101
Property: Viscosity, Pa*s (Liquid); method: Capillary tube (Ostwald; Ubbelohde) method
Temperature, K	Viscosity, Pa*s	uncertainty
298.15	0.0109	9e-05
308.15	0.00719	7e-05
318.15	0.00498	5e-05
328.15	0.00364	3e-05
338.15	0.00277	2e-05

System: butan-1-ol + 2-octylisoquinolinium bis((trifluoromethyl)sulfonyl)amide; phases: Liquid
Fixed: Pressure, kPa = 101
Property: Mass density, kg/m3 (Liquid); method: Vibrating tube method
Temperature, K	Mole fraction of 2-octylisoquinolinium bis((trifluoromethyl)sulfonyl)amide	Mass density, kg/m3	uncertainty
298.15	0	805.77	0.15
298.15	0.0686	931.78	1.31
298.15	0.2063	1082.19	0.93
298.15	0.3085	1150.04	0.63
298.15	0.3933	1191.12	0.54
298.15	0.4968	1229.36	0.58
298.15	0.5964	1258	0.69
298.15	0.6866	1279.01	0.84
298.15	0.8292	1305.59	1.14
298.15	0.9135	1318.77	1.35
298.15	0.952	1324.3	1.46
298.15	1	1330.76	1.59
308.15	0	798.06	0.15
308.15	0.0686	923.63	1.28
308.15	0.2063	1073.63	0.94
308.15	0.3085	1141.45	0.63
308.15	0.3933	1182.43	0.53
308.15	0.4968	1220.68	0.58
308.15	0.5964	1249.4	0.69
308.15	0.6866	1270.47	0.83
308.15	0.8292	1297	1.13
308.15	0.9135	1310.06	1.33
308.15	0.952	1315.58	1.44
308.15	1	1322.03	1.57
318.15	0	790.19	0.15
318.15	0.0686	915.39	1.28
318.15	0.2063	1065.02	0.94
318.15	0.3085	1132.65	0.63
318.15	0.3933	1173.77	0.53
318.15	0.4968	1212.06	0.57
318.15	0.5964	1240.8	0.68
318.15	0.6866	1261.92	0.81
318.15	0.8292	1288.56	1.11
318.15	0.9135	1301.69	1.32
318.15	0.952	1307.18	1.42
318.15	1	1313.59	1.55
328.15	0	782.15	0.15
328.15	0.0686	906.99	1.27
328.15	0.2063	1056.38	0.94
328.15	0.3085	1124.11	0.63
328.15	0.3933	1165.1	0.53
328.15	0.4968	1203.37	0.56
328.15	0.5964	1232.2	0.67
328.15	0.6866	1253.4	0.8
328.15	0.8292	1280.11	1.1
328.15	0.9135	1293.3	1.3
328.15	0.952	1298.79	1.4
328.15	1	1305.2	1.52
338.15	0	773.89	0.15
338.15	0.0686	898.52	1.3
338.15	0.2063	1047.69	0.93
338.15	0.3085	1115.1	0.63
338.15	0.3933	1156.34	0.52
338.15	0.4968	1194.74	0.56
338.15	0.5964	1223.6	0.66
338.15	0.6866	1244.85	0.79
338.15	0.8292	1271.6	1.08
338.15	0.9135	1284.91	1.28
338.15	0.952	1290.43	1.38
338.15	1	1296.85	1.5

System: butan-1-ol + 2-octylisoquinolinium bis((trifluoromethyl)sulfonyl)amide; phases: Liquid
Fixed: Pressure, kPa = 101
Property: Excess molar volume, m3/mol (Liquid); method: Calculated with densities of this investigation
Temperature, K	Mole fraction of 2-octylisoquinolinium bis((trifluoromethyl)sulfonyl)amide	Excess molar volume, m3/mol	uncertainty
298.15	0	0	1e-08
298.15	0.0686	-5.6e-08	7.9e-09
298.15	0.2063	-4.6e-08	7.9e-09
298.15	0.3085	-4.6e-09	7.8e-09
298.15	0.3933	4.96e-08	7.9e-09
298.15	0.4968	1.392e-07	8.1e-09
298.15	0.5964	1.978e-07	8.2e-09
298.15	0.6866	2.41e-07	8.3e-09
298.15	0.8292	2.617e-07	8.4e-09
298.15	0.9135	1.66e-07	8.2e-09
298.15	0.952	9.34e-08	8.2e-09
298.15	1	0	1e-08
308.15	0	0	1e-08
308.15	0.0686	-6.84e-08	7.9e-09
308.15	0.2063	-5.87e-08	7.9e-09
308.15	0.3085	-2.87e-08	7.8e-09
308.15	0.3933	3.61e-08	7.9e-09
308.15	0.4968	1.211e-07	8.1e-09
308.15	0.5964	1.616e-07	8.1e-09
308.15	0.6866	1.898e-07	8.2e-09
308.15	0.8292	2.22e-07	8.3e-09
308.15	0.9135	1.593e-07	8.2e-09
308.15	0.952	8.99e-08	8.2e-09
308.15	1	0	1e-08
318.15	0	0	1e-08
318.15	0.0686	-8.21e-08	7.9e-09
318.15	0.2063	-6.23e-08	7.9e-09
318.15	0.3085	-6e-09	7.8e-09
318.15	0.3933	3.87e-08	7.9e-09
318.15	0.4968	1.232e-07	8.1e-09
318.15	0.5964	1.679e-07	8.1e-09
318.15	0.6866	1.929e-07	8.2e-09
318.15	0.8292	2.095e-07	8.2e-09
318.15	0.9135	1.329e-07	8.1e-09
318.15	0.952	7.42e-08	8.1e-09
318.15	1	0	1e-08
328.15	0	0	1e-08
328.15	0.0686	-9.44e-08	8e-09
328.15	0.2063	-7.54e-08	7.9e-09
328.15	0.3085	-3.62e-08	7.9e-09
328.15	0.3933	3.63e-08	7.9e-09
328.15	0.4968	1.37e-07	8.1e-09
328.15	0.5964	1.754e-07	8.2e-09
328.15	0.6866	1.933e-07	8.2e-09
328.15	0.8292	2.097e-07	8.2e-09
328.15	0.9135	1.253e-07	8.1e-09
328.15	0.952	7.04e-08	8e-09
328.15	1	0	1e-08
338.15	0	0	1e-08
338.15	0.0686	-1.233e-07	8e-09
338.15	0.2063	-1.017e-07	8e-09
338.15	0.3085	-3.7e-09	7.8e-09
338.15	0.3933	3.75e-08	7.9e-09
338.15	0.4968	1.544e-07	8.1e-09
338.15	0.5964	1.781e-07	8.2e-09
338.15	0.6866	2.096e-07	8.2e-09
338.15	0.8292	2.309e-07	8.3e-09
338.15	0.9135	1.254e-07	8.1e-09
338.15	0.952	6.69e-08	8e-09
338.15	1	0	1e-08

System: butan-1-ol + 2-octylisoquinolinium bis((trifluoromethyl)sulfonyl)amide; phases: Liquid
Fixed: Pressure, kPa = 101
Property: Viscosity, Pa*s (Liquid); method: Capillary tube (Ostwald; Ubbelohde) method
Temperature, K	Mole fraction of 2-octylisoquinolinium bis((trifluoromethyl)sulfonyl)amide	Viscosity, Pa*s	uncertainty
298.15	0	0.00254	2e-05
298.15	0.0686	0.0061	7e-05
298.15	0.2063	0.01259	0.00015
298.15	0.3085	0.02284	0.00024
298.15	0.3933	0.03387	0.0004
298.15	0.4968	0.05519	0.00063
298.15	0.5964	0.08429	0.00124
298.15	0.6866	0.12289	0.00243
298.15	0.8292	0.20499	0.00561
298.15	0.9135	0.27596	0.00884
298.15	1	0.36931	0.0135
308.15	0	0.00198	2e-05
308.15	0.0686	0.00439	5e-05
308.15	0.2063	0.00877	9e-05
308.15	0.3085	0.01521	0.00017
308.15	0.3933	0.02189	0.00025
308.15	0.4968	0.03434	0.00043
308.15	0.5964	0.05164	0.00065
308.15	0.6866	0.07128	0.00107
308.15	0.8292	0.11524	0.00237
308.15	0.9135	0.15125	0.00371
308.15	1	0.19097	0.00542
318.15	0	0.00157	1e-05
318.15	0.0686	0.00332	4e-05
318.15	0.2063	0.00633	6e-05
318.15	0.3085	0.01061	0.00011
318.15	0.3933	0.01504	0.00016
318.15	0.4968	0.02281	0.00026
318.15	0.5964	0.03298	0.0004
318.15	0.6866	0.04466	0.00058
318.15	0.8292	0.06946	0.00102
318.15	0.9135	0.08925	0.00156
318.15	1	0.10867	0.00219
328.15	0	0.00126	1e-05
328.15	0.0686	0.00258	3e-05
328.15	0.2063	0.00472	5e-05
328.15	0.3085	0.00777	7e-05
328.15	0.3933	0.01088	0.00011
328.15	0.4968	0.01601	0.00017
328.15	0.5964	0.02259	0.00025
328.15	0.6866	0.02985	0.00036
328.15	0.8292	0.04514	0.00058
328.15	0.9135	0.0561	0.00076
328.15	1	0.06788	0.001
338.15	0	0.00103	1e-05
338.15	0.0686	0.00206	2e-05
338.15	0.2063	0.00366	3e-05
338.15	0.3085	0.00591	6e-05
338.15	0.3933	0.00815	8e-05
338.15	0.4968	0.01178	0.00012
338.15	0.5964	0.01668	0.00018
338.15	0.6866	0.02101	0.00025
338.15	0.8292	0.03127	0.00041
338.15	0.9135	0.03787	0.00053
338.15	1	0.04488	0.00067

System: hexan-1-ol + 2-octylisoquinolinium bis((trifluoromethyl)sulfonyl)amide; phases: Liquid
Fixed: Pressure, kPa = 101
Property: Mass density, kg/m3 (Liquid); method: Vibrating tube method
Temperature, K	Mole fraction of 2-octylisoquinolinium bis((trifluoromethyl)sulfonyl)amide	Mass density, kg/m3	uncertainty
298.15	0	815.2	0.2
298.15	0.0937	941.2	1.1
298.15	0.2087	1047.8	0.8
298.15	0.3146	1118.4	0.6
298.15	0.4175	1170.7	0.6
298.15	0.5019	1205.5	0.6
298.15	0.6327	1249	0.8
298.15	0.7143	1271.3	0.9
298.15	0.8195	1296.1	1.1
298.15	0.9146	1315.4	1.4
298.15	1	1330.8	1.6
308.15	0	808	0.2
308.15	0.0937	933.5	1.1
308.15	0.2087	1039.6	0.8
308.15	0.3146	1110	0.6
308.15	0.4175	1162.3	0.6
308.15	0.5019	1197.1	0.6
308.15	0.6327	1240.5	0.7
308.15	0.7143	1262.9	0.9
308.15	0.8195	1287.6	1.1
308.15	0.9146	1306.7	1.3
308.15	1	1322	1.6
318.15	0	800.6	0.2
318.15	0.0937	925.7	1.1
318.15	0.2087	1031.4	0.8
318.15	0.3146	1101.6	0.6
318.15	0.4175	1153.9	0.6
318.15	0.5019	1188.6	0.6
318.15	0.6327	1232.1	0.7
318.15	0.7143	1254.4	0.9
318.15	0.8195	1279.2	1.1
318.15	0.9146	1298.4	1.3
318.15	1	1313.6	1.5
328.15	0	793.2	0.2
328.15	0.0937	917.8	1.1
328.15	0.2087	1023.2	0.8
328.15	0.3146	1093.2	0.6
328.15	0.4175	1145.5	0.6
328.15	0.5019	1180.2	0.6
328.15	0.6327	1223.6	0.7
328.15	0.7143	1246	0.9
328.15	0.8195	1270.8	1.1
328.15	0.9146	1290	1.3
328.15	1	1305.2	1.5
338.15	0	785.5	0.2
338.15	0.0937	909.3	1.1
338.15	0.2087	1014.9	0.8
338.15	0.3146	1084.9	0.6
338.15	0.4175	1137.1	0.6
338.15	0.5019	1171.8	0.6
338.15	0.6327	1215.2	0.7
338.15	0.7143	1237.6	0.8
338.15	0.8195	1262.4	1.1
338.15	0.9146	1281.6	1.3
338.15	1	1296.9	1.5

System: hexan-1-ol + 2-octylisoquinolinium bis((trifluoromethyl)sulfonyl)amide; phases: Liquid
Fixed: Pressure, kPa = 101
Property: Excess molar volume, m3/mol (Liquid); method: Calculated with densities of this investigation
Temperature, K	Mole fraction of 2-octylisoquinolinium bis((trifluoromethyl)sulfonyl)amide	Excess molar volume, m3/mol	uncertainty
298.15	0	0	1e-08
298.15	0.0937	2.02e-08	7.8e-09
298.15	0.2087	1.143e-07	8e-09
298.15	0.3146	1.641e-07	8.1e-09
298.15	0.4175	2.299e-07	8.3e-09
298.15	0.5019	2.595e-07	8.4e-09
298.15	0.6327	2.78e-07	8.4e-09
298.15	0.7143	2.678e-07	8.4e-09
298.15	0.8195	1.995e-07	8.2e-09
298.15	0.9146	1.208e-07	8.1e-09
298.15	1	0	1e-08
308.15	0	0	1e-08
308.15	0.0937	1.09e-08	7.8e-09
308.15	0.2087	1.077e-07	8e-09
308.15	0.3146	1.611e-07	8.1e-09
308.15	0.4175	2.171e-07	8.3e-09
308.15	0.5019	2.36e-07	8.3e-09
308.15	0.6327	2.362e-07	8.3e-09
308.15	0.7143	2.087e-07	8.2e-09
308.15	0.8195	1.527e-07	8.1e-09
308.15	0.9146	1.054e-07	8e-09
308.15	1	0	1e-08
318.15	0	0	1e-08
318.15	0.0937	1.5e-09	7.8e-09
318.15	0.2087	1.136e-07	8.1e-09
318.15	0.3146	1.922e-07	8.2e-09
318.15	0.4175	2.253e-07	8.3e-09
318.15	0.5019	2.396e-07	8.3e-09
318.15	0.6327	2.389e-07	8.3e-09
318.15	0.7143	2.099e-07	8.3e-09
318.15	0.8195	1.424e-07	8.1e-09
318.15	0.9146	8.37e-08	8e-09
318.15	1	0	1e-08
328.15	0	0	1e-08
328.15	0.0937	-1.21e-08	7.8e-09
328.15	0.2087	1.092e-07	8.1e-09
328.15	0.3146	1.953e-07	8.2e-09
328.15	0.4175	2.229e-07	8.3e-09
328.15	0.5019	2.36e-07	8.3e-09
328.15	0.6327	2.351e-07	8.3e-09
328.15	0.7143	2.102e-07	8.3e-09
328.15	0.8195	1.381e-07	8.1e-09
328.15	0.9146	8.36e-08	8e-09
328.15	1	0	1e-08
338.15	0	0	1e-08
338.15	0.0937	4.32e-08	7.9e-09
338.15	0.2087	9.56e-08	8e-09
338.15	0.3146	1.588e-07	8.1e-09
338.15	0.4175	2.047e-07	8.2e-09
338.15	0.5019	2.177e-07	8.3e-09
338.15	0.6327	2.241e-07	8.3e-09
338.15	0.7143	2.149e-07	8.3e-09
338.15	0.8195	1.317e-07	8.1e-09
338.15	0.9146	7.93e-08	8e-09
338.15	1	0	1e-08

System: hexan-1-ol + 2-octylisoquinolinium bis((trifluoromethyl)sulfonyl)amide; phases: Liquid
Fixed: Pressure, kPa = 101
Property: Viscosity, Pa*s (Liquid); method: Capillary tube (Ostwald; Ubbelohde) method
Temperature, K	Mole fraction of 2-octylisoquinolinium bis((trifluoromethyl)sulfonyl)amide	Viscosity, Pa*s	uncertainty
298.15	0	0.00448	3e-05
298.15	0.2087	0.01778	0.00019
298.15	0.3146	0.02818	0.00031
298.15	0.4175	0.04265	0.00047
298.15	0.5019	0.05856	0.00068
298.15	0.6327	0.0951	0.00158
298.15	0.7143	0.1369	0.00297
298.15	0.9146	0.28744	0.00939
298.15	1	0.36931	0.0135
308.15	0	0.00334	3e-05
308.15	0.2087	0.01164	0.00012
308.15	0.3146	0.01808	0.0002
308.15	0.4175	0.02662	0.00032
308.15	0.5019	0.03572	0.00045
308.15	0.6327	0.05609	0.00075
308.15	0.7143	0.07865	0.00127
308.15	0.9146	0.15331	0.00383
308.15	1	0.19097	0.00542
318.15	0	0.00254	2e-05
318.15	0.2087	0.00811	8e-05
318.15	0.3146	0.01237	0.00013
318.15	0.4175	0.01779	0.00019
318.15	0.5019	0.02349	0.00027
318.15	0.6327	0.03566	0.00044
318.15	0.7143	0.04899	0.00065
318.15	0.9146	0.08924	0.00157
318.15	1	0.10867	0.00219
328.15	0	0.00197	2e-05
328.15	0.2087	0.00588	6e-05
328.15	0.3146	0.00887	9e-05
328.15	0.4175	0.01259	0.00013
328.15	0.5019	0.01633	0.00017
328.15	0.6327	0.02414	0.00028
328.15	0.7143	0.03257	0.0004
328.15	0.9146	0.05619	0.00076
328.15	1	0.06788	0.001
338.15	0	0.00156	1e-05
338.15	0.2087	0.00444	4e-05
338.15	0.3146	0.00658	6e-05
338.15	0.4175	0.00924	9e-05
338.15	0.5019	0.01188	0.00012
338.15	0.6327	0.0172	0.00019
338.15	0.7143	0.02277	0.00028
338.15	0.9146	0.03754	0.00053
338.15	1	0.0448	0.00067

System: hexan-1-ol + 2-octylisoquinolinium bis((trifluoromethyl)sulfonyl)amide; phases: Liquid, Air at 1 atmosphere
Property: Surface tension liquid-gas, N/m (Liquid); method: Ring tensiometer
Temperature, K	Mole fraction of 2-octylisoquinolinium bis((trifluoromethyl)sulfonyl)amide	Surface tension liquid-gas, N/m	uncertainty
298.15	0	0.02555	0.00038
298.15	0.0908	0.0252	0.00037
298.15	0.2588	0.02613	0.00039
298.15	0.4052	0.02683	0.00041
298.15	0.5613	0.02864	0.00045
298.15	0.7071	0.03002	0.00048
298.15	0.8807	0.03145	0.00052
298.15	1	0.03187	0.00055
308.15	0	0.02468	0.00037
308.15	0.0908	0.02462	0.00037
308.15	0.2588	0.02508	0.00038
308.15	0.4052	0.02635	0.0004
308.15	0.5613	0.02801	0.00044
308.15	0.7071	0.02945	0.00047
308.15	0.8807	0.03076	0.00051
308.15	1	0.03093	0.00054
318.15	0	0.02359	0.00035
318.15	0.0908	0.02348	0.00035
318.15	0.2588	0.0244	0.00037
318.15	0.4052	0.02526	0.00039
318.15	0.5613	0.02692	0.00042
318.15	0.7071	0.02879	0.00046
318.15	0.8807	0.0296	0.0005
318.15	1	0.03026	0.00053

System: 2-phenylethanol + 2-octylisoquinolinium bis((trifluoromethyl)sulfonyl)amide; phases: Liquid
Fixed: Pressure, kPa = 101
Property: Mass density, kg/m3 (Liquid); method: Vibrating tube method
Temperature, K	Mole fraction of 2-octylisoquinolinium bis((trifluoromethyl)sulfonyl)amide	Mass density, kg/m3	uncertainty
298.15	0	1016.16	0.11
298.15	0.1044	1104.13	0.74
298.15	0.1924	1155.4	0.52
298.15	0.305	1203.04	0.45
298.15	0.4234	1239.45	0.5
298.15	0.5031	1258.7	0.56
298.15	0.6252	1282.52	0.74
298.15	0.6899	1293.02	0.85
298.15	0.8015	1308.69	1.08
298.15	0.9149	1322.04	1.36
298.15	1	1330.76	1.59
308.15	0	1008.61	0.11
308.15	0.1044	1096.33	0.74
308.15	0.1924	1147.42	0.52
308.15	0.305	1194.88	0.45
308.15	0.4234	1231.18	0.49
308.15	0.5031	1250.39	0.55
308.15	0.6252	1274.21	0.73
308.15	0.6899	1284.69	0.84
308.15	0.8015	1300.21	1.07
308.15	0.9149	1313.33	1.34
308.15	1	1322.03	1.57
318.15	0	1000.98	0.11
318.15	0.1044	1088.49	0.74
318.15	0.1924	1139.41	0.52
318.15	0.305	1186.73	0.45
318.15	0.4234	1222.93	0.48
318.15	0.5031	1242.08	0.54
318.15	0.6252	1265.91	0.72
318.15	0.6899	1276.34	0.83
318.15	0.8015	1291.84	1.05
318.15	0.9149	1305	1.32
318.15	1	1313.59	1.55
328.15	0	993.29	0.11
328.15	0.1044	1080.6	0.74
328.15	0.1924	1131.4	0.51
328.15	0.305	1178.58	0.44
328.15	0.4234	1214.68	0.48
328.15	0.5031	1233.74	0.54
328.15	0.6252	1257.63	0.71
328.15	0.6899	1268.02	0.82
328.15	0.8015	1283.49	1.04
328.15	0.9149	1296.64	1.3
328.15	1	1305.2	1.52
338.15	0	985.48	0.11
338.15	0.1044	1072.68	0.74
338.15	0.1924	1123.36	0.52
338.15	0.305	1170.44	0.44
338.15	0.4234	1206.45	0.47
338.15	0.5031	1225.4	0.53
338.15	0.6252	1249.25	0.7
338.15	0.6899	1259.71	0.8
338.15	0.8015	1275.16	1.03
338.15	0.9149	1288.29	1.29
338.15	1	1296.85	1.5

System: 2-phenylethanol + 2-octylisoquinolinium bis((trifluoromethyl)sulfonyl)amide; phases: Liquid
Fixed: Pressure, kPa = 101
Property: Excess molar volume, m3/mol (Liquid); method: Calculated with densities of this investigation
Temperature, K	Mole fraction of 2-octylisoquinolinium bis((trifluoromethyl)sulfonyl)amide	Excess molar volume, m3/mol	uncertainty
298.15	0	0	1e-08
298.15	0.1044	-1.611e-07	8.2e-09
298.15	0.1924	-2.34e-07	8.3e-09
298.15	0.305	-2.681e-07	8.4e-09
298.15	0.4234	-2.411e-07	8.3e-09
298.15	0.5031	-2.022e-07	8.2e-09
298.15	0.6252	-1.251e-07	8.1e-09
298.15	0.6899	-7.62e-08	7.9e-09
298.15	0.8015	-2.84e-08	7.8e-09
298.15	0.9149	2.6e-09	7.8e-09
298.15	1	0	1e-08
308.15	0	0	1e-08
308.15	0.1044	-1.812e-07	8.3e-09
308.15	0.1924	-2.606e-07	8.4e-09
308.15	0.305	-2.978e-07	8.4e-09
308.15	0.4234	-2.771e-07	8.4e-09
308.15	0.5031	-2.453e-07	8.3e-09
308.15	0.6252	-1.894e-07	8.2e-09
308.15	0.6899	-1.464e-07	8.1e-09
308.15	0.8015	-7.72e-08	8e-09
308.15	0.9149	4.1e-09	7.8e-09
308.15	1	0	1e-08
318.15	0	0	1e-08
318.15	0.1044	-1.96e-07	8.3e-09
318.15	0.1924	-2.746e-07	8.4e-09
318.15	0.305	-3.104e-07	8.5e-09
318.15	0.4234	-2.869e-07	8.4e-09
318.15	0.5031	-2.508e-07	8.3e-09
318.15	0.6252	-2.071e-07	8.2e-09
318.15	0.6899	-1.566e-07	8.1e-09
318.15	0.8015	-8.88e-08	8e-09
318.15	0.9149	-2.46e-08	7.8e-09
318.15	1	0	1e-08
328.15	0	0	1e-08
328.15	0.1044	-2.092e-07	8.4e-09
328.15	0.1924	-2.918e-07	8.4e-09
328.15	0.305	-3.233e-07	8.5e-09
328.15	0.4234	-2.94e-07	8.4e-09
328.15	0.5031	-2.452e-07	8.3e-09
328.15	0.6252	-2.222e-07	8.3e-09
328.15	0.6899	-1.651e-07	8.2e-09
328.15	0.8015	-9.39e-08	8e-09
328.15	0.9149	-3.04e-08	7.8e-09
328.15	1	0	1e-08
338.15	0	0	1e-08
338.15	0.1044	-2.309e-07	8.4e-09
338.15	0.1924	-3.148e-07	8.5e-09
338.15	0.305	-3.455e-07	8.5e-09
338.15	0.4234	-3.093e-07	8.5e-09
338.15	0.5031	-2.413e-07	8.3e-09
338.15	0.6252	-2.124e-07	8.2e-09
338.15	0.6899	-1.732e-07	8.2e-09
338.15	0.8015	-9.84e-08	8e-09
338.15	0.9149	-3e-08	7.8e-09
338.15	1	0	1e-08

System: 2-phenylethanol + 2-octylisoquinolinium bis((trifluoromethyl)sulfonyl)amide; phases: Liquid
Fixed: Pressure, kPa = 101
Property: Viscosity, Pa*s (Liquid); method: Capillary tube (Ostwald; Ubbelohde) method
Temperature, K	Mole fraction of 2-octylisoquinolinium bis((trifluoromethyl)sulfonyl)amide	Viscosity, Pa*s	uncertainty
298.15	0	0.0109	9e-05
298.15	0.1044	0.01861	0.00019
298.15	0.1924	0.0266	0.00027
298.15	0.305	0.04023	0.00044
298.15	0.4234	0.06064	0.00067
298.15	0.5031	0.07971	0.00112
298.15	0.6252	0.12684	0.00248
298.15	0.6899	0.15352	0.00349
298.15	0.8015	0.21895	0.00619
298.15	0.9149	0.30515	0.0102
298.15	1	0.36931	0.0135
308.15	0	0.00719	7e-05
308.15	0.1044	0.01209	0.00013
308.15	0.1924	0.01696	0.00019
308.15	0.305	0.025	0.00029
308.15	0.4234	0.03667	0.00045
308.15	0.5031	0.04731	0.00062
308.15	0.6252	0.07275	0.00108
308.15	0.6899	0.08669	0.00146
308.15	0.8015	0.11971	0.00254
308.15	0.9149	0.16187	0.00416
308.15	1	0.19097	0.00542
318.15	0	0.00498	5e-05
318.15	0.1044	0.00835	8e-05
318.15	0.1924	0.01153	0.00011
318.15	0.305	0.01664	0.00017
318.15	0.4234	0.02386	0.00026
318.15	0.5031	0.03033	0.00036
318.15	0.6252	0.04528	0.00057
318.15	0.6899	0.05323	0.00067
318.15	0.8015	0.07151	0.00106
318.15	0.9149	0.09379	0.0017
318.15	1	0.10867	0.00219
328.15	0	0.00364	3e-05
328.15	0.1044	0.00599	6e-05
328.15	0.1924	0.00823	8e-05
328.15	0.305	0.01176	0.00011
328.15	0.4234	0.01654	0.00017
328.15	0.5031	0.02059	0.00022
328.15	0.6252	0.03017	0.00035
328.15	0.6899	0.03503	0.00042
328.15	0.8015	0.04588	0.00059
328.15	0.9149	0.05853	0.0008
328.15	1	0.06788	0.001
338.15	0	0.00277	2e-05
338.15	0.1044	0.00445	4e-05
338.15	0.1924	0.00609	6e-05
338.15	0.305	0.00867	8e-05
338.15	0.4234	0.01201	0.00012
338.15	0.5031	0.01479	0.00016
338.15	0.6252	0.0212	0.00025
338.15	0.6899	0.02437	0.0003
338.15	0.8015	0.03117	0.00041
338.15	0.9149	0.03905	0.00056
338.15	1	0.0448	0.00067
