Measured thermophysical data. Standard enthalpy of formation of lithium diphosphate
Source: J. Chem. Thermodyn., 2013, 10.1016/j.jct.2013.03.009
Compound 1: lithium, Li, InChI=1S/Li
Compound 2: phosphorus, P, InChI=1S/P
Compound 3: oxygen, O2, InChI=1S/O2/c1-2
Compound 4: water, H2O, InChI=1S/H2O/h1H2, purity 99.8%
Compound 5: phosphoric acid, H3O4P, InChI=1S/H3O4P/c1-5(2,3)4/h(H3,1,2,3,4)
Compound 6: sodium chloride, ClNa, InChI=1S/ClH.Na/h1H;/q;+1/p-1
Compound 7: sodium diphosphate, Na4O7P2, InChI=1S/4Na.H4O7P2/c;;;;1-8(2,3)7-9(4,5)6/h;;;;(H2,1,2,3)(H2,4,5,6)/q4*+1;/p-4
Compound 8: lithium chloride, ClLi, InChI=1S/ClH.Li/h1H;/q;+1/p-1
Compound 9: lithium diphosphate, Li4O7P2, InChI=1S/4Li.H4O7P2/c;;;;1-8(2,3)7-9(4,5)6/h;;;;(H2,1,2,3)(H2,4,5,6)/q4*+1;/p-4, purity 98%
Compound 10: lithium phosphate, Li3O4P, InChI=1S/3Li.H3O4P/c;;;1-5(2,3)4/h;;;(H3,1,2,3,4)/q3*+1;/p-3

System: phosphoric acid + water + lithium diphosphate; phases: Liquid
Property: Molar enthalpy of solution, kJ/mol (Liquid); method: Calvet calorimetry
Solvent: Mass fraction of phosphoric acid	Pressure, kPa	Temperature, K	Mole fraction of lithium diphosphate	Molar enthalpy of solution, kJ/mol	uncertainty
0.0385	101	298	0	-60.9	1.5

System: sodium chloride + phosphoric acid + water; phases: Liquid
Property: Molar enthalpy of solution, kJ/mol (Liquid); method: Calvet calorimetry
Solvent: Mass fraction of phosphoric acid	Pressure, kPa	Temperature, K	Mole fraction of sodium chloride	Molar enthalpy of solution, kJ/mol	uncertainty
0.0385	101	298	0	4.3	1.2

System: phosphoric acid + sodium diphosphate + water; phases: Liquid
Property: Molar enthalpy of solution, kJ/mol (Liquid); method: Calvet calorimetry
Solvent: Mass fraction of phosphoric acid	Pressure, kPa	Temperature, K	Mole fraction of sodium diphosphate	Molar enthalpy of solution, kJ/mol	uncertainty
0.0385	101	298	0	39.9	1.4

System: lithium chloride + phosphoric acid + water; phases: Liquid
Property: Molar enthalpy of solution, kJ/mol (Liquid); method: Calvet calorimetry
Solvent: Mass fraction of phosphoric acid	Pressure, kPa	Temperature, K	Mole fraction of lithium chloride	Molar enthalpy of solution, kJ/mol	uncertainty
0.0385	101	298	0	-7.9	4

System: phosphoric acid + water + lithium phosphate; phases: Liquid
Property: Molar enthalpy of solution, kJ/mol (Liquid); method: Calvet calorimetry
Solvent: Mass fraction of phosphoric acid	Pressure, kPa	Temperature, K	Mole fraction of lithium phosphate	Molar enthalpy of solution, kJ/mol	uncertainty
0.077	101	298	0	-53.6	1.3

System: phosphoric acid + water; phases: Liquid
Property: Molar enthalpy of solution, kJ/mol (Liquid); method: Calvet calorimetry
Mole fraction of phosphoric acid	Temperature, K	Pressure, kPa	Molar enthalpy of solution, kJ/mol	uncertainty
0	298	101	-10.8	0.5

Reaction: -4 lithium + -2 phosphorus + 1 lithium diphosphate + -3.5 oxygen
Property: Molar enthalpy of reaction, kJ/mol
-3383.4
