Measured thermophysical data. Isobaric specific heat capacity of {xCH3OH + (1-x)H2O} with x = (1.0000, 0.7943, 0.4949, 0.2606, 0.1936, 0.1010, and 0.0496) at T = (280, 320, and 360) K in the pressure range from (0.1 to 15) MPa
Source: J. Chem. Thermodyn., 2007, 10.1016/j.jct.2006.11.001
Compound 1: water, H2O, InChI=1S/H2O/h1H2
Compound 2: methanol, CH4O, InChI=1S/CH4O/c1-2/h2H,1H3

System: methanol; phases: Liquid
Property: Molar heat capacity at constant pressure, J/K/mol (Liquid); method: thermal relaxation method
Temperature, K	Pressure, kPa	Molar heat capacity at constant pressure, J/K/mol	uncertainty
280	100	77.2208826	3.2038655814
280	1000	74.0166966	3.2038655814
280	5000	73.696278	5.7675348
320	100	87.1538592	1.278470214
320	1000	85.8721848	3.2038655814
320	5000	84.2700918	2.560144614
360	1000	97.4072544	1.919307414
360	5000	94.2030684	1.919307414
360	10000	94.523487	2.560144614
360	15000	97.0868358	3.8450232

System: methanol + water; phases: Liquid
Property: Molar heat capacity at constant pressure, J/K/mol (Liquid); method: thermal relaxation method
Pressure, kPa	Temperature, K	Mole fraction of methanol	Molar heat capacity at constant pressure, J/K/mol	uncertainty
100	280	0.0496	81.206	1.5
100	280	0.101	82.78	1.55
100	280	0.1936	82.716	1.66
100	280	0.2606	82.565	1.73
100	280	0.4949	79.363	2
100	280	0.7943	77.848	2.33
100	320	0.0496	80.27	0.75
100	320	0.101	84.529	0.78
100	320	0.1936	87.899	0.83
100	320	0.2606	89.5	0.87
100	320	0.4949	89.346	1
100	320	0.7943	89.219	1.17
1000	280	0.0496	81.393	1.5
1000	280	0.101	83.752	1.55
1000	280	0.1936	84.996	2.073
1000	280	0.2606	85.382	2.167
1000	280	0.4949	82.109	2.496
1000	280	0.7943	80.764	2.916
1000	320	0.0496	79.522	2.245
1000	320	0.101	83.752	2.332
1000	320	0.1936	88.521	2.488
1000	320	0.2606	89.716	2.6
1000	320	0.4949	89.097	2.995
1000	320	0.7943	87.761	2.916
1000	360	0.0496	81.019	1.12
1000	360	0.101	84.723	1.17
1000	360	0.1936	90.801	1.24
1000	360	0.2606	92.75	1.3
1000	360	0.4949	94.338	1.5
1000	360	0.7943	94.467	1.75
5000	280	0.0496	82.141	4.116
5000	280	0.101	83.946	4.275
5000	280	0.1936	85.204	4.146
5000	280	0.2606	84.515	4.334
5000	280	0.4949	79.613	4.991
5000	280	0.7943	76.973	5.831
5000	320	0.0496	81.954	1.871
5000	320	0.101	85.501	1.943
5000	320	0.1936	89.764	2.073
5000	320	0.2606	91.667	2.167
5000	320	0.4949	88.597	2.496
5000	320	0.7943	87.761	2.916
5000	360	0.0496	80.832	1.12
5000	360	0.101	84.529	1.17
5000	360	0.1936	90.594	1.24
5000	360	0.2606	92.967	1.3
5000	360	0.4949	93.589	1.5
5000	360	0.7943	94.467	1.75
10000	360	0.0496	82.516	1.12
10000	360	0.101	86.278	1.17
10000	360	0.1936	92.874	1.24
10000	360	0.2606	95.351	1.3
10000	360	0.4949	95.086	1.5
10000	360	0.7943	95.925	1.75
15000	360	0.0496	82.516	2.245
15000	360	0.101	86.667	2.332
15000	360	0.1936	92.252	2.488
15000	360	0.2606	95.567	2.6
15000	360	0.4949	95.585	2.995
15000	360	0.7943	95.634	3.499
