Measured thermophysical data. High pressure solubility data of carbon dioxide in  (tri-iso-butyl(methyl)phosphonium tosylate + water) systems
Source: J. Chem. Thermodyn., 2008, 10.1016/j.jct.2008.04.012
Compound 1: water, H2O, InChI=1S/H2O/h1H2
Compound 2: triisobutylmethylphosphonium p-toluenesulfonate, C20H37O3PS, InChI=1S/C13H30P.C7H8O3S/c1-11(2)8-14(7,9-12(3)4)10-13(5)6;1-6-2-4-7(5-3-6)11(8,9)10/h11-13H,8-10H2,1-7H3;2-5H,1H3,(H,8,9,10)/q+1;/p-1, purity 98%
Compound 3: carbon dioxide, CO2, InChI=1S/CO2/c2-1-3, purity 99.995%

System: water + triisobutylmethylphosphonium p-toluenesulfonate; phases: Liquid
Fixed: Temperature, K = 293.15
Fixed: Pressure, kPa = 101
Property: Viscosity, Pa*s (Liquid); method: CONPLT:UFactor:8
Mass fraction of triisobutylmethylphosphonium p-toluenesulfonate	Viscosity, Pa*s	uncertainty
0.125	0.00165	0.00018
0.25	0.0026	0.0002
0.375	0.004	0.0004
0.5	0.0069	0.0007
0.625	0.0116	0.0011
0.75	0.023	0.0017
0.872	0.068	0.005
1	1.32	0.71

System: carbon dioxide + water + triisobutylmethylphosphonium p-toluenesulfonate; phases: Liquid, Gas
Property: Vapor or sublimation pressure, kPa (Liquid); method: CCELL:UFactor:32
Temperature, K	Solvent: Mole fraction of triisobutylmethylphosphonium p-toluenesulfonate	Mole fraction of carbon dioxide	Vapor or sublimation pressure, kPa	uncertainty
288.4	0.04	0.0303	4500	600
289.05	0.04	0.0303	4500	600
291.6	0.04	0.0303	4700	600
295.15	0.04	0.0303	5400	600
314.85	0.04	0.0303	6500	700
324.45	0.04	0.0303	6700	700
329.95	0.04	0.0303	7500	800
349.45	0.04	0.0303	8500	900
369.32	0.04	0.0303	10400	1000
288.4	0.04	0.0501	69800	6900
289.05	0.04	0.0501	66000	6500
291.6	0.04	0.0501	61400	6100
295.15	0.04	0.0501	53500	5300
314.85	0.04	0.0501	27500	2700
324.45	0.04	0.0501	21500	2100
329.95	0.04	0.0501	19200	1900
349.45	0.04	0.0501	17300	1700
369.32	0.04	0.0501	17500	1700
349.45	0.04	0.0801	93800	9300
369.32	0.04	0.0801	57000	5700
288.22	0.08	0.0316	2800	500
295.45	0.08	0.0316	3600	500
314.15	0.08	0.0316	4100	500
332.63	0.08	0.0316	5200	600
351.77	0.08	0.0316	6100	700
369.49	0.08	0.0316	6400	700
288.22	0.08	0.05	5700	700
295.45	0.08	0.05	5900	700
314.15	0.08	0.05	7800	800
332.63	0.08	0.05	10000	1000
351.77	0.08	0.05	10200	1000
369.49	0.08	0.05	11200	1100
288.22	0.08	0.0806	39200	3900
295.45	0.08	0.0806	27800	2800
314.15	0.08	0.0806	14200	1400
332.63	0.08	0.0806	14200	1400
351.77	0.08	0.0806	15200	1500
369.49	0.08	0.0806	15200	1500
314.15	0.08	0.1028	56400	5600
332.63	0.08	0.1028	33500	3300
351.77	0.08	0.1028	26100	2600
369.49	0.08	0.1028	24100	2400
332.63	0.08	0.1231	76100	7500
351.77	0.08	0.1231	46500	4600
369.49	0.08	0.1231	36200	3600
276.85	0.12	0.0301	800	400
280.65	0.12	0.0301	1200	400
282.65	0.12	0.0301	1300	400
285.15	0.12	0.0301	1500	400
287.7	0.12	0.0301	1700	400
291.45	0.12	0.0301	2000	400
293.6	0.12	0.0301	2100	400
312.55	0.12	0.0301	3100	500
322.62	0.12	0.0301	3500	500
331.87	0.12	0.0301	3800	500
351.45	0.12	0.0301	4300	600
369.32	0.12	0.0301	5400	600
276.85	0.12	0.0503	4000	500
280.65	0.12	0.0503	4100	500
282.65	0.12	0.0503	4100	500
285.15	0.12	0.0503	4200	600
287.7	0.12	0.0503	4300	600
291.45	0.12	0.0503	4400	600
293.6	0.12	0.0503	4800	600
312.55	0.12	0.0503	4800	600
322.62	0.12	0.0503	5500	600
331.87	0.12	0.0503	5700	700
351.45	0.12	0.0503	7200	800
369.32	0.12	0.0503	8000	800
276.85	0.12	0.0801	8200	800
280.65	0.12	0.0801	8400	900
282.65	0.12	0.0801	8500	900
285.15	0.12	0.0801	8700	900
287.7	0.12	0.0801	8800	900
291.45	0.12	0.0801	9000	900
293.6	0.12	0.0801	9100	900
312.55	0.12	0.0801	10200	1000
322.62	0.12	0.0801	11100	1100
331.87	0.12	0.0801	12000	1200
351.45	0.12	0.0801	13300	1300
369.32	0.12	0.0801	14800	1500
276.85	0.12	0.1015	35100	3500
280.65	0.12	0.1015	26300	2600
282.65	0.12	0.1015	22700	2300
285.15	0.12	0.1015	21300	2100
287.7	0.12	0.1015	18000	1800
291.45	0.12	0.1015	13300	1300
293.6	0.12	0.1015	12100	1200
312.55	0.12	0.1015	10900	1100
322.62	0.12	0.1015	9500	1000
331.87	0.12	0.1015	13900	1400
351.45	0.12	0.1015	14400	1400
369.32	0.12	0.1015	15500	1500
276.85	0.12	0.12	99700	9900
280.65	0.12	0.12	84700	8400
282.65	0.12	0.12	77500	7700
285.15	0.12	0.12	75400	7500
287.7	0.12	0.12	59100	5900
291.45	0.12	0.12	51800	5100
293.6	0.12	0.12	45100	4500
312.55	0.12	0.12	23600	2300
322.62	0.12	0.12	20200	2000
331.87	0.12	0.12	18700	1900
351.45	0.12	0.12	17900	1800
369.32	0.12	0.12	18500	1800
312.55	0.12	0.1404	57600	5700
322.62	0.12	0.1404	43700	4300
331.87	0.12	0.1404	34400	3400
351.45	0.12	0.1404	28100	2800
369.32	0.12	0.1404	26200	2600

System: carbon dioxide + water + triisobutylmethylphosphonium p-toluenesulfonate; phases: Liquid mixture 1, Liquid mixture 2, Gas
Property: Triple point temperature, K (Liquid mixture 1); method: VISOBS
Pressure, kPa	Solvent: Mole fraction of triisobutylmethylphosphonium p-toluenesulfonate	Triple point temperature, K	uncertainty
4100	0.12	279.45	2.25
5100	0.12	285.05	3.23
5300	0.12	288.95	3.18
5900	0.12	293.45	3.09
6400	0.12	297.45	2.72
7200	0.12	302.35	2.67
4500	0.12	282.35	1.81
4500	0.12	283.65	0.95
5200	0.12	286.15	3.18
5200	0.12	287.85	3.18
5500	0.12	290.75	3.07
6000	0.12	293.65	2.78
6600	0.12	298.35	2.91
4100	0.08	280.65	3.46
4300	0.08	281.65	4.88
4700	0.08	286.35	5.52
5000	0.08	290.25	3.29
5200	0.08	295.25	2.81
4000	0.08	278.65	3.58
4500	0.08	283.45	4.64
5200	0.08	288.95	2.81
5900	0.08	294.95	0.87
4000	0.08	279.15	3.45
4600	0.08	284.45	5.56
5700	0.08	293.35	1.14
6500	0.08	298.25	2.5
7200	0.08	303.55	2.76
3900	0.04	278.85	3.47
4500	0.04	284.05	3.43
4900	0.04	288.05	3.5
5300	0.04	293.25	3.53
6100	0.04	298.15	4.62
6500	0.04	306.15	2.48
6800	0.04	307.35	2.52
3900	0.04	278.75	3.54
3900	0.04	279.25	3.21
4500	0.04	284.15	3.43
5000	0.04	288.25	3.5
5600	0.04	293.65	3.61
6200	0.04	297.15	4.57
7500	0.04	305.65	0.99
