Measured thermophysical data. Standard thermodynamic properties of Bi2O3 by a solid-oxide electrolyte EMF technique
Source: J. Chem. Thermodyn., 2014, 10.1016/j.jct.2014.04.002
Compound 1: bismuth oxide, Bi2O3, InChI=1S/2Bi.3O/q2*+3;3*-2, purity 99.997%
Compound 2: oxygen, O2, InChI=1S/O2/c1-2, purity 99.95%
Compound 3: bismuth, Bi, InChI=1S/Bi, purity 99.99%

Reaction: 1 bismuth oxide + -2 bismuth + -1.5 oxygen
Property: Molar enthalpy of reaction, kJ/mol
-567.31

Reaction: 1 bismuth oxide + -2 bismuth + -1.5 oxygen
Property: Molar Gibbs energy of reaction, kJ/mol
-280.01
-294.53
-287.31
-272.86

Reaction: 1 bismuth oxide + -2 bismuth + -1.5 oxygen
Property: Molar Gibbs energy of reaction, kJ/mol
-265.69
-258.38
-244.31
-230.31
