Measured thermophysical data. Excess molar volumes and partial molar volumes for (propionitrile + an alkanol) at T = 298.15 K and p = 0.1 MPa
Source: J. Chem. Thermodyn., 2006, 10.1016/j.jct.2005.05.007
Compound 1: propanenitrile, C3H5N, InChI=1S/C3H5N/c1-2-3-4/h2H2,1H3, purity 99%
Compound 2: methanol, CH4O, InChI=1S/CH4O/c1-2/h2H,1H3, purity 99%
Compound 3: ethanol, C2H6O, InChI=1S/C2H6O/c1-2-3/h3H,2H2,1H3, purity 99%
Compound 4: propan-1-ol, C3H8O, InChI=1S/C3H8O/c1-2-3-4/h4H,2-3H2,1H3, purity 99%
Compound 5: propan-2-ol, C3H8O, InChI=1S/C3H8O/c1-3(2)4/h3-4H,1-2H3, purity 99%
Compound 6: butan-1-ol, C4H10O, InChI=1S/C4H10O/c1-2-3-4-5/h5H,2-4H2,1H3, purity 99%
Compound 7: pentan-1-ol, C5H12O, InChI=1S/C5H12O/c1-2-3-4-5-6/h6H,2-5H2,1H3, purity 98%

System: propanenitrile; phases: Liquid
Property: Refractive index (Na D-line) (Liquid); method: Standard Abbe refractometry
Temperature, K	Pressure, kPa	Refractive index (Na D-line)	uncertainty
298.15	101.325	1.3633	0.0008

System: propanenitrile; phases: Liquid
Property: Mass density, kg/m3 (Liquid); method: Vibrating tube method
Temperature, K	Pressure, kPa	Mass density, kg/m3	uncertainty
298.15	101.325	776.8	0.4

System: methanol; phases: Liquid
Property: Refractive index (Na D-line) (Liquid); method: Standard Abbe refractometry
Temperature, K	Pressure, kPa	Refractive index (Na D-line)	uncertainty
298.15	101.325	1.3265	0.0008

System: methanol; phases: Liquid
Property: Mass density, kg/m3 (Liquid); method: Vibrating tube method
Temperature, K	Pressure, kPa	Mass density, kg/m3	uncertainty
298.15	101.325	786.6	0.4

System: ethanol; phases: Liquid
Property: Refractive index (Na D-line) (Liquid); method: Standard Abbe refractometry
Temperature, K	Pressure, kPa	Refractive index (Na D-line)	uncertainty
298.15	101.325	1.3593	0.0008

System: ethanol; phases: Liquid
Property: Mass density, kg/m3 (Liquid); method: Vibrating tube method
Temperature, K	Pressure, kPa	Mass density, kg/m3	uncertainty
298.15	101.325	785.1	0.4

System: propan-1-ol; phases: Liquid
Property: Refractive index (Na D-line) (Liquid); method: Standard Abbe refractometry
Temperature, K	Pressure, kPa	Refractive index (Na D-line)	uncertainty
298.15	101.325	1.3834	0.0008

System: propan-1-ol; phases: Liquid
Property: Mass density, kg/m3 (Liquid); method: Vibrating tube method
Temperature, K	Pressure, kPa	Mass density, kg/m3	uncertainty
298.15	101.325	799.6	0.4

System: propan-2-ol; phases: Liquid
Property: Refractive index (Na D-line) (Liquid); method: Standard Abbe refractometry
Temperature, K	Pressure, kPa	Refractive index (Na D-line)	uncertainty
298.15	101.325	1.3748	0.0008

System: propan-2-ol; phases: Liquid
Property: Mass density, kg/m3 (Liquid); method: Vibrating tube method
Temperature, K	Pressure, kPa	Mass density, kg/m3	uncertainty
298.15	101.325	780.9	0.4

System: butan-1-ol; phases: Liquid
Property: Refractive index (Na D-line) (Liquid); method: Standard Abbe refractometry
Temperature, K	Pressure, kPa	Refractive index (Na D-line)	uncertainty
298.15	101.325	1.397	0.0008

System: butan-1-ol; phases: Liquid
Property: Mass density, kg/m3 (Liquid); method: Vibrating tube method
Temperature, K	Pressure, kPa	Mass density, kg/m3	uncertainty
298.15	101.325	805.8	0.8

System: pentan-1-ol; phases: Liquid
Property: Refractive index (Na D-line) (Liquid); method: Standard Abbe refractometry
Temperature, K	Pressure, kPa	Refractive index (Na D-line)	uncertainty
298.15	101.325	1.4078	0.0008

System: pentan-1-ol; phases: Liquid
Property: Mass density, kg/m3 (Liquid); method: Vibrating tube method
Temperature, K	Pressure, kPa	Mass density, kg/m3	uncertainty
298.15	101.325	810.8	0.8

System: methanol + propanenitrile; phases: Liquid
Fixed: Pressure, kPa = 101
Fixed: Temperature, K = 298.15
Property: Mass density, kg/m3 (Liquid); method: Vibrating tube method
Mole fraction of methanol	Mass density, kg/m3	uncertainty
0.0822	777.3	0.4
0.1672	777.9	0.4
0.2338	778.4	0.4
0.2992	779	0.4
0.3634	779.7	0.4
0.4258	780.3	0.4
0.4879	781	0.4
0.5403	781.6	0.4
0.5844	782.1	0.4
0.6226	782.6	0.4
0.6752	783.3	0.4
0.7183	783.8	0.4
0.763	784.4	0.4
0.7996	784.8	0.4
0.8366	785.3	0.4
0.8743	785.8	0.4
0.9088	786.1	0.4
0.9384	786.3	0.4
0.9696	786.5	0.4

System: ethanol + propanenitrile; phases: Liquid
Fixed: Pressure, kPa = 101
Fixed: Temperature, K = 298.15
Property: Mass density, kg/m3 (Liquid); method: Vibrating tube method
Mole fraction of ethanol	Mass density, kg/m3	uncertainty
0.0627	776.8	0.4
0.129	777	0.4
0.1754	777.2	0.4
0.2486	777.6	0.4
0.2872	777.9	0.4
0.3419	778.4	0.4
0.3978	778.9	0.4
0.4563	779.5	0.4
0.5001	780	0.4
0.5577	780.6	0.4
0.6025	781.1	0.4
0.6433	781.6	0.4
0.6925	782.2	0.4
0.7416	782.7	0.4
0.7823	783.2	0.4
0.8218	783.6	0.4
0.8737	784.2	0.4
0.9146	784.6	0.4
0.9565	784.9	0.4

System: propan-1-ol + propanenitrile; phases: Liquid
Fixed: Pressure, kPa = 101
Fixed: Temperature, K = 298.15
Property: Mass density, kg/m3 (Liquid); method: Vibrating tube method
Mole fraction of propan-1-ol	Mass density, kg/m3	uncertainty
0.0465	777.6	0.4
0.0955	778.5	0.4
0.143	779.4	0.4
0.1882	780.3	0.4
0.2387	781.4	0.4
0.2837	782.4	0.4
0.3347	783.6	0.4
0.3775	784.6	0.4
0.4341	786	0.4
0.4827	787.2	0.4
0.5841	789.7	0.4
0.6371	791	0.4
0.7389	793.5	0.4
0.7795	794.5	0.4
0.8329	795.8	0.4
0.8919	797.2	0.4
0.9355	798.2	0.4

System: propan-2-ol + propanenitrile; phases: Liquid
Fixed: Pressure, kPa = 101
Fixed: Temperature, K = 298.15
Property: Mass density, kg/m3 (Liquid); method: Vibrating tube method
Mole fraction of propan-2-ol	Mass density, kg/m3	uncertainty
0.0579	776.1	0.4
0.0955	775.8	0.4
0.1396	775.5	0.4
0.183	775.4	0.4
0.2321	775.3	0.4
0.2775	775.4	0.4
0.3274	775.5	0.4
0.3784	775.6	0.4
0.4249	775.8	0.4
0.4768	776	0.4
0.5385	776.4	0.4
0.5752	776.6	0.4
0.6307	777	0.4
0.6763	777.4	0.4
0.7286	777.9	0.4
0.7788	778.4	0.4
0.8384	779.1	0.4
0.8929	779.7	0.4
0.9416	780.2	0.4

System: butan-1-ol + propanenitrile; phases: Liquid
Fixed: Pressure, kPa = 101
Fixed: Temperature, K = 298.15
Property: Mass density, kg/m3 (Liquid); method: Vibrating tube method
Mole fraction of butan-1-ol	Mass density, kg/m3	uncertainty
0.0391	778	0.4
0.1177	780.4	0.4
0.1625	781.8	0.4
0.1984	782.9	0.4
0.2481	784.4	0.4
0.3398	787.4	0.4
0.385	788.7	0.4
0.4364	790.2	0.4
0.4813	791.6	0.4
0.539	793.3	0.4
0.5821	794.6	0.4
0.6363	796.2	0.4
0.7036	798.1	0.4
0.7441	799.2	0.4
0.8103	801	0.4
0.8795	802.8	0.4
0.9334	804.1	0.4

System: pentan-1-ol + propanenitrile; phases: Liquid
Fixed: Pressure, kPa = 101
Fixed: Temperature, K = 298.15
Property: Mass density, kg/m3 (Liquid); method: Vibrating tube method
Mole fraction of pentan-1-ol	Mass density, kg/m3	uncertainty
0.0353	778.3	0.4
0.0649	779.6	0.5
0.1026	781.1	0.5
0.1379	782.6	0.5
0.1786	784.2	0.5
0.2164	785.7	0.5
0.2613	787.5	0.5
0.3031	789.1	0.5
0.3464	790.7	0.6
0.3917	792.4	0.6
0.4396	794.1	0.6
0.489	795.8	0.6
0.5444	797.7	0.6
0.6012	799.5	0.7
0.6547	801.2	0.7
0.7186	803.2	0.7
0.7788	804.9	0.7
0.8488	806.9	0.8
0.9162	808.7	0.8
