Measured thermophysical data. Sync-measurement experimental study of (fluoroethane + dimethylether tetraethylene glycol), (fluoroethane + dimethylether triethylene glycol) and (fluoroethane + dimethylether diethylene glycol) systems
Source: J. Chem. Thermodyn., 2016, 10.1016/j.jct.2016.03.015
Compound 1: 2,5,8,11,14-pentaoxapentadecane, C10H22O5, InChI=1S/C10H22O5/c1-11-3-5-13-7-9-15-10-8-14-6-4-12-2/h3-10H2,1-2H3, purity 99.9%
Compound 2: fluoroethane, C2H5F, InChI=1S/C2H5F/c1-2-3/h2H2,1H3, purity 99.95%
Compound 3: 2,5,8,11-tetraoxadodecane, C8H18O4, InChI=1S/C8H18O4/c1-9-3-5-11-7-8-12-6-4-10-2/h3-8H2,1-2H3, purity 99.9%
Compound 4: 2,5,8-trioxanonane, C6H14O3, InChI=1S/C6H14O3/c1-7-3-5-9-6-4-8-2/h3-6H2,1-2H3, purity 99.9%
Compound 5: carbon dioxide, CO2, InChI=1S/CO2/c2-1-3, purity 99.999%
Compound 6: 2-aminoethan-1-ol, C2H7NO, InChI=1S/C2H7NO/c3-1-2-4/h4H,1-3H2, purity 99.9%
Compound 7: water, H2O, InChI=1S/H2O/h1H2, purity 99.8%

System: 2,5,8,11,14-pentaoxapentadecane + fluoroethane; phases: Liquid, Gas
Fixed: Temperature, K = 303.15
Property: Mole fraction of fluoroethane (Liquid); method: volumetric method
Pressure, kPa	Mole fraction of fluoroethane	uncertainty
15.6	0.076	0.018
44	0.134	0.022
76.6	0.192	0.012
124.9	0.267	0.018
163.9	0.321	0.014
195.1	0.361	0.016
228.3	0.401	0.014
254.4	0.431	0.014
282.6	0.462	0.01
320.7	0.502	0.012
380.5	0.561	0.014
426.8	0.607	0.012
491.6	0.661	0.01
564.2	0.721	0.022
600.1	0.744	0.01

System: 2,5,8,11,14-pentaoxapentadecane + fluoroethane; phases: Liquid
Fixed: Temperature, K = 303.15
Property: Molar enthalpy of solution, kJ/mol (Liquid); method: Calvet calorimetry
Pressure, kPa	Mole fraction of fluoroethane	Molar enthalpy of solution, kJ/mol	uncertainty
15.6	0.076	-21.68	1.49
44	0.134	-21.39	1.47
76.6	0.192	-21.87	1.49
124.9	0.267	-21.74	1.49
163.9	0.321	-21.86	1.49
195.1	0.361	-21.7	1.49
228.3	0.401	-21.82	1.49
254.4	0.431	-21.63	1.49
282.6	0.462	-21.56	1.47
320.7	0.502	-21.46	1.47
380.5	0.561	-21.03	1.43
426.8	0.607	-20.29	1.39
491.6	0.661	-19.33	1.33
564.2	0.721	-17.74	1.21
600.1	0.744	-16.29	1.11

System: 2,5,8,11-tetraoxadodecane + fluoroethane; phases: Liquid, Gas
Fixed: Temperature, K = 303.15
Property: Mole fraction of fluoroethane (Liquid); method: volumetric method
Pressure, kPa	Mole fraction of fluoroethane	uncertainty
57.5	0.092	0.024
101	0.168	0.02
144.2	0.234	0.02
195.6	0.304	0.018
237.5	0.356	0.012
280.7	0.406	0.014
312.8	0.441	0.014
341.4	0.471	0.012
373	0.503	0.012
413.2	0.542	0.012
477.4	0.584	0.014
526.8	0.644	0.018
572.2	0.682	0.016
595.6	0.701	0.018
639.7	0.736	0.014

System: 2,5,8,11-tetraoxadodecane + fluoroethane; phases: Liquid
Fixed: Temperature, K = 303.15
Property: Molar enthalpy of solution, kJ/mol (Liquid); method: Calvet calorimetry
Pressure, kPa	Mole fraction of fluoroethane	Molar enthalpy of solution, kJ/mol	uncertainty
57.5	0.092	-16.17	1.07
101	0.168	-16.45	1.09
144.2	0.234	-16.32	1.07
195.6	0.304	-16.28	1.07
237.5	0.356	-16.27	1.07
280.7	0.406	-16.24	1.07
312.8	0.441	-16.24	1.07
341.4	0.471	-16.19	1.07
373	0.503	-16.13	1.05
413.2	0.542	-15.85	1.05
477.4	0.584	-15.33	1.01
526.8	0.644	-14.36	0.95
572.2	0.682	-13.23	0.87
595.6	0.701	-12.12	0.78
639.7	0.736	-10.95	0.72

System: 2,5,8-trioxanonane + fluoroethane; phases: Liquid, Gas
Fixed: Temperature, K = 303.15
Property: Mole fraction of fluoroethane (Liquid); method: volumetric method
Pressure, kPa	Mole fraction of fluoroethane	uncertainty
62.6	0.081	0.022
112.9	0.156	0.022
168.9	0.228	0.018
210.9	0.281	0.016
237	0.322	0.016
287.8	0.366	0.016
311.9	0.392	0.016
343	0.423	0.012
372.8	0.466	0.012
415.4	0.498	0.014
438.8	0.526	0.012
496.9	0.579	0.016
547.2	0.621	0.012
588.5	0.675	0.008
701.7	0.742	0.014

System: 2,5,8-trioxanonane + fluoroethane; phases: Liquid
Fixed: Temperature, K = 303.15
Property: Molar enthalpy of solution, kJ/mol (Liquid); method: Calvet calorimetry
Pressure, kPa	Mole fraction of fluoroethane	Molar enthalpy of solution, kJ/mol	uncertainty
62.6	0.081	-11.96	0.84
112.9	0.156	-11.91	0.84
168.9	0.228	-12.02	0.84
210.9	0.281	-12.03	0.84
237	0.322	-12.07	0.84
287.8	0.366	-12.01	0.84
311.9	0.392	-12.01	0.84
343	0.423	-11.98	0.84
372.8	0.466	-11.9	0.84
415.4	0.498	-11.78	0.82
438.8	0.526	-11.54	0.8
496.9	0.579	-11.08	0.78
547.2	0.621	-10.45	0.74
588.5	0.675	-9.65	0.68
701.7	0.742	-8.59	0.6

System: carbon dioxide + 2-aminoethan-1-ol + water; phases: Liquid
Fixed: Solvent: Mass fraction of 2-aminoethan-1-ol = 0.3
Fixed: Temperature, K = 313.15
Property: Molar enthalpy of solution, kJ/mol (Liquid); method: Calvet calorimetry
Pressure, kPa	Mole fraction of carbon dioxide	Molar enthalpy of solution, kJ/mol	uncertainty
6.3	0.0348	-84.85	4.6
6.5	0.0405	-84.51	4.6
7.5	0.0466	-84.41	4.58
10	0.0518	-84.29	4.58
36	0.0568	-82.64	4.5
111.2	0.0616	-77.48	4.22
162	0.0662	-72.1	3.92

System: carbon dioxide + 2-aminoethan-1-ol + water; phases: Liquid, Gas
Fixed: Temperature, K = 313.15
Fixed: Solvent: Mass fraction of 2-aminoethan-1-ol = 0.3
Property: Mole fraction of carbon dioxide (Liquid); method: volumetric method
Pressure, kPa	Mole fraction of carbon dioxide	uncertainty
6.3	0.0348	0.0014
6.5	0.0405	0.0012
7.5	0.0466	0.0016
10	0.0518	0.0014
36	0.0568	0.0018
111.2	0.0616	0.0014
162	0.0662	0.0012
