Measured thermophysical data. Lattice potential energy and thermochemical properties of ethylenediamine dihydrochloride (C2H10N2Cl2)
Source: J. Chem. Thermodyn., 2010, 10.1016/j.jct.2009.11.007
Compound 1: ethanediamine dihydrochloride, C2H10Cl2N2, InChI=1S/C2H8N2.2ClH/c3-1-2-4;;/h1-4H2;2*1H
Compound 2: water, H2O, InChI=1S/H2O/h1H2, purity 99.9%

System: ethanediamine dihydrochloride + water; phases: Liquid
Fixed: Pressure, kPa = 101
Fixed: Temperature, K = 298.15
Property: Molar enthalpy of solution, kJ/mol (Liquid); method: ISOPERIBOL
Molality, mol/kg of ethanediamine dihydrochloride	Molar enthalpy of solution, kJ/mol	uncertainty
0.000784	30.03	0.42
0.001485	26.22	0.37
0.00226	24.87	0.35
0.003	24.246	0.338
0.003778	24.32	0.34
0.004552	24.21	0.34
0.005281	24.2	0.34
0.006014	24.26	0.34
0.006756	24.24	0.34
0.007527	24.24	0.34
0.008315	24.29	0.34
0.009809	24.28	0.34
0.011263	24.24	0.34
0.015021	24.16	0.34
