Measured thermophysical data. Standard molar enthalpies of formation of copper(II) beta-diketonates and monothio-beta-diketonates
Source: J. Chem. Thermodyn., 2006, 10.1016/j.jct.2005.08.017
Compound 1: copper, Cu, InChI=1S/Cu
Compound 2: hydrogen, H2, InChI=1S/H2/h1H
Compound 3: graphite, C
Compound 4: oxygen, O2, InChI=1S/O2/c1-2
Compound 5: sulfur, S, InChI=1S/S
Compound 6: fluorine, F2, InChI=1S/F2/c1-2
Compound 7: bis(1,3-diphenyl-1,3-propanedionato-O,O')copper, C30H22CuO4, InChI=1S/2C15H11O2.Cu/c2*16-14(12-7-3-1-4-8-12)11-15(17)13-9-5-2-6-10-13;/h2*1-11H;/q2*-1;+2
Compound 8: bis[4,4,4-trifluoro-1-(2-thienyl)-1,3-butanedionato-O,O']copper, C16H8CuF6O4S2, InChI=1S/2C8H4F3O2S.Cu/c2*9-8(10,11)7(13)4-5(12)6-2-1-3-14-6;/h2*1-4H;/q2*-1;+2
Compound 9: bis(1,3-diphenyl-1-thio-1,3-propanedionato)copper, C30H22CuO2S2, InChI=1S/2C15H11OS.Cu/c2*16-14(12-7-3-1-4-8-12)11-15(17)13-9-5-2-6-10-13;/h2*1-11H;/q2*-1;+2
Compound 10: bis[4,4,4-trifluoro-1-(2-thienyl)-1-thio-1,3-butanedionato]copper, C16H8CuF6O2S4, InChI=1S/2C8H4F3OS2.Cu/c2*9-8(10,11)7(12)4-5(13)6-2-1-3-14-6;/h2*1-4H;/q2*-1;+2

System: bis(1,3-diphenyl-1,3-propanedionato-O,O')copper; phases: Crystal, Gas
Property: Molar enthalpy of vaporization or sublimation, kJ/mol (Crystal); method: drop calorimetry
Temperature, K	Molar enthalpy of vaporization or sublimation, kJ/mol	uncertainty
298.15	230.7	8.2

System: bis[4,4,4-trifluoro-1-(2-thienyl)-1,3-butanedionato-O,O']copper; phases: Crystal, Gas
Property: Molar enthalpy of vaporization or sublimation, kJ/mol (Crystal); method: drop calorimetry
Temperature, K	Molar enthalpy of vaporization or sublimation, kJ/mol	uncertainty
298.15	167.9	7.4

Reaction: -1 copper + 1 bis(1,3-diphenyl-1,3-propanedionato-O,O')copper + -11 hydrogen + -30 graphite + -2 oxygen
Property: Molar enthalpy of reaction, kJ/mol
-364

Reaction: -1 copper + -2 sulfur + -3 fluorine + 1 bis[4,4,4-trifluoro-1-(2-thienyl)-1,3-butanedionato-O,O']copper + -4 hydrogen + -16 graphite + -2 oxygen
Property: Molar enthalpy of reaction, kJ/mol
-1824.3

Reaction: -1 copper + -2 sulfur + 1 bis(1,3-diphenyl-1-thio-1,3-propanedionato)copper + -11 hydrogen + -30 graphite + -1 oxygen
Property: Molar enthalpy of reaction, kJ/mol
35.6

Reaction: -1 copper + -4 sulfur + -3 fluorine + 1 bis[4,4,4-trifluoro-1-(2-thienyl)-1-thio-1,3-butanedionato]copper + -4 hydrogen + -16 graphite + -1 oxygen
Property: Molar enthalpy of reaction, kJ/mol
-1405.7
