Measured thermophysical data. Vapour pressure and excess Gibbs free energy of the ternary system {x1CH3F + x2HCl + x3N2O} at temperature of 182.33 K
Source: J. Chem. Thermodyn., 2006, 10.1016/j.jct.2006.04.010
Compound 1: fluoromethane, CH3F, InChI=1S/CH3F/c1-2/h1H3, purity 99.5%
Compound 2: hydrogen chloride, ClH, InChI=1S/ClH/h1H, purity 99.5%
Compound 3: nitrous oxide, N2O, InChI=1S/N2O/c1-2-3, purity 99.5%

System: fluoromethane; phases: Crystal, Liquid, Gas
Property: Vapor or sublimation pressure, kPa (Crystal); method: Closed Cell
Vapor or sublimation pressure, kPa	uncertainty
0.375	0.03

System: hydrogen chloride; phases: Crystal, Liquid, Gas
Property: Vapor or sublimation pressure, kPa (Crystal); method: Closed Cell
Vapor or sublimation pressure, kPa	uncertainty
13.793	0.078

System: nitrous oxide; phases: Crystal, Liquid, Gas
Property: Vapor or sublimation pressure, kPa (Crystal); method: Closed Cell
Vapor or sublimation pressure, kPa	uncertainty
87.951	0.222

System: fluoromethane + nitrous oxide; phases: Liquid, Gas
Fixed: Temperature, K = 182.33
Property: Vapor or sublimation pressure, kPa (Liquid); method: CCELL:UFactor:3
Mole fraction of fluoromethane	Vapor or sublimation pressure, kPa	uncertainty
0.1556	83.621	1.07
0.3199	77.484	0.996
0.3984	74.646	0.962
0.4074	74.592	0.961
0.5454	68.94	0.893
0.5586	67.783	0.879
0.6708	63.12	0.822
0.7053	61.731	0.806
0.7968	57.568	0.755
0.8128	56.766	0.746
0.8878	53.453	0.705
0.8898	53.064	0.701

System: hydrogen chloride + nitrous oxide; phases: Liquid, Gas
Fixed: Temperature, K = 182.33
Property: Vapor or sublimation pressure, kPa (Liquid); method: CCELL:UFactor:3
Mole fraction of hydrogen chloride	Vapor or sublimation pressure, kPa	uncertainty
0.0786	89.579	1.142
0.1899	89.716	1.144
0.2339	89.947	1.146
0.2412	90.182	1.149
0.4058	89.325	1.139
0.4583	88.719	1.132
0.4644	88.512	1.129
0.6009	86.103	1.1
0.6113	86.244	1.102
0.6546	85.977	1.098
0.6911	84.97	1.086
0.7446	83.104	1.064
0.9034	77.904	1.001
0.928	76.307	0.982

System: fluoromethane + hydrogen chloride + nitrous oxide; phases: Liquid, Gas
Fixed: Temperature, K = 182.33
Property: Vapor or sublimation pressure, kPa (Liquid); method: CCELL:UFactor:3
Mole fraction of fluoromethane	Mole fraction of hydrogen chloride	Vapor or sublimation pressure, kPa	uncertainty
0.0818	0.7527	75.213	0.968
0.0897	0.8231	69.864	0.904
0.1072	0.6656	76.712	0.987
0.1076	0.414	81.437	1.044
0.1281	0.167	82.978	1.062
0.132	0.8053	68.15	0.883
0.1361	0.3522	81.906	1.049
0.1414	0.6583	71.582	0.925
0.1568	0.0676	84.482	1.08
0.1584	0.7328	65.997	0.857
0.1616	0.5075	76.206	0.98
0.1705	0.7492	66.131	0.859
0.1786	0.0881	82.701	1.059
0.1857	0.3795	77.973	1.002
0.1865	0.0454	81.859	1.049
0.1963	0.3195	79.048	1.015
0.2136	0.4251	72.315	0.933
0.2182	0.1899	78.122	1.004
0.2205	0.3949	73.435	0.947
0.2206	0.3691	74.437	0.959
0.2231	0.3621	73.345	0.946
0.2244	0.15	79.032	1.015
0.2474	0.1926	75.098	0.967
0.2777	0.4389	68.184	0.883
0.2818	0.0346	79.421	1.019
0.2908	0.5183	61.237	0.8
0.3071	0.3115	69.206	0.896
0.3406	0.1925	71.886	0.928
0.3587	0.1132	75.026	0.966
0.3659	0.0813	74.828	0.964
0.3784	0.0617	73.959	0.953
0.3791	0.0468	74.362	0.958
0.415	0.4215	53.228	0.703
0.4184	0.1497	67.693	0.878
0.4484	0.1755	64.986	0.845
0.4615	0.277	59.003	0.773
0.4687	0.35	52.69	0.696
0.4718	0.1335	65.876	0.856
0.4856	0.1166	67.939	0.881
0.5112	0.136	63.508	0.827
0.5152	0.3284	51.235	0.679
0.5162	0.0589	67.294	0.873
0.552	0.3369	46.208	0.618
0.5603	0.3576	44.14	0.593
0.5699	0.0531	66.194	0.859
0.582	0.2297	53.265	0.703
0.594	0.2884	49.981	0.664
0.6288	0.1797	52.68	0.696
0.6305	0.3064	43.169	0.581
0.6566	0.1761	52.317	0.692
0.6787	0.0519	61.145	0.798
0.7836	0.0831	54.945	0.724
