Measured thermophysical data. Interaction of biological buffers with electrolytes: Densities of aqueous solutions  of two substituted aminosulfonic acids and ionic salts from T = (298.15 to 328.15) K
Source: J. Chem. Thermodyn., 2009, 10.1016/j.jct.2008.12.011
Compound 1: 3-[tris(hydroxymethyl)methylamino]-1-propanesulfonic acid, C7H17NO6S, InChI=1S/C7H17NO6S/c9-4-7(5-10,6-11)8-2-1-3-15(12,13)14/h8-11H,1-6H2,(H,12,13,14), purity 99.5%
Compound 2: N-[tris(hydroxymethyl)methyl]-3-amino-2-hydroxypropane sulfonic acid, C7H17NO7S, InChI=1S/C7H17NO7S/c9-3-7(4-10,5-11)8-1-6(12)2-16(13,14)15/h6,8-12H,1-5H2,(H,13,14,15), purity 99%
Compound 3: water, H2O, InChI=1S/H2O/h1H2
Compound 4: potassium ethanoate, C2H3KO2, InChI=1S/C2H4O2.K/c1-2(3)4;/h1H3,(H,3,4);/q;+1/p-1, purity 99.98%
Compound 5: potassium bromide, BrK, InChI=1S/BrH.K/h1H;/q;+1/p-1, purity 99.5%
Compound 6: potassium chloride, ClK, InChI=1S/ClH.K/h1H;/q;+1/p-1, purity 99.99%
Compound 7: sodium chloride, ClNa, InChI=1S/ClH.Na/h1H;/q;+1/p-1, purity 99.5%

System: water + 3-[tris(hydroxymethyl)methylamino]-1-propanesulfonic acid; phases: Liquid
Fixed: Pressure, kPa = 101
Property: Mass density, kg/m3 (Liquid); method: Vibrating tube method
Molality, mol/kg of 3-[tris(hydroxymethyl)methylamino]-1-propanesulfonic acid	Temperature, K	Mass density, kg/m3	uncertainty
0.5011	298.15	1046.07	1
0.8957	298.15	1064.95	1
1.2245	298.15	1084.21	1
1.7926	298.15	1117.87	1.01
2.2135	298.15	1140.59	1.01
2.4231	298.15	1152.07	1.01
2.8034	298.15	1170.75	1.01
0.5011	303.15	1044.13	1
0.8957	303.15	1062.96	1
1.2245	303.15	1082.18	1
1.7926	303.15	1115.68	1.01
2.2135	303.15	1138.38	1.01
2.4231	303.15	1149.81	1.01
2.8034	303.15	1168.43	1.01
0.5011	310.15	1041.22	1
0.8957	310.15	1059.95	1
1.2245	310.15	1079.15	1
1.7926	310.15	1112.62	1.01
2.2135	310.15	1135.28	1.01
2.4231	310.15	1146.62	1.01
2.8034	310.15	1165.22	1.01
0.5011	318.15	1037.23	1
0.8957	318.15	1055.92	1
1.2245	318.15	1075.09	1
1.7926	318.15	1108.55	1.01
2.2135	318.15	1131.19	1.01
2.4231	318.15	1142.49	1.01
2.8034	318.15	1161.04	1.01
0.5011	323.15	1034.92	1
0.8957	323.15	1053.59	1
1.2245	323.15	1072.68	1
1.7926	323.15	1106.08	1
2.2135	323.15	1128.7	1.01
2.4231	323.15	1139.98	1.01
2.8034	323.15	1158.52	1.01
0.5011	328.15	1032.67	1
0.8957	328.15	1051.25	1
1.2245	328.15	1070.31	1
1.7926	328.15	1103.67	1.01
2.2135	328.15	1126.12	1.01
2.4231	328.15	1137.32	1.01
2.8034	328.15	1155.87	1.01

System: water + N-[tris(hydroxymethyl)methyl]-3-amino-2-hydroxypropane sulfonic acid; phases: Liquid
Fixed: Pressure, kPa = 101
Property: Mass density, kg/m3 (Liquid); method: Vibrating tube method
Molality, mol/kg of N-[tris(hydroxymethyl)methyl]-3-amino-2-hydroxypropane sulfonic acid	Temperature, K	Mass density, kg/m3	uncertainty
0.0629	298.15	1003.59	1.01
0.123	298.15	1009.62	1.01
0.1921	298.15	1016.37	1.01
0.4659	298.15	1041.93	1.01
0.7644	298.15	1069.04	1.01
0.0629	303.15	1002.16	1.01
0.123	303.15	1008.14	1.01
0.1921	303.15	1014.86	1.01
0.4659	303.15	1040.26	1.01
0.7644	303.15	1066.83	1.01
0.0629	310.15	999.78	1.01
0.123	310.15	1005.72	1.01
0.1921	310.15	1012.39	1.01
0.4659	310.15	1037.6	1.01
0.7644	310.15	1063.04	1.01
0.0629	318.15	996.62	1.01
0.123	318.15	1002.52	1.01
0.1921	318.15	1009.15	1.01
0.4659	318.15	1034.18	1.01
0.7644	318.15	1059.95	1.01
0.0629	323.15	994.41	1.01
0.123	323.15	1000.3	1.01
0.1921	323.15	1006.89	1.01
0.4659	323.15	1031.71	1.01
0.7644	323.15	1056.86	1.01
0.0629	328.15	992.05	1.01
0.123	328.15	997.92	1.01
0.1921	328.15	1004.5	1.01
0.4659	328.15	1028.8	1.01
0.7644	328.15	1054.93	1.01

System: potassium ethanoate + water; phases: Liquid
Fixed: Pressure, kPa = 101.3
Property: Mass density, kg/m3 (Liquid); method: Vibrating tube method
Temperature, K	Amount concentration (molarity), mol/dm3 of potassium ethanoate	Mass density, kg/m3	uncertainty
298.15	1.5	1066.61	1
298.15	2.5	1108.88	1
298.15	3	1127.48	1
298.15	3.5	1148.72	1
303.15	1	1041.9	1
303.15	1.5	1064.76	1
303.15	2	1086.01	1
303.15	2.5	1106.89	1
303.15	3	1125.37	1
303.15	3.5	1146.49	1
303.15	4	1168.58	1.01
308.15	1	1039.27	1
308.15	1.5	1062.94	1
308.15	2	1083.09	1
308.15	2.5	1103.93	1
308.15	3	1122.15	1
308.15	3.5	1143.14	1.01
308.15	4	1165.13	1.01
313.15	1	1035.88	1
313.15	1.5	1059.39	1
313.15	2	1079.44	1
313.15	2.5	1100.19	1
313.15	3	1118.3	1
313.15	3.5	1139.19	1
313.15	4	1160.96	1.01
318.15	1	1033.57	1
318.15	1.5	1057.02	1
318.15	2	1077.01	1
318.15	2.5	1097.66	1
318.15	3	1115.71	1
318.15	3.5	1136.58	1
318.15	4	1158.26	1.01
323.15	1	1030.82	1
323.15	1.5	1054.37	1
323.15	2	1074.47	1
323.15	2.5	1095.05	1
323.15	3	1113.05	1
323.15	3.5	1133.87	1
323.15	4	1155.47	1.01

System: water + potassium bromide; phases: Liquid
Fixed: Pressure, kPa = 101.3
Property: Mass density, kg/m3 (Liquid); method: Vibrating tube method
Temperature, K	Amount concentration (molarity), mol/dm3 of potassium bromide	Mass density, kg/m3	uncertainty
298.15	1.5	1119.52	1.01
298.15	2.5	1199.54	1.01
298.15	3	1239.34	1.01
298.15	3.5	1279.04	1.01
303.15	1	1078.68	1.01
303.15	1.5	1117.57	1.01
303.15	2	1160.04	1.01
303.15	2.5	1197.23	1.01
303.15	3	1236.89	1.01
303.15	3.5	1276.29	1.01
303.15	4	1320.56	1.02
308.15	1	1075.81	1.01
308.15	1.5	1114.62	1.01
308.15	2	1156.73	1.01
308.15	2.5	1193.88	1.01
308.15	3	1233.52	1.01
308.15	3.5	1272.28	1.01
308.15	4	1316.47	1.02
313.15	1	1072.09	1.01
313.15	1.5	1110.71	1.01
313.15	2	1152.65	1.01
313.15	2.5	1189.67	1.01
313.15	3	1229.2	1.01
313.15	3.5	1267.53	1.01
313.15	4	1311.63	1.02
318.15	1	1066.6	1.01
318.15	1.5	1106.96	1.01
318.15	2	1149.76	1.01
318.15	2.5	1186.74	1.01
318.15	3	1226.19	1.01
318.15	3.5	1264.46	1.01
318.15	4	1308.52	1.02
323.15	1	1063.02	1.01
323.15	1.5	1102.44	1.01
323.15	2	1144.45	1.01
323.15	2.5	1182.53	1.01
323.15	3	1222.18	1.01
323.15	3.5	1260.51	1.01
323.15	4	1305.31	1.02

System: potassium chloride + water; phases: Liquid
Fixed: Pressure, kPa = 101.3
Property: Mass density, kg/m3 (Liquid); method: Vibrating tube method
Temperature, K	Amount concentration (molarity), mol/dm3 of potassium chloride	Mass density, kg/m3	uncertainty
298.15	1.5	1059.97	1
298.15	2.5	1104.2	1
298.15	3	1124.93	1
298.15	3.5	1145.56	1
303.15	1	1041.13	1
303.15	1.5	1058.12	1
303.15	2	1080.38	1
303.15	2.5	1102.19	1
303.15	3	1122.78	1
303.15	3.5	1143.35	1
303.15	4	1166.67	1.01
308.15	1	1038.43	1
308.15	1.5	1055.31	1
308.15	2	1077.43	1
308.15	2.5	1099.06	1
308.15	3	1119.56	1
308.15	3.5	1140.06	1.01
308.15	4	1163.34	1.01
313.15	1	1035.01	1
313.15	1.5	1051.75	1
313.15	2	1073.77	1
313.15	2.5	1095.37	1
313.15	3	1115.79	1
313.15	3.5	1136.18	1
313.15	4	1159.35	1.01
318.15	1	1032.69	1
318.15	1.5	1049.38	1
318.15	2	1071.35	1
318.15	2.5	1092.9	1
318.15	3	1113.28	1
318.15	3.5	1133.63	1
318.15	4	1156.76	1.01
323.15	1	1030.24	1
323.15	1.5	1047.03	1
323.15	2	1068.81	1
323.15	2.5	1090.34	1
323.15	3	1110.71	1
323.15	3.5	1131.02	1
323.15	4	1154.1	1.01

System: sodium chloride + water; phases: Liquid
Fixed: Pressure, kPa = 101.3
Property: Mass density, kg/m3 (Liquid); method: Vibrating tube method
Temperature, K	Amount concentration (molarity), mol/dm3 of sodium chloride	Mass density, kg/m3	uncertainty
298.15	1.5	1053.3	1
298.15	2.5	1088.97	1
298.15	3	1110.22	1
298.15	3.5	1124.82	1
303.15	1	1035.38	1
303.15	1.5	1055.01	1
303.15	2	1073.49	1
303.15	2.5	1086.83	1
303.15	3	1107.87	1
303.15	3.5	1122.4	1
303.15	4	1146.3	1.01
308.15	1	1032.62	1
308.15	1.5	1053.06	1
308.15	2	1070.4	1
308.15	2.5	1083.71	1
308.15	3	1104.62	1
308.15	3.5	1118.95	1
308.15	4	1142.7	1.01
313.15	1	1029.13	1
313.15	1.5	1050.21	1
313.15	2	1066.6	1
313.15	2.5	1079.83	1
313.15	3	1100.67	1
313.15	3.5	1114.84	1
313.15	4	1138.45	1.01
318.15	1	1026.75	1
318.15	1.5	1046.65	1
318.15	2	1064.11	1
318.15	2.5	1077.28	1
318.15	3	1098.06	1
318.15	3.5	1112.16	1
318.15	4	1135.7	1.01
323.15	1	1023.15	1
323.15	1.5	1044.21	1
323.15	2	1061.5	1
323.15	2.5	1074.62	1
323.15	3	1095.35	1
323.15	3.5	1109.38	1
323.15	4	1132.89	1.01

System: potassium ethanoate + water + 3-[tris(hydroxymethyl)methylamino]-1-propanesulfonic acid; phases: Liquid
Fixed: Pressure, kPa = 101.3
Property: Mass density, kg/m3 (Liquid); method: Vibrating tube method
Temperature, K	Molality, mol/kg of 3-[tris(hydroxymethyl)methylamino]-1-propanesulfonic acid	Solvent: Amount concentration (molarity), mol/dm3 of potassium ethanoate	Mass density, kg/m3	uncertainty
298.15	1.1456	1	1108.54	3.77
298.15	1.4337	1	1126	3.61
298.15	1.7326	1	1142.47	3.5
298.15	2.0203	1	1158.75	3.59
298.15	2.3993	1	1180.76	3.5
298.15	2.6245	1	1192.31	3.24
303.15	1.1456	1	1106.49	3.78
303.15	1.4337	1	1123.9	3.6
303.15	1.7326	1	1140.38	3.51
303.15	2.0203	1	1156.78	3.54
303.15	2.3993	1	1178.1	3.46
303.15	2.6245	1	1189.91	3.29
310.15	1.1456	1	1103.35	3.78
310.15	1.4337	1	1120.76	3.6
310.15	1.7326	1	1137.15	3.46
310.15	2.0203	1	1153.13	3.53
310.15	2.3993	1	1174.74	3.47
310.15	2.6245	1	1186.37	3.25
318.15	1.1456	1	1099.55	3.76
318.15	1.4337	1	1116.91	3.58
318.15	1.7326	1	1133.21	3.45
318.15	2.0203	1	1149.14	3.5
318.15	2.3993	1	1170.49	3.45
318.15	2.6245	1	1182.19	3.26
323.15	1.1456	1	1097.03	3.76
323.15	1.4337	1	1114.36	3.57
323.15	1.7326	1	1130.61	3.44
323.15	2.0203	1	1146.53	3.51
323.15	2.3993	1	1167.97	3.44
323.15	2.6245	1	1179.46	3.21
328.15	1.1456	1	1094.25	3.77
328.15	1.4337	1	1111.71	3.58
328.15	1.7326	1	1127.92	3.44
328.15	2.0203	1	1143.83	3.49
328.15	2.3993	1	1165.1	3.42
328.15	2.6245	1	1176.64	3.23
298.15	0.4534	2	1124.61	3.13
298.15	0.758	2	1139.64	3.12
298.15	1.0506	2	1154.02	3.14
298.15	1.6495	2	1182.68	2.95
298.15	1.941	2	1196.97	3
298.15	2.2542	2	1211.24	2.87
298.15	2.56	2	1226.79	2.73
303.15	0.4534	2	1122.94	3.14
303.15	0.758	2	1137.94	3.11
303.15	1.0506	2	1152.27	3.08
303.15	1.6495	2	1180.7	2.93
303.15	1.941	2	1194.69	2.96
303.15	2.2542	2	1208.87	2.83
303.15	2.56	2	1224.4	2.95
310.15	0.4534	2	1120.14	3.16
310.15	0.758	2	1135.1	3.06
310.15	1.0506	2	1148.94	3.04
310.15	1.6495	2	1177.21	2.93
310.15	1.941	2	1191.17	2.95
310.15	2.2542	2	1205.34	2.83
310.15	2.56	2	1220.85	2.95
318.15	0.4534	2	1116.18	3.08
318.15	0.758	2	1131.03	3.04
318.15	1.0506	2	1144.77	3.03
318.15	1.6495	2	1173.02	2.93
318.15	1.941	2	1186.98	2.95
318.15	2.2542	2	1201.13	2.82
318.15	2.56	2	1216.6	2.93
323.15	0.4534	2	1113.82	3.07
323.15	0.758	2	1128.61	3.03
323.15	1.0506	2	1142.22	3.03
323.15	1.6495	2	1170.49	2.92
323.15	1.941	2	1184.31	2.94
323.15	2.2542	2	1198.47	2.82
323.15	2.56	2	1213.82	2.93
328.15	0.4534	2	1111.64	3.05
328.15	0.758	2	1126.27	3
328.15	1.0506	2	1139.76	3.07
328.15	1.6495	2	1168.08	2.89
328.15	1.941	2	1181.79	2.92
328.15	2.2542	2	1195.79	2.81
328.15	2.56	2	1211.05	2.68
298.15	0.4287	4	1202.74	2.53
298.15	0.707	4	1213.51	2.65
298.15	0.9783	4	1225.15	2.63
298.15	1.2627	4	1236.04	2.58
298.15	1.539	4	1247.3	2.61
298.15	1.8144	4	1258.19	2.48
298.15	2.0947	4	1268.31	2.57
298.15	2.3841	4	1280.63	2.75
303.15	0.4287	4	1200.87	2.52
303.15	0.707	4	1211.54	2.66
303.15	0.9783	4	1223.4	2.61
303.15	1.2627	4	1233.87	2.49
303.15	1.539	4	1244.64	2.59
303.15	1.8144	4	1255.79	2.49
303.15	2.0947	4	1265.73	2.54
303.15	2.3841	4	1277.87	2.73
310.15	0.4287	4	1198.02	2.51
310.15	0.707	4	1208.59	2.63
310.15	0.9783	4	1220.28	2.58
310.15	1.2627	4	1230.65	2.46
310.15	1.539	4	1241.28	2.56
310.15	1.8144	4	1252.25	2.45
310.15	2.0947	4	1261.99	2.54
310.15	2.3841	4	1274.31	2.73
318.15	0.4287	4	1194.44	2.48
318.15	0.707	4	1204.9	2.6
318.15	0.9783	4	1216.44	2.56
318.15	1.2627	4	1226.73	2.42
318.15	1.539	4	1237.03	2.53
318.15	1.8144	4	1248.07	2.44
318.15	2.0947	4	1257.57	2.51
318.15	2.3841	4	1269.9	2.75
323.15	0.4287	4	1192.02	2.47
323.15	0.707	4	1202.43	2.59
323.15	0.9783	4	1213.9	2.55
323.15	1.2627	4	1224.13	2.42
323.15	1.539	4	1234.51	2.52
323.15	1.8144	4	1245.34	2.4
323.15	2.0947	4	1254.73	2.51
323.15	2.3841	4	1267.16	2.79
328.15	0.4287	4	1189.48	2.45
328.15	0.707	4	1199.84	2.58
328.15	0.9783	4	1211.27	2.54
328.15	1.2627	4	1221.45	2.4
328.15	1.539	4	1231.64	2.5
328.15	1.8144	4	1242.52	2.4
328.15	2.0947	4	1251.83	2.55
328.15	2.3841	4	1264.72	2.86

System: water + potassium bromide + 3-[tris(hydroxymethyl)methylamino]-1-propanesulfonic acid; phases: Liquid
Fixed: Pressure, kPa = 101.3
Property: Mass density, kg/m3 (Liquid); method: Vibrating tube method
Temperature, K	Molality, mol/kg of 3-[tris(hydroxymethyl)methylamino]-1-propanesulfonic acid	Solvent: Amount concentration (molarity), mol/dm3 of potassium bromide	Mass density, kg/m3	uncertainty
298.15	0.4896	1	1121.99	3.17
298.15	0.7707	1	1136.08	3.19
298.15	1.0835	1	1151.99	2.95
298.15	1.3836	1	1164.35	2.95
298.15	1.6849	1	1179.74	3.16
298.15	2.0117	1	1195.75	3.29
298.15	2.345	1	1214.15	2.91
298.15	2.6546	1	1224.97	2.86
298.15	3.0113	1	1243.67	3.3
303.15	0.4896	1	1119.24	3.18
303.15	0.7707	1	1133.31	3.19
303.15	1.0835	1	1149.18	2.94
303.15	1.3836	1	1161.51	2.94
303.15	1.6849	1	1176.88	3.16
303.15	2.0117	1	1192.87	3.28
303.15	2.345	1	1211.26	2.92
303.15	2.6546	1	1222.07	2.86
303.15	3.0113	1	1240.75	3.3
310.15	0.4896	1	1115.23	3.17
310.15	0.7707	1	1129.24	3.18
310.15	1.0835	1	1145.09	2.94
310.15	1.3836	1	1157.38	2.94
310.15	1.6849	1	1172.74	3.15
310.15	2.0117	1	1188.71	3.28
310.15	2.345	1	1207.07	2.92
310.15	2.6546	1	1217.87	2.86
310.15	3.0113	1	1236.55	3.29
318.15	0.4896	1	1110.47	3.15
318.15	0.7707	1	1124.45	3.18
318.15	1.0835	1	1140.28	3.09
318.15	1.3836	1	1154.28	3.1
318.15	1.6849	1	1169.71	3.16
318.15	2.0117	1	1185.62	3.27
318.15	2.345	1	1203.95	2.76
318.15	2.6546	1	1212.96	2.71
318.15	3.0113	1	1231.61	3.3
323.15	0.4896	1	1107.46	3.15
323.15	0.7707	1	1121.4	3.17
323.15	1.0835	1	1137.22	3.09
323.15	1.3836	1	1151.22	3.1
323.15	1.6849	1	1166.56	3.15
323.15	2.0117	1	1182.49	3.28
323.15	2.345	1	1200.84	2.76
323.15	2.6546	1	1209.88	2.72
323.15	3.0113	1	1228.56	3.29
328.15	0.4896	1	1104.35	3.14
328.15	0.7707	1	1118.29	3.17
328.15	1.0835	1	1134.1	3.09
328.15	1.3836	1	1148.11	3.1
328.15	1.6849	1	1163.48	3.16
328.15	2.0117	1	1179.42	3.27
328.15	2.345	1	1197.75	2.75
328.15	2.6546	1	1206.75	2.7
328.15	3.0113	1	1225.39	3.29
298.15	0.7091	2	1212.28	2.74
298.15	0.9865	2	1220.7	2.5
298.15	1.2615	2	1233.62	2.61
298.15	1.5377	2	1245.47	2.29
298.15	1.832	2	1255.19	2.54
298.15	2.1132	2	1265.75	2.65
298.15	2.3771	2	1276.21	2.48
298.15	2.6537	2	1285.89	2.48
298.15	2.8901	2	1295.47	2.63
303.15	0.7091	2	1209.79	2.45
303.15	0.9865	2	1218.14	2.48
303.15	1.2615	2	1231.02	2.53
303.15	1.5377	2	1242.81	2.21
303.15	1.832	2	1252.5	2.58
303.15	2.1132	2	1263.03	2.68
303.15	2.3771	2	1273.48	2.5
303.15	2.6537	2	1283.16	2.49
303.15	2.8901	2	1292.72	2.62
310.15	0.7091	2	1206.11	2.46
310.15	0.9865	2	1214.38	2.46
310.15	1.2615	2	1227.19	2.5
310.15	1.5377	2	1238.91	2.18
310.15	1.832	2	1248.57	2.59
310.15	2.1132	2	1259.07	2.69
310.15	2.3771	2	1269.51	2.5
310.15	2.6537	2	1279.19	2.49
310.15	2.8901	2	1288.74	2.61
318.15	0.7091	2	1201.67	2.42
318.15	0.9865	2	1209.83	2.45
318.15	1.2615	2	1222.61	2.64
318.15	1.5377	2	1235.17	2.31
318.15	1.832	2	1244.85	2.55
318.15	2.1132	2	1255.31	2.65
318.15	2.3771	2	1265.72	2.39
318.15	2.6537	2	1274.5	2.39
318.15	2.8901	2	1284.01	2.62
323.15	0.7091	2	1198.8	2.4
323.15	0.9865	2	1206.9	2.45
323.15	1.2615	2	1219.66	2.64
323.15	1.5377	2	1232.22	2.29
323.15	1.832	2	1241.85	2.55
323.15	2.1132	2	1252.32	2.66
323.15	2.3771	2	1262.73	2.39
323.15	2.6537	2	1271.52	2.39
323.15	2.8901	2	1281.05	2.62
328.15	0.7091	2	1195.81	2.76
328.15	0.9865	2	1203.9	2.44
328.15	1.2615	2	1216.65	2.67
328.15	1.5377	2	1229.2	2.35
328.15	1.832	2	1238.84	2.53
328.15	2.1132	2	1249.32	2.64
328.15	2.3771	2	1259.71	2.38
328.15	2.6537	2	1268.48	2.38
328.15	2.8901	2	1277.99	2.62
298.15	0.6166	4	1349.48	1.78
298.15	0.8591	4	1355.36	1.79
298.15	1.1172	4	1361.76	1.82
298.15	1.3634	4	1367.99	1.7
298.15	1.6006	4	1372.73	1.69
298.15	1.8481	4	1378.82	1.76
298.15	2.0894	4	1384.45	1.71
298.15	2.3339	4	1389.87	1.7
298.15	2.5822	4	1395.56	1.71
303.15	0.6166	4	1346.18	1.72
303.15	0.8591	4	1351.95	1.77
303.15	1.1172	4	1358.24	1.8
303.15	1.3634	4	1364.38	1.69
303.15	1.6006	4	1369.06	1.68
303.15	1.8481	4	1375.11	1.76
303.15	2.0894	4	1380.75	1.71
303.15	2.3339	4	1386.18	1.7
303.15	2.5822	4	1391.86	1.75
310.15	0.6166	4	1342.12	1.6
310.15	0.8591	4	1347.7	1.74
310.15	1.1172	4	1353.94	1.79
310.15	1.3634	4	1360.05	1.69
310.15	1.6006	4	1364.72	1.67
310.15	1.8481	4	1370.74	1.76
310.15	2.0894	4	1376.35	1.7
310.15	2.3339	4	1381.75	1.69
310.15	2.5822	4	1387.39	1.84
318.15	0.6166	4	1339.44	1.79
318.15	0.8591	4	1344.93	1.74
318.15	1.1172	4	1351.16	1.78
318.15	1.3634	4	1357.25	1.68
318.15	1.6006	4	1361.91	1.67
318.15	1.8481	4	1367.94	1.75
318.15	2.0894	4	1373.53	1.7
318.15	2.3339	4	1378.92	1.69
318.15	2.5822	4	1384.57	1.62
323.15	0.6166	4	1336.62	1.71
323.15	0.8591	4	1342.09	1.73
323.15	1.1172	4	1348.3	1.78
323.15	1.3634	4	1354.38	1.68
323.15	1.6006	4	1359.03	1.67
323.15	1.8481	4	1365.05	1.75
323.15	2.0894	4	1370.63	1.7
323.15	2.3339	4	1376.02	1.69
323.15	2.5822	4	1381.67	1.7
328.15	0.6166	4	1333.63	1.69
328.15	0.8591	4	1339.09	1.73
328.15	1.1172	4	1345.29	1.78
328.15	1.3634	4	1351.36	1.68
328.15	1.6006	4	1356.02	1.67
328.15	1.8481	4	1362.05	1.75
328.15	2.0894	4	1367.61	1.69
328.15	2.3339	4	1372.98	1.68
328.15	2.5822	4	1378.61	1.7

System: potassium chloride + water + 3-[tris(hydroxymethyl)methylamino]-1-propanesulfonic acid; phases: Liquid
Fixed: Pressure, kPa = 101.3
Property: Mass density, kg/m3 (Liquid); method: Vibrating tube method
Temperature, K	Molality, mol/kg of 3-[tris(hydroxymethyl)methylamino]-1-propanesulfonic acid	Solvent: Amount concentration (molarity), mol/dm3 of potassium chloride	Mass density, kg/m3	uncertainty
298.15	0.7818	1	1104.66	3.09
298.15	1.0922	1	1119.8	3.09
298.15	1.4054	1	1135.03	3.01
298.15	1.7091	1	1148.93	3.08
298.15	2.0232	1	1164.99	3.26
298.15	2.3434	1	1181.7	2.97
298.15	2.6414	1	1193.78	2.96
298.15	2.9534	1	1210.02	3.28
303.15	0.7818	1	1102.61	3.1
303.15	1.0922	1	1117.7	3.06
303.15	1.4054	1	1132.65	3.05
303.15	1.7091	1	1147.34	3.09
303.15	2.0232	1	1162.75	3.2
303.15	2.3434	1	1179.4	2.96
303.15	2.6414	1	1191.33	2.95
303.15	2.9534	1	1207.51	3.27
310.15	0.7818	1	1099.47	3.1
310.15	1.0922	1	1114.56	3.03
310.15	1.4054	1	1129.17	2.93
310.15	1.7091	1	1142.84	3.11
310.15	2.0232	1	1159.45	3.29
310.15	2.3434	1	1175.91	2.93
310.15	2.6414	1	1187.75	2.95
310.15	2.9534	1	1204	3.27
318.15	0.7818	1	1095.67	3.09
318.15	1.0922	1	1110.71	3
318.15	1.4054	1	1125.02	2.9
318.15	1.7091	1	1138.72	3.12
318.15	2.0232	1	1155.43	3.29
318.15	2.3434	1	1171.89	2.91
318.15	2.6414	1	1183.5	2.92
318.15	2.9534	1	1199.72	3.27
323.15	0.7818	1	1093.15	3.09
323.15	1.0922	1	1108.16	2.98
323.15	1.4054	1	1122.31	2.9
323.15	1.7091	1	1136.09	3.13
323.15	2.0232	1	1152.79	3.29
323.15	2.3434	1	1169.21	2.9
323.15	2.6414	1	1180.72	2.92
323.15	2.9534	1	1196.98	3.29
328.15	0.7818	1	1090.37	3.09
328.15	1.0922	1	1105.51	2.98
328.15	1.4054	1	1119.52	2.89
328.15	1.7091	1	1133.36	3.13
328.15	2.0232	1	1150.05	3.29
328.15	2.3434	1	1166.43	2.89
328.15	2.6414	1	1177.88	2.92
328.15	2.9534	1	1194.29	3.31
298.15	0.7621	2	1142.23	3.16
298.15	1.0478	2	1155.62	2.99
298.15	1.3524	2	1170.35	2.85
298.15	1.6483	2	1183.41	2.86
298.15	1.9484	2	1197.64	2.86
298.15	2.2427	2	1211.53	2.65
298.15	2.5321	2	1223.1	2.51
298.15	2.8469	2	1237.13	2.41
303.15	0.7621	2	1140.27	3.08
303.15	1.0478	2	1153.64	2.97
303.15	1.3524	2	1168.22	2.81
303.15	1.6483	2	1181.25	2.81
303.15	1.9484	2	1194.98	2.81
303.15	2.2427	2	1209.13	2.64
303.15	2.5321	2	1220.73	2.47
303.15	2.8469	2	1234.76	2.45
310.15	0.7621	2	1137.32	3.08
310.15	1.0478	2	1150.65	2.95
310.15	1.3524	2	1165.11	2.78
310.15	1.6483	2	1178.04	2.77
310.15	1.9484	2	1191.62	2.79
310.15	2.2427	2	1205.59	2.63
310.15	2.5321	2	1217.26	2.48
310.15	2.8469	2	1231.31	2.45
318.15	0.7621	2	1133.65	3.08
318.15	1.0478	2	1146.95	2.93
318.15	1.3524	2	1161.28	2.76
318.15	1.6483	2	1174.11	2.73
318.15	1.9484	2	1187.37	2.76
318.15	2.2427	2	1201.41	2.64
318.15	2.5321	2	1213.08	2.48
318.15	2.8469	2	1227.14	2.44
323.15	0.7621	2	1131.2	3.08
323.15	1.0478	2	1144.48	2.92
323.15	1.3524	2	1158.74	2.74
323.15	1.6483	2	1171.5	2.73
323.15	1.9484	2	1184.85	2.75
323.15	2.2427	2	1198.68	2.62
323.15	2.5321	2	1210.34	2.47
323.15	2.8469	2	1224.42	2.44
328.15	0.7621	2	1128.64	3.22
328.15	1.0478	2	1141.92	2.92
328.15	1.3524	2	1156.09	2.75
328.15	1.6483	2	1168.81	2.72
328.15	1.9484	2	1181.98	2.76
328.15	2.2427	2	1195.86	2.66
328.15	2.5321	2	1207.51	2.51
328.15	2.8469	2	1221.6	2.39
298.15	0.7904	4	1216.04	2.31
298.15	1.1065	4	1227.02	2.13
298.15	1.4617	4	1237.03	2.43
298.15	1.6771	4	1248.54	2.45
298.15	2.0491	4	1259.49	2.2
298.15	2.3742	4	1271.29	2.17
298.15	2.6837	4	1279.83	2.51
298.15	2.8786	4	1291.11	3.62
303.15	0.7904	4	1213.99	2.32
303.15	1.1065	4	1224.92	2.15
303.15	1.4617	4	1235.28	2.38
303.15	1.6771	4	1246.37	2.25
303.15	2.0491	4	1256.04	2.16
303.15	2.3742	4	1268.77	2.26
303.15	2.6837	4	1277.38	2.46
303.15	2.8786	4	1288.6	3.6
310.15	0.7904	4	1210.85	2.32
310.15	1.1065	4	1221.78	2.15
310.15	1.4617	4	1232.16	2.38
310.15	1.6771	4	1243.15	2.22
310.15	2.0491	4	1252.54	2.13
310.15	2.3742	4	1265.09	2.25
310.15	2.6837	4	1273.8	2.48
310.15	2.8786	4	1285.09	3.59
318.15	0.7904	4	1207.05	2.31
318.15	1.1065	4	1217.93	2.15
318.15	1.4617	4	1228.32	2.38
318.15	1.6771	4	1239.23	2.14
318.15	2.0491	4	1247.88	2.09
318.15	2.3742	4	1260.74	2.29
318.15	2.6837	4	1269.55	2.49
318.15	2.8786	4	1280.81	3.6
323.15	0.7904	4	1204.53	2.31
323.15	1.1065	4	1215.38	2.15
323.15	1.4617	4	1225.78	2.37
323.15	1.6771	4	1236.63	2.16
323.15	2.0491	4	1245.61	2.08
323.15	2.3742	4	1257.92	2.24
323.15	2.6837	4	1266.77	2.5
323.15	2.8786	4	1278.07	3.63
328.15	0.7904	4	1201.75	2.31
328.15	1.1065	4	1212.73	2.16
328.15	1.4617	4	1223.15	2.41
328.15	1.6771	4	1233.95	2.17
328.15	2.0491	4	1242.6	2.07
328.15	2.3742	4	1255.05	2.26
328.15	2.6837	4	1263.93	2.56
328.15	2.8786	4	1275.38	3.67

System: sodium chloride + water + 3-[tris(hydroxymethyl)methylamino]-1-propanesulfonic acid; phases: Liquid
Fixed: Pressure, kPa = 101.3
Property: Mass density, kg/m3 (Liquid); method: Vibrating tube method
Temperature, K	Molality, mol/kg of 3-[tris(hydroxymethyl)methylamino]-1-propanesulfonic acid	Solvent: Amount concentration (molarity), mol/dm3 of sodium chloride	Mass density, kg/m3	uncertainty
298.15	0.7904	1	1098.71	3.34
298.15	1.1065	1	1115.51	3.2
298.15	1.4617	1	1132.73	3.07
298.15	1.6771	1	1143.13	3.05
298.15	2.0491	1	1160.96	3.12
298.15	2.3742	1	1177.48	3.06
298.15	2.6837	1	1191.47	3
298.15	2.8786	1	1201.29	3.19
303.15	0.7904	1	1097.62	3.35
303.15	1.1065	1	1114.31	3.18
303.15	1.4617	1	1131.44	3.05
303.15	1.6771	1	1141.76	3.04
303.15	2.0491	1	1159.5	3.1
303.15	2.3742	1	1175.87	3.07
303.15	2.6837	1	1190.18	2.99
303.15	2.8786	1	1199.65	3.05
310.15	0.7904	1	1095.52	3.33
310.15	1.1065	1	1112.1	3.16
310.15	1.4617	1	1129.13	3.03
310.15	1.6771	1	1139.34	3.02
310.15	2.0491	1	1156.99	3.09
310.15	2.3742	1	1173.36	3.06
310.15	2.6837	1	1187.5	2.96
310.15	2.8786	1	1196.89	3.04
318.15	0.7904	1	1092.72	3.28
318.15	1.1065	1	1109.19	3.15
318.15	1.4617	1	1126.15	3.02
318.15	1.6771	1	1136.19	3
318.15	2.0491	1	1153.81	3.09
318.15	2.3742	1	1170.16	3.05
318.15	2.6837	1	1184.25	2.94
318.15	2.8786	1	1193.44	3.02
323.15	0.7904	1	1091.06	3.29
323.15	1.1065	1	1107.49	3.14
323.15	1.4617	1	1124.37	3
323.15	1.6771	1	1134.38	3
323.15	2.0491	1	1151.96	3.08
323.15	2.3742	1	1168.28	3.04
323.15	2.6837	1	1182.31	2.93
323.15	2.8786	1	1191.44	2.98
328.15	0.7904	1	1089.17	3.27
328.15	1.1065	1	1105.59	3.14
328.15	1.4617	1	1122.45	3
328.15	1.6771	1	1132.45	2.99
328.15	2.0491	1	1149.97	3.08
328.15	2.3742	1	1166.27	3.04
328.15	2.6837	1	1180.26	2.92
328.15	2.8786	1	1189.35	2.97
298.15	0.5701	2	1122.32	3.01
298.15	0.7678	2	1131.9	3.2
298.15	1.0946	2	1148.3	3
298.15	1.3787	2	1160.65	3.06
298.15	1.809	2	1182.45	3.13
298.15	2.2077	2	1201.27	2.87
298.15	2.4437	2	1210.47	2.87
298.15	2.738	2	1224.62	3.06
303.15	0.5701	2	1121.03	2.79
303.15	0.7678	2	1130.53	3.17
303.15	1.0946	2	1146.87	3
303.15	1.3787	2	1159.16	3.06
303.15	1.809	2	1180.9	3.13
303.15	2.2077	2	1199.69	2.89
303.15	2.4437	2	1208.83	2.84
303.15	2.738	2	1222.92	3.02
310.15	0.5701	2	1118.71	2.77
310.15	0.7678	2	1128.12	3.14
310.15	1.0946	2	1144.36	2.98
310.15	1.3787	2	1156.58	3.04
310.15	1.809	2	1178.24	3.12
310.15	2.2077	2	1196.97	2.88
310.15	2.4437	2	1206.03	2.82
310.15	2.738	2	1220.08	3.03
318.15	0.5701	2	1115.79	2.69
318.15	0.7678	2	1125.01	3.1
318.15	1.0946	2	1141.09	2.96
318.15	1.3787	2	1153.22	3.03
318.15	1.809	2	1174.85	3.12
318.15	2.2077	2	1193.55	2.87
318.15	2.4437	2	1202.56	2.82
318.15	2.738	2	1216.71	3.07
323.15	0.5701	2	1114.08	2.7
323.15	0.7678	2	1123.23	3.09
323.15	1.0946	2	1139.27	2.95
323.15	1.3787	2	1151.36	3.03
323.15	1.809	2	1172.96	3.11
323.15	2.2077	2	1191.63	2.86
323.15	2.4437	2	1200.6	2.81
323.15	2.738	2	1214.74	3.05
328.15	0.5701	2	1112.27	2.89
328.15	0.7678	2	1121.39	3.1
328.15	1.0946	2	1137.4	2.94
328.15	1.3787	2	1149.46	3.01
328.15	1.809	2	1171	3.1
328.15	2.2077	2	1189.64	2.83
328.15	2.4437	2	1198.58	2.82
328.15	2.738	2	1212.71	3.05
298.15	0.4509	4	1176.78	3.22
298.15	0.7177	4	1190.37	3.14
298.15	1.0202	4	1205.02	3.03
298.15	1.3125	4	1218.64	3.04
298.15	1.7178	4	1238.37	2.86
298.15	1.9866	4	1248.51	2.89
298.15	2.262	4	1262.95	3.31
303.15	0.4509	4	1175.5	3.23
303.15	0.7177	4	1189	3.12
303.15	1.0202	4	1203.57	3.01
303.15	1.3125	4	1217.12	3.04
303.15	1.7178	4	1236.78	2.86
303.15	1.9866	4	1246.83	2.9
303.15	2.262	4	1261.4	3.29
310.15	0.4509	4	1173.2	3.2
310.15	0.7177	4	1186.6	3.1
310.15	1.0202	4	1201.07	2.99
310.15	1.3125	4	1214.53	3.02
310.15	1.7178	4	1234.1	2.85
310.15	1.9866	4	1244.12	2.88
310.15	2.262	4	1258.57	3.29
318.15	0.4509	4	1170.25	3.14
318.15	0.7177	4	1183.5	3.08
318.15	1.0202	4	1197.85	2.97
318.15	1.3125	4	1211.19	3.01
318.15	1.7178	4	1230.73	2.85
318.15	1.9866	4	1240.72	2.88
318.15	2.262	4	1255.12	3.31
323.15	0.4509	4	1168.48	3.14
323.15	0.7177	4	1181.67	3.06
323.15	1.0202	4	1195.96	2.96
323.15	1.3125	4	1209.26	3
323.15	1.7178	4	1228.77	2.85
323.15	1.9866	4	1238.73	2.87
323.15	2.262	4	1253.08	3.28
328.15	0.4509	4	1166.54	3.13
328.15	0.7177	4	1179.71	3.06
328.15	1.0202	4	1193.98	2.96
328.15	1.3125	4	1207.26	2.99
328.15	1.7178	4	1226.7	2.82
328.15	1.9866	4	1236.64	2.86
328.15	2.262	4	1250.95	3.28

System: potassium ethanoate + water + N-[tris(hydroxymethyl)methyl]-3-amino-2-hydroxypropane sulfonic acid; phases: Liquid
Fixed: Pressure, kPa = 101.3
Property: Mass density, kg/m3 (Liquid); method: Vibrating tube method
Temperature, K	Molality, mol/kg of N-[tris(hydroxymethyl)methyl]-3-amino-2-hydroxypropane sulfonic acid	Solvent: Amount concentration (molarity), mol/dm3 of potassium ethanoate	Mass density, kg/m3	uncertainty
298.15	0.0579	1	1048.35	5.38
298.15	0.118	1	1053.64	5.98
298.15	0.1801	1	1060.35	6.56
298.15	0.4358	1	1079.2	4.77
298.15	0.7378	1	1103.68	4.91
298.15	1.0286	1	1126.66	4.85
303.15	0.0579	1	1046.3	5.4
303.15	0.118	1	1051.54	5.96
303.15	0.1801	1	1058.26	6.49
303.15	0.4358	1	1077.23	4.72
303.15	0.7378	1	1101.02	4.86
303.15	1.0286	1	1124.26	4.89
310.15	0.0579	1	1043.16	5.39
310.15	0.118	1	1048.4	5.92
310.15	0.1801	1	1055.03	6.41
310.15	0.4358	1	1073.58	4.7
310.15	0.7378	1	1097.66	4.88
310.15	1.0286	1	1120.72	4.85
318.15	0.0579	1	1039.36	5.33
318.15	0.118	1	1044.55	5.85
318.15	0.1801	1	1051.09	6.35
318.15	0.4358	1	1069.59	4.67
318.15	0.7378	1	1093.41	4.86
318.15	1.0286	1	1116.54	4.87
323.15	0.0579	1	1036.84	5.33
323.15	0.118	1	1042	5.81
323.15	0.1801	1	1048.49	6.32
323.15	0.4358	1	1066.98	4.68
323.15	0.7378	1	1090.89	4.84
323.15	1.0286	1	1113.81	4.83
328.15	0.0579	1	1034.06	5.38
328.15	0.118	1	1039.35	5.85
328.15	0.1801	1	1045.8	6.31
328.15	0.4358	1	1064.28	4.66
328.15	0.7378	1	1088.02	4.83
328.15	1.0286	1	1110.99	4.84
298.15	0.032	2	1091.67	5.2
298.15	0.0579	2	1093.79	5.28
298.15	0.118	2	1098.98	5.21
298.15	0.2144	2	1107.13	4.65
298.15	0.437	2	1123.26	4.5
298.15	0.712	2	1143.16	4.6
298.15	0.9958	2	1165.06	4.38
298.15	1.137	2	1174.28	3.83
303.15	0.032	2	1089.8	5.1
303.15	0.0579	2	1091.83	5.13
303.15	0.118	2	1096.85	5.19
303.15	0.2144	2	1105.09	4.55
303.15	0.437	2	1121.02	4.47
303.15	0.712	2	1140.9	4.59
303.15	0.9958	2	1162.69	4.39
303.15	1.137	2	1171.89	4.41
310.15	0.032	2	1086.78	5.1
310.15	0.0579	2	1088.87	5.1
310.15	0.118	2	1093.96	5.05
310.15	0.2144	2	1101.76	4.52
310.15	0.437	2	1117.9	4.45
310.15	0.712	2	1137.37	4.56
310.15	0.9958	2	1159.25	4.39
310.15	1.137	2	1168.46	4.39
318.15	0.032	2	1083.37	4.83
318.15	0.0579	2	1085.17	4.92
318.15	0.118	2	1089.91	5.11
318.15	0.2144	2	1098.2	4.48
318.15	0.437	2	1113.7	4.42
318.15	0.712	2	1133.47	4.55
318.15	0.9958	2	1155.04	4.34
318.15	1.137	2	1164.13	4.4
323.15	0.032	2	1080.65	4.92
323.15	0.0579	2	1082.71	4.88
323.15	0.118	2	1087.72	4.91
323.15	0.2144	2	1095.22	4.46
323.15	0.437	2	1111.34	4.43
323.15	0.712	2	1130.67	4.51
323.15	0.9958	2	1152.27	4.37
323.15	1.137	2	1161.57	4.39
328.15	0.032	2	1078.41	4.52
328.15	0.0579	2	1080.12	4.7
328.15	0.118	2	1084.72	5.06
328.15	0.2144	2	1093.01	4.51
328.15	0.437	2	1108.32	4.37
328.15	0.712	2	1127.87	4.53
328.15	0.9958	2	1149.47	4.32
328.15	1.137	2	1158.46	3.76
298.15	0.3946	4	1201.02	3.96
298.15	0.6595	4	1217.92	3.78
298.15	0.9148	4	1232.6	3.55
298.15	1.051	4	1240.04	3.47
298.15	1.1744	4	1246.96	3.36
298.15	1.3152	4	1254.18	3.2
298.15	1.4471	4	1260.76	3.44
298.15	1.6866	4	1274.42	3.38
298.15	1.9674	4	1288.76	3.23
303.15	0.3946	4	1198.69	4.03
303.15	0.6595	4	1215.82	3.81
303.15	0.9148	4	1230.51	3.56
303.15	1.051	4	1238.07	3.49
303.15	1.1744	4	1244.99	3.21
303.15	1.3152	4	1251.52	3.13
303.15	1.4471	4	1258.46	3.49
303.15	1.6866	4	1272.05	3.34
303.15	1.9674	4	1286.16	3.18
310.15	0.3946	4	1195.07	4.11
310.15	0.6595	4	1212.68	3.85
310.15	0.9148	4	1227.28	3.5
310.15	1.051	4	1234.42	3.4
310.15	1.1744	4	1241.34	3.27
310.15	1.3152	4	1248.16	3.16
310.15	1.4471	4	1254.97	3.47
310.15	1.6866	4	1268.58	3.31
310.15	1.9674	4	1282.41	3.11
318.15	0.3946	4	1190.94	4.19
318.15	0.6595	4	1208.83	3.87
318.15	0.9148	4	1223.34	3.48
318.15	1.051	4	1230.43	3.39
318.15	1.1744	4	1237.35	3.21
318.15	1.3152	4	1243.91	3.16
318.15	1.4471	4	1250.95	3.48
318.15	1.6866	4	1264.4	3.27
318.15	1.9674	4	1277.97	3.07
323.15	0.3946	4	1188.24	4.25
323.15	0.6595	4	1206.28	3.89
323.15	0.9148	4	1220.74	3.47
323.15	1.051	4	1227.82	3.39
323.15	1.1744	4	1234.74	3.23
323.15	1.3152	4	1241.39	3.14
323.15	1.4471	4	1248.27	3.45
323.15	1.6866	4	1261.66	3.25
323.15	1.9674	4	1275.12	3.04
328.15	0.3946	4	1184.99	4.34
328.15	0.6595	4	1203.63	3.95
328.15	0.9148	4	1218.05	3.46
328.15	1.051	4	1225.12	3.39
328.15	1.1744	4	1232.04	3.2
328.15	1.3152	4	1238.52	3.13
328.15	1.4471	4	1245.49	3.44
328.15	1.6866	4	1258.83	3.24
328.15	1.9674	4	1272.2	3.03

System: water + potassium bromide + N-[tris(hydroxymethyl)methyl]-3-amino-2-hydroxypropane sulfonic acid; phases: Liquid
Fixed: Pressure, kPa = 101.3
Property: Mass density, kg/m3 (Liquid); method: Vibrating tube method
Temperature, K	Molality, mol/kg of N-[tris(hydroxymethyl)methyl]-3-amino-2-hydroxypropane sulfonic acid	Amount concentration (molarity), mol/dm3 of potassium bromide	Mass density, kg/m3	uncertainty
298.15	0.071	1	1091.26	5.06
298.15	0.1512	1	1097.89	4.72
298.15	0.427	1	1118.78	4.45
298.15	0.717	1	1138.76	4.44
298.15	0.9985	1	1159.93	4.4
298.15	1.1328	1	1168.12	3.8
303.15	0.071	1	1088.71	5.04
303.15	0.1512	1	1095.27	4.7
303.15	0.427	1	1116.12	4.44
303.15	0.717	1	1136.04	4.43
303.15	0.9985	1	1157.18	4.42
303.15	1.1328	1	1165.34	3.77
310.15	0.071	1	1084.97	5
310.15	0.1512	1	1091.45	4.68
310.15	0.427	1	1112.23	4.42
310.15	0.717	1	1132.08	4.42
310.15	0.9985	1	1153.19	4.43
310.15	1.1328	1	1161.32	3.87
318.15	0.071	1	1080.47	4.91
318.15	0.1512	1	1086.84	4.66
318.15	0.427	1	1107.59	4.51
318.15	0.717	1	1128.28	4.5
318.15	0.9985	1	1149.41	4.4
318.15	1.1328	1	1157.5	3.64
323.15	0.071	1	1077.54	4.86
323.15	0.1512	1	1083.85	4.65
323.15	0.427	1	1104.58	4.51
323.15	0.717	1	1125.27	4.5
323.15	0.9985	1	1146.35	4.4
323.15	1.1328	1	1154.45	3.76
328.15	0.071	1	1074.49	4.82
328.15	0.1512	1	1080.79	4.65
328.15	0.427	1	1101.51	4.5
328.15	0.717	1	1122.19	4.5
328.15	0.9985	1	1143.28	4.38
328.15	1.1328	1	1151.39	3.76
298.15	0.1342	2	1174.88	4.35
298.15	0.4123	2	1195.16	3.86
298.15	0.6784	2	1208.67	3.67
298.15	0.9442	2	1226.42	3.96
298.15	1.2184	2	1242.95	3.53
298.15	1.4679	2	1255.81	3.26
303.15	0.1342	2	1172.61	4.42
303.15	0.4123	2	1192.78	3.85
303.15	0.6784	2	1206.24	3.65
303.15	0.9442	2	1223.9	3.93
303.15	1.2184	2	1240.39	3.53
303.15	1.4679	2	1253.21	3.24
310.15	0.1342	2	1169.23	4.42
310.15	0.4123	2	1189.29	3.83
310.15	0.6784	2	1202.64	3.63
310.15	0.9442	2	1220.21	3.91
310.15	1.2184	2	1236.64	3.52
310.15	1.4679	2	1249.42	3.23
318.15	0.1342	2	1165.09	4.4
318.15	0.4123	2	1184.96	3.81
318.15	0.6784	2	1198.26	3.62
318.15	0.9442	2	1215.8	3.92
318.15	1.2184	2	1232.22	3.51
318.15	1.4679	2	1244.97	3.22
323.15	0.1342	2	1162.33	4.4
323.15	0.4123	2	1182.11	3.8
323.15	0.6784	2	1195.4	3.62
323.15	0.9442	2	1212.92	3.91
323.15	1.2184	2	1229.33	3.52
323.15	1.4679	2	1242.09	3.23
328.15	0.1342	2	1159.43	4.41
328.15	0.4123	2	1179.19	3.79
328.15	0.6784	2	1192.46	3.62
328.15	0.9442	2	1209.97	3.9
328.15	1.2184	2	1226.37	3.51
328.15	1.4679	2	1239.12	3.23
298.15	0.1207	4	1333.48	2.62
298.15	0.3483	4	1342.6	2.9
298.15	0.5805	4	1354.28	2.77
298.15	0.8061	4	1362.22	2.58
298.15	1.0448	4	1372.54	2.86
298.15	1.2812	4	1383.33	2.63
298.15	1.508	4	1391.22	2.33
303.15	0.1207	4	1331.09	2.59
303.15	0.3483	4	1340.1	2.88
303.15	0.5805	4	1351.69	2.75
303.15	0.8061	4	1359.55	2.56
303.15	1.0448	4	1369.78	2.83
303.15	1.2812	4	1380.42	2.66
303.15	1.508	4	1388.63	2.38
310.15	0.1207	4	1327.69	2.58
310.15	0.3483	4	1336.59	2.86
310.15	0.5805	4	1348.08	2.73
310.15	0.8061	4	1355.83	2.54
310.15	1.0448	4	1365.97	2.82
310.15	1.2812	4	1376.61	2.64
310.15	1.508	4	1384.65	2.37
318.15	0.1207	4	1323.59	2.57
318.15	0.3483	4	1332.38	2.83
318.15	0.5805	4	1343.8	2.7
318.15	0.8061	4	1351.38	2.51
318.15	1.0448	4	1361.49	2.81
318.15	1.2812	4	1372.11	2.63
318.15	1.508	4	1380.1	2.32
323.15	0.1207	4	1320.63	2.54
323.15	0.3483	4	1329.38	2.82
323.15	0.5805	4	1340.72	2.69
323.15	0.8061	4	1348.27	2.5
323.15	1.0448	4	1358.34	2.81
323.15	1.2812	4	1368.93	2.62
323.15	1.508	4	1376.86	2.33
328.15	0.1207	4	1317.44	2.52
328.15	0.3483	4	1326.18	2.81
328.15	0.5805	4	1337.5	2.68
328.15	0.8061	4	1345.04	2.49
328.15	1.0448	4	1355.05	2.8
328.15	1.2812	4	1365.62	2.61
328.15	1.508	4	1373.51	2.33

System: potassium chloride + water + N-[tris(hydroxymethyl)methyl]-3-amino-2-hydroxypropane sulfonic acid; phases: Liquid
Fixed: Pressure, kPa = 101.3
Property: Mass density, kg/m3 (Liquid); method: Vibrating tube method
Temperature, K	Molality, mol/kg of N-[tris(hydroxymethyl)methyl]-3-amino-2-hydroxypropane sulfonic acid	Solvent: Amount concentration (molarity), mol/dm3 of potassium chloride	Mass density, kg/m3	uncertainty
298.15	0.1527	1	1057.36	5.09
298.15	0.447	1	1081.86	4.98
298.15	0.6017	1	1093.77	4.79
298.15	0.7409	1	1104.79	4.9
298.15	1.0244	1	1127.53	4.92
303.15	0.1527	1	1055.4	5.1
303.15	0.447	1	1079.88	4.95
303.15	0.6017	1	1091.34	4.75
303.15	0.7409	1	1102.66	4.93
303.15	1.0244	1	1125.37	4.9
310.15	0.1527	1	1052.45	5.1
310.15	0.447	1	1076.89	4.88
310.15	0.6017	1	1087.73	4.72
310.15	0.7409	1	1099.55	4.97
310.15	1.0244	1	1122.16	4.87
318.15	0.1527	1	1048.78	5.09
318.15	0.447	1	1073.19	4.82
318.15	0.6017	1	1083.46	4.69
318.15	0.7409	1	1095.72	5
318.15	1.0244	1	1118.23	4.86
323.15	0.1527	1	1046.33	5.08
323.15	0.447	1	1070.72	4.79
323.15	0.6017	1	1080.73	4.67
323.15	0.7409	1	1093.18	5
323.15	1.0244	1	1115.62	4.85
328.15	0.1527	1	1043.77	5.07
328.15	0.447	1	1068.16	4.71
328.15	0.6017	1	1077.83	4.66
328.15	0.7409	1	1090.53	5.05
328.15	1.0244	1	1112.93	4.85
298.15	0.1442	2	1100.4	5.15
298.15	0.4258	2	1124.17	4.87
298.15	0.7081	2	1145.19	4.51
298.15	0.9843	2	1165.11	4.29
298.15	1.1243	2	1174.27	3.77
303.15	0.1442	2	1098.24	5.14
303.15	0.4258	2	1121.93	4.91
303.15	0.7081	2	1143.44	4.51
303.15	0.9843	2	1162.94	4.12
303.15	1.1243	2	1170.82	3.78
310.15	0.1442	2	1095.03	5.12
310.15	0.4258	2	1118.63	4.92
310.15	0.7081	2	1140.32	4.52
310.15	0.9843	2	1159.72	4.06
310.15	1.1243	2	1167.32	3.4
318.15	0.1442	2	1091.1	5.1
318.15	0.4258	2	1114.61	4.93
318.15	0.7081	2	1136.48	4.53
318.15	0.9843	2	1155.8	3.97
318.15	1.1243	2	1162.66	3.28
323.15	0.1442	2	1088.49	5.08
323.15	0.4258	2	1111.97	4.94
323.15	0.7081	2	1133.94	4.54
323.15	0.9843	2	1153.2	4.01
323.15	1.1243	2	1160.39	3.21
328.15	0.1442	2	1085.92	5.14
328.15	0.4258	2	1109.71	4.93
328.15	0.7081	2	1131.31	4.49
328.15	0.9843	2	1150.52	3.92
328.15	1.1243	2	1157.38	2.99
298.15	0.1338	4	1187.35	3.66
298.15	0.3965	4	1202.77	3.92
298.15	0.656	4	1220.32	4
298.15	0.9172	4	1236.39	3.66
298.15	1.1806	4	1251.1	3.69
298.15	1.4386	4	1267.21	3.88
303.15	0.1338	4	1184.89	3.67
303.15	0.3965	4	1200.32	3.93
303.15	0.656	4	1217.94	4.1
303.15	0.9172	4	1234.8	3.68
303.15	1.1806	4	1248.86	3.61
303.15	1.4386	4	1264.91	3.85
310.15	0.1338	4	1181.31	3.7
310.15	0.3965	4	1196.84	3.94
310.15	0.656	4	1214.46	3.99
310.15	0.9172	4	1230.3	3.7
310.15	1.1806	4	1245.56	3.72
310.15	1.4386	4	1261.42	3.82
318.15	0.1338	4	1177.03	3.67
318.15	0.3965	4	1192.46	3.95
318.15	0.656	4	1210.31	4.01
318.15	0.9172	4	1226.18	3.71
318.15	1.1806	4	1241.54	3.73
318.15	1.4386	4	1257.4	3.81
323.15	0.1338	4	1174.26	3.67
323.15	0.3965	4	1189.69	3.96
323.15	0.656	4	1207.6	3.85
325.15	0.9172	4	1223.55	3.57
323.15	1.1806	4	1238.9	3.82
323.15	1.4386	4	1254.72	3.81
328.15	0.1338	4	1171.4	3.71
328.15	0.3965	4	1187.01	3.97
328.15	0.656	4	1204.81	4.02
328.15	0.9172	4	1220.82	3.73
328.15	1.1806	4	1236.16	3.72
328.15	1.4386	4	1251.94	3.81

System: sodium chloride + water + N-[tris(hydroxymethyl)methyl]-3-amino-2-hydroxypropane sulfonic acid; phases: Liquid
Fixed: Pressure, kPa = 101.3
Property: Mass density, kg/m3 (Liquid); method: Vibrating tube method
Temperature, K	Molality, mol/kg of N-[tris(hydroxymethyl)methyl]-3-amino-2-hydroxypropane sulfonic acid	Amount concentration (molarity), mol/dm3 of sodium chloride	Mass density, kg/m3	uncertainty
298.15	0.086	1	1050.03	5.01
298.15	0.1531	1	1055.52	5.01
298.15	0.4516	1	1078.67	4.86
298.15	0.7401	1	1102.06	4.87
298.15	0.889	1	1113.32	4.65
303.15	0.086	1	1047.64	4.93
303.15	0.1531	1	1053.02	4.91
303.15	0.4516	1	1076.08	4.84
303.15	0.7401	1	1099.39	4.86
303.15	0.889	1	1110.56	4.62
310.15	0.086	1	1044.24	4.88
310.15	0.1531	1	1049.51	4.76
310.15	0.4516	1	1072.47	4.82
310.15	0.7401	1	1095.67	4.83
310.15	0.889	1	1106.75	4.56
318.15	0.086	1	1040.14	4.86
318.15	0.1531	1	1045.3	4.59
318.15	0.4516	1	1068.19	4.8
318.15	0.7401	1	1091.22	4.8
318.15	0.889	1	1102.27	4.51
323.15	0.086	1	1037.18	4.75
323.15	0.1531	1	1042.3	4.63
323.15	0.4516	1	1065.11	4.79
323.15	0.7401	1	1088.11	4.8
323.15	0.889	1	1099.12	4.53
328.15	0.086	1	1033.99	4.68
328.15	0.1531	1	1039.1	4.68
328.15	0.4516	1	1061.89	4.79
328.15	0.7401	1	1084.88	4.78
328.15	0.889	1	1095.83	4.53
298.15	0.1404	2	1090.12	4.78
298.15	0.4405	2	1114.01	4.82
298.15	0.7166	2	1135.34	4.52
298.15	1.0024	2	1155.3	4.3
298.15	1.149	2	1165.23	4.19
303.15	0.1404	2	1087.73	4.82
303.15	0.4405	2	1111.54	4.8
303.15	0.7166	2	1132.81	4.51
303.15	1.0024	2	1152.71	4.31
303.15	1.149	2	1162.58	4.16
310.15	0.1404	2	1084.31	4.8
310.15	0.4405	2	1108.03	4.78
310.15	0.7166	2	1129.2	4.49
310.15	1.0024	2	1149.03	4.29
310.15	1.149	2	1158.82	4.11
318.15	0.1404	2	1080.29	4.78
318.15	0.4405	2	1103.82	4.75
318.15	0.7166	2	1124.83	4.47
318.15	1.0024	2	1144.57	4.27
318.15	1.149	2	1154.33	4.09
323.15	0.1404	2	1077.48	4.76
323.15	0.4405	2	1100.94	4.74
323.15	0.7166	2	1121.91	4.46
323.15	1.0024	2	1141.61	4.28
323.15	1.149	2	1151.34	4.1
328.15	0.1404	2	1074.57	4.74
328.15	0.4405	2	1098	4.73
328.15	0.7166	2	1118.94	4.45
328.15	1.0024	2	1138.61	4.24
328.15	1.149	2	1148.28	4.08
298.15	0.1385	4	1163.59	3.98
298.15	0.4092	4	1180.97	4.14
298.15	0.6746	4	1199.45	4.1
298.15	0.958	4	1217.3	3.37
298.15	1.1999	4	1227.45	3.47
298.15	1.4247	4	1243.15	4.31
303.15	0.1385	4	1161.35	3.97
303.15	0.4092	4	1178.64	4.12
303.15	0.6746	4	1197.04	4.08
303.15	0.958	4	1214.82	3.37
303.15	1.1999	4	1224.9	3.44
303.15	1.4247	4	1240.51	4.29
310.15	0.1385	4	1158.09	3.95
310.15	0.4092	4	1175.28	4.1
310.15	0.6746	4	1193.58	4.06
310.15	0.958	4	1211.27	3.35
310.15	1.1999	4	1221.26	3.42
310.15	1.4247	4	1236.84	4.27
318.15	0.1385	4	1154.18	3.93
318.15	0.4092	4	1171.22	4.07
318.15	0.6746	4	1189.4	4.03
318.15	0.958	4	1206.97	3.33
318.15	1.1999	4	1216.93	3.42
318.15	1.4247	4	1232.48	4.25
323.15	0.1385	4	1151.45	3.91
323.15	0.4092	4	1168.43	4.06
323.15	0.6746	4	1186.55	4.02
323.15	0.958	4	1204.08	3.32
323.15	1.1999	4	1214.01	3.41
323.15	1.4247	4	1229.53	4.26
328.15	0.1385	4	1148.55	3.89
328.15	0.4092	4	1165.51	4.05
328.15	0.6746	4	1183.61	4.02
328.15	0.958	4	1201.12	3.3
328.15	1.1999	4	1210.98	3.41
328.15	1.4247	4	1226.48	4.26
