Measured thermophysical data. Thermodynamic properties of (an ester + an alkane). XVI. Experimental HEm and V Em values and a new correlation method for (an alkyl ethanoate + an n-alkane) at 318.15 K
Source: J. Chem. Thermodyn., 2004, 10.1016/j.jct.2003.11.008
Compound 1: methyl ethanoate, C3H6O2, InChI=1S/C3H6O2/c1-3(4)5-2/h1-2H3, purity 99.5%
Compound 2: ethyl acetate, C4H8O2, InChI=1S/C4H8O2/c1-3-6-4(2)5/h3H2,1-2H3, purity 99.5%
Compound 3: propyl ethanoate, C5H10O2, InChI=1S/C5H10O2/c1-3-4-7-5(2)6/h3-4H2,1-2H3, purity 98%
Compound 4: butyl ethanoate, C6H12O2, InChI=1S/C6H12O2/c1-3-4-5-8-6(2)7/h3-5H2,1-2H3, purity 99.7%
Compound 5: pentyl ethanoate, C7H14O2, InChI=1S/C7H14O2/c1-3-4-5-6-9-7(2)8/h3-6H2,1-2H3, purity 99%
Compound 6: heptane, C7H16, InChI=1S/C7H16/c1-3-5-7-6-4-2/h3-7H2,1-2H3, purity 99.5%
Compound 7: nonane, C9H20, InChI=1S/C9H20/c1-3-5-7-9-8-6-4-2/h3-9H2,1-2H3, purity 99%
Compound 8: undecane, C11H24, InChI=1S/C11H24/c1-3-5-7-9-11-10-8-6-4-2/h3-11H2,1-2H3, purity 99%
Compound 9: tridecane, C13H28, InChI=1S/C13H28/c1-3-5-7-9-11-13-12-10-8-6-4-2/h3-13H2,1-2H3, purity 99%
Compound 10: pentadecane, C15H32, InChI=1S/C15H32/c1-3-5-7-9-11-13-15-14-12-10-8-6-4-2/h3-15H2,1-2H3, purity 98%
Compound 11: heptadecane, C17H36, InChI=1S/C17H36/c1-3-5-7-9-11-13-15-17-16-14-12-10-8-6-4-2/h3-17H2,1-2H3, purity 98%

System: methyl ethanoate; phases: Liquid
Property: Refractive index (Na D-line) (Liquid); method: Standard Abbe refractometry
Temperature, K	Pressure, kPa	Refractive index (Na D-line)	uncertainty
318.15	101.325	1.349	0.0007

System: methyl ethanoate; phases: Liquid
Property: Mass density, kg/m3 (Liquid); method: Vibrating tube method
Temperature, K	Pressure, kPa	Mass density, kg/m3	uncertainty
318.15	101.325	900.1	0.24

System: ethyl acetate; phases: Liquid
Property: Refractive index (Na D-line) (Liquid); method: Standard Abbe refractometry
Temperature, K	Pressure, kPa	Refractive index (Na D-line)	uncertainty
318.15	101.325	1.3597	0.0007

System: ethyl acetate; phases: Liquid
Property: Mass density, kg/m3 (Liquid); method: Vibrating tube method
Temperature, K	Pressure, kPa	Mass density, kg/m3	uncertainty
318.15	101.325	869.54	0.24

System: propyl ethanoate; phases: Liquid
Property: Refractive index (Na D-line) (Liquid); method: Standard Abbe refractometry
Temperature, K	Pressure, kPa	Refractive index (Na D-line)	uncertainty
318.15	101.325	1.3721	0.0008

System: propyl ethanoate; phases: Liquid
Property: Mass density, kg/m3 (Liquid); method: Vibrating tube method
Temperature, K	Pressure, kPa	Mass density, kg/m3	uncertainty
318.15	101.325	859.78	0.88

System: butyl ethanoate; phases: Liquid
Property: Refractive index (Na D-line) (Liquid); method: Standard Abbe refractometry
Temperature, K	Pressure, kPa	Refractive index (Na D-line)	uncertainty
318.15	101.325	1.3825	0.0007

System: butyl ethanoate; phases: Liquid
Property: Mass density, kg/m3 (Liquid); method: Vibrating tube method
Temperature, K	Pressure, kPa	Mass density, kg/m3	uncertainty
318.15	101.325	855.39	0.17

System: pentyl ethanoate; phases: Liquid
Property: Refractive index (Na D-line) (Liquid); method: Standard Abbe refractometry
Temperature, K	Pressure, kPa	Refractive index (Na D-line)	uncertainty
318.15	101.325	1.391	0.0008

System: pentyl ethanoate; phases: Liquid
Property: Mass density, kg/m3 (Liquid); method: Vibrating tube method
Temperature, K	Pressure, kPa	Mass density, kg/m3	uncertainty
318.15	101.325	852.93	0.45

System: heptane; phases: Liquid
Property: Refractive index (Na D-line) (Liquid); method: Standard Abbe refractometry
Temperature, K	Pressure, kPa	Refractive index (Na D-line)	uncertainty
318.15	101.325	1.3748	0.0007

System: heptane; phases: Liquid
Property: Mass density, kg/m3 (Liquid); method: Vibrating tube method
Temperature, K	Pressure, kPa	Mass density, kg/m3	uncertainty
318.15	101.325	662.04	0.27

System: nonane; phases: Liquid
Property: Refractive index (Na D-line) (Liquid); method: Standard Abbe refractometry
Temperature, K	Pressure, kPa	Refractive index (Na D-line)	uncertainty
318.15	101.325	1.3939	0.0008

System: nonane; phases: Liquid
Property: Mass density, kg/m3 (Liquid); method: Vibrating tube method
Temperature, K	Pressure, kPa	Mass density, kg/m3	uncertainty
318.15	101.325	698.06	0.4

System: undecane; phases: Liquid
Property: Refractive index (Na D-line) (Liquid); method: Standard Abbe refractometry
Temperature, K	Pressure, kPa	Refractive index (Na D-line)	uncertainty
318.15	101.325	1.4063	0.0008

System: undecane; phases: Liquid
Property: Mass density, kg/m3 (Liquid); method: Vibrating tube method
Temperature, K	Pressure, kPa	Mass density, kg/m3	uncertainty
318.15	101.325	721.76	0.41

System: tridecane; phases: Liquid
Property: Refractive index (Na D-line) (Liquid); method: Standard Abbe refractometry
Temperature, K	Pressure, kPa	Refractive index (Na D-line)	uncertainty
318.15	101.325	1.4155	0.0008

System: tridecane; phases: Liquid
Property: Mass density, kg/m3 (Liquid); method: Vibrating tube method
Temperature, K	Pressure, kPa	Mass density, kg/m3	uncertainty
318.15	101.325	738.34	0.41

System: pentadecane; phases: Liquid
Property: Refractive index (Na D-line) (Liquid); method: Standard Abbe refractometry
Temperature, K	Pressure, kPa	Refractive index (Na D-line)	uncertainty
318.15	101.325	1.4212	0.0008

System: pentadecane; phases: Liquid
Property: Mass density, kg/m3 (Liquid); method: Vibrating tube method
Temperature, K	Pressure, kPa	Mass density, kg/m3	uncertainty
318.15	101.325	750.9	0.78

System: heptadecane; phases: Liquid
Property: Refractive index (Na D-line) (Liquid); method: Standard Abbe refractometry
Temperature, K	Pressure, kPa	Refractive index (Na D-line)	uncertainty
318.15	101.325	1.4268	0.0008

System: heptadecane; phases: Liquid
Property: Mass density, kg/m3 (Liquid); method: Vibrating tube method
Temperature, K	Pressure, kPa	Mass density, kg/m3	uncertainty
318.15	101.325	760.8	0.79

System: methyl ethanoate + heptane; phases: Liquid
Fixed: Temperature, K = 318.15
Fixed: Pressure, kPa = 101.3
Property: Excess molar enthalpy (molar enthalpy of mixing), kJ/mol (Liquid); method: CALVET:UFactor:2
Mole fraction of methyl ethanoate	Excess molar enthalpy (molar enthalpy of mixing), kJ/mol	uncertainty
0.0778	0.571	0.0105
0.1534	1.0183	0.0174
0.2251	1.3854	0.023
0.2785	1.5803	0.026
0.3445	1.7825	0.0292
0.4038	1.8877	0.0308
0.4555	1.9308	0.0315
0.5034	1.9471	0.0317
0.5451	1.93	0.0314
0.5759	1.9068	0.0311
0.6498	1.7917	0.0293
0.6832	1.7414	0.0285
0.7322	1.6269	0.0268
0.7698	1.4883	0.0246
0.8184	1.3079	0.0218
0.873	1.0458	0.0178
0.9036	0.7904	0.0139
0.9534	0.45	0.0086

System: methyl ethanoate + heptane; phases: Liquid
Fixed: Temperature, K = 318.15
Fixed: Pressure, kPa = 101.3
Property: Excess molar volume, m3/mol (Liquid); method: SAME:UFactor:2
Mole fraction of methyl ethanoate	Excess molar volume, m3/mol	uncertainty
0.096	6.73e-07	1.9e-08
0.1583	9.83e-07	2e-08
0.2293	1.293e-06	2.2e-08
0.2947	1.495e-06	2.2e-08
0.3534	1.597e-06	2.3e-08
0.408	1.665e-06	2.3e-08
0.4619	1.705e-06	2.3e-08
0.5159	1.699e-06	2.3e-08
0.5572	1.659e-06	2.3e-08
0.6064	1.605e-06	2.3e-08
0.6501	1.535e-06	2.3e-08
0.6915	1.451e-06	2.2e-08
0.7275	1.345e-06	2.2e-08
0.7645	1.228e-06	2.1e-08
0.8471	8.83e-07	2e-08
0.9111	5.53e-07	1.8e-08
0.9577	2.83e-07	1.7e-08

System: methyl ethanoate + nonane; phases: Liquid
Fixed: Temperature, K = 318.15
Fixed: Pressure, kPa = 101.3
Property: Excess molar enthalpy (molar enthalpy of mixing), kJ/mol (Liquid); method: CALVET:UFactor:2
Mole fraction of methyl ethanoate	Excess molar enthalpy (molar enthalpy of mixing), kJ/mol	uncertainty
0.0822	0.5468	0.0101
0.1628	1.0081	0.0172
0.2353	1.3997	0.0233
0.2999	1.6673	0.0274
0.364	1.8764	0.0306
0.4195	2.0144	0.0328
0.4714	2.0799	0.0338
0.5122	2.1101	0.0342
0.549	2.1215	0.0344
0.5847	2.1168	0.0343
0.621	2.1004	0.0341
0.6618	2.0492	0.0333
0.7017	1.9387	0.0316
0.7452	1.8103	0.0296
0.7891	1.6241	0.0267
0.8353	1.4337	0.0238
0.8771	1.2072	0.0203
0.9219	0.8697	0.0151
0.9643	0.4326	0.0085

System: methyl ethanoate + nonane; phases: Liquid
Fixed: Temperature, K = 318.15
Fixed: Pressure, kPa = 101.3
Property: Excess molar volume, m3/mol (Liquid); method: SAME:UFactor:2
Mole fraction of methyl ethanoate	Excess molar volume, m3/mol	uncertainty
0.1052	6.91e-07	1.9e-08
0.2035	1.199e-06	2.1e-08
0.2896	1.534e-06	2.3e-08
0.3598	1.693e-06	2.3e-08
0.4249	1.805e-06	2.4e-08
0.4901	1.864e-06	2.4e-08
0.547	1.881e-06	2.4e-08
0.5991	1.837e-06	2.4e-08
0.6418	1.774e-06	2.4e-08
0.6901	1.658e-06	2.3e-08
0.7312	1.562e-06	2.3e-08
0.7687	1.431e-06	2.2e-08
0.7969	1.305e-06	2.2e-08
0.8736	9.39e-07	2e-08
0.925	6.28e-07	1.8e-08
0.9663	3.07e-07	1.7e-08

System: methyl ethanoate + undecane; phases: Liquid
Fixed: Temperature, K = 318.15
Fixed: Pressure, kPa = 101.3
Property: Excess molar enthalpy (molar enthalpy of mixing), kJ/mol (Liquid); method: CALVET:UFactor:2
Mole fraction of methyl ethanoate	Excess molar enthalpy (molar enthalpy of mixing), kJ/mol	uncertainty
0.1	0.6719	0.012
0.203	1.2414	0.0208
0.2975	1.6998	0.0279
0.3707	1.9894	0.0324
0.4315	2.158	0.035
0.4836	2.2502	0.0364
0.528	2.2905	0.037
0.5612	2.295	0.0371
0.5935	2.2942	0.0371
0.6178	2.2754	0.0368
0.6538	2.2302	0.0361
0.6915	2.1647	0.0351
0.7306	2.0665	0.0336
0.769	1.9376	0.0316
0.8102	1.7479	0.0286
0.851	1.5495	0.0256
0.888	1.253	0.021
0.9283	0.9322	0.0161
0.9664	0.5209	0.0099

System: methyl ethanoate + undecane; phases: Liquid
Fixed: Temperature, K = 318.15
Fixed: Pressure, kPa = 101.3
Property: Excess molar volume, m3/mol (Liquid); method: SAME:UFactor:2
Mole fraction of methyl ethanoate	Excess molar volume, m3/mol	uncertainty
0.1232	7.69e-07	1.9e-08
0.2463	1.347e-06	2.2e-08
0.3266	1.58e-06	2.3e-08
0.3942	1.734e-06	2.4e-08
0.4679	1.879e-06	2.4e-08
0.5333	1.922e-06	2.4e-08
0.5823	1.908e-06	2.4e-08
0.6365	1.851e-06	2.4e-08
0.68	1.765e-06	2.4e-08
0.7221	1.676e-06	2.3e-08
0.76	1.554e-06	2.3e-08
0.7954	1.415e-06	2.2e-08
0.8183	1.337e-06	2.2e-08
0.8875	9.9e-07	2e-08
0.935	6.43e-07	1.8e-08
0.9683	3.52e-07	1.7e-08

System: methyl ethanoate + tridecane; phases: Liquid
Fixed: Temperature, K = 318.15
Fixed: Pressure, kPa = 101.3
Property: Excess molar enthalpy (molar enthalpy of mixing), kJ/mol (Liquid); method: CALVET:UFactor:2
Mole fraction of methyl ethanoate	Excess molar enthalpy (molar enthalpy of mixing), kJ/mol	uncertainty
0.1268	0.8261	0.0144
0.2391	1.4275	0.0237
0.3316	1.8736	0.0306
0.4097	2.1621	0.0351
0.4693	2.3124	0.0374
0.5214	2.3871	0.0385
0.5635	2.4174	0.039
0.5965	2.431	0.0392
0.6319	2.4002	0.0387
0.6706	2.3368	0.0378
0.7114	2.2357	0.0362
0.7533	2.1087	0.0342
0.7939	1.9285	0.0314
0.8383	1.6799	0.0276
0.883	1.3798	0.023
0.9274	1.0123	0.0173
0.9665	0.5564	0.0104

System: methyl ethanoate + tridecane; phases: Liquid
Fixed: Temperature, K = 318.15
Fixed: Pressure, kPa = 101.3
Property: Excess molar volume, m3/mol (Liquid); method: SAME:UFactor:2
Mole fraction of methyl ethanoate	Excess molar volume, m3/mol	uncertainty
0.1152	6.95e-07	1.9e-08
0.195	1.093e-06	2.1e-08
0.2573	1.364e-06	2.2e-08
0.3086	1.537e-06	2.3e-08
0.357	1.665e-06	2.3e-08
0.4302	1.838e-06	2.4e-08
0.5045	1.919e-06	2.4e-08
0.561	1.946e-06	2.5e-08
0.6192	1.917e-06	2.4e-08
0.666	1.849e-06	2.4e-08
0.7125	1.753e-06	2.4e-08
0.7495	1.651e-06	2.3e-08
0.8399	1.288e-06	2.1e-08
0.8997	9.51e-07	2e-08
0.9425	6.18e-07	1.8e-08
0.9745	2.97e-07	1.7e-08

System: methyl ethanoate + pentadecane; phases: Liquid
Fixed: Temperature, K = 318.15
Fixed: Pressure, kPa = 101.3
Property: Excess molar enthalpy (molar enthalpy of mixing), kJ/mol (Liquid); method: CALVET:UFactor:2
Mole fraction of methyl ethanoate	Excess molar enthalpy (molar enthalpy of mixing), kJ/mol	uncertainty
0.091	0.5866	0.0107
0.1824	1.1397	0.0192
0.2689	1.6378	0.0269
0.3572	2.041	0.0332
0.4282	2.2951	0.0371
0.4946	2.4525	0.0395
0.5472	2.5124	0.0405
0.5908	2.5133	0.0405
0.6306	2.4865	0.0401
0.6559	2.4452	0.0394
0.6897	2.3741	0.0383
0.7229	2.2757	0.0368
0.7578	2.1736	0.0352
0.7947	2.0248	0.0329
0.8299	1.8314	0.0299
0.8675	1.6114	0.0265
0.905	1.3228	0.0221
0.94	0.9954	0.0171
0.9723	0.6205	0.0114

System: methyl ethanoate + pentadecane; phases: Liquid
Fixed: Temperature, K = 318.15
Fixed: Pressure, kPa = 101.3
Property: Excess molar volume, m3/mol (Liquid); method: SAME:UFactor:4
Mole fraction of methyl ethanoate	Excess molar volume, m3/mol	uncertainty
0.1527	8.72e-07	3.9e-08
0.2889	1.467e-06	4.5e-08
0.3786	1.739e-06	4.7e-08
0.4627	1.898e-06	4.9e-08
0.5368	1.979e-06	4.9e-08
0.5993	2.002e-06	5e-08
0.6511	1.945e-06	4.9e-08
0.6955	1.858e-06	4.8e-08
0.7356	1.746e-06	4.7e-08
0.777	1.644e-06	4.6e-08
0.8099	1.512e-06	4.5e-08
0.8412	1.386e-06	4.4e-08
0.8595	1.259e-06	4.3e-08
0.9126	9.19e-07	4e-08
0.9511	5.84e-07	3.6e-08
0.9777	2.73e-07	3.4e-08

System: methyl ethanoate + heptadecane; phases: Liquid
Fixed: Temperature, K = 318.15
Fixed: Pressure, kPa = 101.3
Property: Excess molar enthalpy (molar enthalpy of mixing), kJ/mol (Liquid); method: CALVET:UFactor:2
Mole fraction of methyl ethanoate	Excess molar enthalpy (molar enthalpy of mixing), kJ/mol	uncertainty
0.113	0.7352	0.013
0.2193	1.3698	0.0228
0.3028	1.8158	0.0297
0.3894	2.178	0.0353
0.4626	2.4113	0.0389
0.5247	2.5369	0.0409
0.5794	2.573	0.0414
0.6278	2.5408	0.0409
0.6655	2.4801	0.04
0.6858	2.4334	0.0393
0.7195	2.3421	0.0378
0.7539	2.2098	0.0358
0.7883	2.0475	0.0333
0.8246	1.8573	0.0303
0.861	1.6651	0.0274
0.8938	1.4465	0.024
0.9264	1.2143	0.0204
0.9502	0.9862	0.017
0.9763	0.6063	0.0113

System: methyl ethanoate + heptadecane; phases: Liquid
Fixed: Temperature, K = 318.15
Fixed: Pressure, kPa = 101.3
Property: Excess molar volume, m3/mol (Liquid); method: SAME:UFactor:4
Mole fraction of methyl ethanoate	Excess molar volume, m3/mol	uncertainty
0.0872	4.73e-07	3.5e-08
0.1719	9e-07	3.9e-08
0.2901	1.422e-06	4.4e-08
0.3832	1.742e-06	4.7e-08
0.4682	1.916e-06	4.9e-08
0.5391	1.999e-06	5e-08
0.5988	2.022e-06	5e-08
0.6524	1.981e-06	4.9e-08
0.694	1.916e-06	4.9e-08
0.7348	1.806e-06	4.8e-08
0.7632	1.698e-06	4.7e-08
0.8016	1.579e-06	4.6e-08
0.827	1.455e-06	4.5e-08
0.8469	1.363e-06	4.4e-08
0.8704	1.246e-06	4.3e-08
0.9208	9.07e-07	3.9e-08
0.9545	5.89e-07	3.6e-08
0.9807	2.74e-07	3.4e-08

System: ethyl acetate + heptane; phases: Liquid
Fixed: Temperature, K = 318.15
Fixed: Pressure, kPa = 101.3
Property: Excess molar enthalpy (molar enthalpy of mixing), kJ/mol (Liquid); method: CALVET:UFactor:2
Mole fraction of ethyl acetate	Excess molar enthalpy (molar enthalpy of mixing), kJ/mol	uncertainty
0.0803	0.4712	0.0089
0.1683	0.8381	0.0146
0.2488	1.1309	0.0191
0.323	1.3256	0.0221
0.395	1.4465	0.024
0.4614	1.5007	0.0248
0.5037	1.5121	0.025
0.546	1.519	0.0251
0.5784	1.4947	0.0247
0.5813	1.492	0.0247
0.6222	1.4277	0.0237
0.6647	1.348	0.0224
0.7146	1.2398	0.0208
0.7646	1.088	0.0184
0.8157	0.907	0.0156
0.8649	0.7106	0.0126
0.9129	0.482	0.0091
0.9591	0.2492	0.0055

System: ethyl acetate + heptane; phases: Liquid
Fixed: Temperature, K = 318.15
Fixed: Pressure, kPa = 101.3
Property: Excess molar volume, m3/mol (Liquid); method: SAME:UFactor:2
Mole fraction of ethyl acetate	Excess molar volume, m3/mol	uncertainty
0.0808	4.63e-07	1.8e-08
0.143	7.33e-07	1.9e-08
0.2084	9.35e-07	2e-08
0.2751	1.105e-06	2.1e-08
0.3329	1.204e-06	2.1e-08
0.3968	1.263e-06	2.1e-08
0.4462	1.303e-06	2.2e-08
0.5057	1.309e-06	2.2e-08
0.5536	1.289e-06	2.1e-08
0.6019	1.236e-06	2.1e-08
0.6506	1.163e-06	2.1e-08
0.6848	1.107e-06	2.1e-08
0.7249	1.019e-06	2e-08
0.8166	7.67e-07	1.9e-08
0.8964	4.43e-07	1.8e-08
0.9478	2.47e-07	1.7e-08

System: nonane + ethyl acetate; phases: Liquid
Fixed: Temperature, K = 318.15
Fixed: Pressure, kPa = 101.3
Property: Excess molar enthalpy (molar enthalpy of mixing), kJ/mol (Liquid); method: CALVET:UFactor:2
Mole fraction of ethyl acetate	Excess molar enthalpy (molar enthalpy of mixing), kJ/mol	uncertainty
0.0596	0.3637	0.0073
0.131	0.7182	0.0127
0.2117	1.0579	0.018
0.295	1.3229	0.0221
0.3664	1.5128	0.025
0.436	1.6493	0.0271
0.4899	1.6992	0.0279
0.5447	1.7064	0.028
0.5881	1.6688	0.0274
0.6166	1.6349	0.0269
0.629	1.6044	0.0264
0.6629	1.5591	0.0257
0.7061	1.4529	0.0241
0.752	1.3387	0.0223
0.7991	1.1608	0.0195
0.8421	0.9837	0.0168
0.8875	0.742	0.0131
0.9312	0.4925	0.0093
0.9672	0.2471	0.0055

System: nonane + ethyl acetate; phases: Liquid
Fixed: Temperature, K = 318.15
Fixed: Pressure, kPa = 101.3
Property: Excess molar volume, m3/mol (Liquid); method: SAME:UFactor:2
Mole fraction of ethyl acetate	Excess molar volume, m3/mol	uncertainty
0.0916	4.94e-07	1.8e-08
0.1769	8.53e-07	1.9e-08
0.2442	1.049e-06	2e-08
0.3108	1.228e-06	2.1e-08
0.3462	1.289e-06	2.1e-08
0.4363	1.418e-06	2.2e-08
0.4938	1.446e-06	2.2e-08
0.5469	1.447e-06	2.2e-08
0.5934	1.426e-06	2.2e-08
0.6418	1.361e-06	2.2e-08
0.6869	1.292e-06	2.2e-08
0.7308	1.202e-06	2.1e-08
0.7614	1.142e-06	2.1e-08
0.8417	8.49e-07	1.9e-08
0.9044	5.78e-07	1.8e-08
0.9558	2.94e-07	1.7e-08

System: ethyl acetate + undecane; phases: Liquid
Fixed: Temperature, K = 318.15
Fixed: Pressure, kPa = 101.3
Property: Excess molar enthalpy (molar enthalpy of mixing), kJ/mol (Liquid); method: CALVET:UFactor:2
Mole fraction of ethyl acetate	Excess molar enthalpy (molar enthalpy of mixing), kJ/mol	uncertainty
0.1003	0.623	0.0112
0.1944	1.0539	0.0179
0.2921	1.4341	0.0238
0.3767	1.6812	0.0276
0.4501	1.8114	0.0296
0.509	1.8528	0.0303
0.5537	1.845	0.0301
0.5965	1.8251	0.0298
0.6065	1.8121	0.0296
0.6498	1.7279	0.0283
0.6942	1.6305	0.0268
0.7366	1.5231	0.0252
0.7848	1.3634	0.0227
0.8361	1.1381	0.0192
0.8884	0.8614	0.0149
0.9357	0.5889	0.0108
0.9742	0.2492	0.0057

System: ethyl acetate + undecane; phases: Liquid
Fixed: Temperature, K = 318.15
Fixed: Pressure, kPa = 101.3
Property: Excess molar volume, m3/mol (Liquid); method: SAME:UFactor:4
Mole fraction of ethyl acetate	Excess molar volume, m3/mol	uncertainty
0.0632	3.65e-07	3.4e-08
0.1076	5.64e-07	3.6e-08
0.1921	8.99e-07	3.9e-08
0.2759	1.151e-06	4.2e-08
0.3521	1.328e-06	4.3e-08
0.4213	1.429e-06	4.4e-08
0.4771	1.49e-06	4.5e-08
0.5319	1.504e-06	4.5e-08
0.5859	1.504e-06	4.5e-08
0.6355	1.461e-06	4.5e-08
0.6817	1.385e-06	4.4e-08
0.7223	1.311e-06	4.3e-08
0.7656	1.17e-06	4.2e-08
0.7889	1.147e-06	4.2e-08
0.8628	8.46e-07	3.9e-08
0.9234	5.39e-07	3.6e-08
0.9664	2.63e-07	3.3e-08

System: ethyl acetate + tridecane; phases: Liquid
Fixed: Temperature, K = 318.15
Fixed: Pressure, kPa = 101.3
Property: Excess molar enthalpy (molar enthalpy of mixing), kJ/mol (Liquid); method: CALVET:UFactor:2
Mole fraction of ethyl acetate	Excess molar enthalpy (molar enthalpy of mixing), kJ/mol	uncertainty
0.0838	0.5093	0.0095
0.1616	0.9064	0.0156
0.2388	1.2651	0.0212
0.3097	1.5515	0.0256
0.3743	1.7565	0.0288
0.4307	1.8771	0.0306
0.4842	1.9519	0.0318
0.532	2.0015	0.0326
0.5728	2.0031	0.0326
0.6188	1.9833	0.0323
0.6556	1.9362	0.0315
0.6946	1.878	0.0306
0.7336	1.7876	0.0292
0.7755	1.6549	0.0272
0.8179	1.4797	0.0245
0.8605	1.2535	0.021
0.9015	1.001	0.0171
0.9432	0.6728	0.0121
0.9761	0.3132	0.0068

System: ethyl acetate + tridecane; phases: Liquid
Fixed: Temperature, K = 318.15
Fixed: Pressure, kPa = 101.3
Property: Excess molar volume, m3/mol (Liquid); method: SAME:UFactor:2
Mole fraction of ethyl acetate	Excess molar volume, m3/mol	uncertainty
0.1246	6.09e-07	1.8e-08
0.2249	9.81e-07	2e-08
0.3076	1.215e-06	2.1e-08
0.3854	1.386e-06	2.2e-08
0.4562	1.461e-06	2.2e-08
0.5148	1.515e-06	2.3e-08
0.5732	1.518e-06	2.3e-08
0.6235	1.506e-06	2.2e-08
0.6695	1.462e-06	2.2e-08
0.7136	1.402e-06	2.2e-08
0.7509	1.322e-06	2.2e-08
0.775	1.255e-06	2.1e-08
0.8123	1.128e-06	2.1e-08
0.881	8.36e-07	1.9e-08
0.9317	5.36e-07	1.8e-08
0.9691	2.65e-07	1.7e-08

System: ethyl acetate + pentadecane; phases: Liquid
Fixed: Temperature, K = 318.15
Fixed: Pressure, kPa = 101.3
Property: Excess molar enthalpy (molar enthalpy of mixing), kJ/mol (Liquid); method: CALVET:UFactor:2
Mole fraction of ethyl acetate	Excess molar enthalpy (molar enthalpy of mixing), kJ/mol	uncertainty
0.0901	0.559	0.0103
0.1777	1.0203	0.0174
0.2582	1.4179	0.0235
0.3339	1.7175	0.0282
0.397	1.9082	0.0311
0.4609	2.0478	0.0333
0.5093	2.1128	0.0343
0.5557	2.137	0.0347
0.6033	2.1311	0.0346
0.6563	2.0708	0.0336
0.6935	2.0096	0.0327
0.7292	1.9121	0.0312
0.7706	1.7755	0.0291
0.813	1.607	0.0265
0.8538	1.3886	0.0231
0.8958	1.1436	0.0193
0.9283	0.8801	0.0153
0.9676	0.4804	0.0092

System: ethyl acetate + pentadecane; phases: Liquid
Fixed: Temperature, K = 318.15
Fixed: Pressure, kPa = 101.3
Property: Excess molar volume, m3/mol (Liquid); method: SAME:UFactor:2
Mole fraction of ethyl acetate	Excess molar volume, m3/mol	uncertainty
0.0932	4.44e-07	1.8e-08
0.1272	5.87e-07	1.8e-08
0.2314	9.83e-07	2e-08
0.3237	1.237e-06	2.1e-08
0.4048	1.412e-06	2.2e-08
0.465	1.483e-06	2.2e-08
0.5427	1.54e-06	2.3e-08
0.5987	1.536e-06	2.3e-08
0.6373	1.512e-06	2.3e-08
0.6957	1.432e-06	2.2e-08
0.7643	1.293e-06	2.2e-08
0.8273	1.104e-06	2.1e-08
0.8926	8.05e-07	1.9e-08
0.9375	5.48e-07	1.8e-08
0.9714	2.73e-07	1.7e-08

System: ethyl acetate + heptadecane; phases: Liquid
Fixed: Temperature, K = 318.15
Fixed: Pressure, kPa = 101.3
Property: Excess molar enthalpy (molar enthalpy of mixing), kJ/mol (Liquid); method: CALVET:UFactor:2
Mole fraction of ethyl acetate	Excess molar enthalpy (molar enthalpy of mixing), kJ/mol	uncertainty
0.0911	0.5685	0.0104
0.1754	1.0263	0.0175
0.2543	1.4414	0.0239
0.3274	1.7343	0.0284
0.394	1.9528	0.0318
0.4566	2.1155	0.0343
0.512	2.197	0.0356
0.558	2.2334	0.0361
0.6007	2.2212	0.036
0.634	2.1866	0.0354
0.6486	2.171	0.0352
0.6818	2.1075	0.0342
0.7172	2.0313	0.033
0.7538	1.938	0.0316
0.7913	1.7831	0.0292
0.8271	1.6396	0.027
0.8653	1.4306	0.0237
0.9018	1.1999	0.0202
0.9382	0.9209	0.0159
0.9719	0.5071	0.0097

System: ethyl acetate + heptadecane; phases: Liquid
Fixed: Temperature, K = 318.15
Fixed: Pressure, kPa = 101.3
Property: Excess molar volume, m3/mol (Liquid); method: SAME:UFactor:2
Mole fraction of ethyl acetate	Excess molar volume, m3/mol	uncertainty
0.1461	6.4e-07	1.8e-08
0.2562	1.04e-06	2e-08
0.3512	1.284e-06	2.1e-08
0.4324	1.449e-06	2.2e-08
0.5057	1.538e-06	2.3e-08
0.5143	1.548e-06	2.3e-08
0.5756	1.565e-06	2.3e-08
0.5814	1.562e-06	2.3e-08
0.6778	1.503e-06	2.2e-08
0.7269	1.41e-06	2.2e-08
0.7898	1.273e-06	2.1e-08
0.8421	1.081e-06	2.1e-08
0.903	7.83e-07	1.9e-08
0.9457	5.1e-07	1.8e-08
0.9685	3.18e-07	1.7e-08

System: propyl ethanoate + heptane; phases: Liquid
Fixed: Temperature, K = 318.15
Fixed: Pressure, kPa = 101.3
Property: Excess molar enthalpy (molar enthalpy of mixing), kJ/mol (Liquid); method: CALVET:UFactor:2
Mole fraction of propyl ethanoate	Excess molar enthalpy (molar enthalpy of mixing), kJ/mol	uncertainty
0.0692	0.3455	0.0069
0.1449	0.6329	0.0114
0.2229	0.8839	0.0153
0.2968	1.052	0.0179
0.3635	1.1622	0.0196
0.4256	1.2203	0.0205
0.484	1.2363	0.0207
0.535	1.2171	0.0204
0.5539	1.187	0.0199
0.6002	1.1302	0.0191
0.6528	1.0508	0.0178
0.6987	0.9556	0.0164
0.7526	0.8282	0.0144
0.8089	0.6592	0.0118
0.8635	0.4933	0.0092
0.9048	0.3544	0.0071
0.9537	0.1852	0.0045

System: propyl ethanoate + heptane; phases: Liquid
Fixed: Temperature, K = 318.15
Fixed: Pressure, kPa = 101.3
Property: Excess molar volume, m3/mol (Liquid); method: SAME:UFactor:2
Mole fraction of propyl ethanoate	Excess molar volume, m3/mol	uncertainty
0.0727	3.32e-07	1.7e-08
0.1288	4.98e-07	1.8e-08
0.1829	6.45e-07	1.8e-08
0.2463	7.68e-07	1.9e-08
0.2995	8.38e-07	1.9e-08
0.3536	8.87e-07	2e-08
0.404	9.09e-07	2e-08
0.463	9.23e-07	2e-08
0.5069	9.1e-07	2e-08
0.5618	8.85e-07	2e-08
0.6574	7.96e-07	1.9e-08
0.6914	7.52e-07	1.9e-08
0.7928	5.61e-07	1.8e-08
0.8765	3.62e-07	1.7e-08
0.9436	1.75e-07	1.6e-08

System: propyl ethanoate + nonane; phases: Liquid
Fixed: Temperature, K = 318.15
Fixed: Pressure, kPa = 101.3
Property: Excess molar enthalpy (molar enthalpy of mixing), kJ/mol (Liquid); method: CALVET:UFactor:2
Mole fraction of propyl ethanoate	Excess molar enthalpy (molar enthalpy of mixing), kJ/mol	uncertainty
0.0866	0.4563	0.0087
0.1795	0.7984	0.0139
0.2657	1.0662	0.0181
0.344	1.2286	0.0206
0.4115	1.3299	0.0222
0.4797	1.3818	0.023
0.5358	1.3729	0.0228
0.5815	1.341	0.0223
0.6251	1.2864	0.0215
0.6703	1.2002	0.0201
0.7182	1.0975	0.0186
0.7662	0.9742	0.0167
0.8182	0.8258	0.0144
0.8684	0.6496	0.0116
0.9158	0.4407	0.0084
0.9598	0.2315	0.0052

System: propyl ethanoate + nonane; phases: Liquid
Fixed: Temperature, K = 318.15
Fixed: Pressure, kPa = 101.3
Property: Excess molar volume, m3/mol (Liquid); method: SAME:UFactor:2
Mole fraction of propyl ethanoate	Excess molar volume, m3/mol	uncertainty
0.0866	3.76e-07	1.7e-08
0.1486	5.74e-07	1.8e-08
0.2182	7.77e-07	1.9e-08
0.2774	8.96e-07	2e-08
0.3451	9.99e-07	2e-08
0.4053	1.075e-06	2e-08
0.4561	1.101e-06	2.1e-08
0.5089	1.111e-06	2.1e-08
0.5631	1.094e-06	2.1e-08
0.6115	1.058e-06	2e-08
0.6577	1.012e-06	2e-08
0.7051	9.38e-07	2e-08
0.7328	8.95e-07	2e-08
0.8254	6.64e-07	1.9e-08
0.8966	4.35e-07	1.8e-08
0.9496	2.29e-07	1.7e-08

System: propyl ethanoate + undecane; phases: Liquid
Fixed: Temperature, K = 318.15
Fixed: Pressure, kPa = 101.3
Property: Excess molar enthalpy (molar enthalpy of mixing), kJ/mol (Liquid); method: CALVET:UFactor:2
Mole fraction of propyl ethanoate	Excess molar enthalpy (molar enthalpy of mixing), kJ/mol	uncertainty
0.0814	0.4323	0.0083
0.1501	0.7221	0.0128
0.2265	1.0046	0.0171
0.2928	1.2057	0.0202
0.3534	1.3402	0.0223
0.4082	1.4283	0.0237
0.4582	1.48	0.0245
0.5031	1.4995	0.0248
0.5439	1.4965	0.0247
0.5841	1.4798	0.0245
0.6226	1.4431	0.0239
0.6441	1.3885	0.0231
0.6911	1.3037	0.0218
0.7407	1.1944	0.0201
0.7924	1.0446	0.0177
0.8458	0.8276	0.0144
0.8971	0.591	0.0108
0.9495	0.3265	0.0067

System: propyl ethanoate + undecane; phases: Liquid
Fixed: Temperature, K = 318.15
Fixed: Pressure, kPa = 101.3
Property: Excess molar volume, m3/mol (Liquid); method: SAME:UFactor:2
Mole fraction of propyl ethanoate	Excess molar volume, m3/mol	uncertainty
0.0791	3.43e-07	1.7e-08
0.1544	6e-07	1.8e-08
0.2306	8.2e-07	1.9e-08
0.2908	9.49e-07	2e-08
0.3479	1.051e-06	2e-08
0.4046	1.133e-06	2.1e-08
0.4573	1.159e-06	2.1e-08
0.51	1.176e-06	2.1e-08
0.5596	1.185e-06	2.1e-08
0.6019	1.165e-06	2.1e-08
0.6553	1.125e-06	2.1e-08
0.6903	1.077e-06	2.1e-08
0.7637	9.27e-07	2e-08
0.8486	6.89e-07	1.9e-08
0.9127	4.52e-07	1.8e-08
0.9592	2.26e-07	1.7e-08

System: propyl ethanoate + tridecane; phases: Liquid
Fixed: Temperature, K = 318.15
Fixed: Pressure, kPa = 101.3
Property: Excess molar enthalpy (molar enthalpy of mixing), kJ/mol (Liquid); method: CALVET:UFactor:2
Mole fraction of propyl ethanoate	Excess molar enthalpy (molar enthalpy of mixing), kJ/mol	uncertainty
0.087	0.4308	0.0083
0.1659	0.7845	0.0137
0.2413	1.0858	0.0184
0.3093	1.3037	0.0218
0.3709	1.4589	0.0242
0.4257	1.5579	0.0257
0.477	1.614	0.0266
0.5193	1.6327	0.0268
0.5602	1.6375	0.0269
0.6296	1.5847	0.0261
0.6706	1.5367	0.0254
0.716	1.4497	0.024
0.7628	1.3256	0.0221
0.809	1.1373	0.0192
0.8594	0.9107	0.0157
0.9097	0.659	0.0118
0.9585	0.3266	0.0068

System: propyl ethanoate + tridecane; phases: Liquid
Fixed: Temperature, K = 318.15
Fixed: Pressure, kPa = 101.3
Property: Excess molar volume, m3/mol (Liquid); method: SAME:UFactor:2
Mole fraction of propyl ethanoate	Excess molar volume, m3/mol	uncertainty
0.1139	4.77e-07	1.8e-08
0.1844	7.09e-07	1.9e-08
0.2748	9.32e-07	2e-08
0.3425	1.072e-06	2e-08
0.4123	1.16e-06	2.1e-08
0.4772	1.205e-06	2.1e-08
0.5337	1.232e-06	2.1e-08
0.5864	1.216e-06	2.1e-08
0.6311	1.183e-06	2.1e-08
0.6791	1.139e-06	2.1e-08
0.722	1.069e-06	2e-08
0.7535	1.012e-06	2e-08
0.7862	9.31e-07	2e-08
0.8631	6.98e-07	1.9e-08
0.9199	4.58e-07	1.8e-08
0.9642	2.27e-07	1.7e-08

System: propyl ethanoate + pentadecane; phases: Liquid
Fixed: Temperature, K = 318.15
Fixed: Pressure, kPa = 101.3
Property: Excess molar enthalpy (molar enthalpy of mixing), kJ/mol (Liquid); method: CALVET:UFactor:2
Mole fraction of propyl ethanoate	Excess molar enthalpy (molar enthalpy of mixing), kJ/mol	uncertainty
0.1056	0.5724	0.0105
0.1903	0.9605	0.0165
0.2687	1.2691	0.0212
0.3385	1.483	0.0245
0.4042	1.6284	0.0268
0.4596	1.7111	0.0281
0.5101	1.7599	0.0288
0.5521	1.7622	0.0288
0.5935	1.7419	0.0285
0.634	1.6954	0.0278
0.674	1.6267	0.0268
0.715	1.5437	0.0255
0.7583	1.4168	0.0235
0.8027	1.2574	0.021
0.8473	1.0615	0.018
0.8921	0.8085	0.0141
0.9369	0.529	0.0098
0.9732	0.2465	0.0056

System: propyl ethanoate + pentadecane; phases: Liquid
Fixed: Temperature, K = 318.15
Fixed: Pressure, kPa = 101.3
Property: Excess molar volume, m3/mol (Liquid); method: SAME:UFactor:2
Mole fraction of propyl ethanoate	Excess molar volume, m3/mol	uncertainty
0.0878	3.42e-07	1.7e-08
0.1416	5.35e-07	1.8e-08
0.2112	7.4e-07	1.9e-08
0.3035	9.75e-07	2e-08
0.3749	1.102e-06	2.1e-08
0.4446	1.188e-06	2.1e-08
0.5048	1.254e-06	2.1e-08
0.5631	1.259e-06	2.1e-08
0.6193	1.238e-06	2.1e-08
0.6657	1.213e-06	2.1e-08
0.742	1.093e-06	2.1e-08
0.8073	9.36e-07	2e-08
0.8769	6.9e-07	1.9e-08
0.9297	4.51e-07	1.8e-08
0.9673	2.26e-07	1.7e-08

System: propyl ethanoate + heptadecane; phases: Liquid
Fixed: Temperature, K = 318.15
Fixed: Pressure, kPa = 101.3
Property: Excess molar enthalpy (molar enthalpy of mixing), kJ/mol (Liquid); method: CALVET:UFactor:2
Mole fraction of propyl ethanoate	Excess molar enthalpy (molar enthalpy of mixing), kJ/mol	uncertainty
0.0838	0.4809	0.0091
0.1596	0.871	0.0151
0.2462	1.2604	0.0211
0.3255	1.5513	0.0256
0.3884	1.6972	0.0278
0.4477	1.8186	0.0297
0.4925	1.8706	0.0305
0.5313	1.8878	0.0308
0.5702	1.8856	0.0308
0.6288	1.8343	0.03
0.6644	1.7742	0.029
0.7023	1.6871	0.0277
0.7423	1.5887	0.0262
0.7826	1.4494	0.024
0.8239	1.2895	0.0215
0.8654	1.0963	0.0186
0.9064	0.8493	0.25
0.9452	0.5792	0.0106
0.9772	0.2782	0.0062

System: propyl ethanoate + heptadecane; phases: Liquid
Fixed: Temperature, K = 318.15
Fixed: Pressure, kPa = 101.3
Property: Excess molar volume, m3/mol (Liquid); method: SAME:UFactor:2
Mole fraction of propyl ethanoate	Excess molar volume, m3/mol	uncertainty
0.2332	8.02e-07	1.9e-08
0.3167	1.017e-06	2e-08
0.4087	1.166e-06	2.1e-08
0.4759	1.235e-06	2.1e-08
0.5393	1.28e-06	2.1e-08
0.5977	1.276e-06	2.1e-08
0.6463	1.246e-06	2.1e-08
0.6916	1.225e-06	2.1e-08
0.7628	1.103e-06	2.1e-08
0.8202	9.42e-07	2e-08
0.891	6.77e-07	1.9e-08
0.9375	4.38e-07	1.8e-08
0.9705	2.25e-07	1.7e-08

System: butyl ethanoate + heptane; phases: Liquid
Fixed: Temperature, K = 318.15
Fixed: Pressure, kPa = 101.3
Property: Excess molar enthalpy (molar enthalpy of mixing), kJ/mol (Liquid); method: CALVET:UFactor:2
Mole fraction of butyl ethanoate	Excess molar enthalpy (molar enthalpy of mixing), kJ/mol	uncertainty
0.0596	0.2745	0.0058
0.1274	0.5006	0.0093
0.1982	0.6887	0.0122
0.2667	0.8188	0.0142
0.3335	0.9117	0.0157
0.3922	0.9636	0.0165
0.4492	0.9838	0.0168
0.5003	0.9881	0.0169
0.5104	0.9829	0.0168
0.5381	0.979	0.0167
0.5567	0.9699	0.0166
0.6057	0.9375	0.0161
0.6593	0.8822	0.0152
0.7144	0.7938	0.0139
0.7729	0.6744	0.012
0.8331	0.5276	0.0097
0.8932	0.3552	0.0071
0.9488	0.1838	0.0044

System: butyl ethanoate + heptane; phases: Liquid
Fixed: Temperature, K = 318.15
Fixed: Pressure, kPa = 101.3
Property: Excess molar volume, m3/mol (Liquid); method: SAME:UFactor:2
Mole fraction of butyl ethanoate	Excess molar volume, m3/mol	uncertainty
0.0555	1.92e-07	1.6e-08
0.1132	3.36e-07	1.7e-08
0.1672	4.34e-07	1.8e-08
0.22	5.12e-07	1.8e-08
0.2722	5.77e-07	1.8e-08
0.3229	6.09e-07	1.8e-08
0.3726	6.31e-07	1.8e-08
0.4298	6.52e-07	1.9e-08
0.4755	6.52e-07	1.9e-08
0.5265	6.24e-07	1.8e-08
0.5779	5.89e-07	1.8e-08
0.6271	5.55e-07	1.8e-08
0.6607	5.13e-07	1.8e-08
0.7709	3.86e-07	1.7e-08
0.8611	2.64e-07	1.7e-08
0.9342	1.22e-07	1.6e-08

System: nonane + butyl ethanoate; phases: Liquid
Fixed: Temperature, K = 318.15
Fixed: Pressure, kPa = 101.3
Property: Excess molar enthalpy (molar enthalpy of mixing), kJ/mol (Liquid); method: CALVET:UFactor:2
Mole fraction of butyl ethanoate	Excess molar enthalpy (molar enthalpy of mixing), kJ/mol	uncertainty
0.0779	0.3416	0.0069
0.1485	0.6123	0.0111
0.2301	0.8377	0.0145
0.3059	0.9931	0.0169
0.3775	1.0906	0.0184
0.442	1.1342	0.0191
0.5	1.1381	0.0192
0.5519	1.1144	0.0188
0.5963	1.0706	0.0181
0.6435	1.018	0.0173
0.6936	0.9482	0.0162
0.7461	0.8494	0.0147
0.8009	0.7191	0.0127
0.8533	0.5615	0.0103
0.9067	0.3783	0.0074
0.9568	0.1877	0.0045

System: nonane + butyl ethanoate; phases: Liquid
Fixed: Temperature, K = 318.15
Fixed: Pressure, kPa = 101.3
Property: Excess molar volume, m3/mol (Liquid); method: SAME:UFactor:2
Mole fraction of butyl ethanoate	Excess molar volume, m3/mol	uncertainty
0.0761	2.63e-07	1.7e-08
0.1325	4.29e-07	1.7e-08
0.1914	5.63e-07	1.8e-08
0.2533	6.69e-07	1.9e-08
0.3151	7.6e-07	1.9e-08
0.3713	8.09e-07	1.9e-08
0.4229	8.37e-07	1.9e-08
0.4749	8.55e-07	1.9e-08
0.5222	8.55e-07	1.9e-08
0.5765	8.31e-07	1.9e-08
0.6275	7.98e-07	1.9e-08
0.6744	7.55e-07	1.9e-08
0.7062	7.07e-07	1.9e-08
0.8023	5.38e-07	1.8e-08
0.8838	3.43e-07	1.7e-08
0.9444	1.75e-07	1.6e-08

System: butyl ethanoate + undecane; phases: Liquid
Fixed: Temperature, K = 318.15
Fixed: Pressure, kPa = 101.3
Property: Excess molar enthalpy (molar enthalpy of mixing), kJ/mol (Liquid); method: CALVET:UFactor:2
Mole fraction of butyl ethanoate	Excess molar enthalpy (molar enthalpy of mixing), kJ/mol	uncertainty
0.0677	0.3346	0.0068
0.1493	0.6297	0.0113
0.2299	0.8804	0.0152
0.3113	1.066	0.0181
0.3836	1.1787	0.0198
0.4482	1.2369	0.0207
0.5078	1.2556	0.021
0.5555	1.2335	0.0207
0.5708	1.2234	0.0205
0.6136	1.1729	0.0197
0.6586	1.1101	0.0187
0.7055	1.0381	0.0176
0.7534	0.9405	0.0161
0.7837	0.8635	0.0149
0.832	0.7237	0.0128
0.8778	0.5629	0.0103
0.9233	0.3776	0.0074
0.9637	0.1919	0.0046

System: butyl ethanoate + undecane; phases: Liquid
Fixed: Temperature, K = 318.15
Fixed: Pressure, kPa = 101.3
Property: Excess molar volume, m3/mol (Liquid); method: SAME:UFactor:2
Mole fraction of butyl ethanoate	Excess molar volume, m3/mol	uncertainty
0.0356	1.49e-07	1.6e-08
0.0842	3.26e-07	1.7e-08
0.1543	5.21e-07	1.8e-08
0.2226	6.82e-07	1.9e-08
0.288	7.97e-07	1.9e-08
0.35	8.56e-07	1.9e-08
0.407	9.28e-07	2e-08
0.4636	9.43e-07	2e-08
0.5172	9.66e-07	2e-08
0.5676	9.44e-07	2e-08
0.6153	9.27e-07	2e-08
0.6613	8.79e-07	2e-08
0.7042	8.17e-07	1.9e-08
0.7392	7.75e-07	1.9e-08
0.8289	5.74e-07	1.8e-08
0.8978	3.84e-07	1.7e-08
0.9408	2.33e-07	1.7e-08

System: butyl ethanoate + tridecane; phases: Liquid
Fixed: Temperature, K = 318.15
Fixed: Pressure, kPa = 101.3
Property: Excess molar enthalpy (molar enthalpy of mixing), kJ/mol (Liquid); method: CALVET:UFactor:2
Mole fraction of butyl ethanoate	Excess molar enthalpy (molar enthalpy of mixing), kJ/mol	uncertainty
0.0771	0.3822	0.0075
0.166	0.7117	0.0126
0.2551	0.9947	0.017
0.3371	1.1954	0.0201
0.405	1.306	0.0218
0.4672	1.364	0.0227
0.5179	1.3764	0.0229
0.5589	1.3624	0.0227
0.5984	1.338	0.0223
0.6058	1.3264	0.0221
0.64	1.279	0.0214
0.6863	1.1966	0.0201
0.7361	1.0834	0.0183
0.7879	0.9389	0.0161
0.8426	0.7661	0.0134
0.8971	0.5455	0.01
0.9531	0.2856	0.006

System: butyl ethanoate + tridecane; phases: Liquid
Fixed: Temperature, K = 318.15
Fixed: Pressure, kPa = 101.3
Property: Excess molar volume, m3/mol (Liquid); method: SAME:UFactor:2
Mole fraction of butyl ethanoate	Excess molar volume, m3/mol	uncertainty
0.1024	3.78e-07	1.7e-08
0.1769	5.73e-07	1.8e-08
0.2511	7.35e-07	1.9e-08
0.3192	8.56e-07	1.9e-08
0.3845	9.36e-07	2e-08
0.4434	9.93e-07	2e-08
0.5021	1.014e-06	2e-08
0.5481	1.023e-06	2e-08
0.6023	1.006e-06	2e-08
0.6495	9.59e-07	2e-08
0.6914	9.14e-07	2e-08
0.7346	8.49e-07	1.9e-08
0.7647	7.97e-07	1.9e-08
0.8473	5.94e-07	1.8e-08
0.9072	3.95e-07	1.7e-08
0.9586	1.65e-07	1.6e-08

System: butyl ethanoate + pentadecane; phases: Liquid
Fixed: Temperature, K = 318.15
Fixed: Pressure, kPa = 101.3
Property: Excess molar enthalpy (molar enthalpy of mixing), kJ/mol (Liquid); method: CALVET:UFactor:2
Mole fraction of butyl ethanoate	Excess molar enthalpy (molar enthalpy of mixing), kJ/mol	uncertainty
0.0884	0.4132	0.008
0.1775	0.7502	0.0132
0.2593	1.0399	0.0177
0.3266	1.2142	0.0204
0.3936	1.3465	0.0224
0.4468	1.4247	0.0236
0.4996	1.475	0.0244
0.5472	1.4895	0.0246
0.5896	1.4758	0.0244
0.6217	1.4432	0.0239
0.6332	1.4261	0.0236
0.6756	1.3491	0.0225
0.7198	1.2463	0.0209
0.7661	1.1238	0.019
0.8132	0.9719	0.0166
0.8631	0.7809	0.0137
0.9114	0.5509	0.0101
0.9607	0.2817	0.006

System: butyl ethanoate + pentadecane; phases: Liquid
Fixed: Temperature, K = 318.15
Fixed: Pressure, kPa = 101.3
Property: Excess molar volume, m3/mol (Liquid); method: SAME:UFactor:2
Mole fraction of butyl ethanoate	Excess molar volume, m3/mol	uncertainty
0.1004	3.55e-07	1.7e-08
0.1982	6.25e-07	1.8e-08
0.2765	7.99e-07	1.9e-08
0.3418	9.17e-07	2e-08
0.417	9.97e-07	2e-08
0.4757	1.034e-06	2e-08
0.5299	1.057e-06	2e-08
0.5843	1.052e-06	2e-08
0.6319	1.024e-06	2e-08
0.6767	9.8e-07	2e-08
0.7173	9.26e-07	2e-08
0.7606	8.62e-07	2e-08
0.7836	8.17e-07	1.9e-08
0.8619	5.97e-07	1.8e-08
0.9208	3.91e-07	1.7e-08
0.9647	1.72e-07	1.6e-08

System: butyl ethanoate + heptadecane; phases: Liquid
Fixed: Temperature, K = 318.15
Fixed: Pressure, kPa = 101.3
Property: Excess molar enthalpy (molar enthalpy of mixing), kJ/mol (Liquid); method: CALVET:UFactor:2
Mole fraction of butyl ethanoate	Excess molar enthalpy (molar enthalpy of mixing), kJ/mol	uncertainty
0.0954	0.4622	0.0088
0.1878	0.8414	0.0146
0.2686	1.1255	0.019
0.3397	1.3312	0.0222
0.4009	1.4619	0.0242
0.4599	1.5512	0.0256
0.5118	1.597	0.0263
0.5532	1.6002	0.0263
0.5903	1.5958	0.0263
0.5962	1.5934	0.0262
0.6293	1.543	0.0255
0.6674	1.4744	0.0244
0.7073	1.3893	0.0231
0.7491	1.2734	0.0213
0.7926	1.1331	0.0191
0.8356	0.97	0.0166
0.8781	0.7831	0.0137
0.9208	0.5574	0.0103
0.9615	0.2994	0.0063

System: butyl ethanoate + heptadecane; phases: Liquid
Fixed: Temperature, K = 318.15
Fixed: Pressure, kPa = 101.3
Property: Excess molar volume, m3/mol (Liquid); method: SAME:UFactor:2
Mole fraction of butyl ethanoate	Excess molar volume, m3/mol	uncertainty
0.0632	1.97e-07	1.6e-08
0.104	3.47e-07	1.7e-08
0.1206	3.85e-07	1.7e-08
0.1949	5.9e-07	1.8e-08
0.2755	7.8e-07	1.9e-08
0.3444	9e-07	2e-08
0.4115	9.79e-07	2e-08
0.4696	1.048e-06	2e-08
0.515	1.082e-06	2.1e-08
0.5713	1.082e-06	2.1e-08
0.6623	1.03e-06	2e-08
0.7646	9.06e-07	2e-08
0.842	6.95e-07	1.9e-08
0.8976	5.2e-07	1.8e-08
0.9384	3.47e-07	1.7e-08
0.9717	1.79e-07	1.6e-08

System: heptane + pentyl ethanoate; phases: Liquid
Fixed: Temperature, K = 318.15
Fixed: Pressure, kPa = 101.3
Property: Excess molar enthalpy (molar enthalpy of mixing), kJ/mol (Liquid); method: CALVET:UFactor:2
Mole fraction of pentyl ethanoate	Excess molar enthalpy (molar enthalpy of mixing), kJ/mol	uncertainty
0.0544	0.237	0.0053
0.1187	0.4341	0.0083
0.1801	0.5913	0.0107
0.2428	0.7059	0.0125
0.3049	0.803	0.014
0.3645	0.8569	0.0148
0.4174	0.8828	0.0152
0.468	0.8869	0.0153
0.472	0.8859	0.0153
0.5161	0.8764	0.0151
0.5646	0.8477	0.0147
0.6163	0.8006	0.014
0.6696	0.7373	0.013
0.7277	0.6496	0.0116
0.7889	0.5338	0.0098
0.8473	0.404	0.0078
0.9078	0.2572	0.0056
0.9594	0.1162	0.0034

System: heptane + pentyl ethanoate; phases: Liquid
Fixed: Temperature, K = 318.15
Fixed: Pressure, kPa = 101.3
Property: Excess molar volume, m3/mol (Liquid); method: SAME:UFactor:2
Mole fraction of pentyl ethanoate	Excess molar volume, m3/mol	uncertainty
0.0546	1.29e-07	1.6e-08
0.1048	2.14e-07	1.6e-08
0.1515	2.65e-07	1.7e-08
0.2014	3.07e-07	1.7e-08
0.2488	3.45e-07	1.7e-08
0.3009	3.81e-07	1.7e-08
0.3474	3.99e-07	1.7e-08
0.3999	4.11e-07	1.7e-08
0.4426	4.09e-07	1.7e-08
0.4977	3.97e-07	1.7e-08
0.5503	3.72e-07	1.7e-08
0.5881	3.55e-07	1.7e-08
0.636	3.23e-07	1.7e-08
0.7502	2.51e-07	1.7e-08
0.8467	1.71e-07	1.6e-08
0.9288	9.4e-08	1.6e-08

System: nonane + pentyl ethanoate; phases: Liquid
Fixed: Temperature, K = 318.15
Fixed: Pressure, kPa = 101.3
Property: Excess molar enthalpy (molar enthalpy of mixing), kJ/mol (Liquid); method: CALVET:UFactor:2
Mole fraction of pentyl ethanoate	Excess molar enthalpy (molar enthalpy of mixing), kJ/mol	uncertainty
0.0676	0.3006	0.0062
0.1364	0.5258	0.0097
0.2097	0.7229	0.0128
0.2818	0.8656	0.015
0.3491	0.9547	0.0163
0.4124	1.002	0.0171
0.4692	1.0151	0.0173
0.5191	1.002	0.0171
0.5639	0.9717	0.0166
0.621	0.9038	0.0156
0.6739	0.8432	0.0146
0.7288	0.7571	0.0133
0.7858	0.6438	0.0115
0.8432	0.5037	0.0094
0.8986	0.3456	0.0069
0.9529	0.1762	0.0043

System: nonane + pentyl ethanoate; phases: Liquid
Fixed: Temperature, K = 318.15
Fixed: Pressure, kPa = 101.3
Property: Excess molar volume, m3/mol (Liquid); method: SAME:UFactor:2
Mole fraction of pentyl ethanoate	Excess molar volume, m3/mol	uncertainty
0.0672	1.52e-07	1.6e-08
0.1243	2.83e-07	1.7e-08
0.1813	4.14e-07	1.7e-08
0.2354	5.13e-07	1.8e-08
0.3037	5.97e-07	1.8e-08
0.3405	6.3e-07	1.8e-08
0.3995	6.66e-07	1.9e-08
0.4479	6.75e-07	1.9e-08
0.5035	6.77e-07	1.9e-08
0.5492	6.64e-07	1.9e-08
0.6071	6.24e-07	1.8e-08
0.6461	5.91e-07	1.8e-08
0.685	5.48e-07	1.8e-08
0.7852	4.49e-07	1.8e-08
0.8739	3.42e-07	1.7e-08
0.9451	2.1e-07	1.6e-08

System: pentyl ethanoate + undecane; phases: Liquid
Fixed: Temperature, K = 318.15
Fixed: Pressure, kPa = 101.3
Property: Excess molar enthalpy (molar enthalpy of mixing), kJ/mol (Liquid); method: CALVET:UFactor:2
Mole fraction of pentyl ethanoate	Excess molar enthalpy (molar enthalpy of mixing), kJ/mol	uncertainty
0.083	0.3586	0.0071
0.1513	0.5784	0.0105
0.225	0.7745	0.0136
0.2965	0.9256	0.0159
0.3642	1.0276	0.0175
0.4271	1.0831	0.0183
0.4836	1.1025	0.0186
0.5356	1.0958	0.0185
0.5749	1.0631	0.018
0.6055	1.0309	0.0175
0.6529	0.9618	0.0165
0.7058	0.8765	0.0151
0.7614	0.7625	0.0134
0.8186	0.6271	0.0113
0.8782	0.4522	0.0086
0.9384	0.2583	0.0056

System: pentyl ethanoate + undecane; phases: Liquid
Fixed: Temperature, K = 318.15
Fixed: Pressure, kPa = 101.3
Property: Excess molar volume, m3/mol (Liquid); method: SAME:UFactor:2
Mole fraction of pentyl ethanoate	Excess molar volume, m3/mol	uncertainty
0.0737	2.57e-07	1.7e-08
0.1355	4.05e-07	1.7e-08
0.2015	5.38e-07	1.8e-08
0.2641	6.43e-07	1.8e-08
0.3197	7.07e-07	1.9e-08
0.3776	7.48e-07	1.9e-08
0.4395	7.8e-07	1.9e-08
0.4861	7.92e-07	1.9e-08
0.5386	7.87e-07	1.9e-08
0.5852	7.75e-07	1.9e-08
0.6345	7.38e-07	1.9e-08
0.6828	6.92e-07	1.9e-08
0.713	6.43e-07	1.8e-08
0.8089	4.89e-07	1.8e-08
0.8864	3.26e-07	1.7e-08
0.9483	1.64e-07	1.6e-08

System: pentyl ethanoate + tridecane; phases: Liquid
Fixed: Temperature, K = 318.15
Fixed: Pressure, kPa = 101.3
Property: Excess molar enthalpy (molar enthalpy of mixing), kJ/mol (Liquid); method: CALVET:UFactor:2
Mole fraction of pentyl ethanoate	Excess molar enthalpy (molar enthalpy of mixing), kJ/mol	uncertainty
0.0653	0.3193	0.0065
0.1352	0.576	0.0105
0.2036	0.7982	0.0139
0.2679	0.9661	0.0165
0.326	1.0822	0.0183
0.3795	1.1629	0.0196
0.4178	1.2003	0.0201
0.4635	1.2294	0.0206
0.5035	1.2258	0.0205
0.5376	1.2116	0.0203
0.5674	1.1915	0.02
0.5679	1.1716	0.0197
0.6418	1.0881	0.0184
0.6886	1.0114	0.0172
0.7385	0.9079	0.0156
0.7897	0.7925	0.0138
0.8433	0.6395	0.0115
0.8966	0.4529	0.0086
0.9506	0.2433	0.0054

System: pentyl ethanoate + tridecane; phases: Liquid
Fixed: Temperature, K = 318.15
Fixed: Pressure, kPa = 101.3
Property: Excess molar volume, m3/mol (Liquid); method: SAME:UFactor:2
Mole fraction of pentyl ethanoate	Excess molar volume, m3/mol	uncertainty
0.0955	3.07e-07	1.7e-08
0.1575	4.63e-07	1.8e-08
0.2323	6.22e-07	1.8e-08
0.2961	7.29e-07	1.9e-08
0.3517	7.96e-07	1.9e-08
0.4152	8.59e-07	1.9e-08
0.4689	8.87e-07	2e-08
0.5228	8.91e-07	2e-08
0.5724	8.76e-07	2e-08
0.6226	8.35e-07	1.9e-08
0.667	7.77e-07	1.9e-08
0.7036	7.29e-07	1.9e-08
0.7416	6.77e-07	1.9e-08
0.8311	5.02e-07	1.8e-08
0.8985	3.43e-07	1.7e-08
0.9564	1.66e-07	1.6e-08

System: pentyl ethanoate + pentadecane; phases: Liquid
Fixed: Temperature, K = 318.15
Fixed: Pressure, kPa = 101.3
Property: Excess molar enthalpy (molar enthalpy of mixing), kJ/mol (Liquid); method: CALVET:UFactor:2
Mole fraction of pentyl ethanoate	Excess molar enthalpy (molar enthalpy of mixing), kJ/mol	uncertainty
0.0764	0.3482	0.007
0.1647	0.678	0.0121
0.2553	0.9488	0.0163
0.3274	1.1209	0.0189
0.3976	1.24	0.0208
0.4632	1.3069	0.0218
0.5222	1.327	0.0221
0.5758	1.3149	0.0219
0.6183	1.2752	0.0213
0.6614	1.197	0.0201
0.7069	1.1064	0.0187
0.7552	0.9832	0.0168
0.8041	0.8375	0.0145
0.856	0.6597	0.0118
0.9056	0.4625	0.0088
0.955	0.2384	0.0053

System: pentyl ethanoate + pentadecane; phases: Liquid
Fixed: Temperature, K = 318.15
Fixed: Pressure, kPa = 101.3
Property: Excess molar volume, m3/mol (Liquid); method: SAME:UFactor:2
Mole fraction of pentyl ethanoate	Excess molar volume, m3/mol	uncertainty
0.097	2.96e-07	1.7e-08
0.1823	5.2e-07	1.8e-08
0.2485	6.56e-07	1.9e-08
0.3223	7.83e-07	1.9e-08
0.3863	8.63e-07	2e-08
0.4452	9.09e-07	2e-08
0.5075	9.32e-07	2e-08
0.5553	9.44e-07	2e-08
0.6017	9.31e-07	2e-08
0.6519	9.05e-07	2e-08
0.6946	8.56e-07	1.9e-08
0.7436	7.87e-07	1.9e-08
0.7672	7.53e-07	1.9e-08
0.8482	5.78e-07	1.8e-08
0.9107	3.7e-07	1.7e-08
0.9606	1.78e-07	1.6e-08

System: pentyl ethanoate + heptadecane; phases: Liquid
Fixed: Temperature, K = 318.15
Fixed: Pressure, kPa = 101.3
Property: Excess molar enthalpy (molar enthalpy of mixing), kJ/mol (Liquid); method: CALVET:UFactor:2
Mole fraction of pentyl ethanoate	Excess molar enthalpy (molar enthalpy of mixing), kJ/mol	uncertainty
0.0881	0.4223	0.0081
0.1856	0.7865	0.0138
0.2815	1.0833	0.0183
0.3678	1.2787	0.0214
0.4492	1.384	0.023
0.5202	1.4179	0.0235
0.5818	1.4109	0.0234
0.6246	1.364	0.0227
0.6651	1.287	0.0215
0.7105	1.1921	0.02
0.7575	1.0807	0.0183
0.807	0.9317	0.016
0.8571	0.7538	0.0133
0.905	0.5442	0.01
0.9532	0.3035	0.0063

System: pentyl ethanoate + heptadecane; phases: Liquid
Fixed: Temperature, K = 318.15
Fixed: Pressure, kPa = 101.3
Property: Excess molar volume, m3/mol (Liquid); method: SAME:UFactor:2
Mole fraction of pentyl ethanoate	Excess molar volume, m3/mol	uncertainty
0.1194	3.74e-07	1.7e-08
0.1753	5.21e-07	1.8e-08
0.2989	7.64e-07	1.9e-08
0.3689	8.67e-07	2e-08
0.421	9.1e-07	2e-08
0.4657	9.43e-07	2e-08
0.5081	9.6e-07	2e-08
0.5464	9.64e-07	2e-08
0.6072	9.39e-07	2e-08
0.6743	8.96e-07	2e-08
0.7316	8.42e-07	1.9e-08
0.7894	7.23e-07	1.9e-08
0.8384	6.22e-07	1.8e-08
0.8842	4.84e-07	1.8e-08
0.9288	3.29e-07	1.7e-08
0.9702	1.42e-07	1.6e-08
