Measured thermophysical data. Effect of temperature on the phase-separation ability of KCl in aqueous two-phase systems composed of propanols: Determination of the critical temperature and extension of the results to other salts
Source: J. Chem. Thermodyn., 2019, 10.1016/j.jct.2019.04.016
Compound 1: potassium chloride, ClK, InChI=1S/ClH.K/h1H;/q;+1/p-1, purity 99.9%
Compound 2: propan-1-ol, C3H8O, InChI=1S/C3H8O/c1-2-3-4/h4H,2-3H2,1H3, purity 99.5%
Compound 3: propan-2-ol, C3H8O, InChI=1S/C3H8O/c1-3(2)4/h3-4H,1-2H3, purity 99.5%
Compound 4: water, H2O, InChI=1S/H2O/h1H2, purity 99.8%

System: propan-1-ol + water + potassium chloride; phases: Liquid, Crystal
Fixed: Pressure, kPa = 101.3
Property: Mole fraction of potassium chloride (Liquid); method: gravimetric analysis
Temperature, K	Mole fraction of propan-1-ol	Mole fraction of potassium chloride	uncertainty
361.5	0.013	0.104	0.004
361.5	0.578	0.0078	0.0008
361.51	0.596	0.007	0.0007
361.78	0.654	0.004	0.0004
361.98	0.692	0.0029	0.0003
362.61	0.755	0.0015	0.0002
363.75	0.818	0.0008	0.0001
364.17	0.838	0.0007	0.0001
365.12	0.872	0.0005	0.0001
365.5	0.884	0.0004	0.0001
365.8	0.894	0.0003	0.0001
366.61	0.92	0.0002	0.0001
367.58	0.926	0.0003	0.0001
268.1	0.1	0.0317	0.0013
268.1	0.195	0.0232	0.0009
268.1	0.296	0.0152	0.0006
268.1	0.396	0.0093	0.0009
268.1	0.494	0.005	0.0005
268.1	0.592	0.0024	0.0002
268.1	0.797	0.0003	0.0001
273.1	0.497	0.006	0.0006
273.1	0.603	0.0023	0.0002
273.1	0.702	0.0004	0.0001
273.1	0.799	0.0002	0.0001
273.1	0.0599	0.0415	0.0017
273.1	0.392	0.0137	0.0006

System: propan-1-ol + water + potassium chloride; phases: Liquid mixture 2, Liquid mixture 1
Fixed: Pressure, kPa = 101.3
Property: Mole fraction of potassium chloride (Liquid mixture 2); method: gravimetric method
Property: Mole fraction of propan-1-ol (Liquid mixture 1); method: gravimetric method
Property: Mole fraction of potassium chloride (Liquid mixture 1); method: gravimetric method
Temperature, K	Mole fraction of propan-1-ol	Mole fraction of potassium chloride	uncertainty	Mole fraction of propan-1-ol	uncertainty	Mole fraction of potassium chloride	uncertainty
361.5	0.578	0.0078	0.0004	0.013	0.001	0.104	
360.99	0.264	0.015	0.001	0.077	0.003	0.035	
360.99	0.32	0.014	0.001	0.045	0.002	0.044	
361.02	0.388	0.012	0.001	0.035	0.002	0.051	
361.03	0.412	0.011	0.001	0.031	0.001	0.055	
361.12	0.461	0.01	0.001	0.026	0.001	0.07	
361.28	0.533	0.009	0.001	0.017	0.001	0.088	
361.32	0.55	0.008	0.001	0.014	0.001	0.094	
273.1	0.392	0.0137	0.0006	0.0599	0.0024	0.0415	
273.1	0.345	0.0159	0.0007	0.0695	0.0028	0.0397	
273.1	0.295	0.018	0.0008	0.0924	0.0038	0.0354	

System: propan-1-ol + water + potassium chloride; phases: Liquid, Gas
Fixed: Pressure, kPa = 101.3
Property: Mole fraction of potassium chloride (Liquid); method: gravimetric method
Property: Mole fraction of potassium chloride (Gas); method: gravimetric method
Property: Mole fraction of propan-1-ol (Gas); method: gravimetric method
Temperature, K	Mole fraction of propan-1-ol	Mole fraction of potassium chloride	uncertainty	Mole fraction of potassium chloride	uncertainty	Mole fraction of propan-1-ol	uncertainty
361.5	0.013	0.104	0.004	0		0.497	
361.78	0.654	0.004	0.0002	0		0.522	
361.98	0.692	0.0029	0.0001	0		0.539	
362.61	0.755	0.0015	0.0001	0		0.574	
363.75	0.818	0.0008	0.0001	0		0.626	
364.17	0.838	0.0007	0.0001	0		0.648	
365.12	0.872	0.0005	0.0001	0		0.706	
365.5	0.884	0.0004	0.0001	0		0.727	
365.8	0.894	0.0003	0.0001	0		0.743	
366.61	0.92	0.0002	0.0001	0		0.788	
367.58	0.926	0.0003	0.0001	0		0.84	
360.99	0.077	0.035	0.002	0		0.434	
360.77	0.441	0.0024	0.0001	0		0.442	
360.94	0.267	0.0025	0.0001	0		0.414	
360.9	0.265	0.0064	0.0003	0		0.418	
360.91	0.257	0.0119	0.0005	0		0.429	
360.94	0.258	0.0145	0.0006	0		0.432	
361.05	0.192	0.0019	0.0001	0		0.409	
361.01	0.188	0.0049	0.0002	0		0.412	
361.03	0.188	0.009	0.0004	0		0.416	
360.98	0.182	0.0136	0.0006	0		0.421	
360.97	0.184	0.0205	0.0008	0		0.431	
360.99	0.045	0.044	0.002	0		0.438	
361.2	0.109	0.0013	0.0001	0		0.4	
361.16	0.105	0.0053	0.0002	0		0.406	
361.18	0.1	0.0136	0.0006	0		0.411	
361.09	0.097	0.021	0.0009	0		0.417	
360.99	0.099	0.0253	0.001	0		0.424	
360.98	0.09	0.0294	0.0012	0		0.431	
362.42	0.048	0.0041	0.0002	0		0.383	
362.19	0.045	0.0107	0.0004	0		0.385	
362.1	0.043	0.015	0.0006	0		0.391	
361.91	0.041	0.0197	0.0008	0		0.396	
361.02	0.035	0.051	0.002	0		0.446	
361.77	0.039	0.0239	0.001	0		0.402	
361.58	0.035	0.0307	0.0012	0		0.408	
361.5	0.035	0.0358	0.0014	0		0.415	
361.36	0.032	0.0471	0.0019	0		0.429	
361.07	0.12	0.0232	0.0009	0		0.428	
361	0.194	0.0147	0.0006	0		0.427	
360.96	0.153	0.0217	0.0009	0		0.426	
361.5	0.578	0.0078	0.0003	0		0.497	
360.99	0.264	0.015	0.001	0		0.434	
360.99	0.32	0.014	0.001	0		0.438	
361.03	0.031	0.055	0.002	0		0.448	
361.02	0.388	0.012	0.001	0		0.446	
361.03	0.412	0.011	0.001	0		0.448	
361.12	0.461	0.01	0.001	0		0.458	
361.28	0.533	0.009	0.001	0		0.475	
361.32	0.55	0.008	0.001	0		0.48	
361.12	0.026	0.07	0.003	0		0.458	
361.28	0.017	0.088	0.004	0		0.475	
361.32	0.014	0.094	0.004	0		0.48	
361.51	0.596	0.007	0.0003	0		0.501	

System: propan-2-ol + water + potassium chloride; phases: Liquid, Crystal
Fixed: Pressure, kPa = 101.3
Property: Mole fraction of potassium chloride (Liquid); method: gravimetric analysis
Temperature, K	Mole fraction of propan-2-ol	Mole fraction of potassium chloride	uncertainty
353.62	0.0181	0.0943	0.0038
353.62	0.531	0.0082	0.0008
353.58	0.532	0.0076	0.0008
353.52	0.556	0.0068	0.0007
353.5	0.583	0.0057	0.0006
353.43	0.638	0.0035	0.0004
353.38	0.736	0.00098	0.0001
353.44	0.79	0.00049	5e-05
353.68	0.838	0.00017	2e-05
372.34	0.0019	0.113	0.005
359.79	0.0075	0.103	0.004
361.7	0.0056	0.106	0.004
353.79	0.018	0.0973	0.0039
353.88	0.0156	0.098	0.0039

System: propan-2-ol + water + potassium chloride; phases: Liquid, Gas
Fixed: Pressure, kPa = 101.3
Property: Mole fraction of potassium chloride (Liquid); method: gravimetric method
Property: Mole fraction of potassium chloride (Gas); method: gravimetric method
Property: Mole fraction of propan-2-ol (Gas); method: gravimetric method
Temperature, K	Mole fraction of propan-2-ol	Mole fraction of potassium chloride	uncertainty	Mole fraction of potassium chloride	uncertainty	Mole fraction of propan-2-ol	uncertainty
353.62	0.0181	0.0943	0.0038	0		0.648	
354.14	0.0544	0.0521	0.0021	0		0.613	
354.04	0.0416	0.0586	0.0024	0		0.614	
354.21	0.0969	0.0381	0.0015	0		0.603	
353.81	0.0259	0.0762	0.0031	0		0.633	
353.68	0.0215	0.0893	0.0036	0		0.637	
353.58	0.532	0.0076	0.0003	0		0.654	
353.52	0.556	0.0068	0.0003	0		0.656	
353.5	0.583	0.0057	0.0002	0		0.659	
353.43	0.638	0.0035	0.0002	0		0.674	
353.38	0.736	0.00098	4e-05	0		0.72	
353.44	0.79	0.00049	2e-05	0		0.752	
353.68	0.838	0.00017	1e-05	0		0.793	
372.34	0.0019	0.113	0.005	0		0.271	
359.79	0.0075	0.103	0.004	0		0.567	
361.7	0.0056	0.106	0.004	0		0.53	
353.79	0.018	0.0973	0.0039	0		0.644	
353.88	0.0156	0.098	0.004	0		0.647	
354.26	0.241	0.022	0.001	0		0.622	
359.86	0.012	0.071	0.003	0		0.562	
373.19	0.002	0.008	0.001	0		0.144	
359.28	0.015	0.069	0.003	0		0.557	
355.07	0.217	0.002	0.001	0		0.56	
356.14	0.098	0.004	0.001	0		0.538	
355.8	0.098	0.008	0.001	0		0.553	
355.57	0.096	0.011	0.001	0		0.554	
359.78	0.035	0.005	0.001	0		0.453	
359.69	0.034	0.011	0.001	0		0.468	
359.26	0.032	0.016	0.001	0		0.493	
353.62	0.531	0.0082	0.0003	0		0.648	
354.14	0.319	0.0165	0.0007	0		0.613	
354.04	0.36	0.0144	0.0006	0		0.614	
354.21	0.223	0.0249	0.001	0		0.603	
353.81	0.466	0.01	0.0004	0		0.633	
353.68	0.511	0.0079	0.0003	0		0.637	

System: propan-2-ol + water + potassium chloride; phases: Liquid mixture 2, Liquid mixture 1
Fixed: Pressure, kPa = 101.3
Property: Mole fraction of potassium chloride (Liquid mixture 2); method: gravimetric method
Property: Mole fraction of propan-2-ol (Liquid mixture 1); method: gravimetric method
Property: Mole fraction of potassium chloride (Liquid mixture 1); method: gravimetric method
Temperature, K	Mole fraction of propan-2-ol	Mole fraction of potassium chloride	uncertainty	Mole fraction of propan-2-ol	uncertainty	Mole fraction of potassium chloride	uncertainty
353.62	0.531	0.0082	0.0004	0.0181	0.0007	0.0943	
354.14	0.319	0.0165	0.0007	0.0544	0.0022	0.0521	
354.04	0.36	0.0144	0.0007	0.0416	0.0017	0.0586	
354.21	0.223	0.0249	0.0011	0.0969	0.0039	0.0381	
353.81	0.466	0.01	0.0005	0.0259	0.0011	0.0762	
353.68	0.511	0.0079	0.0004	0.0215	0.0009	0.0893	
