Measured thermophysical data. Cloud point measurements of 1-butyl-2,3-dimethylimidazolium tetrafluoroborate with alcohols
Source: J. Chem. Thermodyn., 2010, 10.1016/j.jct.2010.07.005
Compound 1: 1-butyl-2,3-dimethylimidazolium tetrafluoroborate, C9H17BF4N2, InChI=1S/C9H17N2.BF4/c1-4-5-6-11-8-7-10(3)9(11)2;2-1(3,4)5/h7-8H,4-6H2,1-3H3;/q+1;-1, purity 97%
Compound 2: propan-1-ol, C3H8O, InChI=1S/C3H8O/c1-2-3-4/h4H,2-3H2,1H3, purity 99.5%
Compound 3: propan-2-ol, C3H8O, InChI=1S/C3H8O/c1-3(2)4/h3-4H,1-2H3, purity 99.5%
Compound 4: butan-1-ol, C4H10O, InChI=1S/C4H10O/c1-2-3-4-5/h5H,2-4H2,1H3, purity 99%
Compound 5: pentan-1-ol, C5H12O, InChI=1S/C5H12O/c1-2-3-4-5-6/h6H,2-5H2,1H3, purity 98.5%
Compound 6: hexan-1-ol, C6H14O, InChI=1S/C6H14O/c1-2-3-4-5-6-7/h7H,2-6H2,1H3, purity 98%

System: propan-1-ol + 1-butyl-2,3-dimethylimidazolium tetrafluoroborate; phases: Liquid mixture 1, Liquid mixture 2
Fixed: Pressure, kPa = 101
Property: Liquid-liquid equilibrium temperature, K (Liquid mixture 1); method: VISOBS
Mole fraction of 1-butyl-2,3-dimethylimidazolium tetrafluoroborate	Liquid-liquid equilibrium temperature, K	uncertainty
0.0037	292.86	0.44
0.005	295.2	0.46
0.0088	302.8	0.48
0.0101	305.82	0.53
0.0191	311.76	0.27
0.0307	318.3	0.25
0.0336	318.19	0.25
0.05	321.44	0.25
0.059	321.97	0.25
0.075	322.57	0.25
0.1004	322.66	0.25
0.1321	323.03	0.25

System: propan-1-ol + 1-butyl-2,3-dimethylimidazolium tetrafluoroborate; phases: Liquid mixture 1, Liquid mixture 2
Fixed: Pressure, kPa = 101
Property: Mole fraction of 1-butyl-2,3-dimethylimidazolium tetrafluoroborate (Liquid mixture 1); method: Titration method
Mole fraction of 1-butyl-2,3-dimethylimidazolium tetrafluoroborate	Mole fraction of 1-butyl-2,3-dimethylimidazolium tetrafluoroborate	uncertainty
0.0037	0.5784	0.0071
0.005	0.5611	0.0075
0.0088	0.4984	0.0085
0.0101	0.4656	0.0088
0.0191	0.3943	0.0063
0.0307	0.2982	0.0046
0.0336	0.3025	0.0047
0.05	0.221	0.0035
0.059	0.2017	0.0031
0.075	0.172	0.0027
0.1004	0.1665	0.0026
0.1321	0.1321	0.0021

System: propan-2-ol + 1-butyl-2,3-dimethylimidazolium tetrafluoroborate; phases: Liquid mixture 1, Liquid mixture 2
Fixed: Pressure, kPa = 101
Property: Liquid-liquid equilibrium temperature, K (Liquid mixture 1); method: VISOBS
Mole fraction of 1-butyl-2,3-dimethylimidazolium tetrafluoroborate	Liquid-liquid equilibrium temperature, K	uncertainty
0.0028	298.09	0.43
0.005	301.95	0.47
0.0077	307.82	0.49
0.01	312.6	0.28
0.0181	316.18	0.26
0.0299	321.75	0.25
0.0311	321.46	0.25
0.0469	324.58	0.25
0.0503	324.98	0.25
0.0732	326.14	0.25
0.075	326.18	0.25
0.0866	326.32	0.25

System: propan-2-ol + 1-butyl-2,3-dimethylimidazolium tetrafluoroborate; phases: Liquid mixture 2, Liquid mixture 1
Fixed: Pressure, kPa = 101
Property: Mole fraction of 1-butyl-2,3-dimethylimidazolium tetrafluoroborate (Liquid mixture 2); method: Titration method
Mole fraction of 1-butyl-2,3-dimethylimidazolium tetrafluoroborate	Mole fraction of 1-butyl-2,3-dimethylimidazolium tetrafluoroborate	uncertainty
0.0028	0.4997	0.0084
0.005	0.4625	0.0083
0.0077	0.3993	0.0078
0.01	0.3436	0.0056
0.0181	0.2999	0.0049
0.0299	0.2036	0.0032
0.0311	0.1998	0.0032
0.0469	0.1501	0.0025
0.0503	0.133	0.0023
0.0732	0.0998	0.0016
0.075	0.0985	0.0015
0.0866	0.0866	0.0014

System: butan-1-ol + 1-butyl-2,3-dimethylimidazolium tetrafluoroborate; phases: Liquid mixture 1, Liquid mixture 2
Fixed: Pressure, kPa = 101
Property: Liquid-liquid equilibrium temperature, K (Liquid mixture 1); method: VISOBS
Mole fraction of 1-butyl-2,3-dimethylimidazolium tetrafluoroborate	Liquid-liquid equilibrium temperature, K	uncertainty
0.005	310.88	0.58
0.0064	314.57	0.44
0.0101	320.44	0.3
0.0182	325.48	0.27
0.0287	330.28	0.5
0.0295	332.03	0.5
0.05	334.7	0.25
0.065	335.54	0.25
0.0746	335.69	0.25
0.098	337.08	0.25
0.0995	337.54	0.25
0.1492	337.7	0.25
0.1524	337.73	0.25

System: butan-1-ol + 1-butyl-2,3-dimethylimidazolium tetrafluoroborate; phases: Liquid mixture 2, Liquid mixture 1
Fixed: Pressure, kPa = 101
Property: Mole fraction of 1-butyl-2,3-dimethylimidazolium tetrafluoroborate (Liquid mixture 2); method: Titration method
Mole fraction of 1-butyl-2,3-dimethylimidazolium tetrafluoroborate	Mole fraction of 1-butyl-2,3-dimethylimidazolium tetrafluoroborate	uncertainty
0.005	0.64	0.008
0.0064	0.5995	0.0072
0.0101	0.5444	0.0072
0.0182	0.4996	0.0079
0.0287	0.399	0.008
0.0295	0.3787	0.0078
0.05	0.3177	0.0049
0.065	0.2991	0.0046
0.0746	0.288	0.0045
0.098	0.1992	0.0046
0.0995	0.1735	0.0044
0.1492	0.1233	0.0026
0.1524	0.1524	0.003

System: pentan-1-ol + 1-butyl-2,3-dimethylimidazolium tetrafluoroborate; phases: Liquid mixture 1, Liquid mixture 2
Fixed: Pressure, kPa = 101
Property: Liquid-liquid equilibrium temperature, K (Liquid mixture 1); method: VISOBS
Mole fraction of 1-butyl-2,3-dimethylimidazolium tetrafluoroborate	Liquid-liquid equilibrium temperature, K	uncertainty
0.0008	303.23	1.1
0.0041	320.97	0.93
0.005	320.81	0.25
0.01	333.1	0.45
0.0117	332.4	0.26
0.0249	340.56	0.28
0.0296	344.15	0.29
0.0501	348.4	0.25
0.0635	349.83	0.25
0.0752	350.6	0.25
0.0999	351.77	0.25
0.1129	351.67	0.25
0.1512	352.12	0.25
0.1996	352.48	0.25
0.2054	352.53	0.25

System: pentan-1-ol + 1-butyl-2,3-dimethylimidazolium tetrafluoroborate; phases: Liquid mixture 2, Liquid mixture 1
Fixed: Pressure, kPa = 101
Property: Mole fraction of 1-butyl-2,3-dimethylimidazolium tetrafluoroborate (Liquid mixture 2); method: Titration method
Mole fraction of 1-butyl-2,3-dimethylimidazolium tetrafluoroborate	Mole fraction of 1-butyl-2,3-dimethylimidazolium tetrafluoroborate	uncertainty
0.0008	0.799	0.0068
0.0041	0.7	0.0071
0.005	0.692	0.0051
0.01	0.5945	0.007
0.0117	0.6005	0.0062
0.0249	0.4991	0.0079
0.0296	0.4735	0.0074
0.0501	0.4039	0.0063
0.0635	0.3995	0.0062
0.0752	0.3511	0.0055
0.0999	0.3063	0.0048
0.1129	0.299	0.0046
0.1512	0.2836	0.0044
0.1996	0.2272	0.0036
0.2054	0.2054	0.0033

System: hexan-1-ol + 1-butyl-2,3-dimethylimidazolium tetrafluoroborate; phases: Liquid mixture 1, Liquid mixture 2
Fixed: Pressure, kPa = 101
Property: Liquid-liquid equilibrium temperature, K (Liquid mixture 1); method: VISOBS
Mole fraction of 1-butyl-2,3-dimethylimidazolium tetrafluoroborate	Liquid-liquid equilibrium temperature, K	uncertainty
0.0016	326.47	0.77
0.0061	342.91	0.6
0.0098	348.66	0.38
0.0122	351.55	0.34
0.0288	362.33	0.32
0.03	363.55	0.32
0.05	368.65	0.25
0.0539	369.98	0.25
0.0753	374.34	0.25
0.0861	375.37	0.25
0.1049	376.56	0.26
0.1067	375.84	0.56
0.1071	376.85	0.56
0.1891	376.88	0.25

System: hexan-1-ol + 1-butyl-2,3-dimethylimidazolium tetrafluoroborate; phases: Liquid mixture 2, Liquid mixture 1
Fixed: Pressure, kPa = 101
Property: Mole fraction of 1-butyl-2,3-dimethylimidazolium tetrafluoroborate (Liquid mixture 2); method: Titration method
Mole fraction of 1-butyl-2,3-dimethylimidazolium tetrafluoroborate	Mole fraction of 1-butyl-2,3-dimethylimidazolium tetrafluoroborate	uncertainty
0.0016	0.796	0.0053
0.0061	0.7012	0.006
0.0098	0.64	0.0065
0.0122	0.6011	0.007
0.0288	0.5042	0.01
0.03	0.4659	0.0096
0.05	0.4217	0.0066
0.0539	0.404	0.0063
0.0753	0.307	0.0048
0.0861	0.2975	0.0046
0.1049	0.235	0.004
0.1067	0.2489	0.0259
0.1071	0.1977	0.0258
0.1891	0.1891	0.0029
