Measured thermophysical data. Thermochemistry of some alkylsubstituted anthracenes
Source: J. Chem. Thermodyn., 2006, 10.1016/j.jct.2005.06.001
Compound 1: carbon dioxide, CO2, InChI=1S/CO2/c2-1-3
Compound 2: water, H2O, InChI=1S/H2O/h1H2
Compound 3: oxygen, O2, InChI=1S/O2/c1-2
Compound 4: 9-methylanthracene, C15H12, InChI=1S/C15H12/c1-11-14-8-4-2-6-12(14)10-13-7-3-5-9-15(11)13/h2-10H,1H3, purity 98%
Compound 5: 2-ethylanthracene, C16H14, InChI=1S/C16H14/c1-2-12-7-8-15-10-13-5-3-4-6-14(13)11-16(15)9-12/h3-11H,2H2,1H3, purity 98%
Compound 6: 9,10-dimethylanthracene, C16H14, InChI=1S/C16H14/c1-11-13-7-3-5-9-15(13)12(2)16-10-6-4-8-14(11)16/h3-10H,1-2H3, purity 99%

System: 9-methylanthracene; phases: Crystal, Liquid, Air at 1 atmosphere
Property: Normal melting temperature, K (Crystal); method: VISOBS:FP
Normal melting temperature, K	uncertainty
354.8	0.5

System: 9-methylanthracene; phases: Crystal, Gas
Property: Vapor or sublimation pressure, kPa (Crystal); method: Calculated from knudsen effusion weight loss
Temperature, K	Vapor or sublimation pressure, kPa	uncertainty
329.16	0.000185	9e-06
329.16	0.000194	1e-05
329.16	0.000184	9e-06
331.19	0.000237	1.2e-05
331.19	0.000244	1.2e-05
331.19	0.000236	1.2e-05
333.17	0.000271	1.4e-05
333.17	0.000297	1.5e-05
333.17	0.000286	1.4e-05
335.16	0.000345	1.7e-05
335.16	0.00036	1.8e-05
335.16	0.00035	1.8e-05
337.15	0.000427	2.1e-05
337.15	0.00045	2.3e-05
337.15	0.000435	2.2e-05
339.16	0.000562	2.8e-05
339.16	0.000577	2.9e-05
339.16	0.000559	2.8e-05
341.17	0.000666	3.3e-05
341.17	0.000681	3.4e-05
341.17	0.00066	3.3e-05
343.21	0.000829	4.2e-05
343.21	0.000851	4.3e-05
343.21	0.000821	4.1e-05
345.19	0.001004	0.000101
345.19	0.00104	0.000105
345.19	0.001011	0.000101

System: 2-ethylanthracene; phases: Crystal, Liquid, Air at 1 atmosphere
Property: Normal melting temperature, K (Crystal); method: VISOBS:FP
Normal melting temperature, K	uncertainty
427.6	0.5

System: 2-ethylanthracene; phases: Crystal, Gas
Property: Vapor or sublimation pressure, kPa (Crystal); method: Calculated from knudsen effusion weight loss
Temperature, K	Vapor or sublimation pressure, kPa	uncertainty
343.27	0.000164	8e-06
343.27	0.000165	8e-06
343.27	0.000165	8e-06
345.13	0.000203	1e-05
345.13	0.000203	1e-05
345.13	0.0002	1e-05
347.1	0.000239	1.2e-05
347.1	0.000235	1.2e-05
347.1	0.000241	1.2e-05
349.26	0.000301	1.5e-05
349.26	0.000306	1.5e-05
349.26	0.000309	1.5e-05
351.15	0.000378	1.9e-05
351.15	0.000372	1.9e-05
351.15	0.00037	1.9e-05
353.11	0.000465	2.3e-05
353.11	0.000456	2.3e-05
353.11	0.000458	2.3e-05
355.27	0.00056	2.8e-05
355.27	0.000562	2.8e-05
355.27	0.000569	2.9e-05
357.07	0.000684	3.4e-05
357.07	0.000684	3.4e-05
357.07	0.000668	3.3e-05
359.05	0.000828	4.1e-05
359.05	0.000833	4.2e-05
359.05	0.000824	4.1e-05

System: 9,10-dimethylanthracene; phases: Crystal, Liquid, Air at 1 atmosphere
Property: Normal melting temperature, K (Crystal); method: VISOBS:FP
Normal melting temperature, K	uncertainty
459.5	0.5

System: 9,10-dimethylanthracene; phases: Crystal, Gas
Property: Vapor or sublimation pressure, kPa (Crystal); method: Calculated from knudsen effusion weight loss
Temperature, K	Vapor or sublimation pressure, kPa	uncertainty
363.18	0.000229	1.1e-05
363.18	0.000242	1.2e-05
363.18	0.000213	1.1e-05
365.2	0.000287	1.4e-05
365.2	0.000302	1.5e-05
365.2	0.000271	1.4e-05
367.18	0.000344	1.7e-05
367.18	0.00036	1.8e-05
367.18	0.000332	1.7e-05
369.18	0.000425	2.1e-05
369.18	0.000444	2.2e-05
369.18	0.00041	2.1e-05
371.2	0.000498	2.5e-05
371.2	0.00053	2.7e-05
371.2	0.000494	2.5e-05
373.19	0.000613	3.1e-05
373.19	0.000654	3.3e-05
373.19	0.00061	3.1e-05
375.18	0.000736	3.7e-05
375.18	0.000761	3.8e-05
375.18	0.00071	3.6e-05
377.17	0.00088	4.4e-05
377.17	0.000913	4.6e-05
377.17	0.000841	4.2e-05
378.98	0.001057	0.000107
378.98	0.001092	0.000111
378.98	0.001008	0.000101

Reaction: -1 2-ethylanthracene + 16 carbon dioxide + 7 water + -19.5 oxygen
Property: Specific internal energy of reaction at constant volume, J/g
-40471.9

Reaction: -1 9,10-dimethylanthracene + 16 carbon dioxide + 7 water + -19.5 oxygen
Property: Specific internal energy of reaction at constant volume, J/g
-40519.9

Reaction: -1 9-methylanthracene + 15 carbon dioxide + 6 water + -18 oxygen
Property: Specific internal energy of reaction at constant volume, J/g
-40088.5
