Measured thermophysical data. Experimental (solid + liquid) or (liquid + liquid) phase equilibria of (amine + nitrile) binary mixtures
Source: J. Chem. Thermodyn., 2007, 10.1016/j.jct.2006.07.008
Compound 1: 1-hexanamine, C6H15N, InChI=1S/C6H15N/c1-2-3-4-5-6-7/h2-7H2,1H3
Compound 2: 1-octanamine, C8H19N, InChI=1S/C8H19N/c1-2-3-4-5-6-7-8-9/h2-9H2,1H3
Compound 3: 1-decanamine, C10H23N, InChI=1S/C10H23N/c1-2-3-4-5-6-7-8-9-10-11/h2-11H2,1H3
Compound 4: 1,3-propanediamine, C3H10N2, InChI=1S/C3H10N2/c4-2-1-3-5/h1-5H2
Compound 5: acetonitrile, C2H3N, InChI=1S/C2H3N/c1-2-3/h1H3
Compound 6: propanenitrile, C3H5N, InChI=1S/C3H5N/c1-2-3-4/h2H2,1H3
Compound 7: butanenitrile, C4H7N, InChI=1S/C4H7N/c1-2-3-4-5/h2-3H2,1H3

System: 1-hexanamine; phases: Crystal, Liquid, Air at 1 atmosphere
Property: Normal melting temperature, K (Crystal); method: VISOBS:UFactor:3
Normal melting temperature, K	uncertainty
252.15	0.46

System: 1-octanamine; phases: Crystal, Liquid, Air at 1 atmosphere
Property: Normal melting temperature, K (Crystal); method: VISOBS:UFactor:2
Normal melting temperature, K	uncertainty
273.37	0.31

System: 1,3-propanediamine; phases: Crystal, Liquid, Air at 1 atmosphere
Property: Normal melting temperature, K (Crystal); method: VISOBS:UFactor:4
Normal melting temperature, K	uncertainty
262.19	0.62

System: acetonitrile; phases: Crystal, Liquid, Air at 1 atmosphere
Property: Normal melting temperature, K (Crystal); method: VISOBS:UFactor:3
Normal melting temperature, K	uncertainty
230.42	0.46

System: acetonitrile + 1-hexanamine; phases: Crystal, Air at 1 atmosphere, Crystal, Liquid
Property: Eutectic temperature, K (Crystal); method: PHASDIA:
Eutectic temperature, K	uncertainty
228.22	0.5

System: acetonitrile + 1-hexanamine; phases: Crystal, Liquid, Crystal, Air at 1 atmosphere
Property: Eutectic composition: mole fraction of 1-hexanamine (Crystal); method: Derived from phase diagram analysis
Eutectic composition: mole fraction of 1-hexanamine	uncertainty
0.0426	0.01

System: acetonitrile + 1-hexanamine; phases: Liquid, Crystal
Fixed: Pressure, kPa = 101
Property: Solid-liquid equilibrium temperature, K (Liquid); method: VISOBS:UFactor:3
Mole fraction of 1-hexanamine	Solid-liquid equilibrium temperature, K	uncertainty
0	230.42	0.46
0.0194	229.19	0.47
0.035	228.48	0.47
0.0426	228.22	0.47

System: acetonitrile + 1-hexanamine; phases: Liquid, Crystal
Fixed: Pressure, kPa = 101
Property: Solid-liquid equilibrium temperature, K (Liquid); method: VISOBS:UFactor:3
Mole fraction of 1-hexanamine	Solid-liquid equilibrium temperature, K	uncertainty
0.0426	228.22	0.5
0.0453	228.69	0.5
0.0567	230.18	0.49
0.0721	232.46	0.48
0.1003	235.35	0.47
0.1287	237.59	0.47
0.1521	238.42	0.47
0.1856	239.5	0.47
0.2144	240.29	0.47
0.2482	240.99	0.47
0.2872	241.74	0.47
0.3297	242.44	0.47
0.3788	243.05	0.46
0.4354	243.56	0.46
0.4961	244.52	0.47
0.5302	244.93	0.46
0.5799	245.45	0.46
0.6392	245.89	0.46
0.6912	246.51	0.46
0.7198	246.8	0.46
0.7679	247.34	0.46
0.8108	247.96	0.47
0.8598	248.63	0.47
0.8997	249.62	0.47
0.9299	250.19	0.47
0.9646	251.2	0.47
1	252.15	0.46

System: acetonitrile + 1-octanamine; phases: Liquid, Crystal
Fixed: Pressure, kPa = 101
Property: Solid-liquid equilibrium temperature, K (Liquid); method: VISOBS:UFactor:2
Mole fraction of 1-octanamine	Solid-liquid equilibrium temperature, K	uncertainty
0.0069	241.84	4.29
0.0081	246.97	4.29
0.0169	253.03	0.51
0.0341	258.09	0.38
0.0568	261.61	0.34
0.087	265.2	0.32
0.1367	267.12	0.31
0.1878	268.25	0.31
0.2275	268.69	0.31
0.2491	268.81	0.31
0.2819	268.86	0.31
0.3199	268.9	0.31
0.3608	268.98	0.31
0.4187	269.02	0.31
0.4608	269.06	0.31
0.497	269.19	0.31
0.5391	269.31	0.31
0.5889	269.52	0.31
0.6148	269.64	0.31
0.6482	269.73	0.31
0.6811	269.93	0.31
0.7132	270.1	0.31
0.7473	270.18	0.31
0.7752	270.35	0.31
0.806	270.56	0.31
0.8359	270.77	0.31
0.8639	271.03	0.31
0.8961	271.34	0.31
0.9149	271.68	0.31
0.9542	272.51	0.31
1	273.37	0.31

System: acetonitrile + 1,3-propanediamine; phases: Crystal, Air at 1 atmosphere, Crystal, Liquid
Property: Eutectic temperature, K (Crystal); method: PHASDIA::
Eutectic temperature, K	uncertainty
221.72	0.6

System: acetonitrile + 1,3-propanediamine; phases: Crystal, Liquid, Crystal, Air at 1 atmosphere
Property: Eutectic composition: mole fraction of 1,3-propanediamine (Crystal); method: Derived from phase diagram analysis
Eutectic composition: mole fraction of 1,3-propanediamine	uncertainty
0.1374	0.01

System: acetonitrile + 1,3-propanediamine; phases: Liquid, Crystal
Fixed: Pressure, kPa = 101
Property: Solid-liquid equilibrium temperature, K (Liquid); method: VISOBS:UFactor:4
Mole fraction of 1,3-propanediamine	Solid-liquid equilibrium temperature, K	uncertainty
0.1374	221.72	0.68
0.1463	224.12	0.66
0.1597	227.04	0.64
0.1783	229.52	0.63
0.2188	232.91	0.63
0.2418	235.25	0.62
0.2966	239.29	0.62
0.3442	242.19	0.62
0.3985	243.8	0.62
0.4418	245.48	0.62
0.4805	246.88	0.62
0.5358	249	0.62
0.5851	250.52	0.62
0.6456	252.78	0.62
0.7016	254.81	0.62
0.7386	256.03	0.62
0.7843	257.33	0.62
0.8527	258.82	0.62
0.9069	260.02	0.62
0.9513	261.31	0.62
1	262.19	0.62

System: acetonitrile + 1,3-propanediamine; phases: Liquid, Crystal
Fixed: Pressure, kPa = 101
Property: Solid-liquid equilibrium temperature, K (Liquid); method: VISOBS:UFactor:4
Mole fraction of 1,3-propanediamine	Solid-liquid equilibrium temperature, K	uncertainty
0	230.42	0.62
0.0395	227.76	0.62
0.0785	225.83	0.62
0.1096	224.03	0.62
0.1374	221.72	0.63

System: propanenitrile + 1-octanamine; phases: Liquid mixture 1, Liquid mixture 2
Fixed: Pressure, kPa = 101
Property: Liquid-liquid equilibrium temperature, K (Liquid mixture 1); method: VISOBS:UFactor:3
Mole fraction of 1-octanamine	Liquid-liquid equilibrium temperature, K	uncertainty
0.0051	282.71	1.18
0.0138	292.16	1
0.0211	296.78	0.79
0.0519	298.89	0.47
0.0971	300.05	0.46
0.1651	299.64	0.46
0.1952	298.74	0.47
0.2311	297.76	0.47
0.2589	296.75	0.47
0.3238	294.54	0.47
0.3632	293.15	0.47
0.4003	291.97	0.47
0.4309	291.17	0.47
0.4921	289.15	0.47
0.5538	287.23	0.47
0.6384	284.33	0.47
0.6902	282.55	0.47
0.7321	281.46	0.47
0.7718	280.14	0.47

System: propanenitrile + 1-decanamine; phases: Liquid mixture 1, Liquid mixture 2
Fixed: Pressure, kPa = 101
Property: Liquid-liquid equilibrium temperature, K (Liquid mixture 1); method: VISOBS:UFactor:2
Mole fraction of 1-decanamine	Liquid-liquid equilibrium temperature, K	uncertainty
0.0031	294.41	0.89
0.0089	299.26	0.64
0.0171	302.37	0.35
0.0439	305.2	0.32
0.0729	306.69	0.31
0.1133	308.15	0.31
0.1392	308.44	0.31
0.1816	308.15	0.31
0.2231	307.44	0.31
0.2667	306.54	0.31
0.3042	305.62	0.31
0.348	304.57	0.31
0.4071	303.28	0.31
0.4632	302.15	0.31
0.5189	300.85	0.31
0.5933	299.43	0.31
0.6733	297.68	0.31
0.7389	296.4	0.31
0.797	295.35	0.31
0.8402	294.37	0.31

System: butanenitrile + 1-octanamine; phases: Liquid mixture 1, Liquid mixture 2
Fixed: Pressure, kPa = 101
Property: Liquid-liquid equilibrium temperature, K (Liquid mixture 1); method: VISOBS:UFactor:3
Mole fraction of 1-octanamine	Liquid-liquid equilibrium temperature, K	uncertainty
0.0048	285	1.34
0.0091	290.39	0.95
0.0159	294.5	0.76
0.0453	299.16	0.47
0.0983	301.14	0.47
0.1597	301.66	0.46
0.2319	300.64	0.47
0.2602	299.82	0.47
0.3	298.41	0.47
0.3555	296.64	0.47
0.4041	294.92	0.47
0.4602	292.61	0.47
0.5179	289.71	0.47
0.5649	287.6	0.47
0.5985	286.03	0.47
0.6503	283.57	0.47
0.7019	281.17	0.47

System: butanenitrile + 1-decanamine; phases: Liquid mixture 1, Liquid mixture 2
Fixed: Pressure, kPa = 101
Property: Liquid-liquid equilibrium temperature, K (Liquid mixture 1); method: VISOBS:UFactor:2
Mole fraction of 1-decanamine	Liquid-liquid equilibrium temperature, K	uncertainty
0.0102	299.68	0.36
0.0287	303.15	0.33
0.0579	305.83	0.32
0.0981	307.67	0.31
0.1232	308.76	0.31
0.1561	309.43	0.31
0.1926	309.67	0.31
0.2488	309.22	0.31
0.3179	308.15	0.31
0.363	307.25	0.31
0.4264	306.15	0.31
0.4842	305.15	0.31
0.5479	304.15	0.31
0.5989	302.94	0.31
0.6551	302.02	0.31
0.7058	301.15	0.31
0.7771	299.51	0.31
0.8548	298.09	0.31
