Measured thermophysical data. High-pressure (up to 140 MPa) density and derivative properties of some (pentyl-, hexyl-, and heptyl-) amines between (293.15 and 353.15) K
Source: J. Chem. Thermodyn., 2008, 10.1016/j.jct.2008.01.006
Compound 1: 1-pentanamine, C5H13N, InChI=1S/C5H13N/c1-2-3-4-5-6/h2-6H2,1H3, purity 98.5%
Compound 2: 1-hexanamine, C6H15N, InChI=1S/C6H15N/c1-2-3-4-5-6-7/h2-7H2,1H3, purity 99%
Compound 3: 1-heptanamine, C7H17N, InChI=1S/C7H17N/c1-2-3-4-5-6-7-8/h2-8H2,1H3, purity 99%

System: 1-pentanamine; phases: Liquid
Property: Mass density, kg/m3 (Liquid); method: Vibrating tube method
Temperature, K	Pressure, kPa	Mass density, kg/m3	uncertainty
293.15	100	754.1	0.4
293.15	10000	760.9	0.4
293.15	20000	767.4	0.5
293.15	30000	773.4	0.6
293.15	40000	778.9	0.7
293.15	50000	784.2	0.8
293.15	60000	789.3	0.8
293.15	70000	794	0.9
293.15	80000	798.5	1
293.15	90000	802.8	1.1
293.15	100000	806.9	1.2
293.15	110000	810.8	1.2
293.15	120000	814.7	1.3
293.15	130000	818.4	1.4
293.15	140000	822	1.4
303.15	100	744.7	0.4
303.15	10000	752.6	0.5
303.15	20000	759.6	0.5
303.15	30000	765.9	0.6
303.15	40000	772	0.7
303.15	50000	777.4	0.8
303.15	60000	782.7	0.9
303.15	70000	787.4	1
303.15	80000	792.1	1
303.15	90000	796.5	1.1
303.15	100000	800.8	1.2
303.15	110000	805	1.3
303.15	120000	808.8	1.3
303.15	130000	812.5	1.4
303.15	140000	816.1	1.5
313.15	100	735.6	0.4
313.15	10000	743.8	0.5
313.15	20000	751.1	0.5
313.15	30000	757.9	0.6
313.15	40000	764.1	0.7
313.15	50000	769.8	0.8
313.15	60000	775.2	0.9
313.15	70000	780.3	1
313.15	80000	785.1	1.1
313.15	90000	789.7	1.1
313.15	100000	794.1	1.2
313.15	110000	798.4	1.3
313.15	120000	802.4	1.4
313.15	130000	806.4	1.4
313.15	140000	810.1	1.5
323.15	100	726.4	0.4
323.15	10000	735.1	0.5
323.15	20000	742.8	0.6
323.15	30000	749.8	0.6
323.15	40000	756.3	0.7
323.15	50000	762.3	0.8
323.15	60000	768	0.9
323.15	70000	773.2	1
323.15	80000	778.2	1.1
323.15	90000	783	1.2
323.15	100000	787.6	1.3
323.15	110000	792.1	1.3
323.15	120000	796.2	1.4
323.15	130000	800.3	1.5
323.15	140000	804.2	1.6
333.15	100	716.9	0.4
333.15	10000	726.1	0.5
333.15	20000	734.3	0.6
333.15	30000	741.7	0.7
333.15	40000	748.5	0.8
333.15	50000	754.8	0.9
333.15	60000	760.7	0.9
333.15	70000	766.3	1
333.15	80000	771.5	1.1
333.15	90000	776.5	1.2
333.15	100000	781.1	1.3
333.15	110000	785.6	1.4
333.15	120000	790	1.5
333.15	130000	794.2	1.5
333.15	140000	798	1.6
343.15	100	707.5	0.5
343.15	10000	717.8	0.5
343.15	20000	726.5	0.6
343.15	30000	734.4	0.7
343.15	40000	741.6	0.8
343.15	50000	748.2	0.9
343.15	60000	754.3	1
343.15	70000	760	1.1
343.15	80000	765.4	1.2
343.15	90000	770.6	1.2
343.15	100000	775.4	1.3
343.15	110000	780.1	1.4
343.15	120000	784.4	1.5
343.15	130000	788.7	1.6
343.15	140000	792.8	1.6
353.15	100	698	0.5
353.15	10000	708.7	0.6
353.15	20000	718	0.6
353.15	30000	726.3	0.7
353.15	40000	733.9	0.8
353.15	50000	740.8	0.9
353.15	60000	747.4	1
353.15	70000	753.3	1.1
353.15	80000	759.1	1.2
353.15	90000	764.2	1.3
353.15	100000	769.3	1.4
353.15	110000	774.1	1.4
353.15	120000	778.6	1.5
353.15	130000	782.9	1.6
353.15	140000	787.2	1.7

System: 1-hexanamine; phases: Liquid
Property: Mass density, kg/m3 (Liquid); method: Vibrating tube method
Temperature, K	Pressure, kPa	Mass density, kg/m3	uncertainty
293.15	100	765.1	0.3
293.15	10000	771.5	0.4
293.15	20000	777.6	0.5
293.15	30000	783.4	0.6
293.15	40000	788.8	0.6
293.15	50000	793.8	0.7
293.15	60000	798.8	0.8
293.15	70000	803.3	0.9
293.15	80000	807.7	1
293.15	90000	811.9	1
293.15	100000	815.9	1.1
293.15	110000	819.8	1.2
293.15	120000	823.5	1.2
293.15	130000	827.1	1.3
293.15	140000	830.5	1.4
303.15	100	756.2	0.4
303.15	10000	763.5	0.4
303.15	20000	770.2	0.5
303.15	30000	776.3	0.6
303.15	40000	781.9	0.7
303.15	50000	787.2	0.7
303.15	60000	792.2	0.8
303.15	70000	796.9	0.9
303.15	80000	801.5	1
303.15	90000	805.8	1.1
303.15	100000	810	1.1
303.15	110000	814	1.2
303.15	120000	817.9	1.3
303.15	130000	821.6	1.3
303.15	140000	825.1	1.4
313.15	100	748.2	0.4
313.15	10000	755.4	0.4
313.15	20000	762.3	0.5
313.15	30000	768.6	0.6
313.15	40000	774.6	0.7
313.15	50000	780.2	0.8
313.15	60000	785.3	0.8
313.15	70000	790.3	0.9
313.15	80000	794.9	1
313.15	90000	799.4	1.1
313.15	100000	803.7	1.2
313.15	110000	807.8	1.2
313.15	120000	811.7	1.3
313.15	130000	815.5	1.4
313.15	140000	819.1	1.4
323.15	100	738.9	0.4
323.15	10000	746.9	0.5
323.15	20000	754.2	0.5
323.15	30000	761	0.6
323.15	40000	767.2	0.7
323.15	50000	772.9	0.8
323.15	60000	778.4	0.9
323.15	70000	783.5	1
323.15	80000	788.4	1
323.15	90000	792.9	1.1
323.15	100000	797.3	1.2
323.15	110000	801.7	1.3
323.15	120000	805.8	1.3
323.15	130000	809.7	1.4
323.15	140000	813.5	1.5
333.15	100	730.2	0.4
333.15	10000	738.7	0.5
333.15	20000	746.3	0.5
333.15	30000	753.4	0.6
333.15	40000	759.9	0.7
333.15	50000	765.9	0.8
333.15	60000	771.6	0.9
333.15	70000	776.9	1
333.15	80000	781.9	1.1
333.15	90000	786.7	1.2
333.15	100000	791.2	1.2
333.15	110000	795.7	1.3
333.15	120000	799.9	1.4
333.15	130000	803.8	1.5
333.15	140000	807.6	1.5
343.15	100	721.3	0.4
343.15	10000	730.6	0.5
343.15	20000	738.8	0.6
343.15	30000	746.4	0.6
343.15	40000	753.2	0.7
343.15	50000	759.6	0.8
343.15	60000	765.6	0.9
343.15	70000	771	1
343.15	80000	776.2	1.1
343.15	90000	781.1	1.2
343.15	100000	785.9	1.3
343.15	110000	790.3	1.3
343.15	120000	794.6	1.4
343.15	130000	798.8	1.5
343.15	140000	802.7	1.6
353.15	100	712.4	0.5
353.15	10000	722.3	0.5
353.15	20000	731.1	0.6
353.15	30000	739	0.7
353.15	40000	746	0.8
353.15	50000	752.5	0.9
353.15	60000	759	0.9
353.15	70000	764.6	1
353.15	80000	770	1.1
353.15	90000	775.1	1.2
353.15	100000	780	1.3
353.15	110000	784.6	1.4
353.15	120000	789.1	1.5
353.15	130000	793.2	1.5
353.15	140000	797.3	1.6

System: 1-heptanamine; phases: Liquid
Property: Mass density, kg/m3 (Liquid); method: Vibrating tube method
Temperature, K	Pressure, kPa	Mass density, kg/m3	uncertainty
293.15	100	774.9	0.4
293.15	10000	781.1	0.5
293.15	20000	787.1	0.5
293.15	30000	792.6	0.6
293.15	40000	797.8	0.7
293.15	50000	802.7	0.8
293.15	60000	807.4	0.9
293.15	70000	811.8	0.9
293.15	80000	816.1	1
293.15	90000	820.2	1.1
293.15	100000	824	1.2
293.15	110000	827.8	1.2
293.15	120000	831.5	1.3
293.15	130000	835	1.3
293.15	140000	838.3	1.4
303.15	100	766.5	0.4
303.15	10000	773.6	0.5
303.15	20000	780	0.6
303.15	30000	785.8	0.6
303.15	40000	791.3	0.7
303.15	50000	796.5	0.8
303.15	60000	801.3	0.9
303.15	70000	806	1
303.15	80000	810.4	1
303.15	90000	814.6	1.1
303.15	100000	818.7	1.2
303.15	110000	822.5	1.3
303.15	120000	826.2	1.3
303.15	130000	829.9	1.4
303.15	140000	833.3	1.4
313.15	100	758.2	0.4
313.15	10000	765.4	0.5
313.15	20000	772	0.6
313.15	30000	778.2	0.7
313.15	40000	784	0.7
313.15	50000	789.3	0.8
313.15	60000	794.5	0.9
313.15	70000	799.2	1
313.15	80000	803.7	1.1
313.15	90000	808	1.2
313.15	100000	812.2	1.2
313.15	110000	816.2	1.3
313.15	120000	820.1	1.4
313.15	130000	823.8	1.4
313.15	140000	827.4	1.5
323.15	100	749.8	0.4
323.15	10000	757.6	0.5
323.15	20000	764.5	0.6
323.15	30000	771	0.7
323.15	40000	777	0.8
323.15	50000	782.6	0.9
323.15	60000	787.8	0.9
323.15	70000	792.7	1
323.15	80000	797.5	1.1
323.15	90000	802	1.2
323.15	100000	806.3	1.3
323.15	110000	810.6	1.3
323.15	120000	814.5	1.4
323.15	130000	818.4	1.5
323.15	140000	822.1	1.5
333.15	100	741.4	0.4
333.15	10000	749.5	0.5
333.15	20000	756.8	0.6
333.15	30000	763.4	0.7
333.15	40000	769.6	0.8
333.15	50000	775.5	0.9
333.15	60000	780.9	1
333.15	70000	786.2	1
333.15	80000	791.1	1.1
333.15	90000	795.6	1.2
333.15	100000	800	1.3
333.15	110000	804.3	1.4
333.15	120000	808.4	1.4
333.15	130000	812.4	1.5
333.15	140000	816.2	1.6
343.15	100	732.6	0.5
343.15	10000	741.7	0.5
343.15	20000	749.6	0.6
343.15	30000	756.7	0.7
343.15	40000	763.3	0.8
343.15	50000	769.4	0.9
343.15	60000	775.1	1
343.15	70000	780.4	1.1
343.15	80000	785.5	1.2
343.15	90000	790.3	1.2
343.15	100000	794.9	1.3
343.15	110000	799.2	1.4
343.15	120000	803.3	1.5
343.15	130000	807.4	1.5
343.15	140000	811.3	1.6
353.15	100	724.4	0.5
353.15	10000	733.7	0.6
353.15	20000	741.9	0.6
353.15	30000	749.3	0.7
353.15	40000	756.2	0.8
353.15	50000	762.6	0.9
353.15	60000	768.7	1
353.15	70000	774.2	1.1
353.15	80000	779.5	1.2
353.15	90000	784.3	1.3
353.15	100000	789.2	1.3
353.15	110000	793.7	1.4
353.15	120000	797.9	1.5
353.15	130000	802.1	1.6
353.15	140000	806.1	1.6
