Measured thermophysical data. Heat capacities of potential organic phase change materials
Source: J. Chem. Thermodyn., 2019, 10.1016/j.jct.2018.08.014
Compound 1: methyl undecanoate, C12H24O2, InChI=1S/C12H24O2/c1-3-4-5-6-7-8-9-10-11-12(13)14-2/h3-11H2,1-2H3, purity 98.6%
Compound 2: ethyl decanoate, C12H24O2, InChI=1S/C12H24O2/c1-3-5-6-7-8-9-10-11-12(13)14-4-2/h3-11H2,1-2H3, purity 99.8%
Compound 3: butyl octanoate, C12H24O2, InChI=1S/C12H24O2/c1-3-5-7-8-9-10-12(13)14-11-6-4-2/h3-11H2,1-2H3, purity 98%
Compound 4: hexanoic acid, hexyl ester, C12H24O2, InChI=1S/C12H24O2/c1-3-5-7-9-11-14-12(13)10-8-6-4-2/h3-11H2,1-2H3, purity 97%
Compound 5: octyl butanoate, C12H24O2, InChI=1S/C12H24O2/c1-3-5-6-7-8-9-11-14-12(13)10-4-2/h3-11H2,1-2H3, purity 99%

System: methyl undecanoate; phases: Crystal, Liquid, Air at 1 atmosphere
Property: Triple point temperature, K (Crystal); method: DSC
Triple point temperature, K	uncertainty
262	2

System: methyl undecanoate; phases: Liquid
Fixed: Pressure, kPa = 101.325
Property: Molar heat capacity at constant pressure, J/K/mol (Liquid); method: DSC
Temperature, K	Molar heat capacity at constant pressure, J/K/mol	uncertainty
273	381.6126	40.7386
275	381.6126	40.7386
277	384.1068	40.7386
279	380.7812	40.7386
281	381.6126	40.7386
283	382.444	40.7386
285	382.444	40.7386
287	385.7696	40.7386
289	384.1068	40.7386
291	384.1068	40.7386
293	384.9382	40.7386
295	384.9382	40.7386
297	385.7696	40.7386
298	389.0952	41.57
299	385.7696	40.7386
301	386.601	40.7386
303	389.9266	41.57

System: ethyl decanoate; phases: Crystal, Liquid, Air at 1 atmosphere
Property: Triple point temperature, K (Crystal); method: DSC
Triple point temperature, K	uncertainty
252	2

System: ethyl decanoate; phases: Liquid
Fixed: Pressure, kPa = 101.325
Property: Molar heat capacity at constant pressure, J/K/mol (Liquid); method: DSC
Temperature, K	Molar heat capacity at constant pressure, J/K/mol	uncertainty
263	375.7928	39.9072
265	375.7928	39.9072
267	375.7928	39.9072
269	375.7928	39.9072
271	375.7928	39.9072
273	374.9614	39.9072
275	374.13	39.9072
277	374.9614	39.9072
279	376.6242	39.9072
281	378.287	39.9072
283	379.1184	39.9072
285	379.9498	39.9072
287	379.9498	39.9072
289	380.7812	40.7386
291	380.7812	40.7386
293	381.6126	40.7386
295	382.444	40.7386
297	383.2754	40.7386
298	383.2754	40.7386
299	384.1068	40.7386
301	385.7696	40.7386
303	385.7696	40.7386

System: butyl octanoate; phases: Crystal, Liquid, Air at 1 atmosphere
Property: Triple point temperature, K (Crystal); method: DSC
Triple point temperature, K	uncertainty
230	2

System: butyl octanoate; phases: Liquid
Fixed: Pressure, kPa = 101.325
Property: Molar heat capacity at constant pressure, J/K/mol (Liquid); method: DSC
Temperature, K	Molar heat capacity at constant pressure, J/K/mol	uncertainty
241	387.4324	40.7386
243	387.4324	40.7386
245	386.601	40.7386
247	386.601	40.7386
249	386.601	40.7386
251	386.601	40.7386
253	386.601	40.7386
255	387.4324	40.7386
257	388.2638	41.57
259	387.4324	40.7386
261	387.4324	40.7386
263	386.601	40.7386
265	386.601	40.7386
267	386.601	40.7386
269	386.601	40.7386
271	386.601	40.7386
273	386.601	40.7386
275	386.601	40.7386
277	386.601	40.7386
279	388.2638	41.57
281	389.0952	41.57
283	390.758	41.57
285	391.5894	41.57
287	391.5894	41.57
289	393.2522	41.57
291	394.0836	41.57
293	394.915	41.57
295	395.7464	41.57
297	396.5778	42.4014
298	397.4092	42.4014
299	397.4092	42.4014
301	398.2406	42.4014
303	399.072	42.4014

System: hexanoic acid, hexyl ester; phases: Crystal, Liquid, Air at 1 atmosphere
Property: Triple point temperature, K (Crystal); method: DSC
Triple point temperature, K	uncertainty
217	2

System: hexanoic acid, hexyl ester; phases: Liquid
Fixed: Pressure, kPa = 101.325
Property: Molar heat capacity at constant pressure, J/K/mol (Liquid); method: DSC
Temperature, K	Molar heat capacity at constant pressure, J/K/mol	uncertainty
227	390.758	41.57
229	387.4324	40.7386
231	385.7696	40.7386
233	384.9382	40.7386
235	384.1068	40.7386
237	384.1068	40.7386
239	383.2754	40.7386
241	383.2754	40.7386
243	383.2754	40.7386
245	383.2754	40.7386
247	383.2754	40.7386
249	383.2754	40.7386
251	383.2754	40.7386
253	383.2754	40.7386
255	384.1068	40.7386
257	384.9382	40.7386
259	384.9382	40.7386
261	384.9382	40.7386
263	385.7696	40.7386
265	385.7696	40.7386
267	385.7696	40.7386
269	385.7696	40.7386
271	385.7696	40.7386
273	384.9382	40.7386
275	384.9382	40.7386
277	385.7696	40.7386
279	386.601	40.7386
281	387.4324	40.7386
283	389.0952	41.57
285	389.9266	41.57
287	390.758	41.57
289	392.4208	41.57
291	392.4208	41.57
293	393.2522	41.57
295	394.0836	41.57
297	394.915	41.57
298	394.915	41.57
299	394.915	41.57
301	396.5778	42.4014
303	397.4092	42.4014

System: octyl butanoate; phases: Crystal, Liquid, Air at 1 atmosphere
Property: Triple point temperature, K (Crystal); method: DSC
Triple point temperature, K	uncertainty
218	2

System: octyl butanoate; phases: Liquid
Fixed: Pressure, kPa = 101.325
Property: Molar heat capacity at constant pressure, J/K/mol (Liquid); method: DSC
Temperature, K	Molar heat capacity at constant pressure, J/K/mol	uncertainty
227	380.7812	40.7386
229	379.1184	39.9072
231	379.1184	39.9072
233	378.287	39.9072
235	376.6242	39.9072
237	376.6242	39.9072
239	375.7928	39.9072
241	374.9614	39.9072
243	374.13	39.9072
245	373.2986	39.9072
247	373.2986	39.9072
249	372.4672	39.9072
251	372.4672	39.9072
253	372.4672	39.9072
255	372.4672	39.9072
257	373.2986	39.9072
259	372.4672	39.9072
261	373.2986	39.9072
263	373.2986	39.9072
265	373.2986	39.9072
267	374.13	39.9072
269	374.13	39.9072
271	374.13	39.9072
273	373.2986	39.9072
275	373.2986	39.9072
277	373.2986	39.9072
279	374.13	39.9072
281	375.7928	39.9072
283	376.6242	39.9072
285	377.4556	39.9072
287	378.287	39.9072
289	379.1184	39.9072
291	379.9498	39.9072
293	380.7812	40.7386
295	381.6126	40.7386
297	383.2754	40.7386
298	383.2754	40.7386
299	384.1068	40.7386
301	385.7696	40.7386
303	385.7696	40.7386
