Measured thermophysical data. Transport properties of 2:2 symmetrical electrolytes  in (water + ethylene glycol) binary mixtures at T = 293.15 K
Source: J. Chem. Thermodyn., 2006, 10.1016/j.jct.2006.01.011
Compound 1: 1,2-ethanediol, C2H6O2, InChI=1S/C2H6O2/c3-1-2-4/h3-4H,1-2H2, purity 99.5%
Compound 2: zinc sulfate, O4SZn, InChI=1S/H2O4S.Zn/c1-5(2,3)4;/h(H2,1,2,3,4);/q;+2/p-2, purity 99.8%
Compound 3: water, H2O, InChI=1S/H2O/h1H2

System: 1,2-ethanediol; phases: Liquid
Property: Mass density, kg/m3 (Liquid); method: Vibrating tube method
Temperature, K	Pressure, kPa	Mass density, kg/m3	uncertainty
293.15	101.325	1113.23	0.3

System: 1,2-ethanediol; phases: Liquid
Property: Refractive index (Na D-line) (Liquid); method: Standard Abbe refractometry
Temperature, K	Pressure, kPa	Refractive index (Na D-line)	uncertainty
293.15	101.325	1.4319	0.0007

System: 1,2-ethanediol; phases: Liquid
Property: Viscosity, Pa*s (Liquid); method: Capillary tube (Ostwald; Ubbelohde) method
Temperature, K	Pressure, kPa	Viscosity, Pa*s	uncertainty
293.15	101.325	0.020806	0.000305

System: water; phases: Liquid
Property: Mass density, kg/m3 (Liquid); method: Vibrating tube method
Temperature, K	Pressure, kPa	Mass density, kg/m3	uncertainty
293.15	101.325	998.2	0.04

System: water; phases: Liquid
Property: Viscosity, Pa*s (Liquid); method: Capillary tube (Ostwald; Ubbelohde) method
Temperature, K	Pressure, kPa	Viscosity, Pa*s	uncertainty
293.15	101.325	0.001008	7e-06

System: 1,2-ethanediol + water + zinc sulfate; phases: Liquid
Fixed: Temperature, K = 293.15
Fixed: Pressure, kPa = 101
Property: Mass density, kg/m3 (Liquid); method: Vibrating tube method
Amount concentration (molarity), mol/dm3 of zinc sulfate	Solvent: Mass fraction of 1,2-ethanediol	Mass density, kg/m3	uncertainty
5e-05	0	998.22	0.19
0.00011	0	998.23	0.19
0.00019	0	998.25	0.18
0.00042	0	998.29	0.18
0.00063	0	998.32	0.16
0.00083	0	998.36	0.17
0.00101	0	998.39	0.16
0.00127	0	998.41	0.15
0.0084	0	999.63	0.18
0.0194	0	1001.48	0.17
0.0403	0	1004.95	0.18
0.0545	0	1007.37	0.15
0.0714	0	1009.43	0.16
0.0795	0	1011.4	0.19
0.0979	0	1014.39	0.17
0.1391	0	1021.1	0.17
0.1756	0	1027.12	0.17
0.1998	0	1030.93	0.17
7e-05	0.1	1011.12	0.1
0.00013	0.1	1011.14	0.13
0.00026	0.1	1011.2	0.1
0.00056	0.1	1011.24	0.15
0.00078	0.1	1011.24	0.16
0.00102	0.1	1011.28	0.15
0.00127	0.1	1011.31	0.22
0.00158	0.1	1011.35	0.33
0.0085	0.1	1012.94	0.2
0.0196	0.1	1014.76	0.17
0.0388	0.1	1017.9	0.17
0.0545	0.1	1020.45	0.17
0.0667	0.1	1022.43	0.17
0.0787	0.1	1024.32	0.17
0.0974	0.1	1027.42	0.18
0.135	0.1	1033.74	0.17
0.177	0.1	1039.74	0.17
0.2025	0.1	1044.12	0.19
9e-05	0.2	1024.56	7.28
0.00013	0.2	1024.57	7.49
0.00029	0.2	1024.58	6.58
0.00055	0.2	1024.62	1.56
0.00077	0.2	1024.65	0.06
0.00104	0.2	1024.7	0.51
0.00141	0.2	1024.76	5.63
0.00162	0.2	1024.81	7.52
0.0098	0.2	1026.14	0.17
0.0215	0.2	1028.03	0.17
0.0397	0.2	1030.98	0.17
0.0542	0.2	1033.14	0.18
0.0656	0.2	1035.17	0.18
0.0772	0.2	1037.04	0.17
0.0983	0.2	1040.38	0.17
0.1384	0.2	1046.7	0.16
0.1791	0.2	1052.49	0.17
0.00109	0.3	1023.92	0.11
0.00131	0.3	1023.97	5.76
0.00158	0.3	1024.02	12.18
5e-05	0.3	1023.78	12.83
0.00014	0.3	1023.78	15.46
0.00027	0.3	1023.79	11.52
0.0005	0.3	1023.87	0.1
0.00076	0.3	1023.9	0.17
0.0087	0.3	1039.32	0.8
0.0205	0.3	1041.49	0.17
0.0387	0.3	1044.17	0.17
0.0546	0.3	1046.93	0.18
0.0668	0.3	1048.96	0.17
0.0773	0.3	1050.41	0.11
0.0938	0.3	1051.33	0.18
0.1373	0.3	1059.88	0.2
0.1729	0.3	1065.55	0.18
0.2071	0.3	1071.23	0.18
0.00026	0.4	1051.84	6.33
0.00054	0.4	1051.87	1.45
0.00078	0.4	1051.97	0.4
0.00107	0.4	1052.01	0.85
8e-05	0.4	1051.8	7.4
0.00013	0.4	1051.81	8
0.0013	0.4	1052.07	2.48
0.00161	0.4	1052.13	6.02
0.008	0.4	1053.08	0.19
0.02	0.4	1055.1	0.18
0.0397	0.4	1058.02	0.17
0.0548	0.4	1060.46	0.17
0.0672	0.4	1062.47	0.17
0.0783	0.4	1064.16	0.18
0.0984	0.4	1067.31	0.17
0.1371	0.4	1073.32	0.18
0.1716	0.4	1079.37	0.17
0.2101	0.4	1084.68	0.14
0.00011	0.5	1064.8	0.58
0.00019	0.5	1064.81	0.65
0.00028	0.5	1064.82	0.51
0.00057	0.5	1064.86	0.25
0.00084	0.5	1064.95	0.22
0.00109	0.5	1064.96	0.15
0.00138	0.5	1065	0.13
0.00169	0.5	1065.05	0.21
0.0086	0.5	1063.81	0.09
0.02	0.5	1065.58	0.17
0.039	0.5	1068.56	0.15
0.0608	0.5	1071.05	0.16
0.0667	0.5	1072.86	0.2
0.0782	0.5	1074.63	0.16
0.0976	0.5	1077.66	0.15
0.1424	0.5	1083.92	0.18
0.1757	0.5	1089.76	0.18
0.2123	0.5	1095.14	0.18
0.0086	0.6	1075.59	0.09
0.0197	0.6	1077.45	0.17
0.0402	0.6	1080.3	0.18
0.055	0.6	1083.03	0.2
0.0614	0.6	1084.09	0.38
0.0777	0.6	1090.6	0.41
0.0981	0.6	1098.38	0.12
0.1407	0.6	1095.68	0.09
0.1729	0.6	1101.26	0.17
0.2144	0.6	1106.66	0.15
0.00027	0.6	1077	0.49
0.00055	0.6	1077.05	0.25
0.00081	0.6	1077.11	0.2
0.00111	0.6	1077.17	0.15
0.00134	0.6	1077.2	0.09
0.00163	0.6	1077.25	0.17
0.0001	0.6	1076.97	0.53
0.00014	0.6	1076.99	0.55
0.00011	0.7	1088.44	1.19
0.00015	0.7	1088.45	1.24
0.00028	0.7	1088.47	1.5
0.00057	0.7	1088.51	0.29
0.00082	0.7	1088.56	0.25
0.00118	0.7	1088.6	0.21
0.00137	0.7	1088.63	0.17
0.00165	0.7	1088.69	0.72
0.008	0.7	1086.15	0.09
0.0198	0.7	1088.05	0.18
0.0397	0.7	1091.01	0.17
0.0545	0.7	1093.31	0.18
0.0657	0.7	1094.97	0.17
0.0784	0.7	1096.84	0.17
0.0968	0.7	1099.6	0.16
0.1379	0.7	1105.66	0.17
0.1778	0.7	1111.57	0.17
0.2164	0.7	1117.12	0.17
0.1391	0.8	1115.41	0.17
0.176	0.8	1120.71	0.17
0.2184	0.8	1126.7	0.18
0.0079	0.8	1096.47	0.1
0.0652	0.8	1104.88	0.17
0.0783	0.8	1106.72	0.17
0.00081	0.8	1097.87	0.09
0.00113	0.8	1097.91	0.09
0.00138	0.8	1097.95	0.17
0.00171	0.8	1098	0.86
0.0194	0.8	1098.22	0.17
0.0407	0.8	1101.3	0.17
0.0547	0.8	1103.22	0.17
0.0001	0.8	1097.75	1.73
0.00015	0.8	1097.76	1.81
0.00029	0.8	1097.79	1.38
0.00057	0.8	1097.83	0.31
0.0972	0.8	1109.4	0.17
0.0003	0.9	1104	1.03
9e-05	0.9	1103.75	1.08
0.00014	0.9	1103.83	1.05
0.00167	0.9	1105.39	1
0.00085	0.9	1104.57	1.02
0.00113	0.9	1104.85	1.02
0.00139	0.9	1105.12	1.01
0.00065	0.9	1104.37	1.06
0.0089	0.9	1107.17	0.21
0.0191	0.9	1108.68	0.17
0.0406	0.9	1111.71	0.17
0.0564	0.9	1113.94	0.17
0.0659	0.9	1115.23	0.17
0.0799	0.9	1117.24	0.17
0.0986	0.9	1119.85	0.17
0.1391	0.9	1125.34	0.17
0.1744	0.9	1130.41	0.17
0.2202	0.9	1136.79	0.18

System: 1,2-ethanediol + water + zinc sulfate; phases: Liquid
Fixed: Temperature, K = 293.15
Fixed: Pressure, kPa = 101
Fixed: Frequency, MHz = 0.001
Property: Electrical conductivity, S/m (Liquid); method: digital bridge-type conductivity meter
Amount concentration (molarity), mol/dm3 of zinc sulfate	Solvent: Mass fraction of 1,2-ethanediol	Electrical conductivity, S/m	uncertainty
5e-05	0	0.00119	1e-05
0.00011	0	0.00229	1e-05
0.00019	0	0.00391	2e-05
0.00042	0	0.0084	3e-05
0.00063	0	0.01218	5e-05
0.00083	0	0.0154	6e-05
0.00101	0	0.01833	7e-05
0.00127	0	0.02201	9e-05
9e-05	0.2	0.00108	1e-05
0.00013	0.2	0.00159	1e-05
0.00029	0.2	0.00343	1e-05
0.00055	0.2	0.00636	3e-05
0.00077	0.2	0.0086	3e-05
0.00104	0.2	0.01144	5e-05
0.00141	0.2	0.01401	6e-05
0.00162	0.2	0.01694	7e-05
8e-05	0.4	0.00054	1e-05
0.00013	0.4	0.00094	1e-05
0.00026	0.4	0.0018	1e-05
0.00054	0.4	0.00347	1e-05
0.00078	0.4	0.00479	2e-05
0.00107	0.4	0.0063	3e-05
0.0013	0.4	0.00731	3e-05
0.00161	0.4	0.0087	4e-05
0.0001	0.6	0.00038	1e-05
0.00014	0.6	0.00054	1e-05
0.00027	0.6	0.00096	1e-05
0.00055	0.6	0.00179	1e-05
0.00081	0.6	0.00244	1e-05
0.00111	0.6	0.00303	1e-05
0.00134	0.6	0.00363	2e-05
0.00163	0.6	0.00421	2e-05
0.0001	0.8	0.00015	1e-05
0.00015	0.8	0.00022	1e-05
0.00029	0.8	0.00039	1e-05
0.00057	0.8	0.00069	1e-05
0.00081	0.8	0.00093	1e-05
0.00113	0.8	0.00113	1e-05
0.00138	0.8	0.00138	1e-05
0.00171	0.8	0.00159	1e-05
7e-05	0.1	0.00132	1e-05
0.00013	0.1	0.00237	1e-05
0.00026	0.1	0.00423	2e-05
0.00056	0.1	0.00882	4e-05
0.00078	0.1	0.01177	5e-05
0.00102	0.1	0.01459	6e-05
0.00127	0.1	0.01774	7e-05
0.00158	0.1	0.021	8e-05
5e-05	0.3	0.00052	1e-05
0.00014	0.3	0.0013	1e-05
0.00027	0.3	0.00243	1e-05
0.0005	0.3	0.00418	2e-05
0.00076	0.3	0.00598	2e-05
0.00109	0.3	0.00816	3e-05
0.00131	0.3	0.00943	4e-05
0.00158	0.3	0.01114	4e-05
0.00011	0.5	0.00057	1e-05
0.00019	0.5	0.001	1e-05
0.00028	0.5	0.00143	1e-05
0.00057	0.5	0.00256	1e-05
0.00084	0.5	0.00362	2e-05
0.00109	0.5	0.00448	2e-05
0.00138	0.5	0.00544	2e-05
0.00169	0.5	0.00635	3e-05
0.00011	0.7	0.00029	1e-05
0.00015	0.7	0.00039	1e-05
0.00028	0.7	0.00069	1e-05
0.00057	0.7	0.00124	1e-05
0.00082	0.7	0.00168	1e-05
0.00118	0.7	0.00218	1e-05
0.00137	0.7	0.00248	1e-05
0.00165	0.7	0.00286	1e-05
9e-05	0.9	8e-05	1e-05
0.00014	0.9	0.00011	1e-05
0.0003	0.9	0.00021	1e-05
0.00065	0.9	0.00038	1e-05
0.00085	0.9	0.00046	1e-05
0.00113	0.9	0.00055	1e-05
0.00139	0.9	0.00063	1e-05
0.00167	0.9	0.00067	1e-05

System: 1,2-ethanediol + water + zinc sulfate; phases: Liquid
Fixed: Temperature, K = 293.15
Fixed: Pressure, kPa = 101
Property: Viscosity, Pa*s (Liquid); method: Capillary tube (Ostwald; Ubbelohde) method
Amount concentration (molarity), mol/dm3 of zinc sulfate	Solvent: Mass fraction of 1,2-ethanediol	Viscosity, Pa*s	uncertainty
0.0084	0	0.001015	7e-06
0.0194	0	0.001022	7e-06
0.0403	0	0.001036	7e-06
0.0545	0	0.001045	7e-06
0.0714	0	0.001054	7e-06
0.0795	0	0.001062	7e-06
0.0979	0	0.001074	8e-06
0.1391	0	0.001103	8e-06
0.1756	0	0.001127	8e-06
0.1998	0	0.001144	8e-06
0.0098	0.2	0.001684	1.2e-05
0.0215	0.2	0.0017	1.2e-05
0.0397	0.2	0.001724	1.2e-05
0.0542	0.2	0.001748	1.3e-05
0.0656	0.2	0.001757	1.3e-05
0.0772	0.2	0.001772	1.3e-05
0.0983	0.2	0.0018	1.3e-05
0.1384	0.2	0.001855	1.3e-05
0.1791	0.2	0.001907	1.4e-05
0.008	0.4	0.002865	2.2e-05
0.02	0.4	0.002896	2.3e-05
0.0397	0.4	0.002947	2.3e-05
0.0548	0.4	0.002989	2.4e-05
0.0672	0.4	0.003024	2.4e-05
0.0783	0.4	0.003055	2.4e-05
0.0984	0.4	0.003118	2.5e-05
0.1371	0.4	0.003239	2.6e-05
0.1716	0.4	0.003337	2.7e-05
0.2101	0.4	0.003438	2.8e-05
0.0086	0.6	0.004781	4.2e-05
0.0197	0.6	0.00484	4.2e-05
0.0402	0.6	0.004953	4.4e-05
0.055	0.6	0.005011	4.4e-05
0.0614	0.6	0.005093	4.7e-05
0.0777	0.6	0.005138	4.6e-05
0.0981	0.6	0.005185	4.6e-05
0.1407	0.6	0.005495	5e-05
0.1729	0.6	0.005699	5.3e-05
0.2144	0.6	0.00601	5.5e-05
0.0079	0.8	0.008067	8.1e-05
0.0194	0.8	0.00824	8.3e-05
0.0407	0.8	0.0085	8.6e-05
0.0547	0.8	0.008667	8.9e-05
0.0652	0.8	0.008777	9e-05
0.0783	0.8	0.008919	9.2e-05
0.0972	0.8	0.009112	9.5e-05
0.1391	0.8	0.009543	0.000101
0.176	0.8	0.00995	0.000107
0.2184	0.8	0.010441	0.000115
0.0085	0.1	0.001302	9e-06
0.0196	0.1	0.001313	9e-06
0.0388	0.1	0.001331	9e-06
0.0545	0.1	0.001345	9e-06
0.0667	0.1	0.001358	1e-05
0.0787	0.1	0.001367	1e-05
0.0974	0.1	0.001387	1e-05
0.135	0.1	0.001422	1e-05
0.177	0.1	0.001468	1e-05
0.2025	0.1	0.001484	1.1e-05
0.0087	0.3	0.002197	1.6e-05
0.0205	0.3	0.002218	1.6e-05
0.0387	0.3	0.002251	1.7e-05
0.0546	0.3	0.002282	1.7e-05
0.0668	0.3	0.002303	1.7e-05
0.0773	0.3	0.002328	1.7e-05
0.0938	0.3	0.002361	1.8e-05
0.1373	0.3	0.00244	1.8e-05
0.1729	0.3	0.002524	1.9e-05
0.2071	0.3	0.002573	2e-05
0.0086	0.5	0.003594	2.9e-05
0.02	0.5	0.003638	3e-05
0.039	0.5	0.003723	3.1e-05
0.0608	0.5	0.003767	3.1e-05
0.0667	0.5	0.003815	3.2e-05
0.0782	0.5	0.003858	3.2e-05
0.0976	0.5	0.003934	3.3e-05
0.1424	0.5	0.004091	3.4e-05
0.1757	0.5	0.004247	3.6e-05
0.2123	0.5	0.004404	3.8e-05
0.008	0.7	0.006443	6e-05
0.0198	0.7	0.006534	6.1e-05
0.0397	0.7	0.006706	6.3e-05
0.0545	0.7	0.00682	6.5e-05
0.0657	0.7	0.006909	6.6e-05
0.0784	0.7	0.007021	6.7e-05
0.0968	0.7	0.007158	6.9e-05
0.1379	0.7	0.007516	7.3e-05
0.1778	0.7	0.00789	7.8e-05
0.2164	0.7	0.008281	8.3e-05
0.0089	0.9	0.014237	0.000175
0.0191	0.9	0.014447	0.000179
0.0406	0.9	0.014923	0.000188
0.0564	0.9	0.01527	0.000194
0.0659	0.9	0.015487	0.000198
0.0799	0.9	0.015817	0.000204
0.0986	0.9	0.016265	0.000212
0.1391	0.9	0.017252	0.000231
0.1744	0.9	0.018211	0.000249
0.2202	0.9	0.019077	0.000266

System: water + zinc sulfate; phases: Liquid
Fixed: Temperature, K = 293.15
Fixed: Pressure, kPa = 101
Property: Mass density, kg/m3 (Liquid); method: Vibrating tube method
Amount concentration (molarity), mol/dm3 of zinc sulfate	Mass density, kg/m3	uncertainty
5e-05	998.22	0.19
0.00011	998.23	0.19
0.00019	998.25	0.18
0.00042	998.29	0.18
0.00063	998.32	0.16
0.00083	998.36	0.17
0.00101	998.39	0.16
0.00127	998.41	0.15
0.0084	999.63	0.18
0.0194	1001.48	0.17
0.0403	1004.95	0.18
0.0545	1007.37	0.15
0.0714	1009.43	0.16
0.0795	1011.4	0.19
0.0979	1014.39	0.17
0.1391	1021.1	0.17
0.1756	1027.12	0.17
0.1998	1030.93	0.17

System: water + zinc sulfate; phases: Liquid
Fixed: Temperature, K = 293.15
Fixed: Pressure, kPa = 101
Fixed: Frequency, MHz = 0.001
Property: Electrical conductivity, S/m (Liquid); method: digital bridge-type conductivity meter
Amount concentration (molarity), mol/dm3 of zinc sulfate	Electrical conductivity, S/m	uncertainty
5e-05	0.00119	1e-05
0.00011	0.00229	1e-05
0.00019	0.00391	2e-05
0.00042	0.0084	3e-05
0.00063	0.01218	5e-05
0.00083	0.0154	6e-05
0.00101	0.01833	7e-05
0.00127	0.02201	9e-05

System: water + zinc sulfate; phases: Liquid
Fixed: Temperature, K = 293.15
Fixed: Pressure, kPa = 101
Property: Viscosity, Pa*s (Liquid); method: Capillary tube (Ostwald; Ubbelohde) method
Amount concentration (molarity), mol/dm3 of zinc sulfate	Viscosity, Pa*s	uncertainty
0.0084	0.001015	7e-06
0.0194	0.001022	7e-06
0.0403	0.001036	7e-06
0.0545	0.001045	7e-06
0.0714	0.001054	7e-06
0.0795	0.001062	7e-06
0.0979	0.001074	8e-06
0.1391	0.001103	8e-06
0.1756	0.001127	8e-06
0.1998	0.001144	8e-06

System: 1,2-ethanediol + water; phases: Liquid
Fixed: Temperature, K = 293.15
Fixed: Pressure, kPa = 101.325
Property: Mass density, kg/m3 (Liquid); method: Vibrating tube method
Mass fraction of 1,2-ethanediol	Mass density, kg/m3	uncertainty
0	998.2	0.04
0.1	1011.1	0.05
0.2	1024.49	0.05
0.3	1011.53	0.06
0.4	1049.89	0.12
0.5	1062.42	0.09
0.6	1062.42	0.1
0.7	1085.2	0.11
0.8	1095.34	0.11
0.9	1103.7	0.13

System: 1,2-ethanediol + water; phases: Liquid
Fixed: Temperature, K = 293.15
Fixed: Pressure, kPa = 101.325
Property: Viscosity, Pa*s (Liquid); method: Capillary tube (Ostwald; Ubbelohde) method
Mass fraction of 1,2-ethanediol	Viscosity, Pa*s	uncertainty
0	0.001008	7e-06
0.1	0.001293	9e-06
0.2	0.001671	1.2e-05
0.3	0.002177	1.6e-05
0.4	0.002837	2.2e-05
0.5	0.003558	2.9e-05
0.6	0.004724	4.1e-05
0.7	0.00636	6e-05
0.8	0.008003	8.1e-05
0.9	0.013999	0.000173
