Measured thermophysical data. Thermochemistry of substituted thiophenecarbonitrile derivatives
Source: J. Chem. Thermodyn., 2008, 10.1016/j.jct.2007.06.020
Compound 1: sulfuric acid, H2O4S, InChI=1S/H2O4S/c1-5(2,3)4/h(H2,1,2,3,4)
Compound 2: carbon dioxide, CO2, InChI=1S/CO2/c2-1-3
Compound 3: nitrogen, N2, InChI=1S/N2/c1-2
Compound 4: water, H2O, InChI=1S/H2O/h1H2
Compound 5: oxygen, O2, InChI=1S/O2/c1-2
Compound 6: 3-thiophenecarbonitrile, C5H3NS, InChI=1S/C5H3NS/c6-3-5-1-2-7-4-5/h1-2,4H, purity 98%
Compound 7: 2-thiopheneacetonitrile, C6H5NS, InChI=1S/C6H5NS/c7-4-3-6-2-1-5-8-6/h1-2,5H,3H2, purity 96%
Compound 8: 3-thiopheneacetonitrile, C6H5NS, InChI=1S/C6H5NS/c7-3-1-6-2-4-8-5-6/h2,4-5H,1H2, purity 98%
Compound 9: 3-methylthiophene-2-carbonitrile, C6H5NS, InChI=1S/C6H5NS/c1-5-2-3-8-6(5)4-7/h2-3H,1H3, purity 96%
Compound 10: 2-cyanothiophene, C5H3NS, InChI=1S/C5H3NS/c6-4-5-2-1-3-7-5/h1-3H, purity 99%

System: 3-thiophenecarbonitrile; phases: Liquid, Gas
Property: Molar enthalpy of vaporization or sublimation, kJ/mol (Liquid); method: Calvet microcalorimetry
Temperature, K	Molar enthalpy of vaporization or sublimation, kJ/mol	uncertainty
298.15	51.6	3.8

System: 2-thiopheneacetonitrile; phases: Liquid, Gas
Property: Molar enthalpy of vaporization or sublimation, kJ/mol (Liquid); method: Calvet microcalorimetry
Temperature, K	Molar enthalpy of vaporization or sublimation, kJ/mol	uncertainty
298.15	60.5	2.6

System: 3-thiopheneacetonitrile; phases: Liquid, Gas
Property: Molar enthalpy of vaporization or sublimation, kJ/mol (Liquid); method: Calvet microcalorimetry
Temperature, K	Molar enthalpy of vaporization or sublimation, kJ/mol	uncertainty
298.15	61.1	2.6

System: 3-methylthiophene-2-carbonitrile; phases: Liquid, Gas
Property: Molar enthalpy of vaporization or sublimation, kJ/mol (Liquid); method: Calvet microcalorimetry
Temperature, K	Molar enthalpy of vaporization or sublimation, kJ/mol	uncertainty
298.15	54.4	2.4

System: 2-cyanothiophene; phases: Liquid, Gas
Property: Molar enthalpy of vaporization or sublimation, kJ/mol (Liquid); method: Calvet microcalorimetry
Temperature, K	Molar enthalpy of vaporization or sublimation, kJ/mol	uncertainty
298.15	49.5	2.2

Reaction: -1 3-thiophenecarbonitrile + 1 sulfuric acid + 5 carbon dioxide + .5 nitrogen + .5 water + -7.25 oxygen
Property: Specific internal energy of reaction at constant volume, J/g
-29233.8

Reaction: -1 2-cyanothiophene + 1 sulfuric acid + 5 carbon dioxide + .5 nitrogen + .5 water + -7.25 oxygen
Property: Specific internal energy of reaction at constant volume, J/g
-29247.7

Reaction: 1 sulfuric acid + -1 2-thiopheneacetonitrile + 6 carbon dioxide + .5 nitrogen + 1.5 water + -8.75 oxygen
Property: Specific internal energy of reaction at constant volume, J/g
-31171.4

Reaction: 1 sulfuric acid + -1 3-thiopheneacetonitrile + 6 carbon dioxide + .5 nitrogen + 1.5 water + -8.75 oxygen
Property: Specific internal energy of reaction at constant volume, J/g
-31164.4

Reaction: 1 sulfuric acid + -1 3-methylthiophene-2-carbonitrile + 6 carbon dioxide + .5 nitrogen + 1.5 water + -8.75 oxygen
Property: Specific internal energy of reaction at constant volume, J/g
-31090.1
