Measured thermophysical data. A calorimetric and computational study on the thermochemistry of 2-(5H)-furanone and 2-(5H)-thiophenone
Source: J. Chem. Thermodyn., 2010, 10.1016/j.jct.2009.11.013
Compound 1: carbon dioxide, CO2, InChI=1S/CO2/c2-1-3
Compound 2: water, H2O, InChI=1S/H2O/h1H2
Compound 3: oxygen, O2, InChI=1S/O2/c1-2
Compound 4: sulfuric acid, H2O4S, InChI=1S/H2O4S/c1-5(2,3)4/h(H2,1,2,3,4)
Compound 5: (5H)-furan-2-one, C4H4O2, InChI=1S/C4H4O2/c5-4-2-1-3-6-4/h1-2H,3H2, purity 98%
Compound 6: 2(5H)-thiophenone, C4H4OS, InChI=1S/C4H4OS/c5-4-2-1-3-6-4/h1-2H,3H2, purity 98%

System: (5H)-furan-2-one; phases: Liquid, Gas
Property: Normal boiling temperature, K (Liquid); method: Calvet microcalorimetry
Normal boiling temperature, K	uncertainty
329	0.2

System: (5H)-furan-2-one; phases: Liquid, Gas
Property: Molar enthalpy of vaporization or sublimation, kJ/mol (Liquid); method: Calvet microcalorimetry
Temperature, K	Molar enthalpy of vaporization or sublimation, kJ/mol	uncertainty
298.15	55.6	2.6

System: (5H)-furan-2-one; phases: Gas
Property: Molar enthalpy, kJ/mol (Gas); method: Calvet microcalorimetry
Temperature, K	Pressure, kPa	Molar enthalpy, kJ/mol	uncertainty
329	101	58.3	0.2

System: 2(5H)-thiophenone; phases: Liquid, Gas
Property: Normal boiling temperature, K (Liquid); method: Calvet microcalorimetry
Normal boiling temperature, K	uncertainty
376	0.2

System: 2(5H)-thiophenone; phases: Liquid, Gas
Property: Molar enthalpy of vaporization or sublimation, kJ/mol (Liquid); method: Calvet microcalorimetry
Temperature, K	Molar enthalpy of vaporization or sublimation, kJ/mol	uncertainty
298.15	56	2.4

System: 2(5H)-thiophenone; phases: Gas
Property: Molar enthalpy, kJ/mol (Gas); method: Calvet microcalorimetry
Temperature, K	Pressure, kPa	Molar enthalpy, kJ/mol	uncertainty
376	101	63.8	0.4

Reaction: -1 (5H)-furan-2-one + 4 carbon dioxide + 2 water + -4 oxygen
Property: Specific internal energy of reaction at constant volume, J/g
-21801.1

Reaction: -1 2(5H)-thiophenone + 1 sulfuric acid + 4 carbon dioxide + 1 water + -6 oxygen
Property: Specific internal energy of reaction at constant volume, J/g
-26167.3
