Measured thermophysical data. Standard molar enthalpies of formation of 1- and 2-cyanonaphthalene
Source: J. Chem. Thermodyn., 2011, 10.1016/j.jct.2011.03.013
Compound 1: carbon dioxide, CO2, InChI=1S/CO2/c2-1-3
Compound 2: nitrogen, N2, InChI=1S/N2/c1-2
Compound 3: water, H2O, InChI=1S/H2O/h1H2
Compound 4: oxygen, O2, InChI=1S/O2/c1-2
Compound 5: hydrogen, H2, InChI=1S/H2/h1H
Compound 6: graphite, C
Compound 7: 1-cyanonaphthalene, C11H7N, InChI=1S/C11H7N/c12-8-10-6-3-5-9-4-1-2-7-11(9)10/h1-7H, purity 98%
Compound 8: 2-naphthalenecarbonitrile, C11H7N, InChI=1S/C11H7N/c12-8-9-5-6-10-3-1-2-4-11(10)7-9/h1-7H, purity 97%

System: 1-cyanonaphthalene; phases: Crystal, Gas
Property: Molar enthalpy of vaporization or sublimation, kJ/mol (Crystal); method: Derived by Second law
Temperature, K	Molar enthalpy of vaporization or sublimation, kJ/mol	uncertainty
298.13	88.6	1.7

System: 1-cyanonaphthalene; phases: Crystal, Gas
Property: Molar enthalpy, kJ/mol (Crystal); method: Drop calorimetry
Temperature, K	Molar enthalpy, kJ/mol	uncertainty
338.8	95	2.2

System: 1-cyanonaphthalene; phases: Crystal, Gas
Property: Molar enthalpy of transition or fusion, kJ/mol (Crystal); method: Drop Calorimetry
Temperature, K	Molar enthalpy of transition or fusion, kJ/mol	uncertainty
298.15	88.1	3.4

System: 1-cyanonaphthalene; phases: Crystal, Gas
Property: Vapor or sublimation pressure, kPa (Crystal); method: Calculated from knudsen effusion weight loss
Temperature, K	Vapor or sublimation pressure, kPa	uncertainty
289.1	0.00012	6e-06
289.1	0.000125	6e-06
289.1	0.00012	6e-06
291.12	0.000163	8e-06
291.12	0.000156	8e-06
291.12	0.000157	8e-06
293.12	0.000208	1e-05
293.12	0.0002	1e-05
293.12	0.000196	1e-05
295.12	0.000265	1.3e-05
295.12	0.000275	1.4e-05
295.12	0.000251	1.3e-05
297.13	0.000324	1.6e-05
297.13	0.000319	1.6e-05
299.13	0.000426	2.1e-05
299.13	0.000418	2.1e-05
299.13	0.000416	2.1e-05
301.12	0.000535	2.7e-05
301.12	0.000532	2.7e-05
301.12	0.000527	2.6e-05
303.3	0.000724	3.6e-05
303.3	0.00069	3.5e-05
303.3	0.000686	3.4e-05
305.12	0.000843	4.2e-05
305.12	0.000849	4.2e-05
305.12	0.00084	4.2e-05
307	0.001033	0.000104
307	0.001044	0.000105
307	0.001034	0.000104

System: 2-naphthalenecarbonitrile; phases: Crystal, Gas
Property: Molar enthalpy of vaporization or sublimation, kJ/mol (Crystal); method: Derived by Second law
Temperature, K	Molar enthalpy of vaporization or sublimation, kJ/mol	uncertainty
306.14	91.8	1.6

System: 2-naphthalenecarbonitrile; phases: Crystal, Gas
Property: Molar enthalpy, kJ/mol (Crystal); method: Drop calorimetry
Temperature, K	Molar enthalpy, kJ/mol	uncertainty
298.15	99.1	2.3

System: 2-naphthalenecarbonitrile; phases: Crystal, Gas
Property: Molar enthalpy of transition or fusion, kJ/mol (Crystal); method: Drop Calorimetry
Temperature, K	Molar enthalpy of transition or fusion, kJ/mol	uncertainty
298.15	90.7	3.2

System: 2-naphthalenecarbonitrile; phases: Crystal, Gas
Property: Vapor or sublimation pressure, kPa (Crystal); method: Calculated from knudsen effusion weight loss
Temperature, K	Vapor or sublimation pressure, kPa	uncertainty
296.18	9e-05	5e-06
296.18	9.2e-05	5e-06
296.18	9.1e-05	5e-06
298.11	0.000115	6e-06
298.11	0.000117	6e-06
298.11	0.000116	6e-06
300.19	0.000159	8e-06
300.19	0.000153	8e-06
300.19	0.000154	8e-06
302.18	0.000197	1e-05
302.18	0.000196	1e-05
302.18	0.000201	1e-05
304.1	0.000245	1.2e-05
304.1	0.000245	1.2e-05
304.1	0.000244	1.2e-05
306.18	0.000319	1.6e-05
306.18	0.000303	1.5e-05
306.18	0.000304	1.5e-05
308.15	0.000391	2e-05
308.15	0.000388	1.9e-05
308.15	0.000396	2e-05
310.09	0.000487	2.4e-05
310.09	0.000485	2.4e-05
310.09	0.000491	2.5e-05
312.19	0.000636	3.2e-05
312.19	0.000617	3.1e-05
312.19	0.000618	3.1e-05
314.16	0.000783	3.9e-05
314.16	0.000762	3.8e-05
314.16	0.000803	4e-05
316.1	0.000948	4.7e-05
316.1	0.000947	4.7e-05
316.1	0.000994	5e-05

Reaction: -1 1-cyanonaphthalene + 11 carbon dioxide + .5 nitrogen + 3.5 water + -12.75 oxygen
Property: Specific internal energy of reaction at constant volume, J/g
-35999.4

Reaction: -1 2-naphthalenecarbonitrile + 11 carbon dioxide + .5 nitrogen + 3.5 water + -12.75 oxygen
Property: Specific internal energy of reaction at constant volume, J/g
-35973.5

Reaction: 1 1-cyanonaphthalene + -3.5 hydrogen + -.5 nitrogen + -11 graphite
Property: Molar enthalpy of reaction, kJ/mol
188.5

Reaction: 1 1-cyanonaphthalene + -3.5 hydrogen + -.5 nitrogen + -11 graphite
Property: Molar enthalpy of reaction, kJ/mol
277.1

Reaction: 1 2-naphthalenecarbonitrile + -3.5 hydrogen + -.5 nitrogen + -11 graphite
Property: Molar enthalpy of reaction, kJ/mol
184.6

Reaction: 1 2-naphthalenecarbonitrile + -3.5 hydrogen + -.5 nitrogen + -11 graphite
Property: Molar enthalpy of reaction, kJ/mol
276.7
