Measured thermophysical data. Low temperature heat capacity study of Ba2TiSi2O8 and Sr2TiSi2O8
Source: J. Chem. Thermodyn., 2014, 10.1016/j.jct.2014.01.021
Compound 1: barium titanium silicate (Ba2Si2TiO8), Ba2O8Si2Ti, InChI=1S/2Ba.2O4Si.Ti/c;;2*1-5(2,3)4;/q2*+2;2*-4;+4, purity 99%
Compound 2: strontium titanium silicate (Sr2TiSi2O8), O8Si2Sr2Ti, InChI=1S/2O4Si.2Sr.Ti/c2*1-5(2,3)4;;;/q2*-4;2*+2;+4, purity 99%

System: barium titanium silicate (Ba2Si2TiO8); phases: Crystal
Fixed: Pressure, kPa = 101.325
Property: Molar heat capacity at constant pressure, J/K/mol (Crystal); method: Relaxation calorimetry, quantum design PPMS
Temperature, K	Molar heat capacity at constant pressure, J/K/mol	uncertainty
1.94	0.00454	0.00033
2.16	0.00614	0.00041
2.4	0.00838	0.00052
2.65	0.0112	0.0007
2.95	0.0157	0.0009
3.28	0.022	0.0013
3.65	0.031	0.0017
4.03	0.0433	0.0024
4.47	0.0611	0.0034
4.97	0.0882	0.0049
5.52	0.128	0.007
6.12	0.187	0.01
6.79	0.275	0.015
7.52	0.404	0.022
8.36	0.597	0.032
9.27	0.871	0.047
10.28	1.26	0.05
11.41	1.79	0.07
12.65	2.48	0.1
14.03	3.42	0.14
15.55	4.61	0.19
17.26	6.12	0.25
19.15	7.98	0.32
21.25	10.29	0.42
23.58	12.98	0.53
26.15	16.21	0.66
29.01	19.97	0.81
32.18	24.22	0.98
35.7	29.02	1.18
39.61	34.42	1.4
43.95	40.41	1.64
48.76	46.48	1.89
54.1	53.48	2.17
60.02	60.69	2.47
66.6	68.58	2.79
73.9	76.99	3.13
82.01	86.29	3.51
91.02	96.16	3.91
101.01	105.66	4.29
111.12	114.82	4.66
121.18	123.69	5.02
131.26	131.77	5.35
141.3	139.4	5.66
151.42	146.8	5.96
161.5	153.74	6.24
171.54	160.22	6.51
181.66	166.86	6.78
191.73	172.88	7.02
201.82	178.86	7.27
211.9	184.39	7.49
221.98	189.47	7.7
232.06	194.35	7.89
242.14	198.79	8.07
252.17	203.72	8.28
262.24	207.6	8.43
272.38	211.23	8.58
282.45	215.07	8.74
292.43	218.89	8.89
302.51	222	9.02

System: barium titanium silicate (Ba2Si2TiO8); phases: Crystal
Fixed: Pressure, kPa = 101.325
Property: Molar heat capacity at constant pressure, J/K/mol (Crystal); method: Relaxation calorimetry, quantum design PPMS
Temperature, K	Molar heat capacity at constant pressure, J/K/mol	uncertainty
1	0.000881	9.5e-05
2	0.00495	0.00031
3	0.0165	0.001
4	0.0421	0.0024
5	0.0907	0.0052
6	0.174	0.01
7	0.308	0.017
8	0.505	0.028
9	0.781	0.043
10	1.14	0.05
11	1.59	0.07
12	2.12	0.09
13	2.73	0.12
14	3.42	0.15
15	4.17	0.18
16	4.99	0.21
17	5.87	0.25
18	6.81	0.29
19	7.8	0.33
20	8.84	0.38
25	14.67	0.63
30	21.23	0.91
35	28.14	1.2
40	35.11	1.5
45	41.91	1.79
50	48.41	2.07
55	54.56	2.33
60	60.44	2.46
65	66.54	2.7
70	72.48	2.94
75	78.29	3.18
80	83.94	3.41
85	89.41	3.63
90	94.7	3.85
95	99.8	4.05
100	104.72	4.25
110	114.04	4.63
120	122.74	4.99
130	130.9	5.32
140	138.58	5.63
150	145.86	5.92
160	152.79	6.21
170	159.4	6.47
180	165.73	6.73
190	171.78	6.98
200	177.56	7.21
210	183.09	7.44
220	188.36	7.65
230	193.37	7.85
240	198.12	8.05
250	202.6	8.23
260	206.82	8.4
270	210.77	8.56
273.15	211.96	8.61
280	214.45	8.71
290	217.86	8.85
298.15	220.43	8.95
300	220.99	8.98

System: barium titanium silicate (Ba2Si2TiO8); phases: Crystal
Fixed: Pressure, kPa = 101.325
Property: Molar entropy, J/K/mol (Crystal); method: Relaxation calorimetry, quantum design PPMS
Temperature, K	Molar entropy, J/K/mol	uncertainty
1	0.000551	5.5e-05
2	0.00213	0.00018
3	0.00598	0.00051
4	0.0138	0.0012
5	0.0279	0.0023
6	0.0512	0.0043
7	0.0874	0.0073
8	0.141	0.012
9	0.215	0.018
10	0.315	0.02
11	0.444	0.029
12	0.605	0.039
13	0.798	0.051
14	1.03	0.07
15	1.29	0.08
16	1.58	0.1
17	1.91	0.12
18	2.27	0.15
19	2.67	0.17
20	3.09	0.2
25	5.67	0.36
30	8.92	0.57
35	12.71	0.81
40	16.92	1.08
45	21.45	1.38
50	26.21	1.68
55	31.11	1.99
60	36.12	2.2
65	41.2	2.51
70	46.34	2.82
75	51.54	3.14
80	56.78	3.46
85	62.03	3.78
90	67.29	4.1
95	72.55	4.42
100	77.8	4.74
110	88.22	5.38
120	98.52	6
130	108.67	6.62
140	118.65	7.23
150	128.47	7.83
160	138.1	8.41
170	147.57	8.99
180	156.86	9.56
190	165.98	10.11
200	174.94	10.66
210	183.74	11.2
220	192.38	11.72
230	200.86	12.24
240	209.19	12.75
250	217.37	13.24
260	225.4	13.73
270	233.28	14.21
273.15	235.73	14.36
280	241.02	14.69
290	248.6	15.15
298.15	254.67	15.52
300	256.04	15.6

System: barium titanium silicate (Ba2Si2TiO8); phases: Crystal
Fixed: Pressure, kPa = 101.325
Property: Molar enthalpy, kJ/mol (Crystal); method: Relaxation calorimetry, quantum design PPMS
Temperature, K	Molar enthalpy, kJ/mol	uncertainty
1	3.16e-07	5.3e-08
2	2.81e-06	2e-07
3	1.27e-05	8e-07
4	4.05e-05	2.4e-06
5	0.000105	6e-06
6	0.000234	1.3e-05
7	0.00047	2.7e-05
8	0.00087	4.9e-05
9	0.00151	8e-05
10	0.00246	0.00011
11	0.00382	0.00017
12	0.00566	0.00025
13	0.00808	0.00035
14	0.0112	0.0005
15	0.0149	0.0006
16	0.0195	0.0008
17	0.0249	0.0011
18	0.0313	0.0013
19	0.0386	0.0017
20	0.0469	0.002
25	0.105	0.005
30	0.195	0.008
35	0.318	0.014
40	0.476	0.02
45	0.669	0.029
50	0.895	0.038
55	1.15	0.05
60	1.44	0.06
65	1.76	0.07
70	2.11	0.09
75	2.48	0.1
80	2.89	0.12
85	3.32	0.13
90	3.78	0.15
95	4.27	0.17
100	4.78	0.19
110	5.87	0.24
120	7.06	0.29
130	8.33	0.34
140	9.67	0.39
150	11.1	0.45
160	12.59	0.51
170	14.15	0.57
180	15.78	0.64
190	17.47	0.71
200	19.21	0.78
210	21.02	0.85
220	22.87	0.93
230	24.78	1.01
240	26.74	1.09
250	28.74	1.17
260	30.79	1.25
270	32.88	1.34
273.15	33.54	1.36
280	35.01	1.42
290	37.17	1.51
298.15	38.95	1.58
300	39.36	1.6

System: strontium titanium silicate (Sr2TiSi2O8); phases: Crystal
Fixed: Pressure, kPa = 101.325
Property: Molar heat capacity at constant pressure, J/K/mol (Crystal); method: Relaxation calorimetry, quantum design PPMS
Temperature, K	Molar heat capacity at constant pressure, J/K/mol	uncertainty
1.94	0.00346	0.00024
2.14	0.00451	0.00031
2.38	0.00617	0.00038
2.63	0.00807	0.00049
2.93	0.011	0.0007
3.24	0.0155	0.0009
3.6	0.022	0.0012
4.01	0.032	0.0018
4.43	0.0456	0.0026
4.91	0.0662	0.0037
5.45	0.0976	0.0054
6.06	0.145	0.008
6.71	0.211	0.011
7.47	0.31	0.017
8.27	0.448	0.024
9.18	0.645	0.035
10.19	0.919	0.038
11.31	1.29	0.05
12.56	1.8	0.07
13.95	2.47	0.1
15.46	3.33	0.14
17.16	4.46	0.18
19.04	5.88	0.24
21.13	7.66	0.31
23.46	9.87	0.4
26.03	12.57	0.51
28.9	15.82	0.64
32.07	19.73	0.8
35.6	24.21	0.98
39.51	29.43	1.2
43.85	35.27	1.43
48.67	41.58	1.69
54.01	48.72	1.98
59.94	56.36	2.29
66.53	64.7	2.63
73.83	73.68	2.99
81.95	83.44	3.39
90.96	94.06	3.82
100.95	104.57	4.25
111.05	114.61	4.66
121.09	123.98	5.04
131.21	132.93	5.4
141.25	141.37	5.74
151.36	149.78	6.08
161.39	157.32	6.39
171.52	164.6	6.69
181.6	171.75	6.98
191.67	178.29	7.24
201.75	184.63	7.5
211.84	190.59	7.74
221.91	196.74	7.99
231.98	202.3	8.22
242.04	207.23	8.42
252.14	212.2	8.62
262.13	216.48	8.79
272.27	220.56	8.96
282.34	225.01	9.14
292.31	228.61	9.29
302.39	232.29	9.44

System: strontium titanium silicate (Sr2TiSi2O8); phases: Crystal
Fixed: Pressure, kPa = 101.325
Property: Molar heat capacity at constant pressure, J/K/mol (Crystal); method: Relaxation calorimetry, quantum design PPMS
Temperature, K	Molar heat capacity at constant pressure, J/K/mol	uncertainty
1	0.000809	7.4e-05
2	0.00375	0.00024
3	0.0122	0.0007
4	0.0316	0.0019
5	0.0701	0.0041
6	0.138	0.008
7	0.246	0.014
8	0.397	0.023
9	0.602	0.034
10	0.864	0.036
11	1.18	0.05
12	1.56	0.06
13	2	0.08
14	2.5	0.1
15	3.05	0.12
16	3.67	0.15
17	4.33	0.18
18	5.06	0.21
19	5.83	0.24
20	6.66	0.27
25	11.47	0.47
30	17.18	0.7
35	23.47	0.95
40	30.06	1.22
45	36.75	1.49
50	43.39	1.76
55	49.95	2.03
60	56.43	2.29
65	62.84	2.55
70	68.54	2.85
75	74.71	3.11
80	80.79	3.36
85	86.73	3.61
90	92.51	3.85
95	98.12	4.09
100	103.54	4.31
110	113.81	4.74
120	123.38	5.14
130	132.31	5.51
140	140.71	5.86
150	148.65	6.19
160	156.22	6.51
170	163.45	6.81
180	170.39	7.1
190	177.05	7.37
200	183.45	7.64
210	189.57	7.89
220	195.42	8.14
230	200.99	8.37
240	206.26	8.59
250	211.23	8.8
260	215.87	8.99
270	220.19	9.17
273.15	221.48	9.22
280	224.17	9.33
290	227.8	9.49
298.15	230.5	9.6
300	231.08	9.62

System: strontium titanium silicate (Sr2TiSi2O8); phases: Crystal
Fixed: Pressure, kPa = 101.325
Property: Molar entropy, J/K/mol (Crystal); method: Relaxation calorimetry, quantum design PPMS
Temperature, K	Molar entropy, J/K/mol	uncertainty
1	0.000599	5.7e-05
2	0.00187	0.00016
3	0.00472	0.00041
4	0.0105	0.0009
5	0.0213	0.0018
6	0.0395	0.0034
7	0.0684	0.0058
8	0.111	0.009
9	0.169	0.014
10	0.245	0.015
11	0.342	0.021
12	0.461	0.028
13	0.603	0.037
14	0.769	0.047
15	0.96	0.059
16	1.18	0.07
17	1.42	0.09
18	1.69	0.1
19	1.98	0.12
20	2.3	0.14
25	4.28	0.26
30	6.87	0.42
35	9.98	0.61
40	13.54	0.83
45	17.47	1.06
50	21.69	1.32
55	26.13	1.59
60	30.76	1.87
65	35.53	2.16
70	40.4	2.52
75	45.34	2.83
80	50.36	3.15
85	55.44	3.46
90	60.56	3.78
95	65.71	4.1
100	70.88	4.43
110	81.24	5.07
120	91.56	5.72
130	101.79	6.36
140	111.9	6.99
150	121.88	7.61
160	131.72	8.23
170	141.41	8.83
180	150.95	9.43
190	160.34	10.02
200	169.59	10.59
210	178.69	11.16
220	187.64	11.72
230	196.45	12.27
240	205.12	12.81
250	213.64	13.34
260	222.02	13.87
270	230.25	14.38
273.15	232.81	14.54
280	238.33	14.89
290	246.26	15.38
298.15	252.61	15.78
300	254.04	15.87

System: strontium titanium silicate (Sr2TiSi2O8); phases: Crystal
Fixed: Pressure, kPa = 101.325
Property: Molar enthalpy, kJ/mol (Crystal); method: Relaxation calorimetry, quantum design PPMS
Temperature, K	Molar enthalpy, kJ/mol	uncertainty
1	3.254e-07	4.38e-08
2	2.315e-06	1.6e-07
3	9.632e-06	6.12e-07
4	3.032e-05	1.85e-06
5	7.92e-05	4.71e-06
6	0.00018	1.1e-05
7	0.000369	2.1e-05
8	0.000687	4e-05
9	0.00118	7e-05
10	0.00191	8e-05
11	0.00293	0.00012
12	0.0043	0.00018
13	0.00608	0.00025
14	0.00832	0.00034
15	0.0111	0.0005
16	0.0144	0.0006
17	0.0184	0.0008
18	0.0231	0.0009
19	0.0286	0.0012
20	0.0348	0.0014
25	0.0797	0.0032
30	0.151	0.006
35	0.252	0.01
40	0.386	0.016
45	0.553	0.022
50	0.754	0.031
55	0.987	0.04
60	1.25	0.05
65	1.55	0.06
70	1.88	0.08
75	2.24	0.09
80	2.63	0.11
85	3.05	0.13
90	3.49	0.15
95	3.97	0.17
100	4.48	0.19
110	5.56	0.23
120	6.75	0.28
130	8.03	0.33
140	9.39	0.39
150	10.84	0.45
160	12.37	0.52
170	13.96	0.58
180	15.63	0.65
190	17.37	0.72
200	19.17	0.8
210	21.04	0.88
220	22.96	0.96
230	24.95	1.04
240	26.98	1.12
250	29.07	1.21
260	31.21	1.3
270	33.39	1.39
273.15	34.08	1.42
280	35.61	1.48
290	37.87	1.58
298.15	39.74	1.65
300	40.16	1.67
