Measured thermophysical data. Building blocks for ionic liquids: Vapor pressures and vaporization enthalpies  of 1-(n-alkyl)-imidazoles
Source: J. Chem. Thermodyn., 2011, 10.1016/j.jct.2011.05.004
Compound 1: 1-propylimidazole, C6H10N2, InChI=1S/C6H10N2/c1-2-4-8-5-3-7-6-8/h3,5-6H,2,4H2,1H3
Compound 2: 1-pentylimidazole, C8H14N2, InChI=1S/C8H14N2/c1-2-3-4-6-10-7-5-9-8-10/h5,7-8H,2-4,6H2,1H3
Compound 3: 1-heptylimidazole, C10H18N2, InChI=1S/C10H18N2/c1-2-3-4-5-6-8-12-9-7-11-10-12/h7,9-10H,2-6,8H2,1H3
Compound 4: 1-nonylimidazole, C12H22N2, InChI=1S/C12H22N2/c1-2-3-4-5-6-7-8-10-14-11-9-13-12-14/h9,11-12H,2-8,10H2,1H3
Compound 5: 1-undecylimidazole, C14H26N2, InChI=1S/C14H26N2/c1-2-3-4-5-6-7-8-9-10-12-16-13-11-15-14-16/h11,13-14H,2-10,12H2,1H3
Compound 6: 1-hexylimidazole, C9H16N2, InChI=1S/C9H16N2/c1-2-3-4-5-7-11-8-6-10-9-11/h6,8-9H,2-5,7H2,1H3, purity 99.7%
Compound 7: 1-decylimidazole, C13H24N2, InChI=1S/C13H24N2/c1-2-3-4-5-6-7-8-9-11-15-12-10-14-13-15/h10,12-13H,2-9,11H2,1H3, purity 99.7%
Compound 8: 1-dodecyl-1H-imidazole, C15H28N2, InChI=1S/C15H28N2/c1-2-3-4-5-6-7-8-9-10-11-13-17-14-12-16-15-17/h12,14-15H,2-11,13H2,1H3

System: 1-propylimidazole; phases: Liquid, Gas
Property: Vapor or sublimation pressure, kPa (Liquid); method: Transpiration method
Temperature, K	Vapor or sublimation pressure, kPa	uncertainty
279.1	0.00259	0.00019
283.4	0.00383	0.00028
288.3	0.00589	0.00042
290.4	0.007	0.0005
293.3	0.00881	0.00063
296.3	0.01116	0.0008
298.5	0.01385	0.001
301.6	0.01816	0.0013
304.1	0.02165	0.00154
305.5	0.02459	0.00176
307.5	0.02832	0.00204
312.6	0.04302	0.00301
313.4	0.04431	0.0031
316.6	0.05794	0.0041
319.7	0.06724	0.00477
323.2	0.08718	0.0062
325.2	0.10253	0.00731
328.5	0.1289	0.00913
332.3	0.16063	0.01133
333.5	0.17397	0.01241
337	0.22287	0.01581
339.5	0.26414	0.01867
341	0.28606	0.02014

System: 1-pentylimidazole; phases: Liquid, Gas
Property: Vapor or sublimation pressure, kPa (Liquid); method: Transpiration method
Temperature, K	Vapor or sublimation pressure, kPa	uncertainty
308.2	0.0051	0.00037
313.3	0.00775	0.00056
318.3	0.01181	0.00084
323.7	0.01686	0.00121
328.3	0.02613	0.00185
333.7	0.03411	0.00243
338.5	0.05229	0.00374
345.8	0.08573	0.00604
348.3	0.09516	0.00681
350.7	0.12464	0.00885
353.2	0.13695	0.00967
355.9	0.16532	0.01164
358.1	0.17816	0.01257
360.8	0.21473	0.01514
363.1	0.2377	0.01685
366.3	0.29929	0.0212

System: 1-heptylimidazole; phases: Liquid, Gas
Property: Vapor or sublimation pressure, kPa (Liquid); method: Transpiration method
Temperature, K	Vapor or sublimation pressure, kPa	uncertainty
298.5	0.0003	2e-05
300.5	0.00036	3e-05
303.5	0.00049	4e-05
303.5	0.00048	3e-05
305.5	0.00056	4e-05
306.5	0.00068	5e-05
307.5	0.00072	5e-05
309.5	0.00088	6e-05
312.5	0.00117	8e-05
314.7	0.00144	0.0001
318.5	0.00206	0.00015
319.6	0.00227	0.00016
321.5	0.00261	0.00019
321.6	0.00269	0.00019
322.2	0.00286	0.00021
324.5	0.00341	0.00024
324.6	0.00342	0.00025
327.5	0.00441	0.00032
329.6	0.00521	0.00037
329.9	0.00532	0.00038
332.3	0.0065	0.00046
332.9	0.00672	0.00048
333.4	0.00714	0.00051
334.6	0.00772	0.00055
335.8	0.00836	0.0006
339.4	0.01124	0.0008
341.7	0.01282	0.00091
342.3	0.01379	0.001
344.3	0.01654	0.00117
344.5	0.01568	0.00112
346.9	0.01906	0.00137
347	0.0196	0.0014
349.8	0.02409	0.00171
352.2	0.02857	0.00203
352.8	0.03051	0.00214
354.6	0.03219	0.00228
359.6	0.04423	0.00313
362.2	0.05437	0.00387
366.2	0.07055	0.00498

System: 1-nonylimidazole; phases: Liquid, Gas
Property: Vapor or sublimation pressure, kPa (Liquid); method: Transpiration method
Temperature, K	Vapor or sublimation pressure, kPa	uncertainty
318.2	0.00045	3e-05
320.1	0.00055	4e-05
323.1	0.00072	5e-05
326.1	0.00096	7e-05
329.1	0.00124	9e-05
330	0.00134	0.0001
332	0.00162	0.00012
335.1	0.00212	0.00015
335.4	0.00216	0.00015
337.9	0.00262	0.00019
338.6	0.0028	0.0002
341	0.00333	0.00026
341.5	0.0036	0.00027
343.9	0.00432	0.00031
344.6	0.00463	0.00033
347	0.00557	0.00044
347.5	0.00608	0.00047
349.9	0.00689	0.00049
351.2	0.00805	0.00057
352.9	0.00871	0.00062
353.7	0.00954	0.00069
355.7	0.01122	0.0008
355.9	0.01098	0.00078
359	0.01398	0.00107
359.7	0.01556	0.0011
359.7	0.01488	0.00106
361.8	0.0171	0.00121
363.2	0.0198	0.00141
364.8	0.02127	0.00153
365.2	0.02205	0.0016
366.7	0.02545	0.00182
366.8	0.02441	0.00176
369.6	0.03153	0.00224
371.2	0.03431	0.00241

System: 1-undecylimidazole; phases: Liquid, Gas
Property: Vapor or sublimation pressure, kPa (Liquid); method: Transpiration method
Temperature, K	Vapor or sublimation pressure, kPa	uncertainty
334	0.0003	2e-05
336.1	0.00036	3e-05
338	0.00043	3e-05
341	0.00054	4e-05
343	0.00067	5e-05
344	0.00073	5e-05
347	0.00094	7e-05
350	0.00117	8e-05
353	0.00147	0.00011
356	0.00194	0.00014
358	0.00221	0.00016
358.9	0.00256	0.00018
360.9	0.00283	0.0002
361.9	0.00315	0.00023
364.9	0.00407	0.00029
367.9	0.00491	0.00035
369.9	0.00608	0.00043
370.9	0.00601	0.00043
371.9	0.00708	0.00051
373.8	0.0081	0.00057
374.8	0.00816	0.00058
376.8	0.00993	0.00071
377.8	0.01077	0.00075
378.8	0.01063	0.00076
380.8	0.01302	0.00094

System: 1-hexylimidazole; phases: Liquid, Gas
Property: Vapor or sublimation pressure, kPa (Liquid); method: Transpiration method
Temperature, K	Vapor or sublimation pressure, kPa	uncertainty
309.2	0.00234	0.00017
311.2	0.00286	0.00021
314.2	0.00364	0.00026
317.2	0.00487	0.00035
318.4	0.00545	0.00039
320.2	0.00601	0.00043
323.2	0.00733	0.00053
323.2	0.00771	0.00055
326.1	0.0099	0.00071
328.5	0.01219	0.00086
329.2	0.01233	0.00086
332.1	0.01531	0.00109
333.2	0.01682	0.00121
335.2	0.01983	0.00141
338.2	0.0238	0.0017
338.4	0.02527	0.0018
341.1	0.03111	0.00221
343.1	0.03523	0.00248
344.1	0.03684	0.00262
347.1	0.04579	0.00325
348.1	0.04959	0.00352
350	0.05565	0.00395
353	0.06762	0.0048
353.2	0.06949	0.00492
355.1	0.07897	0.00562
355.8	0.08484	0.006
357.1	0.0897	0.00635
358.2	0.09858	0.00696
359.2	0.10139	0.00719
360.1	0.1115	0.00789
363.2	0.13016	0.00914

System: 1-decylimidazole; phases: Liquid, Gas
Property: Vapor or sublimation pressure, kPa (Liquid); method: Transpiration method
Temperature, K	Vapor or sublimation pressure, kPa	uncertainty
324.1	0.00027	2e-05
326.2	0.00033	2e-05
328.2	0.00041	3e-05
329.7	0.00044	3e-05
332.1	0.00055	4e-05
334.2	0.00071	5e-05
334.4	0.00067	5e-05
335.8	0.00074	5e-05
337.1	0.0009	6e-05
338.6	0.00095	7e-05
340.1	0.00115	8e-05
340.7	0.0012	9e-05
341.2	0.00131	9e-05
343.1	0.00141	0.0001
343.1	0.00149	0.00011
343.2	0.00147	0.0001
345.2	0.00173	0.00012
346.1	0.00196	0.00014
348.3	0.00224	0.00016
349.1	0.00241	0.00017
349.2	0.00246	0.00018
350.7	0.00277	0.0002
352.1	0.00327	0.00023
353.5	0.00341	0.00024
355.2	0.00401	0.00029
355.6	0.00417	0.0003
355.7	0.00405	0.00028
358	0.00506	0.00035
358.5	0.00498	0.00035
360.7	0.00617	0.00043
361	0.0061	0.00043
363.1	0.00707	0.0005
364.2	0.0079	0.00057
364.7	0.00831	0.00058
366.7	0.00902	0.00084
367.1	0.01013	0.0009
370.1	0.01245	0.00088
371.3	0.0138	0.00099
373.1	0.01575	0.00112
374.3	0.01696	0.0012

System: 1-dodecyl-1H-imidazole; phases: Liquid, Gas
Property: Vapor or sublimation pressure, kPa (Liquid); method: Transpiration method
Temperature, K	Vapor or sublimation pressure, kPa	uncertainty
319.1	2e-05	1e-05
324.8	5e-05	1e-05
327.2	6e-05	1e-05
329.7	7e-05	1e-05
331.9	0.00011	1e-05
333.7	0.00012	1e-05
335.7	0.00014	1e-05
335.9	0.00015	1e-05
337.7	0.00018	1e-05
340	0.00023	2e-05
340.2	0.00024	2e-05
342.9	0.00029	2e-05
342.9	0.0003	2e-05
344.6	0.00035	3e-05
346.1	0.00039	3e-05
347.7	0.00043	3e-05
350	0.00055	4e-05
350.3	0.00057	4e-05
352.6	0.00066	5e-05
354	0.00079	6e-05
355.9	0.00087	6e-05
358	0.00112	8e-05
359.3	0.00122	9e-05
359.5	0.0012	9e-05
361.9	0.00154	0.00011
363	0.00167	0.00012
364.8	0.0019	0.00014
365.9	0.00209	0.00015
365.9	0.00208	0.00015
368.8	0.00268	0.00019
369.9	0.00285	0.0002
370.9	0.00295	0.00021
372.8	0.00346	0.00031
373.1	0.00374	0.00032
376.1	0.00462	0.00033
379.1	0.00561	0.0004
