Measured thermophysical data. Vapour pressure and enthalpy of vaporization of aliphatic dialkyl carbonates
Source: J. Chem. Thermodyn., 2008, 10.1016/j.jct.2008.02.012
Compound 1: dimethyl carbonate, C3H6O3, InChI=1S/C3H6O3/c1-5-3(4)6-2/h1-2H3, purity 99%
Compound 2: diethyl carbonate, C5H10O3, InChI=1S/C5H10O3/c1-3-7-5(6)8-4-2/h3-4H2,1-2H3, purity 99%
Compound 3: dipropyl carbonate, C7H14O3, InChI=1S/C7H14O3/c1-3-5-9-7(8)10-6-4-2/h3-6H2,1-2H3, purity 99%
Compound 4: dibutyl carbonate, C9H18O3, InChI=1S/C9H18O3/c1-3-5-7-11-9(10)12-8-6-4-2/h3-8H2,1-2H3, purity 99%
Compound 5: dibenzyl carbonate, C15H14O3, InChI=1S/C15H14O3/c16-15(17-11-13-7-3-1-4-8-13)18-12-14-9-5-2-6-10-14/h1-10H,11-12H2, purity 99%

System: dimethyl carbonate; phases: Liquid, Gas
Property: Vapor or sublimation pressure, kPa (Liquid); method: Transpiration method
Temperature, K	Vapor or sublimation pressure, kPa	uncertainty
274.2	1.9184	0.0972
275	1.9813	0.1023
276	2.1435	0.1116
276.9	2.2771	0.1179
277.9	2.4338	0.1253
280.7	2.8444	0.1457
283.2	3.2735	0.1683
285.8	3.8464	0.1978
288.2	4.4244	0.2258
290.8	4.9785	0.2544
293.1	5.7098	0.2942
295.7	6.7166	0.3434
298.3	7.5704	0.3856
300.7	8.5507	0.4361
303.2	9.6758	0.4913
304.1	9.9829	0.5038

System: diethyl carbonate; phases: Liquid, Gas
Property: Vapor or sublimation pressure, kPa (Liquid); method: Transpiration method
Temperature, K	Vapor or sublimation pressure, kPa	uncertainty
273.1	0.2876	0.0149
273.3	0.2883	0.0151
274	0.3043	0.016
274	0.3077	0.0161
275	0.3289	0.017
276.2	0.3525	0.0181
276.5	0.3619	0.0189
277.1	0.3771	0.0199
278.1	0.4122	0.0218
278.2	0.4065	0.0215
282.4	0.5583	0.0286
283.1	0.5793	0.0295
283.3	0.5587	0.0286
285	0.6321	0.034
286.8	0.7769	0.0402
288.2	0.7907	0.0408
288.3	0.8258	0.0424
288.4	0.7841	0.0405
291.8	1.0166	0.0522
293	1.0512	0.0529
293.1	1.0416	0.0552
293.1	1.033	0.0548
293.1	1.0379	0.055
293.2	1.078	0.0568
293.3	1.0642	0.0539
296.8	1.4474	0.0748
298	1.4851	0.0767
298.1	1.5163	0.0782
298.1	1.4548	0.0754
298.2	1.5356	0.0791
301.8	1.9071	0.0974
303	2.0102	0.1013
303.1	2.0211	0.1035
303.1	2.0565	0.1051
303.3	1.988	0.1005
306.8	2.4532	0.1263
307.8	2.6885	0.1378
308.2	2.6356	0.1344
308.2	2.6889	0.1345
308.2	2.6686	0.1338
310.9	3.0739	0.1588
313.3	3.6544	0.1879
315	3.9633	0.2015
315.2	3.9485	0.1998

System: dipropyl carbonate; phases: Liquid, Gas
Property: Vapor or sublimation pressure, kPa (Liquid); method: Transpiration method
Temperature, K	Vapor or sublimation pressure, kPa	uncertainty
273.9	0.02955	0.00149
274.6	0.02897	0.00155
275.7	0.03425	0.00195
276.3	0.03688	0.00201
278.3	0.04484	0.0024
280	0.05291	0.00277
281.7	0.05859	0.00309
283.2	0.06851	0.00366
283.4	0.06971	0.00372
285.3	0.08182	0.00427
288.2	0.09915	0.00509
290.1	0.10959	0.00584
293.3	0.14904	0.00777
295.3	0.16568	0.00865
298.3	0.21059	0.01097
300.7	0.24838	0.01293
303.3	0.30039	0.0156
305.7	0.35337	0.01832
308.3	0.42135	0.02181
312	0.53076	0.02716
313.1	0.5594	0.02892
314.1	0.6082	0.03167
315.5	0.66611	0.03448
318.2	0.78977	0.04054

System: dibutyl carbonate; phases: Liquid, Gas
Property: Vapor or sublimation pressure, kPa (Liquid); method: Transpiration method
Temperature, K	Vapor or sublimation pressure, kPa	uncertainty
287.1	0.00856	0.00047
290.1	0.01134	0.00061
292.9	0.01511	0.00081
296.8	0.02096	0.0011
299.8	0.02673	0.0014
300.6	0.02918	0.00158
302.1	0.0337	0.00175
303.1	0.03493	0.00181
305	0.04028	0.00211
306.1	0.04475	0.00246
307.1	0.05097	0.0027
308.6	0.05608	0.00289
311	0.06437	0.00338
313.2	0.07957	0.00421
315.2	0.09308	0.0048
317.6	0.10509	0.00549
320.7	0.13624	0.00702
323.3	0.15308	0.00796
324.9	0.18426	0.00981
326.2	0.20171	0.01038
329.1	0.23594	0.01203

System: dibenzyl carbonate; phases: Liquid, Gas
Property: Vapor or sublimation pressure, kPa (Liquid); method: Transpiration method
Temperature, K	Vapor or sublimation pressure, kPa	uncertainty
341.7	0.00036	2e-05
344.8	0.00049	3e-05
345	0.00049	3e-05
346.7	0.00058	3e-05
349.1	0.00068	4e-05
349.2	0.00069	4e-05
351.2	0.00083	4e-05
353.8	0.00103	5e-05
354.2	0.00104	5e-05
356.4	0.00129	7e-05
359.2	0.00168	9e-05
359.3	0.00173	9e-05
361.5	0.00191	0.0001
362.7	0.0022	0.00012
364.3	0.00257	0.00014
367.5	0.00327	0.00017
369.6	0.004	0.00021
369.6	0.00399	0.00021
371.6	0.00458	0.00024
373.6	0.00522	0.00027
