Measured thermophysical data. Effect of alkyl chain length and temperature on the thermodynamic properties of ionic liquids 1-alkyl-3-methylimidazolium bromide in aqueous and non-aqueous solutions at different temperatures
Source: J. Chem. Thermodyn., 2009, 10.1016/j.jct.2008.09.005
Compound 1: water, H2O, InChI=1S/H2O/h1H2
Compound 2: 1-methyl-3-propylimidazolium bromide, C7H13BrN2, InChI=1S/C7H13N2.BrH/c1-3-4-9-6-5-8(2)7-9;/h5-7H,3-4H2,1-2H3;1H/q+1;/p-1
Compound 3: 1-heptyl-3-methylimidazolium bromide, C11H21BrN2, InChI=1S/C11H21N2.BrH/c1-3-4-5-6-7-8-13-10-9-12(2)11-13;/h9-11H,3-8H2,1-2H3;1H/q+1;/p-1
Compound 4: 1-methyl-3-octylimidazolium bromide, C12H23BrN2, InChI=1S/C12H23N2.BrH/c1-3-4-5-6-7-8-9-14-11-10-13(2)12-14;/h10-12H,3-9H2,1-2H3;1H/q+1;/p-1
Compound 5: 3-hexyl-1-methyl-1H-imidazolium bromide, C10H19BrN2, InChI=1S/C10H19N2.BrH/c1-3-4-5-6-7-12-9-8-11(2)10-12;/h8-10H,3-7H2,1-2H3;1H/q+1;/p-1
Compound 6: methanol, CH4O, InChI=1S/CH4O/c1-2/h2H,1H3, purity 99.9%

System: 3-hexyl-1-methyl-1H-imidazolium bromide; phases: Metastable liquid
Fixed: Pressure, kPa = 101.325
Property: Mass density, kg/m3 (Metastable liquid); method: Vibrating tube method
Temperature, K	Mass density, kg/m3	uncertainty
288.15	1231.054	1.346
293.15	1227.564	1.337
298.15	1223.982	1.329
303.15	1220.271	1.32
308.15	1216.835	1.312

System: 3-hexyl-1-methyl-1H-imidazolium bromide; phases: Metastable liquid
Fixed: Pressure, kPa = 101.325
Property: Speed of sound, m/s (Metastable liquid); method: Sing-around technique in a fixed-path interferometer
Temperature, K	Speed of sound, m/s	uncertainty
288.15	1639.62	2.42
293.15	1610.7	2.4
298.15	1587.61	2.38
303.15	1568.29	2.37
308.15	1551.26	2.36

System: methanol; phases: Liquid
Fixed: Pressure, kPa = 101
Property: Mass density, kg/m3 (Liquid); method: Vibrating tube method
Temperature, K	Mass density, kg/m3	uncertainty
288.15	795.934	0.144
293.15	791.24	0.145
298.15	786.531	0.147
303.15	781.802	0.148
308.15	777.053	0.149

System: methanol; phases: Liquid
Fixed: Pressure, kPa = 101
Property: Speed of sound, m/s (Liquid); method: Sing-around technique in a fixed-path interferometer
Temperature, K	Speed of sound, m/s	uncertainty
288.15	1135.35	1.14
293.15	1118.82	1.14
298.15	1102.32	1.14
303.15	1085.89	1.14
308.15	1069.63	1.13

System: water + 1-methyl-3-propylimidazolium bromide; phases: Liquid
Fixed: Pressure, kPa = 101
Property: Mass density, kg/m3 (Liquid); method: Vibrating tube method
Molality, mol/kg of 1-methyl-3-propylimidazolium bromide	Temperature, K	Mass density, kg/m3	uncertainty
0	288.15	999.099	0.117
0.0118	288.15	999.668	0.117
0.0216	288.15	1000.144	0.117
0.0259	288.15	1000.349	0.117
0.0363	288.15	1000.857	0.117
0.0413	288.15	1001.085	0.117
0.0414	288.15	1001.095	0.117
0.0529	288.15	1001.646	0.117
0.0638	288.15	1002.169	0.117
0.0877	288.15	1003.311	0.117
0.1128	288.15	1004.485	0.118
0.1328	288.15	1005.422	0.118
0.1492	288.15	1006.191	0.118
0.1722	288.15	1007.258	0.118
0.2021	288.15	1008.613	0.119
0.2569	288.15	1011.135	0.12
0.3161	288.15	1013.799	0.121
0	293.15	998.203	0.12
0.0118	293.15	998.761	0.116
0.0216	293.15	999.232	0.116
0.0259	293.15	999.434	0.118
0.0363	293.15	999.934	0.116
0.0413	293.15	1000.161	0.117
0.0414	293.15	1000.169	0.117
0.0529	293.15	1000.714	0.117
0.0638	293.15	1001.23	0.117
0.0877	293.15	1002.355	0.117
0.1128	293.15	1003.514	0.117
0.1328	293.15	1004.439	0.117
0.1492	293.15	1005.196	0.118
0.1722	293.15	1006.247	0.118
0.2021	293.15	1007.591	0.119
0.2569	293.15	1010.068	0.119
0.3161	293.15	1012.694	0.12
0	298.15	997.043	0.119
0.0118	298.15	997.592	0.116
0.0216	298.15	998.059	0.116
0.0259	298.15	998.259	0.118
0.0363	298.15	998.751	0.116
0.0413	298.15	998.974	0.117
0.0414	298.15	998.985	0.117
0.0529	298.15	999.52	0.116
0.0638	298.15	1000.029	0.117
0.0877	298.15	1001.143	0.117
0.1128	298.15	1002.285	0.117
0.1328	298.15	1003.2	0.117
0.1492	298.15	1003.947	0.117
0.1722	298.15	1004.958	0.117
0.2021	298.15	1006.292	0.118
0.2569	298.15	1008.757	0.119
0.3161	298.15	1011.349	0.12
0	303.15	995.645	0.119
0.0118	303.15	996.187	0.116
0.0216	303.15	996.648	0.116
0.0259	303.15	996.844	0.118
0.0363	303.15	997.333	0.116
0.0413	303.15	997.552	0.117
0.0414	303.15	997.562	0.117
0.0529	303.15	998.094	0.116
0.0638	303.15	998.597	0.117
0.0877	303.15	999.694	0.116
0.1128	303.15	1000.825	0.117
0.1328	303.15	1001.732	0.117
0.1492	303.15	1002.467	0.117
0.1722	303.15	1003.494	0.117
0.2021	303.15	1004.802	0.118
0.2569	303.15	1007.223	0.119
0.3161	303.15	1009.785	0.119
0	308.15	994.029	0.116
0.0118	308.15	994.567	0.116
0.0216	308.15	995.02	0.117
0.0259	308.15	995.218	0.117
0.0363	308.15	995.698	0.116
0.0413	308.15	995.917	0.116
0.0414	308.15	995.926	0.116
0.0529	308.15	996.453	0.117
0.0638	308.15	996.951	0.116
0.0877	308.15	998.036	0.116
0.1128	308.15	999.156	0.116
0.1328	308.15	1000.05	0.117
0.1492	308.15	1000.78	0.117
0.1722	308.15	1001.795	0.117
0.2021	308.15	1003.13	0.117
0.2569	308.15	1005.485	0.118
0.3161	308.15	1008.017	0.119

System: water + 1-methyl-3-propylimidazolium bromide; phases: Liquid
Fixed: Pressure, kPa = 101
Property: Speed of sound, m/s (Liquid); method: Sing-around technique in a fixed-path interferometer
Molality, mol/kg of 1-methyl-3-propylimidazolium bromide	Temperature, K	Speed of sound, m/s	uncertainty
0	288.15	1466.25	1.22
0.0118	288.15	1467.89	1.22
0.0216	288.15	1468.93	1.22
0.0259	288.15	1469.32	1.22
0.0363	288.15	1470.47	1.22
0.0413	288.15	1470.93	1.22
0.0414	288.15	1471	1.22
0.0529	288.15	1472.05	1.22
0.0638	288.15	1473.25	1.22
0.0877	288.15	1475.64	1.22
0.1128	288.15	1478.26	1.23
0.1328	288.15	1480.11	1.23
0.1492	288.15	1481.89	1.23
0.1722	288.15	1484.05	1.23
0.2021	288.15	1487.07	1.23
0.2569	288.15	1492.24	1.24
0.3161	288.15	1497.91	1.24
0	293.15	1482.66	1.22
0.0118	293.15	1483.9	1.22
0.0216	293.15	1484.98	1.22
0.0259	293.15	1485.31	1.22
0.0363	293.15	1486.37	1.22
0.0413	293.15	1486.78	1.22
0.0414	293.15	1486.85	1.22
0.0529	293.15	1487.64	1.22
0.0638	293.15	1488.87	1.22
0.0877	293.15	1490.91	1.23
0.1128	293.15	1493.44	1.23
0.1328	293.15	1495.07	1.23
0.1492	293.15	1496.8	1.23
0.1722	293.15	1498.62	1.23
0.2021	293.15	1501.49	1.24
0.2569	293.15	1506.03	1.24
0.3161	293.15	1511.27	1.25
0	298.15	1497	1.22
0.0118	298.15	1498.07	1.22
0.0216	298.15	1499.07	1.22
0.0259	298.15	1499.37	1.22
0.0363	298.15	1500.33	1.22
0.0413	298.15	1500.7	1.22
0.0414	298.15	1500.74	1.22
0.0529	298.15	1501.45	1.23
0.0638	298.15	1502.56	1.23
0.0877	298.15	1504.4	1.23
0.1128	298.15	1506.75	1.23
0.1328	298.15	1508.15	1.23
0.1492	298.15	1509.72	1.23
0.1722	298.15	1511.37	1.24
0.2021	298.15	1514.08	1.24
0.2569	298.15	1518.11	1.24
0.3161	298.15	1522.92	1.25
0	303.15	1509.44	1.22
0.0118	303.15	1510.34	1.22
0.0216	303.15	1511.22	1.23
0.0259	303.15	1511.49	1.23
0.0363	303.15	1512.35	1.23
0.0413	303.15	1512.7	1.23
0.0414	303.15	1512.76	1.23
0.0529	303.15	1513.43	1.23
0.0638	303.15	1514.4	1.23
0.0877	303.15	1516.16	1.23
0.1128	303.15	1518.19	1.23
0.1328	303.15	1519.53	1.23
0.1492	303.15	1520.94	1.24
0.1722	303.15	1522.44	1.24
0.2021	303.15	1524.86	1.24
0.2569	303.15	1528.57	1.25
0.3161	303.15	1532.88	1.25
0	308.15	1520.12	1.23
0.0118	308.15	1520.94	1.23
0.0216	308.15	1521.63	1.23
0.0259	308.15	1521.85	1.23
0.0363	308.15	1522.61	1.23
0.0413	308.15	1522.94	1.23
0.0414	308.15	1523.02	1.23
0.0529	308.15	1523.75	1.23
0.0638	308.15	1524.49	1.23
0.0877	308.15	1526.21	1.23
0.1128	308.15	1527.93	1.23
0.1328	308.15	1529.26	1.24
0.1492	308.15	1530.45	1.24
0.1722	308.15	1531.92	1.24
0.2021	308.15	1533.96	1.24
0.2569	308.15	1537.44	1.25
0.3161	308.15	1541.24	1.25

System: water + 3-hexyl-1-methyl-1H-imidazolium bromide; phases: Liquid
Fixed: Pressure, kPa = 101
Property: Mass density, kg/m3 (Liquid); method: Vibrating tube method
Molality, mol/kg of 3-hexyl-1-methyl-1H-imidazolium bromide	Temperature, K	Mass density, kg/m3	uncertainty
0	288.15	999.099	0.116
0.0203	288.15	1000.065	0.117
0.024	288.15	1000.245	0.116
0.0304	288.15	1000.543	0.117
0.0408	288.15	1001.046	0.117
0.0492	288.15	1001.444	0.117
0.0656	288.15	1002.21	0.117
0.0823	288.15	1002.993	0.117
0.1035	288.15	1003.982	0.118
0.1186	288.15	1004.682	0.118
0.1445	288.15	1005.869	0.118
0.1682	288.15	1006.95	0.118
0.2124	288.15	1008.951	0.119
0.2543	288.15	1010.823	0.12
0	293.15	998.203	0.118
0.0203	293.15	999.148	0.128
0.024	293.15	999.325	0.117
0.0304	293.15	999.619	0.117
0.0408	293.15	1000.108	0.116
0.0492	293.15	1000.498	0.117
0.0656	293.15	1001.252	0.117
0.0823	293.15	1002.019	0.117
0.1035	293.15	1002.986	0.117
0.1186	293.15	1003.674	0.117
0.1445	293.15	1004.834	0.118
0.1682	293.15	1005.893	0.118
0.2124	293.15	1007.85	0.119
0.2543	293.15	1009.683	0.119
0	298.15	997.043	0.118
0.0203	298.15	997.971	0.126
0.024	298.15	998.142	0.117
0.0304	298.15	998.43	0.117
0.0408	298.15	998.913	0.116
0.0492	298.15	999.294	0.116
0.0656	298.15	1000.033	0.116
0.0823	298.15	1000.787	0.116
0.1035	298.15	1001.736	0.116
0.1186	298.15	1002.408	0.117
0.1445	298.15	1003.546	0.117
0.1682	298.15	1004.586	0.118
0.2124	298.15	1006.503	0.118
0.2543	298.15	1008.302	0.119
0	303.15	995.645	0.117
0.0203	303.15	996.556	0.125
0.024	303.15	996.726	0.117
0.0304	303.15	997.007	0.116
0.0408	303.15	997.479	0.116
0.0492	303.15	997.855	0.116
0.0656	303.15	998.581	0.116
0.0823	303.15	999.322	0.116
0.1035	303.15	1000.251	0.116
0.1186	303.15	1000.916	0.116
0.1445	303.15	1002.032	0.117
0.1682	303.15	1003.053	0.117
0.2124	303.15	1004.935	0.118
0.2543	303.15	1006.699	0.118
0	308.15	994.029	0.116
0.0203	308.15	994.925	0.116
0.024	308.15	995.091	0.116
0.0304	308.15	995.368	0.116
0.0408	308.15	995.834	0.116
0.0492	308.15	996.204	0.116
0.0656	308.15	996.919	0.116
0.0823	308.15	997.645	0.116
0.1035	308.15	998.562	0.116
0.1186	308.15	999.211	0.116
0.1445	308.15	1000.308	0.116
0.1682	308.15	1001.312	0.116
0.2124	308.15	1003.16	0.117
0.2543	308.15	1004.893	0.118

System: water + 3-hexyl-1-methyl-1H-imidazolium bromide; phases: Liquid
Fixed: Pressure, kPa = 101
Property: Speed of sound, m/s (Liquid); method: Sing-around technique in a fixed-path interferometer
Molality, mol/kg of 3-hexyl-1-methyl-1H-imidazolium bromide	Temperature, K	Speed of sound, m/s	uncertainty
0	288.15	1466.25	1.22
0.0203	288.15	1469.52	1.22
0.024	288.15	1470.04	1.22
0.0304	288.15	1471.05	1.22
0.0408	288.15	1472.79	1.22
0.0492	288.15	1473.76	1.22
0.0656	288.15	1476.47	1.22
0.0823	288.15	1478.8	1.23
0.1035	288.15	1482.08	1.23
0.1186	288.15	1484.24	1.23
0.1445	288.15	1487.91	1.23
0.1682	288.15	1491.12	1.23
0.2124	288.15	1497.3	1.24
0.2543	288.15	1502.77	1.25
0	293.15	1482.66	1.22
0.0203	293.15	1485.44	1.22
0.024	293.15	1485.9	1.22
0.0304	293.15	1486.83	1.22
0.0408	293.15	1488.51	1.22
0.0492	293.15	1489.34	1.22
0.0656	293.15	1491.85	1.23
0.0823	293.15	1493.9	1.23
0.1035	293.15	1496.96	1.23
0.1186	293.15	1498.86	1.23
0.1445	293.15	1502.27	1.23
0.1682	293.15	1505.08	1.24
0.2124	293.15	1510.76	1.24
0.2543	293.15	1515.64	1.25
0	298.15	1497	1.22
0.0203	298.15	1499.45	1.22
0.024	298.15	1499.87	1.22
0.0304	298.15	1500.71	1.22
0.0408	298.15	1502.28	1.23
0.0492	298.15	1502.98	1.23
0.0656	298.15	1505.27	1.23
0.0823	298.15	1507.11	1.23
0.1035	298.15	1509.94	1.23
0.1186	298.15	1511.63	1.23
0.1445	298.15	1514.76	1.24
0.1682	298.15	1517.25	1.24
0.2124	298.15	1522.46	1.24
0.2543	298.15	1526.84	1.25
0	303.15	1509.44	1.22
0.0203	303.15	1511.62	1.23
0.024	303.15	1511.99	1.23
0.0304	303.15	1512.75	1.23
0.0408	303.15	1514.16	1.23
0.0492	303.15	1514.81	1.23
0.0656	303.15	1516.88	1.23
0.0823	303.15	1518.58	1.23
0.1035	303.15	1521.11	1.23
0.1186	303.15	1522.69	1.24
0.1445	303.15	1525.49	1.24
0.1682	303.15	1527.77	1.24
0.2124	303.15	1532.44	1.25
0.2543	303.15	1536.41	1.25
0	308.15	1520.12	1.23
0.0203	308.15	1522.11	1.23
0.024	308.15	1522.44	1.23
0.0304	308.15	1523.13	1.23
0.0408	308.15	1524.26	1.23
0.0492	308.15	1525	1.23
0.0656	308.15	1526.72	1.23
0.0823	308.15	1528.4	1.23
0.1035	308.15	1530.58	1.24
0.1186	308.15	1532.14	1.24
0.1445	308.15	1534.52	1.24
0.1682	308.15	1536.69	1.24
0.2124	308.15	1540.78	1.25
0.2543	308.15	1544.44	1.25

System: water + 1-heptyl-3-methylimidazolium bromide; phases: Liquid
Fixed: Pressure, kPa = 101
Property: Mass density, kg/m3 (Liquid); method: Vibrating tube method
Molality, mol/kg of 1-heptyl-3-methylimidazolium bromide	Temperature, K	Mass density, kg/m3	uncertainty
0	288.15	999.099	0.116
0.023	288.15	1000.166	0.116
0.0306	288.15	1000.525	0.116
0.0386	288.15	1000.9	0.116
0.0464	288.15	1001.253	0.116
0.061	288.15	1001.923	0.117
0.0781	288.15	1002.71	0.117
0.0977	288.15	1003.592	0.117
0.1182	288.15	1004.517	0.117
0.1384	288.15	1005.417	0.118
0.1585	288.15	1006.322	0.118
0.1907	288.15	1007.725	0.118
0.2413	288.15	1009.931	0.12
0	293.15	998.203	0.117
0.023	293.15	999.245	0.115
0.0306	293.15	999.594	0.116
0.0386	293.15	999.959	0.116
0.0464	293.15	1000.306	0.116
0.061	293.15	1000.959	0.116
0.0781	293.15	1001.729	0.116
0.0977	293.15	1002.582	0.116
0.1182	293.15	1003.493	0.116
0.1384	293.15	1004.337	0.117
0.1585	293.15	1005.251	0.118
0.1907	293.15	1006.614	0.118
0.2413	293.15	1008.771	0.119
0	298.15	997.043	0.117
0.023	298.15	998.059	0.115
0.0306	298.15	998.402	0.116
0.0386	298.15	998.76	0.116
0.0464	298.15	999.099	0.116
0.061	298.15	999.737	0.116
0.0781	298.15	1000.49	0.116
0.0977	298.15	1001.32	0.116
0.1182	298.15	1002.214	0.116
0.1384	298.15	1003.021	0.117
0.1585	298.15	1003.932	0.117
0.1907	298.15	1005.258	0.117
0.2413	298.15	1007.367	0.118
0	303.15	995.645	0.116
0.023	303.15	996.639	0.115
0.0306	303.15	996.976	0.116
0.0386	303.15	997.325	0.115
0.0464	303.15	997.657	0.116
0.061	303.15	998.282	0.116
0.0781	303.15	999.02	0.115
0.0977	303.15	999.839	0.115
0.1182	303.15	1000.707	0.115
0.1384	303.15	1001.508	0.116
0.1585	303.15	1002.386	0.117
0.1907	303.15	1003.683	0.117
0.2413	303.15	1005.717	0.118
0	308.15	994.029	0.115
0.023	308.15	995.004	0.115
0.0306	308.15	995.333	0.116
0.0386	308.15	995.677	0.115
0.0464	308.15	996.001	0.115
0.061	308.15	996.614	0.115
0.0781	308.15	997.336	0.115
0.0977	308.15	998.146	0.115
0.1182	308.15	998.988	0.115
0.1384	308.15	999.803	0.116
0.1585	308.15	1000.634	0.116
0.1907	308.15	1001.91	0.116
0.2413	308.15	1003.915	0.117

System: water + 1-heptyl-3-methylimidazolium bromide; phases: Liquid
Fixed: Pressure, kPa = 101
Property: Speed of sound, m/s (Liquid); method: Sing-around technique in a fixed-path interferometer
Molality, mol/kg of 1-heptyl-3-methylimidazolium bromide	Temperature, K	Speed of sound, m/s	uncertainty
0	288.15	1466.25	1.22
0.023	288.15	1470.41	1.22
0.0306	288.15	1471.75	1.22
0.0386	288.15	1473.08	1.22
0.0464	288.15	1474.46	1.22
0.061	288.15	1476.88	1.22
0.0781	288.15	1479.67	1.23
0.0977	288.15	1482.98	1.23
0.1182	288.15	1486.11	1.23
0.1384	288.15	1489.33	1.23
0.1585	288.15	1492.32	1.23
0.1907	288.15	1497.17	1.24
0.2413	288.15	1504.26	1.25
0	293.15	1482.66	1.22
0.023	293.15	1486.21	1.22
0.0306	293.15	1487.45	1.22
0.0386	293.15	1488.64	1.22
0.0464	293.15	1489.89	1.22
0.061	293.15	1492.24	1.23
0.0781	293.15	1494.64	1.23
0.0977	293.15	1497.77	1.23
0.1182	293.15	1500.49	1.23
0.1384	293.15	1503.53	1.23
0.1585	293.15	1506.1	1.24
0.1907	293.15	1510.57	1.24
0.2413	293.15	1516.88	1.25
0	298.15	1497	1.22
0.023	298.15	1500.18	1.22
0.0306	298.15	1501.27	1.22
0.0386	298.15	1502.35	1.23
0.0464	298.15	1503.48	1.23
0.061	298.15	1505.62	1.23
0.0781	298.15	1507.77	1.23
0.0977	298.15	1510.62	1.23
0.1182	298.15	1513.06	1.23
0.1384	298.15	1515.86	1.24
0.1585	298.15	1518.13	1.24
0.1907	298.15	1522.21	1.24
0.2413	298.15	1527.83	1.25
0	303.15	1509.44	1.22
0.023	303.15	1512.26	1.23
0.0306	303.15	1513.28	1.23
0.0386	303.15	1514.24	1.23
0.0464	303.15	1515.27	1.23
0.061	303.15	1517.18	1.23
0.0781	303.15	1519.17	1.23
0.0977	303.15	1521.71	1.23
0.1182	303.15	1523.98	1.24
0.1384	303.15	1526.45	1.24
0.1585	303.15	1528.52	1.24
0.1907	303.15	1532.14	1.24
0.2413	303.15	1537.17	1.25
0	308.15	1520.12	1.23
0.023	308.15	1522.67	1.23
0.0306	308.15	1523.6	1.23
0.0386	308.15	1524.46	1.23
0.0464	308.15	1525.41	1.23
0.061	308.15	1527.04	1.23
0.0781	308.15	1528.93	1.23
0.0977	308.15	1531.1	1.24
0.1182	308.15	1533.23	1.24
0.1384	308.15	1535.36	1.24
0.1585	308.15	1537.3	1.24
0.1907	308.15	1540.42	1.25
0.2413	308.15	1544.99	1.25

System: water + 1-methyl-3-octylimidazolium bromide; phases: Liquid
Fixed: Pressure, kPa = 101
Property: Mass density, kg/m3 (Liquid); method: Vibrating tube method
Molality, mol/kg of 1-methyl-3-octylimidazolium bromide	Temperature, K	Mass density, kg/m3	uncertainty
0	288.15	999.099	0.116
0.0018	288.15	999.182	0.116
0.0045	288.15	999.305	0.137
0.0072	288.15	999.424	0.115
0.0091	288.15	999.51	0.115
0.0109	288.15	999.591	0.115
0.011	288.15	999.596	0.115
0.0128	288.15	999.675	0.115
0.0155	288.15	999.795	0.123
0.0182	288.15	999.918	0.115
0.0218	288.15	1000.073	0.115
0.0293	288.15	1000.402	0.115
0.0328	288.15	1000.558	0.116
0.0366	288.15	1000.731	0.116
0.0506	288.15	1001.353	0.116
0.0592	288.15	1001.721	0.116
0.0741	288.15	1002.377	0.116
0.0924	288.15	1003.179	0.116
0.1121	288.15	1004.025	0.117
0.1313	288.15	1004.87	0.117
0.1511	288.15	1005.738	0.118
0	293.15	998.203	0.142
0.0018	293.15	998.284	0.117
0.0045	293.15	998.403	0.115
0.0072	293.15	998.519	0.113
0.0091	293.15	998.6	0.115
0.0109	293.15	998.681	0.115
0.011	293.15	998.686	0.115
0.0128	293.15	998.762	0.117
0.0155	293.15	998.879	0.115
0.0182	293.15	999	0.116
0.0218	293.15	999.15	0.116
0.0293	293.15	999.468	0.114
0.0328	293.15	999.624	0.116
0.0366	293.15	999.791	0.116
0.0506	293.15	1000.395	0.115
0.0592	293.15	1000.751	0.116
0.0741	293.15	1001.39	0.116
0.0924	293.15	1002.169	0.116
0.1121	293.15	1002.995	0.116
0.1313	293.15	1003.813	0.117
0.1511	293.15	1004.657	0.116
0	298.15	997.043	0.137
0.0018	298.15	997.12	0.117
0.0045	298.15	997.237	0.115
0.0072	298.15	997.349	0.113
0.0091	298.15	997.428	0.114
0.0109	298.15	997.505	0.115
0.011	298.15	997.512	0.115
0.0128	298.15	997.588	0.116
0.0155	298.15	997.699	0.115
0.0182	298.15	997.819	0.115
0.0218	298.15	997.965	0.115
0.0293	298.15	998.275	0.114
0.0328	298.15	998.426	0.115
0.0366	298.15	998.588	0.116
0.0506	298.15	999.177	0.114
0.0592	298.15	999.524	0.115
0.0741	298.15	1000.148	0.115
0.0924	298.15	1000.903	0.115
0.1121	298.15	1001.708	0.116
0.1313	298.15	1002.503	0.116
0.1511	298.15	1003.322	0.115
0	303.15	995.645	0.134
0.0018	303.15	995.719	0.116
0.0045	303.15	995.834	0.114
0.0072	303.15	995.942	0.113
0.0091	303.15	996.022	0.115
0.0109	303.15	996.098	0.115
0.011	303.15	996.102	0.114
0.0128	303.15	996.176	0.116
0.0155	303.15	996.286	0.115
0.0182	303.15	996.4	0.115
0.0218	303.15	996.545	0.115
0.0293	303.15	996.846	0.114
0.0328	303.15	996.994	0.115
0.0366	303.15	997.152	0.116
0.0506	303.15	997.727	0.114
0.0592	303.15	998.064	0.115
0.0741	303.15	998.672	0.115
0.0924	303.15	999.408	0.115
0.1121	303.15	1000.193	0.115
0.1313	303.15	1000.966	0.116
0.1511	303.15	1001.764	0.115
0	308.15	994.029	0.114
0.0018	308.15	994.102	0.114
0.0045	308.15	994.212	0.333
0.0072	308.15	994.321	0.114
0.0091	308.15	994.396	0.114
0.0109	308.15	994.471	0.114
0.011	308.15	994.475	0.114
0.0128	308.15	994.545	0.114
0.0155	308.15	994.655	0.265
0.0182	308.15	994.767	0.114
0.0218	308.15	994.907	0.114
0.0293	308.15	995.202	0.114
0.0328	308.15	995.347	0.115
0.0366	308.15	995.502	0.115
0.0506	308.15	996.061	0.114
0.0592	308.15	996.391	0.114
0.0741	308.15	996.985	0.115
0.0924	308.15	997.703	0.115
0.1121	308.15	998.466	0.115
0.1313	308.15	999.222	0.115
0.1511	308.15	999.998	0.115

System: water + 1-methyl-3-octylimidazolium bromide; phases: Liquid
Fixed: Pressure, kPa = 101
Property: Speed of sound, m/s (Liquid); method: Sing-around technique in a fixed-path interferometer
Molality, mol/kg of 1-methyl-3-octylimidazolium bromide	Temperature, K	Speed of sound, m/s	uncertainty
0	288.15	1466.25	1.22
0.0018	288.15	1466.85	1.22
0.0045	288.15	1467.39	1.22
0.0072	288.15	1467.84	1.22
0.0091	288.15	1468.25	1.22
0.0109	288.15	1468.63	1.22
0.011	288.15	1468.6	1.22
0.0128	288.15	1468.94	1.22
0.0155	288.15	1469.4	1.22
0.0182	288.15	1469.94	1.22
0.0218	288.15	1470.6	1.22
0.0293	288.15	1471.94	1.22
0.0328	288.15	1472.53	1.22
0.0366	288.15	1473.34	1.22
0.0506	288.15	1475.72	1.22
0.0592	288.15	1477.28	1.22
0.0741	288.15	1479.95	1.23
0.0924	288.15	1483.01	1.23
0.1121	288.15	1486.2	1.23
0.1313	288.15	1489.22	1.23
0.1511	288.15	1492.43	1.23
0	293.15	1482.66	1.22
0.0018	293.15	1482.97	1.22
0.0045	293.15	1483.42	1.22
0.0072	293.15	1483.86	1.22
0.0091	293.15	1484.19	1.22
0.0109	293.15	1484.54	1.22
0.011	293.15	1484.54	1.22
0.0128	293.15	1484.83	1.22
0.0155	293.15	1485.25	1.22
0.0182	293.15	1485.74	1.22
0.0218	293.15	1486.35	1.22
0.0293	293.15	1487.59	1.22
0.0328	293.15	1488.1	1.22
0.0366	293.15	1488.85	1.22
0.0506	293.15	1491.02	1.23
0.0592	293.15	1492.46	1.23
0.0741	293.15	1494.88	1.23
0.0924	293.15	1497.68	1.23
0.1121	293.15	1500.5	1.23
0.1313	293.15	1503.18	1.23
0.1511	293.15	1506.02	1.24
0	298.15	1497	1.22
0.0018	298.15	1497.2	1.22
0.0045	298.15	1497.62	1.22
0.0072	298.15	1498.01	1.22
0.0091	298.15	1498.3	1.22
0.0109	298.15	1498.63	1.22
0.011	298.15	1498.53	1.22
0.0128	298.15	1498.89	1.22
0.0155	298.15	1499.29	1.22
0.0182	298.15	1499.71	1.22
0.0218	298.15	1500.27	1.22
0.0293	298.15	1501.39	1.22
0.0328	298.15	1501.84	1.23
0.0366	298.15	1502.52	1.23
0.0506	298.15	1504.47	1.23
0.0592	298.15	1505.77	1.23
0.0741	298.15	1507.96	1.23
0.0924	298.15	1510.46	1.23
0.1121	298.15	1512.99	1.23
0.1313	298.15	1515.34	1.24
0.1511	298.15	1517.9	1.24
0	303.15	1509.44	1.22
0.0018	303.15	1509.56	1.22
0.0045	303.15	1509.92	1.22
0.0072	303.15	1510.33	1.22
0.0091	303.15	1510.56	1.22
0.0109	303.15	1510.86	1.23
0.011	303.15	1510.87	1.23
0.0128	303.15	1511.07	1.23
0.0155	303.15	1511.43	1.23
0.0182	303.15	1511.81	1.23
0.0218	303.15	1512.33	1.23
0.0293	303.15	1513.36	1.23
0.0328	303.15	1513.75	1.23
0.0366	303.15	1514.35	1.23
0.0506	303.15	1516.13	1.23
0.0592	303.15	1517.32	1.23
0.0741	303.15	1519.29	1.23
0.0924	303.15	1521.53	1.23
0.1121	303.15	1523.82	1.24
0.1313	303.15	1525.87	1.24
0.1511	303.15	1528.11	1.24
0	308.15	1520.12	1.23
0.0018	308.15	1520.24	1.23
0.0045	308.15	1520.55	1.23
0.0072	308.15	1520.89	1.23
0.0091	308.15	1521.13	1.23
0.0109	308.15	1521.4	1.23
0.011	308.15	1521.41	1.23
0.0128	308.15	1521.59	1.23
0.0155	308.15	1521.91	1.23
0.0182	308.15	1522.26	1.23
0.0218	308.15	1522.73	1.23
0.0293	308.15	1523.63	1.23
0.0328	308.15	1523.99	1.23
0.0366	308.15	1524.55	1.23
0.0506	308.15	1526.15	1.23
0.0592	308.15	1527.2	1.23
0.0741	308.15	1528.98	1.23
0.0924	308.15	1530.98	1.24
0.1121	308.15	1533.02	1.24
0.1313	308.15	1534.78	1.24
0.1511	308.15	1536.75	1.24

System: methanol + 1-methyl-3-propylimidazolium bromide; phases: Liquid
Fixed: Pressure, kPa = 101
Property: Mass density, kg/m3 (Liquid); method: Vibrating tube method
Molality, mol/kg of 1-methyl-3-propylimidazolium bromide	Temperature, K	Mass density, kg/m3	uncertainty
0	288.15	795.934	0.164
0.0118	288.15	796.849	0.164
0.02	288.15	797.485	0.163
0.0298	288.15	798.217	0.162
0.0395	288.15	798.941	0.162
0.0489	288.15	799.637	0.162
0.0708	288.15	801.273	0.162
0.0792	288.15	801.884	0.161
0.1241	288.15	805.157	0.16
0.1506	288.15	807.071	0.159
0.1787	288.15	809.048	0.159
0.2016	288.15	810.675	0.159
0.2541	288.15	814.334	0.158
0.3101	288.15	818.162	0.157
0	293.15	791.24	0.165
0.0118	293.15	792.156	0.165
0.02	293.15	792.792	0.164
0.0298	293.15	793.531	0.163
0.0395	293.15	794.254	0.163
0.0489	293.15	794.954	0.163
0.0708	293.15	796.593	0.163
0.0792	293.15	797.209	0.162
0.1241	293.15	800.492	0.161
0.1506	293.15	802.413	0.161
0.1787	293.15	804.393	0.16
0.2016	293.15	806.024	0.16
0.2541	293.15	809.692	0.159
0.3101	293.15	813.531	0.158
0	298.15	786.531	0.166
0.0118	298.15	787.45	0.166
0.02	298.15	788.092	0.165
0.0298	298.15	788.831	0.164
0.0395	298.15	789.557	0.164
0.0489	298.15	790.257	0.164
0.0708	298.15	791.904	0.164
0.0792	298.15	792.519	0.163
0.1241	298.15	795.815	0.163
0.1506	298.15	797.739	0.162
0.1787	298.15	799.726	0.161
0.2016	298.15	801.363	0.161
0.2541	298.15	805.039	0.16
0.3101	298.15	808.89	0.159
0	303.15	781.802	0.168
0.0118	303.15	782.728	0.167
0.02	303.15	783.371	0.166
0.0298	303.15	784.115	0.166
0.0395	303.15	784.842	0.165
0.0489	303.15	785.546	0.165
0.0708	303.15	787.198	0.165
0.0792	303.15	787.819	0.164
0.1241	303.15	791.122	0.164
0.1506	303.15	793.054	0.163
0.1787	303.15	795.045	0.162
0.2016	303.15	796.686	0.162
0.2541	303.15	800.375	0.161
0.3101	303.15	804.236	0.161
0	308.15	777.053	0.169
0.0118	308.15	777.984	0.169
0.02	308.15	778.629	0.168
0.0298	308.15	779.377	0.167
0.0395	308.15	780.108	0.167
0.0489	308.15	780.816	0.167
0.0708	308.15	782.471	0.166
0.0792	308.15	783.095	0.166
0.1241	308.15	786.412	0.165
0.1506	308.15	788.347	0.164
0.1787	308.15	790.347	0.164
0.2016	308.15	791.99	0.163
0.2541	308.15	795.693	0.162
0.3101	308.15	799.563	0.162

System: methanol + 1-methyl-3-propylimidazolium bromide; phases: Liquid
Fixed: Pressure, kPa = 101
Property: Speed of sound, m/s (Liquid); method: Sing-around technique in a fixed-path interferometer
Molality, mol/kg of 1-methyl-3-propylimidazolium bromide	Temperature, K	Speed of sound, m/s	uncertainty
0	288.15	1135.35	1.14
0.0118	288.15	1136.29	1.14
0.02	288.15	1136.93	1.15
0.0298	288.15	1137.82	1.15
0.0395	288.15	1138.43	1.15
0.0489	288.15	1139.17	1.15
0.0708	288.15	1140.97	1.15
0.0792	288.15	1141.45	1.15
0.1241	288.15	1144.64	1.15
0.1506	288.15	1146.62	1.15
0.1787	288.15	1148.33	1.15
0.2016	288.15	1150.01	1.16
0.2541	288.15	1153.39	1.16
0.3101	288.15	1157.01	1.16
0	293.15	1118.82	1.14
0.0118	293.15	1119.63	1.14
0.02	293.15	1120.3	1.14
0.0298	293.15	1121.37	1.14
0.0395	293.15	1121.84	1.14
0.0489	293.15	1122.56	1.14
0.0708	293.15	1124.47	1.15
0.0792	293.15	1124.87	1.15
0.1241	293.15	1128.11	1.15
0.1506	293.15	1130.31	1.15
0.1787	293.15	1131.89	1.15
0.2016	293.15	1133.65	1.15
0.2541	293.15	1136.9	1.16
0.3101	293.15	1140.78	1.16
0	298.15	1102.32	1.14
0.0118	298.15	1103.14	1.14
0.02	298.15	1103.81	1.14
0.0298	298.15	1104.91	1.14
0.0395	298.15	1105.44	1.14
0.0489	298.15	1106.14	1.14
0.0708	298.15	1108.02	1.14
0.0792	298.15	1108.48	1.14
0.1241	298.15	1111.81	1.15
0.1506	298.15	1113.98	1.15
0.1787	298.15	1115.63	1.15
0.2016	298.15	1117.36	1.15
0.2541	298.15	1120.67	1.15
0.3101	298.15	1124.57	1.16
0	303.15	1085.89	1.14
0.0118	303.15	1086.85	1.14
0.02	303.15	1087.52	1.14
0.0298	303.15	1088.55	1.14
0.0395	303.15	1089.18	1.14
0.0489	303.15	1089.9	1.14
0.0708	303.15	1091.75	1.14
0.0792	303.15	1092.29	1.14
0.1241	303.15	1095.62	1.14
0.1506	303.15	1097.75	1.14
0.1787	303.15	1099.5	1.15
0.2016	303.15	1101.19	1.15
0.2541	303.15	1104.62	1.15
0.3101	303.15	1108.51	1.16
0	308.15	1069.63	1.13
0.0118	308.15	1070.72	1.13
0.02	308.15	1071.34	1.13
0.0298	308.15	1072.33	1.13
0.0395	308.15	1073.05	1.14
0.0489	308.15	1073.79	1.14
0.0708	308.15	1075.58	1.14
0.0792	308.15	1076.19	1.14
0.1241	308.15	1079.57	1.14
0.1506	308.15	1081.65	1.14
0.1787	308.15	1083.51	1.14
0.2016	308.15	1085.13	1.14
0.2541	308.15	1088.7	1.15
0.3101	308.15	1092.57	1.15

System: methanol + 3-hexyl-1-methyl-1H-imidazolium bromide; phases: Liquid
Fixed: Pressure, kPa = 101
Property: Mass density, kg/m3 (Liquid); method: Vibrating tube method
Molality, mol/kg of 3-hexyl-1-methyl-1H-imidazolium bromide	Temperature, K	Mass density, kg/m3	uncertainty
0	288.15	795.934	0.17
0.008	288.15	796.653	0.169
0.0122	288.15	797.014	0.166
0.0155	288.15	797.275	0.164
0.0203	288.15	797.642	0.164
0.024	288.15	797.94	0.165
0.0321	288.15	798.583	0.164
0.0409	288.15	799.278	0.164
0.0492	288.15	799.947	0.164
0.0532	288.15	800.241	0.164
0.0573	288.15	800.591	0.163
0.0659	288.15	801.219	0.163
0.0738	288.15	801.873	0.165
0.0758	288.15	802.025	0.163
0.0827	288.15	802.557	0.162
0.0909	288.15	803.164	0.161
0.1036	288.15	804.102	0.162
0.1247	288.15	805.707	0.161
0.1471	288.15	807.368	0.161
0.1639	288.15	808.631	0.161
0.2098	288.15	811.981	0.16
0.2576	288.15	815.451	0.16
0	293.15	791.24	0.172
0.008	293.15	791.962	0.171
0.0122	293.15	792.33	0.168
0.0155	293.15	792.586	0.164
0.0203	293.15	792.954	0.165
0.024	293.15	793.254	0.166
0.0321	293.15	793.902	0.165
0.0409	293.15	794.597	0.166
0.0492	293.15	795.27	0.165
0.0532	293.15	795.565	0.166
0.0573	293.15	795.92	0.164
0.0659	293.15	796.548	0.164
0.0738	293.15	797.205	0.166
0.0758	293.15	797.355	0.164
0.0827	293.15	797.892	0.163
0.0909	293.15	798.5	0.162
0.1036	293.15	799.438	0.163
0.1247	293.15	801.054	0.163
0.1471	293.15	802.718	0.162
0.1639	293.15	803.99	0.162
0.2098	293.15	807.347	0.161
0.2576	293.15	810.832	0.161
0	298.15	786.531	0.173
0.008	298.15	787.257	0.172
0.0122	298.15	787.627	0.169
0.0155	298.15	787.885	0.166
0.0203	298.15	788.253	0.166
0.024	298.15	788.555	0.167
0.0321	298.15	789.204	0.167
0.0409	298.15	789.906	0.167
0.0492	298.15	790.58	0.166
0.0532	298.15	790.875	0.167
0.0573	298.15	791.233	0.165
0.0659	298.15	791.862	0.165
0.0738	298.15	792.524	0.168
0.0758	298.15	792.675	0.165
0.0827	298.15	793.214	0.164
0.0909	298.15	793.824	0.163
0.1036	298.15	794.767	0.164
0.1247	298.15	796.389	0.164
0.1471	298.15	798.058	0.163
0.1639	298.15	799.333	0.163
0.2098	298.15	802.704	0.162
0.2576	298.15	806.203	0.162
0	303.15	781.802	0.174
0.008	303.15	782.535	0.173
0.0122	303.15	782.907	0.17
0.0155	303.15	783.165	0.167
0.0203	303.15	783.538	0.167
0.024	303.15	783.836	0.168
0.0321	303.15	784.492	0.168
0.0409	303.15	785.196	0.168
0.0492	303.15	785.874	0.167
0.0532	303.15	786.172	0.168
0.0573	303.15	786.53	0.166
0.0659	303.15	787.162	0.167
0.0738	303.15	787.824	0.169
0.0758	303.15	787.978	0.167
0.0827	303.15	788.517	0.166
0.0909	303.15	789.132	0.165
0.1036	303.15	790.079	0.165
0.1247	303.15	791.705	0.165
0.1471	303.15	793.382	0.165
0.1639	303.15	794.664	0.164
0.2098	303.15	798.048	0.163
0.2576	303.15	801.558	0.163
0	308.15	777.053	0.175
0.008	308.15	777.792	0.175
0.0122	308.15	778.162	0.171
0.0155	308.15	778.423	0.169
0.0203	308.15	778.804	0.169
0.024	308.15	779.102	0.169
0.0321	308.15	779.759	0.169
0.0409	308.15	780.466	0.169
0.0492	308.15	781.15	0.169
0.0532	308.15	781.448	0.169
0.0573	308.15	781.807	0.168
0.0659	308.15	782.448	0.168
0.0738	308.15	783.106	0.17
0.0758	308.15	783.262	0.168
0.0827	308.15	783.802	0.167
0.0909	308.15	784.42	0.166
0.1036	308.15	785.37	0.167
0.1247	308.15	787.005	0.166
0.1471	308.15	788.689	0.166
0.1639	308.15	789.974	0.165
0.2098	308.15	793.373	0.165
0.2576	308.15	796.898	0.164

System: methanol + 3-hexyl-1-methyl-1H-imidazolium bromide; phases: Liquid
Fixed: Pressure, kPa = 101
Property: Speed of sound, m/s (Liquid); method: Sing-around technique in a fixed-path interferometer
Molality, mol/kg of 3-hexyl-1-methyl-1H-imidazolium bromide	Temperature, K	Speed of sound, m/s	uncertainty
0	288.15	1135.35	1.14
0.008	288.15	1136.17	1.14
0.0122	288.15	1136.63	1.14
0.0155	288.15	1136.93	1.15
0.0203	288.15	1137.34	1.15
0.024	288.15	1137.53	1.15
0.0321	288.15	1138.27	1.15
0.0409	288.15	1139.11	1.15
0.0492	288.15	1139.57	1.15
0.0532	288.15	1139.91	1.15
0.0573	288.15	1140.27	1.15
0.0659	288.15	1140.85	1.15
0.0738	288.15	1141.64	1.15
0.0758	288.15	1141.65	1.15
0.0827	288.15	1142.27	1.15
0.0909	288.15	1142.93	1.15
0.1036	288.15	1143.64	1.15
0.1247	288.15	1145.34	1.15
0.1471	288.15	1146.77	1.15
0.1639	288.15	1148.06	1.16
0.2098	288.15	1151.1	1.16
0.2576	288.15	1154.48	1.16
0	293.15	1118.82	1.14
0.008	293.15	1119.53	1.14
0.0122	293.15	1120.16	1.14
0.0155	293.15	1120.4	1.14
0.0203	293.15	1120.67	1.14
0.024	293.15	1120.91	1.14
0.0321	293.15	1121.79	1.14
0.0409	293.15	1122.59	1.14
0.0492	293.15	1122.99	1.14
0.0532	293.15	1123.32	1.14
0.0573	293.15	1123.82	1.14
0.0659	293.15	1124.29	1.15
0.0738	293.15	1125.2	1.15
0.0758	293.15	1125.08	1.15
0.0827	293.15	1125.87	1.15
0.0909	293.15	1126.49	1.15
0.1036	293.15	1127.11	1.15
0.1247	293.15	1128.91	1.15
0.1471	293.15	1130.27	1.15
0.1639	293.15	1131.73	1.15
0.2098	293.15	1134.68	1.16
0.2576	293.15	1138.23	1.16
0	298.15	1102.32	1.14
0.008	298.15	1103.09	1.14
0.0122	298.15	1103.67	1.14
0.0155	298.15	1103.9	1.14
0.0203	298.15	1104.25	1.14
0.024	298.15	1104.44	1.14
0.0321	298.15	1105.32	1.14
0.0409	298.15	1106.13	1.14
0.0492	298.15	1106.54	1.14
0.0532	298.15	1106.91	1.14
0.0573	298.15	1107.39	1.14
0.0659	298.15	1107.93	1.14
0.0738	298.15	1108.78	1.14
0.0758	298.15	1108.67	1.14
0.0827	298.15	1109.48	1.14
0.0909	298.15	1110.12	1.14
0.1036	298.15	1110.78	1.15
0.1247	298.15	1112.57	1.15
0.1471	298.15	1114	1.15
0.1639	298.15	1115.41	1.15
0.2098	298.15	1118.41	1.15
0.2576	298.15	1122.02	1.16
0	303.15	1085.89	1.14
0.008	303.15	1086.8	1.14
0.0122	303.15	1087.32	1.14
0.0155	303.15	1087.53	1.14
0.0203	303.15	1087.98	1.14
0.024	303.15	1088.16	1.14
0.0321	303.15	1088.99	1.14
0.0409	303.15	1089.78	1.14
0.0492	303.15	1090.3	1.14
0.0532	303.15	1090.67	1.14
0.0573	303.15	1091.1	1.14
0.0659	303.15	1091.69	1.14
0.0738	303.15	1092.49	1.14
0.0758	303.15	1092.43	1.14
0.0827	303.15	1093.19	1.14
0.0909	303.15	1093.84	1.14
0.1036	303.15	1094.63	1.14
0.1247	303.15	1096.33	1.14
0.1471	303.15	1097.86	1.15
0.1639	303.15	1099.25	1.15
0.2098	303.15	1102.37	1.15
0.2576	303.15	1105.02	1.15
0	308.15	1069.63	1.13
0.008	308.15	1070.62	1.13
0.0122	308.15	1071.04	1.13
0.0155	308.15	1071.31	1.13
0.0203	308.15	1071.84	1.13
0.024	308.15	1072.03	1.13
0.0321	308.15	1072.79	1.14
0.0409	308.15	1073.59	1.14
0.0492	308.15	1074.2	1.14
0.0532	308.15	1074.57	1.14
0.0573	308.15	1074.91	1.14
0.0659	308.15	1075.57	1.14
0.0738	308.15	1076.36	1.14
0.0758	308.15	1076.39	1.14
0.0827	308.15	1077.05	1.14
0.0909	308.15	1077.7	1.14
0.1036	308.15	1078.57	1.14
0.1247	308.15	1080.21	1.14
0.1471	308.15	1081.86	1.14
0.1639	308.15	1083.2	1.14
0.2098	308.15	1086.39	1.15
0.2576	308.15	1089.98	1.15

System: methanol + 1-heptyl-3-methylimidazolium bromide; phases: Liquid
Fixed: Pressure, kPa = 101
Property: Mass density, kg/m3 (Liquid); method: Vibrating tube method
Molality, mol/kg of 1-heptyl-3-methylimidazolium bromide	Temperature, K	Mass density, kg/m3	uncertainty
0	288.15	795.934	0.166
0.0077	288.15	796.567	0.165
0.0154	288.15	797.182	0.165
0.023	288.15	797.805	0.165
0.0309	288.15	798.432	0.164
0.0382	288.15	799.015	0.164
0.0464	288.15	799.647	0.163
0.0623	288.15	800.885	0.163
0.0781	288.15	802.119	0.163
0.0975	288.15	803.603	0.162
0.1177	288.15	805.148	0.162
0.1394	288.15	806.79	0.162
0.1587	288.15	808.232	0.161
0.1995	288.15	811.23	0.16
0.2413	288.15	814.259	0.16
0	293.15	791.24	0.168
0.0077	293.15	791.876	0.167
0.0154	293.15	792.495	0.166
0.023	293.15	793.12	0.166
0.0309	293.15	793.752	0.165
0.0382	293.15	794.329	0.165
0.0464	293.15	794.971	0.165
0.0623	293.15	796.214	0.165
0.0781	293.15	797.452	0.164
0.0975	293.15	798.943	0.164
0.1177	293.15	800.495	0.163
0.1394	293.15	802.144	0.163
0.1587	293.15	803.591	0.162
0.1995	293.15	806.6	0.161
0.2413	293.15	809.637	0.161
0	298.15	786.531	0.169
0.0077	298.15	787.17	0.168
0.0154	298.15	787.793	0.168
0.023	298.15	788.421	0.168
0.0309	298.15	789.057	0.167
0.0382	298.15	789.64	0.166
0.0464	298.15	790.281	0.166
0.0623	298.15	791.53	0.166
0.0781	298.15	792.774	0.165
0.0975	298.15	794.27	0.165
0.1177	298.15	795.828	0.164
0.1394	298.15	797.485	0.164
0.1587	298.15	798.937	0.163
0.1995	298.15	801.959	0.163
0.2413	298.15	805.007	0.162
0	303.15	781.802	0.17
0.0077	303.15	782.447	0.169
0.0154	303.15	783.073	0.169
0.023	303.15	783.703	0.169
0.0309	303.15	784.341	0.168
0.0382	303.15	784.929	0.167
0.0464	303.15	785.573	0.167
0.0623	303.15	786.827	0.167
0.0781	303.15	788.076	0.166
0.0975	303.15	789.58	0.166
0.1177	303.15	791.144	0.166
0.1394	303.15	792.807	0.165
0.1587	303.15	794.266	0.164
0.1995	303.15	797.3	0.164
0.2413	303.15	800.357	0.163
0	308.15	777.053	0.171
0.0077	308.15	777.7	0.171
0.0154	308.15	778.331	0.17
0.023	308.15	778.964	0.17
0.0309	308.15	779.606	0.169
0.0382	308.15	780.197	0.169
0.0464	308.15	780.844	0.168
0.0623	308.15	782.105	0.168
0.0781	308.15	783.361	0.168
0.0975	308.15	784.871	0.167
0.1177	308.15	786.443	0.167
0.1394	308.15	788.112	0.166
0.1587	308.15	789.577	0.166
0.1995	308.15	792.624	0.165
0.2413	308.15	795.696	0.164

System: methanol + 1-heptyl-3-methylimidazolium bromide; phases: Liquid
Fixed: Pressure, kPa = 101
Property: Speed of sound, m/s (Liquid); method: Sing-around technique in a fixed-path interferometer
Molality, mol/kg of 1-heptyl-3-methylimidazolium bromide	Temperature, K	Speed of sound, m/s	uncertainty
0	288.15	1135.35	1.14
0.0077	288.15	1136.01	1.14
0.0154	288.15	1136.63	1.15
0.023	288.15	1137.33	1.15
0.0309	288.15	1137.98	1.15
0.0382	288.15	1138.69	1.15
0.0464	288.15	1139.22	1.15
0.0623	288.15	1140.49	1.15
0.0781	288.15	1141.62	1.15
0.0975	288.15	1143.07	1.15
0.1177	288.15	1144.55	1.15
0.1394	288.15	1146.12	1.15
0.1587	288.15	1147.52	1.16
0.1995	288.15	1150.3	1.16
0.2413	288.15	1153.11	1.16
0	293.15	1118.82	1.14
0.0077	293.15	1119.52	1.14
0.0154	293.15	1120.15	1.14
0.023	293.15	1120.86	1.14
0.0309	293.15	1121.53	1.14
0.0382	293.15	1122.13	1.14
0.0464	293.15	1122.77	1.14
0.0623	293.15	1124.04	1.15
0.0781	293.15	1125.24	1.15
0.0975	293.15	1126.69	1.15
0.1177	293.15	1128.21	1.15
0.1394	293.15	1129.79	1.15
0.1587	293.15	1131.22	1.15
0.1995	293.15	1134.04	1.16
0.2413	293.15	1136.99	1.16
0	298.15	1102.32	1.14
0.0077	298.15	1103.01	1.14
0.0154	298.15	1103.66	1.14
0.023	298.15	1104.37	1.14
0.0309	298.15	1105.07	1.14
0.0382	298.15	1105.68	1.14
0.0464	298.15	1106.32	1.14
0.0623	298.15	1107.62	1.14
0.0781	298.15	1108.84	1.14
0.0975	298.15	1110.33	1.15
0.1177	298.15	1111.87	1.15
0.1394	298.15	1113.5	1.15
0.1587	298.15	1114.9	1.15
0.1995	298.15	1117.78	1.15
0.2413	298.15	1120.79	1.16
0	303.15	1085.89	1.14
0.0077	303.15	1086.63	1.14
0.0154	303.15	1087.3	1.14
0.023	303.15	1088.01	1.14
0.0309	303.15	1088.73	1.14
0.0382	303.15	1089.34	1.14
0.0464	303.15	1090	1.14
0.0623	303.15	1091.3	1.14
0.0781	303.15	1092.57	1.14
0.0975	303.15	1094.07	1.14
0.1177	303.15	1095.63	1.14
0.1394	303.15	1097.23	1.15
0.1587	303.15	1098.71	1.15
0.1995	303.15	1101.65	1.15
0.2413	303.15	1104.63	1.15
0	308.15	1069.63	1.13
0.0077	308.15	1070.39	1.13
0.0154	308.15	1071.08	1.13
0.023	308.15	1071.8	1.13
0.0309	308.15	1072.52	1.14
0.0382	308.15	1073.15	1.14
0.0464	308.15	1073.81	1.14
0.0623	308.15	1075.16	1.14
0.0781	308.15	1076.44	1.14
0.0975	308.15	1077.99	1.14
0.1177	308.15	1079.53	1.14
0.1394	308.15	1081.2	1.14
0.1587	308.15	1082.68	1.14
0.1995	308.15	1085.65	1.15
0.2413	308.15	1088.7	1.15

System: methanol + 1-methyl-3-octylimidazolium bromide; phases: Liquid
Fixed: Pressure, kPa = 101
Property: Mass density, kg/m3 (Liquid); method: Vibrating tube method
Molality, mol/kg of 1-methyl-3-octylimidazolium bromide	Temperature, K	Mass density, kg/m3	uncertainty
0	288.15	795.934	0.167
0.0073	288.15	796.547	0.166
0.0219	288.15	797.742	0.165
0.0292	288.15	798.327	0.164
0.0367	288.15	798.911	0.164
0.0591	288.15	800.663	0.164
0.0818	288.15	802.451	0.163
0.1046	288.15	804.19	0.162
0.1365	288.15	806.598	0.161
0.1897	288.15	810.534	0.161
0	293.15	791.24	0.169
0.0073	293.15	791.856	0.167
0.0219	293.15	793.057	0.167
0.0292	293.15	793.647	0.165
0.0367	293.15	794.233	0.165
0.0591	293.15	795.993	0.165
0.0818	293.15	797.784	0.164
0.1046	293.15	799.535	0.163
0.1365	293.15	801.953	0.162
0.1897	293.15	805.904	0.162
0	298.15	786.531	0.17
0.0073	298.15	787.154	0.169
0.0219	298.15	788.36	0.168
0.0292	298.15	788.951	0.167
0.0367	298.15	789.541	0.166
0.0591	298.15	791.309	0.166
0.0818	298.15	793.109	0.165
0.1046	298.15	794.868	0.164
0.1365	298.15	797.294	0.164
0.1897	298.15	801.263	0.163
0	303.15	781.802	0.171
0.0073	303.15	782.428	0.17
0.0219	303.15	783.642	0.169
0.0292	303.15	784.237	0.168
0.0367	303.15	784.828	0.167
0.0591	303.15	786.606	0.167
0.0818	303.15	788.414	0.167
0.1046	303.15	790.183	0.166
0.1365	303.15	792.619	0.165
0.1897	303.15	796.608	0.164
0	308.15	777.053	0.172
0.0073	308.15	777.682	0.171
0.0219	308.15	778.902	0.171
0.0292	308.15	779.503	0.169
0.0367	308.15	780.099	0.169
0.0591	308.15	781.885	0.169
0.0818	308.15	783.702	0.168
0.1046	308.15	785.478	0.167
0.1365	308.15	787.928	0.166
0.1897	308.15	791.933	0.166

System: methanol + 1-methyl-3-octylimidazolium bromide; phases: Liquid
Fixed: Pressure, kPa = 101
Property: Speed of sound, m/s (Liquid); method: Sing-around technique in a fixed-path interferometer
Molality, mol/kg of 1-methyl-3-octylimidazolium bromide	Temperature, K	Speed of sound, m/s	uncertainty
0	288.15	1135.35	1.14
0.0073	288.15	1136	1.14
0.0219	288.15	1137.32	1.15
0.0292	288.15	1137.9	1.1
0.0367	288.15	1138.49	1.15
0.0591	288.15	1140.28	1.15
0.0818	288.15	1142.15	1.15
0.1046	288.15	1143.81	1.15
0.1365	288.15	1146.16	1.15
0.1897	288.15	1149.94	1.16
0	293.15	1118.82	1.14
0.0073	293.15	1119.51	1.14
0.0219	293.15	1120.85	1.14
0.0292	293.15	1121.47	1.14
0.0367	293.15	1122.06	1.14
0.0591	293.15	1123.88	1.15
0.0818	293.15	1125.73	1.15
0.1046	293.15	1127.44	1.15
0.1365	293.15	1129.82	1.15
0.1897	293.15	1133.7	1.16
0	298.15	1102.32	1.14
0.0073	298.15	1103	1.14
0.0219	298.15	1104.35	1.14
0.0292	298.15	1105.01	1.14
0.0367	298.15	1105.59	1.14
0.0591	298.15	1107.44	1.14
0.0818	298.15	1109.33	1.14
0.1046	298.15	1111.1	1.15
0.1365	298.15	1113.48	1.15
0.1897	298.15	1117.41	1.15
0	303.15	1085.89	1.14
0.0073	303.15	1086.63	1.14
0.0219	303.15	1088	1.14
0.0292	303.15	1088.66	1.14
0.0367	303.15	1089.29	1.14
0.0591	303.15	1091.14	1.14
0.0818	303.15	1093.04	1.14
0.1046	303.15	1094.84	1.14
0.1365	303.15	1097.28	1.15
0.1897	303.15	1101.29	1.15
0	308.15	1069.63	1.13
0.0073	308.15	1070.38	1.13
0.0219	308.15	1071.75	1.13
0.0292	308.15	1072.45	1.14
0.0367	308.15	1073.09	1.14
0.0591	308.15	1074.97	1.14
0.0818	308.15	1076.9	1.14
0.1046	308.15	1078.72	1.14
0.1365	308.15	1081.19	1.14
0.1897	308.15	1085.23	1.15
