Measured thermophysical data. Equilibrium solubility of sodium 3-sulfobenzoate in binary (sodium chloride + water), (sodium sulfate + water), and (ethanol + water) solvent mixtures at temperatures from (278.15 to 323.15) K
Source: J. Chem. Thermodyn., 2014, 10.1016/j.jct.2014.07.007
Compound 1: sodium 3-sulfobenzoate, C7H5NaO5S, InChI=1S/C7H6O5S.Na/c8-7(9)5-2-1-3-6(4-5)13(10,11)12;/h1-4H,(H,8,9)(H,10,11,12);/q;+1/p-1, purity 99.5%
Compound 2: sodium sulfate, Na2O4S, InChI=1S/2Na.H2O4S/c;;1-5(2,3)4/h;;(H2,1,2,3,4)/q2*+1;/p-2, purity 99.8%
Compound 3: sodium chloride, ClNa, InChI=1S/ClH.Na/h1H;/q;+1/p-1, purity 99.6%
Compound 4: ethanol, C2H6O, InChI=1S/C2H6O/c1-2-3/h3H,2H2,1H3, purity 99.9%
Compound 5: water, H2O, InChI=1S/H2O/h1H2

System: water + sodium sulfate + sodium 3-sulfobenzoate; phases: Liquid, Crystal
Fixed: Pressure, kPa = 100
Property: Mole fraction of sodium 3-sulfobenzoate (Liquid); method: Chromatography
Temperature, K	Solvent: Mass fraction of sodium sulfate	Mole fraction of sodium 3-sulfobenzoate	uncertainty
278.15	0	0.0276	0.0011
283.15	0	0.0296	0.0012
288.15	0	0.032	0.0013
293.15	0	0.0346	0.0014
298.15	0	0.0372	0.0015
303.15	0	0.0417	0.0017
308.15	0	0.0459	0.0018
313.15	0	0.0519	0.0021
318.15	0	0.0584	0.0023
323.15	0	0.0687	0.0028
278.15	0.02	0.0221	0.0009
283.15	0.02	0.0237	0.001
288.15	0.02	0.0258	0.001
293.15	0.02	0.0291	0.0012
298.15	0.02	0.0323	0.0013
303.15	0.02	0.0355	0.0014
308.15	0.02	0.0403	0.0016
313.15	0.02	0.0457	0.0018
318.15	0.02	0.0509	0.0021
323.15	0.02	0.0591	0.0024
278.15	0.05	0.0178	0.0008
283.15	0.05	0.0193	0.0008
288.15	0.05	0.0215	0.0009
293.15	0.05	0.0245	0.001
298.15	0.05	0.0277	0.0011
303.15	0.05	0.0309	0.0013
308.15	0.05	0.0342	0.0014
313.15	0.05	0.0389	0.0016
318.15	0.05	0.0456	0.0019
323.15	0.05	0.0537	0.0022
278.15	0.1	0.0118	0.0006
283.15	0.1	0.0131	0.0007
288.15	0.1	0.0153	0.0008
293.15	0.1	0.0182	0.0009
298.15	0.1	0.0219	0.001
303.15	0.1	0.0255	0.0012
308.15	0.1	0.0291	0.0013
313.15	0.1	0.0336	0.0015
318.15	0.1	0.0391	0.0017
323.15	0.1	0.0464	0.002
278.15	0.2	0.0031	0.0007
283.15	0.2	0.0041	0.0007
288.15	0.2	0.0052	0.0008
293.15	0.2	0.0066	0.0009
298.15	0.2	0.0094	0.0011
303.15	0.2	0.0114	0.0012
308.15	0.2	0.0157	0.0013
313.15	0.2	0.0192	0.0014
318.15	0.2	0.0234	0.0015
323.15	0.2	0.0297	0.0018

System: sodium chloride + water + sodium 3-sulfobenzoate; phases: Liquid, Crystal
Fixed: Pressure, kPa = 100
Property: Mole fraction of sodium 3-sulfobenzoate (Liquid); method: Chromatography
Temperature, K	Solvent: Mass fraction of sodium chloride	Mole fraction of sodium 3-sulfobenzoate	uncertainty
278.15	0.01	0.0157	0.0017
283.15	0.01	0.0179	0.0017
288.15	0.01	0.0207	0.0017
293.15	0.01	0.024	0.0016
298.15	0.01	0.0277	0.0016
303.15	0.01	0.0316	0.0016
308.15	0.01	0.0361	0.0016
313.15	0.01	0.0412	0.0017
318.15	0.01	0.046	0.0019
323.15	0.01	0.0524	0.0022
278.15	0.05	0.0118	0.0016
283.15	0.05	0.0134	0.0016
288.15	0.05	0.0156	0.0016
293.15	0.05	0.0176	0.0016
298.15	0.05	0.0204	0.0016
303.15	0.05	0.0238	0.0016
308.15	0.05	0.0276	0.0017
313.15	0.05	0.0322	0.0017
318.15	0.05	0.0374	0.0017
323.15	0.05	0.0423	0.0018
278.15	0.1	0.0038	0.0016
283.15	0.1	0.005	0.0016
288.15	0.1	0.0065	0.0016
293.15	0.1	0.008	0.0016
298.15	0.1	0.0104	0.0016
303.15	0.1	0.0127	0.0017
308.15	0.1	0.0155	0.0017
313.15	0.1	0.0185	0.0017
318.15	0.1	0.0216	0.0017
323.15	0.1	0.0248	0.0018
278.15	0.2	0.0017	0.0016
283.15	0.2	0.0021	0.0016
288.15	0.2	0.0024	0.0016
293.15	0.2	0.0029	0.0016
298.15	0.2	0.0037	0.0017
303.15	0.2	0.0046	0.0017
308.15	0.2	0.006	0.0018
313.15	0.2	0.0075	0.0018
318.15	0.2	0.0087	0.0019
323.15	0.2	0.0109	0.0019
278.15	0	0.0276	0.0016
283.15	0	0.0296	0.0016
288.15	0	0.032	0.0016
293.15	0	0.0346	0.0016
298.15	0	0.0372	0.0016
303.15	0	0.0417	0.0017
308.15	0	0.0459	0.0018
313.15	0	0.0519	0.0021
318.15	0	0.0584	0.0023
323.15	0	0.0687	0.0028

System: ethanol + water + sodium 3-sulfobenzoate; phases: Liquid, Crystal
Fixed: Pressure, kPa = 100
Property: Mole fraction of sodium 3-sulfobenzoate (Liquid); method: Chromatography
Temperature, K	Solvent: Mass fraction of ethanol	Mole fraction of sodium 3-sulfobenzoate	uncertainty
278.15	0.08	0.0282	0.0011
283.15	0.08	0.0291	0.0012
288.15	0.08	0.031	0.0012
293.15	0.08	0.0336	0.0013
298.15	0.08	0.036	0.0014
303.15	0.08	0.0396	0.0016
308.15	0.08	0.0438	0.0018
313.15	0.08	0.0484	0.0019
318.15	0.08	0.0535	0.0022
323.15	0.08	0.062	0.0025
278.15	0.17	0.0262	0.0011
283.15	0.17	0.0274	0.0011
288.15	0.17	0.029	0.0012
293.15	0.17	0.0317	0.0013
298.15	0.17	0.0349	0.0014
303.15	0.17	0.0373	0.0015
308.15	0.17	0.0417	0.0017
313.15	0.17	0.0458	0.0018
318.15	0.17	0.0515	0.0021
323.15	0.17	0.0603	0.0024
278.15	0.35	0.0268	0.0011
283.15	0.35	0.0278	0.0011
288.15	0.35	0.03	0.0012
293.15	0.35	0.0326	0.0013
298.15	0.35	0.0352	0.0014
303.15	0.35	0.0383	0.0015
308.15	0.35	0.0418	0.0017
313.15	0.35	0.0471	0.0019
318.15	0.35	0.0533	0.0021
323.15	0.35	0.0614	0.0025
278.15	0.54	0.0277	0.0011
283.15	0.54	0.0288	0.0012
288.15	0.54	0.0304	0.0012
293.15	0.54	0.0328	0.0013
298.15	0.54	0.0362	0.0015
303.15	0.54	0.0402	0.0016
308.15	0.54	0.0447	0.0018
313.15	0.54	0.049	0.002
318.15	0.54	0.0548	0.0022
323.15	0.54	0.0634	0.0026
278.15	0.7	0.0262	0.0011
283.15	0.7	0.0276	0.0011
288.15	0.7	0.0291	0.0012
293.15	0.7	0.0314	0.0013
298.15	0.7	0.0356	0.0014
303.15	0.7	0.0399	0.0016
308.15	0.7	0.0443	0.0018
313.15	0.7	0.0497	0.002
318.15	0.7	0.0559	0.0023
323.15	0.7	0.0647	0.0026
278.15	0	0.0276	0.0011
283.15	0	0.0296	0.0012
288.15	0	0.032	0.0013
293.15	0	0.0346	0.0014
298.15	0	0.0372	0.0015
303.15	0	0.0417	0.0017
308.15	0	0.0459	0.0018
313.15	0	0.0519	0.0021
318.15	0	0.0584	0.0023
323.15	0	0.0687	0.0028

System: water + sodium 3-sulfobenzoate; phases: Liquid, Crystal
Fixed: Pressure, kPa = 100
Property: Mole fraction of sodium 3-sulfobenzoate (Liquid); method: Chromatography
Temperature, K	Mole fraction of sodium 3-sulfobenzoate	uncertainty
278.15	0.0276	0.0011
283.15	0.0296	0.0012
288.15	0.032	0.0013
293.15	0.0346	0.0014
298.15	0.0372	0.0015
303.15	0.0417	0.0017
308.15	0.0459	0.0018
313.15	0.0519	0.0021
318.15	0.0584	0.0023
323.15	0.0687	0.0028
