Measured thermophysical data. Thermodynamic properties of Pr7O12
Source: J. Chem. Thermodyn., 2019, 10.1016/j.jct.2019.04.021
Compound 1: praseodymium oxide (Pr2O3), O3Pr2, InChI=1S/3O.2Pr/q3*-2;2*+3, purity 99.9%
Compound 2: oxygen, O2, InChI=1S/O2/c1-2, purity 99.9995%
Compound 3: praseodymium oxide (Pr7O12), O12Pr7, InChI=1S/12O.7Pr/q12*-2;4*+3;3*+4, purity 99.91%

System: praseodymium oxide (Pr2O3); phases: Crystal
Property: Mass density, kg/m3 (Crystal); method: X-ray diffraction
Temperature, K	Pressure, kPa	Mass density, kg/m3	uncertainty
298	101.325	7060.5	7.2

System: praseodymium oxide (Pr7O12); phases: Crystal
Property: Mass density, kg/m3 (Crystal); method: X-ray diffraction
Temperature, K	Pressure, kPa	Mass density, kg/m3	uncertainty
298	101.325	6616.6	13.3

Reaction: -3.5 praseodymium oxide (Pr2O3) + 1 praseodymium oxide (Pr7O12) + -.75 oxygen
Property: Molar Gibbs energy of reaction, kJ/mol
-71.44
-68.61
-65.78
-62.94
-60.11
-57.28
-54.45
-51.61
-48.78
-45.95
-43.12
-40.29
-37.45
-34.62
-31.79
