Measured thermophysical data. Low temperature heat capacity and thermodynamic parameters of phase transitions of 4-nitro-4'-tert-butyl-diphenyl oxide
Source: J. Chem. Thermodyn., 2017, 10.1016/j.jct.2016.10.031
Compound 1: 1-(tert-butyl)-4-(4-nitrophenoxy)benzene, C16H17NO3, InChI=1S/C16H17NO3/c1-16(2,3)12-4-8-14(9-5-12)20-15-10-6-13(7-11-15)17(18)19/h4-11H,1-3H3, purity 99.98%

System: 1-(tert-butyl)-4-(4-nitrophenoxy)benzene; phases: Crystal, Liquid, Gas
Property: Triple point temperature, K (Crystal); method: Adiabatic calorimetry
Triple point temperature, K	uncertainty
334.8	0.08

System: 1-(tert-butyl)-4-(4-nitrophenoxy)benzene; phases: Glass, Liquid, Gas
Property: Triple point temperature, K (Glass); method: Adiabatic calorimetry
Triple point temperature, K	uncertainty
233.8	0.2

System: 1-(tert-butyl)-4-(4-nitrophenoxy)benzene; phases: Crystal, Liquid, Gas
Property: Molar enthalpy of transition or fusion, kJ/mol (Crystal); method: Adiabatic calorimetry
Molar enthalpy of transition or fusion, kJ/mol	uncertainty
20.09	0.17

System: 1-(tert-butyl)-4-(4-nitrophenoxy)benzene; phases: Crystal
Fixed: Pressure, kPa = 101.325
Property: Molar heat capacity at constant pressure, J/K/mol (Crystal); method: Small (less than 1 g) adiabatic calorimetry
Temperature, K	Molar heat capacity at constant pressure, J/K/mol	uncertainty
7.47	4.0990286814	0.1829181156
7.73	4.3567769352	0.1912325754
7.99	4.8057577644	0.207861495
8.25	4.9304746614	0.2161759548
8.5	5.3794554906	0.2328048744
8.76	5.6787760434	0.249433794
9	6.111127953	0.2660627136
9.25	6.5434798626	0.2826916332
9.5	6.7180835184	0.291006093
9.74	6.9342594732	0.2993205528
9.98	7.6160451768	0.3242639322
10.29	7.940309109	0.3408928518
10.67	8.647038192	0.374150691
11.05	9.2373648378	0.3907796106
11.43	9.9025216218	0.4240374498
11.82	10.7173386822	0.457295289
12.19	11.5487846622	0.4905531282
12.56	12.1474257678	0.5154965076
12.94	12.7044945744	0.5321254272
13.31	13.5691983936	0.5653832664
13.67	14.3258142354	0.5986411056
14.04	15.2071469742	0.6402134046
14.41	15.4898386074	0.6485278644
14.78	16.587347301	0.6901001634
15.14	17.377220982	0.7233580026
15.51	17.7347427534	0.7399869222
15.87	18.6160754922	0.7732447614
16.23	19.2978611958	0.7981881408
16.59	20.0129047386	0.83144598
16.95	20.5866024648	0.8563893594
17.31	21.2185014096	0.8813327388
17.67	21.9584883318	0.9062761182
18.02	23.1723994626	0.956162877
18.38	23.4717200154	0.9644773368
18.74	23.9207008446	0.9894207162
19.09	24.860234802	1.0226785554
19.44	25.525391586	1.0476219348
19.8	26.1406616112	1.0725653142
20.15	27.1633401666	0.457295289
20.82	28.3356789984	0.4739242086
21.6	29.765766084	0.4905531282
22.37	31.3205700666	0.5154965076
23.15	32.6841414738	0.5321254272
23.93	34.1973731574	0.5570688066
24.7	35.7854349792	0.5736977262
25.47	37.6146161352	0.5986411056
26.25	38.454376575	0.6069555654
27.02	40.2170420526	0.6318989448
27.78	41.322865206	0.6402134046
28.55	43.0439583846	0.665156784
29.31	44.4158442516	0.6817857036
30.07	45.7627867392	0.6901001634
30.84	47.5753389756	0.7150435428
31.6	48.7476778074	0.7233580026
32.37	49.720469604	0.7399869222
33.14	51.0840410112	0.7649303016
33.9	52.672102833	0.7815592212
34.66	54.0523031598	0.8065026006
35.42	55.2994721298	0.8231315202
36.18	57.1120243662	0.8480748996
36.94	57.8520112884	0.8563893594
37.7	58.9744633614	0.873018279
38.45	60.5957830224	0.8979616584
39.21	61.485430221	0.9062761182
39.97	62.8822594674	0.9312194976
40.73	64.3871766912	0.5986411056
41.49	65.8172637768	0.6069555654
42.25	66.474106101	0.6152700252
43.01	68.17857036	0.6318989448
43.76	69.2095633752	0.6402134046
44.52	70.631336001	0.6568423242
45.29	71.9117628102	0.665156784
46.05	72.6351208128	0.665156784
46.81	73.6079126094	0.6817857036
47.56	75.0213707754	0.6901001634
48.32	75.7364143182	0.6984146232
49.08	77.0417845068	0.706729083
49.84	77.5240231752	0.7150435428
50.59	79.0455693186	0.7233580026
51.35	79.2201729744	0.7233580026
52.11	79.8021851604	0.7316724624
52.86	81.647995236	0.748301382
53.62	82.4295544572	0.7566158418
54.38	83.394031794	0.748301382
55.13	84.308622372	0.748301382
55.89	84.80748996	0.748301382
56.64	85.140068352	0.748301382
57.4	86.304092724	0.83144598
58.15	87.800695488	0.83144598
58.9	88.13327388	0.83144598
59.65	89.463587448	0.83144598
60.41	89.79616584	0.83144598
61.16	91.126479408	0.83144598
61.91	92.373648378	0.83144598
62.66	92.456792976	0.83144598
63.41	94.036540338	0.83144598
64.16	94.867986318	0.83144598
64.91	94.78484172	0.83144598
65.66	96.115155288	0.914590578
66.41	96.115155288	0.914590578
67.16	97.944336444	0.914590578
67.91	97.944336444	0.914590578
68.65	99.440939208	0.914590578
69.4	100.272385188	0.914590578
70.15	102.766723128	0.914590578
71.05	102.933012324	0.914590578
72.11	103.847602902	0.914590578
73.17	104.928482676	0.914590578
74.23	106.175651646	0.997735176
75.29	108.420555792	0.997735176
76.35	108.753134184	0.997735176
77.41	110.083447752	0.997735176
78.47	111.995773506	0.997735176
79.53	113.49237627	0.997735176
80.58	114.656400642	0.665156784
81.64	116.153003406	0.665156784
82.7	116.81816019	0.665156784
83.75	117.483316974	0.665156784
79.3	112.162062702	0.665156784
80.1	112.827219486	0.665156784
80.9	113.824954662	0.665156784
81.71	114.656400642	0.665156784
82.51	115.404702024	0.665156784
83.31	116.485581798	0.665156784
84.11	117.317027778	0.665156784
84.92	118.06532916	0.665156784
85.72	119.063064336	0.665156784
86.52	119.977654914	0.665156784
87.32	120.809100894	0.665156784
88.13	121.723691472	0.665156784
88.93	122.721426648	0.748301382
89.73	123.636017226	0.748301382
90.54	124.633752402	0.665156784
91.34	125.54834298	0.748301382
92.15	126.546078156	0.748301382
92.95	127.294379538	0.748301382
93.75	128.125825518	0.748301382
94.56	129.206705292	0.748301382
95.36	130.12129587	0.748301382
96.17	131.035886448	0.748301382
96.97	132.033621624	0.748301382
97.77	132.865067604	0.748301382
98.58	133.779658182	0.748301382
99.38	134.611104162	0.748301382
100.19	135.52569474	0.748301382
100.99	136.440285318	0.748301382
101.79	137.271731298	0.748301382
102.59	138.269466474	0.748301382
103.4	139.184057052	0.748301382
104.2	140.09864763	0.748301382
105	141.179527404	0.748301382
105.8	141.927828786	0.748301382
106.6	142.842419364	0.83144598
107.4	143.673865344	0.83144598
108.21	144.505311324	0.83144598
109.01	145.5030465	0.83144598
109.81	146.251347882	0.83144598
110.61	147.16593846	0.83144598
111.42	148.080529038	0.83144598
112.22	148.995119616	0.83144598
113.02	149.743420998	0.83144598
113.82	150.574866978	0.83144598
114.63	151.572602154	0.83144598
115.43	152.57033733	0.83144598
116.23	153.235494114	0.83144598
117.04	154.316373888	0.83144598
117.84	155.147819868	0.83144598
118.64	155.979265848	0.83144598
119.45	156.810711828	0.83144598
120.25	157.891591602	0.83144598
121.06	158.556748386	0.83144598
121.86	159.63762816	0.914590578
122.66	160.302784944	0.914590578
123.47	161.217375522	0.914590578
124.27	162.1319661	0.914590578
125.07	162.96341208	0.914590578
125.87	163.79485806	0.914590578
126.68	164.709448638	0.914590578
127.48	165.540894618	0.914590578
128.28	166.538629794	0.914590578
129.09	167.453220372	0.914590578
129.89	168.201521754	0.914590578
130.69	169.032967734	0.914590578
131.49	170.03070291	0.914590578
132.3	170.86214889	0.914590578
133.1	171.69359487	0.914590578
133.9	172.774474644	0.914590578
134.71	173.605920624	0.914590578
135.51	174.437366604	0.914590578
136.31	175.102523388	0.914590578
137.11	176.017113966	0.914590578
137.92	176.848559946	0.997735176
138.72	177.92943972	0.997735176
139.52	178.677741102	0.997735176
140.32	179.426042484	0.997735176
141.12	180.257488464	0.997735176
141.93	181.338368238	0.997735176
142.72	181.920380424	0.997735176
143.53	182.834971002	0.997735176
144.33	183.832706178	0.997735176
145.13	184.747296756	0.997735176
145.93	185.661887334	0.997735176
146.73	186.493333314	0.997735176
147.54	187.324779294	0.997735176
148.34	188.156225274	0.997735176
149.14	188.904526656	0.997735176
149.94	189.819117234	0.997735176
150.74	190.567418616	0.997735176
151.54	191.482009194	0.997735176
152.35	192.313455174	0.997735176
153.15	193.228045752	0.997735176
153.95	194.14263633	1.080879774
154.75	194.807793114	1.080879774
155.55	195.888672888	1.080879774
156.35	196.720118868	1.080879774
157.15	197.46842025	1.080879774
157.95	198.133577034	1.080879774
158.75	199.214456808	1.080879774
159.55	200.212191984	1.080879774
160.35	201.126782562	1.080879774
161.15	202.124517738	1.080879774
161.95	202.706529924	1.080879774
162.75	203.621120502	1.080879774
163.55	204.369421884	1.080879774
164.35	205.616590854	1.080879774
165.15	206.531181432	1.080879774
165.95	207.362627412	1.080879774
166.75	208.110928794	1.080879774
167.55	209.10866397	1.080879774
168.34	210.106399146	1.080879774
169.14	210.438977538	1.080879774
169.94	211.436712714	1.164024372
170.73	212.933315478	1.164024372
171.53	213.099604674	1.164024372
172.33	214.014195252	1.164024372
173.12	214.762496634	1.164024372
173.92	215.677087212	1.164024372
174.72	216.59167779	1.164024372
175.51	218.005135956	1.164024372
176.31	218.337714348	1.164024372
177.11	219.252304926	1.164024372
177.91	219.834317112	1.164024372
178.7	220.3331847	1.164024372
179.5	221.497209072	1.164024372
180.3	222.328655052	1.164024372
181.08	223.575824022	1.164024372
181.88	224.407270002	1.164024372
182.67	224.989282188	1.164024372
183.47	225.820728168	1.164024372
184.26	226.735318746	1.164024372
185.06	227.566764726	1.164024372
185.85	228.481355304	1.24716897
186.65	229.146512088	1.24716897
187.44	230.476825656	1.24716897
188.22	231.308271636	1.24716897
189.02	232.139717616	1.24716897
189.81	233.303741988	1.24716897
190.6	233.968898772	1.24716897
191.39	234.634055556	1.24716897
192.19	235.382356938	1.24716897
192.98	236.296947516	1.24716897
193.75	236.9621043	1.24716897
194.54	237.79355028	1.24716897
195.33	238.541851662	1.24716897
196.12	239.45644224	1.24716897
196.91	240.620466612	1.24716897
197.7	241.285623396	1.24716897
198.49	242.117069376	1.24716897
199.28	243.031659954	1.24716897
200.07	244.02939513	1.24716897
201.06	245.2765641	1.330313568
202.26	246.856311462	1.330313568
203.46	247.937191236	1.330313568
204.66	249.184360206	1.330313568
205.86	250.847252166	1.330313568
207.05	252.260710332	1.330313568
208.26	253.258445508	1.330313568
209.45	254.42246988	1.330313568
210.65	255.66963885	1.330313568
211.85	256.999952418	1.330313568
213.05	258.496555182	1.330313568
214.26	259.910013348	1.330313568
215.46	261.07403772	1.330313568
216.66	262.404351288	1.413458166
217.87	263.651520258	1.413458166
219.07	265.563846012	1.413458166
220.27	266.395291992	1.413458166
221.47	268.058183952	1.413458166
222.68	269.471642118	1.413458166
223.88	270.801955686	1.413458166
225.09	272.132269254	1.413458166
226.29	273.379438224	1.413458166
227.5	274.876040988	1.413458166
228.7	276.372643752	1.413458166
229.91	277.70295732	1.413458166
231.12	278.700692496	1.413458166
232.32	280.031006064	1.496602764
233.53	281.777042622	1.496602764
234.74	283.356789984	1.496602764
235.95	284.687103552	1.496602764
237.15	286.765718502	1.496602764
238.37	287.514019884	1.496602764
239.58	289.093767246	1.496602764
240.79	290.507225412	1.496602764
242	291.504960588	1.496602764
243.21	292.835274156	1.496602764
244.43	294.581310714	1.496602764
245.64	295.99476888	1.496602764
246.85	297.24193785	1.579747362
248.06	298.572251418	1.579747362
249.28	300.068854182	1.579747362
250.5	301.731746142	1.579747362
251.71	302.729481318	1.579747362
252.92	304.392373278	1.579747362
254.14	305.888976042	1.579747362
255.35	307.718157198	1.579747362
256.57	309.048470766	1.579747362
257.78	310.54507353	1.579747362
259	311.958531696	1.579747362
260.22	313.45513446	1.66289196
261.44	315.11802642	1.66289196
262.65	316.282050792	1.66289196
263.87	317.61236436	1.66289196
265.09	319.108967124	1.66289196
266.31	320.52242529	1.66289196
267.53	322.933618632	1.66289196
268.76	323.515630818	1.66289196
269.98	324.596510592	1.66289196
271.2	326.675125542	1.66289196
272.42	327.922294512	1.66289196
273.64	329.917764864	1.66289196
274.86	331.081789236	1.746036558
276.09	332.578392	1.746036558
277.31	333.991850166	1.746036558
278.53	335.405308332	1.746036558
279.76	336.818766498	1.746036558
280.98	337.98279087	1.746036558
282.21	338.980526046	1.746036558
283.43	341.059140996	1.746036558
284.66	342.55574376	1.746036558
285.89	344.135491122	1.746036558
287.11	345.216370896	1.746036558
288.31	347.045552052	1.746036558
289.54	348.37586562	1.829181156
290.77	349.955612982	1.829181156
291.99	351.202781952	1.829181156
293.22	353.198252304	1.829181156
294.45	354.445421274	1.829181156
295.68	355.942024038	1.829181156
296.91	357.688060596	1.829181156
298.15	359.018374164	1.829181156
299.38	360.348687732	1.829181156
300.82	363.009314868	1.829181156
302.44	364.838496024	1.912325754
304.06	367.748556954	1.912325754
305.69	370.076605698	1.912325754
307.33	372.48779904	1.912325754
308.97	374.649558588	1.912325754
310.62	377.227041126	1.912325754
312.28	379.97081286	1.912325754
313.94	385.624645524	1.995470352
315.6	386.705525298	1.995470352
317.26	392.775080952	1.995470352
318.94	397.181744646	1.995470352
320.63	403.085011104	2.07861495
322.32	412.147772286	2.07861495
324.01	420.794810478	2.161759548
325.71	441.664104576	2.328048744
327.44	477.915149304	2.577482538

System: 1-(tert-butyl)-4-(4-nitrophenoxy)benzene; phases: Metastable liquid
Fixed: Pressure, kPa = 101.325
Property: Molar heat capacity at constant pressure, J/K/mol (Metastable liquid); method: Small (less than 1 g) adiabatic calorimetry
Temperature, K	Molar heat capacity at constant pressure, J/K/mol	uncertainty
340.68	450.394287366	2.328048744
344.79	449.978564376	2.328048744
346.59	452.639191512	2.328048744
348.4	452.389757718	2.328048744
350.22	454.884095658	2.328048744
352.05	456.214409226	2.328048744
353.89	457.045855206	2.328048744
355.75	456.962710608	2.328048744
357.6	459.207614754	2.328048744
359.66	460.704217518	2.328048744
361.55	460.20534993	2.328048744
363.45	461.618808096	2.328048744
365.36	462.28396488	2.328048744
367.28	462.865977066	2.328048744
369.21	463.94685684	2.328048744
371.16	464.861447418	2.328048744
234.33	313.122556068	1.66289196
235.47	327.506571522	1.995470352
236.57	370.076605698	2.07861495
237.72	379.13936688	1.912325754
238.92	380.053957458	1.912325754
240.13	380.220246654	1.912325754
241.35	381.301126428	1.912325754
242.56	382.298861604	1.995470352
243.77	383.462885976	1.995470352
244.99	384.211187358	1.995470352

System: 1-(tert-butyl)-4-(4-nitrophenoxy)benzene; phases: Glass
Fixed: Pressure, kPa = 101.325
Property: Molar heat capacity at constant pressure, J/K/mol (Glass); method: Small (less than 1 g) adiabatic calorimetry
Temperature, K	Molar heat capacity at constant pressure, J/K/mol	uncertainty
79.87	115.903569612	1.080879774
80.67	116.651870994	0.665156784
81.47	117.400172376	0.665156784
82.27	118.314762954	0.665156784
83.08	119.229353532	0.665156784
83.88	120.060799512	0.665156784
84.68	120.97539009	0.665156784
85.48	121.973125266	0.665156784
86.29	122.887715844	0.748301382
87.09	123.802306422	0.748301382
87.89	124.550607804	0.748301382
88.7	125.631487578	0.748301382
89.5	126.546078156	0.748301382
90.3	127.294379538	0.748301382
91.1	128.375259312	0.748301382
91.91	129.28984989	0.748301382
92.71	130.12129587	0.748301382
93.52	131.119031046	0.748301382
94.32	132.033621624	0.748301382
95.13	132.865067604	0.748301382
95.93	133.696513584	0.748301382
96.73	134.69424876	0.748301382
97.54	135.442550142	0.748301382
98.34	136.440285318	0.748301382
99.14	137.354875896	0.748301382
99.95	138.352611072	0.748301382
100.75	139.433490846	0.748301382
101.55	140.181792228	0.748301382
102.35	141.013238208	0.748301382
103.16	142.010973384	0.748301382
103.96	142.759274766	0.83144598
104.76	143.673865344	0.83144598
105.56	144.67160052	0.83144598
106.36	145.419901902	0.83144598
107.16	146.168203284	0.83144598
107.96	147.249083058	0.83144598
108.77	148.246818234	0.83144598
109.57	148.995119616	0.83144598
110.37	149.826565596	0.83144598
111.17	150.741156174	0.83144598
111.97	151.655746752	0.83144598
112.78	152.736626526	0.83144598
113.58	153.568072506	0.83144598
114.38	154.316373888	0.83144598
115.18	155.230964466	0.83144598
115.99	156.228699642	0.83144598
116.79	156.893856426	0.83144598
117.59	157.808447004	0.83144598
118.4	158.723037582	0.83144598
119.2	159.803917356	0.914590578
120	160.635363336	0.914590578
120.81	161.466809316	0.914590578
121.61	162.215110698	0.914590578
122.41	163.129701276	0.914590578
123.21	164.21058105	0.914590578
124.02	164.875737834	0.914590578
124.82	165.956617608	0.914590578
125.62	166.538629794	0.914590578
126.42	167.370075774	0.914590578
127.23	168.201521754	0.914590578
128.03	169.19925693	0.914590578
128.83	170.03070291	0.914590578
129.63	170.945293488	0.914590578
130.43	171.943028664	0.914590578
131.24	172.52504085	0.914590578
132.04	173.273342232	0.914590578
132.84	174.354222006	0.914590578
133.64	175.185667986	0.914590578
134.44	176.017113966	0.914590578
135.25	176.931704544	0.997735176
136.05	177.846295122	0.997735176
136.85	178.7608857	0.997735176
137.65	179.758620876	0.997735176
138.45	180.673211454	0.997735176
139.25	181.504657434	0.997735176
140.06	182.419248012	0.997735176
140.86	183.250693992	0.997735176
141.66	183.998995374	0.997735176
142.46	184.830441354	0.997735176
143.25	185.82817653	0.997735176
144.06	186.65962251	0.997735176
144.86	187.574213088	0.997735176
145.66	188.405659068	0.997735176
146.46	189.320249646	0.997735176
147.26	190.151695626	0.997735176
148.06	190.81685241	0.997735176
148.86	191.64829839	0.997735176
149.66	192.646033566	0.997735176
150.46	193.560624144	0.997735176
151.26	194.308925526	1.080879774
152.06	195.140371506	1.080879774
152.86	195.971817486	1.080879774
153.66	196.886408064	1.080879774
154.46	197.88414324	1.080879774
155.26	198.632444622	1.080879774
156.06	199.630179798	1.080879774
156.86	200.37848118	1.080879774
157.66	201.20992716	1.080879774
158.46	201.958228542	1.080879774
159.26	202.87281912	1.080879774
160.06	203.787409698	1.080879774
160.85	204.702000276	1.080879774
162.45	206.697470628	1.080879774
163.25	207.279482814	1.080879774
164.04	208.360362588	1.080879774
164.84	209.10866397	1.080879774
165.64	209.94010995	1.080879774
166.44	210.522122136	1.080879774
167.23	211.353568116	1.164024372
168.03	212.351303292	1.164024372
168.81	213.349038468	1.164024372
169.61	214.180484448	1.164024372
170.41	214.92878583	1.164024372
171.2	216.1759548	1.164024372
172	217.00740078	1.164024372
172.79	217.672557564	1.164024372
173.59	218.420858946	1.164024372
174.38	219.584883318	1.164024372
175.18	220.250040102	1.164024372
175.97	221.247775278	1.164024372
176.77	221.829787464	1.164024372
177.56	222.494944248	1.164024372
178.36	223.492679424	1.164024372
179.15	224.324125404	1.164024372
179.94	224.989282188	1.164024372
180.74	225.73758357	1.164024372
181.52	226.98475254	1.164024372
183.09	227.733053922	1.164024372
183.89	229.728524274	1.24716897
184.68	230.393681058	1.24716897
185.47	231.55770543	1.24716897
186.26	232.139717616	1.24716897
187.05	232.971163596	1.24716897
187.84	233.968898772	1.24716897
188.63	234.634055556	1.24716897
189.42	235.465501536	1.24716897
190.21	236.463236712	1.24716897
190.99	237.294682692	1.24716897
191.78	237.876694878	1.24716897
192.57	238.874430054	1.24716897
193.36	239.789020632	1.24716897
194.13	240.953045004	1.24716897
194.91	241.451912592	1.24716897
195.7	241.95078018	1.24716897
196.49	243.19794915	1.24716897
197.27	243.946250532	1.24716897
198.06	245.110274904	1.330313568
198.84	245.941720884	1.330313568
199.63	246.690022266	1.330313568
200.62	248.020335834	1.330313568
203	251.262975156	1.330313568
204.2	252.177565734	1.330313568
205.4	253.424734704	1.330313568
206.6	254.755048272	1.330313568
207.79	256.08536184	1.330313568
208.99	257.498820006	1.330313568
210.18	258.745988976	1.330313568
211.38	260.076302544	1.330313568
212.58	261.240326916	1.330313568
213.78	262.570640484	1.413458166
214.99	263.98409865	1.413458166
216.19	265.397556816	1.413458166
217.4	266.561581188	1.413458166
218.61	267.891894756	1.413458166
221.02	272.132269254	1.413458166
222.24	272.71428144	1.413458166
223.45	273.712016616	1.413458166
224.67	275.458053174	1.413458166
225.88	277.370378928	1.413458166
227.1	279.448993878	1.496602764
228.32	281.527608828	1.496602764
229.54	283.606223778	1.496602764
230.75	286.516284708	1.496602764
231.96	291.089237598	1.496602764
233.16	296.82621486	1.579747362

System: 1-(tert-butyl)-4-(4-nitrophenoxy)benzene; phases: Crystal
Fixed: Pressure, kPa = 101.325
Property: Molar heat capacity at constant pressure, J/K/mol (Crystal); method: Small (less than 1 g) adiabatic calorimetry
Temperature, K	Molar heat capacity at constant pressure, J/K/mol	uncertainty
5	1.3552569474	0.1413458166
10	7.48301382	0.332578392
15	16.878353394	0.665156784
20	26.689415958	0.41572299
25	36.334189326	0.582012186
30	45.7295289	0.748301382
35	54.542856288	0.914590578
40	63.106749882	0.914590578
45	71.171775888	0.582012186
50	77.906488326	0.748301382
60	89.546732046	0.748301382
70	101.186975766	0.914590578
80	113.159797878	0.83144598
90	123.802306422	0.665156784
100	135.52569474	0.748301382
110	146.417637078	0.83144598
120	157.309579416	0.914590578
130	168.201521754	0.914590578
140	179.010319494	0.914590578
150	189.819117234	0.914590578
160	200.627914974	1.080879774
170	211.436712714	1.080879774
180	222.328655052	1.164024372
190	233.22059739	1.24716897
200	244.278828924	1.330313568
210	255.337060458	1.330313568
220	266.47843659	1.330313568
230	277.786101918	1.496602764
240	289.260056442	1.496602764
250	300.900300162	1.496602764
260	312.62368848	1.66289196
270	324.596510592	1.66289196
280	336.818766498	1.746036558
290	349.2073116	1.746036558
298.15	359.517241752	1.912325754
300	361.845290496	1.912325754
310	376.395595146	1.912325754
320	390.447032208	1.912325754
330	404.49846927	2.07861495
334.8	411.233181708	2.07861495

System: 1-(tert-butyl)-4-(4-nitrophenoxy)benzene; phases: Crystal
Fixed: Pressure, kPa = 101.325
Property: Molar enthalpy function {Hm(T)-Hm(0)}/T, J/K/mol (Crystal); method: Small (less than 1 g) adiabatic calorimetry
Temperature, K	Molar enthalpy function {Hm(T)-Hm(0)}/T, J/K/mol	uncertainty
5	0.35419598748	0.04074085302
10	2.2698475254	0.2411193342
15	5.5374302268	0.166289196
20	9.644773368	0.166289196
25	13.968292464	0.249433794
30	18.541245354	0.332578392
35	23.031053646	0.332578392
40	27.520861938	0.498867588
45	31.927525632	0.498867588
50	36.16790013	0.665156784
60	44.149781538	0.665156784
70	51.466506162	0.748301382
80	58.367507796	0.914590578
90	65.019075636	0.914590578
100	71.50435428	1.080879774
110	77.823343728	1.080879774
120	83.97604398	1.080879774
130	90.128744232	1.080879774
140	96.03201069	1.24716897
150	101.935277148	1.24716897
160	107.755399008	1.24716897
170	113.49237627	1.24716897
180	119.229353532	1.24716897
190	124.966330794	1.413458166
200	130.703308056	1.413458166
210	136.35714072	1.413458166
220	142.010973384	1.413458166
230	147.664806048	1.579747362
240	153.40178331	1.579747362
250	159.055615974	1.579747362
260	164.709448638	1.579747362
270	170.4464259	1.746036558
280	176.183403162	1.746036558
290	181.920380424	1.829181156
298.15	186.65962251	1.829181156
300	187.740502284	1.829181156
310	193.560624144	1.829181156
320	199.463890602	1.829181156
330	205.450301658	1.829181156
334.8	208.443507186	1.829181156

System: 1-(tert-butyl)-4-(4-nitrophenoxy)benzene; phases: Crystal
Fixed: Pressure, kPa = 101.325
Property: Molar entropy, J/K/mol (Crystal); method: Small (less than 1 g) adiabatic calorimetry
Temperature, K	Molar entropy, J/K/mol	uncertainty
5	0.46394685684	0.083144598
10	3.1096079652	0.5071820478
15	7.8821078904	0.7649303016
20	14.051437062	1.496602764
25	21.035583294	0.83144598
30	28.518597114	0.997735176
35	36.251044728	1.24716897
40	44.06663694	1.746036558
45	51.96537375	1.579747362
50	59.86411056	1.829181156
60	75.079571994	2.328048744
70	89.79616584	2.826916332
80	104.097036696	3.32578392
90	117.982184562	1.912325754
100	131.701043232	2.161759548
110	145.08732351	2.411193342
120	158.307314592	2.411193342
130	171.361016478	2.660627136
140	184.16528457	2.91006093
150	196.886408064	3.159494724
160	209.52438696	3.408928518
170	221.99607666	3.408928518
180	234.384621762	3.658362312
190	246.690022266	3.907796106
200	258.99542277	3.990940704
210	271.134534078	4.240374498
220	283.273645386	4.489808292
230	295.329612096	4.739242086
240	307.468723404	4.98867588
250	319.441545516	4.98867588
260	331.497512226	5.238109674
270	343.553478936	5.238109674
280	355.526301048	5.487543468
290	367.582267758	5.736977262
298.15	377.393330322	5.82012186
300	379.638234468	5.986411056
310	391.777345776	6.23584485
320	403.916457084	6.318989448
330	416.13871299	6.568423242
334.8	422.041979448	6.568423242

System: 1-(tert-butyl)-4-(4-nitrophenoxy)benzene; phases: Liquid
Fixed: Pressure, kPa = 101.325
Property: Molar heat capacity at constant pressure, J/K/mol (Liquid); method: Small (less than 1 g) adiabatic calorimetry
Temperature, K	Molar heat capacity at constant pressure, J/K/mol	uncertainty
334.8	446.569635858	2.161759548
340	449.230262994	2.161759548
350	454.38522807	2.161759548
360	459.540193146	2.161759548
370	464.695158222	2.244904146

System: 1-(tert-butyl)-4-(4-nitrophenoxy)benzene; phases: Liquid
Fixed: Pressure, kPa = 101.325
Property: Molar enthalpy function {Hm(T)-Hm(0)}/T, J/K/mol (Liquid); method: Small (less than 1 g) adiabatic calorimetry
Temperature, K	Molar enthalpy function {Hm(T)-Hm(0)}/T, J/K/mol	uncertainty
334.8	268.473906942	2.660627136
340	271.134534078	2.826916332
350	276.289499154	2.993205528
360	281.278175034	2.993205528
370	286.183706316	2.993205528

System: 1-(tert-butyl)-4-(4-nitrophenoxy)benzene; phases: Liquid
Fixed: Pressure, kPa = 101.325
Property: Molar entropy, J/K/mol (Liquid); method: Small (less than 1 g) adiabatic calorimetry
Temperature, K	Molar entropy, J/K/mol	uncertainty
334.8	482.072379204	7.316724624
340	488.973380838	7.566158418
350	502.027082724	7.815592212
360	514.914495414	8.065026006
370	527.55247431	8.3144598
