Measured thermophysical data. Measurement and calculation of solid liquid equilibrium for ternary systems of 3,4-dichloronitrobenzene + 2,3-dichloronitrobenzene + ethanol/n-propanol
Source: J. Chem. Thermodyn., 2016, 10.1016/j.jct.2016.03.024
Compound 1: 3,4-dichloro-1-nitrobenzene, C6H3Cl2NO2, InChI=1S/C6H3Cl2NO2/c7-5-2-1-4(9(10)11)3-6(5)8/h1-3H, purity 99.7%
Compound 2: 1,2-dichloro-3-nitrobenzene, C6H3Cl2NO2, InChI=1S/C6H3Cl2NO2/c7-4-2-1-3-5(6(4)8)9(10)11/h1-3H, purity 99.6%
Compound 3: ethanol, C2H6O, InChI=1S/C2H6O/c1-2-3/h3H,2H2,1H3, purity 99.5%
Compound 4: propan-1-ol, C3H8O, InChI=1S/C3H8O/c1-2-3-4/h4H,2-3H2,1H3, purity 99.4%

System: ethanol + 3,4-dichloro-1-nitrobenzene + 1,2-dichloro-3-nitrobenzene; phases: Liquid, Crystal
Fixed: Pressure, kPa = 101.2
Property: Mass fraction of 1,2-dichloro-3-nitrobenzene (Liquid); method: Chromatography
Temperature, K	Mass fraction of 3,4-dichloro-1-nitrobenzene	Mass fraction of 1,2-dichloro-3-nitrobenzene	uncertainty
283.15	0.0226	0.0667	0.0027
283.15	0.0493	0.0674	0.0027
283.15	0.0675	0.0677	0.0027
283.15	0.0866	0.0682	0.0027
283.15	0.113	0.0686	0.0028
283.15	0.1332	0.0694	0.0028
293.15	0.0296	0.1089	0.0044
293.15	0.0519	0.1097	0.0044
293.15	0.0809	0.1091	0.0044
293.15	0.1097	0.1094	0.0044
293.15	0.1396	0.1097	0.0044
293.15	0.1601	0.1123	0.0045
293.15	0.1852	0.1105	0.0044
293.15	0.2158	0.1114	0.0045
293.15	0.2592	0.1118	0.0045
303.15	0.0293	0.165	0.0066
303.15	0.0708	0.1636	0.0066
303.15	0.102	0.1622	0.0065
303.15	0.1382	0.1618	0.0065
303.15	0.1751	0.1607	0.0064
303.15	0.2255	0.1601	0.0064
303.15	0.2718	0.1586	0.0064
303.15	0.3454	0.1573	0.0063

System: ethanol + 3,4-dichloro-1-nitrobenzene + 1,2-dichloro-3-nitrobenzene; phases: Liquid, Crystal
Fixed: Pressure, kPa = 101.2
Property: Mass fraction of 1,2-dichloro-3-nitrobenzene (Liquid); method: Chromatography
Temperature, K	Mass fraction of 3,4-dichloro-1-nitrobenzene	Mass fraction of 1,2-dichloro-3-nitrobenzene	uncertainty
283.15	0.1332	0.0694	0.0028
283.15	0.1298	0.0465	0.0019
283.15	0.1305	0.0313	0.0013
283.15	0.1316	0.0171	0.0007
293.15	0.2592	0.1118	0.0045
293.15	0.2573	0.0795	0.0032
293.15	0.2572	0.0556	0.0022
293.15	0.2577	0.0376	0.0015
293.15	0.258	0.0161	0.0006
303.15	0.3454	0.1573	0.0063
303.15	0.3507	0.1084	0.0043
303.15	0.3513	0.0751	0.003
303.15	0.3536	0.0542	0.0022
303.15	0.3544	0.0303	0.0012
303.15	0.3575	0.0135	0.0005

System: ethanol + 3,4-dichloro-1-nitrobenzene + 1,2-dichloro-3-nitrobenzene; phases: Liquid, Crystal, Crystal
Fixed: Pressure, kPa = 101.2
Property: Mass fraction of 3,4-dichloro-1-nitrobenzene (Liquid); method: Chromatography
Temperature, K	Mass fraction of 3,4-dichloro-1-nitrobenzene	uncertainty
283.15	0.1332	0.0054
293.15	0.2592	0.0104
303.15	0.3454	0.0138

System: ethanol + 3,4-dichloro-1-nitrobenzene + 1,2-dichloro-3-nitrobenzene; phases: Liquid, Crystal, Crystal
Fixed: Pressure, kPa = 101.2
Property: Mass fraction of 1,2-dichloro-3-nitrobenzene (Liquid); method: Chromatography
Temperature, K	Mass fraction of 1,2-dichloro-3-nitrobenzene	uncertainty
283.15	0.0694	0.0028
293.15	0.1118	0.0045
303.15	0.1573	0.0063

System: propan-1-ol + 3,4-dichloro-1-nitrobenzene + 1,2-dichloro-3-nitrobenzene; phases: Liquid, Crystal
Fixed: Pressure, kPa = 101.2
Property: Mass fraction of 1,2-dichloro-3-nitrobenzene (Liquid); method: Chromatography
Temperature, K	Mass fraction of 3,4-dichloro-1-nitrobenzene	Mass fraction of 1,2-dichloro-3-nitrobenzene	uncertainty
278.15	0.0159	0.065	0.0026
278.15	0.038	0.0645	0.0026
278.15	0.0514	0.0642	0.0026
278.15	0.0732	0.0641	0.0026
278.15	0.0911	0.0638	0.0026
278.15	0.1152	0.0634	0.0025
278.15	0.1387	0.0633	0.0025
283.15	0.0147	0.0808	0.0032
283.15	0.0255	0.0784	0.0032
283.15	0.04	0.0773	0.0031
283.15	0.0578	0.0772	0.0031
283.15	0.0731	0.0768	0.0031
283.15	0.0917	0.077	0.0031
283.15	0.1136	0.0763	0.0031
283.15	0.1335	0.076	0.003
283.15	0.154	0.0757	0.003
293.15	0.0234	0.1169	0.0047
293.15	0.0506	0.1185	0.0048
293.15	0.0727	0.1196	0.0048
293.15	0.1119	0.1231	0.005
293.15	0.1255	0.1242	0.005
293.15	0.1532	0.1253	0.005
293.15	0.1846	0.1266	0.0051
293.15	0.214	0.1288	0.0054
293.15	0.2247	0.1343	0.0071

System: propan-1-ol + 3,4-dichloro-1-nitrobenzene + 1,2-dichloro-3-nitrobenzene; phases: Liquid, Crystal
Fixed: Pressure, kPa = 101.2
Property: Mass fraction of 1,2-dichloro-3-nitrobenzene (Liquid); method: Chromatography
Temperature, K	Mass fraction of 3,4-dichloro-1-nitrobenzene	Mass fraction of 1,2-dichloro-3-nitrobenzene	uncertainty
278.15	0.1387	0.0633	0.0025
278.15	0.1359	0.0565	0.0023
278.15	0.1374	0.0332	0.0013
278.15	0.1381	0.0201	0.0008
283.15	0.154	0.0757	0.003
283.15	0.1532	0.0609	0.0024
283.15	0.1526	0.0366	0.0015
283.15	0.1529	0.0173	0.0007
293.15	0.2247	0.1343	0.0054
293.15	0.2242	0.1101	0.0044
293.15	0.2237	0.0773	0.0031
293.15	0.2235	0.048	0.0019
293.15	0.2226	0.0274	0.0011

System: propan-1-ol + 3,4-dichloro-1-nitrobenzene + 1,2-dichloro-3-nitrobenzene; phases: Liquid, Crystal, Crystal
Fixed: Pressure, kPa = 101.2
Property: Mass fraction of 3,4-dichloro-1-nitrobenzene (Liquid); method: Chromatography
Temperature, K	Mass fraction of 3,4-dichloro-1-nitrobenzene	uncertainty
278.15	0.1387	0.0056
283.15	0.154	0.0062
293.15	0.2247	0.009

System: propan-1-ol + 3,4-dichloro-1-nitrobenzene + 1,2-dichloro-3-nitrobenzene; phases: Liquid, Crystal, Crystal
Fixed: Pressure, kPa = 101.2
Property: Mass fraction of 1,2-dichloro-3-nitrobenzene (Liquid); method: Chromatography
Temperature, K	Mass fraction of 1,2-dichloro-3-nitrobenzene	uncertainty
278.15	0.0633	0.0025
283.15	0.0757	0.003
293.15	0.1343	0.0054
