Measured thermophysical data. Thermodynamic investigation of N,N-dimethylformamide/toluene binary mixtures in the temperature range from 278.15 to 293.15 K
Source: J. Chem. Thermodyn., 2006, 10.1016/j.jct.2005.10.008
Compound 1: dimethylformamide, C3H7NO, InChI=1S/C3H7NO/c1-4(2)3-5/h3H,1-2H3, purity 99.8%
Compound 2: toluene, C7H8, InChI=1S/C7H8/c1-7-5-3-2-4-6-7/h2-6H,1H3, purity 99.8%

System: dimethylformamide; phases: Liquid, Gas
Property: Surface tension liquid-gas, N/m (Liquid); method: RINGTE::UFactor:2
Temperature, K	Surface tension liquid-gas, N/m	uncertainty
278.15	0.0381	0.001
283.15	0.0375	0.001
293.15	0.0363	0.001

System: dimethylformamide; phases: Liquid
Fixed: Pressure, kPa = 101
Property: Viscosity, Pa*s (Liquid); method: CAPTUB::UFactor:8
Temperature, K	Viscosity, Pa*s	uncertainty
278.15	0.000984	4.9e-05
283.15	0.000941	4.7e-05
293.15	0.000854	4.3e-05

System: dimethylformamide; phases: Liquid
Fixed: Pressure, kPa = 101
Property: Mass density, kg/m3 (Liquid); method: VIBTUB::UFactor:8
Temperature, K	Mass density, kg/m3	uncertainty
278.15	962.9	0.38
283.15	958.2	0.39
293.15	949	0.42

System: toluene; phases: Liquid, Gas
Property: Surface tension liquid-gas, N/m (Liquid); method: RINGTE::UFactor:2
Temperature, K	Surface tension liquid-gas, N/m	uncertainty
278.15	0.0301	0.0009
283.15	0.0295	0.0008
293.15	0.0284	0.0008

System: toluene; phases: Liquid
Fixed: Pressure, kPa = 101
Property: Viscosity, Pa*s (Liquid); method: CAPTUB:UFactor:8
Temperature, K	Viscosity, Pa*s	uncertainty
278.15	0.000665	3.5e-05
283.15	0.000637	3.4e-05
293.15	0.000578	3.1e-05

System: toluene; phases: Liquid
Fixed: Pressure, kPa = 101
Property: Mass density, kg/m3 (Liquid); method: VIBTUB::UFactor:8
Temperature, K	Mass density, kg/m3	uncertainty
278.15	880.58	0.63
283.15	876.1	0.64
293.15	867.1	0.67

System: dimethylformamide + toluene; phases: Liquid, Gas
Property: Surface tension liquid-gas, N/m (Liquid); method: RINGTE:UFactor:2
Temperature, K	Mole fraction of dimethylformamide	Surface tension liquid-gas, N/m	uncertainty
278.15	0	0.0301	0.0009
278.15	0.0501	0.0303	0.0009
278.15	0.1001	0.0305	0.0009
278.15	0.22	0.0311	0.0009
278.15	0.3122	0.0316	0.0009
278.15	0.4002	0.0322	0.0009
278.15	0.5002	0.0329	0.0009
278.15	0.6111	0.0339	0.0009
278.15	0.7003	0.0347	0.001
278.15	0.8122	0.0359	0.001
278.15	0.9002	0.0369	0.001
278.15	1	0.0381	0.001
283.15	0	0.0295	0.0008
283.15	0.0501	0.0297	0.0008
283.15	0.1001	0.0299	0.0009
283.15	0.22	0.0305	0.0009
283.15	0.3122	0.031	0.0009
283.15	0.4002	0.0316	0.0009
283.15	0.5002	0.0324	0.0009
283.15	0.6111	0.0333	0.0009
283.15	0.7003	0.0341	0.0009
283.15	0.8122	0.0353	0.001
283.15	0.9002	0.0363	0.001
283.15	1	0.0375	0.001
293.15	0	0.0284	0.0008
293.15	0.0501	0.0286	0.0008
293.15	0.1001	0.0288	0.0008
293.15	0.22	0.0294	0.0008
293.15	0.3122	0.0299	0.0009
293.15	0.4002	0.0305	0.0009
293.15	0.5002	0.0312	0.0009
293.15	0.6111	0.0322	0.0009
293.15	0.7003	0.033	0.0009
293.15	0.8122	0.0341	0.0009
293.15	0.9002	0.0351	0.001
293.15	1	0.0363	0.001

System: dimethylformamide + toluene; phases: Liquid
Fixed: Pressure, kPa = 101
Property: Viscosity, Pa*s (Liquid); method: CAPTUB:UFactor:8
Temperature, K	Mole fraction of dimethylformamide	Viscosity, Pa*s	uncertainty
278.15	0	0.000665	3.5e-05
278.15	0.0501	0.000684	3.6e-05
278.15	0.1001	0.000701	3.6e-05
278.15	0.22	0.000741	3.8e-05
278.15	0.3122	0.000772	4e-05
278.15	0.4002	0.000801	4.1e-05
278.15	0.5002	0.000833	4.2e-05
278.15	0.6111	0.000868	4.4e-05
278.15	0.7003	0.000895	4.5e-05
278.15	0.8122	0.000929	4.6e-05
278.15	0.9002	0.000955	4.7e-05
278.15	1	0.000984	4.9e-05
283.15	0	0.000637	3.4e-05
283.15	0.0501	0.000653	3.4e-05
283.15	0.1001	0.00067	3.5e-05
283.15	0.22	0.000708	3.7e-05
283.15	0.3122	0.000737	3.8e-05
283.15	0.4002	0.000765	3.9e-05
283.15	0.5002	0.000796	4.1e-05
283.15	0.6111	0.000829	4.2e-05
283.15	0.7003	0.000855	4.3e-05
283.15	0.8122	0.000888	4.5e-05
283.15	0.9002	0.000913	4.6e-05
283.15	1	0.000941	4.7e-05
293.15	0	0.000578	3.1e-05
293.15	0.0501	0.000592	3.2e-05
293.15	0.1001	0.000607	3.2e-05
293.15	0.22	0.000641	3.4e-05
293.15	0.3122	0.000668	3.5e-05
293.15	0.4002	0.000693	3.6e-05
293.15	0.5002	0.000721	3.7e-05
293.15	0.6111	0.000751	3.9e-05
293.15	0.7003	0.000775	4e-05
293.15	0.8122	0.000805	4.1e-05
293.15	0.9002	0.000828	4.2e-05
293.15	1	0.000854	4.3e-05

System: dimethylformamide + toluene; phases: Liquid
Fixed: Pressure, kPa = 101
Property: Mass density, kg/m3 (Liquid); method: VIBTUB:UFactor:8
Mole fraction of dimethylformamide	Temperature, K	Mass density, kg/m3	uncertainty
0	278.15	880.58	0.63
0	283.15	876.1	0.64
0	293.15	867.1	0.67
0.0501	278.15	884.2	0.62
0.0501	283.15	879.71	0.63
0.0501	293.15	870.71	0.66
0.1001	278.15	887.9	0.61
0.1001	283.15	883.37	0.62
0.1001	293.15	874.37	0.65
0.22	278.15	897.02	0.58
0.22	283.15	892.36	0.59
0.22	293.15	883.35	0.62
0.3122	278.15	904	0.56
0.3122	283.15	899.48	0.57
0.3122	293.15	890.46	0.6
0.4002	278.15	911	0.54
0.4002	283.15	906.44	0.55
0.4002	293.15	897.4	0.58
0.5002	278.15	919.1	0.51
0.5002	283.15	914.54	0.53
0.5002	293.15	905.49	0.55
0.6111	278.15	928.41	0.48
0.6111	283.15	923.78	0.5
0.6111	293.15	914.7	0.52
0.7003	278.15	936	0.46
0.7003	283.15	931.39	0.47
0.7003	293.15	922.29	0.5
0.8122	278.15	945.79	0.43
0.8122	283.15	941.18	0.44
0.8122	293.15	932.05	0.47
0.9002	278.15	953.71	0.4
0.9002	283.15	949.06	0.42
0.9002	293.15	939.9	0.45
1	278.15	962.9	0.38
1	283.15	958.2	0.39
1	293.15	949	0.42
