Measured thermophysical data. Thermal-alteration interphase transformations in natural and synthetic arsenic sulfide polymorphs
Source: J. Chem. Thermodyn., 2019, 10.1016/j.jct.2018.08.019
Compound 1: arsenic(III) sulfide, As2S3, InChI=1S/2As.3S/q2*+3;3*-2, purity 99%
Compound 2: arsenic monosulfide, AsS, InChI=1S/AsS/c1-2, purity 99%

System: arsenic(III) sulfide; phases: Crystal
Property: Mass density, kg/m3 (Crystal); method: X-ray diffraction
Temperature, K	Pressure, kPa	Mass density, kg/m3	uncertainty
298	101.325	3509	5

System: arsenic(III) sulfide; phases: Crystal 1, Liquid, Air at 1 atmosphere
Property: Triple point temperature, K (Crystal 1); method: DSC:UFactor:2
Triple point temperature, K	uncertainty
598.51	2

System: arsenic(III) sulfide; phases: Glass, Liquid, Air at 1 atmosphere
Property: Triple point temperature, K (Glass); method: DSC:UFactor:2
Triple point temperature, K	uncertainty
475.57	2

System: arsenic monosulfide; phases: Crystal 2, Crystal 1, Air at 1 atmosphere
Property: Triple point temperature, K (Crystal 2); method: DSC:UFactor:2
Triple point temperature, K	uncertainty
540.32	2

System: arsenic monosulfide; phases: Crystal 1, Liquid, Air at 1 atmosphere
Property: Triple point temperature, K (Crystal 1); method: DSC:UFactor:2
Triple point temperature, K	uncertainty
579.28	2

System: arsenic monosulfide; phases: Crystal 1, Liquid, Air at 1 atmosphere
Property: Triple point temperature, K (Crystal 1); method: DSC:UFactor:2
Triple point temperature, K	uncertainty
575.42	2

System: arsenic monosulfide; phases: Crystal 2, Crystal 1, Air at 1 atmosphere
Property: Triple point temperature, K (Crystal 2); method: DSC:UFactor:2
Triple point temperature, K	uncertainty
544.25	2

System: arsenic monosulfide; phases: Crystal 1, Liquid, Air at 1 atmosphere
Property: Triple point temperature, K (Crystal 1); method: DSC:UFactor:2
Triple point temperature, K	uncertainty
576.92	2

System: arsenic monosulfide; phases: Crystal 1, Liquid, Air at 1 atmosphere
Property: Triple point temperature, K (Crystal 1); method: DSC:UFactor:2
Triple point temperature, K	uncertainty
576.8	2

System: arsenic monosulfide; phases: Crystal 1
Property: Mass density, kg/m3 (Crystal 1); method: X-ray diffraction
Temperature, K	Pressure, kPa	Mass density, kg/m3	uncertainty
298	101.325	3454	14

System: arsenic monosulfide; phases: Crystal 1
Property: Mass density, kg/m3 (Crystal 1); method: X-ray diffraction
Temperature, K	Pressure, kPa	Mass density, kg/m3	uncertainty
298	101.325	3465	14
