Measured thermophysical data. Standard molar volumes and heat capacities of aqueous solutions of sodium  trifluoromethanesulfonate at temperatures up to 573 K and pressures to 28 MPa
Source: J. Chem. Thermodyn., 2013, 10.1016/j.jct.2012.09.022
Compound 1: sodium trifluoromethanesulfonate, CF3NaO3S, InChI=1S/CHF3O3S.Na/c2-1(3,4)8(5,6)7;/h(H,5,6,7);/q;+1/p-1
Compound 2: water, H2O, InChI=1S/H2O/h1H2

System: sodium trifluoromethanesulfonate + water; phases: Liquid
Property: Mass density, kg/m3 (Liquid); method: Vibrating tube method
Temperature, K	Pressure, kPa	Molality, mol/kg of sodium trifluoromethanesulfonate	Mass density, kg/m3	uncertainty
298.1	31030	0.0235	2.33	0.11
298.1	31030	0.0235	2.36	0.11
298.1	31030	0.0235	2.38	0.11
298.1	31030	0.0507	4.92	0.12
298.1	31030	0.0507	4.93	0.12
298.1	31030	0.0507	4.95	0.12
298.1	31030	0.1487	14.35	0.17
298.1	31030	0.1487	14.38	0.17
298.1	31030	0.1487	14.32	0.17
298.1	31030	0.2882	27.29	0.25
298.1	31030	0.2882	27.36	0.26
298.1	31030	0.2882	27.26	0.25
323.1	140	0.0501	4.82	0.1
323.1	140	0.0501	4.73	0.1
323.1	140	0.1503	13.93	0.1
323.1	140	0.1503	13.91	0.1
323.1	140	0.3007	27.26	0.11
323.1	140	0.3007	27.39	0.11
323.1	27450	0.025	2.36	0.11
323.1	27450	0.025	2.49	0.11
323.1	27450	0.025	2.44	0.11
323.1	27450	0.0501	4.8	0.12
323.1	27450	0.0501	4.85	0.12
323.1	27450	0.0501	4.69	0.12
323.1	27450	0.1503	13.81	0.16
323.1	27450	0.1503	13.92	0.16
323.1	27450	0.3007	27.24	0.23
323.1	27450	0.3007	27.49	0.24
373.2	1120	0.0249	2.25	0.1
373.2	1120	0.0249	2.24	0.1
373.2	1120	0.0249	2.24	0.1
373.2	1120	0.0249	2.27	0.1
373.2	1120	0.0249	2.26	0.1
373.2	1120	0.0506	4.54	0.1
373.2	1120	0.0506	4.54	0.1
373.2	1120	0.0506	4.55	0.1
373.2	1120	0.0506	4.56	0.1
373.2	1120	0.1482	13.17	0.1
373.2	1120	0.1482	13.24	0.1
373.2	1120	0.1482	13.16	0.1
373.2	1120	0.3003	26.32	0.11
373.2	1120	0.3003	26.38	0.11
373.2	1120	0.3003	25.98	0.11
373.2	1120	0.3003	26.38	0.11
373.2	27460	0.025	2.33	0.11
373.2	27460	0.025	2.27	0.06
373.2	27460	0.025	2.3	0.08
373.2	27460	0.025	2.28	0.06
373.2	27460	0.0253	2.3	0.11
373.2	27460	0.0253	2.3	0.11
373.2	27460	0.0253	2.28	0.17
373.2	27460	0.0253	2.32	0.06
373.2	27460	0.0496	4.46	0.51
373.2	27460	0.0496	4.53	0.37
373.2	27460	0.0496	4.56	0.31
373.2	27460	0.0496	4.49	0.45
373.2	27460	0.05	4.52	0.51
373.2	27460	0.05	4.53	0.51
373.2	27460	0.05	4.53	0.51
373.2	27460	0.05	4.51	0.51
373.2	27460	0.1494	13.31	0.17
373.2	27460	0.1494	13.41	0.13
373.2	27460	0.1494	13.32	0.17
373.2	27460	0.1494	13.43	0.13
373.2	27460	0.15	13.43	0.17
373.2	27460	0.15	13.46	0.18
373.2	27460	0.15	13.43	0.17
373.2	27460	0.15	13.39	0.17
373.2	27460	0.2934	25.89	0.23
373.2	27460	0.2934	25.97	0.23
373.2	27460	0.2934	25.94	0.23
373.2	27460	0.2934	25.95	0.23
373.2	27460	0.3004	26.48	0.23
373.2	27460	0.3004	26.52	0.24
373.2	27460	0.3004	26.5	0.23
373.2	27460	0.3004	26.51	0.23
473.4	2640	0.0254	2.18	0.11
473.4	2640	0.0254	2.23	0.11
473.4	2640	0.0502	4.31	0.11
473.4	2640	0.151	12.83	0.12
473.4	2640	0.151	12.71	0.12
473.4	2640	0.302	25.13	0.13
473.4	2640	0.302	25.08	0.13
473.5	28520	0.025	2.26	0.12
473.5	28520	0.025	2.35	0.12
473.5	28520	0.0501	4.63	0.13
473.5	28520	0.0501	4.34	0.12
473.5	28520	0.0501	4.4	0.12
473.5	28520	0.1503	12.62	0.17
473.5	28520	0.1503	13.48	0.17
473.5	28520	0.3007	25.48	0.25
473.5	28520	0.3007	25.59	0.25
523.2	10460	0.0251	2.35	0.15
523.2	10460	0.0251	2.35	0.15
523.2	10460	0.0251	2.38	0.14
523.2	10460	0.0251	2.32	0.15
523.2	10460	0.0502	4.71	0.15
523.2	10460	0.0502	4.62	0.15
523.2	10460	0.0502	4.63	0.15
523.2	10460	0.0502	4.61	0.15
523.2	10460	0.15	13.33	0.17
523.2	10460	0.15	13.44	0.17
523.2	10460	0.15	13.39	0.17
523.2	10460	0.15	13.36	0.17
523.2	10460	0.3	25.98	0.2
523.2	10460	0.3	26.14	0.2
523.2	10460	0.3	26.15	0.2
523.2	10460	0.3	26.15	0.2
523	28040	0.023	2.12	0.14
523	28040	0.023	2.18	0.14
523	28040	0.046	4.05	0.16
523	28040	0.046	4.12	0.16
523	28040	0.1377	11.95	0.2
523	28040	0.1377	12.29	0.2
523	28040	0.1377	12.3	0.2
523	28040	0.275	23.32	0.27
523	28040	0.275	23.38	0.27
523	28040	0.275	23.47	0.27
573.2	10570	0.0252	2.76	0.22
573.2	10570	0.0252	2.72	0.22
573.2	10570	0.0502	5.44	0.22
573.2	10570	0.0502	5.43	0.22
573.2	10570	0.1498	15.52	0.25
573.2	10570	0.1498	15.64	0.25
573.2	10570	0.1498	15.55	0.25
573.9	27670	0.023	2.61	0.22
573.9	27670	0.023	2.47	0.22
573.9	27670	0.023	2.45	0.22
573.9	27670	0.023	2.36	0.22
573.9	27670	0.046	4.51	0.23
573.9	27670	0.046	4.64	0.23
573.9	27670	0.046	4.62	0.23
573.9	27670	0.046	4.65	0.23
573.9	27670	0.1377	13.26	0.29
573.9	27670	0.1377	13.32	0.29
573.9	27670	0.275	26.06	0.37
573.9	27670	0.275	25.92	0.36
573.9	27670	0.275	25.26	0.36

System: sodium trifluoromethanesulfonate + water; phases: Liquid
Property: Molar heat capacity at constant pressure, J/K/mol (Liquid); method: Flow calorimetry
Temperature, K	Pressure, kPa	Molality, mol/kg of sodium trifluoromethanesulfonate	Molar heat capacity at constant pressure, J/K/mol	uncertainty
322.7	2000	0.0501	-421177.207304536	4883.47710193621
322.7	2000	0.1503	-1287792.11449396	14910.8890886734
322.7	2000	0.1503	-1282815.67437783	14837.164049916
322.7	2000	0.3007	-2583310.0711353	29907.4488101234
322.8	27980	0.025	-202186.137483747	2351.00159864822
322.8	27980	0.0501	-410284.693322522	4756.39777214605
322.8	27980	0.0501	-411918.570419824	4774.55196211608
322.8	27980	0.1503	-1251113.90771218	14486.9701158186
322.8	27980	0.1503	-1240976.71488304	14376.3825576826
322.8	27980	0.3007	-2485880.00790383	28795.5776823369
322.8	27980	0.3007	-2487199.17703849	28814.4229556892
374.1	1350	0.0249	-223522.571136297	3490.27963020269
374.1	1350	0.0499	-446942.516775324	6952.84256397031
374.1	1350	0.0499	-444945.616822225	6934.68892803305
374.1	1350	0.0499	-446216.371337834	6952.84256397031
374.1	1350	0.1497	-1328221.52843759	20770.1632100619
374.1	1350	0.1497	-1358814.67034415	21249.3329025744
374.1	1350	0.1497	-1342965.21128412	21009.7480563181
374.1	1350	0.2988	-2752155.53296764	43124.8905734045
374.1	1350	0.2988	-2691490.5492864	42126.3675500797
374.1	1350	0.2988	-2697707.76811087	42239.4078923429
374.2	28380	0.025	-225153.614639772	3508.41777029042
374.2	28380	0.0501	-437334.436377856	6825.97542872869
374.2	28380	0.0501	-428257.341392845	6680.7419089685
374.2	28380	0.0501	-435882.101180255	6807.82123875866
374.2	28380	0.1503	-1290741.11604425	20108.5043210663
374.2	28380	0.1503	-1297192.05693552	20200.660619513
374.2	28380	0.3007	-2614781.67763366	40724.6357143521
374.2	28380	0.3007	-2614781.67763366	40724.6357143521
424	10560	0.0251	-262050.272685829	5244.62243470604
424	10560	0.0251	-262954.517933192	5262.7073396533
424	10560	0.0501	-521388.335939063	10438.6592327633
424	10560	0.1503	-1483347.77979782	29692.7593595214
424	10560	0.1503	-1482794.84200714	29674.3280998321
424	10560	0.1503	-1516339.73464173	30356.2847083375
424	10560	0.1503	-1530347.49200563	30632.7536036776
424	10560	0.3007	-2998282.99035327	60003.35035377
424	10560	0.3007	-3007517.1742959	60191.8030872931
424	28470	0.025	-245589.24392033	4919.01872947936
424	28470	0.0501	-485624.581698118	9712.49163396236
424	28470	0.1503	-1441140.19510924	28808.0588944333
424	28470	0.1503	-1454226.38948867	29084.5277897733
424	28470	0.3007	-2885211.35023938	57685.3817314353
424	28470	0.3007	-2878238.59909902	57534.6195446168
473.2	2900	0.0251	-315762.440379198	7866.93365205906
473.2	2900	0.0501	-619965.587476289	15431.0614745196
473.2	2900	0.0501	-620873.29697479	15449.2156644897
473.2	2900	0.0501	-621054.83887449	15467.3698544597
473.2	2900	0.1503	-1830408.39974803	45598.936471419
473.2	2900	0.1503	-1828749.58637599	45562.0739520403
473.2	2900	0.1503	-1821561.39509715	45377.7613551469
473.2	2900	0.3005	-3614229.67041691	90058.9373529507
473.2	2900	0.3005	-3616491.03733098	90115.4715258025
473.2	2900	0.3005	-3618375.50975938	90172.0056986543
473.2	28380	0.046	-572950.618802865	14260.265559818
473.2	28380	0.046	-574946.33026798	14314.6940543211
473.2	28380	0.1377	-1603436.62458872	39993.9332475433
473.2	28380	0.1377	-1611715.03763444	40196.2944553275
473.2	28380	0.1377	-1612082.96710313	40196.2944553275
473.2	28380	0.1377	-1604908.34246351	40030.7261944131
473.2	28380	0.275	-3153020.73554048	78572.0601300282
473.2	28380	0.275	-3133495.06229431	78102.6929846875
473.2	28380	0.275	-3138188.73374772	78215.3410995693
524.2	10480	0.0249	-425524.76527808	13183.4914529418
524.2	10480	0.0506	-852222.692118566	26216.6503497914
524.2	10480	0.0506	-855853.807125463	26325.5837999983
524.2	10480	0.0506	-852222.692118566	26216.6503497914
524.2	10480	0.1482	-2402680.38485564	73757.1286854073
524.2	10480	0.1482	-2395494.45425676	73536.0231285188
524.2	10480	0.3003	-4684661.95761137	144459.44717236
524.2	10480	0.3003	-4692388.06944814	144704.421450111
524	28260	0.023	-364474.296449414	11154.7936958972
524	28260	0.046	-699224.726050109	21354.1126767249
524	28260	0.046	-705030.432130442	21535.5409917353
524	28260	0.046	-709021.855060671	21644.3979807416
524	28260	0.046	-700494.724255181	21390.398339727
524	28260	0.1482	-2162965.11026229	66202.6888250483
524	28260	0.1482	-2163517.87415452	66221.1142881224
524	28260	0.2962	-4159061.69105454	127216.363535018
524	28260	0.2962	-4166218.20003208	127423.525637
573.9	10540	0.0249	-857379.053201605	31575.2758255643
573.9	10540	0.0249	-853581.339614338	31430.6010222398
573.9	10540	0.0504	-1665904.72803266	61273.1959144531
573.9	10540	0.0504	-1661365.97277973	61091.6457043362
573.9	10540	0.0504	-1663544.57530114	61182.4208093946
573.9	10540	0.1482	-4503367.42992766	165589.636646454
573.9	10540	0.1482	-4505578.48549654	165663.33849875
573.9	10540	0.1482	-4508710.81421913	165773.891277195
573.9	10540	0.2962	-8419632.81208003	309763.841217465
573.9	10540	0.2962	-8424529.37085414	309952.170401085
573.9	10540	0.2962	-8420951.11636536	309801.507054189
573.9	27700	0.023	-535321.622910077	19868.9112994993
573.9	27700	0.046	-1055731.36504556	39152.2303792458
573.9	27700	0.046	-1055005.65178552	39115.9447162438
573.9	27700	0.099	-2196572.71778001	80638.5438192512
573.9	27700	0.099	-2199499.04279953	80748.2810074833
573.9	27700	0.099	-2198401.67091721	80711.7019447393
573.9	27700	0.1482	-3171390.70430485	117185.945150934
573.9	27700	0.1482	-3176549.83396558	117370.199781675
573.9	27700	0.2962	-6036138.66419077	222755.758385225
573.9	27700	0.2962	-6056478.21602169	223471.409282979
573.9	27700	0.2962	-6049133.37786052	223207.748425912
573.9	27700	0.2962	-6060244.79969408	223603.239711513
573.9	27700	0.2962	-6060433.1288777	223603.239711513
573.9	27700	0.2962	-6064199.71255009	223735.070140047
573.9	27700	0.2962	-6078701.0596888	224243.55893582
