Measured thermophysical data. Thermodynamic properties of aqueous solutions with citrate ions. Compressibility studies in aqueous solutions of citric acid
Source: J. Chem. Thermodyn., 2013, 10.1016/j.jct.2013.04.017
Compound 1: citric acid, C6H8O7, InChI=1S/C6H8O7/c7-3(8)1-6(13,5(11)12)2-4(9)10/h13H,1-2H2,(H,7,8)(H,9,10)(H,11,12), purity 99%
Compound 2: water, H2O, InChI=1S/H2O/h1H2, purity 99.8%

System: water; phases: Liquid
Fixed: Pressure, kPa = 101
Property: Speed of sound, m/s (Liquid); method: Sing-around technique in a fixed-path interferometer
Temperature, K	Speed of sound, m/s	uncertainty
288.15	1465.96	1.14
293.15	1482.38	1.13
298.15	1496.73	1.13
303.15	1509.17	1.12
308.15	1519.85	1.12
313.15	1528.89	1.11
318.15	1536.43	1.11
323.15	1542.57	1.11

System: citric acid + water; phases: Liquid
Fixed: Pressure, kPa = 101
Property: Speed of sound, m/s (Liquid); method: FPINT:WF = 
Temperature, K	Molality, mol/kg of citric acid	Speed of sound, m/s	uncertainty
288.15	0	1465.96	1.14
288.15	0.1003	1469.94	1.13
288.15	0.2504	1477.42	1.14
288.15	0.5006	1490.47	1.14
288.15	0.9988	1514.98	1.15
288.15	1.5015	1538.01	1.16
288.15	2.023	1560.31	1.18
288.15	2.5023	1578.8	1.19
288.15	3.0057	1595.36	1.2
288.15	3.5049	1613.08	1.22
288.15	3.9985	1626.16	1.23
288.15	4.5063	1640.72	1.25
288.15	4.9975	1654.69	1.26
293.15	0	1482.38	1.13
293.15	0.1003	1485.86	1.13
293.15	0.2504	1492.46	1.14
293.15	0.5006	1504.05	1.14
293.15	0.9988	1526.42	1.15
293.15	1.5015	1547.09	1.16
293.15	2.023	1567.13	1.18
293.15	2.5023	1584.1	1.19
293.15	3.0057	1598.92	1.21
293.15	3.5049	1615.31	1.22
293.15	3.9985	1628.71	1.23
293.15	4.5063	1636.65	1.25
293.15	4.9975	1653.35	1.26
298.15	0	1496.73	1.13
298.15	0.1003	1499.36	1.13
298.15	0.2504	1505.51	1.13
298.15	0.5006	1516.08	1.13
298.15	0.9988	1535.76	1.14
298.15	1.5015	1554.41	1.16
298.15	2.023	1572.53	1.18
298.15	2.5023	1587.93	1.19
298.15	3.0057	1602.97	1.2
298.15	3.5049	1616.69	1.22
298.15	3.9985	1629.14	1.23
298.15	4.5063	1641.01	1.25
298.15	4.9975	1651.26	1.26
303.15	0	1509.17	1.12
303.15	0.1003	1510.89	1.12
303.15	0.2504	1516.22	1.12
303.15	0.5006	1525.69	1.13
303.15	0.9988	1543.3	1.14
303.15	1.5015	1560.82	1.16
303.15	2.023	1576.67	1.17
303.15	2.5023	1590.5	1.19
303.15	3.0057	1602.98	1.2
303.15	3.5049	1615.58	1.22
303.15	3.9985	1626.71	1.23
303.15	4.5063	1637.75	1.25
303.15	4.9975	1648.59	1.26
308.15	0	1519.85	1.12
308.15	0.1003	1521.03	1.12
308.15	0.2504	1525.79	1.12
308.15	0.5006	1533.91	1.13
308.15	0.9988	1549.36	1.14
308.15	1.5015	1565.58	1.16
308.15	2.023	1579.79	1.17
308.15	2.5023	1592.41	1.19
308.15	3.0057	1603.6	1.2
308.15	3.5049	1615.17	1.22
308.15	3.9985	1622.6	1.23
308.15	4.5063	1635.46	1.25
308.15	4.9975	1640.12	1.26
313.15	0	1528.89	1.11
313.15	0.1003	1529.77	1.12
313.15	0.2504	1533.86	1.12
313.15	0.5006	1541.18	1.12
313.15	0.9988	1554.87	1.14
313.15	1.5015	1569.46	1.16
313.15	2.023	1582.25	1.17
313.15	2.5023	1593.65	1.19
313.15	3.0057	1603.77	1.2
313.15	3.5049	1614.16	1.22
313.15	3.9985	1621	1.23
313.15	4.5063	1632.73	1.25
313.15	4.9975	1635.65	1.26
318.15	0	1536.43	1.11
318.15	0.1003	1537.21	1.11
318.15	0.2504	1540.48	1.12
318.15	0.5006	1546.14	1.12
318.15	0.9988	1558.18	1.14
318.15	1.5015	1571.98	1.16
318.15	2.023	1583.66	1.17
318.15	2.5023	1593.9	1.19
318.15	3.0057	1599.94	1.2
318.15	3.5049	1612.59	1.22
318.15	3.9985	1618.87	1.23
318.15	4.5063	1629.59	1.25
318.15	4.9975	1632.06	1.26
323.15	0	1542.57	1.11
323.15	0.1003	1542.62	1.11
323.15	0.2504	1545.93	1.12
323.15	0.5006	1550.68	1.12
323.15	0.9988	1561.13	1.14
323.15	1.5015	1573.31	1.16
323.15	2.023	1582.59	1.17
323.15	2.5023	1592.9	1.19
323.15	3.0057	1598.17	1.2
323.15	3.5049	1609.72	1.22
323.15	3.9985	1615.37	1.23
323.15	4.5063	1625.29	1.25
323.15	4.9975	1626.12	1.26
