Measured thermophysical data. Binary mixtures of ([C4mim][NTf2] + molecular organic solvents): Thermophysical, acoustic and transport properties at various compositions and temperatures
Source: J. Chem. Thermodyn., 2016, 10.1016/j.jct.2015.09.022
Compound 1: 1-butyl-3-methylimidazolium bis(trifluoromethylsulfonyl)imide, C10H15F6N3O4S2, InChI=1S/C8H15N2.C2F6NO4S2/c1-3-4-5-10-7-6-9(2)8-10;3-1(4,5)14(10,11)9-15(12,13)2(6,7)8/h6-8H,3-5H2,1-2H3;/q+1;-1, purity 98%
Compound 2: butyl ethanoate, C6H12O2, InChI=1S/C6H12O2/c1-3-4-5-8-6(2)7/h3-5H2,1-2H3, purity 99%
Compound 3: 1-butanamine, C4H11N, InChI=1S/C4H11N/c1-2-3-4-5/h2-5H2,1H3, purity 99%
Compound 4: butanal, C4H8O, InChI=1S/C4H8O/c1-2-3-4-5/h4H,2-3H2,1H3, purity 99%

System: 1-butyl-3-methylimidazolium bis(trifluoromethylsulfonyl)imide; phases: Liquid
Fixed: Pressure, kPa = 100.7
Property: Mass density, kg/m3 (Liquid); method: Vibrating tube method
Temperature, K	Mass density, kg/m3	uncertainty
298.15	1436.82	0.62
303.15	1431.98	0.61
308.15	1427.16	0.61
313.15	1422.37	0.6
318.15	1417.6	0.6
323.15	1412.86	0.59

System: 1-butyl-3-methylimidazolium bis(trifluoromethylsulfonyl)imide; phases: Liquid
Fixed: Pressure, kPa = 100.7
Fixed: Frequency, MHz = 3
Property: Speed of sound, m/s (Liquid); method: Sing-around technique in a fixed-path interferometer
Temperature, K	Speed of sound, m/s	uncertainty
298.15	1227.8	1.54
303.15	1217.5	1.54
308.15	1205.23	1.54
313.15	1194.36	1.54
318.15	1184.54	1.54
323.15	1171.35	1.54

System: 1-butyl-3-methylimidazolium bis(trifluoromethylsulfonyl)imide; phases: Liquid
Fixed: Pressure, kPa = 100.7
Property: Viscosity, Pa*s (Liquid); method: Falling or rolling sphere viscometry
Temperature, K	Viscosity, Pa*s	uncertainty
298.15	0.05004	0.00501
303.15	0.04072	0.00409
308.15	0.03373	0.00339
313.15	0.02828	0.00284
318.15	0.02401	0.00241
323.15	0.02032	0.00204

System: butyl ethanoate; phases: Liquid
Fixed: Pressure, kPa = 100.7
Property: Viscosity, Pa*s (Liquid); method: Falling or rolling sphere viscometry
Temperature, K	Viscosity, Pa*s	uncertainty
298.15	0.00067	7e-05
303.15	0.00064	6e-05
308.15	0.00058	6e-05
313.15	0.00057	6e-05
318.15	0.00053	5e-05
323.15	0.0005	5e-05

System: 1-butanamine; phases: Liquid
Fixed: Pressure, kPa = 100.7
Property: Mass density, kg/m3 (Liquid); method: Vibrating tube method
Temperature, K	Mass density, kg/m3	uncertainty
298.15	733.33	0.2
303.15	728.5	0.2
308.15	723.67	0.2
313.15	718.66	0.2
318.15	714.1	0.2
323.15	709.21	0.2

System: 1-butanamine; phases: Liquid
Fixed: Pressure, kPa = 100.7
Fixed: Frequency, MHz = 3
Property: Speed of sound, m/s (Liquid); method: Sing-around technique in a fixed-path interferometer
Temperature, K	Speed of sound, m/s	uncertainty
298.15	1246.5	1.31
303.15	1223.9	1.3
308.15	1201.3	1.3
313.15	1178.7	1.29
318.15	1156.2	1.29
323.15	1133.5	1.29

System: 1-butanamine; phases: Liquid
Fixed: Pressure, kPa = 100.7
Property: Viscosity, Pa*s (Liquid); method: Falling or rolling sphere viscometry
Temperature, K	Viscosity, Pa*s	uncertainty
298.15	0.00047	3e-05
303.15	0.00044	3e-05
308.15	0.00041	3e-05
313.15	0.00039	2e-05
318.15	0.00037	2e-05
323.15	0.00035	2e-05

System: butanal; phases: Liquid
Fixed: Pressure, kPa = 100.7
Property: Mass density, kg/m3 (Liquid); method: Vibrating tube method
Temperature, K	Mass density, kg/m3	uncertainty
298.15	796.99	0.21
303.15	791.8	0.21
308.15	786.41	0.21
313.15	781.37	0.21
318.15	776.39	0.21
323.15	771.3	0.22

System: butanal; phases: Liquid
Fixed: Pressure, kPa = 100.7
Fixed: Frequency, MHz = 3
Property: Speed of sound, m/s (Liquid); method: Sing-around technique in a fixed-path interferometer
Temperature, K	Speed of sound, m/s	uncertainty
298.15	1193.85	1.41
303.15	1172.7	1.41
308.15	1151.6	1.4
313.15	1130.57	1.4
318.15	1109.64	1.4
323.15	1088.76	1.39

System: butanal; phases: Liquid
Fixed: Pressure, kPa = 100.7
Property: Viscosity, Pa*s (Liquid); method: Falling or rolling sphere viscometry
Temperature, K	Viscosity, Pa*s	uncertainty
298.15	0.00043	3e-05
303.15	0.0004	2e-05
308.15	0.00039	2e-05
313.15	0.00036	2e-05
318.15	0.00035	2e-05
323.15	0.00032	2e-05

System: butyl ethanoate + 1-butyl-3-methylimidazolium bis(trifluoromethylsulfonyl)imide; phases: Liquid
Fixed: Pressure, kPa = 100.7
Property: Mass density, kg/m3 (Liquid); method: Vibrating tube method
Temperature, K	Mole fraction of 1-butyl-3-methylimidazolium bis(trifluoromethylsulfonyl)imide	Mass density, kg/m3	uncertainty
298.15	0	876	0.2
298.15	0.11	1002.7	0.27
298.15	0.2089	1091.17	0.27
298.15	0.2993	1157.05	0.29
298.15	0.393	1214.08	0.33
298.15	0.4847	1261.35	0.37
298.15	0.5739	1300.9	0.42
298.15	0.687	1344.53	0.47
298.15	0.7791	1375.41	0.51
298.15	0.9056	1412.56	0.57
298.15	1	1436.82	0.62
303.15	0	870.86	0.2
303.15	0.11	997.7	0.28
303.15	0.2089	1086.13	0.28
303.15	0.2993	1152.05	0.3
303.15	0.393	1209.12	0.34
303.15	0.4847	1256.55	0.38
303.15	0.5739	1296	0.42
303.15	0.687	1339.68	0.47
303.15	0.7791	1370.57	0.51
303.15	0.9056	1407.82	0.57
303.15	1	1431.98	0.61
308.15	0	865.69	0.2
308.15	0.11	992.65	0.28
308.15	0.2089	1081.08	0.28
308.15	0.2993	1147.06	0.3
308.15	0.393	1204.12	0.34
308.15	0.4847	1251.44	0.38
308.15	0.5739	1291.12	0.41
308.15	0.687	1335.03	0.47
308.15	0.7791	1365.95	0.51
308.15	0.9056	1403.1	0.57
308.15	1	1427.16	0.61
313.15	0	860.49	0.2
313.15	0.11	987.68	0.28
313.15	0.2089	1076.25	0.28
313.15	0.2993	1142.16	0.3
313.15	0.393	1199.24	0.33
313.15	0.4847	1246.74	0.37
313.15	0.5739	1286.33	0.41
313.15	0.687	1330.2	0.46
313.15	0.7791	1361.33	0.5
313.15	0.9056	1398.49	0.56
313.15	1	1422.37	0.6
318.15	0	855.28	0.2
318.15	0.11	982.52	0.28
318.15	0.2089	1071.24	0.28
318.15	0.2993	1137.09	0.3
318.15	0.393	1194.31	0.33
318.15	0.4847	1241.85	0.37
318.15	0.5739	1281.71	0.41
318.15	0.687	1325.49	0.46
318.15	0.7791	1356.79	0.5
318.15	0.9056	1393.84	0.56
318.15	1	1417.6	0.6
323.15	0	850.03	0.21
323.15	0.11	977.62	0.38
323.15	0.2089	1066.34	0.33
323.15	0.2993	1132.21	0.32
323.15	0.393	1189.38	0.35
323.15	0.4847	1236.98	0.38
323.15	0.5739	1276.92	0.42
323.15	0.687	1320.8	0.46
323.15	0.7791	1352.11	0.5
323.15	0.9056	1389.18	0.56
323.15	1	1412.86	0.59

System: butyl ethanoate + 1-butyl-3-methylimidazolium bis(trifluoromethylsulfonyl)imide; phases: Liquid
Fixed: Pressure, kPa = 100.7
Fixed: Frequency, MHz = 3
Property: Speed of sound, m/s (Liquid); method: Sing-around technique in a fixed-path interferometer
Temperature, K	Mole fraction of 1-butyl-3-methylimidazolium bis(trifluoromethylsulfonyl)imide	Speed of sound, m/s	uncertainty
298.15	0	1190.53	1.41
298.15	0.0252	1187.25	1.41
298.15	0.0521	1185.11	1.41
298.15	0.0754	1183.36	1.41
298.15	0.11	1182.03	1.41
298.15	0.2089	1182.26	1.42
298.15	0.2993	1184.87	1.43
298.15	0.393	1188.97	1.44
298.15	0.4847	1194.04	1.45
298.15	0.5739	1199.23	1.47
298.15	0.687	1206.58	1.48
298.15	0.7791	1212.68	1.5
298.15	0.9056	1221.56	1.52
298.15	1	1227.8	1.54
303.15	0	1169.82	1.4
303.15	0.0252	1167.54	1.4
303.15	0.0521	1165.24	1.4
303.15	0.0754	1164.21	1.4
303.15	0.11	1163.84	1.41
303.15	0.2089	1165.8	1.41
303.15	0.2993	1169.62	1.42
303.15	0.393	1174.7	1.44
303.15	0.4847	1180.55	1.45
303.15	0.5739	1186.34	1.46
303.15	0.687	1194.31	1.48
303.15	0.7791	1201.83	1.5
303.15	0.9056	1211.58	1.52
303.15	1	1217.5	1.54
308.15	0	1149.22	1.4
308.15	0.0252	1147.25	1.4
308.15	0.0521	1146.68	1.4
308.15	0.0754	1146.28	1.4
308.15	0.11	1145.77	1.4
308.15	0.2089	1149.44	1.41
308.15	0.2993	1154.49	1.42
308.15	0.393	1160.56	1.43
308.15	0.4847	1167.18	1.45
308.15	0.5739	1173.57	1.46
308.15	0.687	1182.18	1.48
308.15	0.7791	1189.09	1.5
308.15	0.9056	1199.25	1.52
308.15	1	1205.23	1.54
313.15	0	1128.79	1.4
313.15	0.0252	1128.54	1.39
313.15	0.0521	1127.02	1.39
313.15	0.0754	1127.22	1.4
313.15	0.11	1127.82	1.4
313.15	0.2089	1133.23	1.41
313.15	0.2993	1139.49	1.42
313.15	0.393	1146.23	1.43
313.15	0.4847	1153.94	1.44
313.15	0.5739	1160.95	1.46
313.15	0.687	1170.17	1.48
313.15	0.7791	1178.51	1.49
313.15	0.9056	1188.42	1.52
313.15	1	1194.36	1.54
318.15	0	1108.5	1.39
318.15	0.0252	1108.2	1.39
318.15	0.0521	1109.22	1.39
318.15	0.0754	1109.58	1.39
318.15	0.11	1110.01	1.4
318.15	0.2089	1117.14	1.4
318.15	0.2993	1124.63	1.42
318.15	0.393	1131.96	1.43
318.15	0.4847	1140.84	1.44
318.15	0.5739	1148.44	1.46
318.15	0.687	1159.3	1.48
318.15	0.7791	1168.04	1.49
318.15	0.9056	1178.55	1.52
318.15	1	1184.54	1.54
323.15	0	1088.33	1.39
323.15	0.0252	1089.56	1.39
323.15	0.0521	1090.25	1.39
323.15	0.0754	1091.35	1.39
323.15	0.11	1092.32	1.39
323.15	0.2089	1101.17	1.4
323.15	0.2993	1109.89	1.41
323.15	0.393	1118.69	1.42
323.15	0.4847	1127.87	1.44
323.15	0.5739	1136.05	1.45
323.15	0.687	1147.54	1.48
323.15	0.7791	1155.69	1.5
323.15	0.9056	1166.35	1.52
323.15	1	1171.35	1.54

System: butyl ethanoate + 1-butyl-3-methylimidazolium bis(trifluoromethylsulfonyl)imide; phases: Liquid
Fixed: Pressure, kPa = 100.7
Property: Viscosity, Pa*s (Liquid); method: Falling or rolling sphere viscometry
Temperature, K	Mole fraction of 1-butyl-3-methylimidazolium bis(trifluoromethylsulfonyl)imide	Viscosity, Pa*s	uncertainty
298.15	0	0.00067	7e-05
298.15	0.11	0.00165	0.00017
298.15	0.2089	0.00316	0.00032
298.15	0.2993	0.00548	0.00055
298.15	0.393	0.0087	0.00087
298.15	0.4847	0.013	0.00131
298.15	0.5739	0.01801	0.00181
298.15	0.687	0.02524	0.00254
298.15	0.7791	0.03173	0.00319
298.15	0.9056	0.04139	0.00416
298.15	1	0.05004	0.00501
303.15	0	0.00064	6e-05
303.15	0.11	0.00132	0.00013
303.15	0.2089	0.00247	0.00025
303.15	0.2993	0.00419	0.00042
303.15	0.393	0.0067	0.00067
303.15	0.4847	0.01	0.001
303.15	0.5739	0.01381	0.00139
303.15	0.687	0.01935	0.00194
303.15	0.7791	0.02504	0.00252
303.15	0.9056	0.0333	0.00335
303.15	1	0.04072	0.00409
308.15	0	0.00058	6e-05
308.15	0.11	0.00108	0.00011
308.15	0.2089	0.002	0.0002
308.15	0.2993	0.0033	0.00033
308.15	0.393	0.00535	0.00054
308.15	0.4847	0.00785	0.00079
308.15	0.5739	0.0108	0.00109
308.15	0.687	0.01526	0.00153
308.15	0.7791	0.02	0.00201
308.15	0.9056	0.02756	0.00277
308.15	1	0.03373	0.00339
313.15	0	0.00057	6e-05
313.15	0.11	0.00096	0.0001
313.15	0.2089	0.00172	0.00017
313.15	0.2993	0.00281	0.00028
313.15	0.393	0.00465	0.00047
313.15	0.4847	0.00664	0.00067
313.15	0.5739	0.00859	0.00086
313.15	0.687	0.01216	0.00122
313.15	0.7791	0.01596	0.0016
313.15	0.9056	0.02261	0.00227
313.15	1	0.02828	0.00284
318.15	0	0.00053	5e-05
318.15	0.11	0.0008	8e-05
318.15	0.2089	0.00149	0.00015
318.15	0.2993	0.00235	0.00024
318.15	0.393	0.00396	0.0004
318.15	0.4847	0.0055	0.00055
318.15	0.5739	0.00692	0.0007
318.15	0.687	0.00996	0.001
318.15	0.7791	0.01317	0.00132
318.15	0.9056	0.01887	0.0019
318.15	1	0.02401	0.00241
323.15	0	0.0005	5e-05
323.15	0.11	0.00083	8e-05
323.15	0.2089	0.00137	0.00014
323.15	0.2993	0.002	0.0002
323.15	0.393	0.00293	0.00029
323.15	0.4847	0.00414	0.00042
323.15	0.5739	0.00548	0.00055
323.15	0.687	0.00824	0.00083
323.15	0.7791	0.01074	0.00108
323.15	0.9056	0.01582	0.00159
323.15	1	0.02032	0.00204

System: 1-butanamine + 1-butyl-3-methylimidazolium bis(trifluoromethylsulfonyl)imide; phases: Liquid
Fixed: Pressure, kPa = 100.7
Property: Mass density, kg/m3 (Liquid); method: Vibrating tube method
Temperature, K	Mole fraction of 1-butyl-3-methylimidazolium bis(trifluoromethylsulfonyl)imide	Mass density, kg/m3	uncertainty
298.15	0	733.33	0.2
298.15	0.1026	916.12	0.42
298.15	0.2026	1042.14	0.29
298.15	0.3004	1134.03	0.25
298.15	0.4056	1209.89	0.27
298.15	0.5051	1266.69	0.31
298.15	0.6119	1316.23	0.37
298.15	0.7025	1351.49	0.42
298.15	0.8002	1383.95	0.48
298.15	0.9015	1412.83	0.55
298.15	1	1436.82	0.62
303.15	0	728.5	0.2
303.15	0.1026	911.59	0.35
303.15	0.2026	1037.64	0.27
303.15	0.3004	1129.36	0.26
303.15	0.4056	1205.12	0.28
303.15	0.5051	1262.02	0.32
303.15	0.6119	1311.69	0.37
303.15	0.7025	1346.8	0.42
303.15	0.8002	1379.23	0.48
303.15	0.9015	1408.07	0.55
303.15	1	1431.98	0.61
308.15	0	723.67	0.2
308.15	0.1026	907.02	0.35
308.15	0.2026	1033.16	0.27
308.15	0.3004	1124.87	0.26
308.15	0.4056	1200.55	0.28
308.15	0.5051	1257.23	0.32
308.15	0.6119	1306.91	0.37
308.15	0.7025	1342.12	0.42
308.15	0.8002	1374.49	0.48
308.15	0.9015	1403.3	0.54
308.15	1	1427.16	0.61
313.15	0	718.66	0.2
313.15	0.1026	902.44	0.35
313.15	0.2026	1028.65	0.27
313.15	0.3004	1120.14	0.26
313.15	0.4056	1195.66	0.28
313.15	0.5051	1252.53	0.31
313.15	0.6119	1302.05	0.37
313.15	0.7025	1337.26	0.42
313.15	0.8002	1369.77	0.48
313.15	0.9015	1398.51	0.54
313.15	1	1422.37	0.6
318.15	0	714.1	0.2
318.15	0.1026	898.17	0.35
318.15	0.2026	1024.27	0.27
318.15	0.3004	1115.68	0.26
318.15	0.4056	1191.05	0.28
318.15	0.5051	1247.99	0.31
318.15	0.6119	1297.45	0.37
318.15	0.7025	1332.6	0.41
318.15	0.8002	1364.99	0.47
318.15	0.9015	1393.75	0.54
318.15	1	1417.6	0.6
323.15	0	709.21	0.2
323.15	0.1026	893.96	0.56
323.15	0.2026	1019.8	0.4
323.15	0.3004	1110.93	0.34
323.15	0.4056	1186.44	0.32
323.15	0.5051	1243.22	0.34
323.15	0.6119	1292.55	0.38
323.15	0.7025	1327.75	0.42
323.15	0.8002	1360.33	0.48
323.15	0.9015	1389.17	0.54
323.15	1	1412.86	0.59

System: 1-butanamine + 1-butyl-3-methylimidazolium bis(trifluoromethylsulfonyl)imide; phases: Liquid
Fixed: Pressure, kPa = 100.7
Fixed: Frequency, MHz = 3
Property: Speed of sound, m/s (Liquid); method: Sing-around technique in a fixed-path interferometer
Temperature, K	Mole fraction of 1-butyl-3-methylimidazolium bis(trifluoromethylsulfonyl)imide	Speed of sound, m/s	uncertainty
298.15	0	1246.5	1.31
298.15	0.0261	1234.05	1.31
298.15	0.0486	1225.42	1.31
298.15	0.0804	1216.53	1.3
298.15	0.1026	1211.61	1.3
298.15	0.2026	1203.46	1.32
298.15	0.3004	1203.16	1.33
298.15	0.4056	1205.12	1.35
298.15	0.5051	1208.03	1.38
298.15	0.6119	1211.98	1.41
298.15	0.7025	1215.06	1.43
298.15	0.8002	1218.12	1.47
298.15	0.9015	1222.86	1.5
298.15	1	1227.8	1.54
303.15	0	1223.9	1.3
303.15	0.0261	1212.24	1.3
303.15	0.0486	1204.54	1.3
303.15	0.0804	1196.35	1.29
303.15	0.1026	1192.06	1.29
303.15	0.2026	1186.42	1.31
303.15	0.3004	1187.13	1.33
303.15	0.4056	1190.02	1.35
303.15	0.5051	1193.76	1.38
303.15	0.6119	1198.87	1.41
303.15	0.7025	1203.05	1.44
303.15	0.8002	1208.05	1.47
303.15	0.9015	1212.92	1.5
303.15	1	1217.5	1.54
308.15	0	1201.3	1.3
308.15	0.0261	1190.26	1.29
308.15	0.0486	1183.52	1.29
308.15	0.0804	1177.25	1.29
308.15	0.1026	1174.12	1.29
308.15	0.2026	1168.96	1.3
308.15	0.3004	1170.32	1.32
308.15	0.4056	1174.52	1.35
308.15	0.5051	1178.92	1.37
308.15	0.6119	1184.82	1.41
308.15	0.7025	1189.62	1.43
308.15	0.8002	1195.61	1.47
308.15	0.9015	1200.91	1.5
308.15	1	1205.23	1.54
313.15	0	1178.7	1.29
313.15	0.0261	1169.53	1.29
313.15	0.0486	1163.25	1.29
313.15	0.0804	1157.54	1.29
313.15	0.1026	1155.01	1.28
313.15	0.2026	1152.52	1.29
313.15	0.3004	1155.14	1.31
313.15	0.4056	1160.03	1.34
313.15	0.5051	1165.18	1.37
313.15	0.6119	1171.92	1.4
313.15	0.7025	1177.8	1.43
313.15	0.8002	1184.49	1.46
313.15	0.9015	1190.49	1.5
313.15	1	1194.36	1.54
318.15	0	1156.2	1.29
318.15	0.0261	1148.24	1.29
318.15	0.0486	1143.25	1.29
318.15	0.0804	1138.25	1.29
318.15	0.1026	1137.84	1.28
318.15	0.2026	1137.23	1.3
318.15	0.3004	1141.42	1.31
318.15	0.4056	1146.82	1.34
318.15	0.5051	1152.52	1.37
318.15	0.6119	1160.02	1.4
318.15	0.7025	1167.01	1.43
318.15	0.8002	1174.2	1.46
318.15	0.9015	1180.52	1.5
318.15	1	1184.54	1.54
323.15	0	1133.5	1.29
323.15	0.0261	1126.25	1.28
323.15	0.0486	1121.54	1.28
323.15	0.0804	1117.78	1.28
323.15	0.1026	1118.56	1.28
323.15	0.2026	1119.05	1.29
323.15	0.3004	1124.49	1.32
323.15	0.4056	1130.62	1.34
323.15	0.5051	1137.24	1.37
323.15	0.6119	1145.63	1.4
323.15	0.7025	1153.05	1.43
323.15	0.8002	1161.32	1.47
323.15	0.9015	1168.26	1.51
323.15	1	1171.35	1.54

System: 1-butanamine + 1-butyl-3-methylimidazolium bis(trifluoromethylsulfonyl)imide; phases: Liquid
Fixed: Pressure, kPa = 100.7
Property: Viscosity, Pa*s (Liquid); method: Falling or rolling sphere viscometry
Temperature, K	Mole fraction of 1-butyl-3-methylimidazolium bis(trifluoromethylsulfonyl)imide	Viscosity, Pa*s	uncertainty
298.15	0	0.00047	3e-05
298.15	0.1026	0.00211	0.00013
298.15	0.2026	0.00444	0.00027
298.15	0.3004	0.00722	0.00044
298.15	0.4056	0.01101	0.00067
298.15	0.5051	0.01499	0.00091
298.15	0.6119	0.02024	0.00123
298.15	0.7025	0.0254	0.00154
298.15	0.8002	0.03204	0.00195
298.15	0.9015	0.0403	0.00245
298.15	1	0.05004	0.00302
303.15	0	0.00044	3e-05
303.15	0.1026	0.00159	0.0001
303.15	0.2026	0.00323	0.0002
303.15	0.3004	0.00531	0.00032
303.15	0.4056	0.00835	0.00051
303.15	0.5051	0.01171	0.00071
303.15	0.6119	0.01601	0.00097
303.15	0.7025	0.02008	0.00122
303.15	0.8002	0.02555	0.00155
303.15	0.9015	0.03207	0.00195
303.15	1	0.04072	0.00247
308.15	0	0.00041	3e-05
308.15	0.1026	0.00131	8e-05
308.15	0.2026	0.00263	0.00016
308.15	0.3004	0.0042	0.00026
308.15	0.4056	0.00658	0.0004
308.15	0.5051	0.00928	0.00056
308.15	0.6119	0.01271	0.00077
308.15	0.7025	0.01601	0.00097
308.15	0.8002	0.02049	0.00124
308.15	0.9015	0.02613	0.00159
308.15	1	0.03373	0.00205
313.15	0	0.00039	2e-05
313.15	0.1026	0.0011	7e-05
313.15	0.2026	0.00199	0.00012
313.15	0.3004	0.00321	0.00019
313.15	0.4056	0.00498	0.0003
313.15	0.5051	0.00711	0.00043
313.15	0.6119	0.0099	0.0006
313.15	0.7025	0.0128	0.00078
313.15	0.8002	0.01665	0.00101
313.15	0.9015	0.02162	0.00131
313.15	1	0.02828	0.00172
318.15	0	0.00037	2e-05
318.15	0.1026	0.00087	5e-05
318.15	0.2026	0.00157	0.0001
318.15	0.3004	0.00253	0.00015
318.15	0.4056	0.00395	0.00024
318.15	0.5051	0.00565	0.00034
318.15	0.6119	0.00795	0.00048
318.15	0.7025	0.01045	0.00063
318.15	0.8002	0.01375	0.00083
318.15	0.9015	0.01799	0.00109
318.15	1	0.02401	0.00146
323.15	0	0.00035	2e-05
323.15	0.1026	0.00074	5e-05
323.15	0.2026	0.00132	8e-05
323.15	0.3004	0.00209	0.00013
323.15	0.4056	0.00326	0.0002
323.15	0.5051	0.00464	0.00028
323.15	0.6119	0.00649	0.00039
323.15	0.7025	0.00848	0.00051
323.15	0.8002	0.01132	0.00069
323.15	0.9015	0.01491	0.0009
323.15	1	0.02032	0.00123

System: butanal + 1-butyl-3-methylimidazolium bis(trifluoromethylsulfonyl)imide; phases: Liquid
Fixed: Pressure, kPa = 100.7
Property: Mass density, kg/m3 (Liquid); method: Vibrating tube method
Temperature, K	Mole fraction of 1-butyl-3-methylimidazolium bis(trifluoromethylsulfonyl)imide	Mass density, kg/m3	uncertainty
298.15	0	796.99	0.21
298.15	0.1056	979.73	0.46
298.15	0.2135	1105.53	0.33
298.15	0.3088	1185.23	0.32
298.15	0.4153	1251.86	0.36
298.15	0.5025	1294.27	0.4
298.15	0.5987	1332.31	0.44
298.15	0.6852	1360.82	0.48
298.15	0.7729	1385.61	0.52
298.15	0.8852	1412.72	0.57
298.15	1	1436.82	0.62
303.15	0	791.8	0.21
303.15	0.1056	975.4	0.34
303.15	0.2135	1101.73	0.31
303.15	0.3088	1181.18	0.32
303.15	0.4153	1247.94	0.36
303.15	0.5025	1290.44	0.4
303.15	0.5987	1328.49	0.44
303.15	0.6852	1356.74	0.48
303.15	0.7729	1381.37	0.52
303.15	0.8852	1408.37	0.56
303.15	1	1431.98	0.61
308.15	0	786.41	0.21
308.15	0.1056	971.06	0.34
308.15	0.2135	1097.08	0.31
308.15	0.3088	1176.97	0.32
308.15	0.4153	1243.96	0.36
308.15	0.5025	1286.66	0.4
308.15	0.5987	1324.67	0.44
308.15	0.6852	1352.96	0.48
308.15	0.7729	1377.44	0.51
308.15	0.8852	1404.09	0.56
308.15	1	1427.16	0.61
313.15	0	781.37	0.21
313.15	0.1056	966.81	0.35
313.15	0.2135	1092.97	0.31
313.15	0.3088	1173.06	0.32
313.15	0.4153	1240.28	0.36
313.15	0.5025	1282.97	0.39
313.15	0.5987	1320.95	0.43
313.15	0.6852	1349.19	0.47
313.15	0.7729	1373.41	0.51
313.15	0.8852	1399.8	0.56
313.15	1	1422.37	0.6
318.15	0	776.39	0.21
318.15	0.1056	961.43	0.35
318.15	0.2135	1088.71	0.31
318.15	0.3088	1169.26	0.31
318.15	0.4153	1236.78	0.36
318.15	0.5025	1279.56	0.39
318.15	0.5987	1317.62	0.43
318.15	0.6852	1345.51	0.47
318.15	0.7729	1369.39	0.51
318.15	0.8852	1395.55	0.55
318.15	1	1417.6	0.6
323.15	0	771.3	0.22
323.15	0.1056	957.54	0.6
323.15	0.2135	1084.6	0.42
323.15	0.3088	1165.17	0.37
323.15	0.4153	1232.87	0.39
323.15	0.5025	1275.6	0.41
323.15	0.5987	1313.47	0.44
323.15	0.6852	1341.63	0.47
323.15	0.7729	1365.48	0.51
323.15	0.8852	1391.08	0.55
323.15	1	1412.86	0.59

System: butanal + 1-butyl-3-methylimidazolium bis(trifluoromethylsulfonyl)imide; phases: Liquid
Fixed: Pressure, kPa = 100.7
Fixed: Frequency, MHz = 3
Property: Speed of sound, m/s (Liquid); method: Sing-around technique in a fixed-path interferometer
Temperature, K	Mole fraction of 1-butyl-3-methylimidazolium bis(trifluoromethylsulfonyl)imide	Speed of sound, m/s	uncertainty
298.15	0	1193.85	1.41
298.15	0.0222	1192.02	1.41
298.15	0.0464	1190.65	1.41
298.15	0.0748	1189.24	1.41
298.15	0.1056	1187.53	1.42
298.15	0.2135	1191.68	1.43
298.15	0.3088	1196.18	1.43
298.15	0.4153	1200.45	1.45
298.15	0.5025	1204.16	1.46
298.15	0.5987	1208.64	1.47
298.15	0.6852	1213.24	1.49
298.15	0.7729	1217.55	1.5
298.15	0.8852	1223.88	1.52
298.15	1	1227.8	1.54
303.15	0	1172.7	1.41
303.15	0.0222	1171.61	1.41
303.15	0.0464	1170.86	1.41
303.15	0.0748	1169.95	1.41
303.15	0.1056	1169.01	1.41
303.15	0.2135	1173.57	1.42
303.15	0.3088	1179.89	1.44
303.15	0.4153	1185.43	1.45
303.15	0.5025	1189.53	1.46
303.15	0.5987	1195.71	1.47
303.15	0.6852	1200.58	1.49
303.15	0.7729	1206.57	1.5
303.15	0.8852	1213.56	1.52
303.15	1	1217.5	1.54
308.15	0	1151.6	1.4
308.15	0.0222	1150.14	1.41
308.15	0.0464	1149.43	1.41
308.15	0.0748	1148.79	1.41
308.15	0.1056	1149.56	1.41
308.15	0.2135	1154.83	1.42
308.15	0.3088	1161.56	1.43
308.15	0.4153	1168.7	1.45
308.15	0.5025	1174.35	1.46
308.15	0.5987	1180.53	1.47
308.15	0.6852	1186.4	1.48
308.15	0.7729	1193.63	1.5
308.15	0.8852	1201.03	1.52
308.15	1	1205.23	1.54
313.15	0	1130.57	1.4
313.15	0.0222	1129.31	1.4
313.15	0.0464	1128.54	1.41
313.15	0.0748	1127.94	1.41
313.15	0.1056	1129.21	1.41
313.15	0.2135	1136.55	1.42
313.15	0.3088	1144.66	1.43
313.15	0.4153	1152.63	1.44
313.15	0.5025	1159.56	1.45
313.15	0.5987	1166.75	1.47
313.15	0.6852	1174.2	1.48
313.15	0.7729	1181.81	1.5
313.15	0.8852	1189.62	1.52
313.15	1	1194.36	1.54
318.15	0	1109.64	1.4
318.15	0.0222	1108.42	1.4
318.15	0.0464	1107.66	1.4
318.15	0.0748	1107.05	1.41
318.15	0.1056	1108.97	1.41
318.15	0.2135	1118.39	1.42
318.15	0.3088	1128.18	1.43
318.15	0.4153	1137.67	1.44
318.15	0.5025	1145.23	1.46
318.15	0.5987	1153.08	1.47
318.15	0.6852	1162.12	1.48
318.15	0.7729	1170.11	1.5
318.15	0.8852	1179.33	1.52
318.15	1	1184.54	1.54
323.15	0	1088.76	1.39
323.15	0.0222	1087.53	1.4
323.15	0.0464	1086.74	1.4
323.15	0.0748	1086.09	1.4
323.15	0.1056	1087.82	1.41
323.15	0.2135	1099.23	1.42
323.15	0.3088	1110.21	1.43
323.15	0.4153	1120.35	1.45
323.15	0.5025	1128.54	1.46
323.15	0.5987	1138.53	1.47
323.15	0.6852	1147.15	1.49
323.15	0.7729	1156.52	1.5
323.15	0.8852	1166.15	1.53
323.15	1	1171.35	1.54

System: butanal + 1-butyl-3-methylimidazolium bis(trifluoromethylsulfonyl)imide; phases: Liquid
Fixed: Pressure, kPa = 100.7
Property: Viscosity, Pa*s (Liquid); method: Falling or rolling sphere viscometry
Temperature, K	Mole fraction of 1-butyl-3-methylimidazolium bis(trifluoromethylsulfonyl)imide	Viscosity, Pa*s	uncertainty
298.15	0	0.00043	3e-05
298.15	0.1056	0.00153	9e-05
298.15	0.2135	0.00332	0.0002
298.15	0.3088	0.00562	0.00034
298.15	0.4153	0.00898	0.00055
298.15	0.5025	0.01242	0.00075
298.15	0.5987	0.01622	0.00099
298.15	0.6852	0.02037	0.00124
298.15	0.7729	0.02555	0.00155
298.15	0.8852	0.03429	0.00209
298.15	1	0.05004	0.00302
303.15	0	0.0004	2e-05
303.15	0.1056	0.00124	8e-05
303.15	0.2135	0.00262	0.00016
303.15	0.3088	0.00429	0.00026
303.15	0.4153	0.00676	0.00041
303.15	0.5025	0.00923	0.00056
303.15	0.5987	0.01208	0.00074
303.15	0.6852	0.01505	0.00092
303.15	0.7729	0.01907	0.00116
303.15	0.8852	0.02685	0.00163
303.15	1	0.04072	0.00247
308.15	0	0.00039	2e-05
308.15	0.1056	0.00098	6e-05
308.15	0.2135	0.00198	0.00012
308.15	0.3088	0.00318	0.00019
308.15	0.4153	0.00487	0.0003
308.15	0.5025	0.00666	0.00041
308.15	0.5987	0.00873	0.00053
308.15	0.6852	0.01093	0.00067
308.15	0.7729	0.01471	0.00089
308.15	0.8852	0.02185	0.00133
308.15	1	0.03373	0.00205
313.15	0	0.00036	2e-05
313.15	0.1056	0.0008	5e-05
313.15	0.2135	0.00153	9e-05
313.15	0.3088	0.00239	0.00015
313.15	0.4153	0.00369	0.00022
313.15	0.5025	0.00513	0.00031
313.15	0.5987	0.00682	0.00041
313.15	0.6852	0.00886	0.00054
313.15	0.7729	0.0118	0.00072
313.15	0.8852	0.01793	0.00109
313.15	1	0.02828	0.00172
318.15	0	0.00035	2e-05
318.15	0.1056	0.00069	4e-05
318.15	0.2135	0.00123	7e-05
318.15	0.3088	0.00196	0.00012
318.15	0.4153	0.00296	0.00018
318.15	0.5025	0.00406	0.00025
318.15	0.5987	0.00562	0.00034
318.15	0.6852	0.00772	0.00047
318.15	0.7729	0.01043	0.00063
318.15	0.8852	0.01549	0.00094
318.15	1	0.02401	0.00146
323.15	0	0.00032	2e-05
323.15	0.1056	0.00056	3e-05
323.15	0.2135	0.00094	6e-05
323.15	0.3088	0.00143	9e-05
323.15	0.4153	0.00224	0.00014
323.15	0.5025	0.00307	0.00019
323.15	0.5987	0.00443	0.00027
323.15	0.6852	0.00621	0.00038
323.15	0.7729	0.00842	0.00051
323.15	0.8852	0.01299	0.00079
323.15	1	0.02032	0.00123
