Measured thermophysical data. Mixing properties of binary mixtures presenting azeotropes at several temperatures
Source: J. Chem. Thermodyn., 2007, 10.1016/j.jct.2007.02.008
Compound 1: ethanol, C2H6O, InChI=1S/C2H6O/c1-2-3/h3H,2H2,1H3, purity 99.8%
Compound 2: butanone, C4H8O, InChI=1S/C4H8O/c1-3-4(2)5/h3H2,1-2H3, purity 99.5%
Compound 3: propan-2-ol, C3H8O, InChI=1S/C3H8O/c1-3(2)4/h3-4H,1-2H3, purity 99.7%
Compound 4: hexane, C6H14, InChI=1S/C6H14/c1-3-5-6-4-2/h3-6H2,1-2H3, purity 99%
Compound 5: ethyl acetate, C4H8O2, InChI=1S/C4H8O2/c1-3-6-4(2)5/h3H2,1-2H3, purity 99.8%
Compound 6: cyclohexane, C6H12, InChI=1S/C6H12/c1-2-4-6-5-3-1/h1-6H2, purity 99.8%
Compound 7: heptane, C7H16, InChI=1S/C7H16/c1-3-5-7-6-4-2/h3-7H2,1-2H3, purity 99%

System: ethanol; phases: Liquid
Fixed: Pressure, kPa = 101.325
Property: Refractive index (Na D-line) (Liquid); method: Standard Abbe refractometry
Temperature, K	Refractive index (Na D-line)	uncertainty
293.15	1.36138	0.00052
298.15	1.35929	0.00052
303.15	1.35725	0.00051

System: ethanol; phases: Liquid
Fixed: Pressure, kPa = 101
Property: Speed of sound, m/s (Liquid); method: Sing-around technique in a fixed-path interferometer
Temperature, K	Speed of sound, m/s	uncertainty
293.15	1160	2
298.15	1143	2
303.15	1127	2

System: ethanol; phases: Liquid
Fixed: Pressure, kPa = 101
Property: Mass density, kg/m3 (Liquid); method: VIBTUB:UFactor:4
Temperature, K	Mass density, kg/m3	uncertainty
293.15	789.3	0.6
298.15	785.1	0.6
303.15	780.7	0.6

System: butanone; phases: Liquid
Fixed: Pressure, kPa = 101.325
Property: Refractive index (Na D-line) (Liquid); method: Standard Abbe refractometry
Temperature, K	Refractive index (Na D-line)	uncertainty
293.15	1.37879	0.00062
298.15	1.37618	0.00062
303.15	1.37355	0.00062

System: butanone; phases: Liquid
Fixed: Pressure, kPa = 101
Property: Speed of sound, m/s (Liquid); method: Sing-around technique in a fixed-path interferometer
Temperature, K	Speed of sound, m/s	uncertainty
293.15	1212	2
298.15	1192	2
303.15	1163	2

System: butanone; phases: Liquid
Fixed: Pressure, kPa = 101
Property: Mass density, kg/m3 (Liquid); method: VIBTUB::UFactor:4
Temperature, K	Mass density, kg/m3	uncertainty
293.15	805.6	0.6
298.15	799.7	0.6
303.15	794.9	0.6

System: propan-2-ol; phases: Liquid
Fixed: Pressure, kPa = 101.325
Property: Refractive index (Na D-line) (Liquid); method: Standard Abbe refractometry
Temperature, K	Refractive index (Na D-line)	uncertainty
293.15	1.37707	0.00053
298.15	1.37496	0.00053
303.15	1.37278	0.00054

System: propan-2-ol; phases: Liquid
Fixed: Pressure, kPa = 101
Property: Speed of sound, m/s (Liquid); method: Sing-around technique in a fixed-path interferometer
Temperature, K	Speed of sound, m/s	uncertainty
293.15	1156	2
298.15	1139	2
303.15	1121	2

System: propan-2-ol; phases: Liquid
Fixed: Pressure, kPa = 101
Property: Mass density, kg/m3 (Liquid); method: VIBTUB:UFactor:4
Temperature, K	Mass density, kg/m3	uncertainty
293.15	785	0.6
298.15	781	0.6
303.15	776.6	0.6

System: hexane; phases: Liquid
Fixed: Pressure, kPa = 101.325
Property: Refractive index (Na D-line) (Liquid); method: Standard Abbe refractometry
Temperature, K	Refractive index (Na D-line)	uncertainty
293.15	1.37495	0.00067
298.15	1.37217	0.00067
303.15	1.36936	0.00067

System: hexane; phases: Liquid
Fixed: Pressure, kPa = 101
Property: Speed of sound, m/s (Liquid); method: Sing-around technique in a fixed-path interferometer
Temperature, K	Speed of sound, m/s	uncertainty
293.15	1100	2
298.15	1078	2
303.15	1055	2

System: hexane; phases: Liquid
Fixed: Pressure, kPa = 101
Property: Mass density, kg/m3 (Liquid); method: VIBTUB::UFactor:4
Temperature, K	Mass density, kg/m3	uncertainty
293.15	659.5	0.8
298.15	654.9	0.8
303.15	650.4	0.8

System: ethyl acetate; phases: Liquid
Fixed: Pressure, kPa = 101.325
Property: Refractive index (Na D-line) (Liquid); method: Standard Abbe refractometry
Temperature, K	Refractive index (Na D-line)	uncertainty
293.15	1.37241	0.00061
298.15	1.36977	0.00061
303.15	1.36712	0.00062

System: ethyl acetate; phases: Liquid
Fixed: Pressure, kPa = 101
Property: Speed of sound, m/s (Liquid); method: Sing-around technique in a fixed-path interferometer
Temperature, K	Speed of sound, m/s	uncertainty
293.15	1162	2
298.15	1141	2
303.15	1111	2

System: ethyl acetate; phases: Liquid
Fixed: Pressure, kPa = 101
Property: Mass density, kg/m3 (Liquid); method: VIBTUB::UFactor:4
Temperature, K	Mass density, kg/m3	uncertainty
293.15	900.5	0.5
298.15	894.4	0.5
303.15	888.2	0.5

System: cyclohexane; phases: Liquid
Fixed: Pressure, kPa = 101.325
Property: Refractive index (Na D-line) (Liquid); method: Standard Abbe refractometry
Temperature, K	Refractive index (Na D-line)	uncertainty
293.15	1.42633	0.00064
298.15	1.42354	0.00064
303.15	1.42073	0.00064

System: cyclohexane; phases: Liquid
Fixed: Pressure, kPa = 101
Property: Speed of sound, m/s (Liquid); method: Sing-around technique in a fixed-path interferometer
Temperature, K	Speed of sound, m/s	uncertainty
293.15	1279	2
298.15	1256	2
303.15	1219	2

System: cyclohexane; phases: Liquid
Fixed: Pressure, kPa = 101
Property: Mass density, kg/m3 (Liquid); method: VIBTUB::UFactor:4
Temperature, K	Mass density, kg/m3	uncertainty
293.15	778.4	0.6
298.15	773.8	0.6
303.15	769	0.6

System: heptane; phases: Liquid
Fixed: Pressure, kPa = 101.325
Property: Refractive index (Na D-line) (Liquid); method: Standard Abbe refractometry
Temperature, K	Refractive index (Na D-line)	uncertainty
293.15	1.38776	0.00064
298.15	1.38517	0.00064
303.15	1.38258	0.00064

System: heptane; phases: Liquid
Fixed: Pressure, kPa = 101
Property: Speed of sound, m/s (Liquid); method: Sing-around technique in a fixed-path interferometer
Temperature, K	Speed of sound, m/s	uncertainty
293.15	1153	2
298.15	1131	2
303.15	1110	2

System: heptane; phases: Liquid
Fixed: Pressure, kPa = 101
Property: Mass density, kg/m3 (Liquid); method: VIBTUB::UFactor:4
Temperature, K	Mass density, kg/m3	uncertainty
293.15	683.7	0.8
298.15	679.5	0.8
303.15	675.2	0.8

System: ethanol + hexane; phases: Liquid
Fixed: Pressure, kPa = 101
Property: Refractive index (Na D-line) (Liquid); method: Standard Abbe refractometry
Temperature, K	Mole fraction of ethanol	Refractive index (Na D-line)	uncertainty
293.15	0	1.37495	0.00067
293.15	0.0469	1.37435	0.00066
293.15	0.1003	1.37368	0.00066
293.15	0.2004	1.37257	0.00066
293.15	0.308	1.3714	0.00064
293.15	0.3987	1.37037	0.00063
293.15	0.4999	1.36914	0.00061
293.15	0.6038	1.36775	0.00059
293.15	0.6769	1.36664	0.00059
293.15	0.7992	1.36469	0.00056
293.15	0.9007	1.36299	0.00054
293.15	0.9505	1.36213	0.00054
293.15	1	1.36138	0.00052
298.15	0	1.37217	0.00067
298.15	0.0469	1.37158	0.00066
298.15	0.1003	1.37096	0.00066
298.15	0.2004	1.36981	0.00065
298.15	0.308	1.36866	0.00064
298.15	0.3987	1.36768	0.00064
298.15	0.4999	1.36652	0.00063
298.15	0.6038	1.36522	0.00061
298.15	0.6769	1.36417	0.0006
298.15	0.7992	1.36235	0.00057
298.15	0.9007	1.36076	0.00054
298.15	0.9505	1.35999	0.00053
298.15	1	1.35929	0.00052
303.15	0	1.36936	0.00067
303.15	0.0469	1.3688	0.00066
303.15	0.1003	1.36821	0.00066
303.15	0.2004	1.36711	0.00064
303.15	0.308	1.36595	0.00064
303.15	0.3987	1.36494	0.00064
303.15	0.4999	1.36384	0.00064
303.15	0.6038	1.3626	0.00062
303.15	0.6769	1.36164	0.0006
303.15	0.7992	1.35999	0.00057
303.15	0.9007	1.3586	0.00054
303.15	0.9505	1.35791	0.00052
303.15	1	1.35725	0.00051

System: ethanol + hexane; phases: Liquid
Fixed: Pressure, kPa = 101
Property: Speed of sound, m/s (Liquid); method: Sing-around technique in a fixed-path interferometer
Temperature, K	Mole fraction of ethanol	Speed of sound, m/s	uncertainty
293.15	0	1100	2
293.15	0.0469	1095	2
293.15	0.1003	1093	2
293.15	0.2004	1091	2
293.15	0.308	1091	2
293.15	0.3987	1092	2
293.15	0.4999	1095	2
293.15	0.6038	1099	2
293.15	0.6769	1104	2
293.15	0.7992	1117	2
293.15	0.9007	1134	2
293.15	0.9505	1145	2
293.15	1	1160	2
298.15	0	1078	2
298.15	0.0469	1073	2
298.15	0.1003	1071	2
298.15	0.2004	1069	2
298.15	0.308	1069	2
298.15	0.3987	1070	2
298.15	0.4999	1073	2
298.15	0.6038	1078	2
298.15	0.6769	1084	2
298.15	0.7992	1097	2
298.15	0.9007	1115	2
298.15	0.9505	1128	2
298.15	1	1143	2
303.15	0	1055	2
303.15	0.0469	1050	2
303.15	0.1003	1048	2
303.15	0.2004	1046	2
303.15	0.308	1046	2
303.15	0.3987	1048	2
303.15	0.4999	1052	2
303.15	0.6038	1058	2
303.15	0.6769	1063	2
303.15	0.7992	1078	2
303.15	0.9007	1097	2
303.15	0.9505	1110	2
303.15	1	1127	2

System: ethanol + hexane; phases: Liquid
Fixed: Pressure, kPa = 101
Property: Mass density, kg/m3 (Liquid); method: VIBTUB:UFactor:4
Temperature, K	Mole fraction of ethanol	Mass density, kg/m3	uncertainty
293.15	0	659.5	0.8
293.15	0.0469	661.5	0.8
293.15	0.1003	664.4	0.8
293.15	0.2004	670.7	0.8
293.15	0.308	678.7	0.7
293.15	0.3987	686.5	0.7
293.15	0.4999	696.7	0.7
293.15	0.6038	709.1	0.7
293.15	0.6769	719.3	0.7
293.15	0.7992	739.9	0.6
293.15	0.9007	761.8	0.6
293.15	0.9505	774.9	0.6
293.15	1	789.3	0.6
298.15	0	654.9	0.8
298.15	0.0469	656.9	0.8
298.15	0.1003	659.8	0.8
298.15	0.2004	666	0.8
298.15	0.308	674.1	0.7
298.15	0.3987	681.9	0.7
298.15	0.4999	692.1	0.7
298.15	0.6038	704.6	0.7
298.15	0.6769	714.8	0.7
298.15	0.7992	735.5	0.6
298.15	0.9007	757.5	0.6
298.15	0.9505	770.6	0.6
298.15	1	785.1	0.6
303.15	0	650.4	0.8
303.15	0.0469	652.2	0.8
303.15	0.1003	655.1	0.8
303.15	0.2004	661.4	0.8
303.15	0.308	669.4	0.8
303.15	0.3987	677.2	0.7
303.15	0.4999	687.4	0.7
303.15	0.6038	700	0.7
303.15	0.6769	710.2	0.7
303.15	0.7992	731	0.7
303.15	0.9007	753.1	0.6
303.15	0.9505	766.2	0.6
303.15	1	780.7	0.6

System: ethanol + heptane; phases: Liquid
Fixed: Pressure, kPa = 101
Property: Refractive index (Na D-line) (Liquid); method: Standard Abbe refractometry
Temperature, K	Mole fraction of ethanol	Refractive index (Na D-line)	uncertainty
293.15	0	1.38776	0.00064
293.15	0.0327	1.38711	0.00065
293.15	0.0941	1.38615	0.00062
293.15	0.1993	1.38438	0.00062
293.15	0.3015	1.38245	0.00062
293.15	0.3967	1.38069	0.00061
293.15	0.498	1.37853	0.00061
293.15	0.5896	1.37629	0.00059
293.15	0.6993	1.37318	0.00056
293.15	0.8002	1.36993	0.00052
293.15	0.902	1.36565	0.00054
293.15	0.9502	1.36364	0.00052
293.15	1	1.36138	0.00052
298.15	0	1.38517	0.00064
298.15	0.0327	1.3845	0.00064
298.15	0.0941	1.38358	0.00063
298.15	0.1993	1.38177	0.00062
298.15	0.3015	1.37989	0.00061
298.15	0.3967	1.37804	0.00061
298.15	0.498	1.3759	0.00061
298.15	0.5896	1.37373	0.0006
298.15	0.6993	1.37077	0.00059
298.15	0.8002	1.36751	0.00057
298.15	0.902	1.36349	0.00054
298.15	0.9502	1.36152	0.00053
298.15	1	1.35929	0.00052
303.15	0	1.38258	0.00064
303.15	0.0327	1.38189	0.00062
303.15	0.0941	1.381	0.00064
303.15	0.1993	1.37922	0.00062
303.15	0.3015	1.37742	0.00061
303.15	0.3967	1.37561	0.00061
303.15	0.498	1.3734	0.00061
303.15	0.5896	1.37124	0.00062
303.15	0.6993	1.36826	0.00062
303.15	0.8002	1.36516	0.00061
303.15	0.902	1.36131	0.00055
303.15	0.9502	1.35935	0.00054
303.15	1	1.35725	0.00051

System: ethanol + heptane; phases: Liquid
Fixed: Pressure, kPa = 101
Property: Speed of sound, m/s (Liquid); method: Sing-around technique in a fixed-path interferometer
Temperature, K	Mole fraction of ethanol	Speed of sound, m/s	uncertainty
293.15	0	1153	2
293.15	0.0327	1148	2
293.15	0.0941	1145	2
293.15	0.1993	1140	2
293.15	0.3015	1137	2
293.15	0.3967	1135	2
293.15	0.498	1133	2
293.15	0.5896	1133	2
293.15	0.6993	1133	2
293.15	0.8002	1136	2
293.15	0.902	1143	2
293.15	0.9502	1150	2
293.15	1	1160	2
298.15	0	1131	2
298.15	0.0327	1127	2
298.15	0.0941	1123	2
298.15	0.1993	1119	2
298.15	0.3015	1116	2
298.15	0.3967	1114	2
298.15	0.498	1113	2
298.15	0.5896	1112	2
298.15	0.6993	1113	2
298.15	0.8002	1117	2
298.15	0.902	1125	2
298.15	0.9502	1133	2
298.15	1	1143	2
303.15	0	1110	2
303.15	0.0327	1105	2
303.15	0.0941	1101	2
303.15	0.1993	1097	2
303.15	0.3015	1094	2
303.15	0.3967	1093	2
303.15	0.498	1092	2
303.15	0.5896	1092	2
303.15	0.6993	1094	2
303.15	0.8002	1098	2
303.15	0.902	1108	2
303.15	0.9502	1115	2
303.15	1	1127	2

System: ethanol + heptane; phases: Liquid
Fixed: Pressure, kPa = 101
Property: Mass density, kg/m3 (Liquid); method: VIBTUB:UFactor:4
Temperature, K	Mole fraction of ethanol	Mass density, kg/m3	uncertainty
293.15	0	683.7	0.8
293.15	0.0327	684.6	0.8
293.15	0.0941	686.8	0.8
293.15	0.1993	691.4	0.7
293.15	0.3015	696.9	0.7
293.15	0.3967	702.9	0.7
293.15	0.498	710.5	0.7
293.15	0.5896	718.8	0.7
293.15	0.6993	731.1	0.7
293.15	0.8002	745.3	0.6
293.15	0.902	764.3	0.6
293.15	0.9502	775.6	0.6
293.15	1	789.3	0.6
298.15	0	679.5	0.8
298.15	0.0327	680.3	0.8
298.15	0.0941	682.4	0.8
298.15	0.1993	687	0.7
298.15	0.3015	692.5	0.7
298.15	0.3967	698.5	0.7
298.15	0.498	706.2	0.7
298.15	0.5896	714.4	0.7
298.15	0.6993	726.7	0.7
298.15	0.8002	741	0.6
298.15	0.902	760	0.6
298.15	0.9502	771.3	0.6
298.15	1	785.1	0.6
303.15	0	675.2	0.8
303.15	0.0327	675.9	0.8
303.15	0.0941	678.1	0.8
303.15	0.1993	682.6	0.7
303.15	0.3015	688	0.7
303.15	0.3967	694	0.7
303.15	0.498	701.7	0.7
303.15	0.5896	709.9	0.7
303.15	0.6993	722.2	0.7
303.15	0.8002	736.6	0.6
303.15	0.902	755.6	0.6
303.15	0.9502	766.9	0.6
303.15	1	780.7	0.6

System: ethanol + butanone; phases: Liquid
Fixed: Pressure, kPa = 101
Property: Refractive index (Na D-line) (Liquid); method: Standard Abbe refractometry
Temperature, K	Mole fraction of ethanol	Refractive index (Na D-line)	uncertainty
293.15	0	1.37879	0.00062
293.15	0.0497	1.37842	0.00061
293.15	0.0983	1.37793	0.00061
293.15	0.1983	1.37689	0.00059
293.15	0.2956	1.37568	0.00059
293.15	0.4006	1.37432	0.00057
293.15	0.5012	1.37277	0.00056
293.15	0.6063	1.3709	0.00055
293.15	0.7002	1.36899	0.00054
293.15	0.7995	1.3667	0.00054
293.15	0.8994	1.36426	0.00053
293.15	0.9518	1.36288	0.00052
293.15	1	1.36138	0.00052
298.15	0	1.37618	0.00062
298.15	0.0497	1.37581	0.00061
298.15	0.0983	1.37531	0.00061
298.15	0.1983	1.37433	0.00061
298.15	0.2956	1.37317	0.0006
298.15	0.4006	1.37187	0.00058
298.15	0.5012	1.37038	0.00057
298.15	0.6063	1.36854	0.00057
298.15	0.7002	1.36669	0.00056
298.15	0.7995	1.36446	0.00055
298.15	0.8994	1.36206	0.00054
298.15	0.9518	1.3607	0.00053
298.15	1	1.35929	0.00052
303.15	0	1.37355	0.00062
303.15	0.0497	1.37321	0.00062
303.15	0.0983	1.37274	0.00061
303.15	0.1983	1.37173	0.00062
303.15	0.2956	1.37064	0.0006
303.15	0.4006	1.36942	0.0006
303.15	0.5012	1.36798	0.00059
303.15	0.6063	1.36621	0.00058
303.15	0.7002	1.36438	0.00057
303.15	0.7995	1.36221	0.00056
303.15	0.8994	1.35991	0.00054
303.15	0.9518	1.35859	0.00053
303.15	1	1.35725	0.00051

System: ethanol + butanone; phases: Liquid
Fixed: Pressure, kPa = 101
Property: Speed of sound, m/s (Liquid); method: Sing-around technique in a fixed-path interferometer
Temperature, K	Mole fraction of ethanol	Speed of sound, m/s	uncertainty
293.15	0	1212	2
293.15	0.0497	1214	2
293.15	0.0983	1213	2
293.15	0.1983	1210	2
293.15	0.2956	1206	2
293.15	0.4006	1202	2
293.15	0.5012	1197	2
293.15	0.6063	1193	2
293.15	0.7002	1187	2
293.15	0.7995	1180	2
293.15	0.8994	1172	2
293.15	0.9518	1166	2
293.15	1	1160	2
298.15	0	1192	2
298.15	0.0497	1192	2
298.15	0.0983	1192	2
298.15	0.1983	1189	2
298.15	0.2956	1186	2
298.15	0.4006	1182	2
298.15	0.5012	1177	2
298.15	0.6063	1173	2
298.15	0.7002	1168	2
298.15	0.7995	1162	2
298.15	0.8994	1154	2
298.15	0.9518	1149	2
298.15	1	1143	2
303.15	0	1163	2
303.15	0.0497	1162	2
303.15	0.0983	1162	2
303.15	0.1983	1161	2
303.15	0.2956	1159	2
303.15	0.4006	1156	2
303.15	0.5012	1153	2
303.15	0.6063	1150	2
303.15	0.7002	1147	2
303.15	0.7995	1142	2
303.15	0.8994	1136	2
303.15	0.9518	1131	2
303.15	1	1127	2

System: ethanol + butanone; phases: Liquid
Fixed: Pressure, kPa = 101
Property: Mass density, kg/m3 (Liquid); method: VIBTUB:UFactor:4
Temperature, K	Mole fraction of ethanol	Mass density, kg/m3	uncertainty
293.15	0	805.6	0.6
293.15	0.0497	805.2	0.6
293.15	0.0983	804.8	0.6
293.15	0.1983	803.8	0.6
293.15	0.2956	802.7	0.6
293.15	0.4006	801.4	0.6
293.15	0.5012	800	0.6
293.15	0.6063	798.4	0.6
293.15	0.7002	796.8	0.6
293.15	0.7995	794.8	0.6
293.15	0.8994	792.4	0.6
293.15	0.9518	790.9	0.6
293.15	1	789.3	0.6
298.15	0	799.7	0.6
298.15	0.0497	799.4	0.6
298.15	0.0983	799	0.6
298.15	0.1983	798	0.6
298.15	0.2956	797.1	0.6
298.15	0.4006	795.9	0.6
298.15	0.5012	794.7	0.6
298.15	0.6063	793.3	0.6
298.15	0.7002	791.9	0.6
298.15	0.7995	790	0.6
298.15	0.8994	787.9	0.6
298.15	0.9518	786.5	0.6
298.15	1	785.1	0.6
303.15	0	794.9	0.6
303.15	0.0497	794.5	0.6
303.15	0.0983	794.2	0.6
303.15	0.1983	793.3	0.6
303.15	0.2956	792.3	0.6
303.15	0.4006	791.2	0.6
303.15	0.5012	790.1	0.6
303.15	0.6063	788.7	0.6
303.15	0.7002	787.3	0.6
303.15	0.7995	785.5	0.6
303.15	0.8994	783.4	0.6
303.15	0.9518	782.1	0.6
303.15	1	780.7	0.6

System: propan-2-ol + butanone; phases: Liquid
Fixed: Pressure, kPa = 101
Property: Refractive index (Na D-line) (Liquid); method: Standard Abbe refractometry
Temperature, K	Mole fraction of propan-2-ol	Refractive index (Na D-line)	uncertainty
293.15	0	1.37879	0.00062
293.15	0.0472	1.37865	0.00061
293.15	0.0967	1.37848	0.00061
293.15	0.1949	1.37813	0.00061
293.15	0.2887	1.37787	0.00061
293.15	0.4012	1.37763	0.00059
293.15	0.5021	1.37745	0.00058
293.15	0.5972	1.37733	0.00057
293.15	0.698	1.3772	0.00057
293.15	0.7992	1.37717	0.00056
293.15	0.898	1.37713	0.00055
293.15	0.9506	1.3771	0.00053
293.15	1	1.37707	0.00053
298.15	0	1.37618	0.00062
298.15	0.0472	1.37604	0.00062
298.15	0.0967	1.37589	0.00061
298.15	0.1949	1.37555	0.00061
298.15	0.2887	1.37533	0.0006
298.15	0.4012	1.37517	0.00059
298.15	0.5021	1.37504	0.00058
298.15	0.5972	1.37494	0.00058
298.15	0.698	1.37486	0.00057
298.15	0.7992	1.37488	0.00056
298.15	0.898	1.3749	0.00055
298.15	0.9506	1.37495	0.00054
298.15	1	1.37496	0.00053
303.15	0	1.37355	0.00062
303.15	0.0472	1.3734	0.00062
303.15	0.0967	1.37328	0.00062
303.15	0.1949	1.37299	0.0006
303.15	0.2887	1.37279	0.00059
303.15	0.4012	1.37268	0.00059
303.15	0.5021	1.37259	0.00058
303.15	0.5972	1.37252	0.00058
303.15	0.698	1.37248	0.00057
303.15	0.7992	1.37257	0.00056
303.15	0.898	1.37267	0.00055
303.15	0.9506	1.37273	0.00055
303.15	1	1.37278	0.00054

System: propan-2-ol + butanone; phases: Liquid
Fixed: Pressure, kPa = 101
Property: Speed of sound, m/s (Liquid); method: Sing-around technique in a fixed-path interferometer
Temperature, K	Mole fraction of propan-2-ol	Speed of sound, m/s	uncertainty
293.15	0	1212	2
293.15	0.0472	1210	2
293.15	0.0967	1208	2
293.15	0.1949	1203	2
293.15	0.2887	1198	2
293.15	0.4012	1192	2
293.15	0.5021	1187	2
293.15	0.5972	1181	2
293.15	0.698	1176	2
293.15	0.7992	1169	2
293.15	0.898	1163	2
293.15	0.9506	1160	2
293.15	1	1156	2
298.15	0	1192	2
298.15	0.0472	1190	2
298.15	0.0967	1188	2
298.15	0.1949	1184	2
298.15	0.2887	1179	2
298.15	0.4012	1173	2
298.15	0.5021	1168	2
298.15	0.5972	1163	2
298.15	0.698	1157	2
298.15	0.7992	1152	2
298.15	0.898	1146	2
298.15	0.9506	1143	2
298.15	1	1139	2
303.15	0	1163	2
303.15	0.0472	1161	2
303.15	0.0967	1160	2
303.15	0.1949	1156	2
303.15	0.2887	1153	2
303.15	0.4012	1148	2
303.15	0.5021	1144	2
303.15	0.5972	1140	2
303.15	0.698	1136	2
303.15	0.7992	1131	2
303.15	0.898	1127	2
303.15	0.9506	1124	2
303.15	1	1121	2

System: propan-2-ol + butanone; phases: Liquid
Fixed: Pressure, kPa = 101
Property: Mass density, kg/m3 (Liquid); method: VIBTUB:UFactor:4
Temperature, K	Mole fraction of propan-2-ol	Mass density, kg/m3	uncertainty
293.15	0	805.6	0.6
293.15	0.0472	804.5	0.6
293.15	0.0967	803.2	0.6
293.15	0.1949	800.8	0.6
293.15	0.2887	798.6	0.6
293.15	0.4012	796.1	0.6
293.15	0.5021	793.9	0.6
293.15	0.5972	792	0.6
293.15	0.698	790.1	0.6
293.15	0.7992	788.3	0.6
293.15	0.898	786.7	0.6
293.15	0.9506	785.8	0.6
293.15	1	785	0.6
298.15	0	799.7	0.6
298.15	0.0472	798.6	0.6
298.15	0.0967	797.4	0.6
298.15	0.1949	795.1	0.6
298.15	0.2887	793.1	0.6
298.15	0.4012	790.8	0.6
298.15	0.5021	788.8	0.6
298.15	0.5972	787.1	0.6
298.15	0.698	785.3	0.6
298.15	0.7992	783.8	0.6
298.15	0.898	782.4	0.6
298.15	0.9506	781.7	0.6
298.15	1	781	0.6
303.15	0	794.9	0.6
303.15	0.0472	793.4	0.6
303.15	0.0967	792.2	0.6
303.15	0.1949	790	0.6
303.15	0.2887	788	1
303.15	0.4012	785.8	0.6
303.15	0.5021	783.9	0.6
303.15	0.5972	782.2	0.6
303.15	0.698	780.5	0.6
303.15	0.7992	779.1	0.6
303.15	0.898	777.8	0.6
303.15	0.9506	777.1	0.6
303.15	1	776.6	0.6

System: propan-2-ol + ethyl acetate; phases: Liquid
Fixed: Pressure, kPa = 101
Property: Refractive index (Na D-line) (Liquid); method: Standard Abbe refractometry
Temperature, K	Mole fraction of propan-2-ol	Refractive index (Na D-line)	uncertainty
293.15	0	1.37241	0.00061
293.15	0.0475	1.37229	0.00062
293.15	0.0945	1.37219	0.00062
293.15	0.1954	1.37209	0.00062
293.15	0.2986	1.37218	0.00062
293.15	0.3908	1.3724	0.00061
293.15	0.4948	1.37278	0.0006
293.15	0.5967	1.37326	0.00059
293.15	0.6937	1.37387	0.00058
293.15	0.8006	1.37474	0.00057
293.15	0.8994	1.37578	0.00056
293.15	0.9507	1.3764	0.00054
293.15	1	1.37707	0.00053
298.15	0	1.36977	0.00061
298.15	0.0475	1.36961	0.00062
298.15	0.0945	1.36951	0.00062
298.15	0.1954	1.36945	0.00061
298.15	0.2986	1.36956	0.00061
298.15	0.3908	1.36981	0.0006
298.15	0.4948	1.37026	0.00059
298.15	0.5967	1.37084	0.00058
298.15	0.6937	1.3715	0.00058
298.15	0.8006	1.37242	0.00057
298.15	0.8994	1.3735	0.00055
298.15	0.9507	1.37421	0.00054
298.15	1	1.37496	0.00053
303.15	0	1.36712	0.00062
303.15	0.0475	1.36699	0.00061
303.15	0.0945	1.36686	0.00061
303.15	0.1954	1.3668	0.0006
303.15	0.2986	1.36697	0.0006
303.15	0.3908	1.36727	0.00059
303.15	0.4948	1.36776	0.00058
303.15	0.5967	1.36836	0.00058
303.15	0.6937	1.36903	0.00057
303.15	0.8006	1.37002	0.00056
303.15	0.8994	1.37125	0.00054
303.15	0.9507	1.37198	0.00054
303.15	1	1.37278	0.00054

System: propan-2-ol + ethyl acetate; phases: Liquid
Fixed: Pressure, kPa = 101
Property: Speed of sound, m/s (Liquid); method: Sing-around technique in a fixed-path interferometer
Temperature, K	Mole fraction of propan-2-ol	Speed of sound, m/s	uncertainty
293.15	0	1162	2
293.15	0.0475	1160	2
293.15	0.0945	1158	2
293.15	0.1954	1154	2
293.15	0.2986	1150	2
293.15	0.3908	1147	2
293.15	0.4948	1145	2
293.15	0.5967	1145	2
293.15	0.6937	1146	2
293.15	0.8006	1148	2
293.15	0.8994	1151	2
293.15	0.9507	1153	2
293.15	1	1156	2
298.15	0	1141	2
298.15	0.0475	1138	2
298.15	0.0945	1136	2
298.15	0.1954	1132	2
298.15	0.2986	1129	2
298.15	0.3908	1126	2
298.15	0.4948	1125	2
298.15	0.5967	1126	2
298.15	0.6937	1127	2
298.15	0.8006	1129	2
298.15	0.8994	1133	2
298.15	0.9507	1136	2
298.15	1	1139	2
303.15	0	1111	2
303.15	0.0475	1109	2
303.15	0.0945	1107	2
303.15	0.1954	1104	2
303.15	0.2986	1102	2
303.15	0.3908	1101	2
303.15	0.4948	1102	2
303.15	0.5967	1103	2
303.15	0.6937	1105	2
303.15	0.8006	1108	2
303.15	0.8994	1113	2
303.15	0.9507	1116	2
303.15	1	1121	2

System: propan-2-ol + ethyl acetate; phases: Liquid
Fixed: Pressure, kPa = 101
Property: Mass density, kg/m3 (Liquid); method: VIBTUB:UFactor:4
Temperature, K	Mole fraction of propan-2-ol	Mass density, kg/m3	uncertainty
293.15	0	900.5	0.5
293.15	0.0475	895.2	0.5
293.15	0.0945	890.1	0.5
293.15	0.1954	879	0.5
293.15	0.2986	867.8	0.5
293.15	0.3908	857.6	0.5
293.15	0.4948	845.9	0.5
293.15	0.5967	834	0.5
293.15	0.6937	822.6	0.6
293.15	0.8006	809.6	0.6
293.15	0.8994	797.6	0.6
293.15	0.9507	791.2	0.6
293.15	1	785	0.6
298.15	0	894.4	0.5
298.15	0.0475	889.2	0.5
298.15	0.0945	884.1	0.5
298.15	0.1954	873.1	0.5
298.15	0.2986	862	0.5
298.15	0.3908	852	0.5
298.15	0.4948	840.5	0.5
298.15	0.5967	828.8	0.5
298.15	0.6937	817.6	0.6
298.15	0.8006	804.9	0.6
298.15	0.8994	793.1	0.6
298.15	0.9507	786.9	0.6
298.15	1	781	0.6
303.15	0	888.2	0.5
303.15	0.0475	882.9	0.5
303.15	0.0945	877.8	0.5
303.15	0.1954	867	0.5
303.15	0.2986	856.1	0.5
303.15	0.3908	846.3	0.5
303.15	0.4948	835	0.5
303.15	0.5967	823.5	0.6
303.15	0.6937	812.5	0.6
303.15	0.8006	800	0.6
303.15	0.8994	788.5	0.6
303.15	0.9507	782.4	0.6
303.15	1	776.6	0.6

System: propan-2-ol + cyclohexane; phases: Liquid
Fixed: Pressure, kPa = 101
Property: Refractive index (Na D-line) (Liquid); method: Standard Abbe refractometry
Temperature, K	Mole fraction of propan-2-ol	Refractive index (Na D-line)	uncertainty
293.15	0	1.42633	0.00064
293.15	0.0501	1.42384	0.00065
293.15	0.098	1.42156	0.00066
293.15	0.1962	1.416987	0.000675
293.15	0.2999	1.41232	0.00068
293.15	0.3985	1.40774	0.00065
293.15	0.4961	1.40315	0.00063
293.15	0.6033	1.39808	0.00062
293.15	0.7017	1.39319	0.00061
293.15	0.8	1.38808	0.00058
293.15	0.8892	1.38336	0.00055
293.15	0.9531	1.379786	0.000545
293.15	1	1.37707	0.00053
298.15	0	1.42354	0.00064
298.15	0.0501	1.421032	0.00064
298.15	0.098	1.4187	0.00065
298.15	0.1962	1.41405	0.00066
298.15	0.2999	1.40925	0.00067
298.15	0.3985	1.40488	0.00066
298.15	0.4961	1.40042	0.00065
298.15	0.6033	1.39535	0.00064
298.15	0.7017	1.39053	0.00062
298.15	0.8	1.385631	0.000591
298.15	0.8892	1.38105	0.00057
298.15	0.9531	1.37753	0.00055
298.15	1	1.37496	0.00053
303.15	0	1.42073	0.00064
303.15	0.0501	1.418259	0.000638
303.15	0.098	1.41588	0.00064
303.15	0.1962	1.41121	0.00064
303.15	0.2999	1.40643	0.00064
303.15	0.3985	1.40196	0.00067
303.15	0.4961	1.39748	0.00067
303.15	0.6033	1.39246	0.00066
303.15	0.7017	1.38783	0.00063
303.15	0.8	1.383082	0.000607
303.15	0.8892	1.37864	0.00059
303.15	0.9531	1.37531	0.00055
303.15	1	1.37278	0.00054

System: propan-2-ol + cyclohexane; phases: Liquid
Fixed: Pressure, kPa = 101
Property: Speed of sound, m/s (Liquid); method: Sing-around technique in a fixed-path interferometer
Temperature, K	Mole fraction of propan-2-ol	Speed of sound, m/s	uncertainty
293.15	0	1279	2
293.15	0.0501	1264	2
293.15	0.098	1254	2
293.15	0.1962	1237	2
293.15	0.2999	1223	2
293.15	0.3985	1210	2
293.15	0.4961	1200	2
293.15	0.6033	1189	2
293.15	0.7017	1180	2
293.15	0.8	1171	2
293.15	0.8892	1164	2
293.15	0.9531	1160	2
293.15	1	1156	2
298.15	0	1256	2
298.15	0.0501	1240	2
298.15	0.098	1231	2
298.15	0.1962	1214	2
298.15	0.2999	1200	2
298.15	0.3985	1188	2
298.15	0.4961	1178	2
298.15	0.6033	1167	2
298.15	0.7017	1159	2
298.15	0.8	1152	2
298.15	0.8892	1145	2
298.15	0.9531	1141	2
298.15	1	1139	2
303.15	0	1219	2
303.15	0.0501	1205	2
303.15	0.098	1196	2
303.15	0.1962	1182	2
303.15	0.2999	1169	2
303.15	0.3985	1159	2
303.15	0.4961	1150	2
303.15	0.6033	1143	2
303.15	0.7017	1136	2
303.15	0.8	1130	2
303.15	0.8892	1125	2
303.15	0.9531	1122	2
303.15	1	1121	2

System: propan-2-ol + cyclohexane; phases: Liquid
Fixed: Pressure, kPa = 101
Property: Mass density, kg/m3 (Liquid); method: VIBTUB:UFactor:4
Temperature, K	Mole fraction of propan-2-ol	Mass density, kg/m3	uncertainty
293.15	0	778.4	0.6
293.15	0.0501	777.5	0.6
293.15	0.098	776.9	0.6
293.15	0.1962	776.2	0.6
293.15	0.2999	775.9	0.6
293.15	0.3985	776.1	0.6
293.15	0.4961	776.7	0.6
293.15	0.6033	777.7	0.6
293.15	0.7017	778.9	0.6
293.15	0.8	780.6	0.6
293.15	0.8892	782.4	0.6
293.15	0.9531	783.9	0.6
293.15	1	785	0.6
298.15	0	773.8	0.6
298.15	0.0501	772.7	0.6
298.15	0.098	772.1	0.6
298.15	0.1962	771.3	0.6
298.15	0.2999	771.1	0.6
298.15	0.3985	771.3	0.6
298.15	0.4961	771.9	0.6
298.15	0.6033	773	0.6
298.15	0.7017	774.3	0.6
298.15	0.8	776.1	0.6
298.15	0.8892	778	0.6
298.15	0.9531	779.6	0.6
298.15	1	781	0.6
303.15	0	769	0.6
303.15	0.0501	767.8	0.6
303.15	0.098	767.3	0.6
303.15	0.1962	766.5	0.6
303.15	0.2999	766.2	0.6
303.15	0.3985	766.4	0.6
303.15	0.4961	767.1	0.6
303.15	0.6033	768.2	0.6
303.15	0.7017	769.6	0.6
303.15	0.8	771.6	0.6
303.15	0.8892	773.5	0.6
303.15	0.9531	775.2	0.6
303.15	1	776.6	0.6
