Measured thermophysical data. Solubility determination and thermodynamic modeling of 2,4-dinitroaniline in nine organic solvents from T = (278.15 to 318.15) K and mixing properties of solutions
Source: J. Chem. Thermodyn., 2016, 10.1016/j.jct.2016.07.009
Compound 1: 2,4-dinitroaniline, C6H5N3O4, InChI=1S/C6H5N3O4/c7-5-2-1-4(8(10)11)3-6(5)9(12)13/h1-3H,7H2, purity 98.4%
Compound 2: methanol, CH4O, InChI=1S/CH4O/c1-2/h2H,1H3, purity 99.5%
Compound 3: ethanol, C2H6O, InChI=1S/C2H6O/c1-2-3/h3H,2H2,1H3, purity 99.7%
Compound 4: propan-1-ol, C3H8O, InChI=1S/C3H8O/c1-2-3-4/h4H,2-3H2,1H3, purity 99.5%
Compound 5: propan-2-ol, C3H8O, InChI=1S/C3H8O/c1-3(2)4/h3-4H,1-2H3, purity 99.7%
Compound 6: ethyl acetate, C4H8O2, InChI=1S/C4H8O2/c1-3-6-4(2)5/h3H2,1-2H3, purity 99.5%
Compound 7: acetone, C3H6O, InChI=1S/C3H6O/c1-3(2)4/h1-2H3, purity 99.5%
Compound 8: acetonitrile, C2H3N, InChI=1S/C2H3N/c1-2-3/h1H3, purity 99%
Compound 9: toluene, C7H8, InChI=1S/C7H8/c1-7-5-3-2-4-6-7/h2-6H,1H3, purity 99.5%
Compound 10: butan-1-ol, C4H10O, InChI=1S/C4H10O/c1-2-3-4-5/h5H,2-4H2,1H3, purity 99.5%

System: 2,4-dinitroaniline; phases: Crystal, Liquid, Air at 1 atmosphere
Property: Normal melting temperature, K (Crystal); method: DTA
Normal melting temperature, K	uncertainty
451.2	1.1

System: 2,4-dinitroaniline; phases: Crystal, Liquid, Air at 1 atmosphere
Property: Molar enthalpy of transition or fusion, kJ/mol (Crystal); method: DSC
Molar enthalpy of transition or fusion, kJ/mol	uncertainty
24.81	0.95

System: acetonitrile + 2,4-dinitroaniline; phases: Liquid, Crystal
Fixed: Pressure, kPa = 101.1
Property: Mole fraction of 2,4-dinitroaniline (Liquid); method: Chromatography
Temperature, K	Mole fraction of 2,4-dinitroaniline	uncertainty
278.15	0.007719	0.00034
280.65	0.008286	0.000365
283.15	0.008926	0.000393
285.65	0.009802	0.000432
288.15	0.01079	0.00048
290.65	0.01176	0.00052
293.15	0.01272	0.00056
295.65	0.01385	0.00061
298.15	0.0149	0.00066
300.65	0.01611	0.00071
303.15	0.0174	0.00077
305.65	0.01882	0.00083
308.15	0.02025	0.00089
310.65	0.02156	0.00095
313.15	0.02301	0.00101
315.65	0.0247	0.00109
318.15	0.02639	0.00116

System: 2,4-dinitroaniline + ethyl acetate; phases: Liquid, Crystal
Fixed: Pressure, kPa = 101.1
Property: Mole fraction of 2,4-dinitroaniline (Liquid); method: Chromatography
Temperature, K	Mole fraction of 2,4-dinitroaniline	uncertainty
278.15	0.01162	0.00051
280.65	0.01266	0.00056
283.15	0.01383	0.00061
285.65	0.01512	0.00067
288.15	0.01634	0.00072
290.65	0.01767	0.00078
293.15	0.01909	0.00084
295.65	0.02053	0.0009
298.15	0.02206	0.00097
300.65	0.02385	0.00105
303.15	0.02575	0.00113
305.65	0.02782	0.00123
308.15	0.03006	0.00132
310.65	0.03245	0.00143
313.15	0.03495	0.00154
315.65	0.03744	0.00165
318.15	0.04032	0.00178

System: ethanol + 2,4-dinitroaniline; phases: Liquid, Crystal
Fixed: Pressure, kPa = 101.1
Property: Mole fraction of 2,4-dinitroaniline (Liquid); method: Chromatography
Temperature, K	Mole fraction of 2,4-dinitroaniline	uncertainty
278.15	0.001263	5.6e-05
280.65	0.001399	6.2e-05
283.15	0.001543	6.8e-05
285.65	0.001734	7.6e-05
288.15	0.001926	8.5e-05
290.65	0.002109	9.3e-05
293.15	0.002318	0.000102
295.65	0.002539	0.000112
298.15	0.002782	0.000123
300.65	0.003038	0.000134
303.15	0.003308	0.000146
305.65	0.003586	0.000158
308.15	0.003914	0.000173
310.65	0.004275	0.000188
313.15	0.004678	0.000206
315.65	0.00511	0.000225
318.15	0.005549	0.000245

System: propan-1-ol + 2,4-dinitroaniline; phases: Liquid, Crystal
Fixed: Pressure, kPa = 101.1
Property: Mole fraction of 2,4-dinitroaniline (Liquid); method: Chromatography
Temperature, K	Mole fraction of 2,4-dinitroaniline	uncertainty
278.15	0.001027	4.5e-05
280.65	0.001158	5.1e-05
283.15	0.001313	5.8e-05
285.65	0.00146	6.4e-05
288.15	0.00163	7.2e-05
290.65	0.001798	7.9e-05
293.15	0.001985	8.7e-05
295.65	0.002168	9.6e-05
298.15	0.00238	0.000105
300.65	0.002617	0.000115
303.15	0.002868	0.000126
305.65	0.003145	0.000139
308.15	0.003459	0.000152
310.65	0.003803	0.000168
313.15	0.004134	0.000182
315.65	0.004519	0.000199
318.15	0.00493	0.000217

System: propan-2-ol + 2,4-dinitroaniline; phases: Liquid, Crystal
Fixed: Pressure, kPa = 101.1
Property: Mole fraction of 2,4-dinitroaniline (Liquid); method: Chromatography
Temperature, K	Mole fraction of 2,4-dinitroaniline	uncertainty
278.15	0.000854	3.8e-05
280.65	0.00097	4.3e-05
283.15	0.0011	4.9e-05
285.65	0.00125	5.5e-05
288.15	0.001421	6.3e-05
290.65	0.00159	7e-05
293.15	0.00177	7.8e-05
295.65	0.001999	8.8e-05
298.15	0.00227	0.0001
300.65	0.002529	0.000111
303.15	0.002811	0.000124
305.65	0.00313	0.000138
308.15	0.00346	0.000153
310.65	0.00383	0.000169
313.15	0.004261	0.000188
315.65	0.00469	0.000207
318.15	0.00522	0.00023

System: acetone + 2,4-dinitroaniline; phases: Liquid, Crystal
Fixed: Pressure, kPa = 101.1
Property: Mole fraction of 2,4-dinitroaniline (Liquid); method: Chromatography
Temperature, K	Mole fraction of 2,4-dinitroaniline	uncertainty
278.15	0.0281	0.00124
280.65	0.03036	0.00134
283.15	0.03279	0.00145
285.65	0.03546	0.00156
288.15	0.03815	0.00168
290.65	0.04074	0.0018
293.15	0.04371	0.00193
295.65	0.04672	0.00206
298.15	0.04973	0.00219
300.65	0.0531	0.00234
303.15	0.05652	0.00249
305.65	0.06039	0.00266
308.15	0.06418	0.00283
310.65	0.06823	0.00301
313.15	0.0723	0.00319
315.65	0.0769	0.00339
318.15	0.08147	0.00359

System: 2,4-dinitroaniline + toluene; phases: Liquid, Crystal
Fixed: Pressure, kPa = 101.1
Property: Mole fraction of 2,4-dinitroaniline (Liquid); method: Chromatography
Temperature, K	Mole fraction of 2,4-dinitroaniline	uncertainty
278.15	0.00033	1.5e-05
280.65	0.000383	1.7e-05
283.15	0.000443	2e-05
285.65	0.000511	2.3e-05
288.15	0.000573	2.5e-05
290.65	0.000642	2.8e-05
293.15	0.000724	3.2e-05
295.65	0.000814	3.6e-05
298.15	0.000917	4e-05
300.65	0.001025	4.5e-05
303.15	0.001143	5e-05
305.65	0.001281	5.6e-05
308.15	0.001416	6.2e-05
310.65	0.001577	7e-05
313.15	0.001746	7.7e-05
315.65	0.001933	8.5e-05
318.15	0.002169	9.6e-05

System: butan-1-ol + 2,4-dinitroaniline; phases: Liquid, Crystal
Fixed: Pressure, kPa = 101.1
Property: Mole fraction of 2,4-dinitroaniline (Liquid); method: Chromatography
Temperature, K	Mole fraction of 2,4-dinitroaniline	uncertainty
278.15	0.001436	6.3e-05
280.65	0.001544	6.8e-05
283.15	0.001719	7.6e-05
285.65	0.001933	8.5e-05
288.15	0.002156	9.5e-05
290.65	0.002426	0.000107
293.15	0.002714	0.00012
295.65	0.002988	0.000132
298.15	0.003289	0.000145
300.65	0.003649	0.000161
303.15	0.004059	0.000179
305.65	0.00447	0.000197
308.15	0.004936	0.000218
310.65	0.005425	0.000239
313.15	0.005892	0.00026
315.65	0.00646	0.000285
318.15	0.007122	0.000314

System: methanol + 2,4-dinitroaniline; phases: Liquid, Crystal
Fixed: Pressure, kPa = 101.1
Property: Mole fraction of 2,4-dinitroaniline (Liquid); method: Chromatography
Temperature, K	Mole fraction of 2,4-dinitroaniline	uncertainty
278.15	0.001261	5.6e-05
280.65	0.001384	6.1e-05
283.15	0.001564	6.9e-05
285.65	0.001728	7.6e-05
288.15	0.001921	8.5e-05
290.65	0.002124	9.4e-05
293.15	0.002325	0.000102
295.65	0.002534	0.000112
298.15	0.002755	0.000121
300.65	0.003013	0.000133
303.15	0.003272	0.000144
305.65	0.003561	0.000157
308.15	0.003865	0.00017
310.65	0.004206	0.000185
313.15	0.004559	0.000201
315.65	0.004928	0.000217
318.15	0.00537	0.000237
