Measured thermophysical data. A (vapor + liquid) equilibria of the {carbon dioxide + isopropoxyethanol (iC3E1)} and the {carbon dioxide + isobutoxyethanol (iC4E1)} systems
Source: J. Chem. Thermodyn., 2008, 10.1016/j.jct.2007.06.005
Compound 1: carbon dioxide, CO2, InChI=1S/CO2/c2-1-3, purity 99.99%
Compound 2: 2-isopropoxyethanol, C5H12O2, InChI=1S/C5H12O2/c1-5(2)7-4-3-6/h5-6H,3-4H2,1-2H3
Compound 3: 2-(2-methylpropoxy)ethanol, C6H14O2, InChI=1S/C6H14O2/c1-6(2)5-8-4-3-7/h6-7H,3-5H2,1-2H3

System: 2-isopropoxyethanol + carbon dioxide; phases: Liquid, Gas
Property: Vapor or sublimation pressure, kPa (Liquid); method: EBULLIO:UFactor:12
Mole fraction of carbon dioxide	Temperature, K	Vapor or sublimation pressure, kPa	uncertainty
0.05	333.15	534	28
0.053	323.15	497	26
0.061	313.15	478	25
0.135	323.15	1267	60
0.141	333.15	1508	72
0.142	313.15	1186	56
0.188	323.15	1770	84
0.191	333.15	2087	98
0.23	313.15	1827	86
0.273	333.15	2985	140
0.295	323.15	2758	129
0.331	313.15	2629	123
0.361	323.15	3433	161
0.386	333.15	4268	199
0.413	323.15	3964	185
0.415	313.15	3319	155
0.481	313.15	3848	180
0.482	323.15	4599	215
0.492	333.15	5328	248
0.514	313.15	4224	197
0.524	323.15	4949	231
0.563	333.15	6050	282
0.581	313.15	4645	217
0.6	323.15	5496	256
0.625	313.15	4991	233
0.665	323.15	6294	293
0.669	333.15	7130	332
0.686	313.15	5465	255
0.721	323.15	6675	311
0.739	313.15	5873	274
0.779	313.15	6206	289
0.781	333.15	8210	382
0.814	323.15	7642	356
0.846	313.15	6697	312
0.852	333.15	9024	420
0.884	313.15	7005	326
0.902	333.15	9768	455
0.91	323.15	8471	394
0.929	333.15	9930	462
0.944	313.15	7645	356
0.955	323.15	9091	423

System: 2-isopropoxyethanol + carbon dioxide; phases: Gas, Liquid
Property: Mole fraction of carbon dioxide (Gas); method: Chromatography
Mole fraction of carbon dioxide	Temperature, K	Mole fraction of carbon dioxide	uncertainty
0.05	333.15	0.984	0.001
0.053	323.15	0.991	0.001
0.061	313.15	0.992	0.001
0.135	323.15	0.994	0.001
0.141	333.15	0.993	0.001
0.142	313.15	0.993	0.001
0.188	323.15	0.995	0.001
0.191	333.15	0.995	0.001
0.23	313.15	0.993	0.001
0.273	333.15	0.995	0.001
0.295	323.15	0.995	0.001
0.331	313.15	0.994	0.001
0.361	323.15	0.995	0.001
0.386	333.15	0.996	0.001
0.413	323.15	0.995	0.001
0.415	313.15	0.995	0.001
0.481	313.15	0.995	0.001
0.482	323.15	0.995	0.001
0.492	333.15	0.995	0.001
0.514	313.15	0.995	0.001
0.524	323.15	0.996	0.001
0.563	333.15	0.995	0.001
0.581	313.15	0.996	0.001
0.6	323.15	0.996	0.001
0.625	313.15	0.996	0.001
0.665	323.15	0.996	0.001
0.669	333.15	0.993	0.001
0.686	313.15	0.996	0.001
0.721	323.15	0.996	0.001
0.739	313.15	0.996	0.001
0.779	313.15	0.996	0.001
0.781	333.15	0.992	0.001
0.814	323.15	0.995	0.001
0.846	313.15	0.994	0.001
0.852	333.15	0.989	0.001
0.884	313.15	0.995	0.001
0.902	333.15	0.985	0.001
0.91	323.15	0.993	0.001
0.929	333.15	0.98	0.001
0.944	313.15	0.995	0.001
0.955	323.15	0.99	0.001

System: carbon dioxide + 2-(2-methylpropoxy)ethanol; phases: Liquid, Gas
Property: Vapor or sublimation pressure, kPa (Liquid); method: EBULLIO:UFactor:12
Mole fraction of carbon dioxide	Temperature, K	Vapor or sublimation pressure, kPa	uncertainty
0.05	333.15	485	26
0.051	313.15	371	20
0.063	323.15	533	27
0.136	313.15	995	48
0.151	323.15	1285	61
0.153	333.15	1499	71
0.205	333.15	2027	96
0.212	323.15	1850	87
0.223	313.15	1626	77
0.275	333.15	2690	126
0.309	323.15	2646	124
0.342	313.15	2486	117
0.373	333.15	3669	172
0.393	323.15	3350	157
0.419	313.15	3029	142
0.446	323.15	3782	177
0.481	313.15	3468	162
0.506	323.15	4265	199
0.507	333.15	4923	230
0.572	333.15	5533	258
0.589	313.15	4217	197
0.589	323.15	4870	227
0.631	323.15	5186	242
0.666	333.15	6482	302
0.674	313.15	4791	223
0.713	323.15	5826	272
0.767	313.15	5468	255
0.778	333.15	7532	351
0.788	323.15	6640	309
0.848	323.15	7280	339
0.851	333.15	8532	397
0.878	313.15	6326	295
0.903	323.15	8160	380
0.908	333.15	9386	437
0.931	333.15	9790	456
0.948	313.15	7187	335
0.952	323.15	8820	411

System: carbon dioxide + 2-(2-methylpropoxy)ethanol; phases: Gas, Liquid
Property: Mole fraction of carbon dioxide (Gas); method: Chromatography
Mole fraction of carbon dioxide	Temperature, K	Mole fraction of carbon dioxide	uncertainty
0.05	333.15	0.992	0.001
0.051	313.15	0.998	0.001
0.063	323.15	0.995	0.001
0.136	313.15	0.998	0.001
0.151	323.15	0.997	0.001
0.153	333.15	0.996	0.001
0.205	333.15	0.997	0.001
0.212	323.15	0.998	0.001
0.223	313.15	0.998	0.001
0.275	333.15	0.998	0.001
0.309	323.15	0.998	0.001
0.342	313.15	0.999	0.001
0.373	333.15	0.998	0.001
0.393	323.15	0.998	0.001
0.419	313.15	0.999	0.001
0.446	323.15	0.998	0.001
0.481	313.15	0.999	0.001
0.506	323.15	0.998	0.001
0.507	333.15	0.998	0.001
0.572	333.15	0.997	0.001
0.589	313.15	0.999	0.001
0.589	323.15	0.998	0.001
0.631	323.15	0.998	0.001
0.666	333.15	0.997	0.001
0.674	313.15	0.999	0.001
0.713	323.15	0.998	0.001
0.767	313.15	0.999	0.001
0.778	333.15	0.996	0.001
0.788	323.15	0.998	0.001
0.848	323.15	0.998	0.001
0.851	333.15	0.995	0.001
0.878	313.15	0.998	0.001
0.903	323.15	0.997	0.001
0.903	333.15	0.996	0.002
0.908	333.15	0.992	0.001
0.931	333.15	0.99	0.001
0.948	313.15	0.995	0.001
0.952	323.15	0.995	0.001
0.952	333.15	0.994	0.001
