Measured thermophysical data. Low-temperature heat capacity of hydrophilic ionic liquids [BMIM][CF3COO] and [BMIM][CH3COO] and a correlation scheme for estimation of heat capacity of ionic liquids
Source: J. Chem. Thermodyn., 2008, 10.1016/j.jct.2007.11.004
Compound 1: 1-butyl-3-methylimidazolium acetate, C10H18N2O2, InChI=1S/C8H15N2.C2H4O2/c1-3-4-5-10-7-6-9(2)8-10;1-2(3)4/h6-8H,3-5H2,1-2H3;1H3,(H,3,4)/q+1;/p-1, purity 99.5%
Compound 2: 1-butyl-3-methylimidazolium trifluoroacetate, C10H15F3N2O2, InChI=1S/C8H15N2.C2HF3O2/c1-3-4-5-10-7-6-9(2)8-10;3-2(4,5)1(6)7/h6-8H,3-5H2,1-2H3;(H,6,7)/q+1;/p-1, purity 99.5%

System: 1-butyl-3-methylimidazolium acetate; phases: Glass
Fixed: Pressure, kPa = 101.325
Property: Molar heat capacity at constant pressure, J/K/mol (Glass); method: VADIAC:UFactor:8
Temperature, K	Molar heat capacity at constant pressure, J/K/mol	uncertainty
5	1.036	0.1206
10	6.24	0.366
15	14.61	0.673
20	24.61	0.9146
25	35.39	1.0476
30	46.3	0.823
35	56.82	0.9562
40	66.72	1.0726
45	76.28	1.1973
50	85.39	1.33
60	102.4	1.497
70	116.5	1.663
80	128.8	1.829
90	140	2.079
100	150.3	2.162
110	159.7	2.245
120	168.5	2.245
130	176.8	2.328
140	185.1	2.411
150	193.6	2.411
160	202	2.494
170	210.4	2.577
180	219.3	2.577
190	229.7	2.661
200	250.4	2.827
203.6	297.4	3.076

System: 1-butyl-3-methylimidazolium acetate; phases: Liquid
Fixed: Pressure, kPa = 101.325
Property: Molar heat capacity at constant pressure, J/K/mol (Liquid); method: VADIAC:UFactor:4
Temperature, K	Molar heat capacity at constant pressure, J/K/mol	uncertainty
210	352.4	2.079
220	354.5	2.079
230	357	2.162
240	359.9	2.162
250	363.1	2.162
260	366.6	2.162
270	370.5	2.162
280	374.7	2.245
290	379.2	2.245
298.15	383.2	2.245
300	384.1	2.245

System: 1-butyl-3-methylimidazolium acetate; phases: Liquid, Gas
Property: Molar heat capacity at saturation pressure, J/K/mol (Liquid); method: VADIAC:UFactor:4
Temperature, K	Molar heat capacity at saturation pressure, J/K/mol	uncertainty
207.31	352.3119294	2.1808842
209.35	352.7084538	2.1808842
211.4	352.906716	2.1808842
213.44	353.3032404	2.1808842
215.49	353.6997648	2.1808842
217.53	354.0962892	2.1808842
219.58	354.4928136	2.1808842
221.63	354.889338	2.1808842
223.69	355.2858624	2.1808842
225.74	355.6823868	2.1808842
227.79	356.2771734	2.1808842
229.85	356.87196	2.1808842
231.9	357.4667466	2.1808842
233.96	358.0615332	2.1808842
236.02	358.6563198	2.1808842
238.07	359.2511064	2.1808842
240.13	359.845893	2.1808842
242.18	360.4406796	2.1808842
244.24	361.2337284	2.1808842
246.3	361.828515	2.1808842
248.35	362.6215638	2.1808842
250.41	363.2163504	2.1808842
252.47	364.0093992	2.1808842
254.52	364.802448	2.1808842
256.58	365.5954968	2.1808842
258.64	366.3885456	2.1808842
260.7	367.1815944	2.1808842
262.75	367.776381	2.1808842
264.81	368.5694298	2.1808842
266.87	369.5607408	2.1808842
268.92	370.3537896	2.1808842
270.98	371.1468384	2.1808842
273.04	371.9398872	2.1808842
275.1	372.9311982	2.1808842
277.15	373.724247	2.1808842
279.21	374.5172958	2.1808842
281.27	375.5086068	2.1808842
283.32	376.4999178	2.1808842
285.38	377.2929666	2.1808842
287.43	378.0860154	2.1808842
289.48	379.2755886	2.1808842
291.53	380.2668996	2.1808842
293.59	381.0599484	2.1808842
295.64	381.8529972	2.1808842
297.69	382.8443082	2.1808842
299.74	384.0338814	2.1808842
301.8	385.0251924	2.1808842
303.85	385.8182412	2.1808842
305.91	387.0078144	2.1808842
307.96	387.8008632	2.1808842
310.02	388.7921742	2.3791464
312.08	389.7834852	2.3791464
314.14	390.7747962	2.3791464
316.2	391.7661072	2.3791464
318.25	392.7574182	2.3791464
320.31	393.9469914	2.3791464
322.37	394.9383024	2.3791464
324.43	395.7313512	2.3791464
326.49	396.7226622	2.3791464
328.55	397.9122354	2.3791464
330.61	399.1018086	2.3791464
332.67	400.0931196	2.3791464
334.73	401.0844306	2.3791464
336.79	402.0757416	2.3791464
338.85	403.0670526	2.3791464
340.91	404.0583636	2.3791464
342.97	405.0496746	2.3791464
345.03	406.43751	2.3791464
347.09	407.6270832	2.3791464
349.15	408.8166564	2.3791464
351.21	409.8079674	2.3791464
353.27	410.7992784	2.3791464
355.33	411.7905894	2.3791464
357.39	412.9801626	2.3791464
359.45	414.367998	2.3791464
361.5	415.359309	2.3791464
363.56	416.35062	2.3791464
365.61	417.5401932	2.3791464
367.67	418.5315042	2.3791464

System: 1-butyl-3-methylimidazolium acetate; phases: Glass, Gas
Property: Molar heat capacity at saturation pressure, J/K/mol (Glass); method: VADIAC:UFactor:8
Temperature, K	Molar heat capacity at saturation pressure, J/K/mol	uncertainty
5.27	1.1895732	0.1982622
5.52	1.3878354	0.1982622
5.79	1.5860976	0.1982622
6.07	1.7843598	0.1982622
6.39	1.982622	0.1982622
6.74	2.3791464	0.1982622
7.09	2.7756708	0.1982622
7.45	2.973933	0.1982622
7.82	3.3704574	0.1982622
8.19	3.7669818	0.1982622
8.56	4.3617684	0.3965244
8.94	4.7582928	0.3965244
9.33	5.3530794	0.3965244
9.71	5.7496038	0.3965244
10.09	6.3443904	0.3965244
10.58	7.1374392	0.3965244
11.18	7.930488	0.3965244
11.78	8.921799	0.3965244
12.39	9.91311	0.5947866
13	10.904421	0.5947866
13.61	12.0939942	0.5947866
14.23	13.0853052	0.5947866
14.86	14.2748784	0.5947866
15.6	15.6627138	0.7930488
16.45	17.4470736	0.7930488
17.3	19.2314334	0.7930488
18.15	20.817531	0.7930488
19.01	22.6018908	0.7930488
19.87	24.3862506	0.991311
21.01	26.765397	0.991311
22.44	29.73933	0.991311
23.89	32.9115252	0.991311
25.34	36.0837204	0.991311
26.79	39.2559156	0.991311
28.2	42.4281108	0.991311
29.66	45.600306	0.991311
31.29	49.1690256	0.7930488
33.09	52.9360074	0.991311
34.89	56.7029892	0.991311
36.69	60.2717088	0.991311
38.49	63.8404284	0.991311
40.3	67.409148	1.1895732
42.2	70.9778676	1.1895732
44.21	74.7448494	1.1895732
46.22	78.5118312	1.1895732
48.24	82.278813	1.389818022
50.25	85.8475326	1.389818022
52.27	89.4162522	1.389818022
54.3	92.7867096	1.389818022
56.32	96.3554292	1.590062844
58.34	99.5276244	1.590062844
60.37	102.8980818	1.590062844
62.4	106.2685392	1.590062844
64.44	109.6389966	1.780394556
66.47	112.6129296	1.780394556
68.52	114.000765	1.780394556
70.57	116.7764358	1.780394556
72.62	119.5521066	1.780394556
74.66	122.1295152	1.982622
76.7	124.905186	1.982622
78.75	127.4825946	1.982622
80.35	129.4652166	1.982622
80.8	129.861741	1.982622
82.34	131.6461008	1.982622
82.86	132.2408874	1.982622
84.27	133.826985	1.982622
86.2	136.0078692	1.982622
88.14	138.1887534	2.1808842
90.08	140.1713754	2.1808842
92.01	142.1539974	2.1808842
93.96	144.3348816	2.1808842
95.91	146.3175036	2.3791464
97.86	148.3001256	2.3791464
99.81	150.0844854	2.3791464
101.76	152.0671074	2.3791464
103.72	154.0497294	2.3791464
105.67	155.8340892	2.3791464
107.63	157.618449	2.3791464
109.59	159.4028088	2.3791464
111.56	161.1871686	2.3791464
113.53	162.7732662	2.3791464
115.5	164.557626	2.3791464
117.47	166.3419858	2.3791464
119.44	167.9280834	2.5774086
121.42	169.7124432	2.5774086
123.4	171.2985408	2.5774086
125.38	173.0829006	2.5774086
127.36	174.6689982	2.5774086
129.34	176.453358	2.5774086
131.32	178.0394556	2.5774086
133.31	179.6255532	2.5774086
135.3	181.2116508	2.5774086
137.29	182.9960106	2.5774086
139.28	184.5821082	2.5774086
141.27	186.1682058	2.5774086
143.27	187.9525656	2.5774086
145.27	189.5386632	2.7756708
147.27	191.323023	2.7756708
149.27	192.9091206	2.7756708
151.27	194.6934804	2.7756708
153.27	196.4778402	2.7756708
155.27	198.0639378	2.7756708
157.28	199.8482976	2.7756708
159.28	201.4343952	2.7756708
161.29	203.0204928	2.7756708
163.3	204.8048526	2.7756708
165.31	206.5892124	2.7756708
167.32	208.17531	2.7756708
169.33	209.9596698	2.7756708
171.35	211.7440296	2.973933
173.37	213.3301272	2.973933
175.39	215.114487	2.973933
177.41	216.8988468	2.973933
179.44	218.6832066	2.973933
181.46	220.6658286	2.973933
183.49	222.6484506	2.973933
185.52	224.6310726	2.973933
187.55	226.8119568	2.973933
189.59	229.1911032	2.973933
191.64	231.7685118	2.973933
193.69	234.5441826	3.1721952
195.74	238.1129022	3.1721952
197.79	242.871195	3.1721952
199.81	250.2068964	3.1721952
201.79	264.4817748	3.3704574
203.63	299.1776598	3.7669818
205.38	345.967539	4.1635062

System: 1-butyl-3-methylimidazolium trifluoroacetate; phases: Crystal 2, Crystal 1, Gas
Property: Molar enthalpy of transition or fusion, kJ/mol (Crystal 2); method: ADIACA:UFactor:4
Molar enthalpy of transition or fusion, kJ/mol	uncertainty
0.29	0.04

System: 1-butyl-3-methylimidazolium trifluoroacetate; phases: Crystal 1, Liquid, Gas
Property: Molar enthalpy of transition or fusion, kJ/mol (Crystal 1); method: ADIACA:UFactor:2
Molar enthalpy of transition or fusion, kJ/mol	uncertainty
19.14	0.14

System: 1-butyl-3-methylimidazolium trifluoroacetate; phases: Crystal 2, Crystal 1, Gas
Property: Triple point temperature, K (Crystal 2); method: Adiabatic calorimetry
Triple point temperature, K	uncertainty
274	2

System: 1-butyl-3-methylimidazolium trifluoroacetate; phases: Crystal 1, Liquid, Gas
Property: Triple point temperature, K (Crystal 1); method: ADIACA:UFactor:2
Triple point temperature, K	uncertainty
296.39	0.09

System: 1-butyl-3-methylimidazolium trifluoroacetate; phases: Crystal 1, Liquid, Gas
Property: Triple point temperature, K (Crystal 1); method: ADIACA:UFactor:2
Triple point temperature, K	uncertainty
296.43	0.09

System: 1-butyl-3-methylimidazolium trifluoroacetate; phases: Glass, Liquid, Gas
Property: Triple point temperature, K (Glass); method: Adiabatic calorimetry
Triple point temperature, K	uncertainty
187.1	3

System: 1-butyl-3-methylimidazolium trifluoroacetate; phases: Glass
Fixed: Pressure, kPa = 101.325
Property: Molar heat capacity at constant pressure, J/K/mol (Glass); method: VADIAC:UFactor:8
Temperature, K	Molar heat capacity at constant pressure, J/K/mol	uncertainty
5	1.949	0.1729
10	10.54	0.574
15	22.72	1.0061
20	35.76	1.3054
25	48.61	1.4218
30	60.81	1.0061
35	71.98	1.1391
40	82.19	1.2638
45	91.63	1.413
50	100.4	1.497
60	116.6	1.663
70	131.3	1.912
80	144.9	2.079
90	157.3	2.245
100	168.7	2.245
110	179.3	2.328
120	189.4	2.411
130	199.3	2.494
140	209	2.494
150	218.8	2.577
160	228.7	2.661
170	239.5	2.744
180	254.9	2.827
187.1	316.1	3.243

System: 1-butyl-3-methylimidazolium trifluoroacetate; phases: Liquid
Fixed: Pressure, kPa = 101.325
Property: Molar heat capacity at constant pressure, J/K/mol (Liquid); method: VADIAC:UFactor:8
Temperature, K	Molar heat capacity at constant pressure, J/K/mol	uncertainty
190	367.4	3.492
200	370.3	3.575
210	373.4	3.575
220	376.6	3.575
230	380.1	3.575
240	383.6	3.658
250	387.4	3.658
260	391.2	3.658
270	395.3	3.742
280	399.4	3.742
290	403.8	3.742

System: 1-butyl-3-methylimidazolium trifluoroacetate; phases: Crystal 1
Fixed: Pressure, kPa = 101.325
Property: Molar heat capacity at constant pressure, J/K/mol (Crystal 1); method: VADIAC:UFactor:8
Temperature, K	Molar heat capacity at constant pressure, J/K/mol	uncertainty
280	344	3.409
290	353.9	3.409
296.42	360.4	3.492

System: 1-butyl-3-methylimidazolium trifluoroacetate; phases: Liquid
Fixed: Pressure, kPa = 101.325
Property: Molar heat capacity at constant pressure, J/K/mol (Liquid); method: VADIAC:UFactor:8
Temperature, K	Molar heat capacity at constant pressure, J/K/mol	uncertainty
296.42	407.1	3.825
298.15	407.9	3.825
300	408.8	3.825
310	413.6	3.825
320	418.6	3.908
330	423.4	3.908
340	428.2	3.908
350	433	3.991
360	437.8	3.991
370	442.6	4.074

System: 1-butyl-3-methylimidazolium trifluoroacetate; phases: Crystal 2
Fixed: Pressure, kPa = 101.325
Property: Molar heat capacity at constant pressure, J/K/mol (Crystal 2); method: VADIAC:UFactor:8
Temperature, K	Molar heat capacity at constant pressure, J/K/mol	uncertainty
5	0.9229	0.1164
10	7.79	0.441
15	19.46	0.873
20	32.45	1.189
25	45.49	1.3303
30	57.93	0.9645
35	69.37	1.1058
40	79.8	1.2389
45	89.38	1.33
50	98.36	1.497
60	114.5	1.663
70	128.8	1.829
80	142.1	1.995
90	154.3	2.162
100	165.8	2.245
110	176.6	2.328
120	186.8	2.411
130	196.6	2.494
140	206.2	2.494
150	215.7	2.577
160	225.1	2.661
170	234.6	2.661
180	244.4	2.744
190	254.6	2.827
200	264.5	2.91
210	274.3	2.91
220	284.3	2.993
230	294	3.076
240	304.1	3.159
250	314	3.159
260	324	3.243
270	334	3.326

System: 1-butyl-3-methylimidazolium trifluoroacetate; phases: Glass, Gas
Property: Molar heat capacity at saturation pressure, J/K/mol (Glass); method: VADIAC:UFactor:8
Temperature, K	Molar heat capacity at saturation pressure, J/K/mol	uncertainty
5.18	2.0178687168	0.249711253704
5.39	2.2701023064	0.249711253704
5.72	2.7745694856	0.249711253704
6.04	3.2790366648	0.249711253704
6.4	3.783503844	0.249711253704
6.8	4.2879710232	0.249711253704
7.21	5.044671792	0.249711253704
7.62	5.8013725608	0.5044671792
8.03	6.5580733296	0.5044671792
8.44	7.3147740984	0.5044671792
8.85	8.0714748672	0.5044671792
9.26	8.828175636	0.5044671792
9.68	9.8371099944	0.5044671792
10.09	10.8460443528	0.5044671792
10.61	11.8549787112	0.7567007688
11.25	13.3683802488	0.7567007688
11.68	14.3773146072	0.7567007688
12.11	15.3862489656	0.7567007688
12.74	16.8996505032	0.7567007688
13.37	18.6652856304	1.0089343584
14.01	20.178687168	1.0089343584
14.65	21.9443222952	1.0089343584
15.29	23.4577238328	1.0089343584
16.05	25.4755925496	1.0089343584
16.92	27.745694856	1.261167948
17.78	30.0157971624	1.261167948
18.64	32.2858994688	1.261167948
19.5	34.3037681856	1.261167948
20.35	36.573870492	1.261167948
21.14	38.8439727984	1.261167948
22.23	41.618542284	1.510879201704
23.7	45.402046128	1.510879201704
25.18	48.9333163824	1.510879201704
26.66	52.7168202264	1.510879201704
28.13	56.2480904808	1.510879201704
29.62	59.7793607352	1.261167948
31.26	63.8150981688	1.0089343584
33.06	67.8508356024	1.0089343584
34.86	71.6343394464	1.261167948
36.65	75.4178432904	1.261167948
38.45	79.2013471344	1.261167948
40.24	82.7326173888	1.261167948
42.12	86.2638876432	1.261167948
44.11	90.0473914872	1.261167948
46.09	93.5786617416	1.510879201704
48.08	97.109931996	1.510879201704
50.07	100.6412022504	1.510879201704
52.05	103.9202389152	1.510879201704
54.04	107.19927558	1.510879201704
56.03	110.2260786552	1.510879201704
58.03	113.50511532	1.770679798992
60.02	116.5319183952	1.770679798992
62.01	119.5587214704	1.770679798992
64.01	122.5855245456	1.770679798992
66.01	125.6123276208	1.770679798992
68	128.3868971064	1.770679798992
70	131.161466592	1.770679798992
72.01	134.1882696672	2.020391052696
74.01	136.9628391528	2.020391052696
76.02	139.7374086384	2.020391052696
78.03	142.511978124	2.020391052696
78.41	142.511978124	2.020391052696
80.05	145.2865476096	2.020391052696
80.49	145.7910147888	2.020391052696
82.06	147.8088835056	2.020391052696
82.47	148.5655842744	2.020391052696
84.08	150.078985812	2.020391052696
84.47	150.5834529912	2.020391052696
86.46	153.1057888872	2.2701023064
88.46	155.6281247832	2.2701023064
90.46	157.8982270896	2.2701023064
92.47	160.168329396	2.2701023064
94.47	162.690665292	2.2701023064
96.48	164.9607675984	2.2701023064
96.71	165.213001188	2.2701023064
98.49	166.9786363152	2.2701023064
98.84	167.4831034944	2.2701023064
100.5	169.2487386216	2.2701023064
100.85	169.7532058008	2.2701023064
102.51	171.518840928	2.2701023064
102.86	171.7710745176	2.2701023064
104.52	173.5367096448	2.2701023064
104.87	174.041176824	2.2701023064
106.53	175.8068119512	2.2701023064
106.88	176.0590455408	2.2701023064
108.54	177.824680668	2.2701023064
108.89	178.3291478472	2.2701023064
110.56	180.0947829744	2.2701023064
110.91	180.347016564	2.2701023064
112.59	182.1126516912	2.2701023064
112.93	182.3648852808	2.2701023064
114.61	184.130520408	2.2701023064
114.95	184.3827539976	2.2701023064
116.64	186.1483891248	2.5220836624104
116.97	186.4006227144	2.5220836624104
118.67	188.1662578416	2.5220836624104
119	188.4184914312	2.5220836624104
120.7	190.1841265584	2.5220836624104
121.03	190.436360148	2.5220836624104
122.73	192.2019952752	2.5220836624104
123.06	192.4542288648	2.5220836624104
124.76	194.219863992	2.5220836624104
125.09	194.4720975816	2.5220836624104
126.8	196.2377327088	2.5220836624104
127.12	196.4899662984	2.5220836624104
128.84	198.2556014256	2.5220836624104
129.16	198.5078350152	2.5220836624104
130.87	200.2734701424	2.5220836624104
131.2	200.525703732	2.5220836624104
132.92	202.2913388592	2.5220836624104
133.24	202.5435724488	2.5220836624104
134.96	204.309207576	2.5220836624104
135.28	204.5614411656	2.5220836624104
137	206.3270762928	2.5220836624104
137.32	206.5793098824	2.5220836624104
139.05	208.3449450096	2.5220836624104
139.36	208.5971785992	2.5220836624104
141.1	210.3628137264	2.5220836624104
141.41	210.3628137264	2.5220836624104
143.15	212.3806824432	2.5220836624104
143.45	212.6329160328	2.5220836624104
145.2	214.39855116	2.5220836624104
145.5	214.6507847496	2.5220836624104
147.26	216.4164198768	2.5220836624104
147.55	216.6686534664	2.5220836624104
149.32	218.182055004	2.5220836624104
149.6	218.4342885936	2.5220836624104
151.21	220.1999237208	2.5220836624104
151.38	220.1999237208	2.5220836624104
151.65	220.4521573104	2.5220836624104
153.43	222.4700260272	2.5220836624104
153.46	222.4700260272	2.5220836624104
153.7	222.4700260272	2.5220836624104
155.49	224.487894744	2.5220836624104
155.67	224.7401283336	2.5220836624104
155.75	224.7401283336	2.5220836624104
157.55	226.5057634608	2.5220836624104
157.81	226.7579970504	2.5220836624104
157.88	227.01023064	2.7745694856
159.61	228.5236321776	2.7745694856
159.87	228.7758657672	2.7745694856
160.08	229.2803329464	2.7745694856
161.67	230.5415008944	2.7745694856
161.93	231.0459680736	2.7745694856
162.29	231.8026688424	2.7745694856
163.73	232.8116032008	2.7745694856
164	233.0638367904	2.7745694856
164.49	234.0727711488	2.7745694856
165.79	235.0817055072	2.7745694856
166.06	235.0817055072	2.7745694856
166.69	236.3428734552	2.7745694856
167.87	237.099574224	2.7745694856
168.13	237.3518078136	2.7745694856
168.89	238.8652093512	2.7745694856
169.94	239.62191012	2.7745694856
170.19	239.62191012	2.7745694856
171.09	241.6397788368	2.7745694856
172.02	241.8920124264	2.7745694856
172.26	242.144246016	2.7745694856
173.29	244.1621147328	2.7745694856
174.1	244.4143483224	2.7745694856
174.33	244.666581912	2.7745694856
175.49	246.9366842184	2.7745694856
176.19	246.9366842184	2.7745694856
176.4	247.4411513976	2.7745694856
177.67	250.4679544728	2.7745694856
178.28	250.2157208832	2.7745694856
178.48	250.4679544728	2.7745694856
179.85	255.2603926752	2.7745694856
180.35	253.9992247272	2.7745694856
180.55	255.0081590856	2.7745694856
181.19	256.017093444	2.7745694856
182.02	262.0706995944	2.7745694856
182.43	260.5572980568	2.7745694856
182.63	261.061765236	2.7745694856
183.35	264.5930354904	2.7745694856
184.14	274.934612664	3.0268030752
184.49	270.8988752304	3.0268030752
184.67	271.9078095888	3.0268030752
185.36	282.2493867624	3.0268030752
186.14	306.9682785432	3.2790366648
186.47	297.8878693176	3.0268030752
186.63	301.419139572	3.2790366648
187.21	336.2273749368	3.5312702544

System: 1-butyl-3-methylimidazolium trifluoroacetate; phases: Crystal 1, Gas
Property: Molar heat capacity at saturation pressure, J/K/mol (Crystal 1); method: VADIAC:UFactor:32
Temperature, K	Molar heat capacity at saturation pressure, J/K/mol	uncertainty
274.1	391.4665310592	15.128970704208
274.17	377.8459172208	14.6295481968
274.23	375.5758149144	14.6295481968
274.3	396.2589692616	15.8907161448
275.07	382.3861218336	14.379836943096
275.31	386.9263264464	14.6295481968
275.39	382.6383554232	14.379836943096
275.9	426.0225328344	15.641004891096
276.06	383.395056192	14.879259450504
276.1	387.4307936256	14.6295481968
276.16	384.65622414	14.6295481968
277.04	388.6919615736	14.6295481968
277.23	389.4486623424	14.6295481968
277.28	390.2053631112	14.6295481968
277.28	392.223231828	14.6295481968
277.99	399.0335387472	14.879259450504
278.01	396.006735672	14.879259450504
278.01	395.2500349032	14.879259450504
278.05	396.006735672	14.879259450504
278.97	402.8170425912	14.879259450504
279.13	403.0692761808	14.879259450504
279.15	405.8438456664	15.128970704208
279.86	413.9153205336	15.388771301496
279.92	408.618415152	15.128970704208
279.92	410.3840502792	15.128970704208
280.13	411.8974518168	15.128970704208
280.24	413.4108533544	15.128970704208
280.87	416.4376564296	15.388771301496
280.98	417.6988243776	15.388771301496
281	417.1943571984	15.388771301496
281.67	434.0940077016	15.641004891096
281.74	434.0940077016	15.641004891096
281.81	426.5270000136	15.641004891096
282.17	431.5716718056	15.641004891096
282.73	438.3819787248	15.8907161448
282.78	438.6342123144	15.8907161448
282.83	438.886445904	15.8907161448
283.07	445.9489864128	16.140427398504
283.44	459.8218338408	16.395183324
283.51	453.7682276904	16.395183324
284.2	462.3441697368	16.395183324
284.52	468.1455422976	16.649939249496
284.61	469.6589438352	16.649939249496
285.14	496.900171512	17.4041176824
285.22	489.0809302344	17.149361756904
285.75	504.4671792	17.4041176824
286.19	511.2774861192	17.658873607896
286.68	533.7262755936	18.920041555896
286.75	550.8781596864	18.670330302192
286.84	541.2932832816	18.410529704904
288.12	595.0190378664	20.680632011304
288.18	613.6843234968	21.190143862296
288.24	632.8540763064	20.680632011304
288.35	619.7379296472	20.4309207576
288.99	668.41901244	21.689566369704
289.58	758.9708711064	23.959668676104
289.71	740.8100526552	23.210534914992
289.96	756.1963016208	23.959668676104
290.23	825.3083051712	25.7278261392
290.75	941.3357563872	28.5023956248
290.9	922.6704707568	27.9979284456
290.9	934.7776830576	28.2501620352

System: 1-butyl-3-methylimidazolium trifluoroacetate; phases: Crystal of unknown type, Gas
Property: Molar heat capacity at saturation pressure, J/K/mol (Crystal of unknown type); method: VADIAC:UFactor:16
Temperature, K	Molar heat capacity at saturation pressure, J/K/mol	uncertainty
250.6	321.8500603296	6.5580733296
251.66	323.3634618672	6.5580733296
252.71	325.8857977632	6.5580733296
253.73	327.90366648	6.5580733296
254.75	329.6693016072	6.5580733296
255.76	331.9394039136	6.5580733296
256.77	333.7050390408	6.5580733296
257.78	335.9751413472	6.5580733296
258.78	338.2452436536	6.5580733296
259.78	340.7675795496	6.8103069192
260.77	343.5421490352	6.8103069192
261.76	346.8211857	6.8103069192
262	339.0019444224	6.5580733296
262.68	342.2809810872	7.0625405088
262.75	349.8479887752	7.0625405088
263.73	345.3077841624	6.8103069192
263.73	353.3792590296	6.8103069192
264.71	356.6582956944	7.3147740984
264.77	348.3345872376	7.3147740984
265.68	360.9462667176	7.0625405088
265.81	351.865857492	7.0625405088
266.65	365.4864713304	7.0625405088
266.84	355.1448941568	7.0625405088
267.61	370.0266759432	7.0625405088
267.87	359.1806315904	6.8103069192
268.57	374.0624133768	7.0625405088
268.9	364.2253033824	7.0625405088
269.52	375.3235813248	7.0625405088
269.92	369.522208764	7.0625405088
270.47	373.0534790184	7.0625405088
270.94	376.3325156832	7.0625405088
271.42	371.5400774808	7.0625405088
271.96	383.6472897816	7.3147740984
272.37	372.04454466	7.0625405088
272.98	388.6919615736	7.3147740984
273.33	374.566880556	7.0625405088
274	386.9263264464	7.3147740984
274.28	377.3414500416	7.0625405088
275.02	386.4218592672	7.3147740984
275.23	381.6294210648	7.3147740984
276.04	384.65622414	7.3147740984
276.17	385.6651584984	7.3147740984
277.06	388.6919615736	7.3147740984
277.11	390.96206388	7.3147740984
278.04	396.5112028512	7.3147740984
278.08	395.5022684928	7.3147740984
278.96	403.3215097704	7.567007688
279.1	402.8170425912	7.567007688
279.88	410.6362838688	7.567007688
280.11	410.8885174584	7.567007688
281.64	430.3105038576	7.8192412776
283.65	458.0561987136	8.0714748672
285.64	498.6658066392	8.5759420464
287.58	571.0568468544	9.5848764048
289.44	709.2808539552	11.6027451216

System: 1-butyl-3-methylimidazolium trifluoroacetate; phases: Liquid, Gas
Property: Molar heat capacity at saturation pressure, J/K/mol (Liquid); method: VADIAC:UFactor:4
Temperature, K	Molar heat capacity at saturation pressure, J/K/mol	uncertainty
187.91	367.7565736368	2.2701023064
188.27	364.9820041512	2.2701023064
188.41	367.7565736368	2.2701023064
189.03	367.5043400472	2.2701023064
189.69	366.7476392784	2.2701023064
190.2	366.4954056888	2.2701023064
190.36	366.7476392784	2.2701023064
191.05	368.0088072264	2.2701023064
191.49	368.5132744056	2.2701023064
192.28	368.7655079952	2.2701023064
192.44	368.5132744056	2.2701023064
193.13	368.7655079952	2.2701023064
193.3	369.0177415848	2.2701023064
194.36	369.2699751744	2.2701023064
194.52	369.0177415848	2.2701023064
195.1	369.2699751744	2.2701023064
195.21	369.2699751744	2.2701023064
196.44	369.7744423536	2.2701023064
196.61	369.522208764	2.2701023064
196.91	370.0266759432	2.2701023064
197.29	369.7744423536	2.2701023064
198.52	370.2789095328	2.2701023064
198.69	370.0266759432	2.2701023064
198.72	370.2789095328	2.2701023064
199.37	370.2789095328	2.2701023064
200.54	370.783376712	2.2701023064
200.61	370.783376712	2.2701023064
200.77	370.783376712	2.2701023064
201.44	370.783376712	2.2701023064
202.36	371.2878438912	2.2701023064
202.69	371.5400774808	2.2701023064
202.85	371.2878438912	2.2701023064
203.52	371.2878438912	2.2701023064
204.18	371.7923110704	2.2701023064
204.78	372.04454466	2.2701023064
204.94	371.7923110704	2.2701023064
205.6	371.7923110704	2.2701023064
206	372.2967782496	2.2701023064
206.86	372.5490118392	2.2701023064
207.02	372.5490118392	2.2701023064
207.68	372.5490118392	2.2701023064
207.83	372.8012454288	2.2701023064
208.95	373.0534790184	2.2701023064
209.1	373.0534790184	2.2701023064
209.65	373.5579461976	2.2701023064
209.76	373.305712608	2.2701023064
211.01	374.0624133768	2.2701023064
211.04	373.8101797872	2.2701023064
211.18	373.5579461976	2.2701023064
211.31	374.0624133768	2.2701023064
211.9	374.0624133768	2.2701023064
212.32	374.0624133768	2.2701023064
212.79	374.3146469664	2.2701023064
213.13	374.3146469664	2.2701023064
213.27	374.3146469664	2.2701023064
213.35	374.566880556	2.2701023064
213.69	374.8191141456	2.2701023064
214.38	374.8191141456	2.2701023064
214.58	375.3235813248	2.2701023064
215.22	375.0713477352	2.2701023064
215.35	374.8191141456	2.2701023064
215.4	375.3235813248	2.2701023064
215.48	376.3325156832	2.2701023064
216.43	375.5758149144	2.2701023064
217.31	375.828048504	2.2701023064
217.43	375.5758149144	2.2701023064
217.45	375.828048504	2.2701023064
218.48	376.5847492728	2.2701023064
219.41	376.3325156832	2.2701023064
219.51	376.0802820936	2.2701023064
219.52	376.0802820936	2.2701023064
220.55	376.5847492728	2.2701023064
221.5	376.8369828624	2.2701023064
221.58	376.8369828624	2.2701023064
221.61	376.8369828624	2.2701023064
222.61	377.3414500416	2.2701023064
223.6	377.5936836312	2.2701023064
223.65	378.0981508104	2.2701023064
223.7	377.5936836312	2.2701023064
224.69	378.3503844	2.2701023064
225.69	378.3503844	2.2701023064
225.73	378.6026179896	2.2701023064
225.78	378.3503844	2.2701023064
227.79	379.1070851688	2.2701023064
227.87	379.1070851688	2.2701023064
229.89	380.1160195272	2.2701023064
229.96	379.8637859376	2.2701023064
231.99	380.872720296	2.2701023064
232.05	380.6204867064	2.2701023064
234.09	381.3771874752	2.2701023064
234.14	381.3771874752	2.2701023064
236.19	382.3861218336	2.2701023064
236.23	382.133888244	2.2701023064
238.29	382.8905890128	2.2701023064
238.32	382.8905890128	2.2701023064
240.39	383.8995233712	2.2701023064
240.41	383.8995233712	2.2701023064
242.5	384.65622414	2.2701023064
242.5	384.65622414	2.2701023064
244.59	385.4129249088	2.2701023064
244.6	385.4129249088	2.2701023064
246.68	386.1696256776	2.2701023064
246.7	386.1696256776	2.2701023064
248.76	387.178560036	2.2701023064
248.81	387.178560036	2.2701023064
250.85	387.9352608048	2.2701023064
250.9	387.9352608048	2.2701023064
252.94	388.6919615736	2.2701023064
253	388.9441951632	2.2701023064
255.03	389.700895932	2.2701023064
255.1	389.700895932	2.2701023064
257.13	390.4575967008	2.2701023064
257.2	390.4575967008	2.2701023064
259.22	391.2142974696	2.2701023064
259.3	391.4665310592	2.2701023064
261.31	392.223231828	2.2701023064
261.41	392.4754654176	2.2701023064
263.4	393.2321661864	2.2701023064
263.52	393.2321661864	2.2701023064
265.49	394.2411005448	2.2701023064
265.62	394.2411005448	2.2701023064
267.58	394.9978013136	2.2701023064
267.73	395.2500349032	2.2701023064
269.68	396.006735672	2.2701023064
269.83	396.006735672	2.2701023064
271.77	396.7634364408	2.2701023064
271.93	397.0156700304	2.2701023064
273.86	397.7723707992	2.2701023064
274.03	398.0246043888	2.2701023064
275.95	398.529071568	2.2701023064
276.14	398.7813051576	2.2701023064
278.04	399.790239516	2.2701023064
278.24	399.790239516	2.2701023064
280.13	400.5469402848	2.2701023064
280.35	400.7991738744	2.2701023064
281.45	401.3036410536	2.2701023064
282.22	401.5558746432	2.2701023064
284.31	402.312575412	2.2701023064
286.4	403.0692761808	2.2701023064
288.49	404.3304441288	2.2701023064
290.57	405.3393784872	2.2701023064
292.66	406.3483128456	2.2701023064
294.73	407.1050136144	2.2701023064
296.81	408.1139479728	2.2701023064
297.91	408.8706487416	2.2701023064
297.97	408.618415152	2.2701023064
298.79	409.3751159208	2.2701023064
298.89	409.1228823312	2.2701023064
299.78	409.8795831	2.2701023064
299.79	409.8795831	2.2701023064
299.84	409.6273495104	2.2701023064
300.42	410.3840502792	2.2701023064
300.97	410.3840502792	2.2701023064
301.14	410.6362838688	2.2701023064
301.17	410.3840502792	2.2701023064
301.67	410.3840502792	2.2701023064
301.72	410.3840502792	2.2701023064
302.17	410.6362838688	2.2701023064
303.05	411.3929846376	2.2701023064
303.05	411.140751048	2.2701023064
303.54	411.3929846376	2.2701023064
303.61	411.140751048	2.2701023064
303.96	411.8974518168	2.2701023064
304.06	411.8974518168	2.2701023064
304.09	411.8974518168	2.2701023064
304.92	412.1496854064	2.2701023064
305.12	412.401918996	2.2701023064
305.42	412.401918996	2.2701023064
305.48	412.401918996	2.2701023064
305.94	412.6541525856	2.5220836624104
306.02	413.1586197648	2.5220836624104
306.16	412.9063861752	2.5220836624104
306.78	413.1586197648	2.5220836624104
307.2	413.4108533544	2.5220836624104
307.29	413.1586197648	2.5220836624104
307.35	413.1586197648	2.5220836624104
307.81	413.663086944	2.5220836624104
308.09	414.1675541232	2.5220836624104
308.23	413.9153205336	2.5220836624104
308.65	414.1675541232	2.5220836624104
309.16	414.1675541232	2.5220836624104
309.22	414.1675541232	2.5220836624104
309.27	414.4197877128	2.5220836624104
309.69	414.4197877128	2.5220836624104
310.16	415.1764884816	2.5220836624104
310.3	414.924254892	2.5220836624104
310.52	414.924254892	2.5220836624104
311.03	415.1764884816	2.5220836624104
311.09	414.924254892	2.5220836624104
311.34	415.4287220712	2.5220836624104
311.56	415.4287220712	2.5220836624104
312.23	416.18542284	2.5220836624104
312.37	415.9331892504	2.5220836624104
312.4	415.9331892504	2.5220836624104
312.9	416.18542284	2.5220836624104
312.97	415.6809556608	2.5220836624104
313.42	416.18542284	2.5220836624104
313.44	416.4376564296	2.5220836624104
314.27	416.6898900192	2.5220836624104
314.3	417.1943571984	2.5220836624104
314.44	416.9421236088	2.5220836624104
314.76	416.9421236088	2.5220836624104
314.84	416.6898900192	2.5220836624104
315.31	417.1943571984	2.5220836624104
315.49	417.1943571984	2.5220836624104
316.14	417.6988243776	2.5220836624104
316.37	417.9510579672	2.5220836624104
316.51	417.9510579672	2.5220836624104
316.63	417.9510579672	2.5220836624104
316.71	417.6988243776	2.5220836624104
317.18	418.2032915568	2.5220836624104
317.56	418.4555251464	2.5220836624104
318	418.4555251464	2.5220836624104
318.44	418.9599923256	2.5220836624104
318.5	418.707758736	2.5220836624104
318.57	418.9599923256	2.5220836624104
318.58	418.707758736	2.5220836624104
319.05	419.2122259152	2.5220836624104
319.63	419.2122259152	2.5220836624104
319.87	419.7166930944	2.5220836624104
320.36	419.4644595048	2.5220836624104
320.45	419.4644595048	2.5220836624104
320.5	419.968926684	2.5220836624104
320.64	419.7166930944	2.5220836624104
320.92	419.968926684	2.5220836624104
321.7	420.2211602736	2.5220836624104
321.73	420.4733938632	2.5220836624104
322.22	420.4733938632	2.5220836624104
322.32	420.2211602736	2.5220836624104
322.57	420.9778610424	2.5220836624104
322.71	420.7256274528	2.5220836624104
322.79	420.9778610424	2.5220836624104
323.59	421.4823282216	2.5220836624104
323.76	421.230094632	2.5220836624104
324.09	421.4823282216	2.5220836624104
324.18	420.9778610424	2.5220836624104
324.64	421.9867954008	2.5220836624104
324.66	421.9867954008	2.5220836624104
324.77	421.7345618112	2.5220836624104
325.83	422.2390289904	2.5220836624104
325.95	422.2390289904	2.5220836624104
326.05	421.9867954008	2.5220836624104
326.54	422.49126258	2.5220836624104
326.7	422.7434961696	2.5220836624104
326.84	422.9957297592	2.5220836624104
327.81	423.2479633488	2.5220836624104
327.89	423.2479633488	2.5220836624104
327.92	422.7434961696	2.5220836624104
328.4	423.5001969384	2.5220836624104
328.77	423.752430528	2.5220836624104
328.9	423.752430528	2.5220836624104
329.67	424.0046641176	2.5220836624104
329.78	423.752430528	2.5220836624104
329.95	425.013598476	2.5220836624104
330.27	424.7613648864	2.5220836624104
330.83	425.013598476	2.5220836624104
330.97	425.013598476	2.5220836624104
331.54	425.2658320656	2.5220836624104
331.64	425.013598476	2.5220836624104
332.02	425.5180656552	2.5220836624104
332.14	426.274766424	2.5220836624104
332.9	425.7702992448	2.5220836624104
333.03	426.274766424	2.5220836624104
333.41	425.7702992448	2.5220836624104
333.51	425.5180656552	2.5220836624104
334.01	426.5270000136	2.5220836624104
334.09	426.5270000136	2.5220836624104
334.96	427.0314671928	2.5220836624104
335.08	426.7792336032	2.5220836624104
335.27	426.7792336032	2.5220836624104
335.37	426.5270000136	2.5220836624104
335.87	427.2837007824	2.5220836624104
336.15	427.2837007824	2.5220836624104
337.02	428.2926351408	2.5220836624104
337.12	427.7881679616	2.5220836624104
337.14	428.0404015512	2.5220836624104
337.24	427.535934372	2.5220836624104
337.73	428.5448687304	2.5220836624104
338.22	428.2926351408	2.5220836624104
338.98	428.79710232	2.5220836624104
339.06	429.3015694992	2.5220836624104
339.1	428.5448687304	2.5220836624104
339.2	429.3015694992	2.5220836624104
339.59	429.5538030888	2.5220836624104
340.28	429.5538030888	2.5220836624104
340.83	429.8060366784	2.5220836624104
340.96	429.3015694992	2.5220836624104
341.12	430.5627374472	2.5220836624104
341.26	430.058270268	2.5220836624104
341.46	430.3105038576	2.5220836624104
342.34	430.5627374472	2.5220836624104
342.68	430.5627374472	2.5220836624104
342.82	430.058270268	2.5220836624104
343.18	431.0672046264	2.5220836624104
343.31	430.8149710368	2.5220836624104
343.32	431.0672046264	2.5220836624104
344.4	431.5716718056	2.5220836624104
344.54	431.319438216	2.5220836624104
344.68	430.8149710368	2.5220836624104
345.17	431.5716718056	2.5220836624104
345.23	431.5716718056	2.5220836624104
345.37	431.8239053952	2.5220836624104
346.39	432.3283725744	2.5220836624104
346.46	432.3283725744	2.5220836624104
346.53	431.8239053952	2.5220836624104
347.03	432.8328397536	2.5220836624104
347.29	432.580606164	2.5220836624104
348.23	432.8328397536	2.5220836624104
348.39	432.580606164	2.5220836624104
348.52	433.3373069328	2.5220836624104
348.89	433.5895405224	2.5220836624104
349.34	433.841774112	2.5220836624104
350.08	433.841774112	2.5220836624104
350.24	433.5895405224	2.5220836624104
350.58	434.0940077016	2.5220836624104
350.75	434.3462412912	2.5220836624104
351.39	435.10294206	2.5220836624104
351.93	434.5984748808	2.5220836624104
352.1	434.5984748808	2.5220836624104
352.6	435.10294206	2.5220836624104
352.63	435.10294206	2.5220836624104
353.45	436.1118764184	2.5220836624104
353.77	435.3551756496	2.5220836624104
353.95	435.3551756496	2.5220836624104
354.45	435.8596428288	2.5220836624104
354.69	436.6163435976	2.5220836624104
355.5	437.1208107768	2.5220836624104
355.61	436.364110008	2.5220836624104
355.79	436.1118764184	2.5220836624104
356.29	436.8685771872	2.5220836624104
356.75	437.625277956	2.5220836624104
357.44	437.1208107768	2.5220836624104
357.56	438.1297451352	2.5220836624104
357.63	437.1208107768	2.5220836624104
358.13	437.8775115456	2.5220836624104
358.82	438.6342123144	2.5220836624104
359.27	438.1297451352	2.5220836624104
359.46	437.8775115456	2.5220836624104
359.61	439.1386794936	2.5220836624104
359.97	438.6342123144	2.5220836624104
360.87	439.1386794936	2.5220836624104
361.09	439.1386794936	2.5220836624104
361.3	438.6342123144	2.5220836624104
361.67	440.147613852	2.5220836624104
361.8	439.3909130832	2.5220836624104
362.92	439.6431466728	2.5220836624104
362.93	440.147613852	2.5220836624104
363.11	439.3909130832	2.5220836624104
363.62	440.3998474416	2.5220836624104
363.73	440.9043146208	2.5220836624104
364.74	440.6520810312	2.5220836624104
364.94	440.147613852	2.5220836624104
365	441.1565482104	2.5220836624104
365.44	440.6520810312	2.5220836624104
365.79	441.9132489792	2.5220836624104
366.55	441.1565482104	2.5220836624104
366.75	440.9043146208	2.5220836624104
367.07	441.9132489792	2.5220836624104
367.27	441.4087818	2.5220836624104
367.85	442.1654825688	2.5220836624104
368.36	441.6610153896	2.5220836624104

System: 1-butyl-3-methylimidazolium trifluoroacetate; phases: Crystal 2, Gas
Property: Molar heat capacity at saturation pressure, J/K/mol (Crystal 2); method: VADIAC:UFactor:16
Temperature, K	Molar heat capacity at saturation pressure, J/K/mol	uncertainty
5	1.0089343584	0.249711253704
5.26	1.0089343584	0.249711253704
5.56	1.261167948	0.249711253704
5.87	1.5134015376	0.249711253704
6.21	2.0178687168	0.249711253704
6.59	2.2701023064	0.5044671792
6.97	2.7745694856	0.5044671792
7.35	3.2790366648	0.5044671792
7.74	3.783503844	0.5044671792
8.13	4.5402046128	0.5044671792
8.53	5.044671792	0.7567007688
8.92	5.8013725608	0.7567007688
9.32	6.5580733296	0.7567007688
9.73	7.3147740984	0.7567007688
10.13	8.0714748672	1.0089343584
10.63	9.0804092256	1.0089343584
11.25	10.3415771736	1.0089343584
11.87	11.8549787112	1.261167948
12.49	13.3683802488	1.261167948
13.12	14.8817817864	1.510879201704
13.74	16.395183324	1.510879201704
14.37	17.9085848616	1.770679798992
14.99	19.4219863992	1.770679798992
15.73	21.439855116	1.770679798992
16.58	23.4577238328	2.020391052696
17.43	25.7278261392	2.020391052696
18.28	27.9979284456	2.2701023064
19.13	30.0157971624	2.2701023064
19.98	32.2858994688	2.2701023064
21.13	35.312702544	2.5220836624104
22.59	39.3484399776	2.5220836624104
24.05	43.1319438216	2.5220836624104
25.52	46.9154476656	2.7745694856
26.99	50.44671792	2.7745694856
28.47	54.230221764	2.5220836624104
29.95	57.7614920184	2.5220836624104
31.59	61.797229452	2.020391052696
33.38	65.8329668856	2.020391052696
35.17	69.8687043192	2.2701023064
36.96	73.6522081632	2.2701023064
38.74	77.1834784176	2.5220836624104
40.52	80.714748672	2.5220836624104
42.39	84.498252516	2.5220836624104
44.36	88.28175636	2.7745694856
46.34	91.8130266144	2.7745694856
48.32	95.5965304584	2.7745694856
50.31	98.8755671232	3.0268030752
52.3	102.154603788	3.0268030752
54.29	105.4336404528	3.0268030752
56.28	108.7126771176	3.2790366648
58.26	111.7394801928	3.2790366648
60.25	115.0185168576	3.2790366648
62.24	117.7930863432	3.5312702544
64.22	120.8198894184	3.5312702544
66.21	123.594458904	3.5312702544
68.21	126.3690283896	3.5312702544
70.21	129.1435978752	3.783503844
72.22	131.6659337712	3.783503844
74.22	134.4405032568	3.783503844
76.22	137.2150727424	3.783503844
78.22	139.989642228	4.0357374336
78.34	139.7374086384	4.0357374336
78.36	139.989642228	4.0357374336
78.38	139.7374086384	4.0357374336
78.6	139.989642228	4.0357374336
80.22	142.511978124	4.0357374336
80.24	142.7642117136	4.0357374336
80.43	143.0164453032	4.0357374336
80.45	143.2686788928	4.0357374336
80.47	143.0164453032	4.0357374336
80.69	143.2686788928	4.0357374336
82.26	145.03431402	4.0357374336
82.35	145.2865476096	4.0357374336
82.42	145.5387811992	4.0357374336
82.44	146.0432483784	4.0357374336
82.45	145.7910147888	4.0357374336
82.68	145.7910147888	4.0357374336
84.28	147.3044163264	4.0357374336
84.41	147.556649916	4.0357374336
84.41	147.556649916	4.0357374336
84.43	147.8088835056	4.2879710232
84.44	147.8088835056	4.2879710232
84.68	147.8088835056	4.2879710232
86.41	150.078985812	4.2879710232
86.42	150.3312194016	4.2879710232
86.44	150.078985812	4.2879710232
86.48	150.078985812	4.2879710232
86.68	150.3312194016	4.2879710232
88.41	152.601321708	4.2879710232
88.41	152.8535552976	4.2879710232
88.44	152.601321708	4.2879710232
88.57	152.8535552976	4.2879710232
88.68	152.8535552976	4.2879710232
90.41	155.123657604	4.2879710232
90.41	155.123657604	4.2879710232
90.44	155.123657604	4.2879710232
90.67	155.3758911936	4.2879710232
90.68	155.123657604	4.2879710232
92.4	157.3937599104	4.5402046128
92.42	157.3937599104	4.5402046128
92.44	157.3937599104	4.5402046128
92.69	157.6459935	4.5402046128
92.78	157.6459935	4.5402046128
94.4	159.9160958064	4.5402046128
94.42	159.6638622168	4.5402046128
94.43	159.6638622168	4.5402046128
94.69	159.9160958064	4.5402046128
94.9	160.168329396	4.5402046128
96.41	162.1861981128	4.5402046128
96.43	161.9339645232	4.5402046128
96.44	161.9339645232	4.5402046128
96.7	162.1861981128	4.5402046128
97.04	162.690665292	4.5402046128
98.41	164.4563004192	4.5402046128
98.43	164.2040668296	4.5402046128
98.44	164.4563004192	4.5402046128
98.71	164.4563004192	4.5402046128
99.18	164.9607675984	4.5402046128
100.41	166.474169136	4.5402046128
100.45	166.474169136	4.5402046128
100.45	166.474169136	4.5402046128
100.72	166.7264027256	4.5402046128
101.32	167.4831034944	4.5402046128
102.42	168.7442714424	4.5402046128
102.46	168.7442714424	4.5402046128
102.46	168.7442714424	4.5402046128
102.73	168.996505032	4.5402046128
103.48	169.7532058008	4.5402046128
104.42	170.7621401592	4.5402046128
104.47	170.7621401592	4.5402046128
104.47	170.7621401592	4.5402046128
104.75	171.0143737488	4.5402046128
105.64	172.0233081072	4.5402046128
106.43	172.780008876	4.5402046128
106.48	173.0322424656	4.5402046128
106.49	173.0322424656	4.5402046128
106.77	173.2844760552	4.5402046128
107.82	174.5456440032	4.5402046128
108.44	175.0501111824	4.5402046128
108.5	175.0501111824	4.5402046128
108.5	175.0501111824	4.5402046128
108.79	175.5545783616	4.5402046128
109.99	176.8157463096	4.7924382024
110.46	177.0679798992	4.7924382024
110.52	177.3202134888	4.7924382024
110.53	177.0679798992	4.7924382024
110.81	177.5724470784	4.7924382024
112.17	178.8336150264	4.7924382024
112.48	179.085848616	4.7924382024
112.55	179.3380822056	4.7924382024
112.55	179.3380822056	4.7924382024
112.83	179.5903157952	4.7924382024
114.36	181.1037173328	4.7924382024
114.5	181.1037173328	4.7924382024
114.57	181.3559509224	4.7924382024
114.57	181.3559509224	4.7924382024
114.86	181.8604181016	4.7924382024
116.52	183.1215860496	4.7924382024
116.55	183.3738196392	4.7924382024
116.6	183.6260532288	4.7924382024
116.6	183.3738196392	4.7924382024
116.89	183.8782868184	4.7924382024
118.54	185.1394547664	4.7924382024
118.62	185.6439219456	4.7924382024
118.63	185.6439219456	4.7924382024
118.75	185.6439219456	4.7924382024
118.92	185.8961555352	4.7924382024
120.57	187.1573234832	4.7924382024
120.65	187.4095570728	4.7924382024
120.66	187.6617906624	4.7924382024
120.95	187.914024252	4.7924382024
120.96	187.914024252	4.7924382024
122.59	189.1751922	4.7924382024
122.69	189.4274257896	4.7924382024
122.86	189.6796593792	4.7924382024
122.99	189.9318929688	4.7924382024
123.17	190.1841265584	4.7924382024
124.62	190.9408273272	4.7924382024
124.72	191.4452945064	4.7924382024
125.02	191.9497616856	4.7924382024
125.04	191.9497616856	4.7924382024
125.38	192.2019952752	4.7924382024
126.65	192.958696044	4.7924382024
126.75	193.4631632232	4.7924382024
127.06	193.9676304024	4.7924382024
127.07	193.9676304024	4.7924382024
127.59	194.4720975816	4.7924382024
128.69	194.9765647608	4.7924382024
128.96	195.48103194	4.7924382024
129.1	195.9854991192	4.7924382024
129.1	195.9854991192	4.7924382024
129.81	196.742199888	5.044671792
130.9	196.9944334776	5.044671792
131.14	197.7511342464	5.044671792
131.15	198.003367836	5.044671792
131.23	197.7511342464	5.044671792
132.02	198.7600686048	5.044671792
133.18	199.264535784	5.044671792
133.18	199.7690029632	5.044671792
133.19	199.7690029632	5.044671792
133.44	200.0212365528	5.044671792
134.24	201.0301709112	5.044671792
135.23	201.78687168	5.044671792
135.23	201.78687168	5.044671792
135.4	201.2824045008	5.044671792
135.67	202.0391052696	5.044671792
136.46	203.048039628	5.044671792
137.27	203.8047403968	5.044671792
137.28	203.8047403968	5.044671792
137.62	203.3002732176	5.044671792
137.89	204.0569739864	5.044671792
138.68	205.3181419344	5.044671792
139.32	205.8226091136	5.044671792
139.32	205.8226091136	5.044671792
139.84	205.3181419344	5.044671792
140.11	206.0748427032	5.044671792
140.91	207.3360106512	5.044671792
141.37	207.8404778304	5.044671792
141.37	207.8404778304	5.044671792
142.06	207.3360106512	5.044671792
142.33	208.3449450096	5.044671792
143.13	209.6061129576	5.044671792
143.42	209.8583465472	5.044671792
143.42	209.6061129576	5.044671792
144.28	209.353879368	5.044671792
144.55	210.3628137264	5.044671792
145.36	211.6239816744	5.044671792
145.47	211.6239816744	5.044671792
145.47	211.6239816744	5.044671792
146.51	211.6239816744	5.044671792
146.78	212.3806824432	5.044671792
147.53	213.6418503912	5.044671792
147.53	213.6418503912	5.044671792
147.58	213.8940839808	5.044671792
148.73	213.6418503912	5.044671792
149.01	214.6507847496	5.044671792
149.58	215.659719108	5.044671792
149.58	215.4074855184	5.044671792
149.81	215.9119526976	5.044671792
150.95	215.659719108	5.044671792
151.23	216.6686534664	5.044671792
151.63	217.6775878248	5.2969053816
151.64	217.4253542352	5.2969053816
152.03	218.182055004	5.2969053816
153.18	217.9298214144	5.2969053816
153.46	218.9387557728	5.2969053816
153.69	219.6954565416	5.2969053816
153.69	219.443222952	5.2969053816
154.26	220.4521573104	5.2969053816
155.4	219.9476901312	5.2969053816
155.68	221.2088580792	5.2969053816
155.75	221.4610916688	5.2969053816
155.75	221.2088580792	5.2969053816
156.48	222.7222596168	5.2969053816
157.62	221.965558848	5.2969053816
157.8	223.7311939752	5.2969053816
157.81	223.226726796	5.2969053816
157.89	223.226726796	5.2969053816
158.7	224.7401283336	5.2969053816
159.84	224.2356611544	5.2969053816
159.85	225.749062692	5.2969053816
159.87	225.2445955128	5.2969053816
160.11	225.4968291024	5.2969053816
160.91	227.01023064	5.2969053816
161.9	227.5146978192	5.2969053816
161.93	227.01023064	5.2969053816
162.06	226.2535298712	5.2969053816
162.32	227.5146978192	5.2969053816
163.13	229.2803329464	5.2969053816
163.95	229.2803329464	5.2969053816
163.99	229.0280993568	5.2969053816
164.28	228.5236321776	5.2969053816
164.54	229.532566536	5.2969053816
165.34	231.0459680736	5.2969053816
166.01	231.2982016632	5.2969053816
166.05	231.0459680736	5.2969053816
166.5	230.5415008944	5.2969053816
166.75	231.8026688424	5.2969053816
167.55	233.31607038	5.2969053816
168.06	233.5683039696	5.2969053816
168.11	233.0638367904	5.2969053816
168.72	232.8116032008	5.2969053816
168.97	234.0727711488	5.2969053816
169.76	235.5861726864	5.2969053816
170.12	235.3339390968	5.2969053816
170.17	234.8294719176	5.2969053816
170.93	235.3339390968	5.2969053816
171.18	236.3428734552	5.2969053816
171.97	237.8562749928	5.5491389712
172.17	237.6040414032	5.5491389712
172.23	236.8473406344	5.2969053816
173.15	237.3518078136	5.2969053816
173.39	237.6040414032	5.5491389712
174.17	240.1263772992	5.5491389712
174.22	239.62191012	5.5491389712
174.29	238.8652093512	5.5491389712
175.35	239.1174429408	5.5491389712
175.59	239.62191012	5.5491389712
176.28	241.6397788368	5.5491389712
176.35	240.883078068	5.5491389712
176.37	242.3964796056	5.5491389712
177.55	240.1263772992	5.5491389712
177.79	241.6397788368	5.5491389712
178.33	243.6576475536	5.5491389712
178.41	242.9009467848	5.5491389712
178.57	244.666581912	5.5491389712
179.76	242.3964796056	5.5491389712
179.98	243.6576475536	5.5491389712
180.38	246.1799834496	5.5491389712
180.48	245.1710490912	5.5491389712
180.76	246.6844506288	5.5491389712
181.96	244.1621147328	5.5491389712
182.18	245.6755162704	5.5491389712
182.44	247.9456185768	5.5491389712
182.54	247.188917808	5.5491389712
182.95	248.9545529352	5.5491389712
184.15	245.92774986	5.5491389712
184.37	247.6933849872	5.5491389712
184.49	250.2157208832	5.5491389712
184.6	249.2067865248	5.5491389712
185.14	251.2246552416	5.5491389712
186.34	247.9456185768	5.5491389712
186.55	252.2335896	5.5491389712
186.56	249.2067865248	5.5491389712
186.67	251.4768888312	5.5491389712
187.32	253.2425239584	5.5491389712
188.53	249.711253704	5.5491389712
188.61	254.2514583168	5.5491389712
188.73	253.7469911376	5.5491389712
188.74	251.2246552416	5.5491389712
189.5	255.5126262648	5.5491389712
190.67	256.5215606232	5.5491389712
190.71	251.7291224208	5.5491389712
190.79	255.7648598544	5.5491389712
190.92	252.9902903688	5.5491389712
191.68	257.7827285712	5.8013725608
192.73	258.2871957504	5.8013725608
192.86	257.7827285712	5.8013725608
192.89	254.2514583168	5.5491389712
193.1	254.755925496	5.5491389712
193.85	259.800597288	5.8013725608
194.79	260.3050644672	5.8013725608
194.92	259.800597288	5.8013725608
195.07	255.7648598544	5.5491389712
195.27	256.7737942128	5.5491389712
196.02	262.0706995944	5.8013725608
196.85	262.322933184	5.8013725608
196.99	261.8184660048	5.8013725608
197.24	257.5304949816	5.5491389712
197.44	258.2871957504	5.8013725608
198.19	264.0885683112	5.8013725608
198.9	264.3408019008	5.8013725608
199.05	263.8363347216	5.8013725608
199.41	259.0438965192	5.8013725608
199.6	259.2961301088	5.8013725608
200.35	266.106437028	5.8013725608
200.96	266.106437028	5.8013725608
201.12	265.8542034384	5.8013725608
201.56	261.061765236	5.8013725608
201.77	262.0706995944	5.8013725608
202.51	268.1243057448	5.8013725608
203.02	268.1243057448	5.8013725608
203.18	267.8720721552	5.8013725608
203.73	262.8274003632	5.8013725608
203.93	263.0796339528	5.8013725608
204.67	270.1421744616	5.8013725608
205.08	269.889940872	5.8013725608
205.24	269.889940872	5.8013725608
205.89	265.3497362592	5.8013725608
206.1	265.0975026696	5.8013725608
206.83	272.1600431784	5.8013725608
207.14	271.6555759992	5.8013725608
207.31	271.9078095888	5.8013725608
208.03	267.367604976	5.8013725608
208.26	267.1153713864	5.8013725608
208.98	274.1779118952	5.8013725608
209.2	273.673444716	5.8013725608
209.37	273.673444716	5.8013725608
210.18	269.889940872	5.8013725608
210.41	268.3765393344	5.8013725608
210.52	272.6645103576	5.8013725608
211.14	276.195780612	5.8013725608
211.25	275.9435470224	5.8013725608
211.43	276.195780612	5.8013725608
212.31	272.1600431784	5.8013725608
212.56	270.1421744616	5.8013725608
212.71	275.4390798432	5.8013725608
213.29	278.2136493288	6.0536061504
213.31	277.7091821496	5.8013725608
213.5	278.2136493288	6.0536061504
214.44	274.934612664	5.8013725608
214.71	271.6555759992	5.8013725608
214.87	277.9614157392	5.8013725608
215.36	279.7270508664	6.0536061504
215.43	280.2315180456	6.0536061504
215.56	280.2315180456	6.0536061504
216.57	277.7091821496	5.8013725608
216.85	273.673444716	5.8013725608
217.01	280.4837516352	6.0536061504
217.42	281.7449195832	6.0536061504
217.58	282.501620352	6.0536061504
217.64	282.2493867624	6.0536061504
218.69	280.7359852248	6.0536061504
219	275.6913134328	5.8013725608
219.48	283.7627883	6.0536061504
219.71	284.2672554792	6.0536061504
219.72	284.2672554792	6.0536061504
220.51	284.7717226584	6.0536061504
220.7	284.7717226584	6.0536061504
220.81	283.5105547104	6.0536061504
221.13	278.2136493288	6.0536061504
221.55	285.023956248	6.0536061504
221.76	286.0328906064	6.0536061504
221.79	286.285124196	6.0536061504
221.86	286.5373577856	6.0536061504
222.65	287.0418249648	6.0536061504
222.81	287.2940585544	6.0536061504
222.91	286.5373577856	6.0536061504
223.25	280.4837516352	6.0536061504
223.62	287.2940585544	6.0536061504
223.86	288.3029929128	6.0536061504
223.88	288.0507593232	6.0536061504
223.99	288.5552265024	6.0536061504
224.77	288.807460092	6.0536061504
224.9	289.5641608608	6.0536061504
225.02	289.3119272712	6.0536061504
225.36	283.0060875312	6.0536061504
225.69	289.3119272712	6.0536061504
225.94	290.5730952192	6.0536061504
225.96	290.3208616296	6.0536061504
226.12	290.8253288088	6.0536061504
226.88	290.5730952192	6.0536061504
226.99	292.0864967568	6.0536061504
227.12	292.3387303464	6.0536061504
227.47	285.7806570168	6.0536061504
227.76	291.5820295776	6.0536061504
228.03	292.8431975256	6.0536061504
228.04	292.3387303464	6.0536061504
228.25	293.0954311152	6.0536061504
228.99	292.590963936	6.0536061504
229.07	294.1043654736	6.0536061504
229.22	295.3655334216	6.0536061504
229.57	288.5552265024	6.0536061504
229.84	293.5998982944	6.0536061504
230.12	295.113299832	6.0536061504
230.13	294.3565990632	6.0536061504
230.37	295.113299832	6.0536061504
231.1	294.6088326528	6.0536061504
231.16	296.1222341904	6.0536061504
231.32	298.3923364968	6.0536061504
231.66	291.329795988	6.0536061504
231.91	296.1222341904	6.0536061504
232.2	297.3834021384	6.0536061504
232.22	296.37446778	6.0536061504
232.49	297.3834021384	6.0536061504
233.2	297.3834021384	6.0536061504
233.24	298.6445700864	6.30583974
233.42	301.419139572	6.30583974
233.74	293.852131884	6.0536061504
233.99	298.1401029072	6.0536061504
234.28	299.9057380344	6.30583974
234.3	298.3923364968	6.0536061504
234.61	299.4012708552	6.30583974
235.29	299.1490372656	6.30583974
235.32	301.1669059824	6.30583974
235.52	304.1937090576	6.30583974
235.83	297.3834021384	6.0536061504
236.08	300.6624388032	6.30583974
236.37	302.68030752	6.30583974
236.39	300.4102052136	6.30583974
236.72	301.6713731616	6.30583974
237.38	300.6624388032	6.30583974
237.41	303.1847746992	6.30583974
237.61	307.4727457224	6.30583974
237.92	300.6624388032	6.30583974
238.17	303.1847746992	6.30583974
238.45	304.6981762368	6.30583974
238.48	302.68030752	6.30583974
238.83	304.4459426472	6.30583974
239.47	303.1847746992	6.30583974
239.49	305.9593441848	6.30583974
239.71	309.9950816184	6.30583974
239.99	304.1937090576	6.30583974
240.26	305.9593441848	6.30583974
240.53	307.2205121328	6.30583974
240.57	305.202643416	6.30583974
240.93	306.7160449536	6.30583974
241.55	305.9593441848	6.30583974
241.57	308.4816800808	6.30583974
241.79	313.5263518728	6.30583974
242.06	306.9682785432	6.30583974
242.35	308.4816800808	6.30583974
242.61	309.7428480288	6.30583974
242.67	306.9682785432	6.30583974
243.03	309.2383808496	6.30583974
243.63	308.98614726	6.30583974
243.65	311.0040159768	6.30583974
243.88	316.3009213584	6.30583974
244.12	311.2562495664	6.30583974
244.46	310.7517823872	6.30583974
244.69	312.5174175144	6.30583974
244.76	309.7428480288	6.30583974
245.12	311.7607167456	6.30583974
245.69	311.508483156	6.30583974
245.73	313.7785854624	6.30583974
245.95	319.3277244336	6.5580733296
246.18	314.7875198208	6.30583974
246.56	314.030819052	6.30583974
246.76	315.0397534104	6.30583974
246.85	312.5174175144	6.30583974
247.21	315.5442205896	6.30583974
247.75	314.7875198208	6.30583974
247.8	316.553154948	6.30583974
248.02	322.3545275088	6.5580733296
248.24	318.3187900752	6.30583974
248.66	317.3098557168	6.30583974
248.84	317.814322896	6.30583974
248.94	316.3009213584	6.30583974
249.29	318.8232572544	6.5580733296
249.8	318.0665564856	6.30583974
249.87	319.3277244336	6.5580733296
250.08	326.1380313528	6.5580733296
250.3	321.3455931504	6.5580733296
250.77	320.8411259712	6.5580733296
250.91	321.0933595608	6.5580733296
251.04	318.8232572544	6.30583974
251.36	322.3545275088	6.5580733296
251.85	320.8411259712	6.5580733296
251.94	322.3545275088	6.5580733296
252.14	329.6693016072	6.5580733296
252.35	325.1290969944	6.5580733296
252.98	324.120162636	6.5580733296
253	324.120162636	6.5580733296
253.13	322.3545275088	6.5580733296
253.44	324.3723962256	6.5580733296
253.88	323.1112282776	6.5580733296
254.02	325.6335641736	6.5580733296
254.2	333.4528054512	6.5580733296
254.4	329.164834428	6.5580733296
255.06	327.3991993008	6.5580733296
255.11	327.1469657112	6.5580733296
255.22	325.8857977632	6.5580733296
255.5	327.90366648	6.5580733296
255.92	326.3902649424	6.5580733296
256.09	329.6693016072	6.5580733296
256.24	337.2363092952	6.5580733296
256.43	333.2005718616	6.5580733296
257.12	330.9304695552	6.5580733296
257.2	330.9304695552	6.5580733296
257.3	328.9126008384	6.5580733296
257.56	331.1827031448	6.5580733296
257.94	330.426002376	6.5580733296
258.15	332.948338272	6.5580733296
258.27	341.776513908	6.8103069192
258.46	337.993010064	6.5580733296
259.17	335.470674168	6.5580733296
259.27	335.9751413472	6.5580733296
259.39	333.9572726304	6.5580733296
259.61	335.470674168	6.5580733296
259.95	334.9662069888	6.5580733296
260.2	337.4885428848	6.5580733296
260.28	346.0644849312	6.8103069192
260.48	343.037681856	6.8103069192
261.22	339.5064116016	6.8103069192
261.47	338.7497108328	6.5580733296
261.65	340.2631123704	6.8103069192
261.85	344.298849804	6.8103069192
261.95	340.2631123704	6.8103069192
262.24	342.2809810872	6.8103069192
262.29	348.3345872376	6.8103069192
262.48	348.8390544168	6.8103069192
263.26	345.0555505728	6.8103069192
263.56	344.0466162144	6.8103069192
263.67	345.560017752	6.8103069192
263.94	346.8211857	6.8103069192
264.27	348.3345872376	6.8103069192
264.28	350.1002223648	6.8103069192
264.46	356.1538285152	6.8103069192
265.08	353.3792590296	6.8103069192
265.28	351.865857492	6.8103069192
265.64	351.6136239024	6.8103069192
265.68	352.3703246712	6.8103069192
265.91	354.388193388	6.8103069192
266.28	356.4060621048	6.8103069192
266.28	352.6225582608	6.8103069192
266.44	363.216369024	7.0625405088
267.29	360.9462667176	7.0625405088
267.66	361.7029674864	7.0625405088
267.71	360.1895659488	7.0625405088
267.86	363.9730697928	7.0625405088
268.22	368.7655079952	7.0625405088
268.28	365.2342377408	7.0625405088
268.28	357.4149964632	6.8103069192
268.39	367.7565736368	7.0625405088
269.27	370.783376712	7.0625405088
269.62	373.305712608	7.0625405088
269.78	372.2967782496	7.0625405088
269.78	375.3235813248	7.0625405088
270.26	363.216369024	7.0625405088
270.26	377.8459172208	7.0625405088
270.34	366.4954056888	7.0625405088
271.23	385.6651584984	7.3147740984
271.3	391.4665310592	7.3147740984
271.54	387.9352608048	7.3147740984
271.66	389.9531295216	7.3147740984
271.83	389.1964287528	7.3147740984
272.19	392.223231828	7.3147740984
272.23	370.0266759432	7.0625405088
272.29	368.7655079952	7.0625405088
273.15	395.2500349032	7.3147740984
273.43	400.5469402848	7.567007688
273.52	394.2411005448	7.3147740984
273.86	410.1318166896	7.567007688

System: 1-butyl-3-methylimidazolium trifluoroacetate; phases: Crystal 1
Fixed: Pressure, kPa = 101.325
Property: Molar enthalpy function {Hm(T)-Hm(0)}/T, J/K/mol (Crystal 1); method: VADIAC:UFactor:8
Temperature, K	Molar enthalpy function {Hm(T)-Hm(0)}/T, J/K/mol	uncertainty
280	196	2.494
290	201.2	2.494
296.42	204.6	2.494

System: 1-butyl-3-methylimidazolium trifluoroacetate; phases: Crystal 2
Fixed: Pressure, kPa = 101.325
Property: Molar enthalpy function {Hm(T)-Hm(0)}/T, J/K/mol (Crystal 2); method: VADIAC:UFactor:8
Temperature, K	Molar enthalpy function {Hm(T)-Hm(0)}/T, J/K/mol	uncertainty
5	0.23	0.075
10	2	0.158
15	5.81	0.308
20	10.84	0.441
25	16.47	0.524
30	22.35	0.524
35	28.26	0.599
40	34.06	0.673
45	39.69	0.74
50	45.11	0.807
60	55.36	0.9312
70	64.85	1.0559
80	73.68	1.164
90	81.97	1.746
100	89.8	1.829
110	97.2	1.829
120	104.3	1.912
130	111	1.912
140	117.4	1.995
150	123.6	1.995
160	129.7	2.079
170	135.6	2.079
180	141.3	2.079
190	147.1	2.162
200	152.7	2.162
210	158.2	2.245
220	163.7	2.245
230	169.2	2.328
240	174.6	2.328
250	180	2.328
260	185.3	2.411
270	190.7	2.411

System: 1-butyl-3-methylimidazolium trifluoroacetate; phases: Liquid
Fixed: Pressure, kPa = 101.325
Property: Molar enthalpy function {Hm(T)-Hm(0)}/T, J/K/mol (Liquid); method: VADIAC:UFactor:8
Temperature, K	Molar enthalpy function {Hm(T)-Hm(0)}/T, J/K/mol	uncertainty
296.42	269.2	2.91
298.15	270	2.91
300	270.9	2.91
310	275.4	2.91
320	279.8	2.993
330	284	2.993
340	288.2	2.993
350	292.3	3.076
360	296.2	3.076
370	300.2	3.076

System: 1-butyl-3-methylimidazolium trifluoroacetate; phases: Crystal 1
Fixed: Pressure, kPa = 101.325
Property: Molar entropy, J/K/mol (Crystal 1); method: VADIAC:UFactor:8
Temperature, K	Molar entropy, J/K/mol	uncertainty
280	410.7	5.737
290	422.9	5.903
296.42	430.7	5.903

System: 1-butyl-3-methylimidazolium trifluoroacetate; phases: Crystal 2
Fixed: Pressure, kPa = 101.325
Property: Molar entropy, J/K/mol (Crystal 2); method: VADIAC:UFactor:8
Temperature, K	Molar entropy, J/K/mol	uncertainty
5	0.305	0.1189
10	2.66	0.283
15	7.94	0.59
20	15.31	0.8896
25	23.95	1.0975
30	33.36	0.9894
35	43.16	1.1723
40	53.11	1.3636
45	63.08	1.5465
50	72.97	1.7294
60	92.37	2.079
70	111.1	2.411
80	129.2	2.744
90	146.7	3.243
100	163.5	3.409
110	179.8	3.492
120	195.6	3.658
130	210.9	3.825
140	225.9	3.991
150	240.5	4.074
160	254.7	4.24
170	268.6	4.324
180	282.3	4.49
190	295.7	4.573
200	309	4.739
210	322.2	4.822
220	335.2	4.989
230	348	5.072
240	360.8	5.238
250	373.4	5.321
260	385.9	5.488
270	398.3	5.571

System: 1-butyl-3-methylimidazolium trifluoroacetate; phases: Liquid
Fixed: Pressure, kPa = 101.325
Property: Molar entropy, J/K/mol (Liquid); method: VADIAC:UFactor:8
Temperature, K	Molar entropy, J/K/mol	uncertainty
296.42	495.3	6.568
298.15	497.6	6.652
300	500.2	6.652
310	513.7	6.818
320	526.9	6.901
330	539.9	7.067
340	552.6	7.234
350	565.1	7.317
360	577.3	7.483
370	589.3	7.566
