Measured thermophysical data. Thermodynamic properties of epsilon-caprolactam and epsilon-caprothiolactam
Source: J. Chem. Thermodyn., 2019, 10.1016/j.jct.2019.01.014
Compound 1: carbon dioxide, CO2, InChI=1S/CO2/c2-1-3
Compound 2: nitrogen, N2, InChI=1S/N2/c1-2
Compound 3: water, H2O, InChI=1S/H2O/h1H2
Compound 4: oxygen, O2, InChI=1S/O2/c1-2
Compound 5: sulfuric acid, H2O4S, InChI=1S/H2O4S/c1-5(2,3)4/h(H2,1,2,3,4)
Compound 6: 1-aza-2-cycloheptanone, C6H11NO, InChI=1S/C6H11NO/c8-6-4-2-1-3-5-7-6/h1-5H2,(H,7,8)
Compound 7: azepane-2-thione, C6H11NS, InChI=1S/C6H11NS/c8-6-4-2-1-3-5-7-6/h1-5H2,(H,7,8)

System: 1-aza-2-cycloheptanone; phases: Crystal, Gas
Property: Molar enthalpy of vaporization or sublimation, kJ/mol (Crystal); method: Static calorimetry
Temperature, K	Molar enthalpy of vaporization or sublimation, kJ/mol	uncertainty
350.03	87.6	4.9

System: 1-aza-2-cycloheptanone; phases: Crystal, Gas
Property: Vapor or sublimation pressure, kPa (Crystal); method: Calculated from knudsen effusion weight loss
Temperature, K	Vapor or sublimation pressure, kPa	uncertainty
293.7	0.0001506	6.02e-05
295.7	0.000183	6.04e-05
296.6	0.0002211	6.05e-05
298.19	0.0002716	6.08e-05
299.67	0.0003173	6.1e-05
301.1	0.0003791	6.15e-05
302.69	0.0004403	6.2e-05
304.15	0.0005341	6.29e-05
305.59	0.0006374	6.41e-05
307.18	0.0007404	6.55e-05
308.66	0.0008828	6.77e-05
310.1	0.0010482	9.6e-05
293.7	0.0001518	6.02e-05
295.7	0.0001889	6.04e-05
296.6	0.0002196	6.05e-05
298.19	0.0002627	6.07e-05
299.67	0.0003254	6.11e-05
301.1	0.0003753	6.15e-05
302.69	0.0004428	6.2e-05
304.15	0.0005432	6.3e-05
305.59	0.0006305	6.4e-05
307.18	0.0007318	6.54e-05
308.66	0.0009064	6.81e-05
310.1	0.0010446	9.57e-05
293.7	0.0001508	6.02e-05
295.7	0.000182	6.03e-05
296.6	0.0002191	6.05e-05
298.19	0.0002587	6.07e-05
299.67	0.0003117	6.1e-05
301.1	0.0003757	6.15e-05
302.69	0.0004363	6.2e-05
304.15	0.0005228	6.28e-05
305.59	0.0006272	6.4e-05
307.18	0.0007265	6.53e-05
308.66	0.0008695	6.75e-05
310.1	0.0010376	9.53e-05

System: azepane-2-thione; phases: Crystal, Gas
Property: Molar enthalpy of vaporization or sublimation, kJ/mol (Crystal); method: Static calorimetry
Temperature, K	Molar enthalpy of vaporization or sublimation, kJ/mol	uncertainty
386.11	98.2	5.4

System: azepane-2-thione; phases: Crystal, Gas
Property: Vapor or sublimation pressure, kPa (Crystal); method: Calculated from knudsen effusion weight loss
Temperature, K	Vapor or sublimation pressure, kPa	uncertainty
318.18	9.46e-05	6.01e-05
320.16	0.0001211	6.02e-05
322.08	0.0001469	6.02e-05
324.2	0.0001901	6.04e-05
326.15	0.0002407	6.06e-05
328.08	0.0002869	6.09e-05
330.18	0.0003704	6.14e-05
332.12	0.0004677	6.22e-05
334.07	0.0005502	6.31e-05
336.18	0.0007079	6.5e-05
338.15	0.000897	6.79e-05
340.08	0.0010476	9.59e-05
318.18	9.18e-05	6.01e-05
320.16	0.0001201	6.02e-05
322.08	0.0001485	6.02e-05
324.2	0.0001813	6.03e-05
326.15	0.0002346	6.06e-05
328.08	0.0002879	6.09e-05
330.18	0.0003569	6.13e-05
332.12	0.0004537	6.21e-05
334.07	0.0005566	6.32e-05
336.18	0.0006862	6.47e-05
338.15	0.0008658	6.74e-05
340.08	0.0010574	9.66e-05
318.18	9.11e-05	6.01e-05
320.16	0.0001173	6.01e-05
322.08	0.0001484	6.02e-05
324.2	0.0001821	6.03e-05
326.15	0.0002296	6.05e-05
328.08	0.0002891	6.09e-05
330.18	0.0003533	6.13e-05
332.12	0.0004424	6.2e-05
334.07	0.0005557	6.31e-05
336.18	0.0006759	6.46e-05
338.15	0.0008434	6.7e-05
340.08	0.0010582	9.66e-05

Reaction: -1 1-aza-2-cycloheptanone + 6 carbon dioxide + .5 nitrogen + 5.5 water + -8.25 oxygen
Property: Specific internal energy of reaction at constant volume, J/g
-31826.4

Reaction: -1 azepane-2-thione + 1 sulfuric acid + 6 carbon dioxide + .5 nitrogen + 4.5 water + -10.25 oxygen
Property: Specific internal energy of reaction at constant volume, J/g
-34219.91
