Measured thermophysical data. Solubility modelling, solvent effect and preferential solvation of allopurinol in aqueous co-solvent mixtures of ethanol, isopropanol, N,N-dimethylformamide and 1-methyl-2-pyrrolidone
Source: J. Chem. Thermodyn., 2019, 10.1016/j.jct.2018.11.028
Compound 1: allopurinol, C5H4N4O, InChI=1S/C5H4N4O/c10-5-3-1-8-9-4(3)6-2-7-5/h1-2H,(H2,6,7,8,9,10), purity 98.3%
Compound 2: dimethylformamide, C3H7NO, InChI=1S/C3H7NO/c1-4(2)3-5/h3H,1-2H3
Compound 3: water, H2O, InChI=1S/H2O/h1H2
Compound 4: N-methylpyrrolidone, C5H9NO, InChI=1S/C5H9NO/c1-6-4-2-3-5(6)7/h2-4H2,1H3
Compound 5: propan-2-ol, C3H8O, InChI=1S/C3H8O/c1-3(2)4/h3-4H,1-2H3
Compound 6: ethanol, C2H6O, InChI=1S/C2H6O/c1-2-3/h3H,2H2,1H3

System: allopurinol + dimethylformamide + water; phases: Liquid, Crystal
Fixed: Pressure, kPa = 101.1
Property: Mole fraction of allopurinol (Liquid); method: Chromatography
Solvent: Mass fraction of dimethylformamide	Temperature, K	Mole fraction of allopurinol	uncertainty
0.1	293.15	6.865e-05	5.91e-06
0.1	298.15	8.978e-05	7.72e-06
0.1	303.15	0.0001162	1e-05
0.1	308.15	0.0001489	1.28e-05
0.1	313.15	0.0001891	1.63e-05
0.1	318.15	0.0002379	2.05e-05
0.1	323.15	0.0002969	2.55e-05
0.1	328.15	0.0003674	3.16e-05
0.1	333.15	0.0004513	3.88e-05
0.2	293.15	0.0001362	1.17e-05
0.2	298.15	0.0001752	1.51e-05
0.2	303.15	0.0002233	1.92e-05
0.2	308.15	0.0002819	2.43e-05
0.2	313.15	0.0003529	3.04e-05
0.2	318.15	0.0004383	3.77e-05
0.2	323.15	0.0005401	4.65e-05
0.2	328.15	0.0006607	5.68e-05
0.2	333.15	0.0008025	6.9e-05
0.3	293.15	0.0002067	1.78e-05
0.3	298.15	0.0002627	2.26e-05
0.3	303.15	0.0003309	2.85e-05
0.3	308.15	0.0004134	3.56e-05
0.3	313.15	0.0005125	4.41e-05
0.3	318.15	0.0006305	5.42e-05
0.3	323.15	0.0007703	6.63e-05
0.3	328.15	0.0009346	8.04e-05
0.3	333.15	0.00113	9.7e-05
0.4	293.15	0.0002787	2.4e-05
0.4	298.15	0.0003506	3.02e-05
0.4	303.15	0.0004375	3.76e-05
0.4	308.15	0.0005419	4.66e-05
0.4	313.15	0.0006663	5.73e-05
0.4	318.15	0.0008136	7e-05
0.4	323.15	0.000987	8.49e-05
0.4	328.15	0.001191	0.000102
0.4	333.15	0.00143	0.000123
0.5	293.15	0.0003726	3.21e-05
0.5	298.15	0.000464	3.99e-05
0.5	303.15	0.0005738	4.94e-05
0.5	308.15	0.0007045	6.06e-05
0.5	313.15	0.0008593	7.39e-05
0.5	318.15	0.00104	8.9e-05
0.5	323.15	0.00125	0.000108
0.5	328.15	0.0015	0.000129
0.5	333.15	0.00179	0.000154
0.6	293.15	0.000529	4.55e-05
0.6	298.15	0.0006517	5.61e-05
0.6	303.15	0.0007976	6.86e-05
0.6	308.15	0.0009701	8.35e-05
0.6	313.15	0.00117	0.000101
0.6	318.15	0.001412	0.000121
0.6	323.15	0.00169	0.000145
0.6	328.15	0.002004	0.000172
0.6	333.15	0.00237	0.000204
0.7	293.15	0.0008206	7.06e-05
0.7	298.15	0.0009984	8.59e-05
0.7	303.15	0.001213	0.000104
0.7	308.15	0.001451	0.000125
0.7	313.15	0.001746	0.00015
0.7	318.15	0.002071	0.000178
0.7	323.15	0.00245	0.000211
0.7	328.15	0.002894	0.000249
0.7	333.15	0.0034	0.000292
0.8	293.15	0.00137	0.000118
0.8	298.15	0.00165	0.000142
0.8	303.15	0.00197	0.000169
0.8	308.15	0.00234	0.000201
0.8	313.15	0.002774	0.000239
0.8	318.15	0.00326	0.00028
0.8	323.15	0.003821	0.000329
0.8	328.15	0.00446	0.000384
0.8	333.15	0.0052	0.000447
0.9	293.15	0.002353	0.000202
0.9	298.15	0.002787	0.00024
0.9	303.15	0.00327	0.000281
0.9	308.15	0.003843	0.000331
0.9	313.15	0.004496	0.000387
0.9	318.15	0.00523	0.00045
0.9	323.15	0.006088	0.000524
0.9	328.15	0.007031	0.000605
0.9	333.15	0.00811	0.000698

System: allopurinol + N-methylpyrrolidone + water; phases: Liquid, Crystal
Fixed: Pressure, kPa = 101.1
Property: Mole fraction of allopurinol (Liquid); method: Chromatography
Solvent: Mass fraction of N-methylpyrrolidone	Temperature, K	Mole fraction of allopurinol	uncertainty
0.1	293.15	8.797e-05	7.57e-06
0.1	298.15	0.0001116	9.6e-06
0.1	303.15	0.0001459	1.26e-05
0.1	308.15	0.0001904	1.64e-05
0.1	313.15	0.0002394	2.06e-05
0.1	318.15	0.0002895	2.49e-05
0.1	323.15	0.0003614	3.11e-05
0.1	328.15	0.0004526	3.89e-05
0.1	333.15	0.0005575	4.8e-05
0.2	293.15	0.0001414	1.22e-05
0.2	298.15	0.0001801	1.55e-05
0.2	303.15	0.0002357	2.03e-05
0.2	308.15	0.0002951	2.54e-05
0.2	313.15	0.0003641	3.13e-05
0.2	318.15	0.0004486	3.86e-05
0.2	323.15	0.0005529	4.76e-05
0.2	328.15	0.000678	5.83e-05
0.2	333.15	0.0008217	7.07e-05
0.3	293.15	0.0002203	1.9e-05
0.3	298.15	0.0002705	2.33e-05
0.3	303.15	0.0003334	2.87e-05
0.3	308.15	0.0004123	3.55e-05
0.3	313.15	0.0004963	4.27e-05
0.3	318.15	0.0006066	5.22e-05
0.3	323.15	0.0007345	6.32e-05
0.3	328.15	0.0008794	7.57e-05
0.3	333.15	0.00104	8.9e-05
0.4	293.15	0.0003017	2.6e-05
0.4	298.15	0.0003736	3.21e-05
0.4	303.15	0.0004534	3.9e-05
0.4	308.15	0.0005533	4.76e-05
0.4	313.15	0.0006752	5.81e-05
0.4	318.15	0.0008293	7.13e-05
0.4	323.15	0.0009944	8.55e-05
0.4	328.15	0.00119	0.000102
0.4	333.15	0.001401	0.000121
0.5	293.15	0.0004093	3.52e-05
0.5	298.15	0.0005043	4.34e-05
0.5	303.15	0.0006284	5.41e-05
0.5	308.15	0.0007626	6.56e-05
0.5	313.15	0.0009278	7.98e-05
0.5	318.15	0.001103	9.5e-05
0.5	323.15	0.001321	0.000114
0.5	328.15	0.00157	0.000135
0.5	333.15	0.001835	0.000158
0.6	293.15	0.0006174	5.31e-05
0.6	298.15	0.0007525	6.47e-05
0.6	303.15	0.0009278	7.98e-05
0.6	308.15	0.001141	9.8e-05
0.6	313.15	0.00134	0.000115
0.6	318.15	0.001564	0.000135
0.6	323.15	0.001832	0.000158
0.6	328.15	0.002155	0.000185
0.6	333.15	0.002531	0.000218
0.7	293.15	0.001112	9.6e-05
0.7	298.15	0.001325	0.000114
0.7	303.15	0.001591	0.000137
0.7	308.15	0.001904	0.000164
0.7	313.15	0.00225	0.000194
0.7	318.15	0.002621	0.000225
0.7	323.15	0.00309	0.000266
0.7	328.15	0.003614	0.000311
0.7	333.15	0.00416	0.000358
0.8	293.15	0.00241	0.000207
0.8	298.15	0.002851	0.000245
0.8	303.15	0.00335	0.000288
0.8	308.15	0.003934	0.000338
0.8	313.15	0.00457	0.000393
0.8	318.15	0.005303	0.000456
0.8	323.15	0.006112	0.000526
0.8	328.15	0.00701	0.000603
0.8	333.15	0.008024	0.00069
0.9	293.15	0.006551	0.000564
0.9	298.15	0.007585	0.000653
0.9	303.15	0.00873	0.000751
0.9	308.15	0.01004	0.00086
0.9	313.15	0.01101	0.00095
0.9	318.15	0.01303	0.00112
0.9	323.15	0.01505	0.00129
0.9	328.15	0.01702	0.00146
0.9	333.15	0.019	0.00163

System: allopurinol + propan-2-ol + water; phases: Liquid, Crystal
Fixed: Pressure, kPa = 101.1
Property: Mole fraction of allopurinol (Liquid); method: Chromatography
Solvent: Mass fraction of propan-2-ol	Temperature, K	Mole fraction of allopurinol	uncertainty
0.1	293.15	4.718e-05	4.06e-06
0.1	298.15	6.201e-05	5.33e-06
0.1	303.15	8.02e-05	6.9e-06
0.1	308.15	9.947e-05	8.56e-06
0.1	313.15	0.0001258	1.08e-05
0.1	318.15	0.0001549	1.33e-05
0.1	323.15	0.000193	1.66e-05
0.1	328.15	0.0002367	2.04e-05
0.1	333.15	0.0002819	2.43e-05
0.2	293.15	0.0001077	9.3e-06
0.2	298.15	0.0001388	1.19e-05
0.2	303.15	0.000177	1.52e-05
0.2	308.15	0.0002237	1.92e-05
0.2	313.15	0.0002802	2.41e-05
0.2	318.15	0.000348	2.99e-05
0.2	323.15	0.0004287	3.69e-05
0.2	328.15	0.0005242	4.51e-05
0.2	333.15	0.0006363	5.47e-05
0.3	293.15	0.0001422	1.22e-05
0.3	298.15	0.0001812	1.56e-05
0.3	303.15	0.0002287	1.97e-05
0.3	308.15	0.0002862	2.46e-05
0.3	313.15	0.0003551	3.05e-05
0.3	318.15	0.0004371	3.76e-05
0.3	323.15	0.000534	4.59e-05
0.3	328.15	0.0006477	5.57e-05
0.3	333.15	0.0007803	6.71e-05
0.4	293.15	0.0001691	1.45e-05
0.4	298.15	0.0002135	1.84e-05
0.4	303.15	0.0002671	2.3e-05
0.4	308.15	0.0003315	2.85e-05
0.4	313.15	0.0004082	3.51e-05
0.4	318.15	0.0004988	4.29e-05
0.4	323.15	0.0006052	5.21e-05
0.4	328.15	0.0007292	6.27e-05
0.4	333.15	0.000873	7.51e-05
0.5	293.15	0.0001995	1.72e-05
0.5	298.15	0.0002495	2.15e-05
0.5	303.15	0.0003096	2.66e-05
0.5	308.15	0.0003812	3.28e-05
0.5	313.15	0.0004657	4.01e-05
0.5	318.15	0.000565	4.86e-05
0.5	323.15	0.0006808	5.86e-05
0.5	328.15	0.0008151	7.01e-05
0.5	333.15	0.0009698	8.34e-05
0.6	293.15	0.0002399	2.06e-05
0.6	298.15	0.0002973	2.56e-05
0.6	303.15	0.0003656	3.15e-05
0.6	308.15	0.0004463	3.84e-05
0.6	313.15	0.0005409	4.65e-05
0.6	318.15	0.0006513	5.6e-05
0.6	323.15	0.0007793	6.7e-05
0.6	328.15	0.0009267	7.97e-05
0.6	333.15	0.001104	9.5e-05
0.7	293.15	0.0002821	2.43e-05
0.7	298.15	0.0003464	2.98e-05
0.7	303.15	0.0004224	3.63e-05
0.7	308.15	0.0005115	4.4e-05
0.7	313.15	0.0006153	5.29e-05
0.7	318.15	0.0007356	6.33e-05
0.7	323.15	0.0008741	7.52e-05
0.7	328.15	0.001033	8.9e-05
0.7	333.15	0.001212	0.000104
0.8	293.15	0.0003212	2.76e-05
0.8	298.15	0.0003798	3.27e-05
0.8	303.15	0.0004651	4e-05
0.8	308.15	0.0005579	4.8e-05
0.8	313.15	0.0006538	5.62e-05
0.8	318.15	0.0007761	6.68e-05
0.8	323.15	0.0008999	7.74e-05
0.8	328.15	0.00107	9.2e-05
0.8	333.15	0.001271	0.000109
0.9	293.15	0.0002191	1.88e-05
0.9	298.15	0.0002668	2.3e-05
0.9	303.15	0.0003381	2.91e-05
0.9	308.15	0.0004034	3.47e-05
0.9	313.15	0.0004946	4.25e-05
0.9	318.15	0.0005976	5.14e-05
0.9	323.15	0.0007081	6.09e-05
0.9	328.15	0.000848	7.3e-05
0.9	333.15	0.000999	8.59e-05

System: allopurinol + ethanol + water; phases: Liquid, Crystal
Fixed: Pressure, kPa = 101.1
Property: Mole fraction of allopurinol (Liquid); method: Chromatography
Solvent: Mass fraction of ethanol	Temperature, K	Mole fraction of allopurinol	uncertainty
0.1	293.15	6.431e-05	5.54e-06
0.1	298.15	8.368e-05	7.2e-06
0.1	303.15	0.0001104	9.5e-06
0.1	308.15	0.0001445	1.24e-05
0.1	313.15	0.0001885	1.62e-05
0.1	318.15	0.0002446	2.1e-05
0.1	323.15	0.000309	2.66e-05
0.1	328.15	0.00039	3.36e-05
0.1	333.15	0.0004935	4.25e-05
0.2	293.15	9.281e-05	7.99e-06
0.2	298.15	0.0001252	1.08e-05
0.2	303.15	0.0001638	1.41e-05
0.2	308.15	0.0002128	1.83e-05
0.2	313.15	0.0002663	2.29e-05
0.2	318.15	0.0003382	2.91e-05
0.2	323.15	0.0004161	3.58e-05
0.2	328.15	0.0005112	4.4e-05
0.2	333.15	0.0006217	5.35e-05
0.3	293.15	0.0001447	1.25e-05
0.3	298.15	0.0001839	1.58e-05
0.3	303.15	0.0002315	1.99e-05
0.3	308.15	0.0002891	2.49e-05
0.3	313.15	0.0003577	3.08e-05
0.3	318.15	0.0004391	3.78e-05
0.3	323.15	0.0005351	4.6e-05
0.3	328.15	0.0006474	5.57e-05
0.3	333.15	0.0007778	6.69e-05
0.4	293.15	0.0001775	1.53e-05
0.4	298.15	0.0002143	1.84e-05
0.4	303.15	0.0002646	2.28e-05
0.4	308.15	0.000337	2.9e-05
0.4	313.15	0.0004088	3.52e-05
0.4	318.15	0.0005115	4.4e-05
0.4	323.15	0.0006242	5.37e-05
0.4	328.15	0.0007549	6.5e-05
0.4	333.15	0.0009063	7.8e-05
0.5	293.15	0.0002057	1.77e-05
0.5	298.15	0.0002462	2.12e-05
0.5	303.15	0.0002978	2.56e-05
0.5	308.15	0.0003709	3.19e-05
0.5	313.15	0.000458	3.9e-05
0.5	318.15	0.0005722	4.92e-05
0.5	323.15	0.0006829	5.88e-05
0.5	328.15	0.0008259	7.11e-05
0.5	333.15	0.001009	8.7e-05
0.6	293.15	0.0003745	3.22e-05
0.6	298.15	0.0004469	3.85e-05
0.6	303.15	0.0005331	4.59e-05
0.6	308.15	0.0006356	5.47e-05
0.6	313.15	0.0007705	6.63e-05
0.6	318.15	0.0009284	7.99e-05
0.6	323.15	0.001113	9.6e-05
0.6	328.15	0.001339	0.000115
0.6	333.15	0.001603	0.000138
0.7	293.15	0.0005223	4.49e-05
0.7	298.15	0.0006575	5.66e-05
0.7	303.15	0.0008202	7.06e-05
0.7	308.15	0.001012	8.7e-05
0.7	313.15	0.001244	0.000107
0.7	318.15	0.001513	0.00013
0.7	323.15	0.001831	0.000158
0.7	328.15	0.00219	0.00019
0.7	333.15	0.002611	0.000225
0.8	293.15	0.0006042	5.2e-05
0.8	298.15	0.0007616	6.55e-05
0.8	303.15	0.000925	8e-05
0.8	308.15	0.001103	9.5e-05
0.8	313.15	0.001361	0.000117
0.8	318.15	0.00166	0.00014
0.8	323.15	0.001962	0.000169
0.8	328.15	0.00233	0.0002
0.8	333.15	0.002735	0.000235
0.9	293.15	0.000273	2.35e-05
0.9	298.15	0.0003471	2.99e-05
0.9	303.15	0.0004339	3.73e-05
0.9	308.15	0.0005383	4.63e-05
0.9	313.15	0.0006613	5.69e-05
0.9	318.15	0.0008062	6.94e-05
0.9	323.15	0.0009756	8.39e-05
0.9	328.15	0.00117	0.000101
0.9	333.15	0.00139	0.00012
