Measured thermophysical data. Experimental thermochemical study of fluoro-, chloro- and  bromo- derivatives of uracil
Source: J. Chem. Thermodyn., 2012, 10.1016/j.jct.2011.10.020
Compound 1: hydrogen fluoride, FH, InChI=1S/FH/h1H
Compound 2: carbon dioxide, CO2, InChI=1S/CO2/c2-1-3
Compound 3: nitrogen, N2, InChI=1S/N2/c1-2
Compound 4: water, H2O, InChI=1S/H2O/h1H2
Compound 5: oxygen, O2, InChI=1S/O2/c1-2
Compound 6: hydrogen chloride, ClH, InChI=1S/ClH/h1H
Compound 7: hydrogen bromide, BrH, InChI=1S/BrH/h1H
Compound 8: 5-fluoro-2,4(1H,3H)-pyrimidinedione, C4H3FN2O2, InChI=1S/C4H3FN2O2/c5-2-1-6-4(9)7-3(2)8/h1H,(H2,6,7,8,9), purity 99%
Compound 9: 5-chloro-2,4-pyrimidinedione, C4H3ClN2O2, InChI=1S/C4H3ClN2O2/c5-2-1-6-4(9)7-3(2)8/h1H,(H2,6,7,8,9), purity 99%
Compound 10: 5-bromouracil, C4H3BrN2O2, InChI=1S/C4H3BrN2O2/c5-2-1-6-4(9)7-3(2)8/h1H,(H2,6,7,8,9), purity 98%
Compound 11: 6-chlorouracil, C4H3ClN2O2, InChI=1S/C4H3ClN2O2/c5-2-1-3(8)7-4(9)6-2/h1H,(H2,6,7,8,9), purity 98%

Reaction: -1 5-fluoro-2,4(1H,3H)-pyrimidinedione + 1 hydrogen fluoride + 4 carbon dioxide + 1 nitrogen + 1 water + -3.5 oxygen
Property: Specific internal energy of reaction at constant volume, J/g
-12326.5

Reaction: -1 5-chloro-2,4-pyrimidinedione + 1 hydrogen chloride + 4 carbon dioxide + 1 nitrogen + 1 water + -3.5 oxygen
Property: Specific internal energy of reaction at constant volume, J/g
-10843.2

Reaction: -1 5-bromouracil + 1 hydrogen bromide + 4 carbon dioxide + 1 nitrogen + 1 water + -3.5 oxygen
Property: Specific internal energy of reaction at constant volume, J/g
-8309.5

Reaction: -1 6-chlorouracil + 1 hydrogen chloride + 4 carbon dioxide + 1 nitrogen + 1 water + -3.5 oxygen
Property: Specific internal energy of reaction at constant volume, J/g
-10696
