Measured thermophysical data. Volumetric properties of binary mixtures of ionic liquid 1-butyl-3-methylimidazolium octylsulfate with water or propanol in the temperature range of 278.15 K to 328.15 K
Source: J. Chem. Thermodyn., 2006, 10.1016/j.jct.2005.11.008
Compound 1: 1-butyl-3-methylimidazolium octyl sulfate, C16H32N2O4S, InChI=1S/C8H15N2.C8H18O4S/c1-3-4-5-10-7-6-9(2)8-10;1-2-3-4-5-6-7-8-12-13(9,10)11/h6-8H,3-5H2,1-2H3;2-8H2,1H3,(H,9,10,11)/q+1;/p-1
Compound 2: water, H2O, InChI=1S/H2O/h1H2, purity 99.9%
Compound 3: propan-1-ol, C3H8O, InChI=1S/C3H8O/c1-2-3-4/h4H,2-3H2,1H3

System: propan-1-ol; phases: Liquid
Fixed: Pressure, kPa = 101
Property: Mass density, kg/m3 (Liquid); method: VIBTUB:UFactor:32
Temperature, K	Mass density, kg/m3	uncertainty
278.15	815.98	3.4
288.15	807.54	3.5
298.15	799.54	3.6
308.15	791.44	3.69
318.15	783.22	3.79

System: water + 1-butyl-3-methylimidazolium octyl sulfate; phases: Liquid
Fixed: Pressure, kPa = 101
Property: Mass density, kg/m3 (Liquid); method: VIBTUB:UFactor:32
Temperature, K	Molality, mol/kg of 1-butyl-3-methylimidazolium octyl sulfate	Mass density, kg/m3	uncertainty
278.15	0	999.97	0.99
278.15	0.629	1015.71	1.21
278.15	1.519	1030.1	1.42
278.15	2.395	1039.66	1.57
278.15	3.321	1046.92	1.69
278.15	4.251	1052.18	1.77
288.15	0	999.09	1
288.15	0.64	1013.5	1.18
288.15	1.515	1026.3	1.38
288.15	2.397	1035.05	1.52
288.15	3.311	1041.51	1.62
288.15	4.246	1046.54	1.7
298.15	0	997.05	1.03
298.15	0.639	1010.2	1.14
298.15	1.502	1021.8	1.32
298.15	2.394	1029.92	1.46
298.15	3.321	1035.98	1.56
298.15	4.238	1040.38	1.63
308.15	0	994.05	1.07
308.15	0.647	1006.28	1.09
308.15	1.499	1016.86	1.26
308.15	2.393	1024.44	1.39
308.15	3.311	1030.03	1.49
308.15	4.274	1034.42	1.56
318.15	0	990.22	1.12
318.15	0.636	1001.43	1.03
318.15	1.487	1011.32	1.2
318.15	2.4	1018.63	1.32
318.15	3.297	1023.73	1.41
318.15	4.253	1027.86	1.49
328.15	0	985.73	1.17
328.15	0.639	996.28	1.06
328.15	1.504	1005.67	1.13
328.15	2.404	1012.35	1.25
328.15	3.314	1017.28	1.34
328.15	4.258	1021.29	1.41

System: propan-1-ol + 1-butyl-3-methylimidazolium octyl sulfate; phases: Liquid
Fixed: Pressure, kPa = 101
Property: Mass density, kg/m3 (Liquid); method: VIBTUB:UFactor:32
Temperature, K	Molality, mol/kg of 1-butyl-3-methylimidazolium octyl sulfate	Mass density, kg/m3	uncertainty
278.15	0	815.98	3.4
278.15	0.196	829.35	3.24
278.15	0.468	846.13	3.04
278.15	0.726	859.61	2.89
278.15	1	872.81	2.73
278.15	1.302	885.46	2.59
288.15	0	807.54	3.5
288.15	0.188	820.73	3.34
288.15	0.447	836.66	3.15
288.15	0.742	852.43	2.97
288.15	0.997	864.61	2.83
288.15	1.287	876.57	2.69
298.15	0	799.54	3.6
298.15	0.175	812.03	3.45
298.15	0.443	828.68	3.25
298.15	0.72	843.94	3.07
298.15	0.991	856.55	2.92
298.15	1.306	869.95	2.77
308.15	0	791.44	3.69
308.15	0.196	805.47	3.52
308.15	0.459	821.77	3.33
308.15	0.756	838.02	3.14
308.15	0.96	847.43	3.03
308.15	1.272	861.12	2.87
318.15	0	783.22	3.79
318.15	0.199	797.7	3.62
318.15	0.454	813.46	3.43
318.15	0.738	828.9	3.25
318.15	1.003	841.94	3.09
318.15	1.279	853.78	2.95
