Measured thermophysical data. Experimental and computational thermochemistry of 3- and 4-nitrophthalic acids
Source: J. Chem. Thermodyn., 2018, 10.1016/j.jct.2018.07.026
Compound 1: carbon dioxide, CO2, InChI=1S/CO2/c2-1-3
Compound 2: nitrogen, N2, InChI=1S/N2/c1-2
Compound 3: water, H2O, InChI=1S/H2O/h1H2
Compound 4: oxygen, O2, InChI=1S/O2/c1-2
Compound 5: 3-nitro-1,2-benzenedicarboxylic acid, C8H5NO6, InChI=1S/C8H5NO6/c10-7(11)4-2-1-3-5(9(14)15)6(4)8(12)13/h1-3H,(H,10,11)(H,12,13), purity 99%
Compound 6: 4-nitrophthalic acid, C8H5NO6, InChI=1S/C8H5NO6/c10-7(11)5-2-1-4(9(14)15)3-6(5)8(12)13/h1-3H,(H,10,11)(H,12,13), purity 92%

System: 3-nitro-1,2-benzenedicarboxylic acid; phases: Crystal 1, Liquid, Air at 1 atmosphere
Property: Molar enthalpy of transition or fusion, kJ/mol (Crystal 1); method: DSC
Molar enthalpy of transition or fusion, kJ/mol	uncertainty
55.3	1.3

System: 3-nitro-1,2-benzenedicarboxylic acid; phases: Crystal 1, Liquid, Air at 1 atmosphere
Property: Normal melting temperature, K (Crystal 1); method: DTA
Normal melting temperature, K	uncertainty
496.4	0.5

System: 3-nitro-1,2-benzenedicarboxylic acid; phases: Crystal, Gas
Property: Molar enthalpy of vaporization or sublimation, kJ/mol (Crystal); method: Derived by Second law
Temperature, K	Molar enthalpy of vaporization or sublimation, kJ/mol	uncertainty
474.5	126.9	3.4

System: 3-nitro-1,2-benzenedicarboxylic acid; phases: Crystal
Fixed: Pressure, kPa = 78.8
Property: Molar heat capacity at constant pressure, J/K/mol (Crystal); method: DSC
Temperature, K	Molar heat capacity at constant pressure, J/K/mol	uncertainty
295.15	242.66	10.67
296.15	244.28	10.71
297.15	245.61	10.75
298.15	246.53	10.77
299.15	247.02	10.79
300.15	248.36	10.83
301.15	249.69	10.87
302.15	250.75	10.9
303.15	251.67	10.92
304.15	252.72	10.95
305.15	253.35	10.97
306.15	253.99	10.99
307.15	254.41	11
308.15	254.83	11.01
309.15	255.47	11.03
310.15	256.8	11.1
311.15	255.96	11.04
312.15	257.22	11.08
313.15	258	11
314.15	258.77	11.13
315.15	259.12	11.14
316.15	260.18	11.17
317.15	260.67	11.18
318.15	261.31	11.2
319.15	261.94	11.22
320.15	262.71	11.24
321.15	263.56	11.27
322.15	264.19	11.28
323.15	264.97	11.31
324.15	265.67	11.33
325.15	266.44	11.35
326.15	266.94	11.36
327.15	267.57	11.38
328.15	268.41	11.41
329.15	268.77	11.42
330.15	269.4	11.4
331.15	269.96	11.45
332.15	270.6	11.5
333.15	271.23	11.49
334.15	271.79	11.51
335.15	272.36	11.52
336.15	273.27	11.55
337.15	272.43	11.53
338.15	273.83	11.57
339.15	274.4	11.6
340.15	275.03	11.6
341.15	275.66	11.62
342.15	276.44	11.65
343.15	277.14	11.67
344.15	277.63	11.68
345.15	278.34	11.7
346.15	278.97	11.72
347.15	279.75	11.74
348.15	280.38	11.76
349.15	280.94	11.78
350.15	281.5	11.8
351.15	281.72	11.8
352.15	282.07	11.81
353.15	282.49	11.82
354.15	282.91	11.84
355.15	283.48	11.85
356.15	284.11	11.87
357.15	284.32	11.88
358.15	285.02	11.9
359.15	285.59	11.92
360.15	286.22	11.94
361.15	286.71	11.95
362.15	287.21	11.97
363.15	287.7	12
364.15	288.12	11.99
365.15	288.68	12.01
366.15	289.32	12.03
367.15	289.95	12.05
368.15	290.3	12.1
369.15	290.86	12.08
370.15	291.29	12.09
371.15	291.64	12.1
372.15	292.06	12.11
373.15	292.62	12.13
374.15	293.26	12.15
375.15	293.47	12.15
376.15	294.1	12.2
377.15	294.59	12.19
378.15	295.23	12.21
379.15	295.72	12.22
380.15	296.07	12.23
381.15	296.57	12.25
382.15	296.99	12.26
383.15	297.55	12.28
384.15	297.9	12.3
385.15	298.39	12.3
386.15	298.68	12.31
387.15	299.24	12.33
388.15	299.73	12.34
389.15	300.01	12.35
390.15	300.86	12.38
391.15	301.21	12.39
392.15	301.49	12.4
393.15	301.84	12.41
394.15	302.2	12.4
395.15	302.69	12.43
396.15	303.25	12.45
397.15	303.74	12.47
398.15	304.45	12.49
399.15	305.22	12.51
400.15	305.71	12.53
401.15	306.28	12.54
402.15	306.84	12.56
403.15	307.33	12.58
404.15	307.68	12.59
405.15	308.25	12.6
406.15	308.74	12.62
407.15	309.02	12.63
408.15	309.73	12.65
409.15	310.15	12.66
410.15	310.64	12.68
411.15	311.13	12.69
412.15	311.56	12.7

System: 4-nitrophthalic acid; phases: Crystal 1, Liquid, Air at 1 atmosphere
Property: Molar enthalpy of transition or fusion, kJ/mol (Crystal 1); method: DSC
Molar enthalpy of transition or fusion, kJ/mol	uncertainty
37	0.8

System: 4-nitrophthalic acid; phases: Crystal 1, Liquid, Air at 1 atmosphere
Property: Normal melting temperature, K (Crystal 1); method: DTA
Normal melting temperature, K	uncertainty
440	0.8

System: 4-nitrophthalic acid; phases: Crystal
Property: Mass density, kg/m3 (Crystal); method: Pycnometric method
Temperature, K	Pressure, kPa	Mass density, kg/m3	uncertainty
298.15	101.325	1647	12

System: 4-nitrophthalic acid; phases: Crystal, Gas
Property: Molar enthalpy of vaporization or sublimation, kJ/mol (Crystal); method: Derived by Second law
Temperature, K	Molar enthalpy of vaporization or sublimation, kJ/mol	uncertainty
422	114.1	3

System: 4-nitrophthalic acid; phases: Crystal
Fixed: Pressure, kPa = 78.8
Property: Molar heat capacity at constant pressure, J/K/mol (Crystal); method: DSC
Temperature, K	Molar heat capacity at constant pressure, J/K/mol	uncertainty
295.15	229.53	20.66
296.15	230.9	20.7
297.15	232.06	20.7
298.15	233.01	20.71
299.15	233.22	20.71
300.15	234.59	20.73
301.15	236.28	20.76
302.15	237.02	20.77
303.15	237.97	20.78
304.15	239.13	20.8
305.15	239.66	20.8
306.15	240.19	20.81
307.15	240.5	20.8
308.15	240.61	20.82
309.15	240.93	20.82
310.15	242.51	20.85
311.15	241.24	20.83
312.15	242.62	20.85
313.15	243.57	20.86
314.15	244.09	20.87
315.15	244.83	20.88
316.15	245.36	20.89
317.15	246.1	20.9
318.15	246.2	20.9
319.15	246.94	20.91
320.15	248	21
321.15	248.74	20.94
322.15	249.37	20.95
323.15	250.22	20.96
324.15	250.95	20.97
325.15	251.69	20.98
326.15	252.22	20.99
327.15	252.64	21
328.15	253.38	21.01
329.15	254.02	21.02
330.15	254.54	21.02
331.15	255.07	21.03
332.15	255.71	21.04
333.15	256.23	21.05
334.15	256.76	21.06
335.15	257.5	21.1
336.15	258.34	21.08
337.15	256.97	21.06
338.15	258.45	21.08
339.15	258.98	21.09
340.15	259.4	21.1
341.15	259.93	21.11
342.15	260.67	21.12
343.15	261.41	21.13
344.15	261.72	21.13
345.15	262.25	21.14
346.15	262.78	21.15
347.15	263.52	21.16
348.15	263.94	21.17
349.15	264.47	21.18
350.15	264.99	21.18
351.15	265.42	21.19
352.15	266.05	21.2
353.15	266.26	21.2
354.15	266.79	21.21
355.15	267.32	21.22
356.15	267.74	21.23
357.15	267.95	21.23
358.15	268.58	21.24
359.15	268.9	21.2
360.15	269.64	21.26
361.15	269.85	21.26
362.15	270.27	21.27
363.15	270.59	21.27
364.15	271.12	21.28
365.15	271.86	21.29
366.15	272.17	21.3
367.15	272.81	21.31
368.15	273.23	21.32
369.15	274.07	21.33
370.15	274.39	21.33
371.15	275.02	21.34
372.15	275.23	21.35
373.15	275.66	21.35
374.15	276.29	21.36
375.15	276.61	21.37
376.15	277.03	21.38
377.15	277.56	21.39
378.15	278.51	21.4
379.15	279.03	21.41
380.15	279.56	21.42
381.15	280.3	21.4
382.15	280.83	21.44
383.15	281.57	21.45
384.15	282.1	21.5
385.15	282.84	21.47
386.15	283.26	21.48
387.15	284.21	21.49
388.15	284.95	21.51
389.15	285.37	21.51
390.15	286.64	21.53
391.15	287.48	21.55
392.15	288.22	21.56
393.15	288.32	21.56
394.15	289.27	21.58
395.15	290.33	21.6

Reaction: -1 3-nitro-1,2-benzenedicarboxylic acid + 8 carbon dioxide + .5 nitrogen + 2.5 water + -6.25 oxygen
Property: Specific internal energy of reaction at constant volume, J/g
-14566.5

Reaction: -1 4-nitrophthalic acid + 8 carbon dioxide + .5 nitrogen + 2.5 water + -6.25 oxygen
Property: Specific internal energy of reaction at constant volume, J/g
-14589.9
