Measured thermophysical data. Measurement and modelling of the solubility of carbon dioxide in aqueous 1,8-p-menthane-diamine solution
Source: J. Chem. Thermodyn., 2014, 10.1016/j.jct.2013.11.018
Compound 1: water, H2O, InChI=1S/H2O/h1H2, purity 99%
Compound 2: carbon dioxide, CO2, InChI=1S/CO2/c2-1-3, purity 99.9%
Compound 3: 1,8-p-menthanediamine, C10H22N2, InChI=1S/C10H22N2/c1-9(2,11)8-4-6-10(3,12)7-5-8/h8H,4-7,11-12H2,1-3H3, purity 97%

System: 1,8-p-menthanediamine + carbon dioxide + water; phases: Liquid, Gas
Property: Amount concentration (molarity), mol/dm3 of carbon dioxide (Liquid); method: Volumetric method
Temperature, K	Pressure, kPa of carbon dioxide	Amount concentration (molarity), mol/dm3 of 1,8-p-menthanediamine	Amount concentration (molarity), mol/dm3 of carbon dioxide	uncertainty
313.15	0.55	0.625	0.114	0.01
313.15	1.12	0.625	0.261	0.02
313.15	1.46	0.625	0.383	0.029
313.15	2.13	0.625	0.496	0.038
313.15	4.74	0.625	0.75	0.056
313.15	7.47	0.625	0.863	0.063
313.15	11.2	0.625	0.969	0.07
313.15	25.5	0.625	1.069	0.076
313.15	58	0.625	1.138	0.089
333.15	1.23	0.625	0.093	0.008
333.15	2.07	0.625	0.186	0.015
333.15	3.08	0.625	0.276	0.021
333.15	4.17	0.625	0.38	0.032
333.15	6.47	0.625	0.454	0.037
333.15	10.7	0.625	0.554	0.049
333.15	13.3	0.625	0.706	0.055
333.15	23	0.625	0.825	0.061
333.15	42.7	0.625	0.938	0.07
333.15	70.1	0.625	1.019	0.076
333.15	109.2	0.625	1.075	0.081
333.15	152.4	0.625	1.113	0.096
353.15	6.8	0.625	0.163	0.018
353.15	10.7	0.625	0.229	0.026
353.15	12.7	0.625	0.295	0.023
353.15	19.9	0.625	0.374	0.033
353.15	30.2	0.625	0.468	0.043
353.15	37	0.625	0.519	0.047
353.15	49.5	0.625	0.576	0.055
353.15	62.1	0.625	0.744	0.056
353.15	112.1	0.625	0.869	0.063
353.15	188.4	0.625	0.969	0.071
353.15	265.7	0.625	1.038	0.074
353.15	352.1	0.625	1.094	0.077
353.15	508	0.625	1.138	0.08
353.15	690.6	0.625	1.188	0.084
313.15	0.78	1.25	0.284	0.023
313.15	1	1.25	0.444	0.036
313.15	1.61	1.25	0.634	0.051
313.15	2.18	1.25	0.824	0.068
313.15	3.01	1.25	1.009	0.076
313.15	3.82	1.25	1.438	0.106
313.15	7.12	1.25	1.625	0.119
313.15	10.8	1.25	1.813	0.132
313.15	19.7	1.25	2.013	0.156
313.15	43.9	1.25	2.213	0.172
313.15	89.4	1.25	2.35	0.183
313.15	116.4	1.25	2.4	0.188
333.15	1.27	1.25	0.15	0.012
333.15	3	1.25	0.329	0.028
333.15	5	1.25	0.636	0.061
333.15	8.4	1.25	0.881	0.077
333.15	11.8	1.25	1.123	0.094
333.15	30.8	1.25	1.55	0.127
333.15	50.1	1.25	1.775	0.144
333.15	79.5	1.25	1.963	0.156
333.15	127.5	1.25	2.15	0.172
333.15	210.4	1.25	2.288	0.186
333.15	378.5	1.25	2.413	0.195
333.15	547.5	1.25	2.463	0.199
353.15	8.9	1.25	0.31	0.047
353.15	13	1.25	0.559	0.044
353.15	22.4	1.25	0.761	0.088
353.15	40.7	1.25	0.966	0.101
353.15	130.2	1.25	1.563	0.139
353.15	169.5	1.25	1.638	0.144
353.15	245.5	1.25	1.863	0.161
353.15	354.4	1.25	2.025	0.168
353.15	474.3	1.25	2.138	0.172
353.15	628.4	1.25	2.288	0.183
353.15	776	1.25	2.4	0.191
