Measured thermophysical data. Absorption capacity and viscosity for CO2 capture process using high concentrated PZ-DEAE aqueous solution
Source: J. Chem. Thermodyn., 2016, 10.1016/j.jct.2016.05.022
Compound 1: water, H2O, InChI=1S/H2O/h1H2, purity 99.9%
Compound 2: carbon dioxide, CO2, InChI=1S/CO2/c2-1-3, purity 99.99%
Compound 3: (diethylamino)ethanol, C6H15NO, InChI=1S/C6H15NO/c1-3-7(4-2)5-6-8/h8H,3-6H2,1-2H3, purity 99%
Compound 4: piperazine, C4H10N2, InChI=1S/C4H10N2/c1-2-6-4-3-5-1/h5-6H,1-4H2, purity 99.5%

System: (diethylamino)ethanol + carbon dioxide + water; phases: Liquid, Gas
Fixed: Pressure, kPa = 101
Property: Mass ratio of solute to solvent of carbon dioxide (Liquid); method: volumetric
Temperature, K	Solvent: Mass fraction of (diethylamino)ethanol	Mass ratio of solute to solvent of carbon dioxide	uncertainty
303.2	0.3001	0.0968	0.0056
303.2	0.3999	0.1278	0.0056
303.2	0.5001	0.1559	0.0056
313.2	0.3001	0.0952	0.0056
313.2	0.3999	0.1228	0.0056
313.2	0.5001	0.148	0.0056
323.2	0.3001	0.0912	0.0056
323.2	0.3999	0.1181	0.0056
323.2	0.5001	0.1337	0.0056

System: (diethylamino)ethanol + carbon dioxide + water; phases: Liquid
Fixed: Pressure, kPa = 101
Fixed: Solvent: Mass fraction of (diethylamino)ethanol = 0.3
Property: Viscosity, Pa*s (Liquid); method: Concentric cylinders viscometry
Temperature, K	Mass fraction of carbon dioxide	Viscosity, Pa*s	uncertainty
303.2	0.03	0.00345	0.0002
303.2	0.054	0.00375	0.0002
303.2	0.068	0.00386	0.00017
303.2	0.084	0.00394	0.00017
313.2	0.03	0.00256	0.00017
313.2	0.054	0.00274	0.00018
313.2	0.068	0.00283	0.00017
313.2	0.084	0.00292	0.00021
323.2	0.03	0.00194	0.00017
323.2	0.054	0.0021	0.00017
323.2	0.068	0.00218	0.00017
323.2	0.084	0.00225	0.00017

System: (diethylamino)ethanol + piperazine + water; phases: Liquid
Fixed: Pressure, kPa = 101
Property: Viscosity, Pa*s (Liquid); method: Concentric cylinders viscometry
Temperature, K	Mass fraction of (diethylamino)ethanol	Mass fraction of piperazine	Viscosity, Pa*s	uncertainty
303.2	0.3001	0.0249	0.00378	0.00024
313.2	0.3001	0.0249	0.00274	0.00024
323.2	0.3001	0.0249	0.00208	0.00024
303.2	0.2999	0.0501	0.00429	0.00024
313.2	0.2999	0.0501	0.00302	0.00024
323.2	0.2999	0.0501	0.00229	0.00024
303.2	0.3001	0.0751	0.00493	0.00024
313.2	0.3001	0.0751	0.00348	0.00024
323.2	0.3001	0.0751	0.00259	0.00024
303.2	0.4001	0.0251	0.0053	0.00028
313.2	0.4001	0.0251	0.00383	0.00028
323.2	0.4001	0.0251	0.00279	0.00028
303.2	0.4001	0.0499	0.00619	0.00028
313.2	0.4001	0.0499	0.00421	0.00028
323.2	0.4001	0.0499	0.00307	0.00028
303.2	0.3999	0.0751	0.00714	0.00029
313.2	0.3999	0.0751	0.00488	0.00028
323.2	0.3999	0.0751	0.00343	0.00028
303.2	0.5001	0.0251	0.00767	0.00033
313.2	0.5001	0.0251	0.00509	0.00032
323.2	0.5001	0.0251	0.0036	0.00032
303.2	0.4999	0.0501	0.00881	0.00033
313.2	0.4999	0.0501	0.00574	0.00032
323.2	0.4999	0.0501	0.004	0.00032
303.2	0.4999	0.0751	0.00991	0.00033
313.2	0.4999	0.0751	0.0064	0.00033
323.2	0.4999	0.0751	0.00447	0.00032
