Measured thermophysical data. Viscosity of aqueous Ni(NO3)2 solutions at temperatures from 297 to 475) K and at pressures up to 30 MPa and concentration between (0.050 and 2.246) mol.kg-1
Source: J. Chem. Thermodyn., 2006, 10.1016/j.jct.2005.04.017
Compound 1: nickel(II) nitrate, N2NiO6, InChI=1S/2NO3.Ni/c2*2-1(3)4;/q2*-1;+2, purity 99.5%
Compound 2: water, H2O, InChI=1S/H2O/h1H2

System: water + nickel(II) nitrate; phases: Liquid
Property: Viscosity, Pa*s (Liquid); method: Capillary tube (Ostwald; Ubbelohde) method
Temperature, K	Molality, mol/kg of nickel(II) nitrate	Pressure, kPa	Viscosity, Pa*s	uncertainty
297.86	1.824	100	0.001671	3.07e-05
297.86	1.824	10000	0.001672	3.07e-05
297.86	1.824	20000	0.001672	3.07e-05
297.86	1.824	30000	0.001673	3.07e-05
297.86	2.246	100	0.0019729	3.7e-05
297.86	2.246	10000	0.001973	3.7e-05
297.86	2.246	20000	0.0019735	3.7e-05
297.86	2.246	30000	0.0019742	3.7e-05
297.98	0.608	100	0.0010776	1.84e-05
297.98	0.608	10000	0.001077	1.84e-05
297.98	0.608	20000	0.0010773	1.84e-05
297.98	0.608	30000	0.001078	1.84e-05
298.43	0.218	100	0.0009454	1.61e-05
298.43	0.218	10000	0.0009468	1.61e-05
298.43	0.218	20000	0.0009471	1.61e-05
298.43	0.218	30000	0.0009482	1.61e-05
298.64	0.951	100	0.0011927	2.06e-05
298.64	0.951	10000	0.0011936	2.06e-05
298.64	0.951	20000	0.001194	2.06e-05
298.64	0.951	30000	0.001194	2.06e-05
298.65	0.153	100	0.0009231	1.57e-05
298.65	0.153	10000	0.0009246	1.57e-05
298.65	0.153	20000	0.0009251	1.57e-05
298.65	0.153	30000	0.0009261	1.57e-05
298.65	0.288	100	0.0009601	1.63e-05
298.65	0.288	10000	0.0009606	1.63e-05
298.65	0.288	20000	0.000961	1.63e-05
298.65	0.288	30000	0.000962	1.64e-05
299.24	0.05	100	0.000884	1.5e-05
299.24	0.05	10000	0.0008839	1.5e-05
299.24	0.05	20000	0.0008843	1.5e-05
299.24	0.05	30000	0.0008845	1.5e-05
299.76	1.368	100	0.0013477	2.39e-05
299.76	1.368	10000	0.001348	2.4e-05
299.76	1.368	20000	0.001349	2.4e-05
299.76	1.368	30000	0.00135	2.4e-05
309.84	2.246	100	0.0015368	2.99e-05
309.84	2.246	10000	0.001539	2.94e-05
309.84	2.246	20000	0.0015424	2.95e-05
309.84	2.246	30000	0.0015446	3e-05
321.54	0.05	100	0.0005771	9.9e-06
321.54	0.05	10000	0.000579	9.9e-06
321.54	0.05	20000	0.0005797	9.9e-06
321.54	0.05	30000	0.000582	1e-05
322.46	2.246	100	0.0012253	2.27e-05
322.46	2.246	10000	0.001231	2.26e-05
322.46	2.246	20000	0.0012362	2.26e-05
322.46	2.246	30000	0.001241	2.29e-05
322.56	0.153	100	0.0005821	1e-05
322.56	0.153	10000	0.0005872	1.01e-05
322.56	0.153	20000	0.000592	1.02e-05
322.56	0.153	30000	0.0005938	1.02e-05
322.56	0.288	100	0.0006103	1.05e-05
322.56	0.288	10000	0.0006122	1.05e-05
322.56	0.288	20000	0.000613	1.05e-05
322.56	0.288	30000	0.0006145	1.05e-05
323.46	0.608	100	0.0006691	1.15e-05
323.46	0.608	10000	0.0006724	1.16e-05
323.46	0.608	20000	0.0006754	1.16e-05
323.46	0.608	30000	0.0006781	1.17e-05
323.67	0.951	100	0.0007503	1.3e-05
323.67	0.951	10000	0.0007533	1.31e-05
323.67	0.951	20000	0.0007564	1.31e-05
323.67	0.951	30000	0.0007595	1.32e-05
323.74	0.218	100	0.0005854	1.04e-05
323.74	0.218	10000	0.0005895	1.03e-05
323.74	0.218	20000	0.0005944	1.03e-05
323.74	0.218	30000	0.0005968	1.05e-05
324.76	1.824	100	0.0010259	1.87e-05
324.76	1.824	10000	0.001031	1.87e-05
324.76	1.824	20000	0.0010358	1.88e-05
324.76	1.824	30000	0.00104	1.89e-05
326.78	1.368	100	0.0008295	1.49e-05
326.78	1.368	10000	0.0008341	1.5e-05
326.78	1.368	20000	0.0008376	1.5e-05
326.78	1.368	30000	0.0008422	1.51e-05
330.84	2.246	100	0.0010722	2e-05
330.84	2.246	10000	0.0010783	1.99e-05
330.84	2.246	20000	0.0010822	2e-05
330.84	2.246	30000	0.001089	2.03e-05
338.46	1.368	100	0.000703	1.27e-05
338.46	1.368	10000	0.0007074	1.28e-05
338.46	1.368	20000	0.0007123	1.29e-05
338.46	1.368	30000	0.0007174	1.3e-05
347.43	0.288	100	0.0004289	7.4e-06
347.43	0.288	10000	0.0004346	7.6e-06
347.43	0.288	20000	0.0004376	7.6e-06
347.43	0.288	30000	0.0004422	7.8e-06
347.65	0.05	100	0.0003939	6.8e-06
347.65	0.05	10000	0.0003949	6.9e-06
347.65	0.05	20000	0.0003964	6.9e-06
347.65	0.05	30000	0.0004013	7e-06
347.82	2.246	100	0.000843	1.58e-05
347.82	2.246	10000	0.0008486	1.57e-05
347.82	2.246	20000	0.0008534	1.57e-05
347.82	2.246	30000	0.0008621	1.61e-05
347.94	0.218	100	0.0004152	7.2e-06
347.94	0.218	10000	0.0004194	7.3e-06
347.94	0.218	20000	0.0004228	7.3e-06
347.94	0.218	30000	0.000426	7.4e-06
348.89	0.153	100	0.000401	7e-06
348.89	0.153	10000	0.0004057	7e-06
348.89	0.153	20000	0.0004091	7.1e-06
348.89	0.153	30000	0.0004122	7.2e-06
349.46	0.951	100	0.0005292	9.3e-06
349.46	0.951	10000	0.0005331	9.3e-06
349.46	0.951	20000	0.0005374	9.4e-06
349.46	0.951	30000	0.0005411	9.5e-06
349.76	0.608	100	0.0004664	8.1e-06
349.76	0.608	10000	0.0004708	8.2e-06
349.76	0.608	20000	0.0004742	8.2e-06
349.76	0.608	30000	0.0004779	8.3e-06
349.76	1.368	100	0.0006103	1.09e-05
349.76	1.368	10000	0.0006146	1.1e-05
349.76	1.368	20000	0.0006194	1.11e-05
349.76	1.368	30000	0.0006253	1.12e-05
349.76	1.824	100	0.000722	1.31e-05
349.76	1.824	10000	0.000728	1.32e-05
349.76	1.824	20000	0.0007335	1.33e-05
349.76	1.824	30000	0.000738	1.34e-05
364.21	2.246	100	0.0006918	1.22e-05
364.21	2.246	10000	0.000698	1.25e-05
364.21	2.246	20000	0.000705	1.26e-05
364.21	2.246	30000	0.0007104	1.28e-05
372.46	0.153	100	0.0003059	5.4e-06
372.46	0.153	10000	0.0003101	5.5e-06
372.46	0.153	20000	0.000314	5.5e-06
372.46	0.153	30000	0.0003166	5.6e-06
372.48	0.218	100	0.0003134	5.5e-06
372.48	0.218	10000	0.0003179	5.6e-06
372.48	0.218	20000	0.0003212	5.6e-06
372.48	0.218	30000	0.0003248	5.7e-06
372.49	1.368	10000	0.0004771	8.6e-06
372.49	1.368	20000	0.0004824	8.6e-06
372.49	1.368	30000	0.0004869	8.7e-06
372.54	0.05	100	0.0002921	5.1e-06
372.54	0.05	10000	0.0002949	5.2e-06
372.54	0.05	20000	0.0002984	5.3e-06
372.54	0.05	30000	0.0003015	5.3e-06
372.84	1.824	100	0.0005558	1e-05
372.84	1.824	10000	0.0005612	1.02e-05
372.84	1.824	20000	0.0005672	1.03e-05
372.84	1.824	30000	0.0005721	1.04e-05
373.06	0.288	10000	0.0003246	5.8e-06
373.06	0.288	20000	0.0003275	5.8e-06
373.06	0.288	30000	0.0003318	5.9e-06
373.82	0.608	10000	0.00036	6.3e-06
373.82	0.608	20000	0.0003643	6.4e-06
373.82	0.608	30000	0.0003681	6.5e-06
375.48	2.246	10000	0.000619	1.15e-05
375.48	2.246	20000	0.0006251	1.15e-05
375.48	2.246	30000	0.0006322	1.17e-05
375.81	0.951	100	0.000395	7e-06
375.81	0.951	10000	0.000399	7.1e-06
375.81	0.951	20000	0.0004042	7.2e-06
375.81	0.951	30000	0.000407	7.2e-06
394.58	2.246	10000	0.0005162	9.5e-06
394.58	2.246	20000	0.0005211	9.5e-06
394.58	2.246	30000	0.0005279	9.7e-06
394.68	0.05	10000	0.0002391	4.3e-06
394.68	0.05	20000	0.0002416	4.3e-06
394.68	0.05	30000	0.0002449	4.4e-06
396.43	0.951	10000	0.0003329	5.9e-06
396.43	0.951	20000	0.0003365	6e-06
396.43	0.951	30000	0.0003403	6.1e-06
397.82	0.153	10000	0.0002441	4.4e-06
397.82	0.153	20000	0.0002474	4.4e-06
397.82	0.153	30000	0.0002509	4.5e-06
398.42	0.288	10000	0.0002566	4.6e-06
398.42	0.288	20000	0.0002608	4.7e-06
398.42	0.288	30000	0.0002633	4.7e-06
398.49	0.608	10000	0.000289	5.1e-06
398.49	0.608	20000	0.000293	5.2e-06
398.49	0.608	30000	0.0002967	5.3e-06
398.61	0.218	10000	0.000249	4.4e-06
398.61	0.218	20000	0.0002532	4.5e-06
398.61	0.218	30000	0.0002549	4.5e-06
399.46	1.368	10000	0.0003743	6.8e-06
399.46	1.368	20000	0.0003789	6.9e-06
399.46	1.368	30000	0.000384	6.9e-06
399.46	1.824	10000	0.0004393	8e-06
399.46	1.824	20000	0.0004445	8.1e-06
399.46	1.824	30000	0.0004496	8.2e-06
412.58	2.246	10000	0.0004452	8.1e-06
412.58	2.246	20000	0.0004505	8.2e-06
412.58	2.246	30000	0.0004568	8.3e-06
416.89	1.368	10000	0.000327	5.9e-06
416.89	1.368	20000	0.0003311	6e-06
416.89	1.368	30000	0.0003363	6.1e-06
421.95	0.05	10000	0.0001929	3.5e-06
421.95	0.05	20000	0.0001958	3.6e-06
421.95	0.05	30000	0.0001985	3.6e-06
422.49	1.824	10000	0.0003682	6.7e-06
422.49	1.824	20000	0.0003726	6.8e-06
422.49	1.824	30000	0.000378	6.9e-06
422.81	0.288	10000	0.0002142	3.9e-06
422.81	0.288	20000	0.0002168	3.9e-06
422.81	0.288	30000	0.0002198	4e-06
422.83	0.951	10000	0.0002731	4.9e-06
422.83	0.951	20000	0.0002767	5e-06
422.83	0.951	30000	0.0002807	5e-06
423.73	0.608	10000	0.0002402	4.3e-06
423.73	0.608	20000	0.0002435	4.4e-06
423.73	0.608	30000	0.0002468	4.4e-06
424.57	0.153	10000	0.0001989	3.6e-06
424.57	0.153	20000	0.000203	3.7e-06
424.57	0.153	30000	0.000205	3.7e-06
424.57	0.218	10000	0.0002053	3.7e-06
424.57	0.218	20000	0.0002081	3.8e-06
424.57	0.218	30000	0.0002119	3.8e-06
426.84	2.246	10000	0.0004007	7.4e-06
426.84	2.246	20000	0.0004063	7.5e-06
426.84	2.246	30000	0.0004124	7.6e-06
426.89	1.368	10000	0.0003051	5.6e-06
426.89	1.368	20000	0.0003095	5.6e-06
426.89	1.368	30000	0.0003134	5.7e-06
446.79	2.246	10000	0.0003515	6.5e-06
446.79	2.246	20000	0.0003578	6.6e-06
446.79	2.246	30000	0.0003622	6.7e-06
447.26	1.368	10000	0.0002684	4.9e-06
447.26	1.368	20000	0.0002714	5e-06
447.26	1.368	30000	0.000276	5e-06
448.24	1.824	10000	0.0003116	5.7e-06
448.24	1.824	20000	0.0003159	5.8e-06
448.24	1.824	30000	0.0003211	5.9e-06
448.96	0.288	10000	0.0001818	3.3e-06
448.96	0.288	20000	0.0001845	3.4e-06
448.96	0.288	30000	0.0001878	3.4e-06
449.28	0.153	10000	0.0001703	3.1e-06
449.28	0.153	20000	0.0001741	3.2e-06
449.28	0.153	30000	0.0001764	3.2e-06
449.46	0.608	10000	0.000205	3.7e-06
449.46	0.608	20000	0.0002085	3.8e-06
449.46	0.608	30000	0.0002114	3.8e-06
449.48	0.951	10000	0.0002309	4.2e-06
449.48	0.951	20000	0.0002347	4.3e-06
449.48	0.951	30000	0.0002382	4.3e-06
449.65	0.05	10000	0.0001611	3e-06
449.65	0.05	20000	0.0001639	3e-06
449.65	0.05	30000	0.0001661	3.1e-06
449.72	0.218	10000	0.000175	3.2e-06
449.72	0.218	20000	0.0001778	3.3e-06
449.72	0.218	30000	0.0001807	3.3e-06
471.51	0.153	10000	0.000151	2.8e-06
471.51	0.153	20000	0.0001534	2.9e-06
471.51	0.153	30000	0.0001565	2.9e-06
472.15	0.05	10000	0.000142	2.7e-06
472.15	0.05	20000	0.0001447	2.7e-06
472.15	0.05	30000	0.0001468	2.8e-06
472.46	2.246	10000	0.000304	5.6e-06
472.46	2.246	20000	0.0003094	5.7e-06
472.46	2.246	30000	0.000314	5.8e-06
473.12	1.824	10000	0.0002716	5e-06
473.12	1.824	20000	0.0002768	5.1e-06
473.12	1.824	30000	0.0002808	5.2e-06
473.87	0.288	10000	0.0001591	3e-06
473.87	0.288	20000	0.0001628	3e-06
473.87	0.288	30000	0.0001645	3e-06
474.24	0.218	10000	0.0001536	2.9e-06
474.24	0.218	20000	0.000156	2.9e-06
474.24	0.218	30000	0.0001592	3e-06
474.83	0.608	10000	0.0001805	3.3e-06
474.83	0.608	20000	0.0001834	3.4e-06
474.83	0.608	30000	0.000186	3.4e-06
475.84	1.368	10000	0.00023	4.2e-06
475.84	1.368	20000	0.0002342	4.3e-06
475.84	1.368	30000	0.0002375	4.4e-06
