Measured thermophysical data. Excess molar volumes and refractive indices of (methoxybenzene + benzene, or toluene, or o-xylene, or m-xylene, or p-xylene, or mesitylene) binary mixtures between T = (288.15 to 303.15) K
Source: J. Chem. Thermodyn., 2006, 10.1016/j.jct.2006.02.001
Compound 1: anisole, C7H8O, InChI=1S/C7H8O/c1-8-7-5-3-2-4-6-7/h2-6H,1H3
Compound 2: benzene, C6H6, InChI=1S/C6H6/c1-2-4-6-5-3-1/h1-6H
Compound 3: toluene, C7H8, InChI=1S/C7H8/c1-7-5-3-2-4-6-7/h2-6H,1H3
Compound 4: 1,2-dimethylbenzene, C8H10, InChI=1S/C8H10/c1-7-5-3-4-6-8(7)2/h3-6H,1-2H3
Compound 5: 1,3-dimethylbenzene, C8H10, InChI=1S/C8H10/c1-7-4-3-5-8(2)6-7/h3-6H,1-2H3
Compound 6: 1,4-dimethylbenzene, C8H10, InChI=1S/C8H10/c1-7-3-5-8(2)6-4-7/h3-6H,1-2H3
Compound 7: 1,3,5-trimethylbenzene, C9H12, InChI=1S/C9H12/c1-7-4-8(2)6-9(3)5-7/h4-6H,1-3H3

System: anisole; phases: Liquid
Fixed: Pressure, kPa = 101.325
Property: Refractive index (Na D-line) (Liquid); method: ABBE::UFactor:24
Temperature, K	Refractive index (Na D-line)	uncertainty
288.15	1.5256	0.0097
293.15	1.5172	0.0097
293.15	1.5169	0.0097
298.15	1.5141	0.0096
303.15	1.5117	0.0096

System: anisole; phases: Liquid
Fixed: Pressure, kPa = 101
Property: Mass density, kg/m3 (Liquid); method: VIBTUB:UFactor:32
Temperature, K	Mass density, kg/m3	uncertainty
288.15	998.44	1.42
293.15	993.65	1.5
298.15	989.15	1.57
303.15	984.37	1.65

System: benzene; phases: Liquid
Fixed: Pressure, kPa = 101.325
Property: Refractive index (Na D-line) (Liquid); method: ABBE::UFactor:24
Temperature, K	Refractive index (Na D-line)	uncertainty
288.15	1.505	0.0096
293.15	1.5011	0.0096
298.15	1.4979	0.0097
303.15	1.4849	0.0099

System: benzene; phases: Liquid
Fixed: Pressure, kPa = 101
Property: Mass density, kg/m3 (Liquid); method: VIBTUB::UFactor:32
Temperature, K	Mass density, kg/m3	uncertainty
288.15	884.11	3.2
293.15	876.53	3.32
298.15	873.6	3.37
303.15	868.23	3.46

System: toluene; phases: Liquid
Fixed: Pressure, kPa = 101.325
Property: Refractive index (Na D-line) (Liquid); method: ABBE::UFactor:24
Temperature, K	Refractive index (Na D-line)	uncertainty
288.15	1.4996	0.0096
293.15	1.497	0.0096
298.15	1.4944	0.0096
303.15	1.4918	0.0096

System: toluene; phases: Liquid
Fixed: Pressure, kPa = 101
Property: Mass density, kg/m3 (Liquid); method: VIBTUB:UFactor:8
Temperature, K	Mass density, kg/m3	uncertainty
288.15	871.41	0.84
293.15	866.87	0.86
298.15	862.2	0.88
303.15	857.46	0.9

System: 1,2-dimethylbenzene; phases: Liquid
Fixed: Pressure, kPa = 101.325
Property: Refractive index (Na D-line) (Liquid); method: ABBE::UFactor:24
Temperature, K	Refractive index (Na D-line)	uncertainty
288.15	1.5072	0.0096
293.15	1.5047	0.0096
298.15	1.5018	0.0096
303.15	1.5	0.0096

System: 1,2-dimethylbenzene; phases: Liquid
Fixed: Pressure, kPa = 101
Property: Mass density, kg/m3 (Liquid); method: VIBTUB::UFactor:8
Temperature, K	Mass density, kg/m3	uncertainty
288.15	883.29	0.91
293.15	879.08	0.92
298.15	875.53	0.94
303.15	870.73	0.95

System: 1,3-dimethylbenzene; phases: Liquid
Fixed: Pressure, kPa = 101.325
Property: Refractive index (Na D-line) (Liquid); method: ABBE::UFactor:24
Temperature, K	Refractive index (Na D-line)	uncertainty
288.15	1.4997	0.0096
293.15	1.4973	0.0096
298.15	1.4944	0.0096
303.15	1.4925	0.0096

System: 1,3-dimethylbenzene; phases: Liquid
Fixed: Pressure, kPa = 101
Property: Mass density, kg/m3 (Liquid); method: VIBTUB::UFactor:8
Temperature, K	Mass density, kg/m3	uncertainty
288.15	868.32	0.89
293.15	864.05	0.91
298.15	859.77	0.93
303.15	855.47	0.95

System: 1,4-dimethylbenzene; phases: Liquid
Fixed: Pressure, kPa = 101.325
Property: Refractive index (Na D-line) (Liquid); method: ABBE::UFactor:24
Temperature, K	Refractive index (Na D-line)	uncertainty
288.15	1.4983	0.0096
293.15	1.4958	0.0096
298.15	1.4929	0.0096
303.15	1.4915	0.0096

System: 1,4-dimethylbenzene; phases: Liquid
Fixed: Pressure, kPa = 101
Property: Mass density, kg/m3 (Liquid); method: VIBTUB::UFactor:8
Temperature, K	Mass density, kg/m3	uncertainty
288.15	865.25	0.91
293.15	860.92	0.93
298.15	856.62	0.94
303.15	852.25	0.96

System: 1,3,5-trimethylbenzene; phases: Liquid
Fixed: Pressure, kPa = 101.325
Property: Refractive index (Na D-line) (Liquid); method: ABBE::UFactor:24
Temperature, K	Refractive index (Na D-line)	uncertainty
288.15	1.5045	0.0097
293.15	1.4993	0.0096
298.15	1.4976	0.0096
303.15	1.4948	0.0096

System: 1,3,5-trimethylbenzene; phases: Liquid
Fixed: Pressure, kPa = 101
Property: Mass density, kg/m3 (Liquid); method: VIBTUB::UFactor:8
Temperature, K	Mass density, kg/m3	uncertainty
288.15	869.17	0.97
293.15	865.07	0.98
298.15	861.06	1
303.15	856.95	1.02

System: benzene + anisole; phases: Liquid
Fixed: Pressure, kPa = 101
Property: Refractive index (Na D-line) (Liquid); method: ABBE:UFactor:24
Temperature, K	Mole fraction of anisole	Refractive index (Na D-line)	uncertainty
288.15	0	1.505	0.0096
288.15	0.105	1.5076	0.0096
288.15	0.201	1.51	0.0096
288.15	0.3173	1.5127	0.0097
288.15	0.4192	1.5149	0.0097
288.15	0.5126	1.5168	0.0097
288.15	0.6139	1.5188	0.0097
288.15	0.7067	1.5206	0.0097
288.15	0.797	1.5222	0.0097
288.15	0.9002	1.524	0.0097
288.15	1	1.5256	0.0097
293.15	0	1.5011	0.0096
293.15	0.105	1.5032	0.0096
293.15	0.201	1.5051	0.0096
293.15	0.3173	1.5072	0.0096
293.15	0.4192	1.509	0.0096
293.15	0.5126	1.5105	0.0096
293.15	0.6139	1.5121	0.0097
293.15	0.7067	1.5134	0.0097
293.15	0.797	1.5147	0.0097
293.15	0.9002	1.516	0.0097
293.15	1	1.5172	0.0097
298.15	0	1.4979	0.0097
298.15	0.105	1.5001	0.0097
298.15	0.201	1.5019	0.0097
298.15	0.3173	1.5041	0.0097
298.15	0.4192	1.5058	0.0097
298.15	0.5126	1.5074	0.0097
298.15	0.6139	1.5089	0.0096
298.15	0.7067	1.5103	0.0096
298.15	0.797	1.5115	0.0096
298.15	0.9002	1.5129	0.0096
298.15	1	1.5141	0.0096
303.15	0	1.4849	0.0099
303.15	0.105	1.4884	0.0099
303.15	0.201	1.4914	0.0098
303.15	0.3173	1.4949	0.0098
303.15	0.4192	1.4978	0.0097
303.15	0.5126	1.5003	0.0097
303.15	0.6139	1.5029	0.0097
303.15	0.7067	1.5052	0.0097
303.15	0.797	1.5073	0.0096
303.15	0.9002	1.5096	0.0096
303.15	1	1.5117	0.0096

System: benzene + anisole; phases: Liquid
Fixed: Pressure, kPa = 101
Property: Mass density, kg/m3 (Liquid); method: VIBTUB:UFactor:32
Temperature, K	Mole fraction of anisole	Mass density, kg/m3	uncertainty
288.15	0	884.11	3.2
288.15	0.105	898.53	2.97
288.15	0.201	911.14	2.78
288.15	0.3173	925.73	2.55
288.15	0.4192	937.94	2.36
288.15	0.5126	948.66	2.19
288.15	0.6139	959.83	2.02
288.15	0.7067	969.67	1.86
288.15	0.797	978.88	1.72
288.15	0.9002	989.01	1.57
288.15	1	998.44	1.42
293.15	0	876.53	3.32
293.15	0.105	891.31	3.09
293.15	0.201	904.23	2.89
293.15	0.3173	919.17	2.65
293.15	0.4192	931.66	2.46
293.15	0.5126	942.64	2.29
293.15	0.6139	954.08	2.11
293.15	0.7067	964.17	1.95
293.15	0.797	973.61	1.81
293.15	0.9002	983.99	1.65
293.15	1	993.65	1.5
298.15	0	873.6	3.37
298.15	0.105	888.2	3.14
298.15	0.201	900.97	2.94
298.15	0.3173	915.76	2.71
298.15	0.4192	928.1	2.51
298.15	0.5126	938.93	2.34
298.15	0.6139	950.21	2.17
298.15	0.7067	960.12	2.02
298.15	0.797	969.41	1.87
298.15	0.9002	979.62	1.72
298.15	1	989.15	1.57
303.15	0	868.23	3.46
303.15	0.105	882.91	3.22
303.15	0.201	895.75	3.02
303.15	0.3173	910.6	2.79
303.15	0.4192	923	2.6
303.15	0.5126	933.89	2.43
303.15	0.6139	945.24	2.25
303.15	0.7067	955.22	2.09
303.15	0.797	964.57	1.95
303.15	0.9002	974.85	1.79
303.15	1	984.37	1.65

System: anisole + toluene; phases: Liquid
Fixed: Pressure, kPa = 101
Property: Refractive index (Na D-line) (Liquid); method: ABBE:UFactor:24
Temperature, K	Mole fraction of anisole	Refractive index (Na D-line)	uncertainty
288.15	0	1.4996	0.0096
288.15	0.1179	1.503	0.0096
288.15	0.2098	1.5056	0.0096
288.15	0.3078	1.5083	0.0096
288.15	0.4082	1.511	0.0097
288.15	0.5157	1.5138	0.0097
288.15	0.6172	1.5163	0.0097
288.15	0.7286	1.5192	0.0097
288.15	0.8575	1.5223	0.0097
288.15	0.917	1.5236	0.0097
288.15	1	1.5256	0.0098
293.15	0	1.497	0.0096
293.15	0.1179	1.4997	0.0096
293.15	0.2098	1.5017	0.0096
293.15	0.3078	1.5038	0.0096
293.15	0.4082	1.5059	0.0096
293.15	0.5157	1.5081	0.0096
293.15	0.6172	1.5099	0.0097
293.15	0.7286	1.5122	0.0096
293.15	0.8575	1.5145	0.0097
293.15	0.917	1.5155	0.0097
293.15	1	1.5169	0.0097
298.15	0	1.4944	0.0096
298.15	0.1179	1.4971	0.0096
298.15	0.2098	1.4992	0.0096
298.15	0.3078	1.5012	0.0096
298.15	0.4082	1.5033	0.0096
298.15	0.5157	1.5054	0.0096
298.15	0.6172	1.5061	0.0096
298.15	0.7286	1.5095	0.0096
298.15	0.8575	1.5118	0.0096
298.15	0.917	1.5135	0.0096
298.15	1	1.5141	0.0096
303.15	0	1.4918	0.0096
303.15	0.1179	1.4946	0.0096
303.15	0.2098	1.4966	0.0096
303.15	0.3078	1.4987	0.0096
303.15	0.4082	1.5008	0.0096
303.15	0.5157	1.5029	0.0096
303.15	0.6172	1.5049	0.0096
303.15	0.7286	1.5071	0.0096
303.15	0.8575	1.5094	0.0096
303.15	0.917	1.5104	0.0096
303.15	1	1.5117	0.0096

System: anisole + toluene; phases: Liquid
Fixed: Pressure, kPa = 101
Property: Mass density, kg/m3 (Liquid); method: VIBTUB:UFactor:8
Temperature, K	Mole fraction of anisole	Mass density, kg/m3	uncertainty
288.15	0	871.41	0.84
288.15	0.1179	887.1	0.78
288.15	0.2098	899.23	0.74
288.15	0.3078	912.01	0.69
288.15	0.4082	924.96	0.65
288.15	0.5157	938.67	0.61
288.15	0.6172	951.49	0.57
288.15	0.7286	965.32	0.53
288.15	0.8575	981.16	0.49
288.15	0.917	988.36	0.47
288.15	1	998.44	0.45
293.15	0	866.87	0.86
293.15	0.1179	882.58	0.8
293.15	0.2098	894.67	0.76
293.15	0.3078	907.42	0.71
293.15	0.4082	920.33	0.67
293.15	0.5157	934.03	0.63
293.15	0.6172	946.82	0.59
293.15	0.7286	960.65	0.55
293.15	0.8575	976.45	0.5
293.15	0.917	983.65	0.49
293.15	1	993.65	0.46
298.15	0	862.2	0.88
298.15	0.1179	877.96	0.82
298.15	0.2098	890.04	0.78
298.15	0.3078	902.81	0.73
298.15	0.4082	915.72	0.69
298.15	0.5157	929.43	0.64
298.15	0.6172	942.24	0.6
298.15	0.7286	956.15	0.56
298.15	0.8575	971.96	0.52
298.15	0.917	979.17	0.5
298.15	1	989.15	0.48
303.15	0	857.46	0.9
303.15	0.1179	873.25	0.84
303.15	0.2098	885.33	0.8
303.15	0.3078	898.06	0.75
303.15	0.4082	910.95	0.71
303.15	0.5157	924.67	0.66
303.15	0.6172	937.46	0.62
303.15	0.7286	951.37	0.58
303.15	0.8575	967.26	0.54
303.15	0.917	974.46	0.52
303.15	1	984.37	0.5

System: 1,2-dimethylbenzene + anisole; phases: Liquid
Fixed: Pressure, kPa = 101
Property: Refractive index (Na D-line) (Liquid); method: ABBE:UFactor:24
Temperature, K	Mole fraction of anisole	Refractive index (Na D-line)	uncertainty
288.15	0	1.5072	0.0096
288.15	0.0984	1.5091	0.0096
288.15	0.2473	1.5118	0.0096
288.15	0.376	1.5141	0.0096
288.15	0.4951	1.516	0.0097
288.15	0.6454	1.5193	0.0097
288.15	0.7463	1.521	0.0097
288.15	0.864	1.5232	0.0097
288.15	0.938	1.5245	0.0097
288.15	0.9745	1.5252	0.0097
288.15	1	1.5256	0.0098
293.15	0	1.5047	0.0096
293.15	0.0984	1.5061	0.0096
293.15	0.2473	1.508	0.0096
293.15	0.376	1.5095	0.0096
293.15	0.4951	1.5107	0.0096
293.15	0.6454	1.5128	0.0096
293.15	0.7463	1.5145	0.0096
293.15	0.864	1.5156	0.0097
293.15	0.938	1.5164	0.0097
293.15	0.9745	1.5167	0.0097
293.15	1	1.5169	0.0097
298.15	0	1.5018	0.0096
298.15	0.0984	1.5033	0.0096
298.15	0.2473	1.5052	0.0096
298.15	0.376	1.5067	0.0096
298.15	0.4951	1.5079	0.0096
298.15	0.6454	1.51	0.0096
298.15	0.7463	1.5117	0.0096
298.15	0.864	1.5128	0.0096
298.15	0.938	1.5136	0.0096
298.15	0.9745	1.5139	0.0096
298.15	1	1.5141	0.0096
303.15	0	1.5	0.0096
303.15	0.0984	1.5015	0.0096
303.15	0.2473	1.5027	0.0096
303.15	0.376	1.5048	0.0096
303.15	0.4951	1.5059	0.0096
303.15	0.6454	1.508	0.0096
303.15	0.7463	1.5096	0.0096
303.15	0.864	1.5107	0.0096
303.15	0.938	1.5114	0.0096
303.15	0.9745	1.5116	0.0096
303.15	1	1.5117	0.0096

System: 1,2-dimethylbenzene + anisole; phases: Liquid
Fixed: Pressure, kPa = 101
Property: Mass density, kg/m3 (Liquid); method: VIBTUB:UFactor:8
Temperature, K	Mole fraction of anisole	Mass density, kg/m3	uncertainty
288.15	0	883.29	0.91
288.15	0.0984	894.18	0.86
288.15	0.2473	910.8	0.8
288.15	0.376	925.35	0.74
288.15	0.4951	939.01	0.69
288.15	0.6454	956.51	0.61
288.15	0.7463	968.37	0.57
288.15	0.864	982.31	0.51
288.15	0.938	991.11	0.47
288.15	0.9745	995.42	0.46
288.15	1	998.44	0.45
293.15	0	879.08	0.92
293.15	0.0984	890.01	0.88
293.15	0.2473	906.56	0.81
293.15	0.376	921	0.76
293.15	0.4951	934.55	0.7
293.15	0.6454	951.98	0.63
293.15	0.7463	963.81	0.58
293.15	0.864	977.72	0.53
293.15	0.938	986.44	0.49
293.15	0.9745	990.69	0.48
293.15	1	993.65	0.46
298.15	0	875.53	0.94
298.15	0.0984	886.52	0.89
298.15	0.2473	902.92	0.83
298.15	0.376	917.17	0.77
298.15	0.4951	930.58	0.72
298.15	0.6454	947.89	0.65
298.15	0.7463	959.66	0.6
298.15	0.864	973.49	0.54
298.15	0.938	982.08	0.51
298.15	0.9745	986.24	0.49
298.15	1	989.15	0.48
303.15	0	870.73	0.95
303.15	0.0984	881.84	0.91
303.15	0.2473	898.24	0.84
303.15	0.376	912.46	0.79
303.15	0.4951	925.89	0.74
303.15	0.6454	943.26	0.67
303.15	0.7463	955.11	0.62
303.15	0.864	968.92	0.56
303.15	0.938	977.48	0.53
303.15	0.9745	981.57	0.51
303.15	1	984.37	0.5

System: anisole + 1,3-dimethylbenzene; phases: Liquid
Fixed: Pressure, kPa = 101
Property: Refractive index (Na D-line) (Liquid); method: ABBE:UFactor:24
Temperature, K	Mole fraction of anisole	Refractive index (Na D-line)	uncertainty
288.15	0	1.4997	0.0096
288.15	0.1006	1.5021	0.0096
288.15	0.2463	1.5055	0.0096
288.15	0.3753	1.5086	0.0096
288.15	0.496	1.5117	0.0097
288.15	0.6398	1.5155	0.0097
288.15	0.7468	1.5184	0.0097
288.15	0.8284	1.5206	0.0097
288.15	0.9034	1.5228	0.0097
288.15	0.9613	1.5244	0.0097
288.15	1	1.5256	0.0098
293.15	0	1.4973	0.0096
293.15	0.1006	1.4992	0.0096
293.15	0.2463	1.5018	0.0096
293.15	0.3753	1.5042	0.0096
293.15	0.496	1.5065	0.0096
293.15	0.6398	1.5093	0.0096
293.15	0.7468	1.5115	0.0096
293.15	0.8284	1.5132	0.0097
293.15	0.9034	1.5149	0.0097
293.15	0.9613	1.5161	0.0097
293.15	1	1.5169	0.0097
298.15	0	1.4944	0.0096
298.15	0.1006	1.4963	0.0096
298.15	0.2463	1.499	0.0096
298.15	0.3753	1.5013	0.0096
298.15	0.496	1.5037	0.0096
298.15	0.6398	1.5065	0.0096
298.15	0.7468	1.5088	0.0096
298.15	0.8284	1.5104	0.0096
298.15	0.9034	1.5121	0.0096
298.15	0.9613	1.5133	0.0096
298.15	1	1.5141	0.0096
303.15	0	1.4925	0.0096
303.15	0.1006	1.4944	0.0096
303.15	0.2463	1.497	0.0096
303.15	0.3753	1.4993	0.0096
303.15	0.496	1.5016	0.0096
303.15	0.6398	1.5044	0.0096
303.15	0.7468	1.5066	0.0096
303.15	0.8284	1.5082	0.0096
303.15	0.9034	1.5098	0.0096
303.15	0.9613	1.511	0.0096
303.15	1	1.5117	0.0096

System: anisole + 1,3-dimethylbenzene; phases: Liquid
Fixed: Pressure, kPa = 101
Property: Mass density, kg/m3 (Liquid); method: VIBTUB:UFactor:8
Temperature, K	Mole fraction of anisole	Mass density, kg/m3	uncertainty
288.15	0	868.32	0.89
288.15	0.1006	880.54	0.85
288.15	0.2463	898.41	0.79
288.15	0.3753	914.55	0.73
288.15	0.496	930.02	0.68
288.15	0.6398	948.95	0.61
288.15	0.7468	963.38	0.56
288.15	0.8284	974.53	0.52
288.15	0.9034	984.93	0.49
288.15	0.9613	993.02	0.46
288.15	1	998.44	0.45
293.15	0	864.05	0.91
293.15	0.1006	876.26	0.87
293.15	0.2463	894.1	0.8
293.15	0.3753	910.2	0.75
293.15	0.496	925.62	0.7
293.15	0.6398	944.45	0.63
293.15	0.7468	958.8	0.58
293.15	0.8284	969.91	0.54
293.15	0.9034	980.26	0.51
293.15	0.9613	988.29	0.48
293.15	1	993.65	0.46
298.15	0	859.77	0.93
298.15	0.1006	872.02	0.88
298.15	0.2463	889.76	0.82
298.15	0.3753	905.8	0.77
298.15	0.496	921.19	0.71
298.15	0.6398	940.02	0.65
298.15	0.7468	954.36	0.6
298.15	0.8284	965.45	0.56
298.15	0.9034	975.77	0.52
298.15	0.9613	983.78	0.5
298.15	1	989.15	0.48
303.15	0	855.47	0.95
303.15	0.1006	867.67	0.9
303.15	0.2463	885.42	0.84
303.15	0.3753	901.39	0.78
303.15	0.496	916.71	0.73
303.15	0.6398	935.48	0.66
303.15	0.7468	949.8	0.61
303.15	0.8284	960.86	0.58
303.15	0.9034	971.13	0.54
303.15	0.9613	979.08	0.52
303.15	1	984.37	0.5

System: anisole + 1,4-dimethylbenzene; phases: Liquid
Fixed: Pressure, kPa = 101
Property: Refractive index (Na D-line) (Liquid); method: ABBE:UFactor:24
Temperature, K	Mole fraction of anisole	Refractive index (Na D-line)	uncertainty
288.15	0	1.4983	0.0096
288.15	0.0994	1.5007	0.0096
288.15	0.2471	1.5044	0.0096
288.15	0.3745	1.5077	0.0096
288.15	0.496	1.5109	0.0097
288.15	0.6455	1.5151	0.0097
288.15	0.7466	1.5179	0.0097
288.15	0.8972	1.5223	0.0097
288.15	0.949	1.5239	0.0097
288.15	0.9772	1.5248	0.0097
288.15	1	1.5256	0.0098
293.15	0	1.4958	0.0096
293.15	0.0994	1.4978	0.0096
293.15	0.2471	1.5006	0.0096
293.15	0.3745	1.5032	0.0096
293.15	0.496	1.5057	0.0096
293.15	0.6455	1.5089	0.0096
293.15	0.7466	1.5111	0.0096
293.15	0.8972	1.5145	0.0097
293.15	0.949	1.5157	0.0097
293.15	0.9772	1.5164	0.0097
293.15	1	1.5169	0.0097
298.15	0	1.4929	0.0096
298.15	0.0994	1.4949	0.0096
298.15	0.2471	1.4978	0.0096
298.15	0.3745	1.5004	0.0096
298.15	0.496	1.5029	0.0096
298.15	0.6455	1.5061	0.0096
298.15	0.7466	1.5084	0.0096
298.15	0.8972	1.5118	0.0096
298.15	0.949	1.5129	0.0096
298.15	0.9772	1.5136	0.0096
298.15	1	1.5141	0.0096
303.15	0	1.4915	0.0096
303.15	0.0994	1.4935	0.0096
303.15	0.2471	1.4963	0.0096
303.15	0.3745	1.4987	0.0096
303.15	0.496	1.5011	0.0096
303.15	0.6455	1.5042	0.0096
303.15	0.7466	1.5064	0.0096
303.15	0.8972	1.5097	0.0096
303.15	0.949	1.5107	0.0096
303.15	0.9772	1.5113	0.0096
303.15	1	1.5117	0.0096

System: anisole + 1,4-dimethylbenzene; phases: Liquid
Fixed: Pressure, kPa = 101
Property: Mass density, kg/m3 (Liquid); method: VIBTUB:UFactor:8
Temperature, K	Mole fraction of anisole	Mass density, kg/m3	uncertainty
288.15	0	865.25	0.91
288.15	0.0994	877.53	0.86
288.15	0.2471	896.11	0.8
288.15	0.3745	912.51	0.74
288.15	0.496	928.51	0.69
288.15	0.6455	948.69	0.62
288.15	0.7466	962.63	0.57
288.15	0.8972	983.79	0.49
288.15	0.949	991.13	0.47
288.15	0.9772	995.17	0.46
288.15	1	998.44	0.45
293.15	0	860.92	0.93
293.15	0.0994	873.32	0.88
293.15	0.2471	891.85	0.81
293.15	0.3745	908.14	0.76
293.15	0.496	924.05	0.7
293.15	0.6455	944.15	0.63
293.15	0.7466	958.06	0.58
293.15	0.8972	979.14	0.51
293.15	0.949	986.45	0.49
293.15	0.9772	990.43	0.47
293.15	1	993.65	0.46
298.15	0	856.62	0.94
298.15	0.0994	869.02	0.9
298.15	0.2471	887.55	0.83
298.15	0.3745	903.84	0.77
298.15	0.496	919.74	0.72
298.15	0.6455	939.83	0.65
298.15	0.7466	953.71	0.6
298.15	0.8972	974.73	0.53
298.15	0.949	981.99	0.5
298.15	0.9772	985.95	0.49
298.15	1	989.15	0.48
303.15	0	852.25	0.96
303.15	0.0994	864.71	0.91
303.15	0.2471	883.2	0.85
303.15	0.3745	899.38	0.79
303.15	0.496	915.2	0.74
303.15	0.6455	935.26	0.67
303.15	0.7466	949.14	0.62
303.15	0.8972	970.18	0.55
303.15	0.949	977.4	0.52
303.15	0.9772	981.34	0.51
303.15	1	984.37	0.5

System: anisole + 1,3,5-trimethylbenzene; phases: Liquid
Fixed: Pressure, kPa = 101
Property: Refractive index (Na D-line) (Liquid); method: ABBE:UFactor:24
Temperature, K	Mole fraction of anisole	Refractive index (Na D-line)	uncertainty
288.15	0	1.5045	0.0097
288.15	0.1099	1.5063	0.0097
288.15	0.2441	1.5088	0.0097
288.15	0.3933	1.5116	0.0097
288.15	0.509	1.5142	0.0097
288.15	0.672	1.5175	0.0097
288.15	0.749	1.5193	0.0097
288.15	0.8397	1.5214	0.0097
288.15	0.895	1.5228	0.0097
288.15	0.967	1.5247	0.0098
288.15	1	1.5256	0.0098
293.15	0	1.4993	0.0096
293.15	0.1099	1.5009	0.0096
293.15	0.2441	1.5029	0.0096
293.15	0.3933	1.5054	0.0096
293.15	0.509	1.5073	0.0096
293.15	0.672	1.5103	0.0096
293.15	0.749	1.5117	0.0097
293.15	0.8397	1.5136	0.0097
293.15	0.895	1.5147	0.0097
293.15	0.967	1.5162	0.0097
293.15	1	1.5169	0.0097
298.15	0	1.4976	0.0096
298.15	0.1099	1.4991	0.0096
298.15	0.2441	1.5011	0.0096
298.15	0.3933	1.5033	0.0096
298.15	0.509	1.5052	0.0096
298.15	0.672	1.5079	0.0096
298.15	0.749	1.5093	0.0096
298.15	0.8397	1.511	0.0096
298.15	0.895	1.5121	0.0096
298.15	0.967	1.5135	0.0096
298.15	1	1.5141	0.0096
303.15	0	1.4948	0.0096
303.15	0.1099	1.4964	0.0096
303.15	0.2441	1.4984	0.0096
303.15	0.3933	1.5007	0.0096
303.15	0.509	1.5026	0.0096
303.15	0.672	1.5054	0.0096
303.15	0.749	1.5068	0.0096
303.15	0.8397	1.5086	0.0096
303.15	0.895	1.5097	0.0096
303.15	0.967	1.5111	0.0096
303.15	1	1.5117	0.0096

System: anisole + 1,3,5-trimethylbenzene; phases: Liquid
Fixed: Pressure, kPa = 101
Property: Mass density, kg/m3 (Liquid); method: VIBTUB:UFactor:8
Temperature, K	Mole fraction of anisole	Mass density, kg/m3	uncertainty
288.15	0	869.17	0.97
288.15	0.1099	880.36	0.92
288.15	0.2441	894.89	0.86
288.15	0.3933	912.23	0.79
288.15	0.509	926.57	0.74
288.15	0.672	948.28	0.65
288.15	0.749	959.22	0.6
288.15	0.8397	972.73	0.55
288.15	0.895	981.31	0.51
288.15	0.967	992.94	0.47
288.15	1	998.44	0.45
293.15	0	865.07	0.98
293.15	0.1099	876.24	0.94
293.15	0.2441	890.7	0.88
293.15	0.3933	907.95	0.81
293.15	0.509	922.2	0.75
293.15	0.672	943.8	0.67
293.15	0.749	954.69	0.62
293.15	0.8397	968.14	0.57
293.15	0.895	976.67	0.53
293.15	0.967	988.19	0.49
293.15	1	993.65	0.46
298.15	0	861.06	1
298.15	0.1099	872.21	0.95
298.15	0.2441	886.62	0.9
298.15	0.3933	903.79	0.83
298.15	0.509	917.98	0.77
298.15	0.672	939.52	0.68
298.15	0.749	950.34	0.64
298.15	0.8397	963.75	0.58
298.15	0.895	972.25	0.55
298.15	0.967	983.74	0.5
298.15	1	989.15	0.48
303.15	0	856.95	1.02
303.15	0.1099	868.07	0.97
303.15	0.2441	882.42	0.91
303.15	0.3933	899.5	0.84
303.15	0.509	913.64	0.79
303.15	0.672	935.05	0.7
303.15	0.749	945.87	0.65
303.15	0.8397	959.19	0.6
303.15	0.895	967.63	0.57
303.15	0.967	979.01	0.52
303.15	1	984.37	0.5
