Measured thermophysical data. Densities of aqueous solutions containing model compounds of amino acids and ionic salts at T = 298.15 K
Source: J. Chem. Thermodyn., 2007, 10.1016/j.jct.2006.11.014
Compound 1: 2-aminoacetic acid, C2H5NO2, InChI=1S/C2H5NO2/c3-1-2(4)5/h1,3H2,(H,4,5), purity 99%
Compound 2: water, H2O, InChI=1S/H2O/h1H2
Compound 3: N-(carboxymethyl)glycine, C4H7NO4, InChI=1S/C4H7NO4/c6-3(7)1-5-2-4(8)9/h5H,1-2H2,(H,6,7)(H,8,9), purity 99.5%
Compound 4: glycylglycylglycine, C6H11N3O4, InChI=1S/C6H11N3O4/c7-1-4(10)8-2-5(11)9-3-6(12)13/h1-3,7H2,(H,8,10)(H,9,11)(H,12,13), purity 99%
Compound 5: glycylglycylglycylglycine, C8H14N4O5, InChI=1S/C8H14N4O5/c9-1-5(13)10-2-6(14)11-3-7(15)12-4-8(16)17/h1-4,9H2,(H,10,13)(H,11,14)(H,12,15)(H,16,17), purity 99%
Compound 6: 2,5-diketopiperazine, C4H6N2O2, InChI=1S/C4H6N2O2/c7-3-1-5-4(8)2-6-3/h1-2H2,(H,5,8)(H,6,7), purity 99%
Compound 7: potassium chloride, ClK, InChI=1S/ClH.K/h1H;/q;+1/p-1, purity 99.99%
Compound 8: potassium bromide, BrK, InChI=1S/BrH.K/h1H;/q;+1/p-1, purity 99.5%
Compound 9: potassium ethanoate, C2H3KO2, InChI=1S/C2H4O2.K/c1-2(3)4;/h1H3,(H,3,4);/q;+1/p-1, purity 99.98%

System: 2-aminoacetic acid + water; phases: Liquid
Fixed: Temperature, K = 298.15
Fixed: Pressure, kPa = 101
Property: Mass density, kg/m3 (Liquid); method: VIBTUB:UFactor:5
Mass ratio of solute to solvent of 2-aminoacetic acid	Mass density, kg/m3	uncertainty
0.1091	1039.02	0.39
0.1535	1053.89	0.42
0.1933	1065.41	0.46
0.2231	1075.18	0.48
0.239	1079.4	0.49
0.244	1080.36	0.5
0.2509	1082.99	0.5

System: 2-aminoacetic acid + water; phases: Liquid, Crystal
Property: Mass ratio of solute to solvent of 2-aminoacetic acid (Liquid); method: From the density plateau
Temperature, K	Pressure, kPa	Mass ratio of solute to solvent of 2-aminoacetic acid	uncertainty
298.15	101	0.2509	0.0008

System: N-(carboxymethyl)glycine + water; phases: Liquid
Fixed: Temperature, K = 298.15
Fixed: Pressure, kPa = 101
Property: Mass density, kg/m3 (Liquid); method: VIBTUB:UFactor:5
Mass ratio of solute to solvent of N-(carboxymethyl)glycine	Mass density, kg/m3	uncertainty
0.1001	1035.94	0.32
0.1553	1053.34	0.36
0.193	1066.16	0.4
0.2113	1072.41	0.41
0.2201	1074.86	0.42
0.2258	1076.92	0.42

System: N-(carboxymethyl)glycine + water; phases: Liquid, Crystal
Property: Mass ratio of solute to solvent of N-(carboxymethyl)glycine (Liquid); method: From the density plateau
Temperature, K	Pressure, kPa	Mass ratio of solute to solvent of N-(carboxymethyl)glycine	uncertainty
298.15	101	0.2275	0.0007

System: glycylglycylglycine + water; phases: Liquid
Fixed: Temperature, K = 298.15
Fixed: Pressure, kPa = 101
Property: Mass density, kg/m3 (Liquid); method: VIBTUB:UFactor:5
Mass ratio of solute to solvent of glycylglycylglycine	Mass density, kg/m3	uncertainty
0.0099	1001	0.28
0.0192	1004.77	0.29
0.0355	1011.02	0.31
0.0452	1014.88	0.32
0.0544	1018.36	0.33
0.0624	1021.44	0.34
0.0641	1022.05	0.34

System: glycylglycylglycine + water; phases: Liquid, Crystal
Property: Mass ratio of solute to solvent of glycylglycylglycine (Liquid); method: From the density plateau
Temperature, K	Pressure, kPa	Mass ratio of solute to solvent of glycylglycylglycine	uncertainty
298.15	101	0.0641	0.0002

System: glycylglycylglycylglycine + water; phases: Liquid
Fixed: Temperature, K = 298.15
Fixed: Pressure, kPa = 101
Property: Mass density, kg/m3 (Liquid); method: VIBTUB:UFactor:5
Mass ratio of solute to solvent of glycylglycylglycylglycine	Mass density, kg/m3	uncertainty
0.0013	997.73	0.29
0.0023	998.04	0.29
0.0031	998.3	0.29
0.0033	998.38	0.29
0.0036	998.49	0.29
0.0038	998.55	0.28
0.0039	998.59	0.28

System: glycylglycylglycylglycine + water; phases: Liquid, Crystal
Property: Mass ratio of solute to solvent of glycylglycylglycylglycine (Liquid); method: From the density plateau
Temperature, K	Pressure, kPa	Mass ratio of solute to solvent of glycylglycylglycylglycine	uncertainty
298.15	101	0.0039	0.0001

System: 2,5-diketopiperazine + water; phases: Liquid
Fixed: Temperature, K = 298.15
Fixed: Pressure, kPa = 101
Property: Mass density, kg/m3 (Liquid); method: VIBTUB:UFactor:5
Mass ratio of solute to solvent of 2,5-diketopiperazine	Mass density, kg/m3	uncertainty
0.0003	997.17	0.29
0.0007	997.34	0.29
0.0009	997.37	0.29
0.0026	997.92	0.29
0.0053	998.93	0.28
0.0101	1000.34	0.28
0.0134	1001.42	0.29
0.0157	1002.16	0.29
0.0168	1002.5	0.29

System: 2,5-diketopiperazine + water; phases: Liquid, Crystal
Property: Mass ratio of solute to solvent of 2,5-diketopiperazine (Liquid); method: From the density plateau
Temperature, K	Pressure, kPa	Mass ratio of solute to solvent of 2,5-diketopiperazine	uncertainty
298.15	101	0.0168	0.0001

System: 2-aminoacetic acid + potassium chloride + water; phases: Liquid
Fixed: Temperature, K = 298.15
Fixed: Pressure, kPa = 101
Property: Mass density, kg/m3 (Liquid); method: VIBTUB:UFactor:5
Solvent: Amount concentration (molarity), mol/dm3 of potassium chloride	Mass ratio of solute to solvent of 2-aminoacetic acid	Mass density, kg/m3	uncertainty
1	0.0945	1076.73	0.44
1	0.1393	1090.92	0.47
1	0.1787	1102.58	0.5
1	0.1856	1105.45	0.51
1	0.2085	1112.4	0.53
1	0.2111	1113.59	0.53
1	0.2208	1115.69	0.54
2	0.0962	1118.07	0.54
2	0.1336	1128.92	0.57
2	0.1653	1137.62	0.6
2	0.187	1143.34	0.61
2	0.1991	1147.24	0.62
2	0.2076	1149.77	0.63
2	0.2111	1151.01	0.63
4	0.098	1181.01	0.71
4	0.1248	1187.72	0.73
4	0.1522	1194.21	0.74
4	0.1701	1198.31	0.75
4	0.1847	1201.67	0.76
4	0.1943	1204.49	0.77
4	0.1985	1205	0.77

System: 2-aminoacetic acid + water + potassium bromide; phases: Liquid
Fixed: Temperature, K = 298.15
Fixed: Pressure, kPa = 101
Property: Mass density, kg/m3 (Liquid); method: VIBTUB:UFactor:5
Solvent: Amount concentration (molarity), mol/dm3 of potassium bromide	Mass ratio of solute to solvent of 2-aminoacetic acid	Mass density, kg/m3	uncertainty
1	0.1312	1124.81	0.61
1	0.1519	1130.88	0.63
1	0.1907	1141.64	0.65
1	0.2027	1144.85	0.66
1	0.2101	1147.56	0.67
1	0.2178	1149.32	0.67
2	0.1212	1198.06	0.81
2	0.1339	1201.32	0.81
2	0.1693	1211.06	0.84
2	0.1858	1213.94	0.85
2	0.1931	1215.71	0.85
2	0.2001	1217.63	0.86
2	0.2043	1219.21	0.86
4	0.1077	1306.21	1.1
4	0.1415	1312.46	1.12
4	0.1596	1315.58	1.12
4	0.1696	1317.21	1.13
4	0.1791	1318.75	1.13
4	0.1869	1319.87	1.14

System: 2-aminoacetic acid + potassium ethanoate + water; phases: Liquid
Fixed: Temperature, K = 298.15
Fixed: Pressure, kPa = 101
Property: Mass density, kg/m3 (Liquid); method: VIBTUB:UFactor:5
Solvent: Amount concentration (molarity), mol/dm3 of potassium ethanoate	Mass ratio of solute to solvent of 2-aminoacetic acid	Mass density, kg/m3	uncertainty
1	0.0999	1078.66	0.44
1	0.1305	1088.23	0.47
1	0.1463	1092.94	0.48
1	0.1626	1097.76	0.49
1	0.1753	1101.38	0.5
1	0.1851	1104.84	0.51
1	0.193	1107.34	0.52
1	0.1952	1108.07	0.52
2	0.0911	1116.85	0.54
2	0.1075	1121.6	0.55
2	0.1157	1123.95	0.56
2	0.1448	1131.92	0.58
2	0.1551	1135.47	0.59
2	0.1595	1137.11	0.59
2	0.1639	1138.09	0.6
4	0.0726	1192.45	0.74
4	0.0847	1195.09	0.75
4	0.0927	1196.94	0.75
4	0.1106	1200.86	0.76
4	0.12	1203.36	0.77
4	0.1227	1203.97	0.77

System: N-(carboxymethyl)glycine + potassium chloride + water; phases: Liquid
Fixed: Temperature, K = 298.15
Fixed: Pressure, kPa = 101
Property: Mass density, kg/m3 (Liquid); method: VIBTUB:UFactor:5
Solvent: Amount concentration (molarity), mol/dm3 of potassium chloride	Mass ratio of solute to solvent of N-(carboxymethyl)glycine	Mass density, kg/m3	uncertainty
1	0.1009	1079.37	0.42
1	0.1409	1092.29	0.45
1	0.1751	1102.72	0.48
1	0.1901	1107.22	0.49
1	0.2084	1113.47	0.5
1	0.2145	1115.59	0.51
1	0.2224	1118.73	0.52
2	0.1246	1126.41	0.54
2	0.1743	1141.46	0.57
2	0.1881	1144.84	0.58
2	0.2009	1148.09	0.59
2	0.2104	1151.55	0.6
2	0.2182	1153.14	0.6
4	0.1348	1189.93	0.7
4	0.1491	1193.49	0.71
4	0.1763	1199.95	0.72
4	0.1892	1203.95	0.73
4	0.1952	1205.58	0.74
4	0.2007	1207.56	0.74
4	0.2035	1208.76	0.75

System: N-(carboxymethyl)glycine + water + potassium bromide; phases: Liquid
Fixed: Temperature, K = 298.15
Fixed: Pressure, kPa = 101
Property: Mass density, kg/m3 (Liquid); method: VIBTUB:UFactor:5
Solvent: Amount concentration (molarity), mol/dm3 of potassium bromide	Mass ratio of solute to solvent of N-(carboxymethyl)glycine	Mass density, kg/m3	uncertainty
1	0.1286	1124.86	0.56
1	0.1662	1136.19	0.59
1	0.2028	1146.57	0.62
1	0.209	1148.29	0.62
1	0.215	1150.57	0.63
1	0.2201	1152.09	0.63
1	0.2238	1153.29	0.64
2	0.0886	1190.07	0.73
2	0.1268	1200.68	0.76
2	0.1542	1207.8	0.78
2	0.1822	1214.88	0.8
2	0.1939	1217.78	0.8
2	0.2056	1220.64	0.81
2	0.2105	1222.55	0.82
4	0.084	1302.72	1.02
4	0.1062	1306.59	1.03
4	0.1361	1312.58	1.05
4	0.1728	1319.72	1.07
4	0.1831	1322.01	1.07
4	0.1925	1323.75	1.08

System: potassium ethanoate + N-(carboxymethyl)glycine + water; phases: Liquid
Fixed: Temperature, K = 298.15
Fixed: Pressure, kPa = 101
Property: Mass density, kg/m3 (Liquid); method: VIBTUB:UFactor:5
Solvent: Amount concentration (molarity), mol/dm3 of potassium ethanoate	Mass ratio of solute to solvent of N-(carboxymethyl)glycine	Mass density, kg/m3	uncertainty
1	0.05723	1064.61	0.38
1	0.09566	1077.78	0.41
1	0.1316	1089.39	0.44
1	0.1592	1097.89	0.46
1	0.1715	1101.67	0.47
1	0.1801	1104.17	0.48
1	0.19	1107.65	0.49
1	0.1915	1108.35	0.49
2	0.0521	1106.12	0.48
2	0.1041	1121.74	0.52
2	0.1196	1126.29	0.54
2	0.129	1128.87	0.54
2	0.1452	1133.31	0.55
2	0.16	1138.37	0.57
2	0.1624	1139.29	0.57
4	0.0469	1187.06	0.69
4	0.0673	1192.3	0.7
4	0.0908	1198.15	0.72
4	0.1086	1202.51	0.73
4	0.114	1203.95	0.73
4	0.1175	1204.83	0.74

System: glycylglycylglycine + potassium chloride + water; phases: Liquid
Fixed: Temperature, K = 298.15
Fixed: Pressure, kPa = 101
Property: Mass density, kg/m3 (Liquid); method: VIBTUB:UFactor:5
Solvent: Amount concentration (molarity), mol/dm3 of potassium chloride	Mass ratio of solute to solvent of glycylglycylglycine	Mass density, kg/m3	uncertainty
1	0.0188	1049.99	0.37
1	0.0378	1056.86	0.39
1	0.0529	1062.09	0.4
1	0.0582	1064.02	0.4
1	0.0779	1070.65	0.42
1	0.0881	1074.27	0.43
1	0.0909	1075.43	0.43
2	0.035	1098.73	0.49
2	0.0545	1105.27	0.51
2	0.0741	1111.55	0.53
2	0.0813	1113.53	0.53
2	0.0941	1117.51	0.54
2	0.0957	1118.17	0.54
4	0.0374	1140.47	0.6
4	0.0593	1157.94	0.65
4	0.0785	1173.08	0.69
4	0.093	1184.69	0.72
4	0.105	1193.91	0.74
4	0.1055	1194.94	0.74

System: glycylglycylglycine + water + potassium bromide; phases: Liquid
Fixed: Temperature, K = 298.15
Fixed: Pressure, kPa = 101
Property: Mass density, kg/m3 (Liquid); method: VIBTUB:UFactor:5
Solvent: Amount concentration (molarity), mol/dm3 of potassium bromide	Mass ratio of solute to solvent of glycylglycylglycine	Mass density, kg/m3	uncertainty
1	0.0362	1093.59	0.53
1	0.0516	1098.86	0.54
1	0.0555	1100.14	0.54
1	0.0705	1105.85	0.56
1	0.0909	1112.19	0.58
1	0.0948	1113.72	0.58
2	0.0202	1160.25	0.7
2	0.0338	1166.06	0.72
2	0.0563	1175.44	0.74
2	0.0682	1180.63	0.76
2	0.094	1192.24	0.79
2	0.102	1194.34	0.8
2	0.1037	1195.74	0.8
4	0.034	1326.26	1.15
4	0.0652	1331.35	1.17
4	0.0963	1336.05	1.18
4	0.1101	1338.02	1.18
4	0.115	1338.94	1.19
4	0.1168	1339.2	1.19

System: potassium ethanoate + glycylglycylglycine + water; phases: Liquid
Fixed: Temperature, K = 298.15
Fixed: Pressure, kPa = 101
Property: Mass density, kg/m3 (Liquid); method: VIBTUB:UFactor:5
Solvent: Amount concentration (molarity), mol/dm3 of potassium ethanoate	Mass ratio of solute to solvent of glycylglycylglycine	Mass density, kg/m3	uncertainty
1	0.02	1050.74	0.37
1	0.0301	1054.39	0.38
1	0.047	1060.54	0.4
1	0.0561	1063.83	0.4
1	0.0693	1068.03	0.42
1	0.0729	1069.36	0.42
1	0.0744	1069.84	0.42
2	0.0301	1093.87	0.48
2	0.0419	1097.41	0.49
2	0.0542	1101.12	0.5
2	0.0717	1106.37	0.51
2	0.0806	1109.09	0.52
2	0.082	1109.47	0.52
4	0.0273	1178.26	0.7
4	0.0474	1179.97	0.71
4	0.0642	1181.45	0.71
4	0.08	1182.79	0.71
4	0.088	1183.49	0.72
4	0.089	1183.55	0.72

System: glycylglycylglycylglycine + potassium chloride + water; phases: Liquid
Fixed: Temperature, K = 298.15
Fixed: Pressure, kPa = 101
Property: Mass density, kg/m3 (Liquid); method: VIBTUB:UFactor:5
Solvent: Amount concentration (molarity), mol/dm3 of potassium chloride	Mass ratio of solute to solvent of glycylglycylglycylglycine	Mass density, kg/m3	uncertainty
1	0.0029	1044.04	0.35
1	0.0038	1044.34	0.35
1	0.0052	1044.85	0.36
1	0.0057	1045.09	0.36
1	0.0062	1045.25	0.36
1	0.0065	1045.34	0.36
2	0.003	1087.75	0.47
2	0.0046	1088.24	0.47
2	0.0058	1088.66	0.47
2	0.0067	1088.86	0.47
2	0.0077	1089.21	0.47
2	0.008	1089.33	0.47
2	0.0084	1089.4	0.47
4	0.004	1170.17	0.68
4	0.0055	1170.59	0.68
4	0.0061	1170.69	0.68
4	0.007	1170.88	0.68
4	0.008	1171.12	0.68
4	0.0087	1171.28	0.68
4	0.009	1171.35	0.68

System: glycylglycylglycylglycine + water + potassium bromide; phases: Liquid
Fixed: Temperature, K = 298.15
Fixed: Pressure, kPa = 101
Property: Mass density, kg/m3 (Liquid); method: VIBTUB:UFactor:5
Solvent: Amount concentration (molarity), mol/dm3 of potassium bromide	Mass ratio of solute to solvent of glycylglycylglycylglycine	Mass density, kg/m3	uncertainty
1	0.003	1081.54	0.49
1	0.0038	1081.8	0.49
1	0.0047	1082.17	0.5
1	0.0052	1082.41	0.5
1	0.0064	1082.86	0.5
1	0.0069	1083	0.5
1	0.0072	1083.11	0.5
2	0.0036	1164.26	0.71
2	0.0045	1164.82	0.72
2	0.0053	1165.13	0.72
2	0.0066	1165.52	0.72
2	0.0068	1165.56	0.72
2	0.0077	1165.89	0.72
2	0.0087	1166.17	0.72
2	0.009	1166.27	0.72
4	0.0038	1319.99	1.14
4	0.006	1320.32	1.14
4	0.0083	1320.72	1.14
4	0.0092	1320.87	1.14
4	0.0102	1321.01	1.14
4	0.0114	1321.18	1.14
4	0.0119	1321.28	1.14

System: potassium ethanoate + glycylglycylglycylglycine + water; phases: Liquid
Fixed: Temperature, K = 298.15
Fixed: Pressure, kPa = 101
Property: Mass density, kg/m3 (Liquid); method: VIBTUB:UFactor:5
Solvent: Amount concentration (molarity), mol/dm3 of potassium ethanoate	Mass ratio of solute to solvent of glycylglycylglycylglycine	Mass density, kg/m3	uncertainty
1	0.0025	1044.37	0.35
1	0.0034	1044.72	0.36
1	0.0041	1044.96	0.36
1	0.0049	1045.25	0.36
1	0.0055	1045.45	0.36
1	0.0056	1045.52	0.36
2	0.0028	1089.26	0.47
2	0.0034	1089.4	0.47
2	0.0044	1089.56	0.47
2	0.0051	1089.7	0.47
2	0.006	1089.89	0.47
2	0.0065	1089.96	0.47
2	0.0066	1089.99	0.47
4	0.0025	1171.54	0.68
4	0.003	1171.6	0.68
4	0.0042	1171.72	0.68
4	0.005	1171.8	0.68
4	0.0067	1171.96	0.69
4	0.0069	1171.99	0.69

System: 2,5-diketopiperazine + potassium chloride + water; phases: Liquid
Fixed: Temperature, K = 298.15
Fixed: Pressure, kPa = 101
Property: Mass density, kg/m3 (Liquid); method: VIBTUB:UFactor:5
Solvent: Amount concentration (molarity), mol/dm3 of potassium chloride	Mass ratio of solute to solvent of 2,5-diketopiperazine	Mass density, kg/m3	uncertainty
1	0.0015	1043.25	0.35
1	0.003	1043.73	0.35
1	0.0041	1044.02	0.35
1	0.0062	1044.58	0.35
1	0.0091	1045.74	0.36
1	0.01	1046.06	0.36
1	0.014	1047.18	0.36
1	0.0149	1047.55	0.36
1	0.0152	1047.67	0.36
2	0.0013	1087.24	0.46
2	0.0015	1087.13	0.46
2	0.0036	1087.76	0.47
2	0.0056	1088.32	0.47
2	0.0068	1088.66	0.47
2	0.0088	1089.39	0.47
2	0.013	1090.76	0.47
2	0.0145	1091.09	0.47
2	0.0147	1091.15	0.47
4	0.0018	1171.01	0.68
4	0.0027	1171.15	0.68
4	0.0045	1171.6	0.68
4	0.0077	1172.53	0.69
4	0.0098	1173.09	0.69
4	0.012	1173.61	0.69
4	0.0129	1173.86	0.69
4	0.0134	1173.94	0.69

System: 2,5-diketopiperazine + water + potassium bromide; phases: Liquid
Fixed: Temperature, K = 298.15
Fixed: Pressure, kPa = 101
Property: Mass density, kg/m3 (Liquid); method: VIBTUB:UFactor:5
Solvent: Amount concentration (molarity), mol/dm3 of potassium bromide	Mass ratio of solute to solvent of 2,5-diketopiperazine	Mass density, kg/m3	uncertainty
1	0.0042	1082.03	0.49
1	0.0073	1082.98	0.5
1	0.0115	1084.18	0.5
1	0.0129	1084.54	0.5
1	0.0148	1085.03	0.5
1	0.016	1085.43	0.5
1	0.0165	1085.58	0.5
1	0.0175	1085.86	0.5
2	0.0076	1164.33	0.72
2	0.0113	1165.07	0.72
2	0.0144	1165.87	0.72
2	0.0157	1166.16	0.72
2	0.017	1166.48	0.72
2	0.018	1166.71	0.72
2	0.0188	1166.88	0.72
4	0.0095	1323.7	1.15
4	0.0114	1323.86	1.15
4	0.0124	1324.01	1.15
4	0.0138	1324.22	1.15
4	0.015	1324.3	1.15
4	0.018	1324.61	1.15
4	0.019	1324.72	1.15
4	0.02	1324.81	1.15
4	0.0208	1324.9	1.15

System: 2,5-diketopiperazine + potassium ethanoate + water; phases: Liquid
Fixed: Temperature, K = 298.15
Fixed: Pressure, kPa = 101
Property: Mass density, kg/m3 (Liquid); method: VIBTUB:UFactor:5
Solvent: Amount concentration (molarity), mol/dm3 of potassium ethanoate	Mass ratio of solute to solvent of 2,5-diketopiperazine	Mass density, kg/m3	uncertainty
1	0.003	1044.55	0.36
1	0.0066	1045.59	0.36
1	0.0094	1046.48	0.36
1	0.0101	1046.68	0.36
1	0.0112	1047.03	0.36
1	0.0124	1047.39	0.36
1	0.0127	1047.48	0.36
2	0.0028	1089.84	0.47
2	0.0057	1090.43	0.47
2	0.0077	1090.96	0.48
2	0.0087	1091.23	0.48
2	0.01	1091.58	0.48
2	0.0106	1091.7	0.48
4	0.0027	1174.49	0.69
4	0.0032	1174.65	0.69
4	0.0051	1175.02	0.69
4	0.0059	1175.22	0.69
4	0.0071	1175.49	0.69
4	0.0072	1175.51	0.69

System: potassium chloride + water; phases: Liquid
Fixed: Temperature, K = 298.15
Fixed: Pressure, kPa = 101
Property: Mass density, kg/m3 (Liquid); method: VIBTUB:UFactor:5
Amount concentration (molarity), mol/dm3 of potassium chloride	Mass density, kg/m3	uncertainty
1	1042.84	0.32
2	1082.33	0.42
4	1168.97	0.63

System: water + potassium bromide; phases: Liquid
Fixed: Temperature, K = 298.15
Fixed: Pressure, kPa = 101
Property: Mass density, kg/m3 (Liquid); method: VIBTUB:UFactor:5
Amount concentration (molarity), mol/dm3 of potassium bromide	Mass density, kg/m3	uncertainty
1	1080.52	0.42
2	1162.26	0.63
4	1323.4	1.05

System: potassium ethanoate + water; phases: Liquid
Fixed: Temperature, K = 298.15
Fixed: Pressure, kPa = 101
Property: Mass density, kg/m3 (Liquid); method: VIBTUB:UFactor:5
Amount concentration (molarity), mol/dm3 of potassium ethanoate	Mass density, kg/m3	uncertainty
1	1043.58	0.32
2	1087.93	0.43
4	1170.95	0.64
