Measured thermophysical data. Diffusion coefficients of paracetamol in aqueous solutions
Source: J. Chem. Thermodyn., 2012, 10.1016/j.jct.2012.03.014
Compound 1: N-acetyl-p-aminophenol, C8H9NO2, InChI=1S/C8H9NO2/c1-6(10)9-7-2-4-8(11)5-3-7/h2-5,11H,1H3,(H,9,10), purity 99%
Compound 2: water, H2O, InChI=1S/H2O/h1H2

System: N-acetyl-p-aminophenol + water; phases: Liquid
Fixed: Pressure, kPa = 101
Fixed: Temperature, K = 298.15
Property: Binary diffusion coefficient, m2/s (Liquid); method: Taylor dispersion method
Amount concentration (molarity), mol/dm3 of N-acetyl-p-aminophenol	Binary diffusion coefficient, m2/s	uncertainty
0.001	6.63e-10	0.051
0.003	6.59e-10	0.054
0.005	6.54e-10	0.051
0.01	6.5e-10	0.042
0.03	6.29e-10	0.03
0.05	6.21e-10	0.036
