Measured thermophysical data. Thermophysical properties of 1-butyl-4-methylpyridinium tetrafluoroborate
Source: J. Chem. Thermodyn., 2012, 10.1016/j.jct.2012.02.018
Compound 1: 1-butyl-4-methylpyridinium tetrafluoroborate, C10H16BF4N, InChI=1S/C10H16N.BF4/c1-3-4-7-11-8-5-10(2)6-9-11;2-1(3,4)5/h5-6,8-9H,3-4,7H2,1-2H3;/q+1;-1

System: 1-butyl-4-methylpyridinium tetrafluoroborate; phases: Liquid
Property: Mass density, kg/m3 (Liquid); method: Vibrating tube method
Temperature, K	Pressure, kPa	Mass density, kg/m3	uncertainty
283.13	2389	1200.77	2.25
283.2	5533	1202.11	2.27
283.2	10148	1204.06	2.29
283.17	20156	1208.22	2.34
283.17	29957	1212.19	2.4
283.17	39808	1216.08	2.46
283.16	49953	1219.99	2.52
283.15	60042	1223.77	2.58
283.16	69924	1227.37	2.65
283.15	79648	1230.82	2.72
283.15	89923	1234.36	2.8
283.14	99418	1237.54	2.87
293.13	2593	1194.15	2.24
293.16	5220	1195.31	2.25
293.17	10236	1197.5	2.28
293.17	19941	1201.67	2.32
293.17	29914	1205.84	2.38
293.17	39693	1209.82	2.43
293.16	49933	1213.87	2.5
293.16	59929	1217.71	2.56
293.15	69958	1221.46	2.63
293.15	79965	1225.08	2.7
293.15	90001	1228.6	2.77
293.14	99354	1231.77	2.84
298.15	1003	1190.06	2.22
298.15	5005	1191.86	2.24
298.15	10002	1194.09	2.27
298.15	19998	1198.45	2.32
298.15	29945	1202.67	2.37
298.15	39923	1206.79	2.43
298.15	49991	1210.83	2.49
298.15	60002	1214.72	2.55
298.15	70001	1218.49	2.61
298.15	79994	1222.14	2.68
298.15	90002	1225.68	2.75
298.15	99998	1229.1	2.83
313.16	2707	1180.63	2.21
313.17	5339	1181.88	2.22
313.17	10173	1184.14	2.24
313.16	20303	1188.77	2.29
313.16	29913	1193.03	2.34
313.17	39937	1197.34	2.39
313.16	49943	1201.51	2.45
313.15	59740	1205.47	2.51
313.16	69933	1209.44	2.58
313.17	79710	1213.11	2.64
313.16	89952	1216.83	2.71
313.16	99473	1220.15	2.78
333.13	1547	1166.3	2.17
333.15	5146	1168.12	2.18
333.17	9837	1170.46	2.2
333.16	19866	1175.35	2.25
333.15	29917	1180.08	2.3
333.13	39448	1184.41	2.35
333.14	49914	1188.99	2.41
333.14	60043	1193.26	2.46
333.15	69942	1197.26	2.52
333.16	79463	1200.96	2.58
333.16	89996	1204.89	2.65
333.17	99595	1208.3	2.72
353.14	2498	1152.85	2.14
353.14	5035	1154.22	2.15
353.14	9690	1156.69	2.17
353.14	20367	1162.21	2.21
353.14	29942	1166.97	2.26
353.14	39870	1171.71	2.31
353.14	49991	1176.35	2.36
353.13	59133	1180.36	2.41
353.14	70001	1184.93	2.47
353.16	79945	1188.9	2.53
353.15	89993	1192.71	2.6
353.16	98529	1195.8	2.65
373.14	2866	1138.93	2.1
373.15	5031	1140.17	2.11
373.16	9772	1142.85	2.13
373.17	20168	1148.55	2.17
373.15	29936	1153.67	2.22
373.14	40385	1158.91	2.27
373.14	49993	1163.5	2.31
373.13	59930	1168.03	2.37
373.14	69984	1172.37	2.42
373.15	79614	1176.31	2.48
373.15	90002	1180.33	2.54
373.15	99124	1183.64	2.59
393.16	2068	1124.13	2.07
393.16	5306	1126.11	2.08
393.15	10459	1129.2	2.1
393.15	20029	1134.74	2.13
393.16	29942	1140.22	2.18
393.17	39803	1145.4	2.22
393.17	49942	1150.46	2.27
393.18	59764	1155.09	2.32
393.17	70000	1159.64	2.37
393.17	80173	1163.89	2.42
393.15	90001	1167.72	2.48
393.14	99382	1171.13	2.53

System: 1-butyl-4-methylpyridinium tetrafluoroborate; phases: Liquid
Fixed: Pressure, kPa = 101.325
Property: Mass density, kg/m3 (Liquid); method: Vibrating tube method
Temperature, K	Mass density, kg/m3	uncertainty
278.16	1202.41	2.67
283.17	1198.9	2.66
293.16	1191.79	2.64
298.13	1188.41	2.63
313.13	1178.11	2.61
333.14	1164.59	2.57
343.14	1157.92	2.55

System: 1-butyl-4-methylpyridinium tetrafluoroborate; phases: Liquid
Fixed: Pressure, kPa = 101.325
Property: Viscosity, Pa*s (Liquid); method: Concentric cylinders viscometry
Temperature, K	Viscosity, Pa*s	uncertainty
283.15	0.76572	0.04075
293.15	0.33859	0.01615
298.15	0.23697	0.0108
303.15	0.17104	0.00753
313.15	0.096182	0.004049
323.15	0.058526	0.002419
333.15	0.038286	0.001584
343.15	0.026479	0.001095
353.15	0.019169	0.000793
363.15	0.014414	0.000596
373.15	0.011185	0.000463
