Measured thermophysical data. Investigation of the vapor pressure p of zinc bromide or zinc chloride solutions with methanol by static method
Source: J. Chem. Thermodyn., 2006, 10.1016/j.jct.2005.05.017
Compound 1: methanol, CH4O, InChI=1S/CH4O/c1-2/h2H,1H3, purity 99.8%
Compound 2: zinc bromide, Br2Zn, InChI=1S/2BrH.Zn/h2*1H;/q;;+2/p-2, purity 99.8%
Compound 3: zinc chloride, Cl2Zn, InChI=1S/2ClH.Zn/h2*1H;/q;;+2/p-2, purity 99.8%

System: methanol + zinc bromide; phases: Liquid, Gas
Property: Vapor or sublimation pressure, kPa (Liquid); method: Closed cell (Static) method
Temperature, K	Molality, mol/kg of zinc bromide	Vapor or sublimation pressure, kPa	uncertainty
298.15	0.19972	16.712	0.07
298.15	0.40025	16.566	0.07
298.15	0.79968	16.281	0.069
298.15	1.1733	16.008	0.068
298.15	1.90544	15.399	0.066
298.15	2.68576	14.497	0.063
298.15	3.39816	13.287	0.059
298.15	4.51651	10.804	0.051
298.15	5.31055	8.837	0.046
298.15	5.52054	8.327	0.044
298.15	7.36188	4.533	0.034
298.15	8.93699	2.614	0.03
298.15	11.05142	1.467	0.027
303.15	0.19972	21.575	0.086
303.15	0.40025	21.403	0.085
303.15	0.79968	21.063	0.084
303.15	1.1733	20.733	0.083
303.15	1.90544	19.956	0.08
303.15	2.68576	18.825	0.077
303.15	3.39816	17.333	0.072
303.15	4.51651	14.186	0.062
303.15	5.31055	11.66	0.053
303.15	5.52054	10.986	0.051
303.15	7.36188	6.149	0.038
303.15	8.93699	3.587	0.032
303.15	11.05142	2.043	0.028
308.15	0.19972	27.581	0.105
308.15	0.40025	27.386	0.104
308.15	0.79968	26.978	0.103
308.15	1.1733	26.58	0.102
308.15	1.90544	25.639	0.099
308.15	2.68576	24.2	0.094
308.15	3.39816	22.324	0.088
308.15	4.51651	18.467	0.076
308.15	5.31055	15.155	0.065
308.15	5.52054	14.272	0.062
308.15	7.36188	8.239	0.044
308.15	8.93699	4.834	0.035
308.15	11.05142	2.804	0.03
313.15	0.19972	34.988	0.129
313.15	0.40025	34.766	0.128
313.15	0.79968	34.287	0.127
313.15	1.1733	33.812	0.125
313.15	1.90544	32.676	0.122
313.15	2.68576	30.874	0.116
313.15	3.39816	28.561	0.108
313.15	4.51651	23.818	0.093
313.15	5.31055	19.632	0.079
313.15	5.52054	18.563	0.076
313.15	7.36188	10.873	0.051
313.15	8.93699	6.546	0.039
313.15	11.05142	3.882	0.033
318.15	0.19972	43.986	0.158
318.15	0.40025	43.729	0.157
318.15	0.79968	43.16	0.155
318.15	1.1733	42.569	0.153
318.15	1.90544	41.199	0.149
318.15	2.68576	39.135	0.142
318.15	3.39816	36.224	0.133
318.15	4.51651	30.214	0.114
318.15	5.31055	25.136	0.097
318.15	5.52054	23.822	0.093
318.15	7.36188	14.18	0.062
318.15	8.93699	8.792	0.045
318.15	11.05142	5.349	0.036
323.15	0.19972	54.952	0.192
323.15	0.40025	54.638	0.191
323.15	0.79968	54.001	0.189
323.15	1.1733	53.321	0.187
323.15	1.90544	51.706	0.182
323.15	2.68576	49.155	0.173
323.15	3.39816	45.772	0.162
323.15	4.51651	38.248	0.138
323.15	5.31055	32.007	0.119
323.15	5.52054	30.405	0.113
323.15	7.36188	18.304	0.076
323.15	8.93699	11.61	0.054
323.15	11.05142	7.167	0.041

System: methanol + zinc chloride; phases: Liquid, Gas
Property: Vapor or sublimation pressure, kPa (Liquid); method: Closed cell (Static) method
Temperature, K	Molality, mol/kg of zinc chloride	Vapor or sublimation pressure, kPa	uncertainty
298.15	0.42094	16.8	0.071
298.15	0.70233	16.78	0.071
298.15	1.03666	16.722	0.07
298.15	1.3416	16.644	0.07
298.15	2.06232	16.312	0.069
298.15	2.73312	15.84	0.068
298.15	3.48373	15.078	0.065
298.15	4.56557	13.511	0.06
298.15	5.26751	12.195	0.056
298.15	5.88745	10.706	0.051
298.15	6.22669	9.698	0.048
298.15	6.91645	7.393	0.041
298.15	7.52507	5.866	0.037
298.15	8.25534	4.854	0.035
303.15	0.42094	21.684	0.086
303.15	0.70233	21.662	0.086
303.15	1.03666	21.598	0.086
303.15	1.3416	21.506	0.085
303.15	2.06232	21.108	0.084
303.15	2.73312	20.534	0.082
303.15	3.48373	19.591	0.079
303.15	4.56557	17.645	0.073
303.15	5.26751	15.93	0.067
303.15	5.88745	14.068	0.061
303.15	6.22669	12.887	0.057
303.15	6.91645	9.854	0.048
303.15	7.52507	7.789	0.042
303.15	8.25534	6.421	0.039
308.15	0.42094	27.718	0.105
308.15	0.70233	27.697	0.105
308.15	1.03666	27.627	0.105
308.15	1.3416	27.522	0.105
308.15	2.06232	27.043	0.103
308.15	2.73312	26.334	0.101
308.15	3.48373	25.181	0.097
308.15	4.56557	22.798	0.09
308.15	5.26751	20.688	0.083
308.15	5.88745	18.344	0.075
308.15	6.22669	16.863	0.07
308.15	6.91645	12.994	0.058
308.15	7.52507	10.23	0.049
308.15	8.25534	8.409	0.044
313.15	0.42094	35.154	0.129
313.15	0.70233	35.139	0.129
313.15	1.03666	35.061	0.129
313.15	1.3416	34.941	0.129
313.15	2.06232	34.384	0.127
313.15	2.73312	33.528	0.124
313.15	3.48373	32.128	0.12
313.15	4.56557	29.219	0.11
313.15	5.26751	26.637	0.102
313.15	5.88745	23.74	0.093
313.15	6.22669	21.886	0.087
313.15	6.91645	17.062	0.071
313.15	7.52507	13.364	0.059
313.15	8.25534	11.087	0.051
318.15	0.42094	44.179	0.159
318.15	0.70233	44.17	0.159
318.15	1.03666	44.079	0.158
318.15	1.3416	43.952	0.158
318.15	2.06232	43.301	0.156
318.15	2.73312	42.289	0.153
318.15	3.48373	40.59	0.147
318.15	4.56557	37.021	0.136
318.15	5.26751	33.876	0.125
318.15	5.88745	30.404	0.114
318.15	6.22669	28.057	0.107
318.15	6.91645	22.257	0.088
318.15	7.52507	17.383	0.072
318.15	8.25534	14.423	0.062
323.15	0.42094	55.166	0.193
323.15	0.70233	55.159	0.193
323.15	1.03666	55.076	0.193
323.15	1.3416	54.924	0.192
323.15	2.06232	54.168	0.189
323.15	2.73312	52.977	0.186
323.15	3.48373	50.966	0.179
323.15	4.56557	46.562	0.165
323.15	5.26751	42.826	0.153
323.15	5.88745	38.509	0.139
323.15	6.22669	35.714	0.13
323.15	6.91645	28.593	0.108
323.15	7.52507	22.514	0.089
323.15	8.25534	18.625	0.075
