Measured thermophysical data. Heat capacity measurement of organic thermal energy storage materials
Source: J. Chem. Thermodyn., 2006, 10.1016/j.jct.2006.02.005
Compound 1: 2-amino-2-methyl-1,3-propanediol, C4H11NO2, InChI=1S/C4H11NO2/c1-4(5,2-6)3-7/h6-7H,2-3,5H2,1H3
Compound 2: 2,2-dimethyl-1,3-propanediol, C5H12O2, InChI=1S/C5H12O2/c1-5(2,3-6)4-7/h6-7H,3-4H2,1-2H3
Compound 3: 2-amino-2-(hydroxymethyl)-1,3-propanediol, C4H11NO3, InChI=1S/C4H11NO3/c5-4(1-6,2-7)3-8/h6-8H,1-3,5H2

System: 2-amino-2-methyl-1,3-propanediol; phases: Crystal 2, Crystal 1, Air at 1 atmosphere
Property: Molar enthalpy of transition or fusion, kJ/mol (Crystal 2); method: DSC:UFactor:2
Molar enthalpy of transition or fusion, kJ/mol	uncertainty
23.548	1.067

System: 2-amino-2-methyl-1,3-propanediol; phases: Crystal 1, Liquid, Air at 1 atmosphere
Property: Molar enthalpy of transition or fusion, kJ/mol (Crystal 1); method: DSC:UFactor:2
Molar enthalpy of transition or fusion, kJ/mol	uncertainty
2.755	0.263

System: 2-amino-2-methyl-1,3-propanediol; phases: Crystal 2, Crystal 1, Air at 1 atmosphere
Property: Triple point temperature, K (Crystal 2); method: DTA:UFactor:2
Triple point temperature, K	uncertainty
355.66	0.9

System: 2-amino-2-methyl-1,3-propanediol; phases: Crystal 1, Liquid, Air at 1 atmosphere
Property: Normal melting temperature, K (Crystal 1); method: DTA:UFactor:2
Normal melting temperature, K	uncertainty
384.08	1.19

System: 2-amino-2-methyl-1,3-propanediol; phases: Crystal 1
Fixed: Pressure, kPa = 101.325
Property: Molar heat capacity at constant pressure, J/K/mol (Crystal 1); method: SDSC:UFactor:2
Temperature, K	Molar heat capacity at constant pressure, J/K/mol	uncertainty
368.15	297.97	11.92
368.15	303.43	12.14
368.15	287.35	11.49
373.15	299.96	12
373.15	302.7	12.11
373.15	289.98	11.6
378.15	306.17	12.25
378.15	309.95	12.4
378.15	295.76	11.83

System: 2-amino-2-methyl-1,3-propanediol; phases: Crystal 3
Fixed: Pressure, kPa = 101.325
Property: Molar heat capacity at constant pressure, J/K/mol (Crystal 3); method: SDSC:UFactor:2
Temperature, K	Molar heat capacity at constant pressure, J/K/mol	uncertainty
193.15	118.91	4.76
193.15	107.45	4.3
193.15	121.86	4.87
198.15	121.86	4.87
198.15	119.23	4.77
198.15	108.93	4.36
203.15	123.22	4.93
203.15	119.86	4.79
203.15	110.29	4.41
208.15	124.91	5
208.15	119.54	4.78
208.15	111.13	4.45
213.15	126.27	5.05
213.15	119.96	4.8
213.15	112.18	4.49
218.15	127.85	5.11
218.15	121.12	4.84
218.15	113.66	4.55
223.15	129.11	5.16
223.15	122.28	4.89
223.15	115.97	4.64
228.15	130.37	5.21
228.15	123.22	4.93
228.15	118.39	4.74
233.15	132.06	5.28
233.15	124.17	4.97
233.15	121.02	4.84
238.15	133.84	5.35
238.15	125.85	5.03
238.15	124.17	4.97
243.15	135	5.4
243.15	129.32	5.17
243.15	126.8	5.07
248.15	136.37	5.45
248.15	130.9	5.24
248.15	128.8	5.15
253.15	130.69	5.23
253.15	135.32	5.41
253.15	132.16	5.29
258.15	131.32	5.25
258.15	134.05	5.36
258.15	134.16	5.37
263.15	133	5.32
263.15	134.05	5.36
263.15	136.37	5.45
268.15	134.16	5.37
268.15	135.84	5.43
268.15	137.52	5.5
273.15	134.58	5.38
273.15	137.42	5.5
273.15	138.78	5.55
278.15	136.79	5.47
278.15	139.1	5.56
278.15	140.47	5.62
283.15	139.63	5.59
283.15	140.68	5.63
283.15	142.67	5.71
288.15	142.04	5.68
288.15	142.04	5.68
288.15	143.83	5.75
293.15	143.62	5.74
293.15	144.46	5.78
293.15	145.83	5.83
298.15	145.62	5.82
298.15	146.46	5.86
298.15	148.25	5.93
303.15	147.51	5.9
303.15	148.46	5.94
303.15	151.61	6.06
308.15	148.88	5.96
308.15	150.03	6
308.15	153.82	6.15
313.15	150.67	6.03
313.15	151.82	6.07
313.15	154.56	6.18
318.15	151.51	6.06
318.15	154.35	6.17
318.15	155.5	6.22
323.15	152.66	6.11
323.15	156.87	6.27
323.15	158.97	6.36
328.15	154.98	6.2
328.15	159.5	6.38
328.15	164.54	6.58
333.15	157.6	6.3
333.15	162.34	6.49
333.15	168.33	6.73
338.15	160.02	6.4
338.15	165.49	6.62
338.15	171.9	6.88
343.15	163.07	6.52
343.15	168.33	6.73
343.15	176.74	7.07
348.15	186.94	7.48
348.15	175.58	7.02
348.15	198.92	7.96

System: 2-amino-2-methyl-1,3-propanediol; phases: Liquid
Fixed: Pressure, kPa = 101.325
Property: Molar heat capacity at constant pressure, J/K/mol (Liquid); method: SDSC:UFactor:2
Temperature, K	Molar heat capacity at constant pressure, J/K/mol	uncertainty
393.15	322.67	12.91
393.15	320.57	12.82
393.15	328.56	13.14
398.15	327.41	13.1
398.15	323.41	12.94
398.15	339.71	13.59
403.15	331.72	13.27
403.15	325.62	13.02
403.15	352.43	14.1
408.15	335.19	13.41
408.15	327.83	13.11
413.15	330.03	13.2

System: 2,2-dimethyl-1,3-propanediol; phases: Crystal 2, Crystal 1, Air at 1 atmosphere
Property: Molar enthalpy of transition or fusion, kJ/mol (Crystal 2); method: DSC:UFactor:2
Molar enthalpy of transition or fusion, kJ/mol	uncertainty
12.238	0.813

System: 2,2-dimethyl-1,3-propanediol; phases: Crystal 1, Liquid, Air at 1 atmosphere
Property: Molar enthalpy of transition or fusion, kJ/mol (Crystal 1); method: DSC:UFactor:2
Molar enthalpy of transition or fusion, kJ/mol	uncertainty
4.225	0.414

System: 2,2-dimethyl-1,3-propanediol; phases: Crystal 2, Crystal 1, Air at 1 atmosphere
Property: Triple point temperature, K (Crystal 2); method: DTA:UFactor:2
Triple point temperature, K	uncertainty
315.14	1

System: 2,2-dimethyl-1,3-propanediol; phases: Crystal 1, Liquid, Air at 1 atmosphere
Property: Normal melting temperature, K (Crystal 1); method: DTA:UFactor:2
Normal melting temperature, K	uncertainty
401.63	1

System: 2,2-dimethyl-1,3-propanediol; phases: Crystal 1
Fixed: Pressure, kPa = 101.325
Property: Molar heat capacity at constant pressure, J/K/mol (Crystal 1); method: SDSC:UFactor:3
Temperature, K	Molar heat capacity at constant pressure, J/K/mol	uncertainty
323.15	260.17	15.61
323.15	244.86	14.69
328.15	268.5	16.11
328.15	247.56	14.85
333.15	250.27	15.02
333.15	274.54	16.47
338.15	252.15	15.13
338.15	278.81	16.73
343.15	254.75	15.29
343.15	282.45	16.95
348.15	256.52	15.39
348.15	286.2	17.17
353.15	258.71	15.52
353.15	288.81	17.33
358.15	260.79	15.65
358.15	291.2	17.47
363.15	263.19	15.79
363.15	294.22	17.65
368.15	265.69	15.94
368.15	296.93	17.82
373.15	268.39	16.1
373.15	299.85	17.99
378.15	272.04	16.32
378.15	303.6	18.22
383.15	277.04	16.62
383.15	309.64	18.58
388.15	285.06	17.1
388.15	322.55	19.35
393.15	309.85	18.59
393.15	358.48	21.51

System: 2,2-dimethyl-1,3-propanediol; phases: Liquid
Fixed: Pressure, kPa = 101.325
Property: Molar heat capacity at constant pressure, J/K/mol (Liquid); method: SDSC:UFactor:2
Temperature, K	Molar heat capacity at constant pressure, J/K/mol	uncertainty
408.15	330.26	13.21
413.15	339.95	13.6
418.15	345.99	13.84
423.15	353.38	14.14

System: 2,2-dimethyl-1,3-propanediol; phases: Crystal 2
Fixed: Pressure, kPa = 101.325
Property: Molar heat capacity at constant pressure, J/K/mol (Crystal 2); method: SDSC:UFactor:2
Temperature, K	Molar heat capacity at constant pressure, J/K/mol	uncertainty
193.15	120.71	4.83
193.15	121.44	4.86
198.15	122.48	4.9
198.15	123	4.92
203.15	124.15	4.97
203.15	124.36	4.97
208.15	123.83	4.95
208.15	125.5	5.02
213.15	125.6	5.02
213.15	127.58	5.1
218.15	127.48	5.1
218.15	130.08	5.2
223.15	130.08	5.2
223.15	132.06	5.28
228.15	132.79	5.31
228.15	133.62	5.34
233.15	134.98	5.4
233.15	134.87	5.39
238.15	135.71	5.43
238.15	136.54	5.46
243.15	136.64	5.47
243.15	138.1	5.52
248.15	136.64	5.47
248.15	140.5	5.62
253.15	138	5.52
253.15	142.37	5.69
258.15	139.46	5.58
258.15	144.66	5.79
263.15	141.23	5.65
263.15	147.79	5.91
268.15	142.89	5.72
268.15	150.6	6.02
273.15	145.29	5.81
273.15	153.62	6.14
278.15	156.54	6.26
278.15	147.48	5.9
283.15	160.08	6.4
283.15	150.18	6.01
288.15	164.45	6.58
288.15	153.31	6.13
293.15	168.1	6.72
293.15	156.12	6.24
298.15	172.06	6.88
298.15	159.25	6.37
303.15	176.53	7.06
303.15	163.1	6.52
308.15	184.35	7.37
308.15	167.58	6.7

System: 2-amino-2-(hydroxymethyl)-1,3-propanediol; phases: Crystal 2, Crystal 1, Air at 1 atmosphere
Property: Molar enthalpy of transition or fusion, kJ/mol (Crystal 2); method: DSC:UFactor:2
Molar enthalpy of transition or fusion, kJ/mol	uncertainty
33.475	1.591

System: 2-amino-2-(hydroxymethyl)-1,3-propanediol; phases: Crystal 1, Liquid, Air at 1 atmosphere
Property: Molar enthalpy of transition or fusion, kJ/mol (Crystal 1); method: DSC:UFactor:2
Molar enthalpy of transition or fusion, kJ/mol	uncertainty
3.104	0.355

System: 2-amino-2-(hydroxymethyl)-1,3-propanediol; phases: Crystal 2, Crystal 1, Air at 1 atmosphere
Property: Triple point temperature, K (Crystal 2); method: DTA:UFactor:2
Triple point temperature, K	uncertainty
409.2	1

System: 2-amino-2-(hydroxymethyl)-1,3-propanediol; phases: Crystal 1, Liquid, Air at 1 atmosphere
Property: Normal melting temperature, K (Crystal 1); method: DTA:UFactor:2
Normal melting temperature, K	uncertainty
444.57	1

System: 2-amino-2-(hydroxymethyl)-1,3-propanediol; phases: Crystal 1
Fixed: Pressure, kPa = 101.325
Property: Molar heat capacity at constant pressure, J/K/mol (Crystal 1); method: SDSC:UFactor:2
Temperature, K	Molar heat capacity at constant pressure, J/K/mol	uncertainty
423.15	367.05	14.68
423.15	386.4	15.46
423.15	376.37	15.05
428.15	368.14	14.73
428.15	390.4	15.62
428.15	378.19	15.13
433.15	369.95	14.8
433.15	393.79	15.75
433.15	383.04	15.32
438.15	371.65	14.87
438.15	396.7	15.87
438.15	389.58	15.58

System: 2-amino-2-(hydroxymethyl)-1,3-propanediol; phases: Liquid
Fixed: Pressure, kPa = 101.325
Property: Molar heat capacity at constant pressure, J/K/mol (Liquid); method: SDSC:UFactor:2
Temperature, K	Molar heat capacity at constant pressure, J/K/mol	uncertainty
453.15	395.39	15.82
458.15	396.6	15.86
463.15	398.06	15.92
468.15	400.36	16.01
473.15	400.72	16.03

System: 2-amino-2-(hydroxymethyl)-1,3-propanediol; phases: Crystal 2
Fixed: Pressure, kPa = 101.325
Property: Molar heat capacity at constant pressure, J/K/mol (Crystal 2); method: SDSC:UFactor:2
Temperature, K	Molar heat capacity at constant pressure, J/K/mol	uncertainty
193.15	122.47	4.9
193.15	125.13	5.01
193.15	118.14	4.73
198.15	123.8	4.95
198.15	126.58	5.06
198.15	119.34	4.77
203.15	124.41	4.98
203.15	128.03	5.12
203.15	119.97	4.8
208.15	126.22	5.05
208.15	130.34	5.21
208.15	121.62	4.86
213.15	128.53	5.14
213.15	132.76	5.31
213.15	124.17	4.97
218.15	130.83	5.23
218.15	135.3	5.41
218.15	125.62	5.02
223.15	133.13	5.33
223.15	137.12	5.48
223.15	127.31	5.09
228.15	135.31	5.41
228.15	138.33	5.53
228.15	129.5	5.18
233.15	131.07	5.24
233.15	137.49	5.5
233.15	140.87	5.63
238.15	133.61	5.34
238.15	139.67	5.59
238.15	143.78	5.75
243.15	139.07	5.56
243.15	142.09	5.68
243.15	145.84	5.83
248.15	143.18	5.73
248.15	144.27	5.77
248.15	148.75	5.95
253.15	144.76	5.79
253.15	146.7	5.87
253.15	151.05	6.04
258.15	146.82	5.87
258.15	149.24	5.97
258.15	153.23	6.13
263.15	150.82	6.03
263.15	152.03	6.08
263.15	155.65	6.23
268.15	154.81	6.19
268.15	154.69	6.19
268.15	158.07	6.32
273.15	156.87	6.27
273.15	156.99	6.28
273.15	160.74	6.43
278.15	157.96	6.32
278.15	159.66	6.39
278.15	163.65	6.55
283.15	160.99	6.44
283.15	162.69	6.51
283.15	166.8	6.67
288.15	163.78	6.55
288.15	165.84	6.63
288.15	169.46	6.78
293.15	166.32	6.65
293.15	169.11	6.76
293.15	171.4	6.86
298.15	169.83	6.79
298.15	171.89	6.88
298.15	174.79	6.99
303.15	172.14	6.89
303.15	174.44	6.98
303.15	179.03	7.16
308.15	173.95	6.96
308.15	177.34	7.09
308.15	182.3	7.29
313.15	175.89	7.04
313.15	180.01	7.2
313.15	185.33	7.41
318.15	180.37	7.21
318.15	182.55	7.3
318.15	188.36	7.53
323.15	185.82	7.43
323.15	185.1	7.4
323.15	191.63	7.67
328.15	189.46	7.58
328.15	187.4	7.5
328.15	194.41	7.78
333.15	192	7.68
333.15	189.82	7.59
333.15	197.08	7.88
338.15	195.52	7.82
338.15	192.24	7.69
338.15	200.35	8.01
343.15	198.06	7.92
343.15	194.3	7.77
343.15	203.14	8.13
348.15	200.6	8.02
348.15	196.97	7.88
348.15	206.04	8.24
353.15	203.15	8.13
353.15	199.15	7.97
353.15	209.19	8.37
358.15	205.93	8.24
358.15	201.94	8.08
358.15	211.86	8.47
363.15	209.93	8.4
363.15	203.99	8.16
363.15	214.4	8.58
368.15	212.96	8.52
368.15	206.78	8.27
368.15	217.31	8.69
373.15	215.26	8.61
373.15	209.45	8.38
373.15	219.61	8.78
378.15	218.17	8.73
378.15	212.35	8.49
378.15	222.64	8.91
383.15	221.8	8.87
383.15	214.9	8.6
383.15	226.15	9.05
388.15	227.37	9.09
388.15	217.93	8.72
388.15	229.78	9.19
393.15	229.31	9.17
393.15	221.32	8.85
393.15	233.54	9.34
398.15	234.28	9.37
398.15	225.68	9.03
398.15	237.9	9.52
