Measured thermophysical data. Liquid-liquid extraction of sulfur compounds from heptane with tricyanomethanide based ionic liquids
Source: J. Chem. Thermodyn., 2019, 10.1016/j.jct.2018.10.009
Compound 1: benzo[b]thiophene, C8H6S, InChI=1S/C8H6S/c1-2-4-8-7(3-1)5-6-9-8/h1-6H
Compound 2: heptane, C7H16, InChI=1S/C7H16/c1-3-5-7-6-4-2/h3-7H2,1-2H3
Compound 3: thiophene, C4H4S, InChI=1S/C4H4S/c1-2-4-5-3-1/h1-4H
Compound 4: 4-butyl-4-methylmorpholinium tricyanomethanide, C13H20N4O, InChI=1S/C9H20NO.C4N3/c1-3-4-5-10(2)6-8-11-9-7-10;5-1-4(2-6)3-7/h3-9H2,1-2H3;/q+1;-1
Compound 5: 4-hexyl-4-methylmorpholinium tricyanomethanide, C15H24N4O, InChI=1S/C11H24NO.C4N3/c1-3-4-5-6-7-12(2)8-10-13-11-9-12;5-1-4(2-6)3-7/h3-11H2,1-2H3;/q+1;-1

System: 4-hexyl-4-methylmorpholinium tricyanomethanide; phases: Liquid
Fixed: Pressure, kPa = 100
Property: Mass density, kg/m3 (Liquid); method: Vibrating tube method
Temperature, K	Mass density, kg/m3	uncertainty
293.15	1042.7	1.3
298.15	1039.6	1.3
303.15	1036.5	1.3
308.15	1033.3	1.3
313.15	1030.2	1.3
318.15	1027.1	1.3
323.15	1024.1	1.3
328.15	1021	1.3
333.15	1018	1.3
338.15	1015	1.3
343.15	1012	1.3
348.15	1009	1.3
353.15	1006	1.3

System: 4-hexyl-4-methylmorpholinium tricyanomethanide; phases: Liquid
Fixed: Pressure, kPa = 100
Property: Viscosity, Pa*s (Liquid); method: Falling or rolling sphere viscometry
Temperature, K	Viscosity, Pa*s	uncertainty
293.15	0.4592	0.0561
298.15	0.3098	0.036
303.15	0.2184	0.0243
308.15	0.1581	0.017
313.15	0.1179	0.0123
318.15	0.09006	0.00924
323.15	0.07051	0.00716
328.15	0.05652	0.00571
333.15	0.04411	0.00446
338.15	0.03721	0.00376
343.15	0.03095	0.00313

System: 4-butyl-4-methylmorpholinium tricyanomethanide + thiophene + heptane; phases: Liquid mixture 2, Liquid mixture 1
Fixed: Temperature, K = 308.15
Fixed: Pressure, kPa = 100
Property: Mole fraction of heptane (Liquid mixture 2); method: Chromatography
Property: Mole fraction of heptane (Liquid mixture 1); method: Chromatography
Property: Mole fraction of thiophene (Liquid mixture 1); method: Chromatography
Mole fraction of thiophene	Mole fraction of heptane	uncertainty	Mole fraction of heptane	uncertainty	Mole fraction of thiophene	uncertainty
0	0.02	0.01	1		0	
0.272	0.031	0.01	0.829	0.009	0.171	
0.355	0.024	0.01	0.739	0.009	0.261	
0.43	0.025	0.01	0.682	0.009	0.318	
0.449	0.025	0.01	0.665	0.009	0.335	
0.478	0.022	0.01	0.603	0.009	0.397	
0.524	0.02	0.01	0.531	0.009	0.469	
0.557	0.018	0.01	0.472	0.009	0.528	
0.57	0.017	0.01	0.417	0.009	0.583	
0.61	0.017	0.01	0.293	0.009	0.707	
0.657	0.011	0.01	0.163	0.009	0.837	
0.707	0.013	0.01	0.103	0.009	0.897	
0.732	0.01	0.01	0.05	0.009	0.95	
0.745	0.011	0.01	0.017	0.009	0.983	
0.789	0		0		1	
0.157	0.038	0.01	0.925	0.009	0.075	

System: 4-butyl-4-methylmorpholinium tricyanomethanide + benzo[b]thiophene + heptane; phases: Liquid mixture 2, Liquid mixture 1
Fixed: Temperature, K = 308.15
Fixed: Pressure, kPa = 100
Property: Mole fraction of heptane (Liquid mixture 2); method: Chromatography
Property: Mole fraction of heptane (Liquid mixture 1); method: Chromatography
Property: Mole fraction of benzo[b]thiophene (Liquid mixture 1); method: Chromatography
Mole fraction of benzo[b]thiophene	Mole fraction of heptane	uncertainty	Mole fraction of heptane	uncertainty	Mole fraction of benzo[b]thiophene	uncertainty
0	0.02	0.01	1		0	
0.595	0.017	0.01	0.321	0.009	0.679	
0.629	0.017	0.01	0.262	0.009	0.738	
0.674	0.014	0.01	0.183	0.009	0.817	
0.77	0.013	0.01	0.112	0.009	0.888	
0.818	0.011	0.01	0.063	0.009	0.937	
0.874	0		0		1	
0.152	0.028	0.01	0.934	0.009	0.066	
0.265	0.027	0.01	0.848	0.009	0.152	
0.341	0.024	0.01	0.769	0.009	0.231	
0.417	0.023	0.01	0.693	0.009	0.307	
0.451	0.023	0.01	0.619	0.009	0.381	
0.512	0.019	0.01	0.544	0.009	0.456	
0.549	0.017	0.01	0.48	0.009	0.52	
0.57	0.017	0.01	0.393	0.009	0.607	

System: 4-hexyl-4-methylmorpholinium tricyanomethanide + thiophene + heptane; phases: Liquid mixture 2, Liquid mixture 1
Fixed: Temperature, K = 308.15
Fixed: Pressure, kPa = 100
Property: Mole fraction of heptane (Liquid mixture 2); method: Chromatography
Property: Mole fraction of heptane (Liquid mixture 1); method: Chromatography
Property: Mole fraction of thiophene (Liquid mixture 1); method: Chromatography
Mole fraction of thiophene	Mole fraction of heptane	uncertainty	Mole fraction of heptane	uncertainty	Mole fraction of thiophene	uncertainty
0	0.031	0.01	1		0	
0.67	0.023	0.01	0.379	0.009	0.621	
0.678	0.023	0.01	0.332	0.009	0.668	
0.692	0.024	0.01	0.28	0.009	0.72	
0.703	0.023	0.01	0.239	0.009	0.761	
0.733	0.024	0.01	0.183	0.009	0.817	
0.759	0.02	0.01	0.129	0.009	0.871	
0.781	0.016	0.01	0.103	0.009	0.897	
0.801	0.011	0.011	0.074	0.009	0.926	
0.815	0.005	0.005	0.032	0.009	0.968	
0.825	0		0		1	
0.124	0.043	0.01	0.959	0.009	0.041	
0.172	0.041	0.01	0.929	0.009	0.071	
0.221	0.035	0.01	0.881	0.009	0.119	
0.37	0.031	0.01	0.785	0.009	0.215	
0.443	0.034	0.01	0.709	0.009	0.291	
0.523	0.025	0.01	0.637	0.009	0.363	
0.569	0.025	0.01	0.55	0.009	0.45	
0.64	0.028	0.01	0.46	0.009	0.54	

System: 4-hexyl-4-methylmorpholinium tricyanomethanide + benzo[b]thiophene + heptane; phases: Liquid mixture 2, Liquid mixture 1
Fixed: Temperature, K = 308.15
Fixed: Pressure, kPa = 100
Property: Mole fraction of heptane (Liquid mixture 2); method: Chromatography
Property: Mole fraction of heptane (Liquid mixture 1); method: Chromatography
Property: Mole fraction of benzo[b]thiophene (Liquid mixture 1); method: Chromatography
Mole fraction of benzo[b]thiophene	Mole fraction of heptane	uncertainty	Mole fraction of heptane	uncertainty	Mole fraction of benzo[b]thiophene	uncertainty
0	0.031	0.01	1		0	
0.69	0.02	0.01	0.295	0.009	0.705	
0.72	0.019	0.01	0.214	0.009	0.786	
0.75	0.019	0.01	0.134	0.009	0.866	
0.804	0.01	0.01	0.074	0.009	0.926	
0.84	0.005	0.005	0.033	0.009	0.967	
0.886	0		0		1	
0.136	0.026	0.01	0.943	0.009	0.057	
0.233	0.024	0.01	0.868	0.009	0.132	
0.367	0.023	0.01	0.771	0.009	0.229	
0.457	0.022	0.01	0.684	0.009	0.316	
0.529	0.022	0.01	0.611	0.009	0.389	
0.571	0.021	0.01	0.546	0.009	0.454	
0.62	0.021	0.01	0.476	0.009	0.524	
0.671	0.02	0.01	0.384	0.009	0.616	

System: 4-butyl-4-methylmorpholinium tricyanomethanide + heptane; phases: Liquid mixture 2, Liquid mixture 1
Property: Mole fraction of heptane (Liquid mixture 2); method: Chromatography
Temperature, K	Pressure, kPa	Mole fraction of heptane	uncertainty
308.15	100	0.02	0.01

System: 4-butyl-4-methylmorpholinium tricyanomethanide + thiophene; phases: Liquid mixture 2, Liquid mixture 1
Property: Mole fraction of thiophene (Liquid mixture 2); method: Chromatography
Temperature, K	Pressure, kPa	Mole fraction of thiophene	uncertainty
308.15	100	0.789	0.01

System: 4-butyl-4-methylmorpholinium tricyanomethanide + benzo[b]thiophene; phases: Liquid mixture 2, Liquid mixture 1
Property: Mole fraction of benzo[b]thiophene (Liquid mixture 2); method: Chromatography
Temperature, K	Pressure, kPa	Mole fraction of benzo[b]thiophene	uncertainty
308.15	100	0.874	0.01

System: 4-hexyl-4-methylmorpholinium tricyanomethanide + heptane; phases: Liquid mixture 2, Liquid mixture 1
Property: Mole fraction of heptane (Liquid mixture 2); method: Chromatography
Temperature, K	Pressure, kPa	Mole fraction of heptane	uncertainty
308.15	100	0.031	0.01

System: 4-hexyl-4-methylmorpholinium tricyanomethanide + thiophene; phases: Liquid mixture 2, Liquid mixture 1
Property: Mole fraction of thiophene (Liquid mixture 2); method: Chromatography
Temperature, K	Pressure, kPa	Mole fraction of thiophene	uncertainty
308.15	100	0.825	0.01

System: 4-hexyl-4-methylmorpholinium tricyanomethanide + benzo[b]thiophene; phases: Liquid mixture 2, Liquid mixture 1
Property: Mole fraction of benzo[b]thiophene (Liquid mixture 2); method: Chromatography
Temperature, K	Pressure, kPa	Mole fraction of benzo[b]thiophene	uncertainty
308.15	100	0.886	0.01
