Measured thermophysical data. Solid-liquid equilibrium for the ternary systems (Na2CO3 + NaCl + H2O) and (Na2CO3 + Na2SO4 + H2O) at 313.15 K and atmospheric pressure
Source: J. Chem. Thermodyn., 2019, 10.1016/j.jct.2019.02.017
Compound 1: sodium carbonate, CNa2O3, InChI=1S/CH2O3.2Na/c2-1(3)4;;/h(H2,2,3,4);;/q;2*+1/p-2
Compound 2: sodium chloride, ClNa, InChI=1S/ClH.Na/h1H;/q;+1/p-1
Compound 3: water, H2O, InChI=1S/H2O/h1H2, purity 99.8%
Compound 4: sodium sulfate, Na2O4S, InChI=1S/2Na.H2O4S/c;;1-5(2,3)4/h;;(H2,1,2,3,4)/q2*+1;/p-2

System: sodium carbonate + sodium chloride + water; phases: Liquid, Crystal
Fixed: Temperature, K = 313.15
Fixed: Pressure, kPa = 88.35
Property: Mass fraction of sodium chloride (Liquid); method: Titration method
Mass fraction of sodium carbonate	Mass fraction of sodium chloride	uncertainty
0	0.2688	0.01
0.0181	0.2538	0.0105
0.0357	0.2397	0.0101
0.0534	0.2399	0.0103
0.0879	0.2091	0.0105
0.1048	0.2009	0.0103
0.1213	0.1887	0.0103
0.136	0.1815	0.0102
0.1595	0.1768	0.01
0.158	0.1704	0.0102
0.1579	0.1708	0.0102

System: sodium carbonate + sodium chloride + water; phases: Liquid, Crystal of intercomponent compound 1
Fixed: Temperature, K = 313.15
Fixed: Pressure, kPa = 88.35
Property: Mass fraction of sodium carbonate (Liquid); method: Titration method
Mass fraction of sodium chloride	Mass fraction of sodium carbonate	uncertainty
0.1704	0.158	0.0285
0.1708	0.1579	0.0275
0.1624	0.1674	0.0114
0.1603	0.1865	0.0103
0.1291	0.2028	0.0075
0.1033	0.2227	0.0098
0.0869	0.2411	0.0105
0.0683	0.2568	0.0107
0.0506	0.2773	0.012
0.0331	0.2965	0.0118
0.017	0.3147	0.0104
0	0.3282	0.0041

System: sodium carbonate + sodium chloride + water; phases: Liquid
Fixed: Temperature, K = 313.15
Fixed: Pressure, kPa = 88.35
Property: Mass density, kg/m3 (Liquid); method: Pycnometric method
Mass fraction of sodium carbonate	Mass fraction of sodium chloride	Mass density, kg/m3	uncertainty
0	0.2688	1188.2	10.1
0.0181	0.2538	1204	10.1
0.0357	0.2397	1215.1	10.1
0.0534	0.2399	1229.6	10.1
0.0879	0.2091	1248.3	10.1
0.1048	0.2009	1265.7	10.1
0.1213	0.1887	1268.2	10.1
0.136	0.1815	1281.6	10.1
0.1595	0.1768	1283.1	10.1
0.158	0.1704	1294	10.1
0.1579	0.1708	1292.9	10.1
0.1674	0.1624	1294.7	10.1
0.1865	0.1603	1302.5	10.1
0.2028	0.1291	1309.1	10.1
0.2227	0.1033	1311.7	10.1
0.2411	0.0869	1314.4	10.1
0.2568	0.0683	1324.9	10.1
0.2773	0.0506	1330.6	10.1
0.2965	0.0331	1338.3	10.1
0.3147	0.017	1343.7	10.1
0.3282	0	1345.3	10

System: sodium carbonate + sodium chloride + water; phases: Liquid
Fixed: Temperature, K = 313.15
Fixed: Pressure, kPa = 88.35
Property: Viscosity, Pa*s (Liquid); method: Capillary tube (Ostwald; Ubbelohde) method
Mass fraction of sodium carbonate	Mass fraction of sodium chloride	Viscosity, Pa*s	uncertainty
0	0.2688	0.0012502	0.0002501
0.0181	0.2538	0.0014059	0.0002813
0.0357	0.2397	0.001536	0.0003073
0.0534	0.2399	0.0016755	0.0003352
0.0879	0.2091	0.0020417	0.0004085
0.1048	0.2009	0.0022519	0.0004506
0.1213	0.1887	0.0025381	0.0005078
0.136	0.1815	0.0027815	0.0005565
0.1595	0.1768	0.0032607	0.0006524
0.158	0.1704	0.0031885	0.000638
0.1579	0.1708	0.0031348	0.0006272
0.1674	0.1624	0.0032746	0.0006552
0.1865	0.1603	0.0035171	0.0007037
0.2028	0.1291	0.003933	0.0007869
0.2227	0.1033	0.0041518	0.0008307
0.2411	0.0869	0.0045218	0.0009047
0.2568	0.0683	0.0050416	0.0010088
0.2773	0.0506	0.0053739	0.0010752
0.2965	0.0331	0.0063434	0.0012692
0.3147	0.017	0.0068908	0.0013787
0.3282	0	0.0074118	0.001483

System: sodium carbonate + sodium chloride + water; phases: Liquid
Fixed: Temperature, K = 313.15
Fixed: Pressure, kPa = 88.35
Property: Refractive index (Na D-line) (Liquid); method: Standard Abbe refractometry
Mass fraction of sodium carbonate	Mass fraction of sodium chloride	Refractive index (Na D-line)	uncertainty
0	0.2688	1.3779	0.004
0.0181	0.2538	1.3805	0.004
0.0357	0.2397	1.3815	0.004
0.0534	0.2399	1.3823	0.004
0.0879	0.2091	1.3864	0.004
0.1048	0.2009	1.3877	0.004
0.1213	0.1887	1.3891	0.004
0.136	0.1815	1.3908	0.004
0.1595	0.1768	1.3925	0.004
0.158	0.1704	1.3927	0.004
0.1579	0.1708	1.3926	0.004
0.1674	0.1624	1.3929	0.004
0.1865	0.1603	1.3932	0.004
0.2028	0.1291	1.3938	0.004
0.2227	0.1033	1.3943	0.004
0.2411	0.0869	1.3948	0.004
0.2568	0.0683	1.3955	0.004
0.2773	0.0506	1.3956	0.004
0.2965	0.0331	1.397	0.004
0.3147	0.017	1.398	0.004
0.3282	0	1.3979	0.004

System: sodium carbonate + sodium sulfate + water; phases: Liquid, Crystal
Fixed: Temperature, K = 313.15
Fixed: Pressure, kPa = 88.35
Property: Mass fraction of sodium sulfate (Liquid); method: Titration method
Mass fraction of sodium carbonate	Mass fraction of sodium sulfate	uncertainty
0	0.3295	0.02
0.0172	0.3142	0.0202
0.0344	0.3041	0.0203
0.0512	0.2843	0.0209
0.0684	0.2532	0.0206
0.0999	0.2205	0.0204
0.1176	0.2071	0.0202

System: sodium carbonate + sodium sulfate + water; phases: Liquid, Crystal of intercomponent compound 2
Fixed: Temperature, K = 313.15
Fixed: Pressure, kPa = 88.35
Property: Mass fraction of sodium carbonate (Liquid); method: Titration method
Mass fraction of sodium sulfate	Mass fraction of sodium carbonate	uncertainty
0.2071	0.1176	0.0398
0.1743	0.1825	0.0307
0.1402	0.2195	0.02
0.113	0.2423	0.019
0.0905	0.2658	0.02
0.055	0.2994	0.0194

System: sodium carbonate + sodium sulfate + water; phases: Liquid, Crystal of intercomponent compound 1
Fixed: Temperature, K = 313.15
Fixed: Pressure, kPa = 88.35
Property: Mass fraction of sodium carbonate (Liquid); method: Titration method
Mass fraction of sodium sulfate	Mass fraction of sodium carbonate	uncertainty
0.055	0.2994	0.0041
0.0331	0.3073	0.0041
0.0168	0.3177	0.0041
0	0.3282	0.0041

System: sodium carbonate + sodium sulfate + water; phases: Liquid
Fixed: Temperature, K = 313.15
Fixed: Pressure, kPa = 88.35
Property: Mass density, kg/m3 (Liquid); method: Pycnometric method
Mass fraction of sodium carbonate	Mass fraction of sodium sulfate	Mass density, kg/m3	uncertainty
0	0.3295	1317	10.4
0.0172	0.3142	1319.3	10.4
0.0344	0.3041	1326.6	10.4
0.0512	0.2843	1323.2	10.4
0.0684	0.2532	1333.2	10.4
0.0999	0.2205	1344.7	10.4
0.1176	0.2071	1344.9	10.4
0.1825	0.1743	1344.8	10.4
0.2195	0.1402	1346.6	10.4
0.2423	0.113	1353.2	10.4
0.2658	0.0905	1359.2	10.4
0.2994	0.055	1380.6	10.4
0.3073	0.0331	1367.5	10.4
0.3177	0.0168	1362.4	10.3
0.3282	0	1345.3	10

System: sodium carbonate + sodium sulfate + water; phases: Liquid
Fixed: Temperature, K = 313.15
Fixed: Pressure, kPa = 88.35
Property: Refractive index (Na D-line) (Liquid); method: Standard Abbe refractometry
Mass fraction of sodium carbonate	Mass fraction of sodium sulfate	Refractive index (Na D-line)	uncertainty
0	0.3295	1.3772	0.004
0.0172	0.3142	1.378	0.004
0.0344	0.3041	1.3802	0.004
0.0512	0.2843	1.3811	0.004
0.0684	0.2532	1.3836	0.004
0.0999	0.2205	1.3848	0.004
0.1176	0.2071	1.3967	0.004
0.1825	0.1743	1.3908	0.004
0.2195	0.1402	1.3913	0.004
0.2423	0.113	1.394	0.004
0.2658	0.0905	1.395	0.004
0.2994	0.055	1.3983	0.004
0.3073	0.0331	1.3992	0.004
0.3177	0.0168	1.3976	0.004
0.3282	0	1.3979	0.004

System: sodium carbonate + sodium sulfate + water; phases: Liquid
Fixed: Temperature, K = 313.15
Fixed: Pressure, kPa = 88.35
Property: Viscosity, Pa*s (Liquid); method: Capillary tube (Ostwald; Ubbelohde) method
Mass fraction of sodium carbonate	Mass fraction of sodium sulfate	Viscosity, Pa*s	uncertainty
0	0.3295	0.0025874	0.0005177
0.0172	0.3142	0.0026735	0.0005349
0.0344	0.3041	0.0029714	0.0005945
0.0512	0.2843	0.0031014	0.0006206
0.0684	0.2532	0.0033304	0.0006664
0.0999	0.2205	0.0037544	0.0007512
0.1176	0.2071	0.0039969	0.0007997
0.1825	0.1743	0.0048617	0.0009728
0.2195	0.1402	0.0050903	0.0010185
0.2423	0.113	0.0055519	0.0011109
0.2658	0.0905	0.0065594	0.0013124
0.2994	0.055	0.0080914	0.001619
0.3073	0.0331	0.0074813	0.0014969
0.3177	0.0168	0.0078444	0.0015696
0.3282	0	0.0074118	0.001483

System: sodium chloride + water; phases: Liquid, Crystal
Property: Mass fraction of sodium chloride (Liquid); method: Titration method
Temperature, K	Pressure, kPa	Mass fraction of sodium chloride	uncertainty
313.15	88.35	0.2688	0.01

System: sodium chloride + water; phases: Liquid
Property: Mass density, kg/m3 (Liquid); method: Pycnometric method
Mass fraction of sodium chloride	Temperature, K	Pressure, kPa	Mass density, kg/m3	uncertainty
0.2688	313.15	88.35	1188.2	10.1

System: sodium chloride + water; phases: Liquid
Property: Viscosity, Pa*s (Liquid); method: Capillary tube (Ostwald; Ubbelohde) method
Mass fraction of sodium chloride	Temperature, K	Pressure, kPa	Viscosity, Pa*s	uncertainty
0.2688	313.15	88.35	0.0012502	0.0002501

System: sodium chloride + water; phases: Liquid
Property: Refractive index (Na D-line) (Liquid); method: Standard Abbe refractometry
Mass fraction of sodium chloride	Temperature, K	Pressure, kPa	Refractive index (Na D-line)	uncertainty
0.2688	313.15	88.35	1.3779	0.004

System: sodium carbonate + water; phases: Liquid, Crystal of intercomponent compound 1
Property: Mass fraction of sodium carbonate (Liquid); method: Titration method
Temperature, K	Pressure, kPa	Mass fraction of sodium carbonate	uncertainty
313.15	88.35	0.3282	0.0041

System: sodium carbonate + water; phases: Liquid
Property: Mass density, kg/m3 (Liquid); method: Pycnometric method
Mass fraction of sodium carbonate	Temperature, K	Pressure, kPa	Mass density, kg/m3	uncertainty
0.3282	313.15	88.35	1345.3	10

System: sodium carbonate + water; phases: Liquid
Property: Viscosity, Pa*s (Liquid); method: Capillary tube (Ostwald; Ubbelohde) method
Mass fraction of sodium carbonate	Temperature, K	Pressure, kPa	Viscosity, Pa*s	uncertainty
0.3282	313.15	88.35	0.0074118	0.001483

System: sodium carbonate + water; phases: Liquid
Property: Refractive index (Na D-line) (Liquid); method: Standard Abbe refractometry
Mass fraction of sodium carbonate	Temperature, K	Pressure, kPa	Refractive index (Na D-line)	uncertainty
0.3282	313.15	88.35	1.3979	0.004

System: sodium sulfate + water; phases: Liquid, Crystal
Property: Mass fraction of sodium sulfate (Liquid); method: Titration method
Temperature, K	Pressure, kPa	Mass fraction of sodium sulfate	uncertainty
313.15	88.35	0.3295	0.02

System: sodium sulfate + water; phases: Liquid
Property: Mass density, kg/m3 (Liquid); method: Pycnometric method
Mass fraction of sodium sulfate	Temperature, K	Pressure, kPa	Mass density, kg/m3	uncertainty
0.3295	313.15	88.35	1317	10.4

System: sodium sulfate + water; phases: Liquid
Property: Refractive index (Na D-line) (Liquid); method: Standard Abbe refractometry
Mass fraction of sodium sulfate	Temperature, K	Pressure, kPa	Refractive index (Na D-line)	uncertainty
0.3295	313.15	88.35	1.3772	0.004

System: sodium sulfate + water; phases: Liquid
Property: Viscosity, Pa*s (Liquid); method: Capillary tube (Ostwald; Ubbelohde) method
Mass fraction of sodium sulfate	Temperature, K	Pressure, kPa	Viscosity, Pa*s	uncertainty
0.3295	313.15	88.35	0.0025874	0.0005177
