Measured thermophysical data. Thermodynamic and transport properties of (1-Butanol + 1,4-Butanediol) at temperatures from (298.15 to 318.15) K
Source: J. Chem. Thermodyn., 2010, 10.1016/j.jct.2009.09.013
Compound 1: butan-1-ol, C4H10O, InChI=1S/C4H10O/c1-2-3-4-5/h5H,2-4H2,1H3
Compound 2: 1,4-butanediol, C4H10O2, InChI=1S/C4H10O2/c5-3-1-2-4-6/h5-6H,1-4H2

System: butan-1-ol + 1,4-butanediol; phases: Liquid
Fixed: Pressure, kPa = 101
Property: Kinematic viscosity, m2/s (Liquid); method: Vibrating wire viscometry
Temperature, K	Mole fraction of 1,4-butanediol	Kinematic viscosity, m2/s	uncertainty
298.014	1	6.987e-05	1.516e-06
298.02	0	3.238e-06	6.7e-08
298.063	0.4592	1.5627e-05	3.33e-07
298.07	0.9374	5.9952e-05	1.28e-06
298.075	0.1507	5.436e-06	1.17e-07
298.08	0.5676	2.182e-05	4.65e-07
298.09	0.7435	3.6178e-05	7.73e-07
298.102	0.6576	2.8408e-05	6.06e-07
298.102	0.8108	4.3358e-05	9.3e-07
298.141	0.2986	9.219e-06	1.98e-07
302.466	0	2.897e-06	6e-08
302.506	1	5.6286e-05	1.193e-06
302.992	0.9374	4.7647e-05	1.025e-06
303.004	0.6576	2.3266e-05	4.96e-07
303.006	0.5676	1.8009e-05	3.83e-07
303.007	0.8108	3.4906e-05	7.49e-07
303.008	0.1507	4.675e-06	1e-07
303.008	0.7435	2.9297e-05	6.26e-07
303.035	0.4592	1.3022e-05	2.76e-07
303.063	0.2986	7.83e-06	1.66e-07
307.996	0	2.534e-06	5.3e-08
308.057	1	4.3743e-05	9.37e-07
308.156	0.9374	3.7859e-05	8.13e-07
308.166	0.6576	1.8968e-05	4.06e-07
308.18	0.4592	1.0864e-05	2.3e-07
308.194	0.8108	2.804e-05	6e-07
308.223	0.2986	6.631e-06	1.4e-07
308.224	0.1507	3.961e-06	8.4e-08
308.232	0.5676	1.4811e-05	3.15e-07
308.238	0.7435	2.3697e-05	5.06e-07
312.965	0	2.25e-06	4.7e-08
313.12	1	3.513e-05	7.5e-07
313.188	0.9374	3.0631e-05	6.56e-07
313.196	0.6757	1.5698e-05	3.34e-07
313.214	0.5676	1.2403e-05	2.62e-07
313.226	0.7435	1.9525e-05	4.16e-07
313.231	0.4592	9.156e-06	1.94e-07
313.233	0.8108	2.2937e-05	4.9e-07
313.264	0.1507	3.361e-06	7.2e-08
313.292	0.2986	5.654e-06	1.2e-07
318.555	0.8108	1.8688e-05	3.99e-07
318.607	0	1.992e-06	4.2e-08
318.72	1	2.7915e-05	5.99e-07
318.728	0.9374	2.4511e-05	5.26e-07
318.738	0.6575	1.2874e-05	2.72e-07
318.745	0.5676	1.0279e-05	2.18e-07
318.749	0.7435	1.5857e-05	3.38e-07
318.758	0.4592	7.654e-06	1.61e-07
318.796	0.1507	2.786e-06	5.9e-08
318.814	0.2986	4.759e-06	1.01e-07

System: butan-1-ol + 1,4-butanediol; phases: Liquid
Fixed: Pressure, kPa = 101
Property: Speed of sound, m/s (Liquid); method: Sing-around technique in a fixed-path interferometer
Temperature, K	Mole fraction of 1,4-butanediol	Speed of sound, m/s	uncertainty
293.017	1	1614.9	2.35
293.026	0.7946	1537.81	2.33
293.03	0	1257.02	2.14
293.051	0.92345	1586.42	2.36
293.053	0.6478	1482.13	2.29
293.055	0.3571	1375.06	2.23
293.059	0.4979	1425.96	2.26
293.067	0.2	1321.01	2.2
293.077	0.051	1272.74	2.18
298.056	1	1602.61	2.35
298.069	0	1239.68	2.14
298.081	0.6478	1468.29	2.29
298.081	0.7946	1524.66	2.33
298.085	0.2	1304.79	2.2
298.089	0.3571	1359.69	2.23
298.095	0.92345	1573.86	2.36
298.096	0.051	1255.68	2.17
298.098	0.4979	1411.32	2.26
303.304	1	1590.06	2.34
303.354	0	1221.64	2.14
303.36	0.7946	1511.03	2.33
303.36	0.92345	1560.97	2.36
303.361	0.4979	1396.12	2.26
303.364	0.2	1287.84	2.2
303.366	0.051	1237.96	2.17
303.373	0.3571	1343.65	2.23
303.39	0.6478	1453.8	2.29
308.316	1	1578.31	2.34
308.325	0.7946	1498.38	2.33
308.326	0.051	1221.46	2.17
308.332	0.92345	1548.92	2.36
308.34	0	1204.85	2.14
308.349	0.4979	1381.86	2.26
308.351	0.3571	1328.69	2.23
308.358	0.2	1271.95	2.2
308.377	0.6478	1440.35	2.29
313.324	0.051	1204.91	2.17
313.327	0.7946	1485.69	2.33
313.353	1	1566.46	2.34
313.362	0.3571	1313.75	2.23
313.363	0.92345	1536.82	2.36
313.366	0.4979	1367.62	2.26
313.37	0	1188	2.14
313.371	0.2	1256.2	2.2
313.393	0.6478	1426.9	2.29
318.287	0.051	1188.525	2.172
318.304	0.7946	1473.14	2.33
318.347	0.3571	1299.1	2.23
318.348	0.4979	1353.54	2.26
318.351	1	1554.85	2.34
318.356	0.92345	1524.95	2.36
318.368	0	1171.4	2.14
318.376	0.2	1240.57	2.2
318.378	0.6478	1413.62	2.29

System: butan-1-ol + 1,4-butanediol; phases: Liquid
Fixed: Pressure, kPa = 101
Property: Mass density, kg/m3 (Liquid); method: Vibrating tube method
Temperature, K	Mole fraction of 1,4-butanediol	Mass density, kg/m3	uncertainty
298.15	0	805.77	0.162
298.15	0.1507	837.834	0.268
298.15	0.2986	869.164	0.269
298.15	0.4592	902.986	0.272
298.15	0.5676	925.394	0.274
298.15	0.6576	943.952	0.278
298.15	0.7435	961.447	0.282
298.15	0.8108	974.991	0.286
298.15	0.9374	1000.235	0.298
298.15	1	1012.716	0.24
303.15	0	801.928	0.163
303.15	0.1507	834.13	0.269
303.15	0.2986	865.589	0.27
303.15	0.4592	899.553	0.273
303.15	0.5676	922.055	0.275
303.15	0.6576	940.685	0.279
303.15	0.7435	958.245	0.283
303.15	0.8108	971.848	0.286
303.15	0.9374	997.175	0.299
303.15	1	1009.693	0.238
308.15	0	798.054	0.164
308.15	0.1507	830.397	0.27
308.15	0.2986	861.995	0.271
308.15	0.4592	896.107	0.274
308.15	0.5676	918.702	0.276
308.15	0.6576	937.408	0.28
308.15	0.7435	955.036	0.284
308.15	0.8108	968.692	0.287
308.15	0.9374	994.107	0.299
308.15	1	1006.665	0.236
313.15	0	794.146	0.165
313.15	0.1507	826.639	0.271
313.15	0.2986	858.379	0.272
313.15	0.4592	892.64	0.275
313.15	0.5676	915.331	0.277
313.15	0.6576	934.116	0.28
313.15	0.7435	951.814	0.284
313.15	0.8108	965.521	0.288
313.15	0.9374	991.027	0.3
313.15	1	1003.628	0.234
318.15	0	790.196	0.166
318.15	0.1507	822.854	0.273
318.15	0.2986	854.74	0.273
318.15	0.4592	889.157	0.276
318.15	0.5676	911.95	0.278
318.15	0.6576	930.812	0.281
318.15	0.7435	948.578	0.285
318.15	0.8108	962.345	0.288
318.15	0.9374	987.943	0.3
318.15	1	1000.579	0.232

System: butan-1-ol + 1,4-butanediol; phases: Liquid
Fixed: Pressure, kPa = 101
Property: Excess molar volume, m3/mol (Liquid); method: Calculated with densities of this investigation
Temperature, K	Mole fraction of 1,4-butanediol	Excess molar volume, m3/mol	uncertainty
298.15	0.1507	-1.907e-07	8.2e-09
298.15	0.2986	-3.173e-07	8.5e-09
298.15	0.4592	-3.901e-07	8.8e-09
298.15	0.5676	-3.755e-07	8.7e-09
298.15	0.6576	-3.478e-07	8.6e-09
298.15	0.7435	-2.924e-07	8.5e-09
298.15	0.8108	-2.289e-07	8.4e-09
298.15	0.9374	-7.87e-08	8e-09
303.15	0.1507	-1.995e-07	8.3e-09
303.15	0.2986	-3.31e-07	8.5e-09
303.15	0.4592	-4.065e-07	8.9e-09
303.15	0.5676	-3.917e-07	8.8e-09
303.15	0.6576	-3.625e-07	8.7e-09
303.15	0.7435	-3.045e-07	8.5e-09
303.15	0.8108	-2.395e-07	8.4e-09
303.15	0.9374	-8.26e-08	8e-09
308.15	0.1507	-2.086e-07	8.3e-09
308.15	0.2986	-3.459e-07	8.6e-09
308.15	0.4592	-4.242e-07	9e-09
308.15	0.5676	-4.088e-07	8.9e-09
308.15	0.6576	-3.781e-07	8.7e-09
308.15	0.7435	-3.176e-07	8.5e-09
308.15	0.8108	-2.501e-07	8.4e-09
308.15	0.9374	-8.65e-08	8.1e-09
313.15	0.1507	-2.186e-07	8.3e-09
313.15	0.2986	-3.617e-07	8.7e-09
313.15	0.4592	-4.426e-07	9.2e-09
313.15	0.5676	-4.266e-07	9e-09
313.15	0.6576	-3.945e-07	8.9e-09
313.15	0.7435	-3.314e-07	8.6e-09
313.15	0.8108	-2.609e-07	8.4e-09
313.15	0.9374	-9.05e-08	8.1e-09
318.15	0.1507	-2.302e-07	8.3e-09
318.15	0.2986	-3.794e-07	8.8e-09
318.15	0.4592	-4.631e-07	9.3e-09
318.15	0.5676	-4.467e-07	9.2e-09
318.15	0.6576	-4.126e-07	9e-09
318.15	0.7435	-3.462e-07	8.6e-09
318.15	0.8108	-2.733e-07	8.5e-09
318.15	0.9374	-9.55e-08	8.1e-09
