Measured thermophysical data. Viscosity, density, and speed of sound of methylcyclopentane with primary and secondary alcohols at T = (293.15, 298.15, and 303.15) K
Source: J. Chem. Thermodyn., 2006, 10.1016/j.jct.2005.12.010
Compound 1: ethanol, C2H6O, InChI=1S/C2H6O/c1-2-3/h3H,2H2,1H3
Compound 2: butan-1-ol, C4H10O, InChI=1S/C4H10O/c1-2-3-4-5/h5H,2-4H2,1H3
Compound 3: propan-1-ol, C3H8O, InChI=1S/C3H8O/c1-2-3-4/h4H,2-3H2,1H3
Compound 4: pentan-2-ol, C5H12O, InChI=1S/C5H12O/c1-3-4-5(2)6/h5-6H,3-4H2,1-2H3
Compound 5: methylcyclopentane, C6H12, InChI=1S/C6H12/c1-6-4-2-3-5-6/h6H,2-5H2,1H3
Compound 6: butan-2-ol, C4H10O, InChI=1S/C4H10O/c1-3-4(2)5/h4-5H,3H2,1-2H3
Compound 7: propan-2-ol, C3H8O, InChI=1S/C3H8O/c1-3(2)4/h3-4H,1-2H3

System: ethanol; phases: Liquid
Fixed: Pressure, kPa = 101
Property: Viscosity, Pa*s (Liquid); method: CAPTUB:UFactor:8
Temperature, K	Viscosity, Pa*s	uncertainty
293.15	0.001187	5.7e-05
298.15	0.001082	5.3e-05
303.15	0.000987	4.9e-05

System: ethanol; phases: Liquid
Fixed: Pressure, kPa = 101
Property: Speed of sound, m/s (Liquid); method: FPINT:UFactor:2
Temperature, K	Speed of sound, m/s	uncertainty
293.15	1162	1
298.15	1145	1
303.15	1128	1

System: ethanol; phases: Liquid
Fixed: Pressure, kPa = 101
Property: Mass density, kg/m3 (Liquid); method: VIBTUB:UFactor:8
Temperature, K	Mass density, kg/m3	uncertainty
293.15	789.75	0.91
298.15	785.46	0.92
303.15	781.15	0.94

System: butan-1-ol; phases: Liquid
Fixed: Pressure, kPa = 101
Property: Viscosity, Pa*s (Liquid); method: CAPTUB:UFactor:8
Temperature, K	Viscosity, Pa*s	uncertainty
293.15	0.002941	0.000132
298.15	0.002571	0.000116
303.15	0.002255	0.000103

System: butan-1-ol; phases: Liquid
Fixed: Pressure, kPa = 101
Property: Speed of sound, m/s (Liquid); method: FPINT:UFactor:2
Temperature, K	Speed of sound, m/s	uncertainty
293.15	1257	1
298.15	1240	1
303.15	1224	1

System: butan-1-ol; phases: Liquid
Fixed: Pressure, kPa = 101
Property: Mass density, kg/m3 (Liquid); method: VIBTUB:UFactor:8
Temperature, K	Mass density, kg/m3	uncertainty
293.15	809.5	0.85
298.15	805.75	0.86
303.15	801.8	0.87

System: propan-1-ol; phases: Liquid
Fixed: Pressure, kPa = 101
Property: Viscosity, Pa*s (Liquid); method: CAPTUB:UFactor:8
Temperature, K	Viscosity, Pa*s	uncertainty
293.15	0.002159	9.9e-05
298.15	0.001915	8.9e-05
303.15	0.001713	8e-05

System: propan-1-ol; phases: Liquid
Fixed: Pressure, kPa = 101
Property: Speed of sound, m/s (Liquid); method: FPINT:UFactor:2
Temperature, K	Speed of sound, m/s	uncertainty
293.15	1223	2
298.15	1206	2
303.15	1189	2

System: propan-1-ol; phases: Liquid
Fixed: Pressure, kPa = 101
Property: Mass density, kg/m3 (Liquid); method: VIBTUB:UFactor:8
Temperature, K	Mass density, kg/m3	uncertainty
293.15	803.59	0.95
298.15	799.58	0.96
303.15	795.55	0.97

System: pentan-2-ol; phases: Liquid
Fixed: Pressure, kPa = 101
Property: Viscosity, Pa*s (Liquid); method: CAPTUB:UFactor:8
Temperature, K	Viscosity, Pa*s	uncertainty
293.15	0.004001	0.000177
298.15	0.003273	0.000146
303.15	0.002774	0.000125

System: pentan-2-ol; phases: Liquid
Fixed: Pressure, kPa = 101
Property: Speed of sound, m/s (Liquid); method: FPINT:UFactor:2
Temperature, K	Speed of sound, m/s	uncertainty
293.15	1250	2
298.15	1232	2
303.15	1214	2

System: pentan-2-ol; phases: Liquid
Fixed: Pressure, kPa = 101
Property: Mass density, kg/m3 (Liquid); method: VIBTUB:UFactor:8
Temperature, K	Mass density, kg/m3	uncertainty
293.15	809.04	0.94
298.15	805.01	0.95
303.15	800.9	0.96

System: methylcyclopentane; phases: Liquid
Fixed: Pressure, kPa = 101
Property: Viscosity, Pa*s (Liquid); method: CAPTUB:UFactor:8
Temperature, K	Viscosity, Pa*s	uncertainty
293.15	0.000504	3.1e-05
298.15	0.000476	2.9e-05
303.15	0.00045	2.8e-05

System: methylcyclopentane; phases: Liquid
Fixed: Pressure, kPa = 101
Property: Speed of sound, m/s (Liquid); method: FPINT:UFactor:2
Temperature, K	Speed of sound, m/s	uncertainty
293.15	1197	5
298.15	1174	5
303.15	1150	5

System: methylcyclopentane; phases: Liquid
Fixed: Pressure, kPa = 101
Property: Mass density, kg/m3 (Liquid); method: VIBTUB:UFactor:8
Temperature, K	Mass density, kg/m3	uncertainty
293.15	746.64	2.22
298.15	741.94	2.22
298.15	741.9	2.2
303.15	737.21	2.22

System: butan-2-ol; phases: Liquid
Fixed: Pressure, kPa = 101
Property: Viscosity, Pa*s (Liquid); method: CAPTUB:UFactor:8
Temperature, K	Viscosity, Pa*s	uncertainty
293.15	0.003623	0.00016
298.15	0.002995	0.000134
303.15	0.002493	0.000113

System: butan-2-ol; phases: Liquid
Fixed: Pressure, kPa = 101
Property: Speed of sound, m/s (Liquid); method: FPINT:UFactor:2
Temperature, K	Speed of sound, m/s	uncertainty
293.15	1230	1
298.15	1212	1
303.15	1194	1

System: butan-2-ol; phases: Liquid
Fixed: Pressure, kPa = 101
Property: Mass density, kg/m3 (Liquid); method: VIBTUB:UFactor:8
Temperature, K	Mass density, kg/m3	uncertainty
293.15	806.84	0.88
298.15	802.72	0.89
303.15	798.51	0.9

System: propan-2-ol; phases: Liquid
Fixed: Pressure, kPa = 101
Property: Viscosity, Pa*s (Liquid); method: CAPTUB:UFactor:8
Temperature, K	Viscosity, Pa*s	uncertainty
293.15	0.002382	0.000108
298.15	0.002045	9.4e-05
303.15	0.001763	8.2e-05

System: propan-2-ol; phases: Liquid
Fixed: Pressure, kPa = 101
Property: Speed of sound, m/s (Liquid); method: FPINT:UFactor:8
Temperature, K	Speed of sound, m/s	uncertainty
293.15	1156	5
298.15	1139	5
303.15	1121	5

System: propan-2-ol; phases: Liquid
Fixed: Pressure, kPa = 101
Property: Mass density, kg/m3 (Liquid); method: VIBTUB:UFactor:8
Temperature, K	Mass density, kg/m3	uncertainty
293.15	785.07	0.92
298.15	780.9	0.9
303.15	776.6	0.95

System: ethanol + methylcyclopentane; phases: Liquid
Fixed: Pressure, kPa = 101
Property: Viscosity, Pa*s (Liquid); method: CAPTUB:UFactor:8
Mass fraction of methylcyclopentane	Temperature, K	Viscosity, Pa*s	uncertainty
0	293.15	0.001187	5.7e-05
0	298.15	0.001082	5.3e-05
0	303.15	0.000987	4.9e-05
0.05	293.15	0.001103	5.4e-05
0.05	298.15	0.001014	5e-05
0.05	303.15	0.00092	4.6e-05
0.0992	293.15	0.001034	5.1e-05
0.0992	298.15	0.000944	4.7e-05
0.0992	303.15	0.000871	4.4e-05
0.1999	293.15	0.000898	4.5e-05
0.1999	298.15	0.000823	4.2e-05
0.1999	303.15	0.000757	3.9e-05
0.2967	293.15	0.00081	4.2e-05
0.2967	298.15	0.000745	3.9e-05
0.2967	303.15	0.000685	3.6e-05
0.4001	293.15	0.000735	3.9e-05
0.4001	298.15	0.000677	3.6e-05
0.4001	303.15	0.000625	3.4e-05
0.5035	293.15	0.000669	3.6e-05
0.5035	298.15	0.000618	3.4e-05
0.5035	303.15	0.000573	3.2e-05
0.6008	293.15	0.000601	3.3e-05
0.6008	298.15	0.000559	3.2e-05
0.6008	303.15	0.000522	3e-05
0.7044	293.15	0.000555	3.2e-05
0.7044	298.15	0.000519	3e-05
0.7044	303.15	0.000485	2.9e-05
0.8132	293.15	0.000521	3.1e-05
0.8132	298.15	0.00049	2.9e-05
0.8132	303.15	0.00046	2.8e-05
0.9092	293.15	0.000505	3e-05
0.9092	298.15	0.000477	2.9e-05
0.9092	303.15	0.000447	2.8e-05
0.9534	293.15	0.000503	3e-05
0.9534	298.15	0.000473	2.9e-05
0.9534	303.15	0.000447	2.8e-05
1	293.15	0.000504	3.1e-05
1	298.15	0.000476	2.9e-05
1	303.15	0.00045	2.8e-05

System: ethanol + methylcyclopentane; phases: Liquid
Fixed: Pressure, kPa = 101
Property: Speed of sound, m/s (Liquid); method: FPINT:UFactor:2
Mole fraction of methylcyclopentane	Temperature, K	Speed of sound, m/s	uncertainty
0	293.15	1162	1
0	298.15	1145	1
0	303.15	1128	1
0.0475	293.15	1156	1
0.0475	298.15	1138	1
0.0475	303.15	1121	1
0.0967	293.15	1153	1
0.0967	298.15	1135	1
0.0967	303.15	1117	1
0.2055	293.15	1149	2
0.2055	298.15	1130	2
0.2055	303.15	1111	2
0.2984	293.15	1150	2
0.2984	298.15	1130	2
0.2984	303.15	1110	2
0.4014	293.15	1153	3
0.4014	298.15	1132	2
0.4014	303.15	1111	2
0.5007	293.15	1158	3
0.5007	298.15	1136	3
0.5007	303.15	1114	3
0.6133	293.15	1163	3
0.6133	298.15	1141	3
0.6133	303.15	1118	3
0.7115	293.15	1168	4
0.7115	298.15	1146	4
0.7115	303.15	1123	4
0.8124	293.15	1175	4
0.8124	298.15	1152	4
0.8124	303.15	1129	4
0.9073	293.15	1183	5
0.9073	298.15	1159	5
0.9073	303.15	1136	5
0.9529	293.15	1188	5
0.9529	298.15	1164	5
0.9529	303.15	1141	5
1	293.15	1197	5
1	298.15	1174	5
1	303.15	1150	5

System: ethanol + methylcyclopentane; phases: Liquid
Fixed: Pressure, kPa = 101
Property: Mass density, kg/m3 (Liquid); method: VIBTUB:UFactor:8
Temperature, K	Mole fraction of methylcyclopentane	Mass density, kg/m3	uncertainty
293.15	0	789.75	0.91
293.15	0.0475	784.54	0.94
293.15	0.0967	780	0.97
293.15	0.2055	771.61	1.07
293.15	0.2984	766.18	1.17
293.15	0.4014	761.37	1.29
293.15	0.5007	757.5	1.43
293.15	0.6133	753.79	1.59
293.15	0.7115	751.2	1.74
293.15	0.8124	748.98	1.91
293.15	0.9073	747.36	2.06
293.15	0.9529	746.95	2.14
293.15	1	746.64	2.22
298.15	0	785.46	0.92
298.15	0.0475	780.2	0.95
298.15	0.0967	775.6	0.99
298.15	0.2055	767.12	1.08
298.15	0.2984	761.61	1.18
298.15	0.4014	756.73	1.3
298.15	0.5007	752.79	1.43
298.15	0.6133	749.03	1.6
298.15	0.7115	746.42	1.74
298.15	0.8124	744.19	1.91
298.15	0.9073	742.58	2.06
298.15	0.9529	742.17	2.14
298.15	1	741.94	2.22
303.15	0	781.15	0.94
303.15	0.0475	775.84	0.96
303.15	0.0967	771.3	1
303.15	0.2055	762.58	1.09
303.15	0.2984	756.99	1.19
303.15	0.4014	752.03	1.31
303.15	0.5007	748.03	1.44
303.15	0.6133	744.21	1.6
303.15	0.7115	741.58	1.75
303.15	0.8124	739.34	1.9
303.15	0.9073	737.75	2.06
303.15	0.9529	737.35	2.14
303.15	1	737.21	2.22

System: propan-1-ol + methylcyclopentane; phases: Liquid
Fixed: Pressure, kPa = 101
Property: Viscosity, Pa*s (Liquid); method: CAPTUB:UFactor:8
Mass fraction of methylcyclopentane	Temperature, K	Viscosity, Pa*s	uncertainty
0	293.15	0.002159	9.9e-05
0	298.15	0.001915	8.9e-05
0	303.15	0.001713	8e-05
0.05	293.15	0.001973	9.2e-05
0.05	298.15	0.001754	8.2e-05
0.05	303.15	0.001564	7.4e-05
0.0992	293.15	0.001852	8.7e-05
0.0992	298.15	0.001654	7.8e-05
0.0992	303.15	0.001479	7.1e-05
0.1999	293.15	0.001531	7.3e-05
0.1999	298.15	0.001371	6.6e-05
0.1999	303.15	0.001233	6e-05
0.2967	293.15	0.00128	6.3e-05
0.2967	298.15	0.001152	5.7e-05
0.2967	303.15	0.001041	5.2e-05
0.4001	293.15	0.00107	5.4e-05
0.4001	298.15	0.000965	4.9e-05
0.4001	303.15	0.000882	4.6e-05
0.5035	293.15	0.000893	4.7e-05
0.5035	298.15	0.000814	4.3e-05
0.5035	303.15	0.000746	4e-05
0.6008	293.15	0.000734	4e-05
0.6008	298.15	0.000676	3.7e-05
0.6008	303.15	0.000624	3.5e-05
0.7044	293.15	0.00063	3.6e-05
0.7044	298.15	0.000586	3.3e-05
0.7044	303.15	0.000546	3.2e-05
0.8132	293.15	0.000558	3.3e-05
0.8132	298.15	0.000534	3.1e-05
0.8132	303.15	0.0005	3e-05
0.9092	293.15	0.000521	3.1e-05
0.9092	298.15	0.00049	3e-05
0.9092	303.15	0.000461	2.8e-05
0.9534	293.15	0.000506	3.1e-05
0.9534	298.15	0.000477	2.9e-05
0.9534	303.15	0.00045	2.8e-05
1	293.15	0.000504	3.1e-05
1	298.15	0.000476	2.9e-05
1	303.15	0.00045	2.8e-05

System: propan-1-ol + methylcyclopentane; phases: Liquid
Fixed: Pressure, kPa = 101
Property: Speed of sound, m/s (Liquid); method: FPINT:UFactor:2
Mole fraction of methylcyclopentane	Temperature, K	Speed of sound, m/s	uncertainty
0	293.15	1223	2
0	298.15	1206	2
0	303.15	1189	2
0.0475	293.15	1217	2
0.0475	298.15	1199	2
0.0475	303.15	1182	2
0.0967	293.15	1211	2
0.0967	298.15	1193	2
0.0967	303.15	1175	2
0.2055	293.15	1201	2
0.2055	298.15	1182	2
0.2055	303.15	1163	2
0.2984	293.15	1195	3
0.2984	298.15	1175	3
0.2984	303.15	1155	3
0.4014	293.15	1189	3
0.4014	298.15	1169	3
0.4014	303.15	1148	3
0.5007	293.15	1185	3
0.5007	298.15	1164	3
0.5007	303.15	1142	3
0.6133	293.15	1183	4
0.6133	298.15	1161	4
0.6133	303.15	1139	4
0.7115	293.15	1183	4
0.7115	298.15	1160	4
0.7115	303.15	1137	4
0.8124	293.15	1184	4
0.8124	298.15	1161	4
0.8124	303.15	1138	4
0.9073	293.15	1188	5
0.9073	298.15	1164	5
0.9073	303.15	1141	5
0.9529	293.15	1191	5
0.9529	298.15	1167	5
0.9529	303.15	1144	5
1	293.15	1197	5
1	298.15	1174	5
1	303.15	1150	5

System: propan-1-ol + methylcyclopentane; phases: Liquid
Fixed: Pressure, kPa = 101
Property: Mass density, kg/m3 (Liquid); method: VIBTUB:UFactor:8
Mass fraction of methylcyclopentane	Temperature, K	Mass density, kg/m3	uncertainty
0	293.15	803.59	0.95
0	298.15	799.58	0.96
0	303.15	795.55	0.97
0.05	293.15	798.97	1
0.05	298.15	794.9	1.01
0.05	303.15	790.81	1.02
0.0992	293.15	794.72	1.05
0.0992	298.15	790.6	1.06
0.0992	303.15	786.44	1.07
0.1999	293.15	786.71	1.17
0.1999	298.15	782.47	1.17
0.1999	303.15	778.18	1.18
0.2967	293.15	779.7	1.28
0.2967	298.15	775.4	1.29
0.2967	303.15	771	1.29
0.4001	293.15	773	1.41
0.4001	298.15	768.6	1.41
0.4001	303.15	764.1	1.42
0.5035	293.15	766.9	1.54
0.5035	298.15	762.4	1.55
0.5035	303.15	757.8	1.55
0.6008	293.15	761.8	1.67
0.6008	298.15	757.2	1.67
0.6008	303.15	752.5	1.67
0.7044	293.15	756.9	1.81
0.7044	298.15	752.3	1.81
0.7044	303.15	747.6	1.81
0.8132	293.15	752.5	1.96
0.8132	298.15	747.8	1.96
0.8132	303.15	743.1	1.96
0.9092	293.15	749.1	2.09
0.9092	298.15	744.3	2.09
0.9092	303.15	739.6	2.09
0.9534	293.15	747.8	2.16
0.9534	298.15	743	2.15
0.9534	303.15	738.3	2.15
1	293.15	746.64	2.22
1	298.15	741.94	2.22
1	303.15	737.21	2.22

System: butan-1-ol + methylcyclopentane; phases: Liquid
Fixed: Pressure, kPa = 101
Property: Viscosity, Pa*s (Liquid); method: CAPTUB:UFactor:8
Mass fraction of methylcyclopentane	Temperature, K	Viscosity, Pa*s	uncertainty
0	293.15	0.002941	0.000132
0	298.15	0.002571	0.000116
0	303.15	0.002255	0.000103
0.05	293.15	0.002662	0.00012
0.05	298.15	0.002341	0.000107
0.05	303.15	0.002068	9.5e-05
0.0992	293.15	0.002481	0.000113
0.0992	298.15	0.002185	0.0001
0.0992	303.15	0.001934	8.9e-05
0.1999	293.15	0.00202	9.4e-05
0.1999	298.15	0.00179	8.4e-05
0.1999	303.15	0.001595	7.5e-05
0.2967	293.15	0.001612	7.7e-05
0.2967	298.15	0.001437	6.9e-05
0.2967	303.15	0.001288	6.3e-05
0.4001	293.15	0.001304	6.4e-05
0.4001	298.15	0.001171	5.8e-05
0.4001	303.15	0.001058	5.3e-05
0.5035	293.15	0.001022	5.2e-05
0.5035	298.15	0.000945	4.9e-05
0.5035	303.15	0.000862	4.5e-05
0.6008	293.15	0.000811	4.3e-05
0.6008	298.15	0.000745	4e-05
0.6008	303.15	0.000686	3.7e-05
0.7044	293.15	0.000694	3.8e-05
0.7044	298.15	0.000642	3.6e-05
0.7044	303.15	0.000597	3.4e-05
0.8132	293.15	0.000591	3.4e-05
0.8132	298.15	0.000553	3.2e-05
0.8132	303.15	0.000519	3.1e-05
0.9092	293.15	0.000536	3.2e-05
0.9092	298.15	0.000504	3e-05
0.9092	303.15	0.000474	2.9e-05
0.9534	293.15	0.000515	3.1e-05
0.9534	298.15	0.000485	3e-05
0.9534	303.15	0.000457	2.8e-05
1	293.15	0.000504	3.1e-05
1	298.15	0.000476	2.9e-05
1	303.15	0.00045	2.8e-05

System: butan-1-ol + methylcyclopentane; phases: Liquid
Fixed: Pressure, kPa = 101
Property: Speed of sound, m/s (Liquid); method: FPINT:UFactor:2
Mole fraction of methylcyclopentane	Temperature, K	Speed of sound, m/s	uncertainty
0	293.15	1257	1
0	298.15	1240	1
0	303.15	1224	1
0.0485	293.15	1250	1
0.0485	298.15	1233	1
0.0485	303.15	1216	1
0.0993	293.15	1243	2
0.0993	298.15	1226	2
0.0993	303.15	1208	2
0.1973	293.15	1231	2
0.1973	298.15	1213	2
0.1973	303.15	1194	2
0.3038	293.15	1219	2
0.3038	298.15	1200	2
0.3038	303.15	1180	2
0.4036	293.15	1210	3
0.4036	298.15	1190	3
0.4036	303.15	1169	3
0.5055	293.15	1202	3
0.5078	298.15	1181	3
0.5078	303.15	1160	3
0.6152	293.15	1195	3
0.6152	298.15	1173	3
0.6152	303.15	1151	3
0.7053	293.15	1191	4
0.7053	298.15	1169	4
0.7053	303.15	1146	4
0.8132	293.15	1189	4
0.8132	298.15	1166	4
0.8132	303.15	1143	4
0.9096	293.15	1190	5
0.9096	298.15	1166	5
0.9096	303.15	1143	5
0.9537	293.15	1191	5
0.9537	298.15	1168	5
0.9537	303.15	1145	5
1	293.15	1197	5
1	298.15	1174	5
1	303.15	1150	5

System: butan-1-ol + methylcyclopentane; phases: Liquid
Fixed: Pressure, kPa = 101
Property: Mass density, kg/m3 (Liquid); method: VIBTUB:UFactor:8
Mass fraction of methylcyclopentane	Temperature, K	Mass density, kg/m3	uncertainty
0	293.15	809.5	0.85
0	298.15	805.75	0.86
0	303.15	801.8	0.87
0.0485	293.15	805.73	0.87
0.0485	298.15	801.87	0.89
0.0485	303.15	797.96	0.9
0.0993	293.15	801.79	0.91
0.0993	298.15	797.86	0.92
0.0993	303.15	793.89	0.93
0.1973	293.15	794.36	1
0.1973	298.15	790.3	1.01
0.1973	303.15	786.21	1.02
0.3038	293.15	786.72	1.13
0.3038	298.15	782.52	1.14
0.3038	303.15	778.28	1.15
0.4036	293.15	779.79	1.27
0.4036	298.15	775.47	1.27
0.4036	303.15	771.1	1.28
0.5055	293.15	773.22	1.42
0.5078	298.15	768.58	1.42
0.5078	303.15	764.1	1.43
0.6152	293.15	766.34	1.59
0.6152	298.15	761.82	1.59
0.6152	303.15	757.23	1.59
0.7053	293.15	761.13	1.73
0.7053	298.15	756.53	1.73
0.7053	303.15	751.88	1.73
0.8132	293.15	755.22	1.91
0.8132	298.15	750.55	1.91
0.8132	303.15	745.83	1.91
0.9096	293.15	750.48	2.07
0.9096	298.15	745.77	2.07
0.9096	303.15	741	2.06
0.9537	293.15	748.43	2.14
0.9537	298.15	743.71	2.14
0.9537	303.15	738.93	2.14
1	293.15	746.64	2.22
1	298.15	741.94	2.22
1	303.15	737.21	2.22

System: propan-2-ol + methylcyclopentane; phases: Liquid
Fixed: Pressure, kPa = 101
Property: Viscosity, Pa*s (Liquid); method: CAPTUB:UFactor:8
Mass fraction of methylcyclopentane	Temperature, K	Viscosity, Pa*s	uncertainty
0	293.15	0.002382	0.000108
0	298.15	0.002045	9.4e-05
0	303.15	0.001763	8.2e-05
0.0478	293.15	0.002072	9.5e-05
0.0478	298.15	0.00179	8.3e-05
0.0478	303.15	0.001556	7.3e-05
0.1003	293.15	0.001843	8.5e-05
0.1003	298.15	0.001605	7.5e-05
0.1003	303.15	0.001405	6.7e-05
0.2092	293.15	0.001362	6.5e-05
0.2092	298.15	0.001191	5.8e-05
0.2092	303.15	0.001054	5.2e-05
0.2989	293.15	0.001113	5.5e-05
0.2989	298.15	0.000991	5e-05
0.2989	303.15	0.000886	4.5e-05
0.4151	293.15	0.000889	4.6e-05
0.4151	298.15	0.000796	4.1e-05
0.4151	303.15	0.000725	3.8e-05
0.4967	293.15	0.000771	4.1e-05
0.4967	298.15	0.000701	3.8e-05
0.4967	303.15	0.00064	3.5e-05
0.603	293.15	0.000659	3.6e-05
0.603	298.15	0.000608	3.4e-05
0.603	303.15	0.00056	3.2e-05
0.7118	293.15	0.000579	3.3e-05
0.7118	298.15	0.000539	3.1e-05
0.7118	303.15	0.000504	2.9e-05
0.8061	293.15	0.000539	3.1e-05
0.8061	298.15	0.000506	3e-05
0.8061	303.15	0.000475	2.8e-05
0.9026	293.15	0.000513	3.1e-05
0.9026	298.15	0.000483	2.9e-05
0.9026	303.15	0.000455	2.8e-05
0.9555	293.15	0.000505	3.1e-05
0.9555	298.15	0.000476	2.9e-05
0.9555	303.15	0.000449	2.8e-05
1	293.15	0.000504	3.1e-05
1	298.15	0.000476	2.9e-05
1	303.15	0.00045	2.8e-05

System: propan-2-ol + methylcyclopentane; phases: Liquid
Fixed: Pressure, kPa = 101
Property: Speed of sound, m/s (Liquid); method: FPINT:UFactor:8
Mole fraction of methylcyclopentane	Temperature, K	Speed of sound, m/s	uncertainty
0	293.15	1156	5
0	298.15	1139	5
0	303.15	1121	5
0.0478	293.15	1154	5
0.0478	298.15	1136	5
0.0478	303.15	1118	5
0.1003	293.15	1152	5
0.1003	298.15	1134	5
0.1003	303.15	1115	5
0.2092	293.15	1150	5
0.2092	298.15	1130	5
0.2092	303.15	1110	5
0.2989	293.15	1150	5
0.2989	298.15	1129	5
0.2989	303.15	1108	5
0.4151	293.15	1150	5
0.4151	298.15	1129	5
0.4151	303.15	1108	5
0.4967	293.15	1152	5
0.4967	298.15	1131	5
0.4967	303.15	1109	5
0.603	293.15	1156	6
0.603	298.15	1134	6
0.603	303.15	1111	6
0.7118	293.15	1162	6
0.7118	298.15	1140	6
0.7118	303.15	1117	6
0.8061	293.15	1170	6
0.8061	298.15	1147	6
0.8061	303.15	1124	6
0.9026	293.15	1180	7
0.9026	298.15	1157	7
0.9026	303.15	1134	7
0.9555	293.15	1187	7
0.9555	298.15	1164	7
0.9555	303.15	1141	7
1	293.15	1197	7
1	298.15	1174	7
1	303.15	1150	7

System: propan-2-ol + methylcyclopentane; phases: Liquid
Fixed: Pressure, kPa = 101
Property: Mass density, kg/m3 (Liquid); method: VIBTUB:UFactor:8
Mass fraction of methylcyclopentane	Temperature, K	Mass density, kg/m3	uncertainty
0	293.15	785.07	0.92
0	298.15	780.9	0.9
0	303.15	776.6	0.95
0.0478	293.15	781.74	0.94
0.0478	298.15	777.5	1
0.0478	303.15	773.12	0.97
0.1003	293.15	778.4	0.97
0.1003	298.15	774	1
0.1003	303.15	769.6	1
0.2092	293.15	771.97	1.06
0.2092	298.15	767.5	1.1
0.2092	303.15	762.87	1.08
0.2989	293.15	767.25	1.15
0.2989	298.15	762.6	1.2
0.2989	303.15	757.93	1.17
0.4151	293.15	761.93	1.29
0.4151	298.15	757.2	1.3
0.4151	303.15	752.4	1.31
0.4967	293.15	758.68	1.41
0.4967	298.15	753.9	1.4
0.4967	303.15	749.04	1.42
0.603	293.15	754.76	1.56
0.603	298.15	749.9	1.6
0.603	303.15	745.04	1.57
0.7118	293.15	751.51	1.73
0.7118	298.15	746.7	1.7
0.7118	303.15	741.79	1.74
0.8061	293.15	749.21	1.89
0.8061	298.15	744.4	1.9
0.8061	303.15	739.51	1.89
0.9026	293.15	747.47	2.05
0.9026	298.15	742.7	2.1
0.9026	303.15	737.81	2.05
0.9555	293.15	746.77	2.14
0.9555	298.15	742	2.1
0.9555	303.15	737.17	2.14
1	293.15	746.64	2.22
1	298.15	741.9	2.2
1	303.15	737.21	2.22

System: butan-2-ol + methylcyclopentane; phases: Liquid
Fixed: Pressure, kPa = 101
Property: Viscosity, Pa*s (Liquid); method: CAPTUB:UFactor:8
Mass fraction of methylcyclopentane	Temperature, K	Viscosity, Pa*s	uncertainty
0	293.15	0.003623	0.00016
0	298.15	0.002995	0.000134
0	303.15	0.002493	0.000113
0.0503	293.15	0.003071	0.000138
0.0503	298.15	0.002559	0.000116
0.0503	303.15	0.002156	9.9e-05
0.0966	293.15	0.002603	0.000118
0.0966	298.15	0.002193	0.000101
0.0966	303.15	0.001862	8.7e-05
0.198	293.15	0.001942	9.1e-05
0.198	298.15	0.001678	7.9e-05
0.198	303.15	0.001453	6.9e-05
0.3041	293.15	0.001442	7e-05
0.3041	298.15	0.001257	6.1e-05
0.3041	303.15	0.00111	5.5e-05
0.4088	293.15	0.001104	5.5e-05
0.4088	298.15	0.000983	5e-05
0.4088	303.15	0.000883	4.6e-05
0.5084	293.15	0.000889	4.6e-05
0.5084	298.15	0.000805	4.2e-05
0.5084	303.15	0.000735	3.9e-05
0.5961	293.15	0.000745	4e-05
0.5961	298.15	0.000682	3.7e-05
0.5961	303.15	0.000637	3.5e-05
0.7045	293.15	0.000651	3.6e-05
0.7045	298.15	0.000606	3.4e-05
0.7045	303.15	0.000567	3.2e-05
0.8151	293.15	0.000565	3.3e-05
0.8151	298.15	0.00053	3.1e-05
0.8151	303.15	0.000497	3e-05
0.9065	293.15	0.000535	3.2e-05
0.9065	298.15	0.000502	3e-05
0.9065	303.15	0.00047	2.9e-05
0.9532	293.15	0.000512	3.1e-05
0.9532	298.15	0.000482	2.9e-05
0.9532	303.15	0.000454	2.8e-05
1	293.15	0.000504	3.1e-05
1	298.15	0.000476	2.9e-05
1	303.15	0.00045	2.8e-05

System: butan-2-ol + methylcyclopentane; phases: Liquid
Fixed: Pressure, kPa = 101
Property: Speed of sound, m/s (Liquid); method: FPINT:UFactor:2
Mole fraction of methylcyclopentane	Temperature, K	Speed of sound, m/s	uncertainty
0	293.15	1230	1
0	298.15	1212	1
0	303.15	1194	1
0.0503	293.15	1223	2
0.0503	298.15	1204	2
0.0503	303.15	1186	2
0.0966	293.15	1216	2
0.0966	298.15	1198	2
0.0966	303.15	1179	2
0.198	293.15	1205	2
0.198	298.15	1185	2
0.198	303.15	1165	2
0.3041	293.15	1194	2
0.3041	298.15	1173	2
0.3041	303.15	1153	2
0.4088	293.15	1186	3
0.4088	298.15	1164	3
0.4088	303.15	1143	3
0.5084	293.15	1180	3
0.5084	298.15	1158	3
0.5084	303.15	1137	3
0.5961	293.15	1177	3
0.5961	298.15	1155	3
0.5961	303.15	1133	3
0.7045	293.15	1176	4
0.7045	298.15	1154	4
0.7045	303.15	1132	4
0.8151	293.15	1180	4
0.8151	298.15	1157	4
0.8151	303.15	1134	4
0.9065	293.15	1185	5
0.9065	298.15	1162	5
0.9065	303.15	1139	5
0.9532	293.15	1189	5
0.9532	298.15	1166	5
0.9532	303.15	1143	5
1	293.15	1197	5
1	298.15	1174	5
1	303.15	1150	5

System: butan-2-ol + methylcyclopentane; phases: Liquid
Fixed: Pressure, kPa = 101
Property: Mass density, kg/m3 (Liquid); method: VIBTUB:UFactor:8
Mass fraction of methylcyclopentane	Temperature, K	Mass density, kg/m3	uncertainty
0	293.15	806.84	0.88
0	298.15	802.72	0.89
0	303.15	798.51	0.9
0.0503	293.15	802.34	0.92
0.0503	298.15	798.15	0.93
0.0503	303.15	793.86	0.94
0.0966	293.15	798.72	0.96
0.0966	298.15	794.45	0.97
0.0966	303.15	790.09	0.98
0.198	293.15	790.96	1.06
0.198	298.15	786.53	1.07
0.198	303.15	782.02	1.08
0.3041	293.15	783.19	1.19
0.3041	298.15	778.64	1.2
0.3041	303.15	774	1.21
0.4088	293.15	776.03	1.33
0.4088	298.15	771.38	1.34
0.4088	303.15	766.65	1.34
0.5084	293.15	769.74	1.47
0.5084	298.15	765.04	1.47
0.5084	303.15	760.27	1.48
0.5961	293.15	764.49	1.6
0.5961	298.15	759.75	1.6
0.5961	303.15	754.96	1.6
0.7045	293.15	758.65	1.76
0.7045	298.15	753.89	1.76
0.7045	303.15	749.08	1.76
0.8151	293.15	753.44	1.93
0.8151	298.15	748.67	1.93
0.8151	303.15	743.83	1.93
0.9065	293.15	749.72	2.07
0.9065	298.15	744.92	2.07
0.9065	303.15	740.09	2.07
0.9532	293.15	747.91	2.15
0.9532	298.15	743.14	2.14
0.9532	303.15	738.32	2.14
1	293.15	746.64	2.22
1	298.15	741.94	2.22
1	303.15	737.21	2.22

System: methylcyclopentane + pentan-2-ol; phases: Liquid
Fixed: Pressure, kPa = 101
Property: Viscosity, Pa*s (Liquid); method: CAPTUB:UFactor:8
Mass fraction of methylcyclopentane	Temperature, K	Viscosity, Pa*s	uncertainty
0	293.15	0.004001	0.000177
0	298.15	0.003273	0.000146
0	303.15	0.002774	0.000125
0.0478	293.15	0.003457	0.000155
0.0478	298.15	0.002857	0.000129
0.0478	303.15	0.002386	0.000109
0.1003	293.15	0.002996	0.000136
0.1003	298.15	0.002504	0.000115
0.1003	303.15	0.002115	9.8e-05
0.2092	293.15	0.002128	9.9e-05
0.2092	298.15	0.001811	8.6e-05
0.2092	303.15	0.001559	7.5e-05
0.2989	293.15	0.001531	7.4e-05
0.2989	298.15	0.001343	6.6e-05
0.2989	303.15	0.001186	5.9e-05
0.4151	293.15	0.001226	6.1e-05
0.4151	298.15	0.001091	5.5e-05
0.4151	303.15	0.000974	5e-05
0.4967	293.15	0.000992	5.1e-05
0.4967	298.15	0.0009	4.7e-05
0.4967	303.15	0.000822	4.3e-05
0.603	293.15	0.000776	4.2e-05
0.603	298.15	0.00072	3.9e-05
0.603	303.15	0.000666	3.7e-05
0.7118	293.15	0.000665	3.7e-05
0.7118	298.15	0.000618	3.5e-05
0.7118	303.15	0.000577	3.3e-05
0.8061	293.15	0.000588	3.4e-05
0.8061	298.15	0.000549	3.2e-05
0.8061	303.15	0.000515	3e-05
0.9026	293.15	0.000535	3.2e-05
0.9026	298.15	0.000503	3e-05
0.9026	303.15	0.000473	2.9e-05
0.9555	293.15	0.000515	3.1e-05
0.9555	298.15	0.000485	3e-05
0.9555	303.15	0.000457	2.8e-05
1	293.15	0.000504	3.1e-05
1	298.15	0.000476	2.9e-05
1	303.15	0.00045	2.8e-05

System: methylcyclopentane + pentan-2-ol; phases: Liquid
Fixed: Pressure, kPa = 101
Property: Speed of sound, m/s (Liquid); method: FPINT:UFactor:2
Mole fraction of methylcyclopentane	Temperature, K	Speed of sound, m/s	uncertainty
0	293.15	1250	2
0	298.15	1232	2
0	303.15	1214	2
0.0484	293.15	1244	2
0.0484	298.15	1225	2
0.0484	303.15	1206	2
0.0999	293.15	1236	2
0.0999	298.15	1217	2
0.0999	303.15	1198	2
0.1949	293.15	1223	2
0.1949	298.15	1203	2
0.1949	303.15	1183	2
0.3177	293.15	1207	3
0.3177	298.15	1187	3
0.3177	303.15	1167	3
0.4017	293.15	1198	3
0.4017	298.15	1178	3
0.4017	303.15	1157	3
0.4945	293.15	1190	3
0.4945	298.15	1169	3
0.4945	303.15	1149	3
0.6131	293.15	1184	4
0.6131	298.15	1163	4
0.6131	303.15	1141	4
0.7107	293.15	1183	4
0.7107	298.15	1161	4
0.7107	303.15	1139	4
0.815	293.15	1183	4
0.815	298.15	1161	4
0.815	303.15	1138	4
0.9083	293.15	1187	5
0.9083	298.15	1164	5
0.9083	303.15	1141	5
0.9535	293.15	1190	5
0.9535	298.15	1167	5
0.9535	303.15	1144	5
1	293.15	1197	5
1	298.15	1174	5
1	303.15	1150	5

System: methylcyclopentane + pentan-2-ol; phases: Liquid
Fixed: Pressure, kPa = 101
Property: Mass density, kg/m3 (Liquid); method: VIBTUB:UFactor:8
Mass fraction of methylcyclopentane	Temperature, K	Mass density, kg/m3	uncertainty
0	293.15	809.04	0.94
0	298.15	805.01	0.95
0	303.15	800.9	0.96
0.0484	293.15	805.73	0.98
0.0484	298.15	801.62	0.99
0.0484	303.15	797.44	1
0.0999	293.15	801.91	1.04
0.0999	298.15	797.73	1.05
0.0999	303.15	793.49	1.06
0.1949	293.15	795.01	1.14
0.1949	298.15	790.72	1.15
0.1949	303.15	786.36	1.16
0.3177	293.15	786.35	1.29
0.3177	298.15	781.93	1.3
0.3177	303.15	777.45	1.31
0.4017	293.15	780.56	1.4
0.4017	298.15	776.08	1.41
0.4017	303.15	771.55	1.41
0.4945	293.15	774.39	1.52
0.4945	298.15	769.88	1.53
0.4945	303.15	765.3	1.53
0.6131	293.15	766.93	1.68
0.6131	298.15	762.35	1.69
0.6131	303.15	757.72	1.69
0.7107	293.15	761.3	1.82
0.7107	298.15	756.67	1.82
0.7107	303.15	751.98	1.82
0.815	293.15	755.57	1.96
0.815	298.15	750.87	1.96
0.815	303.15	746.11	1.96
0.9083	293.15	750.73	2.09
0.9083	298.15	745.97	2.09
0.9083	303.15	741.18	2.09
0.9535	293.15	748.54	2.16
0.9535	298.15	743.78	2.15
0.9535	303.15	738.98	2.15
1	293.15	746.64	2.22
1	298.15	741.94	2.22
1	303.15	737.21	2.22
