Measured thermophysical data. Thermodynamic modelling of solubility and preferential solvation for ribavirin (II) in co-solvent mixtures of (methanol, n-propanol, acetonitrile or 1,4-dioxane) + water
Source: J. Chem. Thermodyn., 2017, 10.1016/j.jct.2017.07.027
Compound 1: Ribavirin, C8H12N4O5, InChI=1S/C8H12N4O5/c9-6(16)7-10-2-12(11-7)8-5(15)4(14)3(1-13)17-8/h2-5,8,13-15H,1H2,(H2,9,16)/t3-,4-,5-,8-/m1/s1, purity 98.3%
Compound 2: methanol, CH4O, InChI=1S/CH4O/c1-2/h2H,1H3, purity 99.5%
Compound 3: propan-1-ol, C3H8O, InChI=1S/C3H8O/c1-2-3-4/h4H,2-3H2,1H3, purity 99.4%
Compound 4: acetonitrile, C2H3N, InChI=1S/C2H3N/c1-2-3/h1H3, purity 99.5%
Compound 5: 1,4-dioxane, C4H8O2, InChI=1S/C4H8O2/c1-2-6-4-3-5-1/h1-4H2, purity 99.4%
Compound 6: water, H2O, InChI=1S/H2O/h1H2

System: Ribavirin + methanol + water; phases: Liquid, Crystal
Fixed: Pressure, kPa = 101.1
Property: Mole fraction of Ribavirin (Liquid); method: Chromatography
Solvent: Mass fraction of methanol	Temperature, K	Mole fraction of Ribavirin	uncertainty
1	278.15	0.0003788	3.41e-05
1	283.15	0.0005168	4.65e-05
1	288.15	0.0007109	6.4e-05
1	293.15	0.0009523	8.58e-05
1	298.15	0.001278	0.000115
1	303.15	0.00171	0.000154
1	308.15	0.002231	0.000201
1	313.15	0.002929	0.000264
1	318.15	0.003791	0.000341
0.8994	278.15	0.0008134	7.33e-05
0.8994	283.15	0.001124	0.000101
0.8994	288.15	0.001513	0.000136
0.8994	293.15	0.001998	0.00018
0.8994	298.15	0.002652	0.000239
0.8994	303.15	0.003457	0.000311
0.8994	308.15	0.004424	0.000398
0.8994	313.15	0.005844	0.000526
0.8994	318.15	0.007427	0.000669
0.7988	278.15	0.001308	0.000118
0.7988	283.15	0.001847	0.000166
0.7988	288.15	0.002424	0.000218
0.7988	293.15	0.003232	0.000291
0.7988	298.15	0.004275	0.000385
0.7988	303.15	0.005433	0.000489
0.7988	308.15	0.007165	0.000645
0.7988	313.15	0.009178	0.000826
0.7988	318.15	0.01179	0.00106
0.7005	278.15	0.001892	0.00017
0.7005	283.15	0.002601	0.000234
0.7005	288.15	0.003362	0.000303
0.7005	293.15	0.00447	0.000403
0.7005	298.15	0.005893	0.000531
0.7005	303.15	0.007411	0.000667
0.7005	308.15	0.009509	0.000856
0.7005	313.15	0.01204	0.00108
0.7005	318.15	0.01547	0.00139
0.5992	278.15	0.002436	0.000219
0.5992	283.15	0.003143	0.000283
0.5992	288.15	0.004317	0.000389
0.5992	293.15	0.005496	0.000495
0.5992	298.15	0.007267	0.000654
0.5992	303.15	0.009312	0.000838
0.5992	308.15	0.01152	0.00104
0.5992	313.15	0.01463	0.00132
0.5992	318.15	0.01891	0.0017
0.4998	278.15	0.002783	0.000251
0.4998	283.15	0.003734	0.000336
0.4998	288.15	0.005013	0.000451
0.4998	293.15	0.006577	0.000592
0.4998	298.15	0.008507	0.000766
0.4998	303.15	0.01076	0.00097
0.4998	308.15	0.01346	0.00121
0.4998	313.15	0.01698	0.00153
0.4998	318.15	0.02113	0.0019
0.3999	278.15	0.003223	0.00029
0.3999	283.15	0.004277	0.000385
0.3999	288.15	0.005778	0.00052
0.3999	293.15	0.007549	0.00068
0.3999	298.15	0.009801	0.000883
0.3999	303.15	0.01254	0.00113
0.3999	308.15	0.01553	0.0014
0.3999	313.15	0.01988	0.00179
0.3999	318.15	0.02424	0.00218
0.3001	278.15	0.003731	0.000336
0.3001	283.15	0.004967	0.000447
0.3001	288.15	0.006679	0.000601
0.3001	293.15	0.008748	0.000788
0.3001	298.15	0.01127	0.00101
0.3001	303.15	0.01432	0.00129
0.3001	308.15	0.01819	0.00164
0.3001	313.15	0.02242	0.00202
0.3001	318.15	0.02756	0.00248
0.2013	278.15	0.004335	0.00039
0.2013	283.15	0.005831	0.000525
0.2013	288.15	0.007811	0.000703
0.2013	293.15	0.01023	0.00092
0.2013	298.15	0.01319	0.00119
0.2013	303.15	0.01665	0.0015
0.2013	308.15	0.02085	0.00188
0.2013	313.15	0.02584	0.00233
0.2013	318.15	0.03158	0.00284
0.0991	278.15	0.005198	0.000468
0.0991	283.15	0.006939	0.000625
0.0991	288.15	0.00904	0.000814
0.0991	293.15	0.01197	0.00108
0.0991	298.15	0.01528	0.00138
0.0991	303.15	0.01939	0.00175
0.0991	308.15	0.02422	0.00218
0.0991	313.15	0.02981	0.00268
0.0991	318.15	0.0363	0.00327
0	278.15	0.005803	0.000523
0	283.15	0.007755	0.000698
0	288.15	0.01039	0.00094
0	293.15	0.01354	0.00122
0	298.15	0.01741	0.00157
0	303.15	0.0219	0.00197
0	308.15	0.02732	0.00246
0	313.15	0.03347	0.00301
0	318.15	0.04053	0.00365

System: Ribavirin + propan-1-ol + water; phases: Liquid, Crystal
Fixed: Pressure, kPa = 101.1
Property: Mole fraction of Ribavirin (Liquid); method: Chromatography
Solvent: Mass fraction of propan-1-ol	Temperature, K	Mole fraction of Ribavirin	uncertainty
1	278.15	5.986e-05	5.39e-06
1	283.15	8.689e-05	7.83e-06
1	288.15	0.0001219	1.1e-05
1	293.15	0.0001715	1.54e-05
1	298.15	0.0002417	2.18e-05
1	303.15	0.000332	2.99e-05
1	308.15	0.0004547	4.1e-05
1	313.15	0.0006169	5.56e-05
1	318.15	0.0008289	7.46e-05
0.8998	278.15	0.0003793	3.41e-05
0.8998	283.15	0.0005375	4.84e-05
0.8998	288.15	0.0007412	6.68e-05
0.8998	293.15	0.001013	9.1e-05
0.8998	298.15	0.001347	0.000121
0.8998	303.15	0.001838	0.000166
0.8998	308.15	0.002438	0.00022
0.8998	313.15	0.003214	0.000289
0.8998	318.15	0.004186	0.000377
0.7991	278.15	0.001153	0.000104
0.7991	283.15	0.001436	0.000129
0.7991	288.15	0.001934	0.000174
0.7991	293.15	0.002618	0.000236
0.7991	298.15	0.003486	0.000314
0.7991	303.15	0.004716	0.000425
0.7991	308.15	0.006207	0.000559
0.7991	313.15	0.00796	0.000717
0.7991	318.15	0.01014	0.00091
0.7009	278.15	0.00175	0.000158
0.7009	283.15	0.002415	0.000217
0.7009	288.15	0.003214	0.000289
0.7009	293.15	0.004269	0.000384
0.7009	298.15	0.005669	0.000511
0.7009	303.15	0.007366	0.000663
0.7009	308.15	0.009532	0.000858
0.7009	313.15	0.01218	0.0011
0.7009	318.15	0.01538	0.00138
0.5999	278.15	0.002235	0.000201
0.5999	283.15	0.003014	0.000271
0.5999	288.15	0.004028	0.000363
0.5999	293.15	0.005343	0.000481
0.5999	298.15	0.007155	0.000644
0.5999	303.15	0.009113	0.000821
0.5999	308.15	0.01153	0.00104
0.5999	313.15	0.01489	0.00134
0.5999	318.15	0.01836	0.00165
0.5002	278.15	0.002459	0.000221
0.5002	283.15	0.003329	0.0003
0.5002	288.15	0.004415	0.000398
0.5002	293.15	0.005866	0.000528
0.5002	298.15	0.007718	0.000695
0.5002	303.15	0.009928	0.000894
0.5002	308.15	0.01286	0.00116
0.5002	313.15	0.01619	0.00146
0.5002	318.15	0.02012	0.00181
0.3989	278.15	0.002773	0.00025
0.3989	283.15	0.003743	0.000337
0.3989	288.15	0.005048	0.000455
0.3989	293.15	0.006658	0.0006
0.3989	298.15	0.008736	0.000787
0.3989	303.15	0.0112	0.00101
0.3989	308.15	0.01429	0.00129
0.3989	313.15	0.01796	0.00162
0.3989	318.15	0.02258	0.00203
0.2991	278.15	0.003418	0.000308
0.2991	283.15	0.004625	0.000417
0.2991	288.15	0.006187	0.000557
0.2991	293.15	0.008146	0.000734
0.2991	298.15	0.01057	0.00095
0.2991	303.15	0.01364	0.00123
0.2991	308.15	0.01727	0.00156
0.2991	313.15	0.02155	0.00194
0.2991	318.15	0.02664	0.0024
0.2003	278.15	0.004509	0.000406
0.2003	283.15	0.006113	0.000551
0.2003	288.15	0.008041	0.000724
0.2003	293.15	0.01042	0.00094
0.2003	298.15	0.01375	0.00124
0.2003	303.15	0.01723	0.00155
0.2003	308.15	0.0219	0.00197
0.2003	313.15	0.02683	0.00242
0.2003	318.15	0.03311	0.00298
0.0999	278.15	0.005644	0.000508
0.0999	283.15	0.007555	0.00068
0.0999	288.15	0.01024	0.00092
0.0999	293.15	0.01339	0.00121
0.0999	298.15	0.01677	0.00151
0.0999	303.15	0.02119	0.00191
0.0999	308.15	0.02654	0.00239
0.0999	313.15	0.03242	0.00292
0.0999	318.15	0.03955	0.00356
0	278.15	0.005803	0.000523
0	283.15	0.007755	0.000698
0	288.15	0.01039	0.00094
0	293.15	0.01354	0.00122
0	298.15	0.01741	0.00157
0	303.15	0.0219	0.00197
0	308.15	0.02732	0.00246
0	313.15	0.03347	0.00301
0	318.15	0.04053	0.00365

System: Ribavirin + acetonitrile + water; phases: Liquid, Crystal
Fixed: Pressure, kPa = 101.1
Property: Mole fraction of Ribavirin (Liquid); method: Chromatography
Solvent: Mass fraction of acetonitrile	Temperature, K	Mole fraction of Ribavirin	uncertainty
1	278.15	8.602e-06	7.75e-07
1	283.15	1.331e-05	1.2e-06
1	288.15	1.941e-05	1.75e-06
1	293.15	2.769e-05	2.49e-06
1	298.15	3.961e-05	3.57e-06
1	303.15	5.644e-05	5.08e-06
1	308.15	7.877e-05	7.09e-06
1	313.15	0.0001097	9.9e-06
1	318.15	0.0001501	1.35e-05
0.8993	278.15	0.0001479	1.33e-05
0.8993	283.15	0.0002185	1.97e-05
0.8993	288.15	0.0003044	2.74e-05
0.8993	293.15	0.0004141	3.73e-05
0.8993	298.15	0.0005662	5.1e-05
0.8993	303.15	0.0007711	6.94e-05
0.8993	308.15	0.001037	9.3e-05
0.8993	313.15	0.001377	0.000124
0.8993	318.15	0.001791	0.000162
0.7998	278.15	0.0007012	6.32e-05
0.7998	283.15	0.0009971	8.98e-05
0.7998	288.15	0.001349	0.000121
0.7998	293.15	0.001817	0.000164
0.7998	298.15	0.002414	0.000217
0.7998	303.15	0.003187	0.000287
0.7998	308.15	0.004151	0.000374
0.7998	313.15	0.005382	0.000485
0.7998	318.15	0.006911	0.000622
0.7006	278.15	0.001471	0.000133
0.7006	283.15	0.002062	0.000186
0.7006	288.15	0.002767	0.000249
0.7006	293.15	0.003643	0.000328
0.7006	298.15	0.004814	0.000434
0.7006	303.15	0.006285	0.000566
0.7006	308.15	0.008106	0.00073
0.7006	313.15	0.01037	0.00093
0.7006	318.15	0.01311	0.00118
0.5997	278.15	0.001991	0.000179
0.5997	283.15	0.002788	0.000251
0.5997	288.15	0.003715	0.000335
0.5997	293.15	0.004875	0.000439
0.5997	298.15	0.00641	0.000577
0.5997	303.15	0.008302	0.000748
0.5997	308.15	0.01072	0.00097
0.5997	313.15	0.01337	0.0012
0.5997	318.15	0.01673	0.00151
0.5008	278.15	0.002249	0.000203
0.5008	283.15	0.003119	0.000281
0.5008	288.15	0.00418	0.000376
0.5008	293.15	0.005486	0.000494
0.5008	298.15	0.007174	0.000646
0.5008	303.15	0.009241	0.000832
0.5008	308.15	0.01182	0.00106
0.5008	313.15	0.01483	0.00134
0.5008	318.15	0.01868	0.00168
0.3995	278.15	0.002573	0.000232
0.3995	283.15	0.003543	0.000319
0.3995	288.15	0.004746	0.000427
0.3995	293.15	0.006225	0.000561
0.3995	298.15	0.00812	0.000731
0.3995	303.15	0.01041	0.00094
0.3995	308.15	0.01325	0.00119
0.3995	313.15	0.01654	0.00149
0.3995	318.15	0.02087	0.00188
0.3007	278.15	0.003174	0.000286
0.3007	283.15	0.004339	0.000391
0.3007	288.15	0.005827	0.000525
0.3007	293.15	0.007628	0.000687
0.3007	298.15	0.00991	0.000892
0.3007	303.15	0.01263	0.00114
0.3007	308.15	0.01613	0.00145
0.3007	313.15	0.02009	0.00181
0.3007	318.15	0.02459	0.00221
0.2008	278.15	0.004258	0.000383
0.2008	283.15	0.005759	0.000519
0.2008	288.15	0.007726	0.000696
0.2008	293.15	0.0101	0.00091
0.2008	298.15	0.01312	0.00118
0.2008	303.15	0.01654	0.00149
0.2008	308.15	0.02068	0.00186
0.2008	313.15	0.02574	0.00232
0.2008	318.15	0.03153	0.00284
0.0999	278.15	0.005564	0.000501
0.0999	283.15	0.007429	0.000669
0.0999	288.15	0.009993	0.0009
0.0999	293.15	0.01301	0.00117
0.0999	298.15	0.01664	0.0015
0.0999	303.15	0.02107	0.0019
0.0999	308.15	0.02638	0.00238
0.0999	313.15	0.03238	0.00292
0.0999	318.15	0.03937	0.00354
0	278.15	0.005803	0.000523
0	283.15	0.007755	0.000698
0	288.15	0.01039	0.00094
0	293.15	0.01354	0.00122
0	298.15	0.01741	0.00157
0	303.15	0.0219	0.00197
0	308.15	0.02732	0.00246
0	313.15	0.03347	0.00301
0	318.15	0.04053	0.00365

System: Ribavirin + 1,4-dioxane + water; phases: Liquid, Crystal
Fixed: Pressure, kPa = 101.1
Property: Mole fraction of Ribavirin (Liquid); method: Chromatography
Solvent: Mass fraction of 1,4-dioxane	Temperature, K	Mole fraction of Ribavirin	uncertainty
1	283.15	7.057e-05	6.36e-06
1	288.15	0.0001009	9.1e-06
1	293.15	0.0001453	1.31e-05
1	298.15	0.0002028	1.83e-05
1	303.15	0.0002823	2.54e-05
1	308.15	0.0003869	3.48e-05
1	313.15	0.0005272	4.75e-05
1	318.15	0.0007122	6.41e-05
0.8992	283.15	0.0004835	4.35e-05
0.8992	288.15	0.0006709	6.04e-05
0.8992	293.15	0.0009314	8.39e-05
0.8992	298.15	0.001267	0.000114
0.8992	303.15	0.001682	0.000151
0.8992	308.15	0.002244	0.000202
0.8992	313.15	0.002956	0.000266
0.8992	318.15	0.003894	0.000351
0.7998	283.15	0.001382	0.000124
0.7998	288.15	0.001892	0.00017
0.7998	293.15	0.002586	0.000233
0.7998	298.15	0.003438	0.00031
0.7998	303.15	0.004534	0.000408
0.7998	308.15	0.00592	0.000533
0.7998	313.15	0.007644	0.000688
0.7998	318.15	0.009817	0.000884
0.7003	283.15	0.002338	0.000211
0.7003	288.15	0.003181	0.000286
0.7003	293.15	0.004279	0.000385
0.7003	298.15	0.005632	0.000507
0.7003	303.15	0.007368	0.000663
0.7003	308.15	0.009516	0.000857
0.7003	313.15	0.01219	0.0011
0.7003	318.15	0.01543	0.00139
0.5988	283.15	0.002965	0.000267
0.5988	288.15	0.004015	0.000362
0.5988	293.15	0.005376	0.000484
0.5988	298.15	0.007064	0.000636
0.5988	303.15	0.009179	0.000827
0.5988	308.15	0.0118	0.00106
0.5988	313.15	0.01487	0.00134
0.5988	318.15	0.01883	0.0017
0.4999	283.15	0.003376	0.000304
0.4999	288.15	0.00455	0.00041
0.4999	293.15	0.006069	0.000547
0.4999	298.15	0.007925	0.000714
0.4999	303.15	0.01026	0.00092
0.4999	308.15	0.01287	0.00116
0.4999	313.15	0.01656	0.00149
0.4999	318.15	0.02092	0.00188
0.4007	283.15	0.003847	0.000346
0.4007	288.15	0.005161	0.000465
0.4007	293.15	0.006894	0.000621
0.4007	298.15	0.008975	0.000808
0.4007	303.15	0.01168	0.00105
0.4007	308.15	0.01468	0.00132
0.4007	313.15	0.01857	0.00167
0.4007	318.15	0.02288	0.00206
0.3011	283.15	0.004661	0.00042
0.3011	288.15	0.006271	0.000565
0.3011	293.15	0.008294	0.000747
0.3011	298.15	0.01073	0.00097
0.3011	303.15	0.01364	0.00123
0.3011	308.15	0.01759	0.00158
0.3011	313.15	0.02165	0.00195
0.3011	318.15	0.02693	0.00242
0.2009	283.15	0.005939	0.000535
0.2009	288.15	0.007976	0.000718
0.2009	293.15	0.01036	0.00093
0.2009	298.15	0.01342	0.00121
0.2009	303.15	0.01725	0.00155
0.2009	308.15	0.02164	0.00195
0.2009	313.15	0.02682	0.00241
0.2009	318.15	0.03271	0.00295
0.0994	283.15	0.007362	0.000663
0.0994	288.15	0.009885	0.00089
0.0994	293.15	0.01288	0.00116
0.0994	298.15	0.01651	0.00149
0.0994	303.15	0.02111	0.0019
0.0994	308.15	0.02644	0.00238
0.0994	313.15	0.03235	0.00291
0.0994	318.15	0.0393	0.00354
0	283.15	0.007755	0.000698
0	288.15	0.01039	0.00094
0	293.15	0.01354	0.00122
0	298.15	0.01741	0.00157
0	303.15	0.0219	0.00197
0	308.15	0.02732	0.00246
0	313.15	0.03347	0.00301
0	318.15	0.04053	0.00365

System: Ribavirin + methanol; phases: Liquid, Crystal
Fixed: Pressure, kPa = 101.1
Property: Mole fraction of Ribavirin (Liquid); method: Chromatography
Temperature, K	Mole fraction of Ribavirin	uncertainty
278.15	0.0003788	3.41e-05
283.15	0.0005168	4.65e-05
288.15	0.0007109	6.4e-05
293.15	0.0009523	8.58e-05
298.15	0.001278	0.000115
303.15	0.00171	0.000154
308.15	0.002231	0.000201
313.15	0.002929	0.000264
318.15	0.003791	0.000341

System: Ribavirin + water; phases: Liquid, Crystal
Fixed: Pressure, kPa = 101.1
Property: Mole fraction of Ribavirin (Liquid); method: Chromatography
Temperature, K	Mole fraction of Ribavirin	uncertainty
278.15	0.005803	0.000523
283.15	0.007755	0.000698
288.15	0.01039	0.00094
293.15	0.01354	0.00122
298.15	0.01741	0.00157
303.15	0.0219	0.00197
308.15	0.02732	0.00246
313.15	0.03347	0.00301
318.15	0.04053	0.00365

System: Ribavirin + propan-1-ol; phases: Liquid, Crystal
Fixed: Pressure, kPa = 101.1
Property: Mole fraction of Ribavirin (Liquid); method: Chromatography
Temperature, K	Mole fraction of Ribavirin	uncertainty
278.15	5.986e-05	5.39e-06
283.15	8.689e-05	7.83e-06
288.15	0.0001219	1.1e-05
293.15	0.0001715	1.54e-05
298.15	0.0002417	2.18e-05
303.15	0.000332	2.99e-05
308.15	0.0004547	4.1e-05
313.15	0.0006169	5.56e-05
318.15	0.0008289	7.46e-05

System: Ribavirin + acetonitrile; phases: Liquid, Crystal
Fixed: Pressure, kPa = 101.1
Property: Mole fraction of Ribavirin (Liquid); method: Chromatography
Temperature, K	Mole fraction of Ribavirin	uncertainty
278.15	8.602e-06	7.75e-07
283.15	1.331e-05	1.2e-06
288.15	1.941e-05	1.75e-06
293.15	2.769e-05	2.49e-06
298.15	3.961e-05	3.57e-06
303.15	5.644e-05	5.08e-06
308.15	7.877e-05	7.09e-06
313.15	0.0001097	9.9e-06
318.15	0.0001501	1.35e-05

System: Ribavirin + 1,4-dioxane; phases: Liquid, Crystal
Fixed: Pressure, kPa = 101.1
Property: Mole fraction of Ribavirin (Liquid); method: Chromatography
Temperature, K	Mole fraction of Ribavirin	uncertainty
283.15	7.057e-05	6.36e-06
288.15	0.0001009	9.1e-06
293.15	0.0001453	1.31e-05
298.15	0.0002028	1.83e-05
303.15	0.0002823	2.54e-05
308.15	0.0003869	3.48e-05
313.15	0.0005272	4.75e-05
318.15	0.0007122	6.41e-05
