Measured thermophysical data. Solubility of H2S in ionic liquids [hmim][PF6], [hmim][BF4], and [hmim][Tf2N]
Source: J. Chem. Thermodyn., 2009, 10.1016/j.jct.2009.04.014
Compound 1: hydrogen sulfide, H2S, InChI=1S/H2S/h1H2, purity 99.5%
Compound 2: 1-hexyl-3-methylimidazolium hexafluorophosphate, C10H19F6N2P, InChI=1S/C10H19N2.F6P/c1-3-4-5-6-7-12-9-8-11(2)10-12;1-7(2,3,4,5)6/h8-10H,3-7H2,1-2H3;/q+1;-1, purity 98%
Compound 3: 1-hexyl-3-methylimidazolium tetrafluoroborate, C10H19BF4N2, InChI=1S/C10H19N2.BF4/c1-3-4-5-6-7-12-9-8-11(2)10-12;2-1(3,4)5/h8-10H,3-7H2,1-2H3;/q+1;-1, purity 98%
Compound 4: 1-hexyl-3-methylimidazolium bis[(trifluoromethyl)sulfonyl]imide, C12H19F6N3O4S2, InChI=1S/C10H19N2.C2F6NO4S2/c1-3-4-5-6-7-12-9-8-11(2)10-12;3-1(4,5)14(10,11)9-15(12,13)2(6,7)8/h8-10H,3-7H2,1-2H3;/q+1;-1, purity 99%

System: hydrogen sulfide + 1-hexyl-3-methylimidazolium hexafluorophosphate; phases: Liquid, Gas
Fixed: Mole fraction of hydrogen sulfide = 0
Property: Henry's Law constant (mole fraction scale), kPa of hydrogen sulfide (Liquid); method: static method
Temperature, K	Henry's Law constant (mole fraction scale), kPa of hydrogen sulfide	uncertainty
303.15	1790	50
313.15	2170	70
323.15	2660	70
333.15	3280	50
343.15	3970	100

System: hydrogen sulfide + 1-hexyl-3-methylimidazolium hexafluorophosphate; phases: Liquid, Gas
Property: Mole fraction of hydrogen sulfide (Liquid); method: static method
Temperature, K	Pressure, kPa	Mole fraction of hydrogen sulfide	uncertainty
303.15	138	0.067	0.012
303.15	222	0.113	0.014
303.15	310	0.166	0.002
303.15	462	0.244	0.008
303.15	572	0.296	0.006
303.15	685	0.345	0.003
303.15	809	0.396	0.004
303.15	917	0.441	0.005
313.15	156	0.063	0.01
313.15	251	0.108	0.008
313.15	354	0.159	0.006
313.15	536	0.233	0.008
313.15	665	0.284	0.008
313.15	799	0.333	0.006
313.15	944	0.383	0.004
313.15	1070	0.428	0.008
323.15	178	0.058	0.01
323.15	286	0.101	0.008
323.15	408	0.149	0.002
323.15	611	0.222	0.008
323.15	761	0.271	0.006
323.15	917	0.319	0.002
323.15	1090	0.37	0.008
333.15	199	0.054	0.008
333.15	321	0.094	0.006
333.15	458	0.141	0.006
333.15	689	0.211	0.008
333.15	860	0.259	0.004
333.15	1040	0.306	0.004
343.15	220	0.05	0.008
343.15	355	0.088	0.004
343.15	508	0.133	0.004
343.15	755	0.203	0.014
343.15	957	0.247	0.006

System: hydrogen sulfide + 1-hexyl-3-methylimidazolium tetrafluoroborate; phases: Liquid, Gas
Fixed: Mole fraction of hydrogen sulfide = 0
Property: Henry's Law constant (mole fraction scale), kPa of hydrogen sulfide (Liquid); method: static method
Temperature, K	Henry's Law constant (mole fraction scale), kPa of hydrogen sulfide	uncertainty
303.15	1250	30
313.15	1520	30
323.15	1820	30
333.15	2180	40
343.15	2570	40

System: hydrogen sulfide + 1-hexyl-3-methylimidazolium tetrafluoroborate; phases: Liquid, Gas
Property: Mole fraction of hydrogen sulfide (Liquid); method: static method
Temperature, K	Pressure, kPa	Mole fraction of hydrogen sulfide	uncertainty
303.15	111	0.072	0.014
303.15	196	0.144	0.003
303.15	327	0.233	0.003
303.15	431	0.303	0.018
303.15	599	0.38	0.008
303.15	733	0.441	0.006
303.15	792	0.469	0.003
303.15	873	0.499	0.003
313.15	127	0.07	0.012
313.15	230	0.139	0.002
313.15	385	0.226	0.002
313.15	509	0.295	0.016
313.15	709	0.371	0.008
313.15	872	0.433	0.008
313.15	943	0.46	0.003
313.15	1040	0.491	0.003
323.15	146	0.066	0.014
323.15	266	0.134	0.006
323.15	446	0.219	0.002
323.15	591	0.288	0.014
323.15	825	0.363	0.01
323.15	1020	0.424	0.012
323.15	1100	0.451	0.008
333.15	166	0.063	0.012
333.15	303	0.129	0.004
333.15	510	0.212	0.002
333.15	677	0.28	0.014
333.15	947	0.354	0.016
343.15	187	0.06	0.01
343.15	342	0.124	0.004
343.15	576	0.205	0.002
343.15	765	0.272	0.02
343.15	1070	0.345	0.004

System: hydrogen sulfide + 1-hexyl-3-methylimidazolium bis[(trifluoromethyl)sulfonyl]imide; phases: Liquid, Gas
Fixed: Mole fraction of hydrogen sulfide = 0
Property: Henry's Law constant (mole fraction scale), kPa of hydrogen sulfide (Liquid); method: static method
Temperature, K	Henry's Law constant (mole fraction scale), kPa of hydrogen sulfide	uncertainty
303.15	1740	35
313.15	2170	43
323.15	2620	52
333.15	3370	67
343.15	4060	81

System: hydrogen sulfide + 1-hexyl-3-methylimidazolium bis[(trifluoromethyl)sulfonyl]imide; phases: Liquid, Gas
Property: Mole fraction of hydrogen sulfide (Liquid); method: static method
Temperature, K	Pressure, kPa	Mole fraction of hydrogen sulfide	uncertainty
303.15	97.4	0.044	0.001
303.15	161	0.092	0.001
303.15	230	0.141	0.001
303.15	438	0.257	0.001
303.15	612	0.371	0.001
303.15	780	0.464	0.002
303.15	875	0.533	0.002
313.15	113	0.04	0.001
313.15	187	0.085	0.001
313.15	266	0.133	0.001
313.15	510	0.246	0.001
313.15	716	0.359	0.001
313.15	913	0.453	0.002
313.15	1030	0.524	0.002
323.15	129	0.036	0.001
323.15	213	0.079	0.001
323.15	303	0.126	0.001
323.15	583	0.234	0.001
323.15	821	0.347	0.001
323.15	1050	0.442	0.002
333.15	145	0.032	0.001
333.15	240	0.074	0.001
333.15	342	0.118	0.001
333.15	658	0.223	0.001
333.15	929	0.335	0.001
343.15	161	0.029	0.001
343.15	267	0.068	0.001
343.15	380	0.111	0.001
343.15	733	0.212	0.001
343.15	1040	0.322	0.001
