Measured thermophysical data. The heat capacity and entropy of the metastable lithium silicide Li15Si4 in the temperature range (2 to 615) K
Source: J. Chem. Thermodyn., 2018, 10.1016/j.jct.2017.09.033
Compound 1: lithium silicide (Li15Si4), Li15Si4, InChI=1S/15Li.4Si, purity 99.5%

System: lithium silicide (Li15Si4); phases: Crystal
Fixed: Pressure, kPa = 101.325
Property: Molar heat capacity at constant pressure, J/K/mol (Crystal); method: RELAXCAL
Temperature, K	Molar heat capacity at constant pressure, J/K/mol	uncertainty
1.93	0.0084	0.0008
2.02	0.0092	0.0009
2.11	0.01	0.001
2.21	0.011	0.001
2.31	0.012	0.001
2.41	0.013	0.001
2.52	0.014	0.001
2.64	0.015	0.002
2.76	0.016	0.002
2.87	0.018	0.002
3.01	0.019	0.002
3.13	0.021	0.002
3.27	0.023	0.002
3.42	0.025	0.003
3.56	0.028	0.003
3.72	0.031	0.003
3.9	0.034	0.003
4.05	0.037	0.004
4.23	0.041	0.004
4.42	0.045	0.004
4.61	0.05	0.005
4.82	0.055	0.005
5.04	0.061	0.003
5.27	0.068	0.003
5.48	0.075	0.003
5.7	0.082	0.003
5.94	0.091	0.004
6.19	0.1	0.01
6.45	0.11	0.01
6.73	0.12	0.01
7.02	0.14	0.01
7.32	0.15	0.01
7.64	0.17	0.01
7.98	0.19	0.01
8.32	0.22	0.01
8.69	0.25	0.01
9.06	0.28	0.01
9.46	0.31	0.01
9.89	0.35	0.02
10.26	0.39	0.02
10.33	0.4	0.02
10.61	0.43	0.02
10.99	0.48	0.02
11.37	0.53	0.02
11.77	0.59	0.02
12.17	0.65	0.03
12.61	0.73	0.03
13.04	0.8	0.03
13.51	0.88	0.04
13.97	0.96	0.04
14.49	1.07	0.04
14.97	1.18	0.05
15.52	1.32	0.05
16.03	1.46	0.06
16.62	1.63	0.07
17.19	1.81	0.07
17.81	2.02	0.08
18.43	2.25	0.09
19.09	2.51	0.1
19.77	2.81	0.11
20.43	3.11	0.13
20.98	3.38	0.14
21.71	3.75	0.15
22.42	4.16	0.17
23.2	4.61	0.19
23.96	5.09	0.21
24.77	5.64	0.23
25.61	6.26	0.26
26.47	6.92	0.28
27.4	7.67	0.31
28.3	8.49	0.35
29.25	9.38	0.38
30.23	10.36	0.42
31.24	11.42	0.47
32.29	12.57	0.51
33.39	13.86	0.57
34.52	15.26	0.62
35.69	16.77	0.68
36.9	18.41	0.75
38.15	20.18	0.82
39.44	22.1	0.9
40.77	24.13	0.98
42.3	26.62	1.08
43.95	29.38	1.2
45.66	32.39	1.32
47.41	35.69	1.45
49.21	39.22	1.6
51.15	42.99	1.75
55.17	51.3	2.09
55.22	51.35	2.09
57.37	56.01	2.28
59.54	60.91	2.48
61.85	66.15	2.69
64.25	71.58	2.91
66.76	77.36	3.14
69.32	83.57	3.4
72.04	90.18	3.66
74.86	97.04	3.94
77.76	104.26	4.24
80.78	111.77	4.54
83.92	119.6	4.86
87.19	127.71	5.19
90.58	136.07	5.53
94.11	144.82	5.88
97.77	153.8	6.25
101.58	163	6.63
104.53	170.1	6.91
109.22	181.24	7.37
113.9	191.92	7.8
118.57	202.46	8.23
123.25	212.52	8.64
127.94	222.52	9.04
132.65	232.14	9.43
137.27	241.51	9.81
141.95	250.54	10.18
146.65	259.4	10.54
151.33	267.6	10.87
156.02	275.6	11.2
160.7	283.15	11.5
165.38	290.59	11.8
170.07	297.46	12.08
174.75	304.55	12.37
179.44	311.4	12.65
184.12	317.71	12.91
188.8	323.92	13.16
193.48	329.79	13.4
198.16	335.46	13.63
202.85	341.19	13.86
207.53	346.46	14.07
212.21	351.01	14.26
216.89	355.15	14.43
221.57	359.73	14.61
226.26	364.38	14.8
230.94	367.98	14.95
235.62	371.81	15.1
240.31	375.4	15.25
245	379.67	15.42
249.69	383.66	15.58
254.36	386.86	15.71
259.05	389.65	15.83
263.72	391.79	15.91
268.41	394.28	16.02
273.1	396.46	16.1
277.79	398.07	16.17
282.48	401.08	16.29
287.17	404.3	16.42
291.87	406.24	16.5
296.6	407.19	16.54

System: lithium silicide (Li15Si4); phases: Crystal
Fixed: Pressure, kPa = 101.325
Property: Molar heat capacity at constant pressure, J/K/mol (Crystal); method: DSC
Temperature, K	Molar heat capacity at constant pressure, J/K/mol	uncertainty
298.48	424.48	17.24
308.38	432.05	17.55
318.27	438.12	17.8
328.16	443.31	18.01
338.05	452.62	18.39
347.95	455.43	18.5
357.84	456.73	18.55
367.73	465.17	18.9
377.62	470.15	19.1
387.51	475.78	19.33
397.41	476.21	19.34

System: lithium silicide (Li15Si4); phases: Crystal
Fixed: Pressure, kPa = 101.325
Property: Molar heat capacity at constant pressure, J/K/mol (Crystal); method: RELAXCAL
Temperature, K	Molar heat capacity at constant pressure, J/K/mol	uncertainty
5	0.0589	0.0057
10	0.3648	0.0152
15	1.216	0.057
20	2.926	0.114
25	5.89	0.247
30	10.241	0.418
35	16.036	0.646
40	23.18	0.95
50	40.85	1.71
60	60.42	2.47
70	84.55	3.42
80	110.01	4.56
90	135.47	5.51
100	160.36	6.46
110	183.92	7.41
120	206.34	8.36
130	227.05	9.31
140	246.62	10.07
150	264.48	10.83
160	281.2	11.4
170	296.59	11.97
180	310.65	12.54
190	323.76	13.11
200	335.73	13.68
210	346.75	14.06
220	357.01	14.44
230	366.51	14.82
240	375.44	15.2
250	383.8	15.58
260	391.78	15.96
270	399.57	16.15
280	406.98	16.53
290	414.39	16.91
298.15	420.47	17.1
300	421.8	17.1
310	432.82	17.67
320	439.47	17.86
330	445.36	18.05
340	451.06	18.24
350	456.38	18.62
360	461.32	18.81
370	465.88	19
380	470.25	19.19
390	474.43	19.19
400	478.61	19.38

System: lithium silicide (Li15Si4); phases: Crystal
Fixed: Pressure, kPa = 101.325
Property: Molar entropy, J/K/mol (Crystal); method: RELAXCAL
Temperature, K	Molar entropy, J/K/mol	uncertainty
5	0.02774	0.00399
10	0.14174	0.00874
15	0.437	0.038
20	1.007	0.057
25	1.957	0.114
30	3.401	0.209
35	5.396	0.323
40	7.98	0.57
50	15.01	0.95
60	24.13	1.52
70	35.15	2.09
80	48.07	2.85
90	62.51	3.8
100	78.09	4.75
110	94.43	5.7
120	111.53	6.84
130	128.82	7.79
140	146.3	8.93
150	163.97	10.07
160	181.64	11.02
170	199.12	12.16
180	216.41	13.11
190	233.7	14.25
200	250.61	15.2
210	267.14	16.34
220	283.48	17.29
230	299.63	18.24
240	315.4	19.19
250	330.98	20.14
260	346.18	21.09
270	361	22.04
280	375.82	22.99
290	390.07	23.75
298.15	401.66	24.51
300	404.32	24.7
310	418.38	25.46
320	432.25	26.41
330	445.93	27.17
340	459.23	27.93
350	472.34	28.69
360	485.26	29.64
370	497.99	30.4
380	510.53	31.16
390	522.69	31.92
400	534.85	32.68

System: lithium silicide (Li15Si4); phases: Crystal
Fixed: Pressure, kPa = 101.325
Property: Molar enthalpy function {Hm(T)-Hm(0)}/T, J/K/mol (Crystal); method: RELAXCAL
Temperature, K	Molar enthalpy function {Hm(T)-Hm(0)}/T, J/K/mol	uncertainty
5	0.0285	0.0038
10	0.1197	0.0057
15	0.342	0.019
20	0.779	0.038
25	1.501	0.057
30	2.66	0.19
35	4.18	0.19
40	6.08	0.19
50	11.21	0.38
60	17.86	0.76
70	25.65	1.14
80	34.58	1.33
90	44.46	1.9
100	54.72	2.28
110	65.36	2.66
120	76.19	3.04
130	87.02	3.61
140	97.66	3.99
150	108.3	4.37
160	118.56	4.75
170	128.63	5.32
180	138.32	5.7
190	147.63	6.08
200	156.75	6.46
210	165.49	6.65
220	174.04	7.03
230	182.21	7.41
240	190	7.79
250	197.6	7.98
260	205.01	8.36
270	212.04	8.55
280	218.88	8.93
290	225.53	9.12
298.15	230.66	9.31
300	231.99	9.5
310	238.26	9.69
320	244.34	9.88
330	250.42	10.26
340	256.31	10.45
350	261.82	10.64
360	267.33	10.83
370	272.65	11.02
380	277.78	11.21
390	282.72	11.4
400	287.66	11.78
