Measured thermophysical data. Surface tension measurements with validated accuracy for four 1-alkyl-3-methylimidazolium based ionic liquids
Source: J. Chem. Thermodyn., 2010, 10.1016/j.jct.2009.09.007
Compound 1: 1-butyl-3-methylimidazolium tetrafluoroborate, C8H15BF4N2, InChI=1S/C8H15N2.BF4/c1-3-4-5-10-7-6-9(2)8-10;2-1(3,4)5/h6-8H,3-5H2,1-2H3;/q+1;-1, purity 99.9%
Compound 2: 1-ethyl-3-methylimidazolium bis((trifluoromethyl)sulfonyl)imide, C8H11F6N3O4S2, InChI=1S/C6H11N2.C2F6NO4S2/c1-3-8-5-4-7(2)6-8;3-1(4,5)14(10,11)9-15(12,13)2(6,7)8/h4-6H,3H2,1-2H3;/q+1;-1, purity 99.9%
Compound 3: 1-butyl-3-methylimidazolium bis(trifluoromethylsulfonyl)imide, C10H15F6N3O4S2, InChI=1S/C8H15N2.C2F6NO4S2/c1-3-4-5-10-7-6-9(2)8-10;3-1(4,5)14(10,11)9-15(12,13)2(6,7)8/h6-8H,3-5H2,1-2H3;/q+1;-1, purity 99.9%
Compound 4: 1-hexyl-3-methylimidazolium bis[(trifluoromethyl)sulfonyl]imide, C12H19F6N3O4S2, InChI=1S/C10H19N2.C2F6NO4S2/c1-3-4-5-6-7-12-9-8-11(2)10-12;3-1(4,5)14(10,11)9-15(12,13)2(6,7)8/h8-10H,3-7H2,1-2H3;/q+1;-1, purity 99.9%

System: 1-butyl-3-methylimidazolium tetrafluoroborate; phases: Liquid, Air at 1 atmosphere
Property: Surface tension liquid-gas, N/m (Liquid); method: Wilhelmy plate method
Temperature, K	Surface tension liquid-gas, N/m	uncertainty
284.17	0.04529	7e-05
288.28	0.04498	0.00013
293.32	0.04456	0.00011
298.48	0.04426	0.0001
303.41	0.04384	0.0001
308.38	0.04368	0.00015
313.79	0.04321	0.0002
318.15	0.043	0.00015
323.03	0.04258	0.00033
327.8	0.04246	0.0001
333.11	0.04215	0.00027
337.64	0.04196	0.0001
342.4	0.04156	0.00034
348.74	0.0413	0.00019
351.23	0.04089	0.00018

System: 1-butyl-3-methylimidazolium tetrafluoroborate; phases: Liquid, Air at 1 atmosphere
Property: Surface tension liquid-gas, N/m (Liquid); method: Ring tensiometer
Temperature, K	Surface tension liquid-gas, N/m	uncertainty
284.25	0.04544	0.00061
288.35	0.04515	0.0006
293.48	0.04457	0.0006
298.5	0.04441	0.00059
303.51	0.04405	0.00059
308.42	0.04363	0.00059
313.73	0.04321	0.00058
318.19	0.04319	0.00058
323.01	0.04284	0.00058
327.9	0.04262	0.00057
333.12	0.04207	0.00057
337.65	0.04178	0.00056
342.32	0.04171	0.00056
348.62	0.04116	0.00056
351.44	0.04085	0.00056

System: 1-ethyl-3-methylimidazolium bis((trifluoromethyl)sulfonyl)imide; phases: Liquid, Air at 1 atmosphere
Property: Surface tension liquid-gas, N/m (Liquid); method: Wilhelmy plate method
Temperature, K	Surface tension liquid-gas, N/m	uncertainty
283.16	0.03678	7e-05
287.3	0.03658	7e-05
292.6	0.03635	6e-05
297.89	0.03613	6e-05
302.66	0.03588	6e-05
308.82	0.03561	6e-05
313.3	0.03536	4e-05
317.77	0.03514	7e-05
323.19	0.03484	4e-05
327.91	0.03466	4e-05
333.82	0.03429	0.00018
337.84	0.03406	0.00013
343.6	0.03379	0.00023
346.93	0.03366	0.00016
351.54	0.03342	0.00018

System: 1-ethyl-3-methylimidazolium bis((trifluoromethyl)sulfonyl)imide; phases: Liquid, Air at 1 atmosphere
Property: Surface tension liquid-gas, N/m (Liquid); method: Ring tensiometer
Temperature, K	Surface tension liquid-gas, N/m	uncertainty
283.2	0.03707	0.00051
297.95	0.03612	0.00064
323.16	0.03481	0.00048
327.97	0.03473	0.00048
333.86	0.0341	0.00047
337.88	0.03409	0.00047
346.9	0.03374	0.00047
351.67	0.0332	0.00046

System: 1-butyl-3-methylimidazolium bis(trifluoromethylsulfonyl)imide; phases: Liquid, Air at 1 atmosphere
Property: Surface tension liquid-gas, N/m (Liquid); method: Wilhelmy plate method
Temperature, K	Surface tension liquid-gas, N/m	uncertainty
284.15	0.03346	0.00011
287.81	0.03327	0.00011
294.2	0.03302	6e-05
298.35	0.03285	6e-05
301.96	0.03266	7e-05
306.81	0.03244	7e-05
310.81	0.03226	7e-05
317.94	0.03197	6e-05
322.99	0.03174	4e-05
327.92	0.03158	7e-05
332.97	0.0313	7e-05
337.12	0.03117	0.00022
343.28	0.03091	0.00023
347.82	0.03076	0.00015
351.56	0.03053	0.00013

System: 1-butyl-3-methylimidazolium bis(trifluoromethylsulfonyl)imide; phases: Liquid, Air at 1 atmosphere
Property: Surface tension liquid-gas, N/m (Liquid); method: Ring tensiometer
Temperature, K	Surface tension liquid-gas, N/m	uncertainty
284.19	0.03348	0.00047
298.41	0.03304	0.00046
317.93	0.03197	0.00045
348.05	0.03041	0.00043

System: 1-hexyl-3-methylimidazolium bis[(trifluoromethyl)sulfonyl]imide; phases: Liquid, Air at 1 atmosphere
Property: Surface tension liquid-gas, N/m (Liquid); method: Wilhelmy plate method
Temperature, K	Surface tension liquid-gas, N/m	uncertainty
283.17	0.03234	9e-05
287.86	0.03207	0.00016
293.15	0.03181	6e-05
298.26	0.03159	7e-05
303.16	0.03134	7e-05
308.99	0.03099	0.00011
314.39	0.03071	6e-05
318.21	0.03048	7e-05
323.09	0.03026	9e-05
327.93	0.03	9e-05
333.53	0.0298	0.00013
337.7	0.02945	0.00011
342.32	0.02928	0.00018
347.3	0.02906	0.00013
351.11	0.02891	0.00032
