Measured thermophysical data. Thermophysical properties of the binary mixtures (1,8-cineole + 1-alkanol) at T = (298.15 and 313.15) K and at atmospheric pressure
Source: J. Chem. Thermodyn., 2010, 10.1016/j.jct.2009.08.016
Compound 1: 1,3,3-trimethyl-2-oxabicyclo[2.2.2]octane, C10H18O, InChI=1S/C10H18O/c1-9(2)8-4-6-10(3,11-9)7-5-8/h8H,4-7H2,1-3H3
Compound 2: ethanol, C2H6O, InChI=1S/C2H6O/c1-2-3/h3H,2H2,1H3
Compound 3: butan-1-ol, C4H10O, InChI=1S/C4H10O/c1-2-3-4-5/h5H,2-4H2,1H3
Compound 4: pentan-1-ol, C5H12O, InChI=1S/C5H12O/c1-2-3-4-5-6/h6H,2-5H2,1H3
Compound 5: propan-1-ol, C3H8O, InChI=1S/C3H8O/c1-2-3-4/h4H,2-3H2,1H3

System: 1,3,3-trimethyl-2-oxabicyclo[2.2.2]octane; phases: Liquid
Fixed: Pressure, kPa = 101.325
Property: Refractive index (Na D-line) (Liquid); method: UNKNOWN
Temperature, K	Refractive index (Na D-line)	uncertainty
298.15	1.45531	0.0002
313.15	1.44834	0.0002

System: 1,3,3-trimethyl-2-oxabicyclo[2.2.2]octane; phases: Liquid
Fixed: Pressure, kPa = 101.325
Property: Speed of sound, m/s (Liquid); method: Sing-around technique in a fixed-path interferometer
Temperature, K	Speed of sound, m/s	uncertainty
298.15	1280.1	1.1
313.15	1221.1	1.1

System: 1,3,3-trimethyl-2-oxabicyclo[2.2.2]octane; phases: Liquid
Fixed: Pressure, kPa = 101.325
Property: Mass density, kg/m3 (Liquid); method: Vibrating tube method
Temperature, K	Mass density, kg/m3	uncertainty
298.15	920.24	0.23
313.15	907.29	0.23

System: ethanol; phases: Liquid
Fixed: Pressure, kPa = 101.325
Property: Refractive index (Na D-line) (Liquid); method: UNKNOWN
Temperature, K	Refractive index (Na D-line)	uncertainty
298.15	1.35935	5e-05
313.15	1.35315	5e-05

System: ethanol; phases: Liquid
Fixed: Pressure, kPa = 101.325
Property: Speed of sound, m/s (Liquid); method: Sing-around technique in a fixed-path interferometer
Temperature, K	Speed of sound, m/s	uncertainty
298.15	1144.7	0.7
313.15	1094.1	0.7

System: ethanol; phases: Liquid
Fixed: Pressure, kPa = 101.325
Property: Mass density, kg/m3 (Liquid); method: Vibrating tube method
Temperature, K	Mass density, kg/m3	uncertainty
298.15	785.61	0.13
313.15	772.55	0.14

System: butan-1-ol; phases: Liquid
Fixed: Pressure, kPa = 101.325
Property: Refractive index (Na D-line) (Liquid); method: UNKNOWN
Temperature, K	Refractive index (Na D-line)	uncertainty
298.15	1.39729	6e-05
313.15	1.39114	6e-05

System: butan-1-ol; phases: Liquid
Fixed: Pressure, kPa = 101.325
Property: Speed of sound, m/s (Liquid); method: Sing-around technique in a fixed-path interferometer
Temperature, K	Speed of sound, m/s	uncertainty
298.15	1239.7	0.7
313.15	1189.8	0.7

System: butan-1-ol; phases: Liquid
Fixed: Pressure, kPa = 101.325
Property: Mass density, kg/m3 (Liquid); method: Vibrating tube method
Temperature, K	Mass density, kg/m3	uncertainty
298.15	805.73	0.15
313.15	794.12	0.16

System: pentan-1-ol; phases: Liquid
Fixed: Pressure, kPa = 101.325
Property: Refractive index (Na D-line) (Liquid); method: UNKNOWN
Temperature, K	Refractive index (Na D-line)	uncertainty
298.15	1.40784	0.0002
313.15	1.40178	0.0002

System: pentan-1-ol; phases: Liquid
Fixed: Pressure, kPa = 101.325
Property: Speed of sound, m/s (Liquid); method: Sing-around technique in a fixed-path interferometer
Temperature, K	Speed of sound, m/s	uncertainty
298.15	1275.4	1.2
313.15	1225.4	1.2

System: pentan-1-ol; phases: Liquid
Fixed: Pressure, kPa = 101.325
Property: Mass density, kg/m3 (Liquid); method: Vibrating tube method
Temperature, K	Mass density, kg/m3	uncertainty
298.15	810.9	0.31
313.15	799.75	0.31

System: propan-1-ol; phases: Liquid
Fixed: Pressure, kPa = 101.325
Property: Refractive index (Na D-line) (Liquid); method: UNKNOWN
Temperature, K	Refractive index (Na D-line)	uncertainty
298.15	1.38307	0.0002
313.15	1.37674	0.0002

System: propan-1-ol; phases: Liquid
Fixed: Pressure, kPa = 101.325
Property: Speed of sound, m/s (Liquid); method: Sing-around technique in a fixed-path interferometer
Temperature, K	Speed of sound, m/s	uncertainty
298.15	1208.9	1.3
313.15	1157.1	1.3

System: propan-1-ol; phases: Liquid
Fixed: Pressure, kPa = 101.325
Property: Mass density, kg/m3 (Liquid); method: Vibrating tube method
Temperature, K	Mass density, kg/m3	uncertainty
298.15	800.64	0.31
313.15	788.58	0.31

System: ethanol + 1,3,3-trimethyl-2-oxabicyclo[2.2.2]octane; phases: Liquid
Fixed: Pressure, kPa = 101.325
Property: Refractive index (Na D-line) (Liquid); method: Standard Abbe refractometry
Temperature, K	Mole fraction of 1,3,3-trimethyl-2-oxabicyclo[2.2.2]octane	Refractive index (Na D-line)	uncertainty
298.15	0	1.35935	0.00031
298.15	0.0496	1.37243	0.00057
298.15	0.1018	1.38374	0.00048
298.15	0.2075	1.40178	0.00044
298.15	0.2958	1.41324	0.00039
298.15	0.4073	1.42462	0.00037
298.15	0.502	1.43222	0.00036
298.15	0.6008	1.4388	0.00036
298.15	0.6969	1.44393	0.00036
298.15	0.8036	1.4487	0.00036
298.15	0.8992	1.45221	0.00037
298.15	0.9611	1.45419	0.00037
298.15	1	1.45531	0.00037
313.15	0	1.35315	0.00031
313.15	0.0496	1.36619	0.00057
313.15	0.1018	1.37739	0.00048
313.15	0.2075	1.3953	0.00044
313.15	0.2958	1.40667	0.00039
313.15	0.4073	1.41796	0.00037
313.15	0.502	1.42553	0.00036
313.15	0.6008	1.432	0.00036
313.15	0.6969	1.43715	0.00036
313.15	0.8036	1.44184	0.00036
313.15	0.8992	1.44526	0.00037
313.15	0.9611	1.44724	0.00037
313.15	1	1.44834	0.00037

System: ethanol + 1,3,3-trimethyl-2-oxabicyclo[2.2.2]octane; phases: Liquid
Fixed: Pressure, kPa = 101
Property: Speed of sound, m/s (Liquid); method: Sing-around technique in a fixed-path interferometer
Temperature, K	Mole fraction of 1,3,3-trimethyl-2-oxabicyclo[2.2.2]octane	Speed of sound, m/s	uncertainty
298.15	0	1144.7	0.7
298.15	0.0496	1168.4	0.7
298.15	0.1018	1186.7	0.7
298.15	0.2075	1213.7	0.8
298.15	0.2958	1229.6	0.8
298.15	0.4073	1245.3	0.8
298.15	0.502	1255.5	0.9
298.15	0.6008	1264.7	1
298.15	0.6969	1270.7	1
298.15	0.8036	1275.8	1.1
298.15	0.8992	1278.7	1.2
298.15	0.9611	1280.4	1.2
298.15	1	1280.1	1.2
313.15	0	1094.1	0.7
313.15	0.0496	1113.3	0.7
313.15	0.1018	1130.6	0.7
313.15	0.2075	1157.2	0.7
313.15	0.2958	1173.6	0.8
313.15	0.4073	1189	0.8
313.15	0.502	1198.9	0.9
313.15	0.6008	1206.9	0.9
313.15	0.6969	1212.9	1
313.15	0.8036	1217.7	1.1
313.15	0.8992	1220.4	1.1
313.15	0.9611	1221.5	1.2
313.15	1	1221.1	1.2

System: ethanol + 1,3,3-trimethyl-2-oxabicyclo[2.2.2]octane; phases: Liquid
Fixed: Pressure, kPa = 101
Property: Mass density, kg/m3 (Liquid); method: Vibrating tube method
Temperature, K	Mole fraction of 1,3,3-trimethyl-2-oxabicyclo[2.2.2]octane	Mass density, kg/m3	uncertainty
298.15	0	785.61	0.14
298.15	0.0496	804.82	0.15
298.15	0.1018	821.68	0.14
298.15	0.2075	847.95	0.13
298.15	0.2958	864.33	0.13
298.15	0.4073	880.16	0.14
298.15	0.502	890.64	0.14
298.15	0.6008	899.4	0.15
298.15	0.6969	906.27	0.17
298.15	0.8036	912.42	0.18
298.15	0.8992	916.75	0.2
298.15	0.9611	919.09	0.22
298.15	1	920.24	0.23
313.15	0	772.55	0.14
313.15	0.0496	791.71	0.15
313.15	0.1018	808.55	0.15
313.15	0.2075	834.78	0.14
313.15	0.2958	851.16	0.14
313.15	0.4073	867	0.14
313.15	0.502	877.48	0.15
313.15	0.6008	886.26	0.16
313.15	0.6969	893.15	0.17
313.15	0.8036	899.33	0.19
313.15	0.8992	903.71	0.21
313.15	0.9611	906.1	0.22
313.15	1	907.29	0.23

System: propan-1-ol + 1,3,3-trimethyl-2-oxabicyclo[2.2.2]octane; phases: Liquid
Fixed: Pressure, kPa = 101.325
Property: Refractive index (Na D-line) (Liquid); method: Standard Abbe refractometry
Temperature, K	Mole fraction of 1,3,3-trimethyl-2-oxabicyclo[2.2.2]octane	Refractive index (Na D-line)	uncertainty
298.15	0	1.38307	0.00037
298.15	0.0551	1.39204	0.00048
298.15	0.1022	1.3988	0.00045
298.15	0.2043	1.41125	0.00043
298.15	0.308	1.42119	0.00041
298.15	0.4028	1.4287	0.0004
298.15	0.5074	1.43556	0.00039
298.15	0.6026	1.44079	0.00038
298.15	0.704	1.44551	0.00038
298.15	0.8045	1.44945	0.00038
298.15	0.8917	1.45236	0.00037
298.15	0.9584	1.45427	0.00037
298.15	1	1.45531	0.00037
313.15	0	1.37674	0.00037
313.15	0.0551	1.38565	0.00048
313.15	0.1022	1.39235	0.00045
313.15	0.2043	1.40458	0.00043
313.15	0.308	1.41447	0.00041
313.15	0.4028	1.42189	0.0004
313.15	0.5074	1.4288	0.00039
313.15	0.6026	1.43397	0.00038
313.15	0.704	1.43865	0.00038
313.15	0.8045	1.44254	0.00038
313.15	0.8917	1.44541	0.00037
313.15	0.9584	1.44731	0.00037
313.15	1	1.44834	0.00037

System: propan-1-ol + 1,3,3-trimethyl-2-oxabicyclo[2.2.2]octane; phases: Liquid
Fixed: Pressure, kPa = 101
Property: Speed of sound, m/s (Liquid); method: Sing-around technique in a fixed-path interferometer
Temperature, K	Mole fraction of 1,3,3-trimethyl-2-oxabicyclo[2.2.2]octane	Speed of sound, m/s	uncertainty
298.15	0	1208.9	1.2
298.15	0.0551	1221.2	1.2
298.15	0.1022	1231.2	1.2
298.15	0.2043	1247.2	1.2
298.15	0.308	1258.7	1.2
298.15	0.4028	1266	1.2
298.15	0.5074	1272.1	1.2
298.15	0.6026	1276.4	1.2
298.15	0.704	1279.2	1.2
298.15	0.8045	1281	1.2
298.15	0.8917	1281.4	1.2
298.15	0.9584	1280.7	1.2
298.15	1	1280.1	1.2
313.15	0	1157.1	1.2
313.15	0.0551	1169	1.2
313.15	0.1022	1178.2	1.2
313.15	0.2043	1192.8	1.2
313.15	0.308	1203.3	1.2
313.15	0.4028	1209.8	1.2
313.15	0.5074	1215.4	1.2
313.15	0.6026	1219.1	1.2
313.15	0.704	1221.7	1.2
313.15	0.8045	1223	1.2
313.15	0.8917	1223.1	1.2
313.15	0.9584	1222.3	1.2
313.15	1	1221.1	1.2

System: propan-1-ol + 1,3,3-trimethyl-2-oxabicyclo[2.2.2]octane; phases: Liquid
Fixed: Pressure, kPa = 101
Property: Mass density, kg/m3 (Liquid); method: Vibrating tube method
Temperature, K	Mole fraction of 1,3,3-trimethyl-2-oxabicyclo[2.2.2]octane	Mass density, kg/m3	uncertainty
298.15	0	800.64	0.24
298.15	0.0551	815.82	0.24
298.15	0.1022	827.43	0.24
298.15	0.2043	848.41	0.24
298.15	0.308	865.28	0.24
298.15	0.4028	877.8	0.23
298.15	0.5074	889.13	0.23
298.15	0.6026	897.58	0.23
298.15	0.704	905.16	0.23
298.15	0.8045	911.4	0.23
298.15	0.8917	915.93	0.23
298.15	0.9584	918.81	0.23
298.15	1	920.24	0.23
313.15	0	788.58	0.24
313.15	0.0551	803.71	0.24
313.15	0.1022	815.01	0.24
313.15	0.2043	835.78	0.24
313.15	0.308	852.53	0.24
313.15	0.4028	864.83	0.24
313.15	0.5074	876.11	0.23
313.15	0.6026	884.6	0.23
313.15	0.704	892.16	0.23
313.15	0.8045	898.41	0.23
313.15	0.8917	902.91	0.23
313.15	0.9584	905.83	0.23
313.15	1	907.29	0.23

System: butan-1-ol + 1,3,3-trimethyl-2-oxabicyclo[2.2.2]octane; phases: Liquid
Fixed: Pressure, kPa = 101.325
Property: Refractive index (Na D-line) (Liquid); method: Standard Abbe refractometry
Temperature, K	Mole fraction of 1,3,3-trimethyl-2-oxabicyclo[2.2.2]octane	Refractive index (Na D-line)	uncertainty
298.15	0	1.39729	0.00031
298.15	0.0494	1.40279	0.00038
298.15	0.0997	1.40779	0.00037
298.15	0.2007	1.41686	0.00036
298.15	0.2916	1.42378	0.00035
298.15	0.3893	1.43024	0.00035
298.15	0.497	1.43634	0.00035
298.15	0.5913	1.44102	0.00035
298.15	0.6964	1.44551	0.00035
298.15	0.7977	1.44927	0.00036
298.15	0.9089	1.4528	0.00037
298.15	0.9629	1.45356	0.00037
298.15	1	1.45531	0.00037
313.15	0	1.39114	0.00031
313.15	0.0494	1.3965	0.00038
313.15	0.0997	1.4015	0.00036
313.15	0.2007	1.41049	0.00036
313.15	0.2916	1.41728	0.00035
313.15	0.3893	1.42366	0.00035
313.15	0.497	1.42966	0.00035
313.15	0.5913	1.43428	0.00035
313.15	0.6964	1.43869	0.00035
313.15	0.7977	1.4424	0.00036
313.15	0.9089	1.44588	0.00036
313.15	0.9629	1.44661	0.00037
313.15	1	1.44834	0.00037

System: butan-1-ol + 1,3,3-trimethyl-2-oxabicyclo[2.2.2]octane; phases: Liquid
Fixed: Pressure, kPa = 101
Property: Speed of sound, m/s (Liquid); method: Sing-around technique in a fixed-path interferometer
Temperature, K	Mole fraction of 1,3,3-trimethyl-2-oxabicyclo[2.2.2]octane	Speed of sound, m/s	uncertainty
298.15	0	1239.7	0.7
298.15	0.0494	1248.2	0.7
298.15	0.0997	1254.8	0.8
298.15	0.2007	1264.2	0.8
298.15	0.2916	1270.1	0.8
298.15	0.3893	1275.1	0.9
298.15	0.497	1278.9	0.9
298.15	0.5913	1281	1
298.15	0.6964	1282.6	1
298.15	0.7977	1283.8	1.1
298.15	0.9089	1282.5	1.2
298.15	0.9629	1281.3	1.2
298.15	1	1280.1	1.2
313.15	0	1189.8	0.7
313.15	0.0494	1197.2	0.7
313.15	0.0997	1203.4	0.8
313.15	0.2007	1211.4	0.8
313.15	0.2916	1216.1	0.8
313.15	0.3893	1220.3	0.9
313.15	0.497	1223.3	0.9
313.15	0.5913	1224.8	1
313.15	0.6964	1226	1
313.15	0.7977	1226	1.1
313.15	0.9089	1223.9	1.2
313.15	0.9629	1222.6	1.2
313.15	1	1221.1	1.2

System: butan-1-ol + 1,3,3-trimethyl-2-oxabicyclo[2.2.2]octane; phases: Liquid
Fixed: Pressure, kPa = 101
Property: Mass density, kg/m3 (Liquid); method: Vibrating tube method
Temperature, K	Mole fraction of 1,3,3-trimethyl-2-oxabicyclo[2.2.2]octane	Mass density, kg/m3	uncertainty
298.15	0	805.73	0.13
298.15	0.0494	817	0.14
298.15	0.0997	827.27	0.14
298.15	0.2007	845.31	0.14
298.15	0.2916	859.07	0.14
298.15	0.3893	871.88	0.14
298.15	0.497	883.91	0.15
298.15	0.5913	892.98	0.16
298.15	0.6964	901.77	0.17
298.15	0.7977	909.07	0.19
298.15	0.9089	915.78	0.21
298.15	0.9629	918.54	0.22
298.15	1	920.24	0.23
313.15	0	794.12	0.14
313.15	0.0494	805.25	0.14
313.15	0.0997	815.51	0.14
313.15	0.2007	833.33	0.14
313.15	0.2916	846.89	0.14
313.15	0.3893	859.45	0.14
313.15	0.497	871.33	0.15
313.15	0.5913	880.29	0.16
313.15	0.6964	888.96	0.17
313.15	0.7977	896.17	0.19
313.15	0.9089	902.85	0.21
313.15	0.9629	905.6	0.22
313.15	1	907.29	0.23

System: pentan-1-ol + 1,3,3-trimethyl-2-oxabicyclo[2.2.2]octane; phases: Liquid
Fixed: Pressure, kPa = 101.325
Property: Refractive index (Na D-line) (Liquid); method: Standard Abbe refractometry
Temperature, K	Mole fraction of 1,3,3-trimethyl-2-oxabicyclo[2.2.2]octane	Refractive index (Na D-line)	uncertainty
298.15	0	1.40784	0.00037
298.15	0.0482	1.41165	0.0004
298.15	0.0971	1.41529	0.00039
298.15	0.1984	1.42208	0.00039
298.15	0.2987	1.42811	0.00039
298.15	0.3971	1.43334	0.00038
298.15	0.4942	1.43798	0.00038
298.15	0.5988	1.44247	0.00038
298.15	0.7173	1.44692	0.00038
298.15	0.797	1.44962	0.00037
298.15	0.9138	1.4531	0.00037
298.15	0.9482	1.45404	0.00037
298.15	1	1.45531	0.00037
313.15	0	1.40178	0.00037
313.15	0.0482	1.40551	0.0004
313.15	0.0971	1.40909	0.00039
313.15	0.1984	1.41576	0.00039
313.15	0.2987	1.42169	0.00039
313.15	0.3971	1.42681	0.00038
313.15	0.4942	1.43137	0.00038
313.15	0.5988	1.43577	0.00038
313.15	0.7173	1.44013	0.00038
313.15	0.797	1.44276	0.00037
313.15	0.9138	1.44618	0.00037
313.15	0.9482	1.44709	0.00037
313.15	1	1.44834	0.00037

System: pentan-1-ol + 1,3,3-trimethyl-2-oxabicyclo[2.2.2]octane; phases: Liquid
Fixed: Pressure, kPa = 101
Property: Speed of sound, m/s (Liquid); method: Sing-around technique in a fixed-path interferometer
Temperature, K	Mole fraction of 1,3,3-trimethyl-2-oxabicyclo[2.2.2]octane	Speed of sound, m/s	uncertainty
298.15	0	1275.4	1.2
298.15	0.0482	1280	1.2
298.15	0.0971	1283.2	1.2
298.15	0.1984	1287.8	1.2
298.15	0.2987	1290.1	1.2
298.15	0.3971	1291.2	1.2
298.15	0.4942	1291.3	1.2
298.15	0.5988	1291.2	1.2
298.15	0.7173	1289.9	1.2
298.15	0.797	1288.2	1.2
298.15	0.9138	1284.5	1.2
298.15	0.9482	1282.8	1.2
298.15	1	1280.1	1.2
313.15	0	1225.4	1.2
313.15	0.0482	1229.2	1.2
313.15	0.0971	1231.8	1.2
313.15	0.1984	1235.3	1.2
313.15	0.2987	1236.9	1.2
313.15	0.3971	1237.2	1.2
313.15	0.4942	1236.5	1.2
313.15	0.5988	1235.4	1.2
313.15	0.7173	1233	1.2
313.15	0.797	1231	1.2
313.15	0.9138	1226.8	1.2
313.15	0.9482	1224.8	1.2
313.15	1	1221.1	1.2

System: pentan-1-ol + 1,3,3-trimethyl-2-oxabicyclo[2.2.2]octane; phases: Liquid
Fixed: Pressure, kPa = 101
Property: Mass density, kg/m3 (Liquid); method: Vibrating tube method
Temperature, K	Mole fraction of 1,3,3-trimethyl-2-oxabicyclo[2.2.2]octane	Mass density, kg/m3	uncertainty
298.15	0	810.9	0.24
298.15	0.0482	819.93	0.24
298.15	0.0971	828.45	0.24
298.15	0.1984	844.25	0.24
298.15	0.2987	858.09	0.24
298.15	0.3971	870.12	0.23
298.15	0.4942	880.76	0.23
298.15	0.5988	891.07	0.23
298.15	0.7173	901.36	0.23
298.15	0.797	907.49	0.23
298.15	0.9138	915.4	0.23
298.15	0.9482	917.47	0.23
298.15	1	920.24	0.23
313.15	0	799.75	0.24
313.15	0.0482	808.62	0.24
313.15	0.0971	817.03	0.24
313.15	0.1984	832.6	0.24
313.15	0.2987	846.23	0.24
313.15	0.3971	858.07	0.24
313.15	0.4942	868.53	0.23
313.15	0.5988	878.67	0.23
313.15	0.7173	888.8	0.23
313.15	0.797	894.89	0.23
313.15	0.9138	902.62	0.23
313.15	0.9482	904.62	0.23
313.15	1	907.29	0.23
