Measured thermophysical data. Physical properties of pyridinium ionic liquids
Source: J. Chem. Thermodyn., 2012, 10.1016/j.jct.2012.06.018
Compound 1: 1-ethylpyridinium bis[(trifluoromethyl)sulfonyl]imide, C9H10F6N2O4S2, InChI=1S/C7H10N.C2F6NO4S2/c1-2-8-6-4-3-5-7-8;3-1(4,5)14(10,11)9-15(12,13)2(6,7)8/h3-7H,2H2,1H3;/q+1;-1, purity 99%
Compound 2: 1-butylpyridinium bis[(trifluoromethyl)sulfonyl]imide, C11H14F6N2O4S2, InChI=1S/C9H14N.C2F6NO4S2/c1-2-3-7-10-8-5-4-6-9-10;3-1(4,5)14(10,11)9-15(12,13)2(6,7)8/h4-6,8-9H,2-3,7H2,1H3;/q+1;-1, purity 99%
Compound 3: 1-hexylpyridinium bis(trifluromethylsulfonyl)imide, C13H18F6N2O4S2, InChI=1S/C11H18N.C2F6NO4S2/c1-2-3-4-6-9-12-10-7-5-8-11-12;3-1(4,5)14(10,11)9-15(12,13)2(6,7)8/h5,7-8,10-11H,2-4,6,9H2,1H3;/q+1;-1, purity 99%
Compound 4: 1-butyl-2-methylpyridinium bis((trifluoromethyl)sulfonyl)amide, C12H16F6N2O4S2, InChI=1S/C10H16N.C2F6NO4S2/c1-3-4-8-11-9-6-5-7-10(11)2;3-1(4,5)14(10,11)9-15(12,13)2(6,7)8/h5-7,9H,3-4,8H2,1-2H3;/q+1;-1, purity 99%
Compound 5: 1-butyl-3-methylpyridinium 1,1,1-trifluoro-N-[(trifluoromethyl)sulfonyl]methanesulfonamide, C12H16F6N2O4S2, InChI=1S/C10H16N.C2F6NO4S2/c1-3-4-7-11-8-5-6-10(2)9-11;3-1(4,5)14(10,11)9-15(12,13)2(6,7)8/h5-6,8-9H,3-4,7H2,1-2H3;/q+1;-1, purity 99%
Compound 6: 1-butyl-4-methylpyridinium bis((trifluoromethyl)sulfonyl)amide, C12H16F6N2O4S2, InChI=1S/C10H16N.C2F6NO4S2/c1-3-4-7-11-8-5-10(2)6-9-11;3-1(4,5)14(10,11)9-15(12,13)2(6,7)8/h5-6,8-9H,3-4,7H2,1-2H3;/q+1;-1, purity 99%
Compound 7: 1-butyl-3-methylpyridinium trifluoromethanesulfonate, C11H16F3NO3S, InChI=1S/C10H16N.CHF3O3S/c1-3-4-7-11-8-5-6-10(2)9-11;2-1(3,4)8(5,6)7/h5-6,8-9H,3-4,7H2,1-2H3;(H,5,6,7)/q+1;/p-1, purity 99%
Compound 8: 1-butyl-3-methylpyridinium tetrafluoroborate, C10H16BF4N, InChI=1S/C10H16N.BF4/c1-3-4-7-11-8-5-6-10(2)9-11;2-1(3,4)5/h5-6,8-9H,3-4,7H2,1-2H3;/q+1;-1, purity 99%
Compound 9: 1-butyl-3-methylpyridinium tris(pentafluoroethyl)trifluorophosphate, C16H16F18NP, InChI=1S/C10H16N.C6F18P/c1-3-4-7-11-8-5-6-10(2)9-11;7-1(8,9)4(16,17)25(22,23,24,5(18,19)2(10,11)12)6(20,21)3(13,14)15/h5-6,8-9H,3-4,7H2,1-2H3;/q+1;-1, purity 99%

System: 1-ethylpyridinium bis[(trifluoromethyl)sulfonyl]imide; phases: Liquid
Fixed: Pressure, kPa = 101.325
Property: Mass density, kg/m3 (Liquid); method: Pycnometric method
Temperature, K	Mass density, kg/m3	uncertainty
293.15	1534	25
298.15	1532	25
303.15	1530	25
308.15	1528	25
313.15	1520	25
318.15	1519	25
323.15	1515	25

System: 1-ethylpyridinium bis[(trifluoromethyl)sulfonyl]imide; phases: Liquid
Fixed: Pressure, kPa = 101.325
Property: Viscosity, Pa*s (Liquid); method: Capillary tube (Ostwald; Ubbelohde) method
Temperature, K	Viscosity, Pa*s	uncertainty
293.15	0.047432	0.004755
298.15	0.039758	0.003986
303.15	0.033308	0.003339
308.15	0.027804	0.002788
313.15	0.023386	0.002344
318.15	0.0202	0.002025
323.15	0.017613	0.001766

System: 1-ethylpyridinium bis[(trifluoromethyl)sulfonyl]imide; phases: Liquid, Air at 1 atmosphere
Property: Surface tension liquid-gas, N/m (Liquid); method: Ring tensiometer
Temperature, K	Surface tension liquid-gas, N/m	uncertainty
293.15	0.0356	0.0006
298.15	0.0355	0.0006
303.15	0.0354	0.0006
308.15	0.0353	0.0006
313.15	0.0352	0.0006
318.15	0.0352	0.0006
323.15	0.0351	0.0006

System: 1-butylpyridinium bis[(trifluoromethyl)sulfonyl]imide; phases: Liquid
Fixed: Pressure, kPa = 101.325
Property: Mass density, kg/m3 (Liquid); method: Pycnometric method
Temperature, K	Mass density, kg/m3	uncertainty
293.15	1462	25
298.15	1456	25
303.15	1445	25
308.15	1441	25
313.15	1439	25
318.15	1437	25
323.15	1433	25

System: 1-butylpyridinium bis[(trifluoromethyl)sulfonyl]imide; phases: Liquid
Fixed: Pressure, kPa = 101.325
Property: Viscosity, Pa*s (Liquid); method: Capillary tube (Ostwald; Ubbelohde) method
Temperature, K	Viscosity, Pa*s	uncertainty
293.15	0.075614	0.007593
298.15	0.060546	0.006071
303.15	0.048109	0.004825
308.15	0.03808	0.003819
313.15	0.03237	0.003245
318.15	0.027622	0.002769
323.15	0.022749	0.002282

System: 1-butylpyridinium bis[(trifluoromethyl)sulfonyl]imide; phases: Liquid, Air at 1 atmosphere
Property: Surface tension liquid-gas, N/m (Liquid); method: Ring tensiometer
Temperature, K	Surface tension liquid-gas, N/m	uncertainty
293.15	0.035	0.0006
298.15	0.0348	0.0006
303.15	0.0345	0.0006
308.15	0.0344	0.0006
313.15	0.0343	0.0006
318.15	0.0342	0.0006
323.15	0.0341	0.0006

System: 1-hexylpyridinium bis(trifluromethylsulfonyl)imide; phases: Liquid
Fixed: Pressure, kPa = 101.325
Property: Mass density, kg/m3 (Liquid); method: Pycnometric method
Temperature, K	Mass density, kg/m3	uncertainty
293.15	1386	25
298.15	1382	25
303.15	1379	25
308.15	1373	25
313.15	1368	25
318.15	1368	25
323.15	1362	25

System: 1-hexylpyridinium bis(trifluromethylsulfonyl)imide; phases: Liquid
Fixed: Pressure, kPa = 101.325
Property: Viscosity, Pa*s (Liquid); method: Capillary tube (Ostwald; Ubbelohde) method
Temperature, K	Viscosity, Pa*s	uncertainty
293.15	0.275116	0.028492
298.15	0.245334	0.025307
303.15	0.201816	0.020694
308.15	0.153244	0.01559
313.15	0.131317	0.013304
318.15	0.10599	0.010696
323.15	0.083658	0.008415

System: 1-hexylpyridinium bis(trifluromethylsulfonyl)imide; phases: Liquid, Air at 1 atmosphere
Property: Surface tension liquid-gas, N/m (Liquid); method: Ring tensiometer
Temperature, K	Surface tension liquid-gas, N/m	uncertainty
293.15	0.0342	0.0006
298.15	0.0339	0.0006
303.15	0.0335	0.0006
308.15	0.0333	0.0005
313.15	0.033	0.0005
318.15	0.0328	0.0005
323.15	0.0326	0.0005

System: 1-butyl-2-methylpyridinium bis((trifluoromethyl)sulfonyl)amide; phases: Liquid
Fixed: Pressure, kPa = 101.325
Property: Mass density, kg/m3 (Liquid); method: Pycnometric method
Temperature, K	Mass density, kg/m3	uncertainty
293.15	1482	25
298.15	1476	25
303.15	1459	25
308.15	1450	25
313.15	1446	25
318.15	1440	25
323.15	1435	25

System: 1-butyl-2-methylpyridinium bis((trifluoromethyl)sulfonyl)amide; phases: Liquid
Fixed: Pressure, kPa = 101.325
Property: Viscosity, Pa*s (Liquid); method: Capillary tube (Ostwald; Ubbelohde) method
Temperature, K	Viscosity, Pa*s	uncertainty
293.15	0.143913	0.014634
298.15	0.095725	0.009661
303.15	0.072046	0.007236
308.15	0.056948	0.005709
313.15	0.045828	0.004596
318.15	0.037388	0.00375
323.15	0.029479	0.002958

System: 1-butyl-2-methylpyridinium bis((trifluoromethyl)sulfonyl)amide; phases: Liquid, Air at 1 atmosphere
Property: Surface tension liquid-gas, N/m (Liquid); method: Ring tensiometer
Temperature, K	Surface tension liquid-gas, N/m	uncertainty
293.15	0.0365	0.0006
298.15	0.0363	0.0006
303.15	0.0361	0.0006
308.15	0.0359	0.0006
313.15	0.0355	0.0006
318.15	0.0352	0.0006
323.15	0.035	0.0006

System: 1-butyl-3-methylpyridinium 1,1,1-trifluoro-N-[(trifluoromethyl)sulfonyl]methanesulfonamide; phases: Liquid
Fixed: Pressure, kPa = 101.325
Property: Mass density, kg/m3 (Liquid); method: Pycnometric method
Temperature, K	Mass density, kg/m3	uncertainty
293.15	1429	25
298.15	1425	25
303.15	1423	25
308.15	1421	25
313.15	1420	25
318.15	1419	25
323.15	1416	25

System: 1-butyl-3-methylpyridinium 1,1,1-trifluoro-N-[(trifluoromethyl)sulfonyl]methanesulfonamide; phases: Liquid
Fixed: Pressure, kPa = 101.325
Property: Viscosity, Pa*s (Liquid); method: Capillary tube (Ostwald; Ubbelohde) method
Temperature, K	Viscosity, Pa*s	uncertainty
293.15	0.081711	0.008213
298.15	0.064729	0.006493
303.15	0.051418	0.005153
308.15	0.04173	0.004185
313.15	0.033985	0.003407
318.15	0.029053	0.002912
323.15	0.025681	0.002574

System: 1-butyl-3-methylpyridinium 1,1,1-trifluoro-N-[(trifluoromethyl)sulfonyl]methanesulfonamide; phases: Liquid, Air at 1 atmosphere
Property: Surface tension liquid-gas, N/m (Liquid); method: Ring tensiometer
Temperature, K	Surface tension liquid-gas, N/m	uncertainty
293.15	0.0358	0.0006
298.15	0.0355	0.0006
303.15	0.0353	0.0006
308.15	0.0351	0.0006
313.15	0.0348	0.0006
318.15	0.0346	0.0006
323.15	0.0344	0.0006

System: 1-butyl-4-methylpyridinium bis((trifluoromethyl)sulfonyl)amide; phases: Liquid
Fixed: Pressure, kPa = 101.325
Property: Mass density, kg/m3 (Liquid); method: Pycnometric method
Temperature, K	Mass density, kg/m3	uncertainty
293.15	1419	25
298.15	1413	25
303.15	1412	25
308.15	1411	25
313.15	1410	25
318.15	1409	25
323.15	1405	25

System: 1-butyl-4-methylpyridinium bis((trifluoromethyl)sulfonyl)amide; phases: Liquid
Fixed: Pressure, kPa = 101.325
Property: Viscosity, Pa*s (Liquid); method: Capillary tube (Ostwald; Ubbelohde) method
Temperature, K	Viscosity, Pa*s	uncertainty
293.15	0.065262	0.006544
298.15	0.054415	0.005453
303.15	0.044425	0.004455
308.15	0.036121	0.003622
313.15	0.029811	0.002989
318.15	0.025177	0.002524
323.15	0.020232	0.00203

System: 1-butyl-4-methylpyridinium bis((trifluoromethyl)sulfonyl)amide; phases: Liquid, Air at 1 atmosphere
Property: Surface tension liquid-gas, N/m (Liquid); method: Ring tensiometer
Temperature, K	Surface tension liquid-gas, N/m	uncertainty
293.15	0.0354	0.0006
298.15	0.035	0.0006
303.15	0.0347	0.0006
308.15	0.0345	0.0006
313.15	0.0342	0.0006
318.15	0.034	0.0006
323.15	0.0338	0.0006

System: 1-butyl-3-methylpyridinium trifluoromethanesulfonate; phases: Liquid
Fixed: Pressure, kPa = 101.325
Property: Mass density, kg/m3 (Liquid); method: Pycnometric method
Temperature, K	Mass density, kg/m3	uncertainty
293.15	1306	25
298.15	1297	25
303.15	1291	25
308.15	1285	25
313.15	1275	25
318.15	1270	25
323.15	1251	25

System: 1-butyl-3-methylpyridinium trifluoromethanesulfonate; phases: Liquid
Fixed: Pressure, kPa = 101.325
Property: Viscosity, Pa*s (Liquid); method: Capillary tube (Ostwald; Ubbelohde) method
Temperature, K	Viscosity, Pa*s	uncertainty
293.15	0.142148	0.014423
298.15	0.126574	0.012812
303.15	0.101268	0.010213
308.15	0.078039	0.007843
313.15	0.060982	0.006116
318.15	0.048904	0.004905
323.15	0.037939	0.003808

System: 1-butyl-3-methylpyridinium trifluoromethanesulfonate; phases: Liquid, Air at 1 atmosphere
Property: Surface tension liquid-gas, N/m (Liquid); method: Ring tensiometer
Temperature, K	Surface tension liquid-gas, N/m	uncertainty
293.15	0.0386	0.0006
298.15	0.0382	0.0006
303.15	0.0375	0.0006
308.15	0.0371	0.0006
313.15	0.0369	0.0006
318.15	0.0366	0.0006
323.15	0.0362	0.0006

System: 1-butyl-3-methylpyridinium tetrafluoroborate; phases: Liquid
Fixed: Pressure, kPa = 101.325
Property: Mass density, kg/m3 (Liquid); method: Pycnometric method
Temperature, K	Mass density, kg/m3	uncertainty
293.15	1189	25
298.15	1177	25
303.15	1172	25
308.15	1168	25
313.15	1166	25
318.15	1163	25
323.15	1160	25

System: 1-butyl-3-methylpyridinium tetrafluoroborate; phases: Liquid
Fixed: Pressure, kPa = 101.325
Property: Viscosity, Pa*s (Liquid); method: Capillary tube (Ostwald; Ubbelohde) method
Temperature, K	Viscosity, Pa*s	uncertainty
293.15	0.226149	0.02328
298.15	0.169506	0.017301
303.15	0.12906	0.013082
308.15	0.097033	0.009783
313.15	0.07335	0.007367
318.15	0.059054	0.005921
323.15	0.046594	0.004675

System: 1-butyl-3-methylpyridinium tetrafluoroborate; phases: Liquid, Air at 1 atmosphere
Property: Surface tension liquid-gas, N/m (Liquid); method: Ring tensiometer
Temperature, K	Surface tension liquid-gas, N/m	uncertainty
293.15	0.0475	0.0007
298.15	0.0471	0.0007
303.15	0.0458	0.0007
308.15	0.0456	0.0007
313.15	0.0453	0.0007
318.15	0.0449	0.0007
323.15	0.0444	0.0007

System: 1-butyl-3-methylpyridinium tris(pentafluoroethyl)trifluorophosphate; phases: Liquid
Fixed: Pressure, kPa = 101.325
Property: Mass density, kg/m3 (Liquid); method: Pycnometric method
Temperature, K	Mass density, kg/m3	uncertainty
293.15	1595	25
298.15	1586	25
303.15	1583	25
308.15	1577	25
313.15	1570	25
318.15	1565	25
323.15	1552	25

System: 1-butyl-3-methylpyridinium tris(pentafluoroethyl)trifluorophosphate; phases: Liquid
Fixed: Pressure, kPa = 101.325
Property: Viscosity, Pa*s (Liquid); method: Capillary tube (Ostwald; Ubbelohde) method
Temperature, K	Viscosity, Pa*s	uncertainty
293.15	0.134912	0.01368
298.15	0.106182	0.010717
303.15	0.083796	0.008428
308.15	0.065257	0.006547
313.15	0.053413	0.005354
318.15	0.041294	0.004142
323.15	0.033548	0.003365

System: 1-butyl-3-methylpyridinium tris(pentafluoroethyl)trifluorophosphate; phases: Liquid, Air at 1 atmosphere
Property: Surface tension liquid-gas, N/m (Liquid); method: Ring tensiometer
Temperature, K	Surface tension liquid-gas, N/m	uncertainty
293.15	0.0353	0.0006
298.15	0.0349	0.0006
303.15	0.0347	0.0006
308.15	0.0344	0.0006
313.15	0.0342	0.0006
318.15	0.034	0.0006
323.15	0.0338	0.0006
