Measured thermophysical data. Solubilities of oleanolic acid and ursolic acid in (ethanol + water) mixed solvents from T = (292.2 to 328.2) K
Source: J. Chem. Thermodyn., 2012, 10.1016/j.jct.2011.11.017
Compound 1: oleanolic acid, C30H48O3, InChI=1S/C30H48O3/c1-25(2)14-16-30(24(32)33)17-15-28(6)19(20(30)18-25)8-9-22-27(5)12-11-23(31)26(3,4)21(27)10-13-29(22,28)7/h8,20-23,31H,9-18H2,1-7H3,(H,32,33)/t20-,21-,22+,23-,27-,28+,29+,30-/m0/s1, purity 98%
Compound 2: ursolic acid, C30H48O3, InChI=1S/C30H48O3/c1-18-10-15-30(25(32)33)17-16-28(6)20(24(30)19(18)2)8-9-22-27(5)13-12-23(31)26(3,4)21(27)11-14-29(22,28)7/h8,18-19,21-24,31H,9-17H2,1-7H3,(H,32,33)/t18-,19+,21+,22-,23+,24+,27+,28-,29-,30+/m1/s1, purity 98%
Compound 3: ethanol, C2H6O, InChI=1S/C2H6O/c1-2-3/h3H,2H2,1H3, purity 99.5%
Compound 4: water, H2O, InChI=1S/H2O/h1H2, purity 99.8%

System: ethanol + oleanolic acid + water; phases: Liquid, Crystal
Fixed: Pressure, kPa = 101
Property: Mole fraction of oleanolic acid (Liquid); method: Chromatography
Temperature, K	Solvent: Mole fraction of ethanol	Mole fraction of oleanolic acid	uncertainty
292.2	0.0331	1.147e-09	2.65e-10
292.2	0.2355	3.674e-09	7.87e-10
292.2	0.4182	3.268e-08	6.755e-09
292.2	0.7349	2.728e-07	5.4988e-08
298.2	0.0331	4.716e-09	9.74e-10
298.2	0.2355	5.813e-09	1.186e-09
298.2	0.4182	3.789e-08	7.678e-09
298.2	0.7349	2.828e-07	5.7013e-08
308.2	0.0331	2.667e-09	5.57e-10
308.2	0.2355	3.409e-09	7.11e-10
308.2	0.4182	4.371e-08	8.917e-09
308.2	0.7349	3.542e-07	7.1454e-08
318.2	0.0331	1.303e-08	2.71e-09
318.2	0.2355	2.074e-08	4.278e-09
318.2	0.4182	1.407e-07	2.8528e-08
318.2	0.7349	5.728e-07	1.15535e-07
328.2	0.0331	3.6e-08	7.446e-09
328.2	0.2355	6.921e-08	1.4164e-08
328.2	0.4182	1.419e-07	2.8858e-08
328.2	0.7349	7.779e-07	1.56852e-07

System: ethanol + ursolic acid + water; phases: Liquid, Crystal
Fixed: Pressure, kPa = 101
Property: Mole fraction of ursolic acid (Liquid); method: Chromatography
Temperature, K	Solvent: Mole fraction of ethanol	Mole fraction of ursolic acid	uncertainty
292.2	0.0331	1.635e-09	3.38e-10
292.2	0.2355	1.004e-09	2.84e-10
292.2	0.4182	2.501e-08	5.11e-09
292.2	0.7349	1.658e-07	3.3433e-08
298.2	0.0331	1.709e-09	3.54e-10
298.2	0.2355	3.719e-09	7.58e-10
298.2	0.4182	2.894e-08	5.865e-09
298.2	0.7349	1.943e-07	3.9169e-08
308.2	0.0331	3.827e-09	7.9e-10
308.2	0.2355	3.831e-09	7.81e-10
308.2	0.4182	4.08e-08	8.275e-09
308.2	0.7349	2.182e-07	4.4023e-08
318.2	0.0331	3.973e-09	8.2e-10
318.2	0.2355	5.467e-09	1.119e-09
318.2	0.4182	6.504e-08	1.3192e-08
318.2	0.7349	3.849e-07	7.7617e-08
328.2	0.0331	4.617e-09	9.53e-10
328.2	0.2355	1.355e-08	2.851e-09
328.2	0.4182	9.932e-08	2.0192e-08
328.2	0.7349	4.471e-07	9.0129e-08
