Measured thermophysical data. Experimental study on the thermochemistry of 5-nitroindole and 5-nitroindoline
Source: J. Chem. Thermodyn., 2009, 10.1016/j.jct.2008.09.014
Compound 1: carbon dioxide, CO2, InChI=1S/CO2/c2-1-3
Compound 2: nitrogen, N2, InChI=1S/N2/c1-2
Compound 3: water, H2O, InChI=1S/H2O/h1H2
Compound 4: oxygen, O2, InChI=1S/O2/c1-2
Compound 5: 5-nitroindole, C8H6N2O2, InChI=1S/C8H6N2O2/c11-10(12)7-1-2-8-6(5-7)3-4-9-8/h1-5,9H
Compound 6: 5-nitroindoline, C8H8N2O2, InChI=1S/C8H8N2O2/c11-10(12)7-1-2-8-6(5-7)3-4-9-8/h1-2,5,9H,3-4H2

System: 5-nitroindole; phases: Crystal, Gas
Property: Vapor or sublimation pressure, kPa (Crystal); method: Calculated from knudsen effusion weight loss
Temperature, K	Vapor or sublimation pressure, kPa	uncertainty
353.152	9.42e-05	4.7e-06
353.152	9.3e-05	4.7e-06
353.152	9.3e-05	4.7e-06
355.199	0.0001148	5.8e-06
355.199	0.0001117	5.6e-06
357.176	0.0001368	6.9e-06
357.176	0.0001345	6.7e-06
357.176	0.000131	6.6e-06
359.15	0.0001723	8.6e-06
359.15	0.0001702	8.5e-06
359.15	0.0001667	8.4e-06
361.193	0.0001997	1e-05
361.193	0.000201	1.01e-05
363.171	0.0002441	1.22e-05
363.171	0.0002364	1.18e-05
365.164	0.0003138	1.57e-05
365.164	0.0003041	1.52e-05
365.164	0.0002935	1.47e-05
367.195	0.0003798	1.9e-05
367.195	0.0003685	1.84e-05
367.195	0.0003544	1.77e-05
369.173	0.0004448	2.23e-05
369.173	0.000439	2.2e-05
369.173	0.0004322	2.16e-05
371.165	0.0005523	2.77e-05
371.165	0.0005458	2.73e-05
371.165	0.0005326	2.67e-05
373.19	0.0006817	3.41e-05
373.19	0.0006526	3.27e-05
373.19	0.0006311	3.16e-05
375.167	0.0008006	4.01e-05
375.167	0.0007692	3.85e-05

System: 5-nitroindoline; phases: Crystal
Property: Mass density, kg/m3 (Crystal); method: mass and volume measurement
Temperature, K	Pressure, kPa	Mass density, kg/m3	uncertainty
298.15	101.325	1390	20

System: 5-nitroindoline; phases: Crystal, Gas
Property: Vapor or sublimation pressure, kPa (Crystal); method: Calculated from knudsen effusion weight loss
Temperature, K	Vapor or sublimation pressure, kPa	uncertainty
338.094	6.24e-05	3.1e-06
338.094	6.06e-05	3e-06
338.094	6.3e-05	3.2e-06
340.121	7.74e-05	3.9e-06
340.121	7.36e-05	3.7e-06
340.121	7.65e-05	3.8e-06
342.203	0.000101	5.1e-06
342.203	9.69e-05	4.9e-06
342.203	9.36e-05	4.7e-06
344.079	0.0001211	6.1e-06
344.079	0.0001236	6.2e-06
344.079	0.0001184	5.9e-06
346.102	0.0001521	7.6e-06
346.102	0.0001453	7.3e-06
346.102	0.0001435	7.2e-06
348.194	0.0001876	9.4e-06
348.194	0.0001782	8.9e-06
348.194	0.0001803	9e-06
350.101	0.000241	1.21e-05
350.101	0.0002364	1.18e-05
350.101	0.0002307	1.16e-05
352.128	0.0002958	1.48e-05
352.128	0.0002905	1.45e-05
352.128	0.0002792	1.4e-05
354.194	0.0003738	1.87e-05
354.194	0.0003438	1.72e-05
354.194	0.0003465	1.73e-05
356.102	0.0004193	2.1e-05
356.102	0.0004189	2.1e-05
356.102	0.0004131	2.07e-05
358.119	0.0005196	2.6e-05
358.119	0.0005153	2.58e-05
358.119	0.0005004	2.51e-05
360.181	0.0006675	3.34e-05
360.181	0.0006261	3.13e-05
360.181	0.0006157	3.08e-05

Reaction: -1 5-nitroindole + 8 carbon dioxide + 1 nitrogen + 3 water + -8.5 oxygen
Property: Specific internal energy of reaction at constant volume, J/g
-24874.3

Reaction: -1 5-nitroindoline + 8 carbon dioxide + 1 nitrogen + 4 water + -9 oxygen
Property: Specific internal energy of reaction at constant volume, J/g
-26038.3
