Measured thermophysical data. Asymmetric criticality of ionic solution containing 1-hexyl-3-methylimidazolium tetrafluoroborate and 2-propanol
Source: J. Chem. Thermodyn., 2016, 10.1016/j.jct.2016.04.016
Compound 1: propan-2-ol, C3H8O, InChI=1S/C3H8O/c1-3(2)4/h3-4H,1-2H3, purity 99%
Compound 2: 1-hexyl-3-methylimidazolium tetrafluoroborate, C10H19BF4N2, InChI=1S/C10H19N2.BF4/c1-3-4-5-6-7-12-9-8-11(2)10-12;2-1(3,4)5/h8-10H,3-7H2,1-2H3;/q+1;-1, purity 99%

System: propan-2-ol; phases: Liquid
Fixed: Pressure, kPa = 82
Fixed: Wavelength, nm = 632.8
Property: Refractive index (other wavelength) (Liquid); method: Minimum deviation angle method
Temperature, K	Refractive index (other wavelength)	uncertainty
279.706	1.3815	0.0003
286.245	1.3787	0.0003
281.767	1.3806	0.0003
288.993	1.3776	0.0003
283.863	1.3798	0.0003
291.408	1.3765	0.0003

System: 1-hexyl-3-methylimidazolium tetrafluoroborate; phases: Liquid
Fixed: Pressure, kPa = 82
Fixed: Wavelength, nm = 632.8
Property: Refractive index (other wavelength) (Liquid); method: Minimum deviation angle method
Temperature, K	Refractive index (other wavelength)	uncertainty
279.705	1.4316	0.0003
284.648	1.4303	0.0003
289.625	1.4289	0.0003
281.353	1.4311	0.0003
286.268	1.4298	0.0003
291.193	1.4285	0.0003
283.005	1.4307	0.0003
287.911	1.4294	0.0003

System: propan-2-ol + 1-hexyl-3-methylimidazolium tetrafluoroborate; phases: Liquid mixture 1, Liquid mixture 2, Air at 1 atmosphere
Property: Upper consolute temperature, K (Liquid mixture 1); method: VISOBS
Upper consolute temperature, K	uncertainty
291.104	0.387

System: propan-2-ol + 1-hexyl-3-methylimidazolium tetrafluoroborate; phases: Liquid mixture 1, Liquid mixture 2, Air at 1 atmosphere
Property: Upper consolute composition: mole fraction of 1-hexyl-3-methylimidazolium tetrafluoroborate (Liquid mixture 1); method: equal volume method
Upper consolute composition: mole fraction of 1-hexyl-3-methylimidazolium tetrafluoroborate	uncertainty
0.098	0.002

System: propan-2-ol + 1-hexyl-3-methylimidazolium tetrafluoroborate; phases: Liquid mixture 1, Liquid mixture 2
Fixed: Pressure, kPa = 82
Fixed: Wavelength, nm = 632.8
Property: Refractive index (other wavelength) (Liquid mixture 1); method: Minimum deviation angle method
Temperature, K	Refractive index (other wavelength)	uncertainty
291.101	1.389	0.0014
291.099	1.3889	0.0013
291.096	1.3886	0.0012
291.093	1.3884	0.0011
291.084	1.3881	0.0009
291.077	1.3878	0.0007
291.065	1.3876	0.0007
291.05	1.3873	0.0007
291.034	1.3871	0.0006
291.017	1.3869	0.0006
290.996	1.3867	0.0005
290.976	1.3865	0.0004
290.952	1.3863	0.0004
290.919	1.3861	0.0004
290.887	1.3859	0.0004
290.849	1.3856	0.0004
290.806	1.3854	0.0003
290.761	1.3852	0.0003
290.706	1.385	0.0003
290.636	1.3847	0.0003
290.569	1.3845	0.0003
290.488	1.3844	0.0003
290.453	1.3843	0.0003
290.354	1.384	0.0003
290.218	1.3838	0.0003
290.059	1.3836	0.0003
289.859	1.3834	0.0003
289.621	1.3831	0.0003
289.37	1.3829	0.0003
289.078	1.3827	0.0003
288.762	1.3825	0.0003
288.394	1.3823	0.0003
288.004	1.3821	0.0003
287.608	1.3821	0.0003
287.131	1.3821	0.0003
286.616	1.3821	0.0003
285.795	1.382	0.0003
284.941	1.3821	0.0003
283.724	1.3823	0.0003
281.966	1.3825	0.0003
279.902	1.3832	0.0003

System: propan-2-ol + 1-hexyl-3-methylimidazolium tetrafluoroborate; phases: Liquid mixture 2, Liquid mixture 1
Fixed: Pressure, kPa = 82
Fixed: Wavelength, nm = 632.8
Property: Refractive index (other wavelength) (Liquid mixture 2); method: Minimum deviation angle method
Temperature, K	Refractive index (other wavelength)	uncertainty
291.101	1.3913	0.0014
291.099	1.3914	0.0014
291.096	1.3918	0.0012
291.093	1.392	0.0011
291.084	1.3923	0.0009
291.077	1.3926	0.0008
291.065	1.3928	0.0008
291.05	1.3931	0.0009
291.034	1.3934	0.0007
291.017	1.3937	0.0007
290.996	1.3941	0.0007
290.976	1.3943	0.0006
290.952	1.3946	0.0005
290.919	1.3949	0.0004
290.887	1.3951	0.0004
290.849	1.3954	0.0004
290.806	1.3956	0.0003
290.761	1.3958	0.0004
290.706	1.3962	0.0004
290.636	1.3965	0.0004
290.569	1.3969	0.0003
290.488	1.3972	0.0003
290.453	1.3973	0.0003
290.354	1.3977	0.0003
290.218	1.3982	0.0003
290.059	1.3987	0.0003
289.859	1.3992	0.0003
289.621	1.3998	0.0003
289.37	1.4004	0.0003
289.078	1.4011	0.0003
288.762	1.4018	0.0003
288.394	1.4025	0.0003
288.004	1.4031	0.0003
287.608	1.4038	0.0003
287.131	1.4047	0.0003
286.616	1.4052	0.0003
285.795	1.4064	0.0003
284.941	1.4073	0.0003
283.724	1.4088	0.0003
281.966	1.4106	0.0003
279.902	1.4126	0.0003

System: propan-2-ol + 1-hexyl-3-methylimidazolium tetrafluoroborate; phases: Liquid mixture 1, Liquid mixture 2
Fixed: Pressure, kPa = 82
Property: Mole fraction of 1-hexyl-3-methylimidazolium tetrafluoroborate (Liquid mixture 1); method: Index of refraction calibration data
Temperature, K	Mole fraction of 1-hexyl-3-methylimidazolium tetrafluoroborate	uncertainty
291.101	0.088	0.012
291.099	0.087	0.012
291.096	0.084	0.01
291.093	0.083	0.009
291.084	0.08	0.008
291.077	0.078	0.007
291.065	0.076	0.007
291.05	0.074	0.007
291.034	0.072	0.006
291.017	0.07	0.006
290.996	0.069	0.006
290.976	0.067	0.005
290.952	0.065	0.005
290.919	0.064	0.005
290.887	0.062	0.005
290.849	0.06	0.005
290.806	0.058	0.005
290.761	0.056	0.004
290.706	0.055	0.004
290.636	0.052	0.004
290.569	0.051	0.004
290.488	0.05	0.004
290.453	0.049	0.004
290.354	0.046	0.004
290.218	0.045	0.004
290.059	0.043	0.004
289.859	0.041	0.004
289.621	0.038	0.004
289.37	0.036	0.004
289.078	0.033	0.004
288.762	0.031	0.004
288.394	0.029	0.004
288.004	0.026	0.004
287.608	0.025	0.004
287.131	0.024	0.004
286.616	0.022	0.004
285.795	0.02	0.004
284.941	0.018	0.004
283.724	0.016	0.004
281.966	0.012	0.004
279.902	0.011	0.004

System: propan-2-ol + 1-hexyl-3-methylimidazolium tetrafluoroborate; phases: Liquid mixture 2, Liquid mixture 1
Fixed: Pressure, kPa = 82
Property: Mole fraction of 1-hexyl-3-methylimidazolium tetrafluoroborate (Liquid mixture 2); method: Index of refraction calibration data
Temperature, K	Mole fraction of 1-hexyl-3-methylimidazolium tetrafluoroborate	uncertainty
291.101	0.108	0.013
291.099	0.109	0.013
291.096	0.112	0.011
291.093	0.114	0.01
291.084	0.117	0.009
291.077	0.12	0.008
291.065	0.122	0.008
291.05	0.124	0.01
291.034	0.127	0.008
291.017	0.13	0.008
290.996	0.134	0.008
290.976	0.136	0.007
290.952	0.139	0.006
290.919	0.142	0.006
290.887	0.144	0.006
290.849	0.147	0.006
290.806	0.149	0.005
290.761	0.151	0.006
290.706	0.155	0.006
290.636	0.158	0.006
290.569	0.162	0.006
290.488	0.165	0.006
290.453	0.166	0.006
290.354	0.17	0.006
290.218	0.175	0.006
290.059	0.18	0.006
289.859	0.185	0.006
289.621	0.191	0.006
289.37	0.197	0.006
289.078	0.205	0.006
288.762	0.212	0.006
288.394	0.22	0.006
288.004	0.226	0.006
287.608	0.234	0.006
287.131	0.244	0.007
286.616	0.248	0.007
285.795	0.262	0.007
284.941	0.271	0.007
283.724	0.288	0.007
281.966	0.308	0.008
279.902	0.331	0.008

System: propan-2-ol + 1-hexyl-3-methylimidazolium tetrafluoroborate; phases: Liquid
Fixed: Pressure, kPa = 82
Fixed: Wavelength, nm = 632.8
Property: Refractive index (other wavelength) (Liquid); method: Minimum deviation angle method
Temperature, K	Mole fraction of 1-hexyl-3-methylimidazolium tetrafluoroborate	Refractive index (other wavelength)	uncertainty
279.706	0	1.3815	0.0003
286.245	0	1.3787	0.0003
281.767	0	1.3806	0.0003
288.993	0	1.3776	0.0003
283.863	0	1.3798	0.0003
291.408	0	1.3765	0.0003
291.345	0.1	1.3901	0.0004
297.55	0.1	1.3879	0.0003
293.406	0.1	1.3894	0.0003
299.591	0.1	1.3872	0.0003
295.472	0.1	1.3887	0.0003
301.735	0.1	1.3864	0.0003
289.584	0.2	1.4002	0.0003
294.232	0.2	1.3987	0.0003
291.112	0.2	1.3998	0.0003
295.787	0.2	1.3982	0.0003
292.694	0.2	1.3992	0.0003
297.138	0.2	1.3977	0.0003
286.2	0.3	1.4083	0.0003
292.901	0.3	1.4061	0.0003
288.246	0.3	1.4076	0.0003
294.984	0.3	1.4055	0.0003
290.336	0.3	1.407	0.0003
297.046	0.3	1.4048	0.0003
284.852	0.395	1.4136	0.0003
290.894	0.395	1.4117	0.0003
286.897	0.395	1.4129	0.0003
293.032	0.395	1.4111	0.0003
288.932	0.395	1.4123	0.0003
295.098	0.395	1.4104	0.0003
282.761	0.5	1.4186	0.0003
288.889	0.5	1.4168	0.0003
284.852	0.5	1.418	0.0003
290.857	0.5	1.4162	0.0003
286.895	0.5	1.4174	0.0003
293.029	0.5	1.4155	0.0003
282.698	0.598	1.422	0.0003
288.893	0.598	1.4201	0.0003
284.719	0.598	1.4214	0.0003
290.954	0.598	1.4195	0.0003
286.79	0.598	1.4207	0.0003
292.994	0.598	1.4189	0.0003
282.36	0.7	1.4247	0.0003
288.015	0.7	1.4232	0.0003
284.425	0.7	1.4242	0.0003
290.108	0.7	1.4226	0.0003
285.953	0.7	1.4238	0.0003
292.13	0.7	1.422	0.0003
281.265	0.802	1.4274	0.0003
286.642	0.802	1.4259	0.0003
282.834	0.802	1.427	0.0003
289.188	0.802	1.4252	0.0003
284.696	0.802	1.4265	0.0003
291.287	0.802	1.4246	0.0003
280.334	0.899	1.4296	0.0003
286.496	0.899	1.428	0.0003
282.391	0.899	1.4291	0.0003
288.576	0.899	1.4274	0.0003
284.43	0.899	1.4285	0.0003
290.594	0.899	1.4269	0.0003
279.705	1	1.4316	0.0003
284.648	1	1.4303	0.0003
289.625	1	1.4289	0.0003
281.353	1	1.4311	0.0003
286.268	1	1.4298	0.0003
291.193	1	1.4285	0.0003
283.005	1	1.4307	0.0003
287.911	1	1.4294	0.0003

System: propan-2-ol + 1-hexyl-3-methylimidazolium tetrafluoroborate; phases: Liquid
Fixed: Pressure, kPa = 102.6
Fixed: Mole fraction of 1-hexyl-3-methylimidazolium tetrafluoroborate = 0.098
Property: Heat capacity at constant pressure per volume, J/K/m3 (Liquid); method: DSC
Temperature, K	Heat capacity at constant pressure per volume, J/K/m3	uncertainty
286.54	2276000	100000
286.672	2287000	101000
286.805	2290000	101000
286.938	2301000	101000
287.071	2293000	101000
287.203	2313000	102000
287.336	2310000	101000
287.468	2305000	101000
287.601	2317000	102000
287.734	2330000	103000
287.867	2330000	103000
287.999	2335000	103000
288.132	2335000	104000
288.264	2355000	105000
288.398	2342000	103000
288.53	2348000	104000
288.662	2372000	106000
288.795	2351000	104000
288.928	2377000	106000
289.061	2382000	106000
289.193	2369000	106000
289.326	2398000	108000
289.459	2383000	108000
289.591	2454000	110000
289.724	2382000	106000
289.856	2428000	110000
289.989	2427000	108000
290.122	2440000	111000
290.255	2470000	112000
290.387	2444000	110000
290.52	2491000	115000
290.652	2504000	115000
290.785	2538000	118000
290.918	2564000	120000
291.051	2598000	134000
291.183	2719000	171000
291.316	2303000	202000
291.449	2253000	100000
291.582	2230000	95000
291.714	2218000	94000
291.847	2211000	94000
291.979	2202000	94000
292.112	2192000	92000
292.245	2186000	92000
292.377	2181000	92000
292.51	2177000	92000
292.643	2174000	92000
292.775	2171000	91000
292.908	2167000	90000
293.041	2164000	90000
293.174	2161000	90000
293.306	2157000	90000
293.439	2155000	90000
293.572	2154000	90000
293.704	2152000	90000
293.837	2150000	90000
293.97	2147000	89000
294.102	2145000	89000
294.235	2143000	89000
294.368	2142000	89000
294.5	2141000	89000
294.633	2140000	89000
294.766	2140000	89000
294.898	2139000	89000
295.031	2140000	89000
295.164	2138000	89000
295.296	2135000	88000
295.429	2133000	88000
295.562	2132000	88000
295.694	2130000	88000
295.827	2130000	87000
295.96	2131000	88000
296.092	2131000	87000
296.225	2132000	88000
296.358	2134000	88000
296.491	2136000	88000
296.623	2134000	88000
296.756	2137000	88000
296.889	2137000	88000
297.021	2134000	87000
297.154	2133000	87000
297.286	2129000	87000
297.419	2128000	87000
297.552	2127000	87000
297.685	2128000	87000
297.817	2127000	87000
297.95	2125000	87000
298.083	2128000	87000
298.215	2128000	87000
298.348	2129000	87000
298.48	2128000	87000
298.613	2130000	87000
298.746	2130000	87000
298.879	2130000	87000
299.01	2130000	87000
299.144	2125000	87000
299.277	2128000	87000
299.409	2121000	87000
299.542	2121000	87000
300.116	2122000	85000
300.429	2122000	84000
300.742	2122000	84000
301.054	2123000	84000
301.367	2123000	84000
301.68	2123000	84000
301.992	2124000	84000
302.305	2124000	84000
302.618	2124000	84000
302.931	2124000	84000
303.243	2124000	84000
303.556	2124000	84000
303.868	2124000	84000
304.181	2124000	84000
304.493	2124000	84000
304.806	2125000	84000
305.119	2125000	84000
305.432	2125000	84000
305.745	2125000	83000
306.057	2126000	83000
306.37	2126000	83000
306.682	2127000	83000
306.996	2127000	83000
307.308	2128000	83000
307.621	2128000	83000
307.933	2129000	83000
308.246	2130000	83000
308.558	2130000	83000
308.871	2131000	84000
309.184	2132000	84000
309.497	2132000	84000
309.809	2133000	84000
310.122	2133000	84000
310.435	2134000	84000
310.748	2134000	84000
311.06	2135000	84000
311.373	2135000	84000
311.686	2135000	84000
311.998	2136000	84000
312.31	2136000	84000
312.623	2137000	84000
312.936	2138000	84000
313.249	2139000	84000
313.561	2139000	83000
313.874	2140000	83000
314.186	2141000	83000
314.499	2141000	83000
314.812	2142000	83000
315.125	2143000	83000
315.438	2144000	83000
315.75	2144000	83000
316.063	2145000	83000
316.375	2146000	83000
316.688	2148000	83000
317.001	2149000	83000
317.314	2150000	83000
317.627	2151000	83000
317.94	2151000	83000
318.252	2152000	83000
318.564	2154000	83000
318.877	2154000	83000
319.19	2153000	83000
319.502	2154000	83000
319.815	2155000	83000
320.128	2156000	84000
320.441	2157000	84000
320.753	2158000	84000
321.066	2158000	84000
321.379	2158000	84000
321.691	2159000	84000
322.003	2160000	84000
322.317	2161000	84000
322.629	2161000	84000
322.942	2162000	84000
323.254	2163000	84000
323.568	2164000	84000
323.88	2165000	84000
324.193	2166000	84000
324.506	2168000	84000
324.818	2168000	84000
325.131	2169000	84000
325.443	2171000	84000
325.756	2171000	84000
326.069	2172000	84000
326.382	2173000	84000
326.694	2174000	84000
327.007	2175000	84000
327.32	2177000	84000
327.632	2178000	84000
327.945	2179000	84000
328.258	2180000	84000
328.571	2182000	85000
328.884	2181000	84000
329.197	2182000	85000
