Measured thermophysical data. Volumetric and viscosity properties of glycine in ionic liquid + water solutions at 298.15 K
Source: J. Chem. Thermodyn., 2019, 10.1016/j.jct.2018.09.036
Compound 1: 2-aminoacetic acid, C2H5NO2, InChI=1S/C2H5NO2/c3-1-2(4)5/h1,3H2,(H,4,5), purity 99%
Compound 2: 1-ethyl-3-methylimidazolium bromide, C6H11BrN2, InChI=1S/C6H11N2.BrH/c1-3-8-5-4-7(2)6-8;/h4-6H,3H2,1-2H3;1H/q+1;/p-1, purity 99%
Compound 3: 1-butyl-3-methylimidazolium bromide, C8H15BrN2, InChI=1S/C8H15N2.BrH/c1-3-4-5-10-7-6-9(2)8-10;/h6-8H,3-5H2,1-2H3;1H/q+1;/p-1, purity 99%
Compound 4: 3-hexyl-1-methyl-1H-imidazolium bromide, C10H19BrN2, InChI=1S/C10H19N2.BrH/c1-3-4-5-6-7-12-9-8-11(2)10-12;/h8-10H,3-7H2,1-2H3;1H/q+1;/p-1, purity 99%
Compound 5: water, H2O, InChI=1S/H2O/h1H2

System: 2-aminoacetic acid + water + 1-ethyl-3-methylimidazolium bromide; phases: Liquid
Fixed: Temperature, K = 298.15
Fixed: Pressure, kPa = 99.7
Property: Mass density, kg/m3 (Liquid); method: Vibrating tube method
Molality, mol/kg of 1-ethyl-3-methylimidazolium bromide	Molality, mol/kg of 2-aminoacetic acid	Mass density, kg/m3	uncertainty
0	0	997.05	0.31
0	0.1	1000.22	0.31
0	0.15	1001.78	0.32
0	0.2	1003.34	0.33
0	0.25	1004.88	0.34
0	0.3	1006.42	0.36
0	0.35	1007.94	0.37
0.15	0	1004.96	0.34
0.15	0.1	1008	0.35
0.15	0.15	1009.51	0.35
0.15	0.2	1011.01	0.36
0.15	0.25	1012.51	0.37
0.15	0.3	1013.99	0.38
0.15	0.35	1015.46	0.39
0.3	0	1012.56	0.43
0.3	0.1	1015.5	0.43
0.3	0.15	1016.96	0.43
0.3	0.2	1018.41	0.44
0.3	0.25	1019.85	0.44
0.3	0.3	1021.28	0.45
0.3	0.35	1022.7	0.46
0.45	0	1019.92	0.53
0.45	0.1	1022.75	0.53
0.45	0.15	1024.15	0.53
0.45	0.2	1025.55	0.53
0.45	0.25	1026.94	0.54
0.45	0.3	1028.33	0.54
0.45	0.35	1029.7	0.55
0.6	0	1027.01	0.64
0.6	0.1	1029.75	0.64
0.6	0.15	1031.11	0.64
0.6	0.2	1032.47	0.64
0.6	0.25	1033.81	0.64
0.6	0.3	1035.15	0.64
0.6	0.35	1036.48	0.64
0.7	0	1031.63	0.71
0.7	0.1	1034.31	0.7
0.7	0.15	1035.64	0.7
0.7	0.2	1036.96	0.7
0.7	0.25	1038.28	0.7
0.7	0.3	1039.59	0.7
0.7	0.35	1040.89	0.7
0.8	0	1036.11	0.78
0.8	0.1	1038.73	0.77
0.8	0.15	1040.03	0.77
0.8	0.2	1041.32	0.77
0.8	0.25	1042.66	0.77
0.8	0.3	1043.88	0.77
0.8	0.35	1045.15	0.77

System: 2-aminoacetic acid + water + 1-ethyl-3-methylimidazolium bromide; phases: Liquid
Fixed: Temperature, K = 298.15
Fixed: Pressure, kPa = 99.7
Property: Viscosity, Pa*s (Liquid); method: Falling or rolling sphere viscometry
Molality, mol/kg of 1-ethyl-3-methylimidazolium bromide	Molality, mol/kg of 2-aminoacetic acid	Viscosity, Pa*s	uncertainty
0	0	0.00089	1.9e-05
0	0.1	0.000902	1.9e-05
0	0.15	0.000908	1.9e-05
0	0.2	0.000914	1.9e-05
0	0.25	0.00092	2e-05
0	0.3	0.000927	2e-05
0	0.35	0.000934	2e-05
0.15	0	0.000899	1.9e-05
0.15	0.1	0.000911	1.9e-05
0.15	0.15	0.000917	2e-05
0.15	0.2	0.000925	2e-05
0.15	0.25	0.000931	2e-05
0.15	0.3	0.000937	2e-05
0.15	0.35	0.000943	2e-05
0.3	0	0.00093	2e-05
0.3	0.1	0.000943	2e-05
0.3	0.15	0.000948	2e-05
0.3	0.2	0.000956	2e-05
0.3	0.25	0.000963	2.1e-05
0.3	0.3	0.000969	2.1e-05
0.3	0.35	0.000975	2.1e-05
0.45	0	0.000961	2.1e-05
0.45	0.1	0.000974	2.1e-05
0.45	0.15	0.00098	2.1e-05
0.45	0.2	0.000987	2.1e-05
0.45	0.25	0.000995	2.1e-05
0.45	0.3	0.001002	2.1e-05
0.45	0.35	0.001008	2.2e-05
0.6	0	0.000992	2.1e-05
0.6	0.1	0.001003	2.2e-05
0.6	0.15	0.001011	2.2e-05
0.6	0.2	0.001019	2.2e-05
0.6	0.25	0.001027	2.2e-05
0.6	0.3	0.001035	2.2e-05
0.6	0.35	0.001043	2.2e-05
0.7	0	0.001013	2.2e-05
0.7	0.1	0.001028	2.2e-05
0.7	0.15	0.001033	2.2e-05
0.7	0.2	0.001041	2.2e-05
0.7	0.25	0.001049	2.3e-05
0.7	0.3	0.001057	2.3e-05
0.7	0.35	0.001063	2.3e-05
0.8	0	0.001036	2.2e-05
0.8	0.1	0.00105	2.3e-05
0.8	0.15	0.001058	2.3e-05
0.8	0.2	0.001066	2.3e-05
0.8	0.25	0.001073	2.3e-05
0.8	0.3	0.00108	2.3e-05
0.8	0.35	0.001086	2.3e-05

System: 2-aminoacetic acid + water + 1-butyl-3-methylimidazolium bromide; phases: Liquid
Fixed: Temperature, K = 298.15
Fixed: Pressure, kPa = 99.7
Property: Mass density, kg/m3 (Liquid); method: Vibrating tube method
Molality, mol/kg of 1-butyl-3-methylimidazolium bromide	Molality, mol/kg of 2-aminoacetic acid	Mass density, kg/m3	uncertainty
0	0	997.05	0.31
0	0.1	1000.22	0.31
0	0.15	1001.78	0.32
0	0.2	1003.34	0.33
0	0.25	1004.88	0.34
0	0.3	1006.42	0.36
0	0.35	1007.94	0.37
0.15	0	1004.39	0.34
0.15	0.1	1007.42	0.34
0.15	0.15	1008.92	0.35
0.15	0.2	1010.42	0.35
0.15	0.25	1011.89	0.36
0.15	0.3	1013.36	0.38
0.15	0.35	1014.82	0.39
0.3	0	1011.43	0.41
0.3	0.1	1014.35	0.41
0.3	0.15	1015.8	0.42
0.3	0.2	1017.23	0.42
0.3	0.25	1018.66	0.43
0.3	0.3	1020.08	0.44
0.3	0.35	1021.48	0.44
0.45	0	1018.2	0.5
0.45	0.1	1021.01	0.5
0.45	0.15	1022.4	0.5
0.45	0.2	1023.78	0.5
0.45	0.25	1025.15	0.51
0.45	0.3	1026.51	0.51
0.45	0.35	1027.87	0.52
0.6	0	1024.73	0.6
0.6	0.1	1027.44	0.6
0.6	0.15	1028.77	0.6
0.6	0.2	1030.1	0.6
0.6	0.25	1031.42	0.6
0.6	0.3	1032.73	0.6
0.6	0.35	1034.04	0.6
0.7	0	1028.96	0.66
0.7	0.1	1031.59	0.65
0.7	0.15	1032.9	0.65
0.7	0.2	1034.19	0.65
0.7	0.25	1035.48	0.65
0.7	0.3	1036.76	0.66
0.7	0.35	1038.03	0.66
0.8	0	1033.08	0.73
0.8	0.1	1035.66	0.72
0.8	0.15	1036.93	0.72
0.8	0.2	1038.2	0.72
0.8	0.25	1039.45	0.72
0.8	0.3	1040.7	0.72
0.8	0.35	1041.94	0.72

System: 2-aminoacetic acid + water + 1-butyl-3-methylimidazolium bromide; phases: Liquid
Fixed: Temperature, K = 298.15
Fixed: Pressure, kPa = 99.7
Property: Viscosity, Pa*s (Liquid); method: Falling or rolling sphere viscometry
Molality, mol/kg of 1-butyl-3-methylimidazolium bromide	Molality, mol/kg of 2-aminoacetic acid	Viscosity, Pa*s	uncertainty
0	0	0.00089	1.9e-05
0	0.1	0.000902	1.9e-05
0	0.15	0.000908	1.9e-05
0	0.2	0.000914	1.9e-05
0	0.25	0.00092	2e-05
0	0.3	0.000927	2e-05
0	0.35	0.000934	2e-05
0.15	0	0.000922	2e-05
0.15	0.1	0.000945	2e-05
0.15	0.15	0.000952	2e-05
0.15	0.2	0.000959	2e-05
0.15	0.25	0.000966	2.1e-05
0.15	0.3	0.000974	2.1e-05
0.15	0.35	0.000983	2.1e-05
0.3	0	0.000974	2.1e-05
0.3	0.1	0.000997	2.1e-05
0.3	0.15	0.001005	2.2e-05
0.3	0.2	0.001011	2.2e-05
0.3	0.25	0.00102	2.2e-05
0.3	0.3	0.001029	2.2e-05
0.3	0.35	0.001038	2.2e-05
0.45	0	0.001028	2.2e-05
0.45	0.1	0.001052	2.3e-05
0.45	0.15	0.001059	2.3e-05
0.45	0.2	0.001067	2.3e-05
0.45	0.25	0.001076	2.3e-05
0.45	0.3	0.001085	2.3e-05
0.45	0.35	0.001094	2.4e-05
0.6	0	0.001084	2.4e-05
0.6	0.1	0.001108	2.4e-05
0.6	0.15	0.001117	2.4e-05
0.6	0.2	0.001126	2.4e-05
0.6	0.25	0.001133	2.5e-05
0.6	0.3	0.001143	2.5e-05
0.6	0.35	0.001152	2.5e-05
0.7	0	0.001121	2.5e-05
0.7	0.1	0.001145	2.5e-05
0.7	0.15	0.001155	2.5e-05
0.7	0.2	0.001164	2.5e-05
0.7	0.25	0.001173	2.6e-05
0.7	0.3	0.001182	2.6e-05
0.7	0.35	0.001189	2.6e-05
0.8	0	0.001164	2.6e-05
0.8	0.1	0.001189	2.6e-05
0.8	0.15	0.001198	2.6e-05
0.8	0.2	0.001208	2.7e-05
0.8	0.25	0.001218	2.7e-05
0.8	0.3	0.001227	2.7e-05
0.8	0.35	0.001234	2.7e-05

System: 2-aminoacetic acid + water + 3-hexyl-1-methyl-1H-imidazolium bromide; phases: Liquid
Fixed: Temperature, K = 298.15
Fixed: Pressure, kPa = 99.7
Property: Mass density, kg/m3 (Liquid); method: Vibrating tube method
Molality, mol/kg of 3-hexyl-1-methyl-1H-imidazolium bromide	Molality, mol/kg of 2-aminoacetic acid	Mass density, kg/m3	uncertainty
0	0	997.05	0.31
0	0.1	1000.22	0.31
0	0.15	1001.78	0.32
0	0.2	1003.34	0.33
0	0.25	1004.88	0.34
0	0.3	1006.42	0.36
0	0.35	1007.94	0.37
0.15	0	1003.87	0.33
0.15	0.1	1006.9	0.34
0.15	0.15	1008.39	0.34
0.15	0.2	1009.88	0.35
0.15	0.25	1011.35	0.36
0.15	0.3	1012.82	0.37
0.15	0.35	1014.28	0.38
0.3	0	1010.37	0.4
0.3	0.1	1013.28	0.4
0.3	0.15	1014.71	0.4
0.3	0.2	1016.13	0.41
0.3	0.25	1017.54	0.41
0.3	0.3	1018.94	0.42
0.3	0.35	1020.33	0.43
0.45	0	1016.58	0.48
0.45	0.1	1019.38	0.47
0.45	0.15	1020.75	0.47
0.45	0.2	1022.12	0.48
0.45	0.25	1023.47	0.48
0.45	0.3	1024.81	0.49
0.45	0.35	1026.13	0.49
0.6	0	1022.49	0.56
0.6	0.1	1025.18	0.55
0.6	0.15	1026.5	0.55
0.6	0.2	1027.79	0.55
0.6	0.25	1029.09	0.55
0.6	0.3	1030.37	0.56
0.6	0.35	1031.65	0.56
0.7	0	1026.26	0.6
0.7	0.1	1028.89	0.6
0.7	0.15	1030.16	0.6
0.7	0.2	1031.43	0.6
0.7	0.25	1032.69	0.6
0.7	0.3	1033.94	0.6
0.7	0.35	1035.18	0.6
0.8	0	1029.91	0.66
0.8	0.1	1032.47	0.65
0.8	0.15	1033.71	0.65
0.8	0.2	1034.94	0.65
0.8	0.25	1036.16	0.64
0.8	0.3	1037.35	0.64
0.8	0.35	1038.55	0.64

System: 2-aminoacetic acid + water + 3-hexyl-1-methyl-1H-imidazolium bromide; phases: Liquid
Fixed: Temperature, K = 298.15
Fixed: Pressure, kPa = 99.7
Property: Viscosity, Pa*s (Liquid); method: Falling or rolling sphere viscometry
Molality, mol/kg of 3-hexyl-1-methyl-1H-imidazolium bromide	Molality, mol/kg of 2-aminoacetic acid	Viscosity, Pa*s	uncertainty
0	0	0.00089	1.9e-05
0	0.1	0.000902	1.9e-05
0	0.15	0.000908	1.9e-05
0	0.2	0.000914	1.9e-05
0	0.25	0.00092	2e-05
0	0.3	0.000927	2e-05
0	0.35	0.000934	2e-05
0.15	0	0.000947	2e-05
0.15	0.1	0.000969	2.1e-05
0.15	0.15	0.000975	2.1e-05
0.15	0.2	0.000982	2.1e-05
0.15	0.25	0.000988	2.1e-05
0.15	0.3	0.000995	2.1e-05
0.15	0.35	0.001002	2.1e-05
0.3	0	0.001018	2.2e-05
0.3	0.1	0.001042	2.2e-05
0.3	0.15	0.001048	2.3e-05
0.3	0.2	0.001055	2.3e-05
0.3	0.25	0.001062	2.3e-05
0.3	0.3	0.001069	2.3e-05
0.3	0.35	0.001076	2.3e-05
0.45	0	0.001093	2.4e-05
0.45	0.1	0.001118	2.4e-05
0.45	0.15	0.001124	2.4e-05
0.45	0.2	0.001132	2.5e-05
0.45	0.25	0.001139	2.5e-05
0.45	0.3	0.001147	2.5e-05
0.45	0.35	0.001154	2.5e-05
0.6	0	0.001169	2.6e-05
0.6	0.1	0.001194	2.6e-05
0.6	0.15	0.001202	2.6e-05
0.6	0.2	0.001211	2.7e-05
0.6	0.25	0.001217	2.7e-05
0.6	0.3	0.001225	2.7e-05
0.6	0.35	0.001233	2.7e-05
0.7	0	0.001221	2.7e-05
0.7	0.1	0.001247	2.8e-05
0.7	0.15	0.001255	2.8e-05
0.7	0.2	0.001263	2.8e-05
0.7	0.25	0.001271	2.8e-05
0.7	0.3	0.001279	2.8e-05
0.7	0.35	0.001287	2.8e-05
0.8	0	0.001273	2.8e-05
0.8	0.1	0.001299	2.9e-05
0.8	0.15	0.001308	2.9e-05
0.8	0.2	0.001317	2.9e-05
0.8	0.25	0.001325	3e-05
0.8	0.3	0.001334	3e-05
0.8	0.35	0.00134	3e-05

System: 2-aminoacetic acid + water; phases: Liquid
Fixed: Temperature, K = 298.15
Fixed: Pressure, kPa = 99.7
Property: Mass density, kg/m3 (Liquid); method: Vibrating tube method
Molality, mol/kg of 2-aminoacetic acid	Mass density, kg/m3	uncertainty
0.1	1000.22	0.31
0.15	1001.78	0.32
0.2	1003.34	0.33
0.25	1004.88	0.34
0.3	1006.42	0.35
0.35	1007.94	0.31
0	997.05	0.3

System: 2-aminoacetic acid + water; phases: Liquid
Fixed: Temperature, K = 298.15
Fixed: Pressure, kPa = 99.7
Property: Viscosity, Pa*s (Liquid); method: Falling or rolling sphere viscometry
Molality, mol/kg of 2-aminoacetic acid	Viscosity, Pa*s	uncertainty
0.1	0.000902	1.9e-05
0.15	0.000908	1.9e-05
0.2	0.000914	1.9e-05
0.25	0.00092	2e-05
0.3	0.000927	2e-05
0.35	0.000934	2e-05
0	0.00089	1.9e-05

System: water + 1-ethyl-3-methylimidazolium bromide; phases: Liquid
Fixed: Temperature, K = 298.15
Fixed: Pressure, kPa = 99.7
Property: Mass density, kg/m3 (Liquid); method: Vibrating tube method
Molality, mol/kg of 1-ethyl-3-methylimidazolium bromide	Mass density, kg/m3	uncertainty
0.15	1004.96	0.34
0.3	1012.56	0.43
0.45	1019.92	0.53
0.6	1027.01	0.64
0.7	1031.63	0.71
0.8	1036.11	0.35
0	997.05	0.3

System: water + 1-ethyl-3-methylimidazolium bromide; phases: Liquid
Fixed: Temperature, K = 298.15
Fixed: Pressure, kPa = 99.7
Property: Viscosity, Pa*s (Liquid); method: Falling or rolling sphere viscometry
Molality, mol/kg of 1-ethyl-3-methylimidazolium bromide	Viscosity, Pa*s	uncertainty
0.15	0.000899	1.9e-05
0.3	0.00093	2e-05
0.45	0.000961	2.1e-05
0.6	0.000992	2.1e-05
0.7	0.001013	2.2e-05
0.8	0.001036	2.2e-05
0	0.00089	1.9e-05

System: water + 1-butyl-3-methylimidazolium bromide; phases: Liquid
Fixed: Temperature, K = 298.15
Fixed: Pressure, kPa = 99.7
Property: Mass density, kg/m3 (Liquid); method: Vibrating tube method
Molality, mol/kg of 1-butyl-3-methylimidazolium bromide	Mass density, kg/m3	uncertainty
0.15	1004.39	0.34
0.3	1011.43	0.41
0.45	1018.2	0.5
0.6	1024.73	0.6
0.7	1028.96	0.66
0.8	1033.08	0.35
0	997.05	0.3

System: water + 1-butyl-3-methylimidazolium bromide; phases: Liquid
Fixed: Temperature, K = 298.15
Fixed: Pressure, kPa = 99.7
Property: Viscosity, Pa*s (Liquid); method: Falling or rolling sphere viscometry
Molality, mol/kg of 1-butyl-3-methylimidazolium bromide	Viscosity, Pa*s	uncertainty
0.15	0.000922	2e-05
0.3	0.000974	2.1e-05
0.45	0.001028	2.2e-05
0.6	0.001084	2.4e-05
0.7	0.001121	2.5e-05
0.8	0.001164	2.5e-05
0	0.00089	1.9e-05

System: water + 3-hexyl-1-methyl-1H-imidazolium bromide; phases: Liquid
Fixed: Temperature, K = 298.15
Fixed: Pressure, kPa = 99.7
Property: Mass density, kg/m3 (Liquid); method: Vibrating tube method
Molality, mol/kg of 3-hexyl-1-methyl-1H-imidazolium bromide	Mass density, kg/m3	uncertainty
0.15	1003.87	0.33
0.3	1010.37	0.4
0.45	1016.58	0.47
0.6	1022.49	0.56
0.7	1026.26	0.6
0.8	1029.91	0.35
0	997.05	0.3

System: water + 3-hexyl-1-methyl-1H-imidazolium bromide; phases: Liquid
Fixed: Temperature, K = 298.15
Fixed: Pressure, kPa = 99.7
Property: Viscosity, Pa*s (Liquid); method: Falling or rolling sphere viscometry
Molality, mol/kg of 3-hexyl-1-methyl-1H-imidazolium bromide	Viscosity, Pa*s	uncertainty
0.15	0.000947	2e-05
0.3	0.001018	2.2e-05
0.45	0.001093	2.4e-05
0.6	0.001169	2.6e-05
0.7	0.001221	2.7e-05
0.8	0.001273	2.7e-05
0	0.00089	1.9e-05
