Measured thermophysical data. Experimental thermochemical study of the monochloronitrobenzene isomers
Source: J. Chem. Thermodyn., 2009, 10.1016/j.jct.2008.07.012
Compound 1: hydrogen chloride, ClH, InChI=1S/ClH/h1H
Compound 2: carbon dioxide, CO2, InChI=1S/CO2/c2-1-3
Compound 3: nitrogen, N2, InChI=1S/N2/c1-2
Compound 4: water, H2O, InChI=1S/H2O/h1H2
Compound 5: oxygen, O2, InChI=1S/O2/c1-2
Compound 6: 1-chloro-2-nitrobenzene, C6H4ClNO2, InChI=1S/C6H4ClNO2/c7-5-3-1-2-4-6(5)8(9)10/h1-4H, purity 98%
Compound 7: 1-chloro-3-nitrobenzene, C6H4ClNO2, InChI=1S/C6H4ClNO2/c7-5-2-1-3-6(4-5)8(9)10/h1-4H, purity 98%
Compound 8: 1-chloro-4-nitrobenzene, C6H4ClNO2, InChI=1S/C6H4ClNO2/c7-5-1-3-6(4-2-5)8(9)10/h1-4H, purity 98%

System: 1-chloro-2-nitrobenzene; phases: Crystal, Gas
Property: Molar enthalpy of vaporization or sublimation, kJ/mol (Crystal); method: Calvet Calorimetry
Temperature, K	Molar enthalpy of vaporization or sublimation, kJ/mol	uncertainty
298.15	80.9	3

System: 1-chloro-2-nitrobenzene; phases: Gas
Property: Molar enthalpy, kJ/mol (Gas); method: Calvet Calorimetry
Temperature, K	Pressure, kPa	Molar enthalpy, kJ/mol	uncertainty
323.9	100	84.6	0.2

System: 1-chloro-3-nitrobenzene; phases: Crystal, Gas
Property: Molar enthalpy of vaporization or sublimation, kJ/mol (Crystal); method: Calvet Calorimetry
Temperature, K	Molar enthalpy of vaporization or sublimation, kJ/mol	uncertainty
298.15	82.5	3

System: 1-chloro-3-nitrobenzene; phases: Gas
Property: Molar enthalpy, kJ/mol (Gas); method: Calvet Calorimetry
Temperature, K	Pressure, kPa	Molar enthalpy, kJ/mol	uncertainty
324	100	86.2	0.4

System: 1-chloro-4-nitrobenzene; phases: Crystal, Gas
Property: Molar enthalpy of vaporization or sublimation, kJ/mol (Crystal); method: Calvet Calorimetry
Temperature, K	Molar enthalpy of vaporization or sublimation, kJ/mol	uncertainty
298.15	76.2	4.2

System: 1-chloro-4-nitrobenzene; phases: Gas
Property: Molar enthalpy, kJ/mol (Gas); method: Calvet Calorimetry
Temperature, K	Pressure, kPa	Molar enthalpy, kJ/mol	uncertainty
360	100	85	1

Reaction: -1 1-chloro-2-nitrobenzene + 1 hydrogen chloride + 6 carbon dioxide + .5 nitrogen + 1.5 water + -5.75 oxygen
Property: Specific internal energy of reaction at constant volume, J/g
-18657.1

Reaction: -1 1-chloro-3-nitrobenzene + 1 hydrogen chloride + 6 carbon dioxide + .5 nitrogen + 1.5 water + -5.75 oxygen
Property: Specific internal energy of reaction at constant volume, J/g
-18506.5

Reaction: -1 1-chloro-4-nitrobenzene + 1 hydrogen chloride + 6 carbon dioxide + .5 nitrogen + 1.5 water + -5.75 oxygen
Property: Specific internal energy of reaction at constant volume, J/g
-18543.7
