Measured thermophysical data. Volumetric and compressibility behaviour of ionic liquid, 1-n-butyl-3-methylimidazolium hexafluorophosphate and tetrabutylammonium hexafluorophosphate in organic solvents at T = 298.15 K
Source: J. Chem. Thermodyn., 2006, 10.1016/j.jct.2005.07.018
Compound 1: 1-butyl-3-methylimidazolium hexafluorophosphate, C8H15F6N2P, InChI=1S/C8H15N2.F6P/c1-3-4-5-10-7-6-9(2)8-10;1-7(2,3,4,5)6/h6-8H,3-5H2,1-2H3;/q+1;-1, purity 98%
Compound 2: tetrabutylammonium hexafluorophosphate, C16H36F6NP, InChI=1S/C16H36N.F6P/c1-5-9-13-17(14-10-6-2,15-11-7-3)16-12-8-4;1-7(2,3,4,5)6/h5-16H2,1-4H3;/q+1;-1, purity 99.5%
Compound 3: methanol, CH4O, InChI=1S/CH4O/c1-2/h2H,1H3, purity 99.9%
Compound 4: acetonitrile, C2H3N, InChI=1S/C2H3N/c1-2-3/h1H3, purity 99.9%
Compound 5: N,N-dimethylethanamide, C4H9NO, InChI=1S/C4H9NO/c1-4(6)5(2)3/h1-3H3, purity 99.9%
Compound 6: dimethyl sulfoxide, C2H6OS, InChI=1S/C2H6OS/c1-4(2)3/h1-2H3, purity 99.8%
Compound 7: tetrahydrofuran, C4H8O, InChI=1S/C4H8O/c1-2-4-5-3-1/h1-4H2, purity 99.5%

System: 1-butyl-3-methylimidazolium hexafluorophosphate; phases: Liquid
Property: Mass density, kg/m3 (Liquid); method: VIBTUB:UFactor:4
Temperature, K	Pressure, kPa	Mass density, kg/m3	uncertainty
298.15	101.325	1366.657	1.564

System: 1-butyl-3-methylimidazolium hexafluorophosphate; phases: Liquid
Property: Speed of sound, m/s (Liquid); method: LVPAI:UFactor:2
Temperature, K	Pressure, kPa	Speed of sound, m/s	uncertainty
298.15	101.325	1442.41	3.61

System: methanol; phases: Liquid
Property: Mass density, kg/m3 (Liquid); method: VIBTUB:UFactor:2
Temperature, K	Pressure, kPa	Mass density, kg/m3	uncertainty
298.15	101.325	786.531	0.236

System: methanol; phases: Liquid
Property: Speed of sound, m/s (Liquid); method: Linear variable-path acoustic interferometer
Temperature, K	Pressure, kPa	Speed of sound, m/s	uncertainty
298.15	101.325	1102.68	1.25

System: acetonitrile; phases: Liquid
Property: Mass density, kg/m3 (Liquid); method: VIBTUB:UFactor:2
Temperature, K	Pressure, kPa	Mass density, kg/m3	uncertainty
298.15	101.325	776.533	0.243

System: acetonitrile; phases: Liquid
Property: Speed of sound, m/s (Liquid); method: Linear variable-path acoustic interferometer
Temperature, K	Pressure, kPa	Speed of sound, m/s	uncertainty
298.15	101.325	1278.62	1.38

System: N,N-dimethylethanamide; phases: Liquid
Property: Mass density, kg/m3 (Liquid); method: VIBTUB:UFactor:2
Temperature, K	Pressure, kPa	Mass density, kg/m3	uncertainty
298.15	101.325	936.274	0.122

System: N,N-dimethylethanamide; phases: Liquid
Property: Speed of sound, m/s (Liquid); method: Linear variable-path acoustic interferometer
Temperature, K	Pressure, kPa	Speed of sound, m/s	uncertainty
298.15	101.325	1456.52	1.52

System: dimethyl sulfoxide; phases: Liquid
Property: Mass density, kg/m3 (Liquid); method: VIBTUB:UFactor:2
Temperature, K	Pressure, kPa	Mass density, kg/m3	uncertainty
298.15	101.325	1095.271	0.176

System: dimethyl sulfoxide; phases: Liquid
Property: Speed of sound, m/s (Liquid); method: Linear variable-path acoustic interferometer
Temperature, K	Pressure, kPa	Speed of sound, m/s	uncertainty
298.15	101.325	1485.12	1.55

System: tetrahydrofuran; phases: Liquid
Property: Mass density, kg/m3 (Liquid); method: VIBTUB:UFactor:2
Temperature, K	Pressure, kPa	Mass density, kg/m3	uncertainty
298.15	101.325	881.996	0.271

System: tetrahydrofuran; phases: Liquid
Property: Speed of sound, m/s (Liquid); method: Linear variable-path acoustic interferometer
Temperature, K	Pressure, kPa	Speed of sound, m/s	uncertainty
298.15	101.325	1278.49	1.47

System: methanol + 1-butyl-3-methylimidazolium hexafluorophosphate; phases: Liquid
Fixed: Pressure, kPa = 101
Fixed: Temperature, K = 298.15
Property: Speed of sound, m/s (Liquid); method: LVPAI:UFactor:2
Molality, mol/kg of 1-butyl-3-methylimidazolium hexafluorophosphate	Speed of sound, m/s	uncertainty
0.0133	1103.75	2.49
0.0288	1104.88	2.49
0.0424	1105.7	2.49
0.0739	1107.66	2.49
0.0966	1108.94	2.5
0.1419	1111.23	2.5
0.1992	1113.98	2.51
0.2412	1115.85	2.51
0.2796	1117.46	2.52
0.404	1122.26	2.53
0.461	1124.25	2.54
0.6132	1129.26	2.55

System: methanol + 1-butyl-3-methylimidazolium hexafluorophosphate; phases: Liquid
Fixed: Pressure, kPa = 101
Fixed: Temperature, K = 298.15
Property: Mass density, kg/m3 (Liquid); method: VIBTUB:UFactor:8
Molality, mol/kg of 1-butyl-3-methylimidazolium hexafluorophosphate	Mass density, kg/m3	uncertainty
0.0133	788.011	0.919
0.0288	789.686	0.914
0.0424	791.12	0.909
0.0739	794.425	0.899
0.0966	796.76	0.892
0.1419	801.334	0.878
0.1992	807.045	0.861
0.2412	811.062	0.85
0.2796	814.795	0.838
0.404	826.259	0.806
0.461	831.366	0.792
0.6132	844.434	0.757

System: acetonitrile + 1-butyl-3-methylimidazolium hexafluorophosphate; phases: Liquid
Fixed: Pressure, kPa = 101
Fixed: Temperature, K = 298.15
Property: Speed of sound, m/s (Liquid); method: LVPAI:UFactor:2
Molality, mol/kg of 1-butyl-3-methylimidazolium hexafluorophosphate	Speed of sound, m/s	uncertainty
0.0452	1279.76	2.76
0.0689	1280.19	2.76
0.0835	1280.49	2.76
0.1021	1280.72	2.76
0.1088	1280.83	2.76
0.1409	1281.3	2.8
0.1939	1282.07	2.77
0.2643	1282.96	2.77
0.3566	1284.06	2.78
0.4576	1285.28	2.78

System: acetonitrile + 1-butyl-3-methylimidazolium hexafluorophosphate; phases: Liquid
Fixed: Pressure, kPa = 101
Fixed: Temperature, K = 298.15
Property: Mass density, kg/m3 (Liquid); method: VIBTUB:UFactor:8
Molality, mol/kg of 1-butyl-3-methylimidazolium hexafluorophosphate	Mass density, kg/m3	uncertainty
0.0452	781.327	0.939
0.0689	783.783	0.932
0.0835	785.289	0.927
0.1021	787.19	0.92
0.1088	787.875	0.92
0.1409	791.131	0.91
0.1939	796.403	0.894
0.2643	803.205	0.874
0.3566	811.886	0.849
0.4576	821.093	0.823

System: dimethyl sulfoxide + 1-butyl-3-methylimidazolium hexafluorophosphate; phases: Liquid
Fixed: Pressure, kPa = 101
Fixed: Temperature, K = 298.15
Property: Speed of sound, m/s (Liquid); method: LVPAI:UFactor:2
Molality, mol/kg of 1-butyl-3-methylimidazolium hexafluorophosphate	Speed of sound, m/s	uncertainty
0.0112	1485.1	3.1
0.0243	1485.05	3.08
0.044	1484.94	3.08
0.0716	1484.78	3.08
0.0889	1484.6	3.1
0.1233	1484.35	3.09
0.147	1484.19	3.09
0.238	1483.57	3.09
0.3189	1483.03	3.09
0.3955	1482.55	3.1
0.5188	1481.76	3.1

System: dimethyl sulfoxide + 1-butyl-3-methylimidazolium hexafluorophosphate; phases: Liquid
Fixed: Pressure, kPa = 101
Fixed: Temperature, K = 298.15
Property: Mass density, kg/m3 (Liquid); method: VIBTUB:UFactor:8
Molality, mol/kg of 1-butyl-3-methylimidazolium hexafluorophosphate	Mass density, kg/m3	uncertainty
0.0112	1095.976	0.563
0.0243	1096.798	0.566
0.044	1098.015	0.571
0.0716	1099.708	0.578
0.0889	1100.744	0.582
0.1233	1102.805	0.591
0.147	1104.201	0.596
0.238	1109.444	0.618
0.3189	1113.934	0.638
0.3955	1118.048	0.656
0.5188	1124.403	0.684

System: N,N-dimethylethanamide + 1-butyl-3-methylimidazolium hexafluorophosphate; phases: Liquid
Fixed: Pressure, kPa = 101
Fixed: Temperature, K = 298.15
Property: Speed of sound, m/s (Liquid); method: LVPAI:UFactor:2
Molality, mol/kg of 1-butyl-3-methylimidazolium hexafluorophosphate	Speed of sound, m/s	uncertainty
0.0125	1456.71	3.03
0.0255	1456.95	3.03
0.0621	1457.6	3
0.0894	1457.93	3.04
0.1235	1458.62	3.04
0.1351	1458.44	3.04
0.1613	1458.88	3.04
0.1905	1459.19	3.04
0.3037	1460.19	3.05
0.3683	1460.61	3.05
0.4697	1461.11	3.06

System: N,N-dimethylethanamide + 1-butyl-3-methylimidazolium hexafluorophosphate; phases: Liquid
Fixed: Pressure, kPa = 101
Fixed: Temperature, K = 298.15
Property: Mass density, kg/m3 (Liquid); method: VIBTUB:UFactor:8
Molality, mol/kg of 1-butyl-3-methylimidazolium hexafluorophosphate	Mass density, kg/m3	uncertainty
0.0125	937.454	0.456
0.0255	938.668	0.452
0.0621	942.01	0.443
0.0894	944.466	0.437
0.1235	947.495	0.429
0.1351	948.511	0.426
0.1613	950.795	0.42
0.1905	953.306	0.414
0.3037	962.705	0.393
0.3683	967.921	0.382
0.4697	975.843	0.369

System: tetrahydrofuran + 1-butyl-3-methylimidazolium hexafluorophosphate; phases: Liquid
Fixed: Pressure, kPa = 101
Fixed: Temperature, K = 298.15
Property: Speed of sound, m/s (Liquid); method: LVPAI:UFactor:2
Molality, mol/kg of 1-butyl-3-methylimidazolium hexafluorophosphate	Speed of sound, m/s	uncertainty
0.01	1278.69	2.8
0.0218	1278.92	2.8
0.0306	1279.01	2.8
0.0578	1279.15	2.81
0.0731	1279.18	2.81
0.1018	1279.19	2.81
0.1228	1279.25	2.81
0.1561	1279.26	2.81
0.2045	1279.29	2.82
0.2466	1279.3	2.82
0.2811	1279.31	2.82
0.4163	1279.56	2.83

System: tetrahydrofuran + 1-butyl-3-methylimidazolium hexafluorophosphate; phases: Liquid
Fixed: Pressure, kPa = 101
Fixed: Temperature, K = 298.15
Property: Mass density, kg/m3 (Liquid); method: VIBTUB:UFactor:8
Molality, mol/kg of 1-butyl-3-methylimidazolium hexafluorophosphate	Mass density, kg/m3	uncertainty
0.01	883.07	0.662
0.0218	884.323	0.659
0.0306	885.225	0.656
0.0578	887.952	0.65
0.0731	889.468	0.647
0.1018	892.277	0.641
0.1228	894.293	0.637
0.1561	897.462	0.63
0.2045	901.98	0.621
0.2466	905.831	0.614
0.2811	908.968	0.608
0.4163	921.02	0.588

System: methanol + tetrabutylammonium hexafluorophosphate; phases: Liquid
Fixed: Pressure, kPa = 101
Fixed: Temperature, K = 298.15
Property: Speed of sound, m/s (Liquid); method: Linear variable-path acoustic interferometer
Molality, mol/kg of tetrabutylammonium hexafluorophosphate	Speed of sound, m/s	uncertainty
0.0101	1103.62	1.25
0.0131	1103.85	1.25
0.0172	1104.25	1.25
0.0227	1104.73	1.25
0.0311	1105.48	1.25
0.0386	1106.14	1.25
0.046	1106.79	1.25
0.0523	1107.31	1.25
0.0694	1108.63	1.25
0.0963	1110.61	1.25
0.1253	1112.69	1.25
0.1587	1115.06	1.26
0.185	1116.77	1.26
0.2172	1118.87	1.26
0.2431	1120.43	1.26

System: methanol + tetrabutylammonium hexafluorophosphate; phases: Liquid
Fixed: Pressure, kPa = 101
Fixed: Temperature, K = 298.15
Property: Mass density, kg/m3 (Liquid); method: VIBTUB:UFactor:2
Molality, mol/kg of tetrabutylammonium hexafluorophosphate	Mass density, kg/m3	uncertainty
0.0101	787.566	0.253
0.0131	787.869	0.252
0.0172	788.27	0.252
0.0227	788.822	0.252
0.0311	789.663	0.251
0.0386	790.41	0.25
0.046	791.134	0.249
0.0523	791.748	0.248
0.0694	793.383	0.247
0.0963	795.939	0.245
0.1253	798.621	0.243
0.1587	801.683	0.24
0.185	804.02	0.239
0.2172	806.921	0.237
0.2431	809.166	0.235

System: acetonitrile + tetrabutylammonium hexafluorophosphate; phases: Liquid
Fixed: Pressure, kPa = 101
Fixed: Temperature, K = 298.15
Property: Speed of sound, m/s (Liquid); method: Linear variable-path acoustic interferometer
Molality, mol/kg of tetrabutylammonium hexafluorophosphate	Speed of sound, m/s	uncertainty
0.0102	1279.09	1.38
0.0129	1279.14	1.38
0.0152	1279.18	1.38
0.0221	1279.29	1.38
0.0324	1279.43	1.38
0.0379	1279.5	1.38
0.0689	1279.96	1.38
0.1039	1280.45	1.38
0.164	1281.24	1.39
0.2112	1281.83	1.39
0.2904	1282.87	1.39
0.379	1284.09	1.39
0.5002	1285.83	1.39

System: acetonitrile + tetrabutylammonium hexafluorophosphate; phases: Liquid
Fixed: Pressure, kPa = 101
Fixed: Temperature, K = 298.15
Property: Mass density, kg/m3 (Liquid); method: VIBTUB:UFactor:2
Molality, mol/kg of tetrabutylammonium hexafluorophosphate	Mass density, kg/m3	uncertainty
0.0102	777.663	0.258
0.0129	777.923	0.258
0.0152	778.152	0.258
0.0221	778.829	0.257
0.0324	779.824	0.257
0.0379	780.355	0.256
0.0689	783.317	0.254
0.1039	786.566	0.251
0.164	792.03	0.247
0.2112	796.196	0.243
0.2904	802.895	0.238
0.379	810.144	0.233
0.5002	819.48	0.228

System: dimethyl sulfoxide + tetrabutylammonium hexafluorophosphate; phases: Liquid
Fixed: Pressure, kPa = 101
Fixed: Temperature, K = 298.15
Property: Speed of sound, m/s (Liquid); method: Linear variable-path acoustic interferometer
Molality, mol/kg of tetrabutylammonium hexafluorophosphate	Speed of sound, m/s	uncertainty
0.0104	1485.01	1.55
0.0185	1484.85	1.55
0.0268	1484.66	1.55
0.0313	1484.54	1.55
0.0437	1484.24	1.55
0.0529	1483.99	1.55
0.0606	1483.77	1.55
0.0698	1483.55	1.55
0.0879	1483.09	1.55
0.1105	1482.61	1.55

System: dimethyl sulfoxide + tetrabutylammonium hexafluorophosphate; phases: Liquid
Fixed: Pressure, kPa = 101
Fixed: Temperature, K = 298.15
Property: Mass density, kg/m3 (Liquid); method: VIBTUB:UFactor:2
Molality, mol/kg of tetrabutylammonium hexafluorophosphate	Mass density, kg/m3	uncertainty
0.0104	1095.371	0.176
0.0185	1095.446	0.176
0.0268	1095.52	0.177
0.0313	1095.56	0.177
0.0437	1095.667	0.177
0.0529	1095.744	0.178
0.0606	1095.808	0.178
0.0698	1095.878	0.178
0.0879	1096.013	0.179
0.1105	1096.162	0.18

System: N,N-dimethylethanamide + tetrabutylammonium hexafluorophosphate; phases: Liquid
Fixed: Pressure, kPa = 101
Fixed: Temperature, K = 298.15
Property: Speed of sound, m/s (Liquid); method: Linear variable-path acoustic interferometer
Molality, mol/kg of tetrabutylammonium hexafluorophosphate	Speed of sound, m/s	uncertainty
0.0037	1456.52	1.52
0.0069	1456.51	1.52
0.0136	1456.51	1.52
0.0194	1456.49	1.52
0.0327	1456.47	1.52
0.0397	1456.45	1.52
0.0533	1456.4	1.52
0.0668	1456.36	1.52
0.078	1456.35	1.52
0.097	1456.28	1.52
0.115	1456.26	1.52

System: N,N-dimethylethanamide + tetrabutylammonium hexafluorophosphate; phases: Liquid
Fixed: Pressure, kPa = 101
Fixed: Temperature, K = 298.15
Property: Mass density, kg/m3 (Liquid); method: VIBTUB:UFactor:2
Molality, mol/kg of tetrabutylammonium hexafluorophosphate	Mass density, kg/m3	uncertainty
0.0037	936.522	0.139
0.0069	936.738	0.138
0.0136	937.186	0.138
0.0194	937.57	0.138
0.0327	938.442	0.137
0.0397	938.888	0.136
0.0533	939.757	0.136
0.0668	940.6	0.135
0.078	941.282	0.135
0.097	942.447	0.134
0.115	943.518	0.134

System: tetrahydrofuran + tetrabutylammonium hexafluorophosphate; phases: Liquid
Fixed: Pressure, kPa = 101
Fixed: Temperature, K = 298.15
Property: Speed of sound, m/s (Liquid); method: Linear variable-path acoustic interferometer
Molality, mol/kg of tetrabutylammonium hexafluorophosphate	Speed of sound, m/s	uncertainty
0.0059	1278.76	1.47
0.008	1278.81	1.47
0.0116	1278.92	1.47
0.0124	1278.98	1.47
0.0145	1279.05	1.47
0.0172	1279.37	1.47
0.0223	1279.28	1.47
0.0263	1279.42	1.47
0.0396	1279.65	1.47
0.0445	1279.88	1.47
0.0619	1280.05	1.47
0.0806	1280.52	1.47
0.1172	1281.32	1.47
0.1495	1281.98	1.47
0.1822	1282.53	1.47
0.1919	1282.77	1.47
0.2248	1283.37	1.47
0.2757	1284.7	1.47
0.3755	1286.72	1.47

System: tetrahydrofuran + tetrabutylammonium hexafluorophosphate; phases: Liquid
Fixed: Pressure, kPa = 101
Fixed: Temperature, K = 298.15
Property: Mass density, kg/m3 (Liquid); method: VIBTUB:UFactor:2
Molality, mol/kg of tetrabutylammonium hexafluorophosphate	Mass density, kg/m3	uncertainty
0.0059	882.641	0.288
0.008	882.854	0.287
0.0116	883.196	0.283
0.0124	883.265	0.285
0.0145	883.458	0.279
0.0172	883.617	0.281
0.0223	884.059	0.283
0.0263	884.409	0.283
0.0396	885.58	0.283
0.0445	886.001	0.282
0.0619	887.45	0.281
0.0806	888.991	0.28
0.1172	891.94	0.279
0.1495	894.415	0.278
0.1822	896.96	0.278
0.1919	897.693	0.277
0.2248	900.122	0.276
0.2757	903.903	0.274
0.3755	910.504	0.272
