Measured thermophysical data. Measurement of the thermal conductivity of five aliphatic esters in the liquid phase
Source: J. Chem. Thermodyn., 2019, 10.1016/j.jct.2019.06.014
Compound 1: ethyl acetate, C4H8O2, InChI=1S/C4H8O2/c1-3-6-4(2)5/h3H2,1-2H3, purity 99%
Compound 2: ethyl propanoate, C5H10O2, InChI=1S/C5H10O2/c1-3-5(6)7-4-2/h3-4H2,1-2H3, purity 99%
Compound 3: ethyl butanoate, C6H12O2, InChI=1S/C6H12O2/c1-3-5-6(7)8-4-2/h3-5H2,1-2H3, purity 99%
Compound 4: ethyl pentanoate, C7H14O2, InChI=1S/C7H14O2/c1-3-5-6-7(8)9-4-2/h3-6H2,1-2H3, purity 99%
Compound 5: ethyl hexanoate, C8H16O2, InChI=1S/C8H16O2/c1-3-5-6-7-8(9)10-4-2/h3-7H2,1-2H3, purity 99%
Compound 6: ethanol, C2H6O, InChI=1S/C2H6O/c1-2-3/h3H,2H2,1H3
Compound 7: water, H2O, InChI=1S/H2O/h1H2

System: ethyl acetate; phases: Liquid
Fixed: Pressure, kPa = 101.325
Property: Thermal conductivity, W/m/K (Liquid); method: THOTW
Temperature, K	Thermal conductivity, W/m/K	uncertainty
249.13	0.1618	0.0065
253.89	0.1602	0.0064
260.17	0.1574	0.0063
268.04	0.154	0.0062
274.35	0.152	0.0061
281.34	0.1491	0.006
285.31	0.1472	0.0059
290.42	0.1451	0.0058
295.44	0.1429	0.0058
298.52	0.1414	0.0057
303.53	0.1396	0.0056
308.44	0.1378	0.0055
313.45	0.1361	0.0055
318.4	0.1346	0.0054
323.25	0.1324	0.0053
328.39	0.1308	0.0053
333.37	0.1288	0.0052
338.34	0.1273	0.0051
343.27	0.1257	0.0051
345.43	0.1245	0.005
348.46	0.1239	0.005

System: ethyl propanoate; phases: Liquid
Fixed: Pressure, kPa = 101.325
Property: Thermal conductivity, W/m/K (Liquid); method: THOTW
Temperature, K	Thermal conductivity, W/m/K	uncertainty
263.55	0.1547	0.0062
268.41	0.1531	0.0062
270.94	0.152	0.0061
278.51	0.1474	0.0059
283.51	0.1447	0.0058
288.56	0.143	0.0058
293.54	0.1408	0.0057
296.36	0.1404	0.0057
301.4	0.1384	0.0056
306.51	0.1365	0.0055
311.34	0.1348	0.0054
316.45	0.1332	0.0054
321.47	0.1314	0.0053
326.44	0.13	0.0052
331.53	0.128	0.0052
336.4	0.1264	0.0051
341.36	0.125	0.005
346.42	0.1231	0.005
351.35	0.1219	0.0049
356.28	0.1208	0.0049

System: ethyl butanoate; phases: Liquid
Fixed: Pressure, kPa = 101.325
Property: Thermal conductivity, W/m/K (Liquid); method: THOTW
Temperature, K	Thermal conductivity, W/m/K	uncertainty
268.57	0.1471	0.0059
273.61	0.1446	0.0058
278.63	0.1423	0.0057
283.58	0.1408	0.0057
288.65	0.1385	0.0056
293.58	0.1374	0.0055
298.53	0.1357	0.0055
303.56	0.1339	0.0054
308.67	0.132	0.0053
313.49	0.1311	0.0053
318.61	0.1293	0.0052
323.42	0.1282	0.0052
328.48	0.1264	0.0051
333.46	0.1249	0.005
338.5	0.1234	0.005
343.51	0.1214	0.0049
348.54	0.12	0.0048
353.36	0.1192	0.0048
358.57	0.1173	0.0047
363.52	0.1163	0.0047

System: ethyl pentanoate; phases: Liquid
Fixed: Pressure, kPa = 101.325
Property: Thermal conductivity, W/m/K (Liquid); method: THOTW
Temperature, K	Thermal conductivity, W/m/K	uncertainty
249.21	0.1501	0.006
263.9	0.1458	0.0059
273.5	0.1433	0.0058
283.8	0.1396	0.0056
288.74	0.1389	0.0056
289.42	0.1377	0.0055
293.69	0.1369	0.0055
298.79	0.1357	0.0055
303.69	0.1344	0.0054
308.61	0.1328	0.0053
313.74	0.1314	0.0053
318.49	0.1301	0.0052
323.74	0.1282	0.0052
328.62	0.1268	0.0051
333.51	0.1256	0.0051
338.47	0.1241	0.005
343.55	0.1228	0.0049
348.55	0.1216	0.0049
353.49	0.1201	0.0048
358.46	0.1184	0.0048
363.57	0.1177	0.0047

System: ethyl hexanoate; phases: Liquid
Fixed: Pressure, kPa = 101.325
Property: Thermal conductivity, W/m/K (Liquid); method: THOTW
Temperature, K	Thermal conductivity, W/m/K	uncertainty
254.29	0.1474	0.0059
264.08	0.1447	0.0058
274.02	0.1429	0.0058
283.95	0.1398	0.0056
293.74	0.1375	0.0055
303.7	0.1353	0.0054
313.76	0.1323	0.0053
323.67	0.13	0.0052
333.63	0.1268	0.0051
343.56	0.1242	0.005
353.55	0.1216	0.0049
363.41	0.1191	0.0048
373.4	0.1172	0.0047
383.37	0.1153	0.0046

System: ethanol; phases: Liquid
Fixed: Pressure, kPa = 101.325
Property: Thermal conductivity, W/m/K (Liquid); method: THOTW
Temperature, K	Thermal conductivity, W/m/K	uncertainty
276.51	0.1719	0.0072
287.55	0.1677	0.0071
297.25	0.1645	0.0069
307.16	0.1617	0.0068

System: water; phases: Liquid
Fixed: Pressure, kPa = 101.325
Property: Thermal conductivity, W/m/K (Liquid); method: THOTW
Temperature, K	Thermal conductivity, W/m/K	uncertainty
299.55	0.613	0.0258
309.83	0.6313	0.0265
319.56	0.6399	0.0269
332.53	0.6555	0.0275
339.33	0.657	0.0276
349.41	0.6723	0.0282
