Measured thermophysical data. Dynamic viscosities of 2-butanol with alkanes (C8, C10, and C12) at several temperatures
Source: J. Chem. Thermodyn., 2004, 10.1016/j.jct.2003.12.005
Compound 1: butan-2-ol, C4H10O, InChI=1S/C4H10O/c1-3-4(2)5/h4-5H,3H2,1-2H3
Compound 2: octane, C8H18, InChI=1S/C8H18/c1-3-5-7-8-6-4-2/h3-8H2,1-2H3
Compound 3: decane, C10H22, InChI=1S/C10H22/c1-3-5-7-9-10-8-6-4-2/h3-10H2,1-2H3
Compound 4: dodecane, C12H26, InChI=1S/C12H26/c1-3-5-7-9-11-12-10-8-6-4-2/h3-12H2,1-2H3

System: butan-2-ol; phases: Liquid
Fixed: Pressure, kPa = 101.3
Property: Viscosity, Pa*s (Liquid); method: CAPTUB:UFactor:4
Temperature, K	Viscosity, Pa*s	uncertainty
293.15	0.003623	8.6e-05
298.15	0.002995	7.2e-05
303.15	0.002493	6.1e-05

System: butan-2-ol; phases: Liquid
Fixed: Pressure, kPa = 101.3
Property: Speed of sound, m/s (Liquid); method: FPINT:UFactor:2
Temperature, K	Speed of sound, m/s	uncertainty
293.15	1230	2
298.15	1212	2
303.15	1194	2

System: butan-2-ol; phases: Liquid
Fixed: Pressure, kPa = 101.3
Property: Mass density, kg/m3 (Liquid); method: VIBTUB:UFactor:2
Temperature, K	Mass density, kg/m3	uncertainty
293.15	806.8	0.3
298.15	802.7	0.3
303.15	798.5	0.3

System: octane; phases: Liquid
Fixed: Pressure, kPa = 101.3
Property: Viscosity, Pa*s (Liquid); method: CAPTUB::UFactor:4
Temperature, K	Viscosity, Pa*s	uncertainty
293.15	0.000538	1.5e-05
298.15	0.000506	1.4e-05
303.15	0.000478	1.4e-05

System: octane; phases: Liquid
Fixed: Pressure, kPa = 101.3
Property: Speed of sound, m/s (Liquid); method: FPINT::UFactor:2
Temperature, K	Speed of sound, m/s	uncertainty
293.15	1193	2
298.15	1173	2
303.15	1152	2

System: octane; phases: Liquid
Fixed: Pressure, kPa = 101.3
Property: Mass density, kg/m3 (Liquid); method: VIBTUB::UFactor:2
Temperature, K	Mass density, kg/m3	uncertainty
293.15	702.6	0.3
298.15	698.5	0.4
303.15	694.5	0.4

System: decane; phases: Liquid
Fixed: Pressure, kPa = 101.3
Property: Viscosity, Pa*s (Liquid); method: CAPTUB::UFactor:2
Temperature, K	Viscosity, Pa*s	uncertainty
293.15	0.000911	1.5e-05
298.15	0.000845	1.4e-05
303.15	0.000787	1.3e-05

System: decane; phases: Liquid
Fixed: Pressure, kPa = 101.3
Property: Speed of sound, m/s (Liquid); method: FPINT::UFactor:2
Temperature, K	Speed of sound, m/s	uncertainty
293.15	1254	2
298.15	1235	2
303.15	1215	2

System: decane; phases: Liquid
Fixed: Pressure, kPa = 101.3
Property: Mass density, kg/m3 (Liquid); method: VIBTUB::UFactor:2
Temperature, K	Mass density, kg/m3	uncertainty
293.15	729.9	0.5
298.15	726.1	0.5
303.15	722.3	0.5

System: dodecane; phases: Liquid
Fixed: Pressure, kPa = 101.3
Property: Viscosity, Pa*s (Liquid); method: CAPTUB::UFactor:2
Temperature, K	Viscosity, Pa*s	uncertainty
293.15	0.001454	2.3e-05
298.15	0.001327	2.1e-05
303.15	0.001219	2e-05

System: dodecane; phases: Liquid
Fixed: Pressure, kPa = 101.3
Property: Speed of sound, m/s (Liquid); method: FPINT::UFactor:2
Temperature, K	Speed of sound, m/s	uncertainty
293.15	1297	2
298.15	1278	2
303.15	1259	2

System: dodecane; phases: Liquid
Fixed: Pressure, kPa = 101.3
Property: Mass density, kg/m3 (Liquid); method: VIBTUB::UFactor:2
Temperature, K	Mass density, kg/m3	uncertainty
293.15	748.5	0.5
298.15	744.9	0.5
303.15	741.3	0.5

System: butan-2-ol + octane; phases: Liquid
Fixed: Pressure, kPa = 101.3
Property: Viscosity, Pa*s (Liquid); method: CAPTUB:UFactor:4
Temperature, K	Mole fraction of butan-2-ol	Viscosity, Pa*s	uncertainty
293.15	0	0.000538	1.5e-05
293.15	0.0481	0.000541	1.5e-05
293.15	0.0974	0.000554	1.5e-05
293.15	0.1984	0.000582	1.6e-05
293.15	0.289	0.000624	1.7e-05
293.15	0.3964	0.000697	1.8e-05
293.15	0.4923	0.00078	2e-05
293.15	0.5931	0.000927	2.4e-05
293.15	0.6922	0.001162	2.9e-05
293.15	0.7987	0.001574	4e-05
293.15	0.8988	0.002267	5.5e-05
293.15	0.9495	0.002809	6.8e-05
293.15	1	0.003623	8.6e-05
298.15	0	0.000506	1.4e-05
298.15	0.0481	0.000508	1.4e-05
298.15	0.0974	0.000519	1.4e-05
298.15	0.1984	0.000544	1.5e-05
298.15	0.289	0.000579	1.6e-05
298.15	0.3964	0.000644	1.7e-05
298.15	0.4923	0.000713	1.9e-05
298.15	0.5931	0.00084	2.2e-05
298.15	0.6922	0.001031	2.6e-05
298.15	0.7987	0.001361	3.4e-05
298.15	0.8988	0.001932	4.7e-05
298.15	0.9495	0.002353	5.7e-05
298.15	1	0.002995	7.2e-05
303.15	0	0.000478	1.4e-05
303.15	0.0481	0.000478	1.4e-05
303.15	0.0974	0.000488	1.4e-05
303.15	0.1984	0.000511	1.4e-05
303.15	0.289	0.000541	1.5e-05
303.15	0.3964	0.000599	1.6e-05
303.15	0.4923	0.000645	1.7e-05
303.15	0.5931	0.000761	2e-05
303.15	0.6922	0.000919	2.3e-05
303.15	0.7987	0.001191	2.9e-05
303.15	0.8988	0.001662	4e-05
303.15	0.9495	0.00199	4.8e-05
303.15	1	0.002493	6.1e-05

System: butan-2-ol + octane; phases: Liquid
Fixed: Pressure, kPa = 101.3
Property: Speed of sound, m/s (Liquid); method: FPINT:UFactor:2
Temperature, K	Mole fraction of butan-2-ol	Speed of sound, m/s	uncertainty
293.15	0	1193	2
293.15	0.0481	1190	2
293.15	0.0974	1187	2
293.15	0.1984	1184	2
293.15	0.289	1182	2
293.15	0.3964	1181	2
293.15	0.4923	1183	2
293.15	0.5931	1187	2
293.15	0.6922	1193	2
293.15	0.7987	1202	2
293.15	0.8988	1214	2
293.15	0.9495	1222	2
293.15	1	1230	2
298.15	0	1173	2
298.15	0.0481	1169	2
298.15	0.0974	1167	2
298.15	0.1984	1163	2
298.15	0.289	1161	2
298.15	0.3964	1161	2
298.15	0.4923	1162	2
298.15	0.5931	1166	2
298.15	0.6922	1173	2
298.15	0.7987	1182	2
298.15	0.8988	1195	2
298.15	0.9495	1203	2
298.15	1	1212	2
303.15	0	1152	2
303.15	0.0481	1148	2
303.15	0.0974	1146	2
303.15	0.1984	1143	2
303.15	0.289	1141	2
303.15	0.3964	1141	2
303.15	0.4923	1142	2
303.15	0.5931	1146	2
303.15	0.6922	1153	2
303.15	0.7987	1163	2
303.15	0.8988	1176	2
303.15	0.9495	1185	2
303.15	1	1194	2

System: butan-2-ol + octane; phases: Liquid
Fixed: Pressure, kPa = 101.3
Property: Mass density, kg/m3 (Liquid); method: VIBTUB:UFactor:2
Temperature, K	Mole fraction of butan-2-ol	Mass density, kg/m3	uncertainty
293.15	0	702.6	0.3
293.15	0.0481	704.6	0.3
293.15	0.0974	707.2	0.3
293.15	0.1984	713.3	0.3
293.15	0.289	719.4	0.3
293.15	0.3964	727.7	0.3
293.15	0.4923	736.2	0.3
293.15	0.5931	746.5	0.3
293.15	0.6922	758.1	0.3
293.15	0.7987	772.5	0.3
293.15	0.8988	788.3	0.3
293.15	0.9495	797.2	0.3
293.15	1	806.8	0.3
298.15	0	698.5	0.4
298.15	0.0481	700.5	0.4
298.15	0.0974	703.1	0.3
298.15	0.1984	709.2	0.3
298.15	0.289	715.2	0.3
298.15	0.3964	723.5	0.3
298.15	0.4923	731.9	0.3
298.15	0.5931	742.1	0.3
298.15	0.6922	753.8	0.3
298.15	0.7987	768.2	0.3
298.15	0.8988	784	0.3
298.15	0.9495	793	0.3
298.15	1	802.7	0.3
303.15	0	694.5	0.4
303.15	0.0481	696.4	0.4
303.15	0.0974	698.9	0.4
303.15	0.1984	704.9	0.3
303.15	0.289	711	0.3
303.15	0.3964	719.1	0.3
303.15	0.4923	727.5	0.3
303.15	0.5931	737.8	0.3
303.15	0.6922	749.4	0.3
303.15	0.7987	763.9	0.3
303.15	0.8988	779.7	0.3
303.15	0.9495	788.8	0.3
303.15	1	798.5	0.3

System: butan-2-ol + decane; phases: Liquid
Fixed: Pressure, kPa = 101.3
Property: Viscosity, Pa*s (Liquid); method: CAPTUB:UFactor:2
Temperature, K	Mole fraction of butan-2-ol	Viscosity, Pa*s	uncertainty
293.15	0	0.000911	1.5e-05
293.15	0.0488	0.0009	1.5e-05
293.15	0.0992	0.000905	1.5e-05
293.15	0.2038	0.000926	1.5e-05
293.15	0.3041	0.000956	1.5e-05
293.15	0.3972	0.001008	1.6e-05
293.15	0.498	0.00109	1.7e-05
293.15	0.5972	0.001222	2e-05
293.15	0.703	0.001454	2.3e-05
293.15	0.8001	0.001787	3e-05
293.15	0.9002	0.002389	3.9e-05
293.15	0.9497	0.002879	4.7e-05
293.15	1	0.003623	5.8e-05
298.15	0	0.000845	1.4e-05
298.15	0.0488	0.000833	1.4e-05
298.15	0.0992	0.000836	1.4e-05
298.15	0.2038	0.000854	1.4e-05
298.15	0.3041	0.00088	1.4e-05
298.15	0.3972	0.000922	1.5e-05
298.15	0.498	0.000989	1.6e-05
298.15	0.5972	0.001091	1.7e-05
298.15	0.703	0.001286	2e-05
298.15	0.8001	0.001548	2.5e-05
298.15	0.9002	0.002026	3.3e-05
298.15	0.9497	0.002418	3.9e-05
298.15	1	0.002995	4.9e-05
303.15	0	0.000787	1.3e-05
303.15	0.0488	0.000774	1.3e-05
303.15	0.0992	0.000776	1.3e-05
303.15	0.2038	0.000791	1.3e-05
303.15	0.3041	0.000812	1.3e-05
303.15	0.3972	0.000847	1.4e-05
303.15	0.498	0.000901	1.4e-05
303.15	0.5972	0.000983	1.6e-05
303.15	0.703	0.001142	1.8e-05
303.15	0.8001	0.001351	2.1e-05
303.15	0.9002	0.001736	2.7e-05
303.15	0.9497	0.002047	3.3e-05
303.15	1	0.002493	4.2e-05

System: butan-2-ol + decane; phases: Liquid
Fixed: Pressure, kPa = 101.3
Property: Speed of sound, m/s (Liquid); method: FPINT:UFactor:2
Temperature, K	Mole fraction of butan-2-ol	Speed of sound, m/s	uncertainty
293.15	0	1254	2
293.15	0.0488	1250	2
293.15	0.0992	1246	2
293.15	0.2038	1240	2
293.15	0.3041	1235	2
293.15	0.3972	1230	2
293.15	0.498	1227	2
293.15	0.5972	1224	2
293.15	0.703	1223	2
293.15	0.8001	1224	2
293.15	0.9002	1225	2
293.15	0.9497	1228	2
293.15	1	1230	2
298.15	0	1235	2
298.15	0.0488	1230	2
298.15	0.0992	1226	2
298.15	0.2038	1220	2
298.15	0.3041	1215	2
298.15	0.3972	1211	2
298.15	0.498	1207	2
298.15	0.5972	1204	2
298.15	0.703	1203	2
298.15	0.8001	1204	2
298.15	0.9002	1207	2
298.15	0.9497	1209	2
298.15	1	1212	2
303.15	0	1215	2
303.15	0.0488	1210	2
303.15	0.0992	1207	2
303.15	0.2038	1201	2
303.15	0.3041	1195	2
303.15	0.3972	1191	2
303.15	0.498	1187	2
303.15	0.5972	1185	2
303.15	0.703	1184	2
303.15	0.8001	1185	2
303.15	0.9002	1188	2
303.15	0.9497	1191	2
303.15	1	1194	2

System: butan-2-ol + decane; phases: Liquid
Fixed: Pressure, kPa = 101.3
Property: Mass density, kg/m3 (Liquid); method: VIBTUB:UFactor:2
Temperature, K	Mole fraction of butan-2-ol	Mass density, kg/m3	uncertainty
293.15	0	729.9	0.5
293.15	0.0488	730.9	0.5
293.15	0.0992	732.4	0.4
293.15	0.2038	736.2	0.4
293.15	0.3041	740.4	0.4
293.15	0.3972	745	0.4
293.15	0.498	751	0.4
293.15	0.5972	758.1	0.4
293.15	0.703	767.5	0.4
293.15	0.8001	777.7	0.3
293.15	0.9002	790.5	0.3
293.15	0.9497	798.2	0.3
293.15	1	806.8	0.3
298.15	0	726.1	0.5
298.15	0.0488	727.1	0.5
298.15	0.0992	728.5	0.4
298.15	0.2038	732.2	0.4
298.15	0.3041	736.4	0.4
298.15	0.3972	741	0.4
298.15	0.498	746.9	0.4
298.15	0.5972	754	0.4
298.15	0.703	763.3	0.4
298.15	0.8001	773.5	0.3
298.15	0.9002	786.4	0.3
298.15	0.9497	794	0.3
298.15	1	802.7	0.3
303.15	0	722.3	0.5
303.15	0.0488	723.2	0.5
303.15	0.0992	724.6	0.4
303.15	0.2038	728.2	0.4
303.15	0.3041	732.4	0.4
303.15	0.3972	736.9	0.4
303.15	0.498	742.8	0.4
303.15	0.5972	749.8	0.4
303.15	0.703	759	0.4
303.15	0.8001	769.2	0.3
303.15	0.9002	782.1	0.3
303.15	0.9497	789.8	0.3
303.15	1	798.5	0.3

System: butan-2-ol + dodecane; phases: Liquid
Fixed: Pressure, kPa = 101.3
Property: Viscosity, Pa*s (Liquid); method: CAPTUB:UFactor:2
Temperature, K	Mole fraction of butan-2-ol	Viscosity, Pa*s	uncertainty
293.15	0	0.001454	2.3e-05
293.15	0.0486	0.00144	2.3e-05
293.15	0.0976	0.001431	2.3e-05
293.15	0.2046	0.001429	2.3e-05
293.15	0.2956	0.001432	2.3e-05
293.15	0.3959	0.001457	2.3e-05
293.15	0.4979	0.001503	2.4e-05
293.15	0.598	0.001603	2.6e-05
293.15	0.7021	0.001798	2.9e-05
293.15	0.8008	0.002068	3.4e-05
293.15	0.9002	0.002576	4.2e-05
293.15	0.9504	0.002989	4.9e-05
293.15	1	0.003623	5.8e-05
298.15	0	0.001327	2.1e-05
298.15	0.0486	0.001314	2.1e-05
298.15	0.0976	0.001305	2.1e-05
298.15	0.2046	0.001299	2.1e-05
298.15	0.2956	0.001297	2.1e-05
298.15	0.3959	0.001316	2.1e-05
298.15	0.4979	0.001351	2.1e-05
298.15	0.598	0.001425	2.3e-05
298.15	0.7021	0.001576	2.5e-05
298.15	0.8008	0.001785	2.8e-05
298.15	0.9002	0.002184	3.5e-05
298.15	0.9504	0.002508	4.1e-05
298.15	1	0.002995	4.9e-05
303.15	0	0.001219	2e-05
303.15	0.0486	0.001204	1.9e-05
303.15	0.0976	0.001194	1.9e-05
303.15	0.2046	0.001188	1.9e-05
303.15	0.2956	0.001179	1.9e-05
303.15	0.3959	0.001196	1.9e-05
303.15	0.4979	0.00122	1.9e-05
303.15	0.598	0.001276	2e-05
303.15	0.7021	0.001392	2.2e-05
303.15	0.8008	0.001566	2.4e-05
303.15	0.9002	0.001866	3e-05
303.15	0.9504	0.002122	3.4e-05
303.15	1	0.002493	4.2e-05

System: butan-2-ol + dodecane; phases: Liquid
Fixed: Pressure, kPa = 101.3
Property: Speed of sound, m/s (Liquid); method: FPINT:UFactor:2
Temperature, K	Mole fraction of butan-2-ol	Speed of sound, m/s	uncertainty
293.15	0	1297	2
293.15	0.0486	1293	2
293.15	0.0976	1289	2
293.15	0.2046	1282	2
293.15	0.2956	1276	2
293.15	0.3959	1268	2
293.15	0.4979	1261	2
293.15	0.598	1255	2
293.15	0.7021	1248	2
293.15	0.8008	1242	2
293.15	0.9002	1236	2
293.15	0.9504	1233	2
293.15	1	1230	2
298.15	0	1278	2
298.15	0.0486	1274	2
298.15	0.0976	1270	2
298.15	0.2046	1263	2
298.15	0.2956	1256	2
298.15	0.3959	1249	2
298.15	0.4979	1242	2
298.15	0.598	1235	2
298.15	0.7021	1229	2
298.15	0.8008	1223	2
298.15	0.9002	1217	2
298.15	0.9504	1215	2
298.15	1	1212	2
303.15	0	1259	2
303.15	0.0486	1255	2
303.15	0.0976	1251	2
303.15	0.2046	1243	2
303.15	0.2956	1237	2
303.15	0.3959	1230	2
303.15	0.4979	1222	2
303.15	0.598	1216	2
303.15	0.7021	1209	2
303.15	0.8008	1204	2
303.15	0.9002	1199	2
303.15	0.9504	1196	2
303.15	1	1194	2

System: butan-2-ol + dodecane; phases: Liquid
Fixed: Pressure, kPa = 101.3
Property: Mass density, kg/m3 (Liquid); method: VIBTUB:UFactor:2
Temperature, K	Mole fraction of butan-2-ol	Mass density, kg/m3	uncertainty
293.15	0	748.5	0.5
293.15	0.0486	749.3	0.5
293.15	0.0976	750.2	0.4
293.15	0.2046	752.5	0.4
293.15	0.2956	754.9	0.4
293.15	0.3959	758.1	0.4
293.15	0.4979	762.2	0.4
293.15	0.598	767.2	0.4
293.15	0.7021	773.9	0.4
293.15	0.8008	781.9	0.3
293.15	0.9002	792.7	0.3
293.15	0.9504	799.1	0.3
293.15	1	806.8	0.3
298.15	0	744.9	0.5
298.15	0.0486	745.6	0.5
298.15	0.0976	746.4	0.4
298.15	0.2046	748.7	0.4
298.15	0.2956	751.1	0.4
298.15	0.3959	754.2	0.4
298.15	0.4979	758.3	0.4
298.15	0.598	763.2	0.4
298.15	0.7021	769.8	0.4
298.15	0.8008	777.8	0.3
298.15	0.9002	788.5	0.3
298.15	0.9504	794.9	0.3
298.15	1	802.7	0.3
303.15	0	741.3	0.5
303.15	0.0486	741.9	0.5
303.15	0.0976	742.7	0.4
303.15	0.2046	744.9	0.4
303.15	0.2956	747.2	0.4
303.15	0.3959	750.3	0.4
303.15	0.4979	754.3	0.4
303.15	0.598	759.1	0.4
303.15	0.7021	765.6	0.4
303.15	0.8008	773.6	0.3
303.15	0.9002	784.3	0.3
303.15	0.9504	790.7	0.3
303.15	1	798.5	0.3
