Measured thermophysical data. Thermophysical approach to understand the nature of molecular interactions and structural factor between methyl isobutyl ketone and organic solvents mixtures
Source: J. Chem. Thermodyn., 2017, 10.1016/j.jct.2017.06.008
Compound 1: 4-methylpentan-2-one, C6H12O, InChI=1S/C6H12O/c1-5(2)4-6(3)7/h5H,4H2,1-3H3, purity 99%
Compound 2: acetone, C3H6O, InChI=1S/C3H6O/c1-3(2)4/h1-2H3, purity 99.5%
Compound 3: acetonitrile, C2H3N, InChI=1S/C2H3N/c1-2-3/h1H3, purity 99.9%
Compound 4: cyclohexane, C6H12, InChI=1S/C6H12/c1-2-4-6-5-3-1/h1-6H2, purity 99.5%
Compound 5: dimethyl sulfoxide, C2H6OS, InChI=1S/C2H6OS/c1-4(2)3/h1-2H3, purity 99.5%

System: 4-methylpentan-2-one; phases: Liquid
Fixed: Pressure, kPa = 100
Property: Mass density, kg/m3 (Liquid); method: Vibrating tube method
Temperature, K	Mass density, kg/m3	uncertainty
293.15	801	3
303.15	792	3
313.15	782	3
293.15	800	3

System: 4-methylpentan-2-one; phases: Liquid
Fixed: Pressure, kPa = 100
Fixed: Frequency, MHz = 3
Property: Speed of sound, m/s (Liquid); method: Single path-length method
Temperature, K	Speed of sound, m/s	uncertainty
293.15	1212.3	1.6
303.15	1171.4	1.6
313.15	1131.4	1.6

System: 4-methylpentan-2-one; phases: Liquid
Fixed: Pressure, kPa = 100
Property: Refractive index (Na D-line) (Liquid); method: Standard Abbe refractometry
Temperature, K	Refractive index (Na D-line)	uncertainty
293.15	1.396	0.005
303.15	1.391	0.005
313.15	1.387	0.005

System: acetone; phases: Liquid
Fixed: Pressure, kPa = 100
Property: Mass density, kg/m3 (Liquid); method: Vibrating tube method
Temperature, K	Mass density, kg/m3	uncertainty
293.15	790	3
303.15	779	3
313.15	767	3

System: acetone; phases: Liquid
Fixed: Pressure, kPa = 100
Fixed: Frequency, MHz = 3
Property: Speed of sound, m/s (Liquid); method: Single path-length method
Temperature, K	Speed of sound, m/s	uncertainty
293.15	1184.3	1.4
303.15	1139.4	1.4
313.15	1094.6	1.4

System: acetone; phases: Liquid
Fixed: Pressure, kPa = 100
Property: Refractive index (Na D-line) (Liquid); method: Standard Abbe refractometry
Temperature, K	Refractive index (Na D-line)	uncertainty
293.15	1.359	0.005
303.15	1.353	0.005
313.15	1.348	0.005

System: acetonitrile; phases: Liquid
Fixed: Pressure, kPa = 100
Property: Mass density, kg/m3 (Liquid); method: Vibrating tube method
Temperature, K	Mass density, kg/m3	uncertainty
293.15	782	3
303.15	771	3
313.15	760	3

System: acetonitrile; phases: Liquid
Fixed: Pressure, kPa = 100
Fixed: Frequency, MHz = 3
Property: Speed of sound, m/s (Liquid); method: Single path-length method
Temperature, K	Speed of sound, m/s	uncertainty
293.15	1299.7	1.3
303.15	1258.8	1.3
313.15	1218.4	1.3

System: acetonitrile; phases: Liquid
Fixed: Pressure, kPa = 100
Property: Refractive index (Na D-line) (Liquid); method: Standard Abbe refractometry
Temperature, K	Refractive index (Na D-line)	uncertainty
293.15	1.344	0.005
303.15	1.339	0.005
313.15	1.334	0.005

System: cyclohexane; phases: Liquid
Fixed: Pressure, kPa = 100
Property: Mass density, kg/m3 (Liquid); method: Vibrating tube method
Temperature, K	Mass density, kg/m3	uncertainty
293.15	779	3
303.15	769	3
313.15	760	3
293.15	778	3
313.15	759	3

System: cyclohexane; phases: Liquid
Fixed: Pressure, kPa = 100
Fixed: Frequency, MHz = 3
Property: Speed of sound, m/s (Liquid); method: Single path-length method
Temperature, K	Speed of sound, m/s	uncertainty
293.15	1279.5	1.4
303.15	1230.1	1.4
313.15	1181.8	1.4

System: cyclohexane; phases: Liquid
Fixed: Pressure, kPa = 100
Property: Refractive index (Na D-line) (Liquid); method: Standard Abbe refractometry
Temperature, K	Refractive index (Na D-line)	uncertainty
293.15	1.426	0.005
303.15	1.421	0.005
313.15	1.415	0.005

System: dimethyl sulfoxide; phases: Liquid
Fixed: Pressure, kPa = 100
Property: Mass density, kg/m3 (Liquid); method: Vibrating tube method
Temperature, K	Mass density, kg/m3	uncertainty
293.15	1100	3
303.15	1090	3
313.15	1080	3

System: dimethyl sulfoxide; phases: Liquid
Fixed: Pressure, kPa = 100
Fixed: Frequency, MHz = 3
Property: Speed of sound, m/s (Liquid); method: Single path-length method
Temperature, K	Speed of sound, m/s	uncertainty
293.15	1504.7	1.4
303.15	1471	1.4
313.15	1437.4	1.4

System: dimethyl sulfoxide; phases: Liquid
Fixed: Pressure, kPa = 100
Property: Refractive index (Na D-line) (Liquid); method: Standard Abbe refractometry
Temperature, K	Refractive index (Na D-line)	uncertainty
293.15	1.48	0.005
303.15	1.475	0.005
313.15	1.47	0.005
293.15	1.479	0.005

System: 4-methylpentan-2-one + dimethyl sulfoxide; phases: Liquid
Fixed: Pressure, kPa = 100
Property: Mass density, kg/m3 (Liquid); method: Vibrating tube method
Temperature, K	Mole fraction of 4-methylpentan-2-one	Mass density, kg/m3	uncertainty
293.15	0	1100	3
293.15	0.1002	1052	3
293.15	0.2004	1010	3
293.15	0.3004	973	3
293.15	0.4007	940	3
293.15	0.4982	912	3
293.15	0.5999	885	3
293.15	0.6992	861	3
293.15	0.7995	839	3
293.15	0.8981	819	3
293.15	1	801	3
303.15	0	1090	3
303.15	0.1002	1043	3
303.15	0.2004	1001	3
303.15	0.3004	964	3
303.15	0.4007	931	3
303.15	0.4982	902	3
303.15	0.5999	875	3
303.15	0.6992	851	3
303.15	0.7995	830	3
303.15	0.8981	810	3
303.15	1	792	3
313.15	0	1080	3
313.15	0.1002	1033	3
313.15	0.2004	991	3
313.15	0.3004	954	3
313.15	0.4007	921	3
313.15	0.4982	893	3
313.15	0.5999	866	3
313.15	0.6992	842	3
313.15	0.7995	820	3
313.15	0.8981	801	3
313.15	1	782	3

System: 4-methylpentan-2-one + dimethyl sulfoxide; phases: Liquid
Fixed: Pressure, kPa = 100
Fixed: Frequency, MHz = 3
Property: Speed of sound, m/s (Liquid); method: Single path-length method
Temperature, K	Mole fraction of 4-methylpentan-2-one	Speed of sound, m/s	uncertainty
293.15	0	1504.7	1.4
293.15	0.1002	1453.8	1.4
293.15	0.2004	1409.2	1.4
293.15	0.3004	1371.9	1.4
293.15	0.4007	1338.7	1.5
293.15	0.4982	1311.8	1.5
293.15	0.5999	1287.1	1.5
293.15	0.6992	1266.1	1.5
293.15	0.7995	1246.5	1.6
293.15	0.8981	1229.3	1.6
293.15	1	1212.3	1.6
303.15	0	1471	1.4
303.15	0.1002	1418.9	1.4
303.15	0.2004	1373.8	1.4
303.15	0.3004	1336	1.4
303.15	0.4007	1302.9	1.5
303.15	0.4982	1275.3	1.5
303.15	0.5999	1249.8	1.5
303.15	0.6992	1227.9	1.5
303.15	0.7995	1207.5	1.6
303.15	0.8981	1189.2	1.6
303.15	1	1171.4	1.6
313.15	0	1437.4	1.4
313.15	0.1002	1384.7	1.4
313.15	0.2004	1339.2	1.4
313.15	0.3004	1300.8	1.4
313.15	0.4007	1267.1	1.5
313.15	0.4982	1238.9	1.5
313.15	0.5999	1212.7	1.5
313.15	0.6992	1190	1.5
313.15	0.7995	1168.9	1.6
313.15	0.8981	1149.9	1.6
313.15	1	1131.4	1.6

System: 4-methylpentan-2-one + dimethyl sulfoxide; phases: Liquid
Fixed: Pressure, kPa = 100
Property: Refractive index (Na D-line) (Liquid); method: Standard Abbe refractometry
Temperature, K	Mole fraction of 4-methylpentan-2-one	Refractive index (Na D-line)	uncertainty
293.15	0	1.48	0.005
293.15	0.1002	1.466	0.005
293.15	0.2004	1.455	0.005
293.15	0.3004	1.445	0.005
293.15	0.4007	1.436	0.005
293.15	0.4982	1.428	0.005
293.15	0.5999	1.42	0.005
293.15	0.6992	1.413	0.005
293.15	0.7995	1.407	0.005
293.15	0.8981	1.401	0.005
293.15	1	1.396	0.005
303.15	0	1.475	0.005
303.15	0.1002	1.462	0.005
303.15	0.2004	1.451	0.005
303.15	0.3004	1.441	0.005
303.15	0.4007	1.432	0.005
303.15	0.4982	1.423	0.005
303.15	0.5999	1.416	0.005
303.15	0.6992	1.409	0.005
303.15	0.7995	1.402	0.005
303.15	0.8981	1.397	0.005
303.15	1	1.391	0.005
313.15	0	1.47	0.005
313.15	0.1002	1.458	0.005
313.15	0.2004	1.446	0.005
313.15	0.3004	1.436	0.005
313.15	0.4007	1.427	0.005
313.15	0.4982	1.419	0.005
313.15	0.5999	1.411	0.005
313.15	0.6992	1.404	0.005
313.15	0.7995	1.398	0.005
313.15	0.8981	1.392	0.005
313.15	1	1.387	0.005

System: 4-methylpentan-2-one + acetone; phases: Liquid
Fixed: Pressure, kPa = 100
Property: Mass density, kg/m3 (Liquid); method: Vibrating tube method
Temperature, K	Mole fraction of 4-methylpentan-2-one	Mass density, kg/m3	uncertainty
293.15	0	790	3
293.15	0.1004	791	3
293.15	0.1992	793	3
293.15	0.3012	794	3
293.15	0.396	795	3
293.15	0.5005	796	3
293.15	0.6912	798	3
293.15	0.7996	799	3
293.15	0.8992	799	3
293.15	1	800	3
303.15	0	779	3
303.15	0.1004	780	3
303.15	0.1992	782	3
303.15	0.3012	783	3
303.15	0.396	785	3
303.15	0.5005	786	3
303.15	0.6912	788	3
303.15	0.7996	790	3
303.15	0.8992	791	3
303.15	1	792	3
313.15	0	767	3
313.15	0.1004	769	3
313.15	0.1992	771	3
313.15	0.3012	773	3
313.15	0.396	774	3
313.15	0.5005	776	3
313.15	0.6912	779	3
313.15	0.7996	780	3
313.15	0.8992	781	3
313.15	1	782	3

System: 4-methylpentan-2-one + acetone; phases: Liquid
Fixed: Pressure, kPa = 100
Fixed: Frequency, MHz = 3
Property: Speed of sound, m/s (Liquid); method: Single path-length method
Temperature, K	Mole fraction of 4-methylpentan-2-one	Speed of sound, m/s	uncertainty
293.15	0	1184.3	1.4
293.15	0.1004	1185.7	1.4
293.15	0.1992	1186.8	1.4
293.15	0.3012	1189.2	1.4
293.15	0.396	1191.8	1.5
293.15	0.5005	1194.8	1.5
293.15	0.6912	1201.1	1.5
293.15	0.7996	1205.2	1.6
293.15	0.8992	1208	1.6
293.15	1	1212.3	1.6
303.15	0	1139.4	1.4
303.15	0.1004	1140.9	1.4
303.15	0.1992	1143	1.4
303.15	0.3012	1145.9	1.4
303.15	0.396	1149	1.5
303.15	0.5005	1152.4	1.5
303.15	0.6912	1159.5	1.5
303.15	0.7996	1163.6	1.6
303.15	0.8992	1167.2	1.6
303.15	1	1171.4	1.6
313.15	0	1094.6	1.4
313.15	0.1004	1096.8	1.4
313.15	0.1992	1099.4	1.4
313.15	0.3012	1102.9	1.4
313.15	0.396	1106.4	1.5
313.15	0.5005	1110.4	1.5
313.15	0.6912	1118.3	1.5
313.15	0.7996	1122.9	1.6
313.15	0.8992	1126.9	1.6
313.15	1	1131.4	1.6

System: 4-methylpentan-2-one + acetone; phases: Liquid
Fixed: Pressure, kPa = 100
Property: Refractive index (Na D-line) (Liquid); method: Standard Abbe refractometry
Temperature, K	Mole fraction of 4-methylpentan-2-one	Refractive index (Na D-line)	uncertainty
293.15	0	1.359	0.005
293.15	0.1004	1.365	0.005
293.15	0.1992	1.37	0.005
293.15	0.3012	1.374	0.005
293.15	0.396	1.378	0.005
293.15	0.5005	1.382	0.005
293.15	0.6912	1.388	0.005
293.15	0.7996	1.391	0.005
293.15	0.8992	1.394	0.005
293.15	1	1.396	0.005
303.15	0	1.353	0.005
303.15	0.1004	1.359	0.005
303.15	0.1992	1.364	0.005
303.15	0.3012	1.369	0.005
303.15	0.396	1.373	0.005
303.15	0.5005	1.377	0.005
303.15	0.6912	1.383	0.005
303.15	0.7996	1.386	0.005
303.15	0.8992	1.389	0.005
303.15	1	1.391	0.005
313.15	0	1.348	0.005
313.15	0.1004	1.354	0.005
313.15	0.1992	1.359	0.005
313.15	0.3012	1.365	0.005
313.15	0.396	1.368	0.005
313.15	0.5005	1.372	0.005
313.15	0.6912	1.379	0.005
313.15	0.7996	1.382	0.005
313.15	0.8992	1.384	0.005
313.15	1	1.387	0.005

System: 4-methylpentan-2-one + acetonitrile; phases: Liquid
Fixed: Pressure, kPa = 100
Property: Mass density, kg/m3 (Liquid); method: Vibrating tube method
Temperature, K	Mole fraction of 4-methylpentan-2-one	Mass density, kg/m3	uncertainty
293.15	0	782	3
293.15	0.102	786	3
293.15	0.1961	790	3
293.15	0.3082	792	3
293.15	0.4019	794	3
293.15	0.5188	796	3
293.15	0.6001	797	3
293.15	0.7014	798	3
293.15	0.8008	799	3
293.15	0.8801	800	3
293.15	1	801	3
303.15	0	771	3
303.15	0.102	776	3
303.15	0.1961	779	3
303.15	0.3082	782	3
303.15	0.4019	784	3
303.15	0.5188	787	3
303.15	0.6001	788	3
303.15	0.7014	789	3
303.15	0.8008	790	3
303.15	0.8801	791	3
303.15	1	792	3
313.15	0	760	3
313.15	0.102	765	3
313.15	0.1961	769	3
313.15	0.3082	772	3
313.15	0.4019	774	3
313.15	0.5188	777	3
313.15	0.6001	778	3
313.15	0.7014	779	3
313.15	0.8008	780	3
313.15	0.8801	781	3
313.15	1	782	3

System: 4-methylpentan-2-one + acetonitrile; phases: Liquid
Fixed: Pressure, kPa = 100
Fixed: Frequency, MHz = 3
Property: Speed of sound, m/s (Liquid); method: Single path-length method
Temperature, K	Mole fraction of 4-methylpentan-2-one	Speed of sound, m/s	uncertainty
293.15	0	1299.7	1.3
293.15	0.102	1280.4	1.3
293.15	0.1961	1267.6	1.3
293.15	0.3082	1255.2	1.3
293.15	0.4019	1245.9	1.4
293.15	0.5188	1237.4	1.4
293.15	0.6001	1231.4	1.4
293.15	0.7014	1225.4	1.5
293.15	0.8008	1220.8	1.5
293.15	0.8801	1216.6	1.6
293.15	1	1212.3	1.6
303.15	0	1258.8	1.3
303.15	0.102	1239.9	1.3
303.15	0.1961	1226.3	1.3
303.15	0.3082	1213.5	1.3
303.15	0.4019	1204.6	1.4
303.15	0.5188	1195.8	1.4
303.15	0.6001	1190.3	1.4
303.15	0.7014	1184.5	1.5
303.15	0.8008	1179.6	1.5
303.15	0.8801	1175.9	1.6
303.15	1	1171.4	1.6
313.15	0	1218.4	1.3
313.15	0.102	1199.1	1.3
313.15	0.1961	1185.4	1.3
313.15	0.3082	1172.5	1.3
313.15	0.4019	1163.8	1.4
313.15	0.5188	1155	1.4
313.15	0.6001	1149.7	1.4
313.15	0.7014	1144	1.5
313.15	0.8008	1139.3	1.5
313.15	0.8801	1135.7	1.6
313.15	1	1131.4	1.6

System: 4-methylpentan-2-one + acetonitrile; phases: Liquid
Fixed: Pressure, kPa = 100
Property: Refractive index (Na D-line) (Liquid); method: Standard Abbe refractometry
Temperature, K	Mole fraction of 4-methylpentan-2-one	Refractive index (Na D-line)	uncertainty
293.15	0	1.344	0.005
293.15	0.102	1.355	0.005
293.15	0.1961	1.363	0.005
293.15	0.3082	1.371	0.005
293.15	0.4019	1.376	0.005
293.15	0.5188	1.381	0.005
293.15	0.6001	1.385	0.005
293.15	0.7014	1.388	0.005
293.15	0.8008	1.391	0.005
293.15	0.8801	1.393	0.005
293.15	1	1.396	0.005
303.15	0	1.339	0.005
303.15	0.102	1.35	0.005
303.15	0.1961	1.358	0.005
303.15	0.3082	1.366	0.005
303.15	0.4019	1.371	0.005
303.15	0.5188	1.377	0.005
303.15	0.6001	1.38	0.005
303.15	0.7014	1.384	0.005
303.15	0.8008	1.387	0.005
303.15	0.8801	1.389	0.005
303.15	1	1.391	0.005
313.15	0	1.334	0.005
313.15	0.102	1.345	0.005
313.15	0.1961	1.353	0.005
313.15	0.3082	1.361	0.005
313.15	0.4019	1.367	0.005
313.15	0.5188	1.372	0.005
313.15	0.6001	1.375	0.005
313.15	0.7014	1.379	0.005
313.15	0.8008	1.382	0.005
313.15	0.8801	1.384	0.005
313.15	1	1.387	0.005

System: 4-methylpentan-2-one + cyclohexane; phases: Liquid
Fixed: Pressure, kPa = 100
Property: Mass density, kg/m3 (Liquid); method: Vibrating tube method
Temperature, K	Mole fraction of 4-methylpentan-2-one	Mass density, kg/m3	uncertainty
293.15	0	779	3
293.15	0.0978	778	3
293.15	0.1984	780	3
293.15	0.3014	781	3
293.15	0.4007	783	3
293.15	0.5023	786	3
293.15	0.6028	788	3
293.15	0.7038	791	3
293.15	0.8062	794	3
293.15	0.9004	797	3
293.15	1	801	3
303.15	0	769	3
303.15	0.0978	769	3
303.15	0.1984	770	3
303.15	0.3014	772	3
303.15	0.4007	774	3
303.15	0.5023	776	3
303.15	0.6028	779	3
303.15	0.7038	782	3
303.15	0.8062	785	3
303.15	0.9004	788	3
303.15	1	792	3
313.15	0	760	3
313.15	0.0978	759	3
313.15	0.1984	760	3
313.15	0.3014	762	3
313.15	0.4007	764	3
313.15	0.5023	767	3
313.15	0.6028	770	3
313.15	0.7038	773	3
313.15	0.8062	776	3
313.15	0.9004	779	3
313.15	1	782	3

System: 4-methylpentan-2-one + cyclohexane; phases: Liquid
Fixed: Pressure, kPa = 100
Fixed: Frequency, MHz = 3
Property: Speed of sound, m/s (Liquid); method: Single path-length method
Temperature, K	Mole fraction of 4-methylpentan-2-one	Speed of sound, m/s	uncertainty
293.15	0	1279.5	1.4
293.15	0.0978	1260.7	1.4
293.15	0.1984	1246.9	1.4
293.15	0.3014	1236.2	1.4
293.15	0.4007	1228.8	1.5
293.15	0.5023	1222	1.5
293.15	0.6028	1217.4	1.5
293.15	0.7038	1214.2	1.5
293.15	0.8062	1212.1	1.6
293.15	0.9004	1211.3	1.6
293.15	1	1212.3	1.6
303.15	0	1230.1	1.4
303.15	0.0978	1212.6	1.4
303.15	0.1984	1200	1.4
303.15	0.3014	1190.3	1.4
303.15	0.4007	1183.5	1.5
303.15	0.5023	1178	1.5
303.15	0.6028	1174.2	1.5
303.15	0.7038	1171.8	1.5
303.15	0.8062	1170.4	1.6
303.15	0.9004	1170.2	1.6
303.15	1	1171.4	1.6
313.15	0	1181.8	1.4
313.15	0.0978	1165.6	1.4
313.15	0.1984	1154	1.4
313.15	0.3014	1145.3	1.4
313.15	0.4007	1139.2	1.5
313.15	0.5023	1134.6	1.5
313.15	0.6028	1131.6	1.5
313.15	0.7038	1129.9	1.5
313.15	0.8062	1129.2	1.6
313.15	0.9004	1129.6	1.6
313.15	1	1131.4	1.6

System: 4-methylpentan-2-one + cyclohexane; phases: Liquid
Fixed: Pressure, kPa = 100
Property: Refractive index (Na D-line) (Liquid); method: Standard Abbe refractometry
Temperature, K	Mole fraction of 4-methylpentan-2-one	Refractive index (Na D-line)	uncertainty
293.15	0	1.426	0.005
293.15	0.0978	1.421	0.005
293.15	0.1984	1.417	0.005
293.15	0.3014	1.413	0.005
293.15	0.4007	1.41	0.005
293.15	0.5023	1.407	0.005
293.15	0.6028	1.404	0.005
293.15	0.7038	1.402	0.005
293.15	0.8062	1.399	0.005
293.15	0.9004	1.398	0.005
293.15	1	1.396	0.005
303.15	0	1.421	0.005
303.15	0.0978	1.416	0.005
303.15	0.1984	1.412	0.005
303.15	0.3014	1.408	0.005
303.15	0.4007	1.405	0.005
303.15	0.5023	1.402	0.005
303.15	0.6028	1.399	0.005
303.15	0.7038	1.397	0.005
303.15	0.8062	1.395	0.005
303.15	0.9004	1.393	0.005
303.15	1	1.391	0.005
313.15	0	1.415	0.005
313.15	0.0978	1.411	0.005
313.15	0.1984	1.406	0.005
313.15	0.3014	1.403	0.005
313.15	0.4007	1.4	0.005
313.15	0.5023	1.397	0.005
313.15	0.6028	1.394	0.005
313.15	0.7038	1.392	0.005
313.15	0.8062	1.39	0.005
313.15	0.9004	1.388	0.005
313.15	1	1.387	0.005
