Measured thermophysical data. Enthalpies of combustion of two bis(N,N-diethylthioureas)
Source: J. Chem. Thermodyn., 2007, 10.1016/j.jct.2006.07.007
Compound 1: sulfuric acid, H2O4S, InChI=1S/H2O4S/c1-5(2,3)4/h(H2,1,2,3,4)
Compound 2: carbon dioxide, CO2, InChI=1S/CO2/c2-1-3
Compound 3: nitrogen, N2, InChI=1S/N2/c1-2
Compound 4: water, H2O, InChI=1S/H2O/h1H2
Compound 5: oxygen, O2, InChI=1S/O2/c1-2
Compound 6: N1,N6-bis[(diethylamino)thioxomethyl]hexanediamide, C16H30N4O2S2, InChI=1S/C16H30N4O2S2/c1-5-19(6-2)15(23)17-13(21)11-9-10-12-14(22)18-16(24)20(7-3)8-4/h5-12H2,1-4H3,(H,17,21,23)(H,18,22,24)
Compound 7: N2,N6-bis[(diethylamino)thioxomethyl]-2,6-pyridinedicarboxamide, C17H25N5O2S2, InChI=1S/C17H25N5O2S2/c1-5-21(6-2)16(25)19-14(23)12-10-9-11-13(18-12)15(24)20-17(26)22(7-3)8-4/h9-11H,5-8H2,1-4H3,(H,19,23,25)(H,20,24,26)

Reaction: 2 sulfuric acid + -1 N1,N6-bis[(diethylamino)thioxomethyl]hexanediamide + 16 carbon dioxide + 2 nitrogen + 13 water + -25.5 oxygen
Property: Specific internal energy of reaction at constant volume, J/g
-29699.6

Reaction: 2 sulfuric acid + -1 N2,N6-bis[(diethylamino)thioxomethyl]-2,6-pyridinedicarboxamide + 17 carbon dioxide + 2.5 nitrogen + 10.5 water + -25.25 oxygen
Property: Specific internal energy of reaction at constant volume, J/g
-27877.9
