Measured thermophysical data. Surface tension and 0.1 MPa density data for 1-Cn-3-methylimidazolium iodides with n = 3, 4, and 6, validated using a parachor and group contribution model
Source: J. Chem. Thermodyn., 2015, 10.1016/j.jct.2014.11.016
Compound 1: 1-methyl-3-propylimidazolium iodide, C7H13IN2, InChI=1S/C7H13N2.HI/c1-3-4-9-6-5-8(2)7-9;/h5-7H,3-4H2,1-2H3;1H/q+1;/p-1, purity 99.5%
Compound 2: 1-butyl-3-methylimidazolium iodide, C8H15IN2, InChI=1S/C8H15N2.HI/c1-3-4-5-10-7-6-9(2)8-10;/h6-8H,3-5H2,1-2H3;1H/q+1;/p-1, purity 99.5%
Compound 3: 1-hexyl-3-methylimidazolium iodide, C10H19IN2, InChI=1S/C10H19N2.HI/c1-3-4-5-6-7-12-9-8-11(2)10-12;/h8-10H,3-7H2,1-2H3;1H/q+1;/p-1, purity 99%

System: 1-methyl-3-propylimidazolium iodide; phases: Liquid
Fixed: Pressure, kPa = 101.325
Property: Mass density, kg/m3 (Liquid); method: Buoyancy - hydrostatic balance
Temperature, K	Mass density, kg/m3	uncertainty
293.12	1551.33	1.3
298.18	1547.13	1.3
303.19	1542.57	1.3
308.23	1540.55	1.3
313.09	1535.78	1.3
318.4	1532.01	1.3
323.1	1526.33	1.3
328.2	1522.84	1.3
333.3	1518.76	1.3
338.68	1515.21	1.3
343.1	1510.67	1.3
348.36	1507.54	1.3
352.93	1503.17	1.3
357.54	1499.89	1.3
364.58	1493.92	1.3

System: 1-methyl-3-propylimidazolium iodide; phases: Liquid, Air at 1 atmosphere
Property: Surface tension liquid-gas, N/m (Liquid); method: Wilhelmy plate method
Temperature, K	Surface tension liquid-gas, N/m	uncertainty
298.21	0.05685	0.00016
303.18	0.0566	0.00016
308.12	0.05632	0.00016
313.1	0.05602	0.00016
318.38	0.05577	0.00016
323.09	0.0554	0.00016
328.23	0.05498	0.00016
333.34	0.0548	0.00016
338.73	0.0545	0.00016
343.15	0.05425	0.00016
348.39	0.05392	0.00016
352.94	0.05368	0.00016
357.64	0.05342	0.00016
364.74	0.05296	0.00015

System: 1-methyl-3-propylimidazolium iodide; phases: Liquid, Air at 1 atmosphere
Property: Surface tension liquid-gas, N/m (Liquid); method: Ring tensiometer
Temperature, K	Surface tension liquid-gas, N/m	uncertainty
298.19	0.05703	0.00075
303.17	0.05679	0.00075
308.23	0.0563	0.00075
313.13	0.05591	0.00074
318.26	0.0558	0.00074
323.17	0.05547	0.00074
328.24	0.05494	0.00073
333.52	0.05485	0.00073
338.71	0.05459	0.00072
343.36	0.05405	0.00072
348.63	0.05393	0.00072
353.04	0.05374	0.00071
358.06	0.05342	0.00071

System: 1-butyl-3-methylimidazolium iodide; phases: Liquid
Fixed: Pressure, kPa = 101.325
Property: Mass density, kg/m3 (Liquid); method: Buoyancy - hydrostatic balance
Temperature, K	Mass density, kg/m3	uncertainty
282.94	1496.03	0.91
288.09	1492.12	0.91
293.41	1486.71	0.91
298.27	1483.31	0.91
303.16	1479.37	0.91
308.14	1475.89	0.91
313.28	1472.42	0.91
318.04	1467.31	0.91
323.28	1463.53	0.91
328.27	1459.41	0.91
333.12	1455.62	0.91
338.2	1451.37	0.91
343.68	1447.47	0.91
348.59	1444.58	0.91
353.09	1440.66	0.91
358.64	1436.84	0.91
364.72	1432.51	0.91

System: 1-butyl-3-methylimidazolium iodide; phases: Liquid, Air at 1 atmosphere
Property: Surface tension liquid-gas, N/m (Liquid); method: Wilhelmy plate method
Temperature, K	Surface tension liquid-gas, N/m	uncertainty
288	0.05067	0.00014
293.41	0.05032	0.00014
298.23	0.05006	0.00014
303.14	0.04973	0.00014
308.11	0.04945	0.00014
312.89	0.04919	0.00014
317.93	0.04893	0.00014
323.26	0.04853	0.00014
328.28	0.04826	0.00013
333.16	0.04796	0.00013
338.16	0.04766	0.00013
343.6	0.04735	0.00013
348.76	0.04702	0.00013
352.76	0.04688	0.00013
358.28	0.04653	0.00013
364.82	0.04612	0.00013

System: 1-butyl-3-methylimidazolium iodide; phases: Liquid, Air at 1 atmosphere
Property: Surface tension liquid-gas, N/m (Liquid); method: Ring tensiometer
Temperature, K	Surface tension liquid-gas, N/m	uncertainty
288.03	0.05018	0.00069
293.39	0.04995	0.00068
298.23	0.0494	0.00068
303.13	0.0493	0.00068
308.14	0.04859	0.00067
312.96	0.04861	0.00067
318.02	0.04847	0.00067
323.47	0.04791	0.00066
328.48	0.04791	0.00066
333.13	0.04745	0.00066
338.21	0.04724	0.00066
343.71	0.04671	0.00065
348.65	0.04627	0.00065

System: 1-hexyl-3-methylimidazolium iodide; phases: Liquid
Fixed: Pressure, kPa = 101.325
Property: Mass density, kg/m3 (Liquid); method: Buoyancy - hydrostatic balance
Temperature, K	Mass density, kg/m3	uncertainty
298.21	1384.09	0.96
303.18	1381.16	0.96
308.24	1377.24	0.96
313.26	1372.92	0.96
318.22	1368.19	0.96
323.13	1365.08	0.96
327.71	1361.3	0.96
333.53	1356.68	0.96
338.63	1353.68	0.96
343.23	1349.61	0.96
347.91	1346.53	0.96
353.04	1342.46	0.96
358.15	1339.36	0.96
365	1334.73	0.96

System: 1-hexyl-3-methylimidazolium iodide; phases: Liquid, Air at 1 atmosphere
Property: Surface tension liquid-gas, N/m (Liquid); method: Wilhelmy plate method
Temperature, K	Surface tension liquid-gas, N/m	uncertainty
298.2	0.04102	0.00021
303.12	0.04079	0.00021
308.16	0.04059	0.00021
313.25	0.04029	0.00021
318.2	0.04004	0.00021
323.06	0.03975	0.00021
327.73	0.03947	0.00021
333.49	0.03923	0.00021
338.69	0.03898	0.0002
343.18	0.03874	0.0002
347.97	0.0385	0.0002
353.11	0.03826	0.0002
358.25	0.03791	0.0002
365.11	0.03761	0.0002

System: 1-hexyl-3-methylimidazolium iodide; phases: Liquid, Air at 1 atmosphere
Property: Surface tension liquid-gas, N/m (Liquid); method: Ring tensiometer
Temperature, K	Surface tension liquid-gas, N/m	uncertainty
292.93	0.04144	0.00067
298.19	0.04126	0.00067
303.15	0.04091	0.00066
308.19	0.04069	0.00066
313.25	0.04046	0.00066
318.19	0.04023	0.00066
322.94	0.03996	0.00065
327.67	0.03975	0.00065
333.53	0.03938	0.00065
338.71	0.03924	0.00065
343.23	0.03894	0.00065
348.22	0.03869	0.00064
353.17	0.03804	0.00064
358.64	0.03814	0.00064
365.34	0.03788	0.00064
