Measured thermophysical data. Study of solvation consequences of glycine, L-alanine and L-valine in aqueous 1-butyl-4-methyl pyridinium chloride ionic liquid solutions probed by physicochemical approach in the temperature interval (288.15-308.15) K
Source: J. Chem. Thermodyn., 2017, 10.1016/j.jct.2017.02.021
Compound 1: 2-aminoacetic acid, C2H5NO2, InChI=1S/C2H5NO2/c3-1-2(4)5/h1,3H2,(H,4,5), purity 99%
Compound 2: (S)-2-aminopropanoic acid, C3H7NO2, InChI=1S/C3H7NO2/c1-2(4)3(5)6/h2H,4H2,1H3,(H,5,6)/t2-/m0/s1, purity 99%
Compound 3: L-valine, C5H11NO2, InChI=1S/C5H11NO2/c1-3(2)4(6)5(7)8/h3-4H,6H2,1-2H3,(H,7,8)/t4-/m0/s1, purity 99%
Compound 4: 1-butyl-4-methylpyridinium chloride, C10H16ClN, InChI=1S/C10H16N.ClH/c1-3-4-7-11-8-5-10(2)6-9-11;/h5-6,8-9H,3-4,7H2,1-2H3;1H/q+1;/p-1, purity 98%
Compound 5: water, H2O, InChI=1S/H2O/h1H2

System: 2-aminoacetic acid + water + 1-butyl-4-methylpyridinium chloride; phases: Liquid
Fixed: Pressure, kPa = 100
Property: Mass density, kg/m3 (Liquid); method: Vibrating tube method
Temperature, K	Solvent: Molality, mol/kg of 1-butyl-4-methylpyridinium chloride	Molality, mol/kg of 2-aminoacetic acid	Mass density, kg/m3	uncertainty
288.15	0.025	0	999.7	0.38
288.15	0.025	0.02	1000.37	0.38
288.15	0.025	0.05975	1001.68	0.38
288.15	0.025	0.0994	1002.97	0.39
288.15	0.025	0.14061	1004.29	0.39
288.15	0.025	0.17063	1005.25	0.4
288.15	0.025	0.20071	1006.19	0.4
293.15	0.025	0	998.79	0.38
293.15	0.025	0.02	999.45	0.38
293.15	0.025	0.05975	1000.75	0.38
293.15	0.025	0.0994	1002.02	0.39
293.15	0.025	0.14061	1003.33	0.39
293.15	0.025	0.17063	1004.27	0.4
293.15	0.025	0.20071	1005.21	0.4
298.15	0.025	0	997.63	0.38
298.15	0.025	0.02	998.28	0.38
298.15	0.025	0.05975	999.56	0.38
298.15	0.025	0.0994	1000.82	0.39
298.15	0.025	0.14061	1002.12	0.39
298.15	0.025	0.17063	1003.04	0.4
298.15	0.025	0.20071	1003.97	0.4
303.15	0.025	0	996.22	0.38
303.15	0.025	0.02	996.86	0.38
303.15	0.025	0.05975	998.13	0.38
303.15	0.025	0.0994	999.38	0.39
303.15	0.025	0.14061	1000.66	0.39
303.15	0.025	0.17063	1001.59	0.4
303.15	0.025	0.20071	1002.5	0.4
308.15	0.025	0	994.59	0.38
308.15	0.025	0.02	995.22	0.38
308.15	0.025	0.05975	996.48	0.38
308.15	0.025	0.0994	997.72	0.39
308.15	0.025	0.14061	999	0.39
308.15	0.025	0.17063	999.92	0.39
308.15	0.025	0.20071	1000.84	0.4
288.15	0.05	0	999.99	0.38
288.15	0.05	0.01956	1000.65	0.38
288.15	0.05	0.05986	1001.98	0.38
288.15	0.05	0.09949	1003.27	0.39
288.15	0.05	0.14023	1004.57	0.39
288.15	0.05	0.16996	1005.5	0.4
288.15	0.05	0.19982	1006.42	0.4
293.15	0.05	0	999.07	0.38
293.15	0.05	0.01956	999.72	0.38
293.15	0.05	0.05986	1001.04	0.38
293.15	0.05	0.09949	1002.31	0.39
293.15	0.05	0.14023	1003.59	0.39
293.15	0.05	0.16996	1004.51	0.4
293.15	0.05	0.19982	1005.42	0.4
298.15	0.05	0	997.89	0.38
298.15	0.05	0.01956	998.53	0.38
298.15	0.05	0.05986	999.83	0.38
298.15	0.05	0.09949	1001.09	0.39
298.15	0.05	0.14023	1002.36	0.39
298.15	0.05	0.16996	1003.27	0.4
298.15	0.05	0.19982	1004.17	0.4
303.15	0.05	0	996.47	0.38
303.15	0.05	0.01956	997.1	0.38
303.15	0.05	0.05986	998.39	0.38
303.15	0.05	0.09949	999.64	0.39
303.15	0.05	0.14023	1000.9	0.39
303.15	0.05	0.16996	1001.8	0.39
303.15	0.05	0.19982	1002.67	0.4
308.15	0.05	0	994.83	0.38
308.15	0.05	0.01956	995.46	0.38
308.15	0.05	0.05986	996.75	0.38
308.15	0.05	0.09949	997.98	0.39
308.15	0.05	0.14023	999.23	0.39
308.15	0.05	0.16996	1000.13	0.39
308.15	0.05	0.19982	1001.01	0.4
288.15	0.075	0	1000.28	0.38
288.15	0.075	0.02098	1000.98	0.38
288.15	0.075	0.06	1002.25	0.38
288.15	0.075	0.10037	1003.51	0.39
288.15	0.075	0.13887	1004.67	0.39
288.15	0.075	0.17063	1005.58	0.4
288.15	0.075	0.20224	1006.48	0.41
293.15	0.075	0	999.34	0.38
293.15	0.075	0.02098	1000.03	0.38
293.15	0.075	0.06	1001.29	0.38
293.15	0.075	0.10037	1002.53	0.39
293.15	0.075	0.13887	1003.68	0.39
293.15	0.075	0.17063	1004.58	0.39
293.15	0.075	0.20224	1005.46	0.4
298.15	0.075	0	998.15	0.38
298.15	0.075	0.02098	998.83	0.38
298.15	0.075	0.06	1000.07	0.38
298.15	0.075	0.10037	1001.3	0.39
298.15	0.075	0.13887	1002.43	0.39
298.15	0.075	0.17063	1003.33	0.39
298.15	0.075	0.20224	1004.19	0.4
303.15	0.075	0	996.71	0.38
303.15	0.075	0.02098	997.39	0.38
303.15	0.075	0.06	998.62	0.38
303.15	0.075	0.10037	999.84	0.39
303.15	0.075	0.13887	1000.96	0.39
303.15	0.075	0.17063	1001.85	0.39
303.15	0.075	0.20224	1002.7	0.4
308.15	0.075	0	995.07	0.38
308.15	0.075	0.02098	995.74	0.38
308.15	0.075	0.06	996.96	0.38
308.15	0.075	0.10037	998.17	0.39
308.15	0.075	0.13887	999.28	0.39
308.15	0.075	0.17063	1000.17	0.39
308.15	0.075	0.20224	1001.01	0.4
288.15	0.1	0	1000.57	0.38
288.15	0.1	0.01991	1001.25	0.38
288.15	0.1	0.05901	1002.55	0.38
288.15	0.1	0.09994	1003.87	0.39
288.15	0.1	0.13963	1005.12	0.39
288.15	0.1	0.17027	1006.05	0.4
288.15	0.1	0.2006	1006.95	0.4
293.15	0.1	0	999.61	0.38
293.15	0.1	0.01991	1000.29	0.38
293.15	0.1	0.05901	1001.57	0.38
293.15	0.1	0.09994	1002.88	0.39
293.15	0.1	0.13963	1004.11	0.39
293.15	0.1	0.17027	1005.03	0.4
293.15	0.1	0.2006	1005.92	0.4
298.15	0.1	0	998.41	0.38
298.15	0.1	0.01991	999.07	0.38
298.15	0.1	0.05901	1000.34	0.38
298.15	0.1	0.09994	1001.63	0.39
298.15	0.1	0.13963	1002.85	0.39
298.15	0.1	0.17027	1003.76	0.4
298.15	0.1	0.2006	1004.63	0.4
303.15	0.1	0	996.96	0.38
303.15	0.1	0.01991	997.62	0.38
303.15	0.1	0.05901	998.88	0.38
303.15	0.1	0.09994	1000.16	0.39
303.15	0.1	0.13963	1001.36	0.39
303.15	0.1	0.17027	1002.27	0.4
303.15	0.1	0.2006	1003.14	0.4
308.15	0.1	0	995.3	0.38
308.15	0.1	0.01991	995.96	0.38
308.15	0.1	0.05901	997.21	0.38
308.15	0.1	0.09994	998.48	0.39
308.15	0.1	0.13963	999.68	0.39
308.15	0.1	0.17027	1000.57	0.39
308.15	0.1	0.2006	1001.44	0.4

System: 2-aminoacetic acid + water + 1-butyl-4-methylpyridinium chloride; phases: Liquid
Fixed: Pressure, kPa = 100
Fixed: Frequency, MHz = 3
Property: Speed of sound, m/s (Liquid); method: Sing-around technique in a fixed-path interferometer
Temperature, K	Solvent: Molality, mol/kg of 1-butyl-4-methylpyridinium chloride	Molality, mol/kg of 2-aminoacetic acid	Speed of sound, m/s	uncertainty
288.15	0.025	0	1470.95	1.61
288.15	0.025	0.02	1472.03	1.61
288.15	0.025	0.05975	1474.29	1.61
288.15	0.025	0.0994	1476.32	1.62
288.15	0.025	0.14061	1478.72	1.62
288.15	0.025	0.17063	1480.46	1.62
288.15	0.025	0.20071	1482.15	1.63
293.15	0.025	0	1486.66	1.61
293.15	0.025	0.02	1487.71	1.61
293.15	0.025	0.05975	1489.9	1.61
293.15	0.025	0.0994	1491.61	1.62
293.15	0.025	0.14061	1493.91	1.62
293.15	0.025	0.17063	1495.56	1.63
293.15	0.025	0.20071	1497.54	1.62
298.15	0.025	0	1500.3	1.62
298.15	0.025	0.02	1501.34	1.62
298.15	0.025	0.05975	1503.47	1.62
298.15	0.025	0.0994	1505.39	1.62
298.15	0.025	0.14061	1507.63	1.62
298.15	0.025	0.17063	1509.24	1.63
298.15	0.025	0.20071	1510.88	1.62
303.15	0.025	0	1512.42	1.62
303.15	0.025	0.02	1513.45	1.62
303.15	0.025	0.05975	1515.51	1.62
303.15	0.025	0.0994	1517.4	1.62
303.15	0.025	0.14061	1519.58	1.62
303.15	0.025	0.17063	1521.14	1.63
303.15	0.025	0.20071	1522.68	1.62
308.15	0.025	0	1523.05	1.62
308.15	0.025	0.02	1523.95	1.62
308.15	0.025	0.05975	1525.85	1.62
308.15	0.025	0.0994	1527.7	1.62
308.15	0.025	0.14061	1529.82	1.62
308.15	0.025	0.17063	1531.35	1.63
308.15	0.025	0.20071	1532.86	1.63
288.15	0.05	0	1475.06	1.62
288.15	0.05	0.01956	1476.17	1.62
288.15	0.05	0.05986	1478.52	1.62
288.15	0.05	0.09949	1480.79	1.62
288.15	0.05	0.14023	1482.81	1.63
288.15	0.05	0.16996	1484.48	1.63
288.15	0.05	0.19982	1486.14	1.63
293.15	0.05	0	1490.27	1.62
293.15	0.05	0.01956	1491.36	1.62
293.15	0.05	0.05986	1493.61	1.62
293.15	0.05	0.09949	1495.75	1.62
293.15	0.05	0.14023	1497.78	1.63
293.15	0.05	0.16996	1499.43	1.63
293.15	0.05	0.19982	1501.02	1.63
298.15	0.05	0	1503.95	1.62
298.15	0.05	0.01956	1505.02	1.62
298.15	0.05	0.05986	1507.19	1.62
298.15	0.05	0.09949	1509.24	1.62
298.15	0.05	0.14023	1511.21	1.63
298.15	0.05	0.16996	1512.83	1.63
298.15	0.05	0.19982	1514.36	1.63
303.15	0.05	0	1515.85	1.62
303.15	0.05	0.01956	1516.88	1.62
303.15	0.05	0.05986	1518.98	1.62
303.15	0.05	0.09949	1520.98	1.62
303.15	0.05	0.14023	1522.89	1.63
303.15	0.05	0.16996	1524.47	1.63
303.15	0.05	0.19982	1525.94	1.63
308.15	0.05	0	1526.27	1.62
308.15	0.05	0.01956	1527.15	1.62
308.15	0.05	0.05986	1529.11	1.62
308.15	0.05	0.09949	1531.06	1.62
308.15	0.05	0.14023	1532.91	1.63
308.15	0.05	0.16996	1534.46	1.63
308.15	0.05	0.19982	1535.9	1.63
288.15	0.075	0	1479.2	1.63
288.15	0.075	0.02098	1480.42	1.63
288.15	0.075	0.06	1482.68	1.63
288.15	0.075	0.10037	1484.65	1.63
288.15	0.075	0.13887	1486.7	1.64
288.15	0.075	0.17063	1488.25	1.64
288.15	0.075	0.20224	1490	1.65
293.15	0.075	0	1494.14	1.63
293.15	0.075	0.02098	1495.32	1.63
293.15	0.075	0.06	1497.5	1.63
293.15	0.075	0.10037	1499.44	1.63
293.15	0.075	0.13887	1501.39	1.64
293.15	0.075	0.17063	1502.93	1.64
293.15	0.075	0.20224	1504.58	1.64
298.15	0.075	0	1507.55	1.63
298.15	0.075	0.02098	1508.73	1.63
298.15	0.075	0.06	1510.81	1.63
298.15	0.075	0.10037	1512.69	1.63
298.15	0.075	0.13887	1514.59	1.64
298.15	0.075	0.17063	1516.06	1.64
298.15	0.075	0.20224	1517.63	1.64
303.15	0.075	0	1519.19	1.63
303.15	0.075	0.02098	1520.32	1.63
303.15	0.075	0.06	1522.35	1.63
303.15	0.075	0.10037	1524.2	1.63
303.15	0.075	0.13887	1526.06	1.63
303.15	0.075	0.17063	1527.48	1.64
303.15	0.075	0.20224	1528.98	1.64
308.15	0.075	0	1529.18	1.63
308.15	0.075	0.02098	1530.27	1.63
308.15	0.075	0.06	1532.22	1.63
308.15	0.075	0.10037	1534.06	1.63
308.15	0.075	0.13887	1535.87	1.63
308.15	0.075	0.17063	1537.26	1.64
308.15	0.075	0.20224	1538.93	1.64
288.15	0.1	0	1483.18	1.64
288.15	0.1	0.01991	1484.37	1.64
288.15	0.1	0.05901	1486.67	1.64
288.15	0.1	0.09994	1488.95	1.65
288.15	0.1	0.13963	1491.08	1.65
288.15	0.1	0.17027	1492.54	1.66
288.15	0.1	0.2006	1494.24	1.66
293.15	0.1	0	1497.89	1.63
293.15	0.1	0.01991	1499.07	1.64
293.15	0.1	0.05901	1501.26	1.64
293.15	0.1	0.09994	1503.46	1.64
293.15	0.1	0.13963	1505.54	1.65
293.15	0.1	0.17027	1506.97	1.65
293.15	0.1	0.2006	1508.61	1.65
298.15	0.1	0	1511.05	1.63
298.15	0.1	0.01991	1512.15	1.63
298.15	0.1	0.05901	1514.31	1.64
298.15	0.1	0.09994	1516.42	1.64
298.15	0.1	0.13963	1518.43	1.64
298.15	0.1	0.17027	1519.83	1.65
298.15	0.1	0.2006	1521.42	1.64
303.15	0.1	0	1522.47	1.63
303.15	0.1	0.01991	1523.6	1.63
303.15	0.1	0.05901	1525.64	1.64
303.15	0.1	0.09994	1527.69	1.64
303.15	0.1	0.13963	1529.64	1.64
303.15	0.1	0.17027	1531.01	1.65
303.15	0.1	0.2006	1532.55	1.64
308.15	0.1	0	1532.25	1.64
308.15	0.1	0.01991	1533.31	1.64
308.15	0.1	0.05901	1535.34	1.64
308.15	0.1	0.09994	1537.33	1.64
308.15	0.1	0.13963	1539.24	1.64
308.15	0.1	0.17027	1540.58	1.65
308.15	0.1	0.2006	1542.08	1.65

System: (S)-2-aminopropanoic acid + water + 1-butyl-4-methylpyridinium chloride; phases: Liquid
Fixed: Pressure, kPa = 100
Property: Mass density, kg/m3 (Liquid); method: Vibrating tube method
Temperature, K	Solvent: Molality, mol/kg of 1-butyl-4-methylpyridinium chloride	Molality, mol/kg of (S)-2-aminopropanoic acid	Mass density, kg/m3	uncertainty
288.15	0.025	0	999.7	0.38
288.15	0.025	0.02001	1000.29	0.38
288.15	0.025	0.05943	1001.45	0.38
288.15	0.025	0.10052	1002.64	0.39
288.15	0.025	0.13514	1003.63	0.39
288.15	0.025	0.17009	1004.63	0.39
288.15	0.025	0.20184	1005.53	0.4
293.15	0.025	0	998.79	0.38
293.15	0.025	0.02001	999.38	0.38
293.15	0.025	0.05943	1000.52	0.38
293.15	0.025	0.10052	1001.7	0.39
293.15	0.025	0.13514	1002.68	0.39
293.15	0.025	0.17009	1003.67	0.39
293.15	0.025	0.20184	1004.55	0.4
298.15	0.025	0	997.63	0.38
298.15	0.025	0.02001	998.21	0.38
298.15	0.025	0.05943	999.34	0.38
298.15	0.025	0.10052	1000.51	0.38
298.15	0.025	0.13514	1001.48	0.39
298.15	0.025	0.17009	1002.46	0.39
298.15	0.025	0.20184	1003.34	0.4
303.15	0.025	0	996.22	0.38
303.15	0.025	0.02001	996.79	0.38
303.15	0.025	0.05943	997.92	0.38
303.15	0.025	0.10052	999.08	0.38
303.15	0.025	0.13514	1000.05	0.39
303.15	0.025	0.17009	1001.02	0.39
303.15	0.025	0.20184	1001.89	0.39
308.15	0.025	0	994.59	0.38
308.15	0.025	0.02001	995.16	0.38
308.15	0.025	0.05943	996.28	0.38
308.15	0.025	0.10052	997.44	0.38
308.15	0.025	0.13514	998.4	0.39
308.15	0.025	0.17009	999.36	0.39
308.15	0.025	0.20184	1000.23	0.4
288.15	0.05	0	999.99	0.38
288.15	0.05	0.02	1000.59	0.38
288.15	0.05	0.05969	1001.76	0.38
288.15	0.05	0.10033	1002.94	0.39
288.15	0.05	0.14091	1004.1	0.39
288.15	0.05	0.17012	1004.92	0.39
288.15	0.05	0.19935	1005.74	0.4
293.15	0.05	0	999.07	0.38
293.15	0.05	0.02	999.66	0.38
293.15	0.05	0.05969	1000.82	0.38
293.15	0.05	0.10033	1001.99	0.39
293.15	0.05	0.14091	1003.13	0.39
293.15	0.05	0.17012	1003.95	0.39
293.15	0.05	0.19935	1004.74	0.4
298.15	0.05	0	997.89	0.38
298.15	0.05	0.02	998.47	0.38
298.15	0.05	0.05969	999.62	0.38
298.15	0.05	0.10033	1000.78	0.39
298.15	0.05	0.14091	1001.92	0.39
298.15	0.05	0.17012	1002.72	0.39
298.15	0.05	0.19935	1003.51	0.4
303.15	0.05	0	996.47	0.38
303.15	0.05	0.02	997.05	0.38
303.15	0.05	0.05969	998.19	0.38
303.15	0.05	0.10033	999.34	0.38
303.15	0.05	0.14091	1000.47	0.39
303.15	0.05	0.17012	1001.27	0.39
303.15	0.05	0.19935	1002.05	0.39
308.15	0.05	0	994.83	0.38
308.15	0.05	0.02	995.41	0.38
308.15	0.05	0.05969	996.54	0.38
308.15	0.05	0.10033	997.69	0.38
308.15	0.05	0.14091	998.8	0.39
308.15	0.05	0.17012	999.6	0.39
308.15	0.05	0.19935	1000.38	0.4
288.15	0.075	0	1000.28	0.38
288.15	0.075	0.02035	1000.89	0.38
288.15	0.075	0.06032	1002.07	0.38
288.15	0.075	0.09952	1003.22	0.39
288.15	0.075	0.14093	1004.4	0.39
288.15	0.075	0.17041	1005.21	0.39
288.15	0.075	0.20042	1006.03	0.4
293.15	0.075	0	999.34	0.38
293.15	0.075	0.02035	999.95	0.38
293.15	0.075	0.06032	1001.12	0.38
293.15	0.075	0.09952	1002.25	0.39
293.15	0.075	0.14093	1003.41	0.39
293.15	0.075	0.17041	1004.22	0.39
293.15	0.075	0.20042	1005.03	0.4
298.15	0.075	0	998.15	0.38
298.15	0.075	0.02035	998.74	0.38
298.15	0.075	0.06032	999.9	0.38
298.15	0.075	0.09952	1001.02	0.39
298.15	0.075	0.14093	1002.17	0.39
298.15	0.075	0.17041	1002.98	0.39
298.15	0.075	0.20042	1003.79	0.4
303.15	0.075	0	996.71	0.38
303.15	0.075	0.02035	997.31	0.38
303.15	0.075	0.06032	998.46	0.38
303.15	0.075	0.09952	999.56	0.38
303.15	0.075	0.14093	1000.71	0.39
303.15	0.075	0.17041	1001.51	0.39
303.15	0.075	0.20042	1002.31	0.4
308.15	0.075	0	995.07	0.38
308.15	0.075	0.02035	995.65	0.38
308.15	0.075	0.06032	996.78	0.38
308.15	0.075	0.09952	997.9	0.38
308.15	0.075	0.14093	999.04	0.39
308.15	0.075	0.17041	999.84	0.39
308.15	0.075	0.20042	1000.63	0.4
288.15	0.1	0	1000.57	0.38
288.15	0.1	0.02003	1001.13	0.38
288.15	0.1	0.06033	1002.29	0.38
288.15	0.1	0.10014	1003.46	0.39
288.15	0.1	0.14056	1004.66	0.39
288.15	0.1	0.17022	1005.56	0.4
288.15	0.1	0.19989	1006.45	0.4
293.15	0.1	0	999.61	0.38
293.15	0.1	0.02003	1000.18	0.38
293.15	0.1	0.06033	1001.32	0.38
293.15	0.1	0.10014	1002.47	0.39
293.15	0.1	0.14056	1003.67	0.39
293.15	0.1	0.17022	1004.55	0.4
293.15	0.1	0.19989	1005.44	0.4
298.15	0.1	0	998.41	0.38
298.15	0.1	0.02003	998.96	0.38
298.15	0.1	0.06033	1000.1	0.38
298.15	0.1	0.10014	1001.24	0.39
298.15	0.1	0.14056	1002.42	0.39
298.15	0.1	0.17022	1003.3	0.4
298.15	0.1	0.19989	1004.18	0.4
303.15	0.1	0	996.96	0.38
303.15	0.1	0.02003	997.51	0.38
303.15	0.1	0.06033	998.64	0.38
303.15	0.1	0.10014	999.77	0.38
303.15	0.1	0.14056	1000.95	0.39
303.15	0.1	0.17022	1001.82	0.39
303.15	0.1	0.19989	1002.7	0.4
308.15	0.1	0	995.3	0.38
308.15	0.1	0.02003	995.85	0.38
308.15	0.1	0.06033	996.97	0.38
308.15	0.1	0.10014	998.1	0.38
308.15	0.1	0.14056	999.26	0.39
308.15	0.1	0.17022	1000.13	0.39
308.15	0.1	0.19989	1001	0.4

System: (S)-2-aminopropanoic acid + water + 1-butyl-4-methylpyridinium chloride; phases: Liquid
Fixed: Pressure, kPa = 100
Fixed: Frequency, MHz = 3
Property: Speed of sound, m/s (Liquid); method: Sing-around technique in a fixed-path interferometer
Temperature, K	Solvent: Molality, mol/kg of 1-butyl-4-methylpyridinium chloride	Molality, mol/kg of (S)-2-aminopropanoic acid	Speed of sound, m/s	uncertainty
288.15	0.025	0	1470.95	1.61
288.15	0.025	0.02001	1472.26	1.61
288.15	0.025	0.05943	1475.11	1.61
288.15	0.025	0.10052	1477.94	1.62
288.15	0.025	0.13514	1480.32	1.62
288.15	0.025	0.17009	1482.8	1.63
288.15	0.025	0.20184	1485.24	1.64
293.15	0.025	0	1486.66	1.61
293.15	0.025	0.02001	1487.99	1.61
293.15	0.025	0.05943	1490.4	1.62
293.15	0.025	0.10052	1493.47	1.62
293.15	0.025	0.13514	1495.42	1.62
293.15	0.025	0.17009	1498.11	1.64
293.15	0.025	0.20184	1500.47	1.63
298.15	0.025	0	1500.3	1.62
298.15	0.025	0.02001	1501.62	1.62
298.15	0.025	0.05943	1504.2	1.62
298.15	0.025	0.10052	1506.9	1.62
298.15	0.025	0.13514	1509.06	1.63
298.15	0.025	0.17009	1511.37	1.63
298.15	0.025	0.20184	1513.57	1.63
303.15	0.025	0	1512.42	1.62
303.15	0.025	0.02001	1513.71	1.62
303.15	0.025	0.05943	1516.19	1.62
303.15	0.025	0.10052	1518.78	1.62
303.15	0.025	0.13514	1520.88	1.63
303.15	0.025	0.17009	1523.09	1.63
303.15	0.025	0.20184	1525.23	1.63
308.15	0.025	0	1523.05	1.62
308.15	0.025	0.02001	1524.14	1.62
308.15	0.025	0.05943	1526.49	1.62
308.15	0.025	0.10052	1529.01	1.62
308.15	0.025	0.13514	1531.04	1.63
308.15	0.025	0.17009	1533.2	1.63
308.15	0.025	0.20184	1535.37	1.64
288.15	0.05	0	1475.06	1.62
288.15	0.05	0.02	1476.52	1.62
288.15	0.05	0.05969	1479.3	1.62
288.15	0.05	0.10033	1482.16	1.63
288.15	0.05	0.14091	1484.83	1.63
288.15	0.05	0.17012	1486.9	1.64
288.15	0.05	0.19935	1488.75	1.64
293.15	0.05	0	1490.27	1.62
293.15	0.05	0.02	1491.66	1.62
293.15	0.05	0.05969	1494.42	1.62
293.15	0.05	0.10033	1497.11	1.63
293.15	0.05	0.14091	1499.7	1.63
293.15	0.05	0.17012	1501.7	1.64
293.15	0.05	0.19935	1503.53	1.64
298.15	0.05	0	1503.95	1.62
298.15	0.05	0.02	1505.28	1.62
298.15	0.05	0.05969	1507.94	1.62
298.15	0.05	0.10033	1510.54	1.63
298.15	0.05	0.14091	1513.01	1.63
298.15	0.05	0.17012	1514.95	1.64
298.15	0.05	0.19935	1516.71	1.63
303.15	0.05	0	1515.85	1.62
303.15	0.05	0.02	1517.16	1.62
303.15	0.05	0.05969	1519.7	1.62
303.15	0.05	0.10033	1522.2	1.63
303.15	0.05	0.14091	1524.56	1.63
303.15	0.05	0.17012	1526.45	1.64
303.15	0.05	0.19935	1528.17	1.63
308.15	0.05	0	1526.27	1.62
308.15	0.05	0.02	1527.44	1.62
308.15	0.05	0.05969	1529.79	1.62
308.15	0.05	0.10033	1532.2	1.63
308.15	0.05	0.14091	1534.51	1.63
308.15	0.05	0.17012	1536.33	1.64
308.15	0.05	0.19935	1537.99	1.64
288.15	0.075	0	1479.2	1.63
288.15	0.075	0.02035	1480.66	1.63
288.15	0.075	0.06032	1483.57	1.63
288.15	0.075	0.09952	1486.46	1.63
288.15	0.075	0.14093	1489.15	1.64
288.15	0.075	0.17041	1490.87	1.64
288.15	0.075	0.20042	1492.95	1.65
293.15	0.075	0	1494.14	1.63
293.15	0.075	0.02035	1495.6	1.63
293.15	0.075	0.06032	1498.37	1.63
293.15	0.075	0.09952	1501.39	1.63
293.15	0.075	0.14093	1503.98	1.64
293.15	0.075	0.17041	1505.47	1.64
293.15	0.075	0.20042	1507.44	1.64
298.15	0.075	0	1507.55	1.63
298.15	0.075	0.02035	1508.95	1.63
298.15	0.075	0.06032	1511.62	1.63
298.15	0.075	0.09952	1514.55	1.63
298.15	0.075	0.14093	1517.03	1.64
298.15	0.075	0.17041	1518.47	1.64
298.15	0.075	0.20042	1520.37	1.64
303.15	0.075	0	1519.19	1.63
303.15	0.075	0.02035	1520.6	1.63
303.15	0.075	0.06032	1523.13	1.63
303.15	0.075	0.09952	1525.94	1.63
303.15	0.075	0.14093	1528.33	1.64
303.15	0.075	0.17041	1529.76	1.64
303.15	0.075	0.20042	1531.58	1.64
308.15	0.075	0	1529.18	1.63
308.15	0.075	0.02035	1530.51	1.63
308.15	0.075	0.06032	1532.99	1.63
308.15	0.075	0.09952	1535.7	1.63
308.15	0.075	0.14093	1538.01	1.64
308.15	0.075	0.17041	1539.43	1.64
308.15	0.075	0.20042	1541.19	1.64
288.15	0.1	0	1483.18	1.64
288.15	0.1	0.02003	1484.51	1.64
288.15	0.1	0.06033	1487.33	1.64
288.15	0.1	0.10014	1490.02	1.64
288.15	0.1	0.14056	1492.96	1.65
288.15	0.1	0.17022	1494.93	1.66
288.15	0.1	0.19989	1496.82	1.66
293.15	0.1	0	1497.89	1.63
293.15	0.1	0.02003	1499.17	1.63
293.15	0.1	0.06033	1501.93	1.64
293.15	0.1	0.10014	1504.51	1.63
293.15	0.1	0.14056	1507.29	1.64
293.15	0.1	0.17022	1509.25	1.65
293.15	0.1	0.19989	1511.02	1.64
298.15	0.1	0	1511.05	1.63
298.15	0.1	0.02003	1512.27	1.63
298.15	0.1	0.06033	1514.9	1.63
298.15	0.1	0.10014	1517.43	1.63
298.15	0.1	0.14056	1520.11	1.64
298.15	0.1	0.17022	1521.99	1.65
298.15	0.1	0.19989	1523.73	1.64
303.15	0.1	0	1522.47	1.63
303.15	0.1	0.02003	1523.65	1.63
303.15	0.1	0.06033	1526.18	1.63
303.15	0.1	0.10014	1528.64	1.63
303.15	0.1	0.14056	1531.23	1.64
303.15	0.1	0.17022	1533.05	1.65
303.15	0.1	0.19989	1534.71	1.64
308.15	0.1	0	1532.25	1.64
308.15	0.1	0.02003	1533.39	1.63
308.15	0.1	0.06033	1535.84	1.64
308.15	0.1	0.10014	1538.22	1.64
308.15	0.1	0.14056	1540.73	1.64
308.15	0.1	0.17022	1542.49	1.65
308.15	0.1	0.19989	1544.11	1.65

System: L-valine + water + 1-butyl-4-methylpyridinium chloride; phases: Liquid
Fixed: Pressure, kPa = 100
Property: Mass density, kg/m3 (Liquid); method: Vibrating tube method
Temperature, K	Solvent: Molality, mol/kg of 1-butyl-4-methylpyridinium chloride	Molality, mol/kg of L-valine	Mass density, kg/m3	uncertainty
288.15	0.025	0	999.7	0.38
288.15	0.025	0.01995	1000.26	0.38
288.15	0.025	0.05995	1001.35	0.38
288.15	0.025	0.10182	1002.47	0.39
288.15	0.025	0.1405	1003.47	0.39
288.15	0.025	0.1696	1004.2	0.39
288.15	0.025	0.20068	1004.97	0.4
293.15	0.025	0	998.79	0.38
293.15	0.025	0.01995	999.34	0.38
293.15	0.025	0.05995	1000.42	0.38
293.15	0.025	0.10182	1001.52	0.38
293.15	0.025	0.1405	1002.52	0.39
293.15	0.025	0.1696	1003.24	0.39
293.15	0.025	0.20068	1004.01	0.39
298.15	0.025	0	997.63	0.38
298.15	0.025	0.01995	998.17	0.38
298.15	0.025	0.05995	999.24	0.38
298.15	0.025	0.10182	1000.33	0.38
298.15	0.025	0.1405	1001.31	0.39
298.15	0.025	0.1696	1002.03	0.39
298.15	0.025	0.20068	1002.78	0.39
303.15	0.025	0	996.22	0.38
303.15	0.025	0.01995	996.76	0.38
303.15	0.025	0.05995	997.82	0.38
303.15	0.025	0.10182	998.9	0.38
303.15	0.025	0.1405	999.87	0.39
303.15	0.025	0.1696	1000.58	0.39
303.15	0.025	0.20068	1001.32	0.39
308.15	0.025	0	994.59	0.38
308.15	0.025	0.01995	995.12	0.38
308.15	0.025	0.05995	996.18	0.38
308.15	0.025	0.10182	997.25	0.38
308.15	0.025	0.1405	998.21	0.39
308.15	0.025	0.1696	998.92	0.39
308.15	0.025	0.20068	999.66	0.39
288.15	0.05	0	999.99	0.38
288.15	0.05	0.02029	1000.56	0.38
288.15	0.05	0.05984	1001.64	0.38
288.15	0.05	0.10013	1002.73	0.39
288.15	0.05	0.1396	1003.78	0.39
288.15	0.05	0.16685	1004.48	0.39
288.15	0.05	0.19851	1005.29	0.4
293.15	0.05	0	999.07	0.38
293.15	0.05	0.02029	999.63	0.38
293.15	0.05	0.05984	1000.7	0.38
293.15	0.05	0.10013	1001.78	0.39
293.15	0.05	0.1396	1002.81	0.39
293.15	0.05	0.16685	1003.51	0.39
293.15	0.05	0.19851	1004.3	0.39
298.15	0.05	0	997.89	0.38
298.15	0.05	0.02029	998.44	0.38
298.15	0.05	0.05984	999.5	0.38
298.15	0.05	0.10013	1000.56	0.38
298.15	0.05	0.1396	1001.59	0.39
298.15	0.05	0.16685	1002.28	0.39
298.15	0.05	0.19851	1003.06	0.39
303.15	0.05	0	996.47	0.38
303.15	0.05	0.02029	997.01	0.38
303.15	0.05	0.05984	998.06	0.38
303.15	0.05	0.10013	999.12	0.38
303.15	0.05	0.1396	1000.13	0.39
303.15	0.05	0.16685	1000.82	0.39
303.15	0.05	0.19851	1001.59	0.39
308.15	0.05	0	994.83	0.38
308.15	0.05	0.02029	995.37	0.38
308.15	0.05	0.05984	996.42	0.38
308.15	0.05	0.10013	997.46	0.38
308.15	0.05	0.1396	998.47	0.39
308.15	0.05	0.16685	999.15	0.39
308.15	0.05	0.19851	999.92	0.39
288.15	0.075	0	1000.28	0.38
288.15	0.075	0.0201	1000.81	0.38
288.15	0.075	0.06097	1001.88	0.38
288.15	0.075	0.09992	1002.92	0.39
288.15	0.075	0.13986	1003.99	0.39
288.15	0.075	0.17115	1004.83	0.39
288.15	0.075	0.19973	1005.6	0.4
293.15	0.075	0	999.34	0.38
293.15	0.075	0.0201	999.86	0.38
293.15	0.075	0.06097	1000.93	0.38
293.15	0.075	0.09992	1001.95	0.39
293.15	0.075	0.13986	1003.01	0.39
293.15	0.075	0.17115	1003.84	0.39
293.15	0.075	0.19973	1004.6	0.4
298.15	0.075	0	998.15	0.38
298.15	0.075	0.0201	998.66	0.38
298.15	0.075	0.06097	999.71	0.38
298.15	0.075	0.09992	1000.72	0.38
298.15	0.075	0.13986	1001.77	0.39
298.15	0.075	0.17115	1002.6	0.39
298.15	0.075	0.19973	1003.35	0.39
303.15	0.075	0	996.71	0.38
303.15	0.075	0.0201	997.22	0.38
303.15	0.075	0.06097	998.27	0.38
303.15	0.075	0.09992	999.27	0.38
303.15	0.075	0.13986	1000.3	0.39
303.15	0.075	0.17115	1001.12	0.39
303.15	0.075	0.19973	1001.87	0.39
308.15	0.075	0	995.07	0.38
308.15	0.075	0.0201	995.57	0.38
308.15	0.075	0.06097	996.61	0.38
308.15	0.075	0.09992	997.6	0.38
308.15	0.075	0.13986	998.62	0.39
308.15	0.075	0.17115	999.43	0.39
308.15	0.075	0.19973	1000.18	0.4
288.15	0.1	0	1000.57	0.38
288.15	0.1	0.02021	1001.13	0.38
288.15	0.1	0.05961	1002.21	0.38
288.15	0.1	0.1	1003.3	0.39
288.15	0.1	0.13982	1004.36	0.39
288.15	0.1	0.16998	1005.15	0.39
288.15	0.1	0.1982	1005.88	0.4
293.15	0.1	0	999.61	0.38
293.15	0.1	0.02021	1000.17	0.38
293.15	0.1	0.05961	1001.24	0.38
293.15	0.1	0.1	1002.32	0.39
293.15	0.1	0.13982	1003.36	0.39
293.15	0.1	0.16998	1004.14	0.39
293.15	0.1	0.1982	1004.87	0.39
298.15	0.1	0	998.41	0.38
298.15	0.1	0.02021	998.95	0.38
298.15	0.1	0.05961	1000.01	0.38
298.15	0.1	0.1	1001.07	0.39
298.15	0.1	0.13982	1002.11	0.39
298.15	0.1	0.16998	1002.88	0.39
298.15	0.1	0.1982	1003.6	0.39
303.15	0.1	0	996.96	0.38
303.15	0.1	0.02021	997.5	0.38
303.15	0.1	0.05961	998.55	0.38
303.15	0.1	0.1	999.61	0.38
303.15	0.1	0.13982	1000.63	0.39
303.15	0.1	0.16998	1001.4	0.39
303.15	0.1	0.1982	1002.1	0.39
308.15	0.1	0	995.3	0.38
308.15	0.1	0.02021	995.84	0.38
308.15	0.1	0.05961	996.88	0.38
308.15	0.1	0.1	997.93	0.38
308.15	0.1	0.13982	998.94	0.39
308.15	0.1	0.16998	999.7	0.39
308.15	0.1	0.1982	1000.4	0.39

System: L-valine + water + 1-butyl-4-methylpyridinium chloride; phases: Liquid
Fixed: Pressure, kPa = 100
Fixed: Frequency, MHz = 3
Property: Speed of sound, m/s (Liquid); method: Sing-around technique in a fixed-path interferometer
Temperature, K	Solvent: Molality, mol/kg of 1-butyl-4-methylpyridinium chloride	Molality, mol/kg of L-valine	Speed of sound, m/s	uncertainty
288.15	0.025	0	1470.95	1.61
288.15	0.025	0.01995	1473.05	1.61
288.15	0.025	0.05995	1477.29	1.62
288.15	0.025	0.10182	1481.72	1.63
288.15	0.025	0.1405	1485.85	1.64
288.15	0.025	0.1696	1488.52	1.65
288.15	0.025	0.20068	1491.69	1.67
293.15	0.025	0	1486.66	1.61
293.15	0.025	0.01995	1488.7	1.61
293.15	0.025	0.05995	1492.76	1.62
293.15	0.025	0.10182	1496.96	1.63
293.15	0.025	0.1405	1500.8	1.64
293.15	0.025	0.1696	1503.21	1.64
293.15	0.025	0.20068	1506.15	1.65
298.15	0.025	0	1500.3	1.62
298.15	0.025	0.01995	1502.26	1.62
298.15	0.025	0.05995	1506.19	1.62
298.15	0.025	0.10182	1510.17	1.63
298.15	0.025	0.1405	1513.83	1.64
298.15	0.025	0.1696	1516.37	1.65
298.15	0.025	0.20068	1519.18	1.64
303.15	0.025	0	1512.42	1.62
303.15	0.025	0.01995	1514.29	1.62
303.15	0.025	0.05995	1518.06	1.62
303.15	0.025	0.10182	1521.82	1.63
303.15	0.025	0.1405	1525.33	1.64
303.15	0.025	0.1696	1527.8	1.64
303.15	0.025	0.20068	1530.47	1.64
308.15	0.025	0	1523.05	1.62
308.15	0.025	0.01995	1524.77	1.62
308.15	0.025	0.05995	1528.26	1.62
308.15	0.025	0.10182	1531.83	1.63
308.15	0.025	0.1405	1535.2	1.64
308.15	0.025	0.1696	1537.56	1.64
308.15	0.025	0.20068	1540.13	1.65
288.15	0.05	0	1475.06	1.62
288.15	0.05	0.02029	1477.22	1.62
288.15	0.05	0.05984	1481.4	1.62
288.15	0.05	0.10013	1485.77	1.63
288.15	0.05	0.1396	1489.89	1.64
288.15	0.05	0.16685	1492.55	1.66
288.15	0.05	0.19851	1495.86	1.67
293.15	0.05	0	1490.27	1.62
293.15	0.05	0.02029	1492.37	1.62
293.15	0.05	0.05984	1496.3	1.62
293.15	0.05	0.10013	1500.5	1.63
293.15	0.05	0.1396	1504.42	1.64
293.15	0.05	0.16685	1506.9	1.65
293.15	0.05	0.19851	1510.11	1.66
298.15	0.05	0	1503.95	1.62
298.15	0.05	0.02029	1505.95	1.62
298.15	0.05	0.05984	1509.7	1.62
298.15	0.05	0.10013	1513.69	1.63
298.15	0.05	0.1396	1517.43	1.64
298.15	0.05	0.16685	1519.8	1.65
298.15	0.05	0.19851	1522.79	1.66
303.15	0.05	0	1515.85	1.62
303.15	0.05	0.02029	1517.77	1.62
303.15	0.05	0.05984	1521.33	1.62
303.15	0.05	0.10013	1525.14	1.63
303.15	0.05	0.1396	1528.72	1.64
303.15	0.05	0.16685	1530.97	1.65
303.15	0.05	0.19851	1533.88	1.66
308.15	0.05	0	1526.27	1.62
308.15	0.05	0.02029	1527.99	1.62
308.15	0.05	0.05984	1531.3	1.63
308.15	0.05	0.10013	1535.14	1.63
308.15	0.05	0.1396	1538.36	1.64
308.15	0.05	0.16685	1540.53	1.65
308.15	0.05	0.19851	1543.31	1.66
288.15	0.075	0	1479.2	1.63
288.15	0.075	0.0201	1481.26	1.63
288.15	0.075	0.06097	1485.4	1.63
288.15	0.075	0.09992	1489.42	1.64
288.15	0.075	0.13986	1493.78	1.66
288.15	0.075	0.17115	1497.04	1.67
288.15	0.075	0.19973	1500.02	1.68
293.15	0.075	0	1494.14	1.63
293.15	0.075	0.0201	1496.13	1.63
293.15	0.075	0.06097	1500.06	1.63
293.15	0.075	0.09992	1504.19	1.64
293.15	0.075	0.13986	1508.09	1.65
293.15	0.075	0.17115	1511.18	1.67
293.15	0.075	0.19973	1514.02	1.67
298.15	0.075	0	1507.55	1.63
298.15	0.075	0.0201	1509.46	1.63
298.15	0.075	0.06097	1513.21	1.63
298.15	0.075	0.09992	1516.92	1.64
298.15	0.075	0.13986	1520.88	1.65
298.15	0.075	0.17115	1523.79	1.66
298.15	0.075	0.19973	1526.5	1.66
303.15	0.075	0	1519.19	1.63
303.15	0.075	0.0201	1520.99	1.63
303.15	0.075	0.06097	1524.61	1.63
303.15	0.075	0.09992	1528.11	1.64
303.15	0.075	0.13986	1531.99	1.65
303.15	0.075	0.17115	1534.71	1.66
303.15	0.075	0.19973	1537.32	1.66
308.15	0.075	0	1529.18	1.63
308.15	0.075	0.0201	1530.88	1.63
308.15	0.075	0.06097	1534.37	1.63
308.15	0.075	0.09992	1537.72	1.64
308.15	0.075	0.13986	1541.31	1.65
308.15	0.075	0.17115	1544.04	1.66
308.15	0.075	0.19973	1546.52	1.67
288.15	0.1	0	1483.18	1.64
288.15	0.1	0.02021	1485.32	1.64
288.15	0.1	0.05961	1489.24	1.65
288.15	0.1	0.1	1493.65	1.66
288.15	0.1	0.13982	1497.86	1.67
288.15	0.1	0.16998	1501.02	1.67
288.15	0.1	0.1982	1503.41	1.67
293.15	0.1	0	1497.89	1.63
293.15	0.1	0.02021	1499.89	1.64
293.15	0.1	0.05961	1503.74	1.64
293.15	0.1	0.1	1507.93	1.65
293.15	0.1	0.13982	1511.93	1.66
293.15	0.1	0.16998	1514.91	1.67
293.15	0.1	0.1982	1517.61	1.66
298.15	0.1	0	1511.05	1.63
298.15	0.1	0.02021	1512.98	1.63
298.15	0.1	0.05961	1516.64	1.64
298.15	0.1	0.1	1520.62	1.65
298.15	0.1	0.13982	1524.44	1.66
298.15	0.1	0.16998	1527.27	1.67
298.15	0.1	0.1982	1529.86	1.66
303.15	0.1	0	1522.47	1.63
303.15	0.1	0.02021	1524.31	1.63
303.15	0.1	0.05961	1527.8	1.64
303.15	0.1	0.1	1531.27	1.65
303.15	0.1	0.13982	1535.27	1.66
303.15	0.1	0.16998	1537.97	1.66
303.15	0.1	0.1982	1540.45	1.66
308.15	0.1	0	1532.25	1.64
308.15	0.1	0.02021	1533.98	1.64
308.15	0.1	0.05961	1537.34	1.64
308.15	0.1	0.1	1540.96	1.65
308.15	0.1	0.13982	1544.5	1.66
308.15	0.1	0.16998	1547.08	1.67
308.15	0.1	0.1982	1549.54	1.68

System: water + 1-butyl-4-methylpyridinium chloride; phases: Liquid
Fixed: Pressure, kPa = 100
Property: Mass density, kg/m3 (Liquid); method: Vibrating tube method
Temperature, K	Molality, mol/kg of 1-butyl-4-methylpyridinium chloride	Mass density, kg/m3	uncertainty
288.15	0.025	999.7	0.38
293.15	0.025	998.79	0.38
298.15	0.025	997.63	0.38
303.15	0.025	996.22	0.38
308.15	0.025	994.59	0.38
288.15	0.05	999.99	0.38
293.15	0.05	999.07	0.38
298.15	0.05	997.89	0.38
303.15	0.05	996.47	0.38
308.15	0.05	994.83	0.38
288.15	0.075	1000.28	0.38
293.15	0.075	999.34	0.38
298.15	0.075	998.15	0.38
303.15	0.075	996.71	0.38
308.15	0.075	995.07	0.38
288.15	0.1	1000.57	0.38
293.15	0.1	999.61	0.38
298.15	0.1	998.41	0.38
303.15	0.1	996.96	0.38
308.15	0.1	995.3	0.38

System: water + 1-butyl-4-methylpyridinium chloride; phases: Liquid
Fixed: Pressure, kPa = 100
Fixed: Frequency, MHz = 3
Property: Speed of sound, m/s (Liquid); method: Sing-around technique in a fixed-path interferometer
Temperature, K	Molality, mol/kg of 1-butyl-4-methylpyridinium chloride	Speed of sound, m/s	uncertainty
288.15	0.025	1470.95	1.61
293.15	0.025	1486.66	1.61
298.15	0.025	1500.3	1.62
303.15	0.025	1512.42	1.62
308.15	0.025	1523.05	1.62
288.15	0.05	1475.06	1.62
293.15	0.05	1490.27	1.62
298.15	0.05	1503.95	1.62
303.15	0.05	1515.85	1.62
308.15	0.05	1526.27	1.62
288.15	0.075	1479.2	1.63
293.15	0.075	1494.14	1.63
298.15	0.075	1507.55	1.63
303.15	0.075	1519.19	1.63
308.15	0.075	1529.18	1.63
288.15	0.1	1483.18	1.64
293.15	0.1	1497.89	1.63
298.15	0.1	1511.05	1.63
303.15	0.1	1522.47	1.63
308.15	0.1	1532.25	1.64
