Measured thermophysical data. Equilibrium solubility investigation and thermodynamic aspects of biologically active gimeracil (form P) dissolved in aqueous co-solvent mixtures of isopropanol, N,N-dimethylformamide, ethylene glycol and dimethylsulfoxide
Source: J. Chem. Thermodyn., 2019, 10.1016/j.jct.2019.01.026
Compound 1: Gimeracil, C5H4ClNO2, InChI=1S/C5H4ClNO2/c6-3-2-7-5(9)1-4(3)8/h1-2H,(H2,7,8,9), purity 99.6%
Compound 2: dimethyl sulfoxide, C2H6OS, InChI=1S/C2H6OS/c1-4(2)3/h1-2H3, purity 99.4%
Compound 3: propan-2-ol, C3H8O, InChI=1S/C3H8O/c1-3(2)4/h3-4H,1-2H3, purity 99.5%
Compound 4: dimethylformamide, C3H7NO, InChI=1S/C3H7NO/c1-4(2)3-5/h3H,1-2H3, purity 99.5%
Compound 5: 1,2-ethanediol, C2H6O2, InChI=1S/C2H6O2/c3-1-2-4/h3-4H,1-2H2, purity 99.6%
Compound 6: water, H2O, InChI=1S/H2O/h1H2

System: Gimeracil + propan-2-ol + water; phases: Liquid, Crystal
Fixed: Pressure, kPa = 101.2
Property: Mole fraction of Gimeracil (Liquid); method: Chromatography
Solvent: Mass fraction of propan-2-ol	Temperature, K	Mole fraction of Gimeracil	uncertainty
0	283.15	0.0001718	1.58e-05
0	288.15	0.0001781	1.64e-05
0	293.15	0.0001864	1.72e-05
0	298.15	0.0001937	1.78e-05
0	303.15	0.0002027	1.87e-05
0	308.15	0.0002102	1.93e-05
0	313.15	0.0002184	2.01e-05
0	318.15	0.0002265	2.08e-05
0	323.15	0.0002354	2.17e-05
0	328.15	0.0002473	2.28e-05
0.1	283.15	0.000507	4.67e-05
0.1	288.15	0.0005247	4.83e-05
0.1	293.15	0.0005483	5.05e-05
0.1	298.15	0.0005689	5.24e-05
0.1	303.15	0.0005925	5.45e-05
0.1	308.15	0.0006131	5.64e-05
0.1	313.15	0.0006367	5.86e-05
0.1	318.15	0.0006603	6.08e-05
0.1	323.15	0.0007222	6.65e-05
0.1	328.15	0.0007546	6.94e-05
0.2003	283.15	0.0008533	7.85e-05
0.2003	288.15	0.0008929	8.22e-05
0.2003	293.15	0.0009416	8.67e-05
0.2003	298.15	0.001026	9.4e-05
0.2003	303.15	0.001041	9.6e-05
0.2003	308.15	0.001123	0.000103
0.2003	313.15	0.001097	0.000101
0.2003	318.15	0.001226	0.000113
0.2003	323.15	0.001276	0.000117
0.2003	328.15	0.001344	0.000124
0.3007	283.15	0.001187	0.000109
0.3007	288.15	0.001297	0.000119
0.3007	293.15	0.00138	0.000127
0.3007	298.15	0.001426	0.000131
0.3007	303.15	0.00148	0.000136
0.3007	308.15	0.001562	0.000144
0.3007	313.15	0.001654	0.000152
0.3007	318.15	0.001825	0.000168
0.3007	323.15	0.001919	0.000177
0.3007	328.15	0.00204	0.000188
0.3989	283.15	0.001411	0.00013
0.3989	288.15	0.001518	0.00014
0.3989	293.15	0.00168	0.000155
0.3989	298.15	0.00181	0.000167
0.3989	303.15	0.001948	0.000179
0.3989	308.15	0.002075	0.000191
0.3989	313.15	0.002182	0.000201
0.3989	318.15	0.002367	0.000218
0.3989	323.15	0.002517	0.000232
0.3989	328.15	0.002626	0.000242
0.5002	283.15	0.00157	0.000144
0.5002	288.15	0.001719	0.000158
0.5002	293.15	0.001889	0.000174
0.5002	298.15	0.00207	0.00019
0.5002	303.15	0.002264	0.000208
0.5002	308.15	0.002447	0.000225
0.5002	313.15	0.00266	0.000245
0.5002	318.15	0.002879	0.000265
0.5002	323.15	0.003101	0.000285
0.5002	328.15	0.00337	0.00031
0.6	283.15	0.00172	0.000158
0.6	288.15	0.001915	0.000176
0.6	293.15	0.002138	0.000197
0.6	298.15	0.002381	0.000219
0.6	303.15	0.002642	0.000243
0.6	308.15	0.002933	0.00027
0.6	313.15	0.003266	0.000301
0.6	318.15	0.003576	0.000329
0.6	323.15	0.003894	0.000358
0.6	328.15	0.004118	0.000379
0.6987	283.15	0.001906	0.000175
0.6987	288.15	0.002196	0.000202
0.6987	293.15	0.002523	0.000232
0.6987	298.15	0.002806	0.000258
0.6987	303.15	0.003114	0.000287
0.6987	308.15	0.003534	0.000325
0.6987	313.15	0.003941	0.000363
0.6987	318.15	0.004295	0.000395
0.6987	323.15	0.004814	0.000443
0.6987	328.15	0.005265	0.000485
0.8002	283.15	0.002082	0.000192
0.8002	288.15	0.002407	0.000222
0.8002	293.15	0.00281	0.000259
0.8002	298.15	0.003237	0.000298
0.8002	303.15	0.00376	0.000346
0.8002	308.15	0.004195	0.000386
0.8002	313.15	0.004788	0.000441
0.8002	318.15	0.00539	0.000496
0.8002	323.15	0.006012	0.000553
0.8002	328.15	0.006783	0.000624
0.9012	283.15	0.002249	0.000207
0.9012	288.15	0.002644	0.000243
0.9012	293.15	0.003154	0.00029
0.9012	298.15	0.003717	0.000342
0.9012	303.15	0.004333	0.000399
0.9012	308.15	0.005061	0.000466
0.9012	313.15	0.005751	0.000529
0.9012	318.15	0.006379	0.000587
0.9012	323.15	0.00726	0.000668
0.9012	328.15	0.008386	0.000772
1	283.15	0.002418	0.000223
1	288.15	0.002882	0.000265
1	293.15	0.003427	0.000315
1	298.15	0.004076	0.000375
1	303.15	0.004791	0.000441
1	308.15	0.005543	0.00051
1	313.15	0.006472	0.000596
1	318.15	0.007497	0.00069
1	323.15	0.00858	0.00079
1	328.15	0.009872	0.000909

System: Gimeracil + dimethylformamide + water; phases: Liquid, Crystal
Fixed: Pressure, kPa = 101.2
Property: Mole fraction of Gimeracil (Liquid); method: Chromatography
Solvent: Mass fraction of dimethylformamide	Temperature, K	Mole fraction of Gimeracil	uncertainty
0	283.15	0.0001718	3.44e-05
0	288.15	0.0001781	3.56e-05
0	293.15	0.0001864	3.73e-05
0	298.15	0.0001937	3.87e-05
0	303.15	0.0002027	4.05e-05
0	308.15	0.0002102	4.2e-05
0	313.15	0.0002184	4.37e-05
0	318.15	0.0002265	4.53e-05
0	323.15	0.0002354	4.71e-05
0	328.15	0.0002473	4.95e-05
0.1006	283.15	0.002513	0.000503
0.1006	288.15	0.002536	0.000507
0.1006	293.15	0.002588	0.000518
0.1006	298.15	0.002622	0.000524
0.1006	303.15	0.002675	0.000535
0.1006	308.15	0.00271	0.000542
0.1006	313.15	0.002751	0.00055
0.1006	318.15	0.002791	0.000558
0.1006	323.15	0.002838	0.000568
0.1006	328.15	0.002918	0.000584
0.2011	283.15	0.009925	0.001985
0.2011	288.15	0.009971	0.001994
0.2011	293.15	0.01014	0.00203
0.2011	298.15	0.01023	0.00205
0.2011	303.15	0.01038	0.00208
0.2011	308.15	0.01049	0.0021
0.2011	313.15	0.0106	0.00212
0.2011	318.15	0.01072	0.00214
0.2011	323.15	0.01086	0.00217
0.2011	328.15	0.01112	0.00222
0.3	283.15	0.01719	0.00344
0.3	288.15	0.01744	0.00349
0.3	293.15	0.01792	0.00358
0.3	298.15	0.01865	0.00373
0.3	303.15	0.01905	0.00381
0.3	308.15	0.0198	0.00396
0.3	313.15	0.02017	0.00403
0.3	318.15	0.02054	0.00411
0.3	323.15	0.02094	0.00419
0.3	328.15	0.02196	0.00439
0.399	283.15	0.01864	0.00373
0.399	288.15	0.01963	0.00393
0.399	293.15	0.02069	0.00414
0.399	298.15	0.0214	0.00428
0.399	303.15	0.02219	0.00444
0.399	308.15	0.02297	0.00459
0.399	313.15	0.02374	0.00475
0.399	318.15	0.02454	0.00491
0.399	323.15	0.02536	0.00507
0.399	328.15	0.02649	0.0053
0.5006	283.15	0.01892	0.00378
0.5006	288.15	0.02031	0.00406
0.5006	293.15	0.02096	0.00419
0.5006	298.15	0.02209	0.00442
0.5006	303.15	0.0233	0.00466
0.5006	308.15	0.02456	0.00491
0.5006	313.15	0.02581	0.00516
0.5006	318.15	0.02713	0.00543
0.5006	323.15	0.02847	0.00569
0.5006	328.15	0.03018	0.00604
0.5999	283.15	0.01995	0.00399
0.5999	288.15	0.02137	0.00427
0.5999	293.15	0.02332	0.00466
0.5999	298.15	0.02532	0.00506
0.5999	303.15	0.02742	0.00548
0.5999	308.15	0.02928	0.00586
0.5999	313.15	0.0307	0.00614
0.5999	318.15	0.03307	0.00661
0.5999	323.15	0.03548	0.0071
0.5999	328.15	0.03959	0.00792
0.7001	283.15	0.02332	0.00466
0.7001	288.15	0.02572	0.00514
0.7001	293.15	0.02789	0.00558
0.7001	298.15	0.03023	0.00605
0.7001	303.15	0.0327	0.00654
0.7001	308.15	0.03428	0.00686
0.7001	313.15	0.03826	0.00765
0.7001	318.15	0.04092	0.00818
0.7001	323.15	0.04524	0.00905
0.7001	328.15	0.05105	0.01021
0.8	283.15	0.02662	0.00532
0.8	288.15	0.02962	0.00592
0.8	293.15	0.03465	0.00693
0.8	298.15	0.03903	0.00781
0.8	303.15	0.04367	0.00873
0.8	308.15	0.04839	0.00968
0.8	313.15	0.05281	0.01056
0.8	318.15	0.05812	0.01162
0.8	323.15	0.06355	0.01271
0.8	328.15	0.07084	0.01417
0.9009	283.15	0.0294	0.00588
0.9009	288.15	0.03348	0.0067
0.9009	293.15	0.03922	0.00784
0.9009	298.15	0.04435	0.00887
0.9009	303.15	0.05018	0.01004
0.9009	308.15	0.05657	0.01131
0.9009	313.15	0.0634	0.01268
0.9009	318.15	0.07084	0.01417
0.9009	323.15	0.07838	0.01568
0.9009	328.15	0.08591	0.01718
1	283.15	0.03151	0.0063
1	288.15	0.03624	0.00725
1	293.15	0.04233	0.00847
1	298.15	0.04838	0.00968
1	303.15	0.05488	0.01098
1	308.15	0.06264	0.01253
1	313.15	0.07072	0.01414
1	318.15	0.07997	0.016
1	323.15	0.08969	0.01794
1	328.15	0.1014	0.0203

System: Gimeracil + 1,2-ethanediol + water; phases: Liquid, Crystal
Fixed: Pressure, kPa = 101.2
Property: Mole fraction of Gimeracil (Liquid); method: Chromatography
Solvent: Mass fraction of 1,2-ethanediol	Temperature, K	Mole fraction of Gimeracil	uncertainty
0	283.15	0.0001718	1.58e-05
0	288.15	0.0001781	1.64e-05
0	293.15	0.0001864	1.72e-05
0	298.15	0.0001937	1.78e-05
0	303.15	0.0002027	1.87e-05
0	308.15	0.0002102	1.93e-05
0	313.15	0.0002184	2.01e-05
0	318.15	0.0002265	2.08e-05
0	323.15	0.0002354	2.17e-05
0	328.15	0.0002473	2.28e-05
0.0995	283.15	0.000589	5.42e-05
0.0995	288.15	0.0006084	5.6e-05
0.0995	293.15	0.0006906	6.36e-05
0.0995	298.15	0.0006569	6.05e-05
0.0995	303.15	0.0006846	6.3e-05
0.0995	308.15	0.0007622	7.01e-05
0.0995	313.15	0.0008422	7.75e-05
0.0995	318.15	0.0008675	7.98e-05
0.0995	323.15	0.0008928	8.22e-05
0.0995	328.15	0.0009854	9.07e-05
0.1998	283.15	0.001218	0.000112
0.1998	288.15	0.001265	0.000116
0.1998	293.15	0.001323	0.000122
0.1998	298.15	0.001379	0.000127
0.1998	303.15	0.001443	0.000133
0.1998	308.15	0.001554	0.000143
0.1998	313.15	0.001609	0.000148
0.1998	318.15	0.001668	0.000154
0.1998	323.15	0.001731	0.000159
0.1998	328.15	0.001866	0.000172
0.3003	283.15	0.001799	0.000166
0.3003	288.15	0.00189	0.000174
0.3003	293.15	0.001996	0.000184
0.3003	298.15	0.00216	0.000199
0.3003	303.15	0.002278	0.00021
0.3003	308.15	0.002438	0.000224
0.3003	313.15	0.002548	0.000234
0.3003	318.15	0.002716	0.00025
0.3003	323.15	0.002838	0.000261
0.3003	328.15	0.002986	0.000275
0.4012	283.15	0.002193	0.000202
0.4012	288.15	0.002338	0.000215
0.4012	293.15	0.002501	0.00023
0.4012	298.15	0.002674	0.000246
0.4012	303.15	0.002914	0.000268
0.4012	308.15	0.003087	0.000284
0.4012	313.15	0.003268	0.000301
0.4012	318.15	0.003462	0.000319
0.4012	323.15	0.003659	0.000337
0.4012	328.15	0.003895	0.000358
0.4999	283.15	0.002449	0.000225
0.4999	288.15	0.002652	0.000244
0.4999	293.15	0.002877	0.000265
0.4999	298.15	0.003123	0.000287
0.4999	303.15	0.003385	0.000312
0.4999	308.15	0.003638	0.000335
0.4999	313.15	0.003904	0.000359
0.4999	318.15	0.004188	0.000385
0.4999	323.15	0.004488	0.000413
0.4999	328.15	0.004827	0.000444
0.598	283.15	0.002689	0.000247
0.598	288.15	0.002959	0.000272
0.598	293.15	0.003256	0.0003
0.598	298.15	0.00359	0.00033
0.598	303.15	0.003944	0.000363
0.598	308.15	0.00435	0.0004
0.598	313.15	0.004725	0.000435
0.598	318.15	0.005184	0.000477
0.598	323.15	0.005613	0.000517
0.598	328.15	0.006035	0.000555
0.7003	283.15	0.003013	0.000277
0.7003	288.15	0.003371	0.00031
0.7003	293.15	0.003763	0.000346
0.7003	298.15	0.004216	0.000388
0.7003	303.15	0.004696	0.000432
0.7003	308.15	0.005188	0.000477
0.7003	313.15	0.005711	0.000526
0.7003	318.15	0.006287	0.000579
0.7003	323.15	0.006902	0.000635
0.7003	328.15	0.007578	0.000697
0.7995	283.15	0.00327	0.000301
0.7995	288.15	0.003861	0.000355
0.7995	293.15	0.004378	0.000403
0.7995	298.15	0.00498	0.000458
0.7995	303.15	0.005621	0.000517
0.7995	308.15	0.006346	0.000584
0.7995	313.15	0.007125	0.000656
0.7995	318.15	0.00798	0.000734
0.7995	323.15	0.008793	0.000809
0.7995	328.15	0.009795	0.000901
0.8962	283.15	0.003517	0.000324
0.8962	288.15	0.004095	0.000377
0.8962	293.15	0.0047	0.000433
0.8962	298.15	0.005534	0.000509
0.8962	303.15	0.006381	0.000587
0.8962	308.15	0.007209	0.000663
0.8962	313.15	0.00814	0.000749
0.8962	318.15	0.009239	0.00085
0.8962	323.15	0.01036	0.00095
0.8962	328.15	0.01155	0.00106
1	283.15	0.003671	0.000338
1	288.15	0.00432	0.000398
1	293.15	0.005044	0.000464
1	298.15	0.005934	0.000546
1	303.15	0.006898	0.000635
1	308.15	0.007953	0.000732
1	313.15	0.009111	0.000838
1	318.15	0.01044	0.00096
1	323.15	0.0119	0.0011
1	328.15	0.0135	0.00124

System: Gimeracil + dimethyl sulfoxide + water; phases: Liquid, Crystal
Fixed: Pressure, kPa = 101.2
Property: Mole fraction of Gimeracil (Liquid); method: Chromatography
Solvent: Mass fraction of dimethyl sulfoxide	Temperature, K	Mole fraction of Gimeracil	uncertainty
0	293.15	0.0001864	3.73e-05
0	298.15	0.0001937	3.87e-05
0	303.15	0.0002027	4.05e-05
0	308.15	0.0002102	4.2e-05
0	313.15	0.0002184	4.37e-05
0	318.15	0.0002265	4.53e-05
0	323.15	0.0002354	4.71e-05
0	328.15	0.0002473	4.95e-05
0.101	293.15	0.00215	0.00043
0.101	298.15	0.002185	0.000437
0.101	303.15	0.002237	0.000447
0.101	308.15	0.002273	0.000455
0.101	313.15	0.002316	0.000463
0.101	318.15	0.002354	0.000471
0.101	323.15	0.002401	0.00048
0.101	328.15	0.002473	0.000495
0.2	293.15	0.008628	0.001726
0.2	298.15	0.008722	0.001745
0.2	303.15	0.00889	0.001778
0.2	308.15	0.008995	0.001799
0.2	313.15	0.009124	0.001825
0.2	318.15	0.009234	0.001847
0.2	323.15	0.009377	0.001876
0.2	328.15	0.009236	0.001847
0.3018	293.15	0.01814	0.00363
0.3018	298.15	0.01845	0.00369
0.3018	303.15	0.01892	0.00378
0.3018	308.15	0.01962	0.00392
0.3018	313.15	0.02002	0.004
0.3018	318.15	0.02035	0.00407
0.3018	323.15	0.02114	0.00423
0.3018	328.15	0.02173	0.00435
0.4001	293.15	0.0235	0.0047
0.4001	298.15	0.02423	0.00485
0.4001	303.15	0.02518	0.00504
0.4001	308.15	0.02599	0.0052
0.4001	313.15	0.02687	0.00537
0.4001	318.15	0.02767	0.00553
0.4001	323.15	0.02859	0.00572
0.4001	328.15	0.02969	0.00594
0.499	293.15	0.02521	0.00504
0.499	298.15	0.02644	0.00529
0.499	303.15	0.02794	0.00559
0.499	308.15	0.02932	0.00586
0.499	313.15	0.03079	0.00616
0.499	318.15	0.03218	0.00644
0.499	323.15	0.03373	0.00675
0.499	328.15	0.03549	0.0071
0.6	293.15	0.02536	0.00507
0.6	298.15	0.0271	0.00542
0.6	303.15	0.0288	0.00576
0.6	308.15	0.03077	0.00615
0.6	313.15	0.0329	0.00658
0.6	318.15	0.03498	0.007
0.6	323.15	0.03692	0.00738
0.6	328.15	0.03905	0.00781
0.7013	293.15	0.02827	0.00565
0.7013	298.15	0.03102	0.0062
0.7013	303.15	0.03419	0.00684
0.7013	308.15	0.03773	0.00755
0.7013	313.15	0.04082	0.00816
0.7013	318.15	0.04413	0.00883
0.7013	323.15	0.04745	0.00949
0.7013	328.15	0.04916	0.00983
0.8001	293.15	0.03081	0.00616
0.8001	298.15	0.03532	0.00706
0.8001	303.15	0.03958	0.00792
0.8001	308.15	0.04374	0.00875
0.8001	313.15	0.04787	0.00957
0.8001	318.15	0.053	0.0106
0.8001	323.15	0.05848	0.0117
0.8001	328.15	0.06415	0.01283
0.8999	293.15	0.03394	0.00679
0.8999	298.15	0.03843	0.00769
0.8999	303.15	0.04363	0.00873
0.8999	308.15	0.04806	0.00961
0.8999	313.15	0.05337	0.01067
0.8999	318.15	0.05912	0.01182
0.8999	323.15	0.06575	0.01315
0.8999	328.15	0.08153	0.01631
1	293.15	0.03817	0.00763
1	298.15	0.04359	0.00872
1	303.15	0.05005	0.01001
1	308.15	0.05705	0.01141
1	313.15	0.06487	0.01297
1	318.15	0.073	0.0146
1	323.15	0.08231	0.01646
1	328.15	0.09229	0.01846

System: Gimeracil + water; phases: Liquid, Crystal
Fixed: Pressure, kPa = 101.2
Property: Mole fraction of Gimeracil (Liquid); method: Chromatography
Temperature, K	Mole fraction of Gimeracil	uncertainty
283.15	0.0001718	1.58e-05
288.15	0.0001781	1.64e-05
293.15	0.0001864	1.72e-05
298.15	0.0001937	1.78e-05
303.15	0.0002027	1.87e-05
308.15	0.0002102	1.93e-05
313.15	0.0002184	2.01e-05
318.15	0.0002265	2.08e-05
323.15	0.0002354	2.17e-05
328.15	0.0002473	2.28e-05

System: Gimeracil + propan-2-ol; phases: Liquid, Crystal
Fixed: Pressure, kPa = 101.2
Property: Mole fraction of Gimeracil (Liquid); method: Chromatography
Temperature, K	Mole fraction of Gimeracil	uncertainty
283.15	0.002418	0.000223
288.15	0.002882	0.000265
293.15	0.003427	0.000315
298.15	0.004076	0.000375
303.15	0.004791	0.000441
308.15	0.005543	0.00051
313.15	0.006472	0.000596
318.15	0.007497	0.00069
323.15	0.00858	0.00079
328.15	0.009872	0.000909

System: Gimeracil + dimethylformamide; phases: Liquid, Crystal
Fixed: Pressure, kPa = 101.2
Property: Mole fraction of Gimeracil (Liquid); method: Chromatography
Temperature, K	Mole fraction of Gimeracil	uncertainty
283.15	0.03151	0.0029
288.15	0.03624	0.00334
293.15	0.04233	0.0039
298.15	0.04838	0.00445
303.15	0.05488	0.00505
308.15	0.06264	0.00576
313.15	0.07072	0.00651
318.15	0.07997	0.00736
323.15	0.08969	0.00825
328.15	0.1014	0.0093

System: Gimeracil + 1,2-ethanediol; phases: Liquid, Crystal
Fixed: Pressure, kPa = 101.2
Property: Mole fraction of Gimeracil (Liquid); method: Chromatography
Temperature, K	Mole fraction of Gimeracil	uncertainty
283.15	0.003671	0.000338
288.15	0.00432	0.000398
293.15	0.005044	0.000464
298.15	0.005934	0.000546
303.15	0.006898	0.000635
308.15	0.007953	0.000732
313.15	0.009111	0.000838
318.15	0.01044	0.00096
323.15	0.0119	0.0011
328.15	0.0135	0.00124

System: Gimeracil + dimethyl sulfoxide; phases: Liquid, Crystal
Fixed: Pressure, kPa = 101.2
Property: Mole fraction of Gimeracil (Liquid); method: Chromatography
Temperature, K	Mole fraction of Gimeracil	uncertainty
293.15	0.03817	0.00351
298.15	0.04359	0.00401
303.15	0.05005	0.00461
308.15	0.05705	0.00525
313.15	0.06487	0.00597
318.15	0.073	0.00672
323.15	0.08231	0.00757
328.15	0.09229	0.00849
