Measured thermophysical data. Experimental measurements and correlation of isothermal vapor-liquid equilibria for HFC-32 + HFO-1234ze (E) and HFC-134a + HFO-1234ze (E) binary systems
Source: J. Chem. Thermodyn., 2019, 10.1016/j.jct.2019.04.020
Compound 1: trans-1,3,3,3-tetrafluoropropene, C3H2F4, InChI=1S/C3H2F4/c4-2-1-3(5,6)7/h1-2H/b2-1+
Compound 2: 1,1,1,2-tetrafluoroethane, C2H2F4, InChI=1S/C2H2F4/c3-1-2(4,5)6/h1H2
Compound 3: difluoromethane, CH2F2, InChI=1S/CH2F2/c2-1-3/h1H2

System: trans-1,3,3,3-tetrafluoropropene; phases: Liquid, Gas
Property: Vapor or sublimation pressure, kPa (Liquid); method: Closed cell (Static) method
Temperature, K	Vapor or sublimation pressure, kPa	uncertainty
293.15	427.4	5.1
303.15	577.6	5.1
313.15	765.3	5.2
323.14	997.8	5.3

System: 1,1,1,2-tetrafluoroethane; phases: Liquid, Gas
Property: Vapor or sublimation pressure, kPa (Liquid); method: Closed cell (Static) method
Temperature, K	Vapor or sublimation pressure, kPa	uncertainty
293.15	571.1	5.1
303.15	771.4	5.2
313.15	1018.1	5.3
323.14	1316.9	5.5

System: difluoromethane; phases: Liquid, Gas
Property: Vapor or sublimation pressure, kPa (Liquid); method: Closed cell (Static) method
Temperature, K	Vapor or sublimation pressure, kPa	uncertainty
293.15	1473.2	5.7
303.15	1926.7	6.1
313.15	2476.3	6.6
323.14	3142.2	7.2

System: difluoromethane + trans-1,3,3,3-tetrafluoropropene; phases: Liquid, Gas
Property: Vapor or sublimation pressure, kPa (Liquid); method: Closed cell (Static) method
Mole fraction of difluoromethane	Temperature, K	Vapor or sublimation pressure, kPa	uncertainty
0	293.15	427.4	5.2
0.132	293.15	579.4	5.4
0.224	293.15	682.6	5.5
0.336	293.15	808.3	5.7
0.503	293.15	965.6	6
0.674	293.15	1135	6.4
0.78	293.15	1241.8	6.6
0.833	293.15	1305.6	6.8
1	293.15	1473.2	7.2
0	303.15	577.6	5.4
0.133	303.15	761.4	5.7
0.222	303.15	887.6	5.9
0.335	303.15	1060.1	6.2
0.507	303.15	1283.4	6.7
0.677	303.15	1509.7	7.3
0.763	303.15	1609.8	7.5
0.825	303.15	1693.9	7.7
1	303.15	1926.7	8.4
0	313.15	765.3	5.7
0.133	313.15	984.4	6.1
0.223	313.15	1136.6	6.4
0.335	313.15	1354.6	6.9
0.504	313.15	1637.5	7.6
0.663	313.15	1907.5	8.3
0.764	313.15	2055	8.7
0.819	313.15	2159.9	9
1	313.15	2476.3	10
0	323.14	997.8	6.1
0.133	323.14	1262.2	6.7
0.223	323.14	1471.8	7.2
0.335	323.14	1696.3	7.7
0.504	323.14	2074.7	8.8
0.663	323.14	2389.1	9.7
0.764	323.14	2641.1	10.5
0.819	323.14	2758.6	10.8
1	323.14	3142.2	12.1

System: difluoromethane + trans-1,3,3,3-tetrafluoropropene; phases: Gas, Liquid
Property: Mole fraction of difluoromethane (Gas); method: Chromatography
Mole fraction of difluoromethane	Temperature, K	Mole fraction of difluoromethane	uncertainty
0	293.15	0	
0.132	293.15	0.331	0.024
0.224	293.15	0.474	0.017
0.336	293.15	0.589	0.014
0.503	293.15	0.727	0.013
0.674	293.15	0.846	0.012
0.78	293.15	0.887	0.011
0.833	293.15	0.916	0.011
1	293.15	1	
0	303.15	0	
0.133	303.15	0.306	0.023
0.222	303.15	0.447	0.016
0.335	303.15	0.556	0.014
0.507	303.15	0.715	0.013
0.677	303.15	0.832	0.012
0.763	303.15	0.877	0.011
0.825	303.15	0.907	0.011
1	303.15	1	
0	313.15	0	
0.133	313.15	0.284	0.022
0.223	313.15	0.422	0.016
0.335	313.15	0.534	0.015
0.504	313.15	0.706	0.013
0.663	313.15	0.806	0.012
0.764	313.15	0.858	0.012
0.819	313.15	0.89	0.012
1	313.15	1	
0	323.14	0	
0.133	323.14	0.263	0.021
0.223	323.14	0.397	0.017
0.335	323.14	0.527	0.015
0.504	323.14	0.684	0.013
0.663	323.14	0.806	0.013
0.764	323.14	0.875	0.012
0.819	323.14	0.904	0.011
1	323.14	1	

System: 1,1,1,2-tetrafluoroethane + trans-1,3,3,3-tetrafluoropropene; phases: Liquid, Gas
Property: Vapor or sublimation pressure, kPa (Liquid); method: Closed cell (Static) method
Mole fraction of 1,1,1,2-tetrafluoroethane	Temperature, K	Vapor or sublimation pressure, kPa	uncertainty
0	293.15	427.4	5.2
0.086	293.15	452.8	5.2
0.243	293.15	485.7	5.3
0.4	293.15	511.9	5.3
0.542	293.15	531.1	5.3
0.623	293.15	542.3	5.4
0.728	293.15	554.2	5.4
0.795	293.15	562.7	5.4
0.855	293.15	568.4	5.4
1	293.15	571.1	5.4
0	303.15	577.6	5.4
0.094	303.15	611.7	5.4
0.243	303.15	654	5.5
0.402	303.15	683.5	5.5
0.539	303.15	714.9	5.6
0.628	303.15	728.4	5.6
0.729	303.15	746.7	5.6
0.795	303.15	757.4	5.7
0.853	303.15	763.4	5.7
1	303.15	771.4	5.7
0	313.15	765.3	5.7
0.092	313.15	807.5	5.7
0.256	313.15	860.7	5.8
0.393	313.15	898.5	5.9
0.539	313.15	935.9	6
0.629	313.15	958.8	6
0.722	313.15	979.4	6.1
0.794	313.15	992.9	6.1
0.854	313.15	1002.4	6.1
1	313.15	1018.1	6.2
0	323.14	997.8	6.1
0.092	323.14	1036.9	6.2
0.256	323.14	1111.3	6.3
0.4	323.14	1159.2	6.4
0.536	323.14	1208.6	6.5
0.627	323.14	1233.4	6.6
0.722	323.14	1261.1	6.7
0.779	323.14	1280.9	6.7
0.851	323.14	1296.3	6.8
1	323.14	1316.9	6.8

System: 1,1,1,2-tetrafluoroethane + trans-1,3,3,3-tetrafluoropropene; phases: Gas, Liquid
Property: Mole fraction of 1,1,1,2-tetrafluoroethane (Gas); method: Chromatography
Mole fraction of 1,1,1,2-tetrafluoroethane	Temperature, K	Mole fraction of 1,1,1,2-tetrafluoroethane	uncertainty
0	293.15	0	
0.086	293.15	0.116	0.016
0.243	293.15	0.304	0.016
0.4	293.15	0.468	0.014
0.542	293.15	0.588	0.014
0.623	293.15	0.658	0.014
0.728	293.15	0.768	0.014
0.795	293.15	0.819	0.013
0.855	293.15	0.87	0.013
1	293.15	1	
0	303.15	0	
0.094	303.15	0.117	0.016
0.243	303.15	0.302	0.015
0.402	303.15	0.461	0.014
0.539	303.15	0.581	0.014
0.628	303.15	0.661	0.014
0.729	303.15	0.765	0.014
0.795	303.15	0.815	0.013
0.853	303.15	0.868	0.014
1	303.15	1	
0	313.15	0	
0.092	313.15	0.117	0.015
0.256	313.15	0.299	0.015
0.393	313.15	0.452	0.015
0.539	313.15	0.578	0.014
0.629	313.15	0.661	0.015
0.722	313.15	0.764	0.014
0.794	313.15	0.818	0.013
0.854	313.15	0.866	0.013
1	313.15	1	
0	323.14	0	
0.092	323.14	0.116	0.015
0.256	323.14	0.297	0.015
0.4	323.14	0.448	0.015
0.536	323.14	0.574	0.014
0.627	323.14	0.659	0.015
0.722	323.14	0.762	0.014
0.779	323.14	0.812	0.013
0.851	323.14	0.862	0.013
1	323.14	1	
