Measured thermophysical data. Experimental and predicted vapor-liquid equilibrium for binary systems with diethanolamine, m-cresol and p-cresol at 20.0 kPa
Source: J. Chem. Thermodyn., 2019, 10.1016/j.jct.2018.09.002
Compound 1: 3-methylphenol, C7H8O, InChI=1S/C7H8O/c1-6-3-2-4-7(8)5-6/h2-5,8H,1H3, purity 99%
Compound 2: 4-methylphenol, C7H8O, InChI=1S/C7H8O/c1-6-2-4-7(8)5-3-6/h2-5,8H,1H3, purity 99%
Compound 3: diethanolamine, C4H11NO2, InChI=1S/C4H11NO2/c6-3-1-5-2-4-7/h5-7H,1-4H2, purity 99%

System: 3-methylphenol; phases: Liquid, Gas
Property: Vapor or sublimation pressure, kPa (Liquid); method: Ebulliometric method (Recirculating still)
Temperature, K	Vapor or sublimation pressure, kPa	uncertainty
422.25	20	1.5

System: 4-methylphenol; phases: Liquid, Gas
Property: Normal boiling temperature, K (Liquid); method: Distillation
Normal boiling temperature, K	uncertainty
474.85	2.2

System: 4-methylphenol; phases: Liquid
Fixed: Pressure, kPa = 101.325
Property: Refractive index (Na D-line) (Liquid); method: Standard Abbe refractometry
Temperature, K	Refractive index (Na D-line)	uncertainty
303.15	1.5295	0.0005
308.15	1.5288	0.0005

System: 4-methylphenol; phases: Liquid, Gas
Property: Vapor or sublimation pressure, kPa (Liquid); method: Ebulliometric method (Recirculating still)
Temperature, K	Vapor or sublimation pressure, kPa	uncertainty
421.95	20	1.5

System: diethanolamine; phases: Liquid, Gas
Property: Normal boiling temperature, K (Liquid); method: Distillation
Normal boiling temperature, K	uncertainty
542.46	2.2

System: diethanolamine; phases: Liquid
Fixed: Pressure, kPa = 101.325
Property: Refractive index (Na D-line) (Liquid); method: Standard Abbe refractometry
Temperature, K	Refractive index (Na D-line)	uncertainty
298.15	1.4762	0.0005
303.15	1.4751	0.0005

System: diethanolamine; phases: Liquid, Gas
Property: Vapor or sublimation pressure, kPa (Liquid); method: Ebulliometric method (Recirculating still)
Temperature, K	Vapor or sublimation pressure, kPa	uncertainty
489.08	20	1.5

System: 4-methylphenol + diethanolamine; phases: Liquid, Gas
Fixed: Pressure, kPa = 20
Property: Boiling temperature at pressure P, K (Liquid); method: Ebulliometric method (Recirculating still)
Mole fraction of 4-methylphenol	Boiling temperature at pressure P, K	uncertainty
1	421.95	1.53
0.944	423.98	1.57
0.8514	427.05	1.57
0.789	429.15	1.57
0.7313	431.26	1.59
0.6743	434.06	1.61
0.5701	439.4	1.62
0.5117	442.74	1.64
0.4626	445.67	1.66
0.4027	449.6	1.68
0.3653	452.35	1.7
0.3124	456.33	1.74
0.2246	463.93	1.79
0.1321	473.12	1.9
0	489.08	1.53

System: 4-methylphenol + diethanolamine; phases: Gas, Liquid
Fixed: Pressure, kPa = 20
Property: Mole fraction of 4-methylphenol (Gas); method: Chromatography
Mole fraction of 4-methylphenol	Mole fraction of 4-methylphenol	uncertainty
1	1	
0.944	0.9976	0.0024
0.8514	0.9921	0.0079
0.789	0.9869	0.01
0.7313	0.9805	0.0101
0.6743	0.9721	0.0102
0.5701	0.9491	0.0103
0.5117	0.9309	0.0107
0.4626	0.911	0.0112
0.4027	0.879	0.0117
0.3653	0.8538	0.0127
0.3124	0.8108	0.0148
0.2246	0.7069	0.0193
0.1321	0.5227	0.034
0	0	

System: 3-methylphenol + diethanolamine; phases: Liquid, Gas
Fixed: Pressure, kPa = 20
Property: Boiling temperature at pressure P, K (Liquid); method: Ebulliometric method (Recirculating still)
Mole fraction of 3-methylphenol	Boiling temperature at pressure P, K	uncertainty
1	422.25	1.53
0.9661	423.38	1.56
0.847	427.11	1.57
0.7757	429.74	1.59
0.6847	433.81	1.6
0.5779	439.13	1.62
0.4998	443.5	1.64
0.4189	448.53	1.67
0.3494	453.57	1.7
0.3012	457.28	1.73
0.2634	460.49	1.75
0.2117	464.82	1.78
0.1505	470.81	1.84
0.1067	475.53	1.96
0	489.08	1.53

System: 3-methylphenol + diethanolamine; phases: Gas, Liquid
Fixed: Pressure, kPa = 20
Property: Mole fraction of 3-methylphenol (Gas); method: Chromatography
Mole fraction of 3-methylphenol	Mole fraction of 3-methylphenol	uncertainty
1	1	
0.9661	0.9986	0.0014
0.847	0.9917	0.0083
0.7757	0.9851	0.0101
0.6847	0.9731	0.0102
0.5779	0.9508	0.0103
0.4998	0.9256	0.0108
0.4189	0.8884	0.0115
0.3494	0.8425	0.0127
0.3012	0.7993	0.0142
0.2634	0.7584	0.0165
0.2117	0.6867	0.0199
0.1505	0.5709	0.0244
0.1067	0.4565	0.0404
0	0	
