Measured thermophysical data. Boiling point elevation of aqueous solutions of ionic liquids derived from diethanolamine base and carboxylic acids
Source: J. Chem. Thermodyn., 2016, 10.1016/j.jct.2016.02.017
Compound 1: 2,2'-azanediylbis(ethanol) acetate, C6H15NO4, InChI=1S/C4H11NO2.C2H4O2/c6-3-1-5-2-4-7;1-2(3)4/h5-7H,1-4H2;1H3,(H,3,4)
Compound 2: bis(2-hydroxyethyl)ammonium propanoate, C7H17NO4, InChI=1S/C4H11NO2.C3H6O2/c6-3-1-5-2-4-7;1-2-3(4)5/h5-7H,1-4H2;2H2,1H3,(H,4,5)
Compound 3: diethanolamine butyrate, C8H19NO4, InChI=1S/C4H11NO2.C4H8O2/c6-3-1-5-2-4-7;1-2-3-4(5)6/h5-7H,1-4H2;2-3H2,1H3,(H,5,6)
Compound 4: diethanolamine pentanoate, C9H21NO4, InChI=1S/C5H10O2.C4H11NO2/c1-2-3-4-5(6)7;6-3-1-5-2-4-7/h2-4H2,1H3,(H,6,7);5-7H,1-4H2
Compound 5: water, H2O, InChI=1S/H2O/h1H2

System: water; phases: Liquid, Gas
Property: Boiling temperature at pressure P, K (Liquid); method: Ebulliometric method (Recirculating still)
Pressure, kPa	Boiling temperature at pressure P, K	uncertainty
12.1	323.8	4
25.8	340.3	4
41.8	351.8	4
59.7	358.6	4
74.1	364.4	4
91.8	370.8	4

System: water + 2,2'-azanediylbis(ethanol) acetate; phases: Liquid, Gas
Property: Boiling temperature at pressure P, K (Liquid); method: Ebulliometric method (Recirculating still)
Pressure, kPa	Mole fraction of water	Boiling temperature at pressure P, K	uncertainty
12.1	0.3255	360.8	4
25.8	0.3255	378.4	4
41.8	0.3255	387.3	4
59.7	0.3255	397.8	4
74.1	0.3255	402.8	4
91.8	0.3255	406.7	4
12.1	0.5047	344.8	4
25.8	0.5047	363	4
41.8	0.5047	372.6	4
59.7	0.5047	383.2	4
74.1	0.5047	388.5	4
91.8	0.5047	393.2	4
12.1	0.618	340.6	4
25.8	0.618	356.8	4
41.8	0.618	367.1	4
59.7	0.618	373.4	4
74.1	0.618	381.4	4
91.8	0.618	389.9	4
12.1	0.7972	334.1	4
25.8	0.7972	348.1	4
41.8	0.7972	359.3	4
59.7	0.7972	367.9	4
74.1	0.7972	373.9	4
91.8	0.7972	380.8	4
12.1	0.8824	327.7	4
25.8	0.8824	344.6	4
41.8	0.8824	355.4	4
59.7	0.8824	363.2	4
74.1	0.8824	370.4	4
91.8	0.8824	376.9	4
12.1	0.9322	324.5	4
25.8	0.9322	341.1	4
41.8	0.9322	352.5	4
59.7	0.9322	359.9	4
74.1	0.9322	365.6	4
91.8	0.9322	372.5	4
12.1	1	323.8	4
25.8	1	340.3	4
41.8	1	351.8	4
59.7	1	358.6	4
74.1	1	364.4	4
91.8	1	370.8	4

System: water + bis(2-hydroxyethyl)ammonium propanoate; phases: Liquid, Gas
Property: Boiling temperature at pressure P, K (Liquid); method: Ebulliometric method (Recirculating still)
Pressure, kPa	Mole fraction of water	Boiling temperature at pressure P, K	uncertainty
12.1	0.3437	358.4	4
25.8	0.3437	378.1	4
41.8	0.3437	391.3	4
59.7	0.3437	397.5	4
74.1	0.3437	403.5	4
91.8	0.3437	410.2	4
12.1	0.525	342.6	4
25.8	0.525	359.8	4
41.8	0.525	371.4	4
59.7	0.525	380.8	4
74.1	0.525	387.6	4
91.8	0.525	393.4	4
12.1	0.6371	337.5	4
25.8	0.6371	354.6	4
41.8	0.6371	365.6	4
59.7	0.6371	375.4	4
74.1	0.6371	381.6	4
91.8	0.6371	387.3	4
12.1	0.81	329	4
25.8	0.81	345.7	4
41.8	0.81	355.7	4
59.7	0.81	364.1	4
74.1	0.81	371.3	4
91.8	0.81	376.2	4
12.1	0.8906	326.8	4
25.8	0.8906	342.5	4
41.8	0.8906	354	4
59.7	0.8906	361.6	4
74.1	0.8906	368.1	4
91.8	0.8906	373.8	4
12.1	0.9372	324.5	4
25.8	0.9372	341.3	4
41.8	0.9372	353.5	4
59.7	0.9372	361	4
74.1	0.9372	366.5	4
91.8	0.9372	371.4	4
12.1	1	323.8	4
25.8	1	340.3	4
41.8	1	351.8	4
59.7	1	358.6	4
74.1	1	364.4	4
91.8	1	370.8	4

System: water + diethanolamine butyrate; phases: Liquid, Gas
Property: Boiling temperature at pressure P, K (Liquid); method: Ebulliometric method (Recirculating still)
Pressure, kPa	Mole fraction of water	Boiling temperature at pressure P, K	uncertainty
12.1	0.3608	366.5	4
25.8	0.3608	379.4	4
41.8	0.3608	390.8	4
59.7	0.3608	398.7	4
74.1	0.3608	403.2	4
91.8	0.3608	408.6	4
12.1	0.5438	352.2	4
25.8	0.5438	364.5	4
41.8	0.5438	377.1	4
59.7	0.5438	386.1	4
74.1	0.5438	392.2	4
91.8	0.5438	398.2	4
12.1	0.6543	339.2	4
25.8	0.6543	356.8	4
41.8	0.6543	367.9	4
59.7	0.6543	377.6	4
74.1	0.6543	384.2	4
91.8	0.6543	390.2	4
12.1	0.8213	331.2	4
25.8	0.8213	347.5	4
41.8	0.8213	358.5	4
59.7	0.8213	364.5	4
74.1	0.8213	372.3	4
91.8	0.8213	378.6	4
12.1	0.8977	327.7	4
25.8	0.8977	343.6	4
41.8	0.8977	354.3	4
59.7	0.8977	362.5	4
74.1	0.8977	369	4
91.8	0.8977	374.8	4
12.1	0.9415	324.5	4
25.8	0.9415	340.9	4
41.8	0.9415	352.6	4
59.7	0.9415	359.8	4
74.1	0.9415	365.5	4
91.8	0.9415	371.8	4
12.1	1	323.8	4
25.8	1	340.3	4
41.8	1	351.8	4
59.7	1	358.6	4
74.1	1	364.4	4
91.8	1	370.8	4

System: water + diethanolamine pentanoate; phases: Liquid, Gas
Property: Boiling temperature at pressure P, K (Liquid); method: Ebulliometric method (Recirculating still)
Pressure, kPa	Mole fraction of water	Boiling temperature at pressure P, K	uncertainty
12.1	0.3772	352	4
25.8	0.3772	370	4
41.8	0.3772	381.9	4
59.7	0.3772	389.8	4
74.1	0.3772	396.4	4
91.8	0.3772	402.7	4
12.1	0.5611	335.5	4
25.8	0.5611	351.3	4
41.8	0.5611	362.9	4
59.7	0.5611	369.9	4
74.1	0.5611	375	4
91.8	0.5611	380.9	4.1
12.1	0.67	331.2	4
25.8	0.67	348.2	4
41.8	0.67	359.9	4
59.7	0.67	367.3	4
74.1	0.67	374.8	4
91.8	0.67	380.6	4
12.1	0.8314	326.3	4
25.8	0.8314	342.5	4
41.8	0.8314	354.9	4
59.7	0.8314	362.4	4
74.1	0.8314	368.1	4
91.8	0.8314	374.3	4
12.1	0.904	325.2	4
25.8	0.904	341.5	4
41.8	0.904	352.4	4
59.7	0.904	360.7	4
74.1	0.904	367.2	4
91.8	0.904	372.7	4
12.1	0.9452	324.8	4
25.8	0.9452	340.6	4
41.8	0.9452	351.9	4
59.7	0.9452	359.5	4
74.1	0.9452	366.1	4
91.8	0.9452	371.2	4
12.1	1	323.8	4
25.8	1	340.3	4
41.8	1	351.8	4
59.7	1	358.6	4
74.1	1	364.4	4
91.8	1	370.8	4
