Measured thermophysical data. Volumetric properties of aqueous solutions with citrate ions - Trilithium citrate and triammonium citrate
Source: J. Chem. Thermodyn., 2016, 10.1016/j.jct.2016.04.020
Compound 1: trilithium citrate, C6H5Li3O7, InChI=1S/C6H8O7.3Li/c7-3(8)1-6(13,5(11)12)2-4(9)10;;;/h13H,1-2H2,(H,7,8)(H,9,10)(H,11,12);;;/q;3*+1/p-3, purity 99.5%
Compound 2: ammonium 2-hydroxypropane-1,2,3-tricarboxylate, C6H17N3O7, InChI=1S/C6H8O7.3H3N/c7-3(8)1-6(13,5(11)12)2-4(9)10;;;/h13H,1-2H2,(H,7,8)(H,9,10)(H,11,12);3*1H3, purity 98%
Compound 3: water, H2O, InChI=1S/H2O/h1H2

System: trilithium citrate + water; phases: Liquid
Fixed: Pressure, kPa = 101.3
Property: Mass density, kg/m3 (Liquid); method: Vibrating tube method
Temperature, K	Molality, mol/kg of trilithium citrate	Mass density, kg/m3	uncertainty
278.15	0.0128	1002	0.25
278.15	0.0256	1003.88	0.25
278.15	0.06	1008.52	0.24
278.15	0.1021	1013.86	0.24
278.15	0.1956	1026.51	0.24
278.15	0.293	1038.92	0.24
278.15	0.3876	1050.53	0.24
278.15	0.4799	1061.45	0.24
278.15	0.6695	1083.25	0.24
278.15	0.7552	1092.43	0.24
278.15	0.8394	1101.64	0.24
278.15	0.9407	1112.23	0.24
278.15	1.3298	1149.11	0.24
278.15	1.7396	1185.46	0.25
283.15	0.0128	1001.66	0.25
283.15	0.0256	1003.48	0.24
283.15	0.06	1008.09	0.24
283.15	0.1021	1013.43	0.24
283.15	0.1956	1025.89	0.24
283.15	0.293	1038.19	0.24
283.15	0.3876	1049.67	0.24
283.15	0.4799	1060.48	0.24
283.15	0.6695	1082.11	0.24
283.15	0.7552	1091.22	0.24
283.15	0.8394	1100.37	0.24
283.15	0.9407	1110.89	0.24
283.15	1.3298	1147.56	0.24
283.15	1.7396	1183.73	0.25
288.15	0.0128	1001.03	0.25
288.15	0.0256	1002.83	0.24
288.15	0.06	1007.41	0.24
288.15	0.1021	1012.68	0.24
288.15	0.1956	1025.03	0.24
288.15	0.293	1037.23	0.24
288.15	0.3876	1048.63	0.24
288.15	0.4799	1059.37	0.24
288.15	0.6695	1080.85	0.24
288.15	0.7552	1089.92	0.24
288.15	0.8394	1099.01	0.24
288.15	0.9407	1109.48	0.24
288.15	1.3298	1145.98	0.24
288.15	1.7396	1182.04	0.25
293.15	0.0128	1000.13	0.25
293.15	0.0256	1001.93	0.24
293.15	0.06	1006.4	0.24
293.15	0.1021	1011.71	0.24
293.15	0.1956	1023.97	0.24
293.15	0.293	1036.06	0.24
293.15	0.3876	1047.42	0.24
293.15	0.4799	1058.1	0.24
293.15	0.6695	1079.46	0.24
293.15	0.7552	1088.49	0.24
293.15	0.8394	1097.55	0.24
293.15	0.9407	1107.97	0.24
293.15	1.3298	1144.34	0.24
293.15	1.7396	1180.29	0.25
298.15	0.0128	998.94	0.25
298.15	0.0256	1000.72	0.24
298.15	0.06	1005.21	0.24
298.15	0.1021	1010.53	0.24
298.15	0.1956	1022.63	0.24
298.15	0.293	1034.68	0.24
298.15	0.3876	1045.95	0.24
298.15	0.4799	1056.57	0.24
298.15	0.6695	1077.86	0.24
298.15	0.7552	1086.85	0.24
298.15	0.8394	1095.87	0.24
298.15	0.9407	1106.24	0.24
298.15	1.3298	1142.51	0.24
298.15	1.7396	1178.37	0.25
303.15	0.0128	997.54	0.25
303.15	0.0256	999.32	0.24
303.15	0.06	1003.8	0.24
303.15	0.1021	1008.95	0.24
303.15	0.1956	1021.12	0.24
303.15	0.293	1033.1	0.24
303.15	0.3876	1044.36	0.24
303.15	0.4799	1054.93	0.24
303.15	0.6695	1076.13	0.24
303.15	0.7552	1085.11	0.24
303.15	0.8394	1094.1	0.24
303.15	0.9407	1104.46	0.23
303.15	1.3298	1140.64	0.24
303.15	1.7396	1176.43	0.24
308.15	0.0128	995.93	0.25
308.15	0.0256	997.69	0.24
308.15	0.06	1002.15	0.24
308.15	0.1021	1007.28	0.24
308.15	0.1956	1019.42	0.24
308.15	0.293	1031.35	0.24
308.15	0.3876	1042.52	0.24
308.15	0.4799	1053.1	0.24
308.15	0.6695	1074.26	0.24
308.15	0.7552	1083.2	0.24
308.15	0.8394	1092.17	0.24
308.15	0.9407	1102.51	0.23
308.15	1.3298	1138.61	0.24
308.15	1.7396	1174.35	0.24
313.15	0.0128	994.08	0.25
313.15	0.0256	995.83	0.24
313.15	0.06	1000.28	0.24
313.15	0.1021	1005.41	0.24
313.15	0.1956	1017.49	0.24
313.15	0.293	1029.43	0.24
313.15	0.3876	1040.59	0.24
313.15	0.4799	1051.12	0.24
313.15	0.6695	1072.2	0.24
313.15	0.7552	1081.14	0.24
313.15	0.8394	1090.09	0.24
313.15	0.9407	1100.41	0.23
313.15	1.3298	1136.47	0.24
313.15	1.7396	1172.18	0.24
318.15	0.0128	992.05	0.25
318.15	0.0256	993.81	0.24
318.15	0.06	998.26	0.24
318.15	0.1021	1003.38	0.24
318.15	0.1956	1015.42	0.24
318.15	0.293	1027.35	0.24
318.15	0.3876	1038.47	0.24
318.15	0.4799	1048.98	0.24
318.15	0.6695	1070.04	0.24
318.15	0.7552	1078.96	0.24
318.15	0.8394	1087.9	0.24
318.15	0.9407	1098.21	0.23
318.15	1.3298	1134.23	0.24
318.15	1.7396	1169.9	0.24
323.15	0.0128	989.86	0.25
323.15	0.0256	991.58	0.24
323.15	0.06	996.08	0.24
323.15	0.1021	1001.19	0.24
323.15	0.1956	1013.22	0.24
323.15	0.293	1025.12	0.24
323.15	0.3876	1036.24	0.24
323.15	0.4799	1046.74	0.24
323.15	0.6695	1067.78	0.24
323.15	0.7552	1076.68	0.24
323.15	0.8394	1085.62	0.24
323.15	0.9407	1095.92	0.23
323.15	1.3298	1131.93	0.24
323.15	1.7396	1167.57	0.24
328.15	0.0128	987.52	0.25
328.15	0.0256	989.24	0.24
328.15	0.06	993.72	0.24
328.15	0.1021	998.82	0.24
328.15	0.1956	1010.84	0.24
328.15	0.293	1022.76	0.24
328.15	0.3876	1033.86	0.24
328.15	0.4799	1044.36	0.24
328.15	0.6695	1065.38	0.24
328.15	0.7552	1074.27	0.24
328.15	0.8394	1083.21	0.24
328.15	0.9407	1093.5	0.23
328.15	1.3298	1129.51	0.24
328.15	1.7396	1165.14	0.24
333.15	0.0128	985.04	0.24
333.15	0.0256	986.7	0.24
333.15	0.06	991.24	0.24
333.15	0.1021	996.31	0.24
333.15	0.1956	1008.42	0.24
333.15	0.293	1020.27	0.24
333.15	0.3876	1031.35	0.24
333.15	0.4799	1041.87	0.24
333.15	0.6695	1062.87	0.24
333.15	0.7552	1071.77	0.24
333.15	0.8394	1080.69	0.24
333.15	0.9407	1090.99	0.23
333.15	1.3298	1127.01	0.24
333.15	1.7396	1162.66	0.24
338.15	0.0128	982.43	0.24
338.15	0.0256	984.02	0.24
338.15	0.06	988.59	0.24
338.15	0.1021	993.66	0.24
338.15	0.1956	1005.8	0.24
338.15	0.293	1017.67	0.24
338.15	0.3876	1028.73	0.24
338.15	0.4799	1039.22	0.24
338.15	0.6695	1060.25	0.24
338.15	0.7552	1069.15	0.24
338.15	0.8394	1078.19	0.24
338.15	0.9407	1088.43	0.23
338.15	1.3298	1124.43	0.24
338.15	1.7396	1160.09	0.24
343.15	0.0128	979.51	0.24
343.15	0.0256	981.2	0.24
343.15	0.06	985.85	0.24
343.15	0.1021	990.99	0.24
343.15	0.1956	1002.94	0.24
343.15	0.293	1014.95	0.24
343.15	0.3876	1026.06	0.24
343.15	0.4799	1036.55	0.24
343.15	0.6695	1057.62	0.24
343.15	0.7552	1066.41	0.24
343.15	0.8394	1075.46	0.24
343.15	0.9407	1085.78	0.23
343.15	1.3298	1121.83	0.24
343.15	1.7396	1157.54	0.24

System: ammonium 2-hydroxypropane-1,2,3-tricarboxylate + water; phases: Liquid
Fixed: Pressure, kPa = 101.3
Property: Mass density, kg/m3 (Liquid); method: Vibrating tube method
Temperature, K	Molality, mol/kg of ammonium 2-hydroxypropane-1,2,3-tricarboxylate	Mass density, kg/m3	uncertainty
283.15	0.0125	1001.9	0.24
283.15	0.025	1003.43	0.23
283.15	0.04999	1006.27	0.23
283.15	0.09998	1011.68	0.23
283.15	0.14995	1017.03	0.23
283.15	0.19996	1022.12	0.23
287.15	0.0125	1001.25	0.24
287.15	0.025	1002.76	0.23
287.15	0.04999	1005.56	0.23
287.15	0.09998	1010.91	0.23
287.15	0.14995	1016.2	0.23
287.15	0.19996	1021.24	0.23
293.15	0.0125	1000.32	0.24
293.15	0.025	1001.83	0.23
293.15	0.04999	1004.59	0.23
293.15	0.09998	1009.9	0.23
293.15	0.14995	1015.14	0.23
293.15	0.19996	1020.13	0.23
298.15	0.0125	999.12	0.24
298.15	0.025	1000.6	0.23
298.15	0.04999	1003.33	0.23
298.15	0.09998	1008.6	0.23
298.15	0.14995	1013.82	0.23
298.15	0.19996	1018.77	0.23
303.15	0.0125	997.71	0.24
303.15	0.025	999.18	0.23
303.15	0.04999	1001.88	0.23
303.15	0.09998	1007.13	0.23
303.15	0.14995	1012.32	0.23
303.15	0.19996	1017.26	0.23
308.15	0.0125	996.07	0.24
308.15	0.025	997.53	0.23
308.15	0.04999	1000.22	0.23
308.15	0.09998	1005.44	0.23
308.15	0.14995	1010.62	0.23
308.15	0.19996	1015.55	0.23
313.15	0.0125	994.23	0.24
313.15	0.025	995.69	0.23
313.15	0.04999	998.32	0.23
313.15	0.09998	1003.56	0.23
313.15	0.14995	1008.75	0.23
313.15	0.19996	1013.67	0.23
318.15	0.0125	992.21	0.24
318.15	0.025	993.66	0.23
318.15	0.04999	996.29	0.23
318.15	0.09998	1001.54	0.23
318.15	0.14995	1006.7	0.23
318.15	0.19996	1011.63	0.23
323.15	0.0125	990.03	0.24
323.15	0.025	991.47	0.23
323.15	0.04999	994.08	0.23
323.15	0.09998	999.34	0.23
323.15	0.14995	1004.49	0.23
323.15	0.19996	1009.46	0.23
328.15	0.0125	987.68	0.24
328.15	0.025	989.12	0.23
328.15	0.04999	991.7	0.23
328.15	0.09998	996.99	0.23
328.15	0.14995	1002.14	0.23
328.15	0.19996	1007.11	0.23
333.15	0.0125	985.17	0.24
333.15	0.025	986.62	0.23
333.15	0.04999	989.15	0.23
333.15	0.09998	994.46	0.23
333.15	0.14995	999.65	0.23
333.15	0.19996	1004.59	0.23
