Measured thermophysical data. Densities and dielectric permittivities for (carbon monoxide + carbon dioxide) mixtures determined with a microwave re-entrant cavity resonator
Source: J. Chem. Thermodyn., 2019, 10.1016/j.jct.2018.09.010
Compound 1: carbon dioxide, CO2, InChI=1S/CO2/c2-1-3, purity 99.995%
Compound 2: carbon monoxide, CO, InChI=1S/CO/c1-2, purity 99.997%

System: carbon monoxide + carbon dioxide; phases: Gas
Fixed: Frequency, MHz = 385
Property: Relative permittivity at various frequencies (Gas); method: Reentrant cavity resonator
Mole fraction of carbon monoxide	Temperature, K	Pressure, kPa	Relative permittivity at various frequencies	uncertainty
0.7493	255.062	2026.5	1.01747	0.07481
0.7493	255.055	5990.8	1.05742	0.07629
0.7493	255.058	7992.1	1.08067	0.07715
0.7493	255.052	5999.5	1.05751	0.07629
0.7493	255.045	3976.6	1.03607	0.0755
0.7493	255.044	1972.8	1.01697	0.07479
0.7493	273.15	2016.4	1.01594	0.07475
0.7493	273.148	4009	1.033	0.07539
0.7493	273.145	5997.2	1.05136	0.07607
0.7493	273.15	7991.2	1.07098	0.07679
0.7493	273.147	5997.2	1.05135	0.07607
0.7493	273.142	3995.6	1.03288	0.07538
0.7493	273.145	1964	1.01551	0.07474
0.7493	293.239	2023.8	1.01472	0.07471
0.7493	293.23	4015.8	1.0301	0.07528
0.7493	293.225	6015	1.04638	0.07588
0.7493	293.232	8001.1	1.0633	0.07651
0.7493	293.23	6011.2	1.04635	0.07588
0.7493	293.23	3995.9	1.02993	0.07527
0.7493	293.232	1980.8	1.0144	0.0747
0.7493	313.279	2022.8	1.01367	0.07467
0.7493	313.285	6015.3	1.04237	0.07573
0.7493	313.279	7996.5	1.05736	0.07629
0.7493	313.277	5954.9	1.04192	0.07572
0.7493	313.279	3992.7	1.02755	0.07518
0.7493	313.28	1974.2	1.01333	0.07466
0.4959	255.062	1511.8	1.01451	0.0747
0.4959	255.059	3003.3	1.03118	0.07532
0.4959	255.058	4001.7	1.04416	0.0758
0.4959	255.054	3004.5	1.03119	0.07532
0.4959	255.056	1479.4	1.01417	0.07469
0.4959	273.204	5505.6	1.05746	0.07629
0.4959	273.204	4502	1.0448	0.07582
0.4959	273.207	3471.2	1.03299	0.07539
0.4959	273.205	2480.8	1.02261	0.075
0.4959	273.203	1454.1	1.01273	0.07463
0.4959	293.254	2039.7	1.0167	0.07478
0.4959	293.254	4025.1	1.03504	0.07546
0.4959	293.259	6541.1	1.06185	0.07646
0.4959	293.254	5986	1.05557	0.07622
0.4959	293.254	3988.8	1.03469	0.07545
0.4959	293.256	1975.2	1.01614	0.07476
0.4959	313.265	2024.1	1.0153	0.07473
0.4959	313.268	4013.4	1.03178	0.07534
0.4959	313.265	6218.2	1.0519	0.07609
0.4959	313.263	5954.7	1.04939	0.07599
0.4959	313.265	1937.1	1.01462	0.0747

System: carbon monoxide + carbon dioxide; phases: Gas
Property: Amount density, mol/m3 (Gas); method: Derived from relative permittivity
Mole fraction of carbon monoxide	Temperature, K	Pressure, kPa	Amount density, mol/m3	uncertainty
0.7493	255.062	2026.5	1003.5	4.7
0.7493	255.055	5990.8	3234.3	14.9
0.7493	255.058	7992.1	4497.3	20.7
0.7493	255.052	5999.5	3239.1	14.9
0.7493	255.045	3976.6	2052.7	9.5
0.7493	255.044	1972.8	975.4	4.5
0.7493	273.15	2016.4	919.2	4.3
0.7493	273.148	4009	1886.5	9.1
0.7493	273.145	5997.2	2910.4	13.5
0.7493	273.15	7991.2	3987.5	18.4
0.7493	273.147	5997.2	2910	13.5
0.7493	273.142	3995.6	1879.6	9
0.7493	273.145	1964	894.5	4.2
0.7493	293.239	2023.8	851.6	4
0.7493	293.23	4015.8	1727.8	8
0.7493	293.225	6015	2642.7	12.2
0.7493	293.232	8001.1	3579.5	16.5
0.7493	293.23	6011.2	2640.6	12.2
0.7493	293.23	3995.9	1718.6	7.9
0.7493	293.232	1980.8	832.9	3.9
0.7493	313.279	2022.8	792.8	3.7
0.7493	313.285	6015.3	2425.2	11.2
0.7493	313.279	7996.5	3261.5	15
0.7493	313.277	5954.9	2399.8	11.1
0.7493	313.279	3992.7	1587.4	7.3
0.7493	313.28	1974.2	773.5	3.6
0.4959	255.062	1511.8	761.6	4.1
0.4959	255.059	3003.3	1619.8	8.6
0.4959	255.058	4001.7	2276.9	12.1
0.4959	255.054	3004.5	1620.4	8.6
0.4959	255.056	1479.4	744.2	4
0.4959	273.204	5505.6	2950.6	15.7
0.4959	273.204	4502	2315.9	12.3
0.4959	273.207	3471.2	1716.2	9.1
0.4959	273.205	2480.8	1183.6	6.3
0.4959	273.203	1454.1	670.3	3.6
0.4959	293.254	2039.7	878.9	4.7
0.4959	293.254	4025.1	1825.7	9.7
0.4959	293.259	6541.1	3178.8	16.9
0.4959	293.254	5986	2864.7	15.2
0.4959	293.254	3988.8	1807.3	9.6
0.4959	293.256	1975.2	849.7	4.5
0.4959	313.265	2024.1	807.4	4.3
0.4959	313.268	4013.4	1662.1	8.8
0.4959	313.265	6218.2	2687.1	14.3
0.4959	313.263	5954.7	2560.4	13.6
0.4959	313.265	1937.1	771.6	4.1
