Measured thermophysical data. Solubility determination and thermodynamic functions of 2-chlorophenothiazine in nine organic solvents from T = 283.15 K to T = 318.15 K and mixing properties of solutions
Source: J. Chem. Thermodyn., 2017, 10.1016/j.jct.2016.11.029
Compound 1: 2-chlorophenothiazine, C12H8ClNS, InChI=1S/C12H8ClNS/c13-8-5-6-12-10(7-8)14-9-3-1-2-4-11(9)15-12/h1-7,14H, purity 98.3%
Compound 2: methanol, CH4O, InChI=1S/CH4O/c1-2/h2H,1H3
Compound 3: ethanol, C2H6O, InChI=1S/C2H6O/c1-2-3/h3H,2H2,1H3
Compound 4: propan-1-ol, C3H8O, InChI=1S/C3H8O/c1-2-3-4/h4H,2-3H2,1H3
Compound 5: propan-2-ol, C3H8O, InChI=1S/C3H8O/c1-3(2)4/h3-4H,1-2H3
Compound 6: ethyl acetate, C4H8O2, InChI=1S/C4H8O2/c1-3-6-4(2)5/h3H2,1-2H3
Compound 7: acetone, C3H6O, InChI=1S/C3H6O/c1-3(2)4/h1-2H3
Compound 8: acetonitrile, C2H3N, InChI=1S/C2H3N/c1-2-3/h1H3
Compound 9: butan-1-ol, C4H10O, InChI=1S/C4H10O/c1-2-3-4-5/h5H,2-4H2,1H3
Compound 10: butanone, C4H8O, InChI=1S/C4H8O/c1-3-4(2)5/h3H2,1-2H3

System: 2-chlorophenothiazine; phases: Crystal, Liquid, Air at 1 atmosphere
Property: Normal melting temperature, K (Crystal); method: DTA
Normal melting temperature, K	uncertainty
472.95	1.06

System: 2-chlorophenothiazine; phases: Crystal, Liquid, Air at 1 atmosphere
Property: Molar enthalpy of transition or fusion, kJ/mol (Crystal); method: DSC
Molar enthalpy of transition or fusion, kJ/mol	uncertainty
21.59	0.92

System: methanol + 2-chlorophenothiazine; phases: Liquid, Crystal
Fixed: Pressure, kPa = 101.1
Property: Mole fraction of 2-chlorophenothiazine (Liquid); method: Chromatography
Temperature, K	Mole fraction of 2-chlorophenothiazine	uncertainty
283.15	0.004648	0.000242
285.65	0.004832	0.000251
288.15	0.005016	0.000261
290.65	0.005248	0.000273
293.15	0.005451	0.000284
295.65	0.005697	0.000297
298.15	0.005942	0.000309
300.65	0.006198	0.000323
303.15	0.006469	0.000337
305.65	0.006732	0.00035
308.15	0.007006	0.000365
310.65	0.007283	0.000379
313.15	0.007581	0.000395
315.65	0.007862	0.000409
318.15	0.008189	0.000426

System: ethanol + 2-chlorophenothiazine; phases: Liquid, Crystal
Fixed: Pressure, kPa = 101.1
Property: Mole fraction of 2-chlorophenothiazine (Liquid); method: Chromatography
Temperature, K	Mole fraction of 2-chlorophenothiazine	uncertainty
283.15	0.00431	0.000224
285.65	0.00446	0.000232
288.15	0.00465	0.000242
290.65	0.00486	0.000253
293.15	0.00505	0.000263
295.65	0.00525	0.000273
298.15	0.00546	0.000284
300.65	0.00569	0.000296
303.15	0.00592	0.000308
305.65	0.00617	0.000321
308.15	0.00641	0.000334
310.65	0.00667	0.000347
313.15	0.00695	0.000362
315.65	0.00723	0.000376
318.15	0.00756	0.000393

System: acetonitrile + 2-chlorophenothiazine; phases: Liquid, Crystal
Fixed: Pressure, kPa = 101.1
Property: Mole fraction of 2-chlorophenothiazine (Liquid); method: Chromatography
Temperature, K	Mole fraction of 2-chlorophenothiazine	uncertainty
283.15	0.003541	0.000184
285.65	0.003778	0.000197
288.15	0.004064	0.000212
290.65	0.004354	0.000227
293.15	0.004666	0.000243
295.65	0.004977	0.000259
298.15	0.005321	0.000277
300.65	0.005639	0.000294
303.15	0.006003	0.000312
305.65	0.006331	0.00033
308.15	0.006717	0.00035
310.65	0.0071	0.00037
313.15	0.007555	0.000393
315.65	0.007953	0.000414
318.15	0.008368	0.000436

System: propan-1-ol + 2-chlorophenothiazine; phases: Liquid, Crystal
Fixed: Pressure, kPa = 101.1
Property: Mole fraction of 2-chlorophenothiazine (Liquid); method: Chromatography
Temperature, K	Mole fraction of 2-chlorophenothiazine	uncertainty
283.15	0.0041	0.000213
285.65	0.004255	0.000221
288.15	0.004457	0.000232
290.65	0.004664	0.000243
293.15	0.00487	0.000253
295.65	0.005085	0.000265
298.15	0.005303	0.000276
300.65	0.00552	0.000287
303.15	0.005753	0.000299
305.65	0.006005	0.000313
308.15	0.006222	0.000324
310.65	0.006489	0.000338
313.15	0.006776	0.000353
315.65	0.00705	0.000367
318.15	0.007365	0.000383

System: propan-2-ol + 2-chlorophenothiazine; phases: Liquid, Crystal
Fixed: Pressure, kPa = 101.1
Property: Mole fraction of 2-chlorophenothiazine (Liquid); method: Chromatography
Temperature, K	Mole fraction of 2-chlorophenothiazine	uncertainty
283.15	0.003799	0.000198
285.65	0.003972	0.000207
288.15	0.00415	0.000216
290.65	0.004332	0.000225
293.15	0.004538	0.000236
295.65	0.004726	0.000246
298.15	0.004933	0.000257
300.65	0.005129	0.000267
303.15	0.005358	0.000279
305.65	0.00556	0.000289
308.15	0.005801	0.000302
310.65	0.006052	0.000315
313.15	0.0063	0.000328
315.65	0.006572	0.000342
318.15	0.00687	0.000358

System: acetone + 2-chlorophenothiazine; phases: Liquid, Crystal
Fixed: Pressure, kPa = 101.1
Property: Mole fraction of 2-chlorophenothiazine (Liquid); method: Chromatography
Temperature, K	Mole fraction of 2-chlorophenothiazine	uncertainty
283.15	0.02677	0.00139
285.65	0.02814	0.00146
288.15	0.03001	0.00156
290.65	0.03172	0.00165
293.15	0.03364	0.00175
295.65	0.03557	0.00185
298.15	0.03779	0.00197
300.65	0.03986	0.00207
303.15	0.04209	0.00219
305.65	0.04428	0.0023
308.15	0.04695	0.00244
310.65	0.04929	0.00257
313.15	0.05183	0.0027
315.65	0.05436	0.00283
318.15	0.05753	0.00299

System: 2-chlorophenothiazine + ethyl acetate; phases: Liquid, Crystal
Fixed: Pressure, kPa = 101.1
Property: Mole fraction of 2-chlorophenothiazine (Liquid); method: Chromatography
Temperature, K	Mole fraction of 2-chlorophenothiazine	uncertainty
283.15	0.01563	0.00081
285.65	0.01734	0.0009
288.15	0.01942	0.00101
290.65	0.02159	0.00112
293.15	0.02396	0.00125
295.65	0.02653	0.00138
298.15	0.02914	0.00152
300.65	0.03228	0.00168
303.15	0.03571	0.00186
305.65	0.0397	0.00207
308.15	0.04351	0.00227
310.65	0.04837	0.00252
313.15	0.05278	0.00275
315.65	0.05755	0.003
318.15	0.06249	0.00325

System: butan-1-ol + 2-chlorophenothiazine; phases: Liquid, Crystal
Fixed: Pressure, kPa = 101.1
Property: Mole fraction of 2-chlorophenothiazine (Liquid); method: Chromatography
Temperature, K	Mole fraction of 2-chlorophenothiazine	uncertainty
283.15	0.003277	0.000171
285.65	0.003439	0.000179
288.15	0.003609	0.000188
290.65	0.003809	0.000198
293.15	0.004009	0.000209
295.65	0.004217	0.000219
298.15	0.004447	0.000231
300.65	0.004681	0.000244
303.15	0.004922	0.000256
305.65	0.005181	0.00027
308.15	0.005428	0.000283
310.65	0.005701	0.000297
313.15	0.005964	0.00031
315.65	0.006243	0.000325
318.15	0.006529	0.00034

System: butanone + 2-chlorophenothiazine; phases: Liquid, Crystal
Fixed: Pressure, kPa = 101.1
Property: Mole fraction of 2-chlorophenothiazine (Liquid); method: Chromatography
Temperature, K	Mole fraction of 2-chlorophenothiazine	uncertainty
283.15	0.03372	0.00176
285.65	0.03559	0.00185
288.15	0.03777	0.00197
290.65	0.04016	0.00209
293.15	0.04265	0.00222
295.65	0.04553	0.00237
298.15	0.04838	0.00252
300.65	0.05128	0.00267
303.15	0.05459	0.00284
305.65	0.05785	0.00301
308.15	0.06115	0.00318
310.65	0.06461	0.00336
313.15	0.06826	0.00355
315.65	0.07265	0.00378
318.15	0.07713	0.00401
