Measured thermophysical data. Measurement and thermodynamic functions of solid-liquid phase equilibrium of D-(-)-quinic acid in H2O, methanol, ethanol and (H2O + methanol), (H2O + ethanol) binary solvent mixtures
Source: J. Chem. Thermodyn., 2016, 10.1016/j.jct.2016.04.002
Compound 1: (1S,3R,4S,5R)-1,3,4,5-tetrahydroxycyclohexane-1-carboxylic acid, C7H12O6, InChI=1S/C7H12O6/c8-3-1-7(13,6(11)12)2-4(9)5(3)10/h3-5,8-10,13H,1-2H2,(H,11,12)/t3-,4-,5-,7+/m1/s1, purity 98%
Compound 2: methanol, CH4O, InChI=1S/CH4O/c1-2/h2H,1H3, purity 99.5%
Compound 3: ethanol, C2H6O, InChI=1S/C2H6O/c1-2-3/h3H,2H2,1H3, purity 99.7%
Compound 4: water, H2O, InChI=1S/H2O/h1H2, purity 99%

System: (1S,3R,4S,5R)-1,3,4,5-tetrahydroxycyclohexane-1-carboxylic acid; phases: Crystal, Liquid, Air at 1 atmosphere
Property: Normal melting temperature, K (Crystal); method: DTA
Normal melting temperature, K	uncertainty
440.16	1.06

System: (1S,3R,4S,5R)-1,3,4,5-tetrahydroxycyclohexane-1-carboxylic acid; phases: Crystal, Liquid, Air at 1 atmosphere
Property: Molar enthalpy of transition or fusion, kJ/mol (Crystal); method: DSC
Molar enthalpy of transition or fusion, kJ/mol	uncertainty
50.54	2.24

System: methanol + (1S,3R,4S,5R)-1,3,4,5-tetrahydroxycyclohexane-1-carboxylic acid + water; phases: Liquid, Crystal
Fixed: Pressure, kPa = 101.3
Property: Mole fraction of (1S,3R,4S,5R)-1,3,4,5-tetrahydroxycyclohexane-1-carboxylic acid (Liquid); method: Chromatography
Solvent: Mass fraction of methanol	Temperature, K	Mole fraction of (1S,3R,4S,5R)-1,3,4,5-tetrahydroxycyclohexane-1-carboxylic acid	uncertainty
0	293.25	0.04026	0.00403
0	298.05	0.04506	0.00451
0	302.75	0.04995	0.005
0	307.65	0.05426	0.00543
0	313.25	0.06098	0.0061
0	317.65	0.0672	0.00672
0	322.15	0.07277	0.00728
0	328.25	0.08157	0.00816
0	332.45	0.08853	0.00886
0	337.55	0.09705	0.00971
0	342.45	0.1061	0.01062
0	347.35	0.11557	0.01156
1	293.15	0.00487	0.00049
1	297.25	0.00548	0.00055
1	300.45	0.00592	0.00059
1	303.05	0.00638	0.00064
1	306.15	0.00695	0.0007
1	309.15	0.00763	0.00076
1	312.35	0.00825	0.00083
1	315.75	0.00906	0.00091
1	318.65	0.00972	0.00097
1	321.75	0.01062	0.00106
1	325.35	0.0117	0.00117
1	328.15	0.01261	0.00126
0.165	293.25	0.03447	0.00345
0.165	297.05	0.0384	0.00384
0.165	300.55	0.04225	0.00423
0.165	303.55	0.04569	0.00457
0.165	306.55	0.04928	0.00493
0.165	309.55	0.05307	0.00531
0.165	312.45	0.0571	0.00571
0.165	315.35	0.06154	0.00616
0.165	318.75	0.06706	0.00671
0.165	322.45	0.07334	0.00734
0.165	325.25	0.07817	0.00782
0.165	328.15	0.08368	0.00837
0.345	293.05	0.02911	0.00291
0.345	297.05	0.03312	0.00332
0.345	300.15	0.03647	0.00365
0.345	303.05	0.03987	0.00399
0.345	306.35	0.04408	0.00441
0.345	309.45	0.04826	0.00483
0.345	312.35	0.05262	0.00527
0.345	315.15	0.05685	0.00569
0.345	318.35	0.06113	0.00612
0.345	321.15	0.06594	0.0066
0.345	324.55	0.07161	0.00717
0.345	328.05	0.07777	0.00778
0.543	293.15	0.02135	0.00214
0.543	297.25	0.0254	0.00254
0.543	300.05	0.02843	0.00285
0.543	303.75	0.032	0.0032
0.543	306.35	0.03507	0.00351
0.543	309.55	0.03828	0.00383
0.543	312.35	0.04187	0.00419
0.543	315.05	0.04547	0.00455
0.543	318.15	0.04967	0.00497
0.543	321.35	0.0548	0.00549
0.543	324.75	0.0605	0.00606
0.543	327.95	0.06546	0.00655
0.76	293.55	0.01395	0.0014
0.76	297.15	0.01563	0.00157
0.76	300.35	0.01754	0.00176
0.76	302.95	0.0195	0.00195
0.76	306.75	0.02184	0.00219
0.76	309.15	0.0236	0.00237
0.76	311.85	0.02568	0.00257
0.76	315.25	0.02838	0.00284
0.76	318.35	0.03162	0.00317
0.76	321.25	0.03475	0.00348
0.76	325.15	0.03888	0.0039
0.76	327.95	0.04256	0.00426

System: ethanol + (1S,3R,4S,5R)-1,3,4,5-tetrahydroxycyclohexane-1-carboxylic acid + water; phases: Liquid, Crystal
Fixed: Pressure, kPa = 101.3
Property: Mole fraction of (1S,3R,4S,5R)-1,3,4,5-tetrahydroxycyclohexane-1-carboxylic acid (Liquid); method: Chromatography
Solvent: Mass fraction of ethanol	Temperature, K	Mole fraction of (1S,3R,4S,5R)-1,3,4,5-tetrahydroxycyclohexane-1-carboxylic acid	uncertainty
0	293.25	0.04026	0.00403
0	298.05	0.04506	0.00451
0	302.75	0.04995	0.005
0	307.65	0.05426	0.00543
0	313.25	0.06098	0.0061
0	317.65	0.0672	0.00672
0	322.15	0.07277	0.00728
0	328.25	0.08157	0.00816
0	332.45	0.08853	0.00886
0	337.55	0.09705	0.00971
0	342.45	0.1061	0.01061
0	347.35	0.11557	0.01156
1	294.85	0.00147	0.00015
1	299.75	0.00153	0.00015
1	304.75	0.002	0.0002
1	307.05	0.00229	0.00023
1	311.65	0.0027	0.00027
1	317.35	0.00328	0.00033
1	322.15	0.00391	0.00039
1	327.75	0.00477	0.00048
1	333.75	0.00599	0.0006
1	337.25	0.00713	0.00071
1	343.15	0.00853	0.00085
0.208	293.55	0.0348	0.00348
0.208	295.05	0.0356	0.00356
0.208	300.25	0.04183	0.00419
0.208	306.55	0.04961	0.00496
0.208	311.25	0.05597	0.0056
0.208	316.95	0.06422	0.00643
0.208	323.05	0.07383	0.00739
0.208	328.05	0.08197	0.0082
0.208	333.35	0.09141	0.00915
0.208	338.45	0.10191	0.0102
0.208	343.55	0.11305	0.01131
0.208	348.05	0.1226	0.01226
0.441	294.05	0.02698	0.0027
0.441	297.95	0.03064	0.00307
0.441	302.25	0.03458	0.00346
0.441	307.75	0.04191	0.0042
0.441	312.55	0.04873	0.00488
0.441	317.35	0.05473	0.00548
0.441	321.65	0.06173	0.00618
0.441	326.45	0.06709	0.00671
0.441	331.45	0.07614	0.00762
0.441	336.75	0.08631	0.00864
0.441	342.45	0.09288	0.00929
0.441	347.35	0.10044	0.01005
0.703	295.45	0.01534	0.00154
0.703	300.75	0.01813	0.00182
0.703	306.05	0.02194	0.0022
0.703	311.45	0.02563	0.00257
0.703	315.95	0.02955	0.00296
0.703	321.65	0.0341	0.00342
0.703	326.85	0.03899	0.00391
0.703	331.45	0.04462	0.00447
0.703	336.15	0.0507	0.00508
0.703	340.05	0.05724	0.00573
0.703	342.85	0.06118	0.00613
0.938	298.05	0.00263	0.00027
0.938	303.05	0.00356	0.00036
0.938	308.25	0.00441	0.00045
0.938	313.15	0.00568	0.00059
0.938	317.75	0.00668	0.00069
0.938	322.55	0.00781	0.00081
0.938	328.15	0.00931	0.00096
0.938	333.15	0.01092	0.00113
0.938	338.45	0.01274	0.00132
0.938	343.25	0.01413	0.00146

System: (1S,3R,4S,5R)-1,3,4,5-tetrahydroxycyclohexane-1-carboxylic acid + water; phases: Liquid, Crystal
Fixed: Pressure, kPa = 101.3
Property: Mole fraction of (1S,3R,4S,5R)-1,3,4,5-tetrahydroxycyclohexane-1-carboxylic acid (Liquid); method: Chromatography
Temperature, K	Mole fraction of (1S,3R,4S,5R)-1,3,4,5-tetrahydroxycyclohexane-1-carboxylic acid	uncertainty
293.25	0.04026	0.00403
298.05	0.04506	0.00451
302.75	0.04995	0.005
307.65	0.05426	0.00543
313.25	0.06098	0.0061
317.65	0.0672	0.00672
322.15	0.07277	0.00728
328.25	0.08157	0.00816
332.45	0.08853	0.00886
337.55	0.09705	0.00971
342.45	0.1061	0.01061
347.35	0.11557	0.01156

System: methanol + (1S,3R,4S,5R)-1,3,4,5-tetrahydroxycyclohexane-1-carboxylic acid; phases: Liquid, Crystal
Fixed: Pressure, kPa = 101.3
Property: Mole fraction of (1S,3R,4S,5R)-1,3,4,5-tetrahydroxycyclohexane-1-carboxylic acid (Liquid); method: Chromatography
Temperature, K	Mole fraction of (1S,3R,4S,5R)-1,3,4,5-tetrahydroxycyclohexane-1-carboxylic acid	uncertainty
293.15	0.00487	0.00049
297.25	0.00548	0.00055
300.45	0.00592	0.00059
303.05	0.00638	0.00064
306.15	0.00695	0.0007
309.15	0.00763	0.00076
312.35	0.00825	0.00083
315.75	0.00906	0.00091
318.65	0.00972	0.00097
321.75	0.01062	0.00106
325.35	0.0117	0.00117
328.15	0.01261	0.00126

System: ethanol + (1S,3R,4S,5R)-1,3,4,5-tetrahydroxycyclohexane-1-carboxylic acid; phases: Liquid, Crystal
Fixed: Pressure, kPa = 101.3
Property: Mole fraction of (1S,3R,4S,5R)-1,3,4,5-tetrahydroxycyclohexane-1-carboxylic acid (Liquid); method: Chromatography
Temperature, K	Mole fraction of (1S,3R,4S,5R)-1,3,4,5-tetrahydroxycyclohexane-1-carboxylic acid	uncertainty
294.85	0.00147	0.00015
299.75	0.00153	0.00015
304.75	0.002	0.0002
307.05	0.00229	0.00023
311.65	0.0027	0.00027
317.35	0.00328	0.00033
322.15	0.00391	0.00039
327.75	0.00477	0.00048
333.75	0.00599	0.0006
337.25	0.00713	0.00071
343.15	0.00853	0.00085
