Measured thermophysical data. Crystal structures and thermodynamic properties of lanthanide complexes with 2-chloro-4,5-difluorobenzoate and 1,10-phenanthroline
Source: J. Chem. Thermodyn., 2013, 10.1016/j.jct.2012.06.032
Compound 1: di(o-phenanthrolinoneodynium (III)) hexa(2-chloro-4,5-difluorobenzoate) dihydrate, C66H30Cl6F12N4Nd2O14, InChI=1S/2C12H8N2.6C7H3ClF2O2.2Nd.2H2O/c2*1-3-9-5-6-10-4-2-8-14-12(10)11(9)13-7-1;6*8-4-2-6(10)5(9)1-3(4)7(11)12;;;;/h2*1-8H;6*1-2H,(H,11,12);;;2*1H2/q;;;;;;;;2*+4;;/p-8, purity 98%
Compound 2: di(o-phenanthrolinoeuropium (III)) hexa(2-chloro-4,5-difluorobenzoate), C66H28Cl6Eu2F12N4O12, InChI=1S/2C12H8N2.6C7H3ClF2O2.2Eu/c2*1-3-9-5-6-10-4-2-8-14-12(10)11(9)13-7-1;6*8-4-2-6(10)5(9)1-3(4)7(11)12;;/h2*1-8H;6*1-2H,(H,11,12);;/q;;;;;;;;2*+3/p-6, purity 98%
Compound 3: di(o-phenanthrolinoholmium (III)) hexa(2-chloro-4,5-difluorobenzoate), C66H28Cl6F12Ho2N4O12, InChI=1S/2C12H8N2.6C7H3ClF2O2.2Ho/c2*1-3-9-5-6-10-4-2-8-14-12(10)11(9)13-7-1;6*8-4-2-6(10)5(9)1-3(4)7(11)12;;/h2*1-8H;6*1-2H,(H,11,12);;/q;;;;;;;;2*+4/p-6, purity 98%

System: di(o-phenanthrolinoneodynium (III)) hexa(2-chloro-4,5-difluorobenzoate) dihydrate; phases: Crystal
Fixed: Pressure, kPa = 101.325
Property: Molar heat capacity at constant pressure, J/K/mol (Crystal); method: Small sample (50 mg) DSC
Temperature, K	Molar heat capacity at constant pressure, J/K/mol	uncertainty
258.15	1103.107	19.106
261.41	1117.752	19.36
264.67	1132.527	19.616
267.93	1146.512	19.858
271.19	1161.396	20.116
274.45	1174.841	20.349
277.71	1188.398	20.584
280.97	1203.799	20.85
284.23	1219.01	21.11
287.49	1234.848	21.388
290.75	1250.072	21.652
294.01	1265.94	21.93
297.27	1281.283	22.192
300.53	1297.332	22.47
303.79	1312.849	22.739
307.05	1328.045	23.002
310.31	1343.021	23.262
313.57	1358.186	23.524
316.83	1374.202	23.802
320.09	1390.654	24.087
323.35	1406.199	24.356
326.61	1422.877	24.645
329.87	1439.987	24.941
333.13	1455.788	25.215
336.39	1468.377	25.433
339.65	1477.752	25.595
342.91	1485.388	25.728
346.17	1493.743	25.872
349.43	1502.718	26.028
352.69	1510.944	26.17
355.95	1517.994	26.292
359.21	1526.082	26.433
362.47	1534.049	26.571
365.73	1543.773	26.739
368.99	1552.054	26.882
372.25	1560.192	27.023
375.51	1569.2	27.2
378.77	1579.481	27.357
382.03	1588.737	27.518
385.29	1598.846	27.693
388.55	1609.093	27.87
391.81	1618.478	28.033
395.07	1628.334	28.204
398.33	1641.891	28.438
401.59	1652.022	28.614
404.85	1662.822	28.801
408.11	1672.598	28.97
411.37	1683.484	29.159
414.63	1693.281	29.328
417.89	1703.849	29.512
421.15	1713.341	29.676
424.41	1724.11	29.86
427.67	1733.266	30.021
430.93	1743.283	30.195
434.19	1752.418	30.353
437.45	1759.708	30.479
440.71	1768.063	30.624
443.97	1774.788	30.74
447.23	1781.076	30.849
450.49	1786.402	30.941
453.75	1793.246	31.06
457.01	1801.983	31.211
460.27	1809.903	31.348
463.53	1818.215	31.492
466.79	1828.23	31.67
470.05	1839.063	31.854
473.31	1850.533	32.052
476.57	1865.185	32.306
479.83	1879.238	32.549
483.09	1892.639	32.781
486.35	1910.904	33.098
489.61	1930.117	33.431
492.87	1950.434	33.783
493.15	1952.219	33.813

System: di(o-phenanthrolinoneodynium (III)) hexa(2-chloro-4,5-difluorobenzoate) dihydrate; phases: Crystal
Fixed: Pressure, kPa = 101.325
Property: Molar heat capacity at constant pressure, J/K/mol (Crystal); method: Small sample (50 mg) DSC
Temperature, K	Molar heat capacity at constant pressure, J/K/mol	uncertainty
258.15	1119.19	19.38
268.15	1142.32	19.79
278.15	1185.39	20.53
288.15	1237.25	21.43
298.15	1290.57	22.35
308.15	1341.01	23.23
318.15	1386.54	24.02
328.15	1426.71	24.71
338.15	1462.17	25.33
348.15	1494.1	25.9
358.15	1523.9	26.4
368.15	1552.86	26.9
378.15	1581.93	27.4
388.15	1611.62	27.91
398.15	1641.94	28.44
408.15	1672.49	28.97
418.15	1702.54	29.49
428.15	1731.29	29.99
438.15	1758.2	30.5
448.15	1783.34	30.89
458.15	1807.92	31.31
468.15	1834.86	31.78
478.15	1869.41	32.38
488.15	1919.99	33.26

System: di(o-phenanthrolinoneodynium (III)) hexa(2-chloro-4,5-difluorobenzoate) dihydrate; phases: Crystal
Fixed: Pressure, kPa = 101.325
Property: Molar enthalpy, kJ/mol (Crystal); method: Small sample (50 mg) DSC
Temperature, K	Molar enthalpy, kJ/mol	uncertainty
258.15	-47.674	0.826
268.15	-36.389	0.63
278.15	-24.762	0.429
288.15	-12.653	0.219
298.15	0.013	0.003
308.15	13.175	0.228
318.15	26.817	0.464
328.15	40.888	0.708
338.15	55.336	0.958
348.15	70.12	1.21
358.15	85.211	1.476
368.15	100.595	1.742
378.15	116.269	2.014
388.15	132.236	2.29
398.15	148.504	2.572
408.15	165.076	2.859
418.15	181.952	3.152
428.15	199.123	3.449
438.15	216.572	3.751
448.15	234.281	4.058
458.15	252.237	4.369
468.15	270.447	4.684
478.15	288.96	5
488.15	307.889	5.333

System: di(o-phenanthrolinoneodynium (III)) hexa(2-chloro-4,5-difluorobenzoate) dihydrate; phases: Crystal
Fixed: Pressure, kPa = 101.325
Property: Molar entropy, J/K/mol (Crystal); method: Small sample (50 mg) DSC
Temperature, K	Molar entropy, J/K/mol	uncertainty
258.15	-171.38	4.45
268.15	-128.49	3.34
278.15	-85.93	2.23
288.15	-43.16	1.12
298.15	0.04	0.01
308.15	43.46	1.13
318.15	87.02	2.26
328.15	130.56	3.39
338.15	173.93	4.52
348.15	217.02	5.64
358.15	259.75	6.75
368.15	302.11	7.85
378.15	344.12	8.94
388.15	385.79	10.02
398.15	427.17	11.1
408.15	468.28	12.17
418.15	509.12	13.23
428.15	549.7	14.3
438.15	589.99	15.33
448.15	629.95	16.37
458.15	669.57	17.4
468.15	708.89	18.42
478.15	748.02	19.43
488.15	787.19	20.45

System: di(o-phenanthrolinoeuropium (III)) hexa(2-chloro-4,5-difluorobenzoate); phases: Crystal
Fixed: Pressure, kPa = 101.325
Property: Molar heat capacity at constant pressure, J/K/mol (Crystal); method: Small sample (50 mg) DSC
Temperature, K	Molar heat capacity at constant pressure, J/K/mol	uncertainty
258.15	1532.131	26.537
261.41	1542.68	26.72
264.67	1553.247	26.903
267.93	1565.601	27.117
271.19	1578.483	27.34
274.45	1591.837	27.571
277.71	1605.257	27.804
280.97	1620.268	28.064
284.23	1635.556	28.329
287.49	1651.225	28.6
290.75	1667.145	28.876
294.01	1683.226	29.154
297.27	1698.587	29.42
300.53	1713.905	29.686
303.79	1728.465	29.938
307.05	1741.81	30.17
310.31	1754.983	30.397
313.57	1768.158	30.625
316.83	1780.772	30.844
320.09	1792.611	31.049
323.35	1804.155	31.249
326.61	1815.021	31.437
329.87	1825.274	31.615
333.13	1836.693	31.812
336.39	1848.046	32.009
339.65	1857.304	32.169
342.91	1865.347	32.309
346.17	1873.236	32.445
349.43	1880.343	32.568
352.69	1886.185	32.67
355.95	1891.124	32.755
359.21	1895.135	32.825
362.47	1899.733	32.904
365.73	1905.37	33
368.99	1905.887	33.011
372.25	1914.933	33.168
375.51	1924.388	33.331
378.77	1933.849	33.495
382.03	1940.592	33.612
385.29	1948.14	33.74
388.55	1955.757	33.875
391.81	1962.887	33.998
395.07	1971.172	34.142
398.33	1977.066	34.244
401.59	1988.885	34.448
404.85	1993.839	34.534
408.11	2001.61	34.67
411.37	2010.291	34.819
414.63	2020.06	34.99
417.89	2029.488	35.152
421.15	2036.434	35.272
424.41	2042.826	35.383
427.67	2052.169	35.545
430.93	2060.098	35.682
434.19	2069.395	35.843
437.45	2077.623	35.985
440.71	2085.941	36.13
443.97	2093.742	36.265
447.23	2103.103	36.427
450.49	2110.89	36.56
453.75	2121.496	36.745
457.01	2130.204	36.896
460.27	2137.697	37.026
463.53	2147.627	37.198
466.79	2155.896	37.341
470.05	2166.775	37.53
473.31	2176.426	37.697
476.57	2186.809	37.877
479.83	2194.61	38.01
483.09	2204.186	38.178
486.35	2213.997	38.348
489.61	2224.183	38.524
492.87	2233.191	38.68
493.15	2233.962	38.693

System: di(o-phenanthrolinoeuropium (III)) hexa(2-chloro-4,5-difluorobenzoate); phases: Crystal
Fixed: Pressure, kPa = 101.325
Property: Molar heat capacity at constant pressure, J/K/mol (Crystal); method: Small sample (50 mg) DSC
Temperature, K	Molar heat capacity at constant pressure, J/K/mol	uncertainty
258.15	1536.91	26.62
268.15	1564.5	27.1
278.15	1606.85	27.83
288.15	1655.09	28.67
298.15	1703.31	29.5
308.15	1747.92	30.27
318.15	1787.15	30.95
328.15	1820.58	31.53
338.15	1848.74	32.02
348.15	1872.74	32.44
358.15	1893.98	32.8
368.15	1913.88	33.15
378.15	1933.73	33.49
388.15	1954.49	33.85
398.15	1976.78	34.24
408.15	2000.79	34.65
418.15	2026.36	35.1
428.15	2053.03	35.56
438.15	2080.18	36.03
448.15	2107.23	36.5
458.15	2133.9	37
468.15	2160.49	37.42
478.15	2188.24	37.9
488.15	2219.77	38.45

System: di(o-phenanthrolinoeuropium (III)) hexa(2-chloro-4,5-difluorobenzoate); phases: Crystal
Fixed: Pressure, kPa = 101.325
Property: Molar enthalpy, kJ/mol (Crystal); method: Small sample (50 mg) DSC
Temperature, K	Molar enthalpy, kJ/mol	uncertainty
258.15	-64.457	1.116
268.15	-48.966	0.848
278.15	-33.118	0.574
288.15	-16.811	0.291
298.15	0.017	0.003
308.15	17.277	0.299
318.15	34.958	0.606
328.15	53.001	0.918
338.15	71.352	1.236
348.15	89.962	1.558
358.15	108.798	1.884
368.15	127.838	2.214
378.15	147.076	2.547
388.15	166.516	2.884
398.15	186.171	3.225
408.15	206.057	3.569
418.15	226.192	3.918
428.15	246.588	4.271
438.15	267.254	4.629
448.15	288.192	4.992
458.15	309.398	5.359
468.15	330.87	5.73
478.15	352.612	6.107
488.15	374.647	6.489

System: di(o-phenanthrolinoeuropium (III)) hexa(2-chloro-4,5-difluorobenzoate); phases: Crystal
Fixed: Pressure, kPa = 101.325
Property: Molar entropy, J/K/mol (Crystal); method: Small sample (50 mg) DSC
Temperature, K	Molar entropy, J/K/mol	uncertainty
258.15	-231.83	6.02
268.15	-172.96	4.49
278.15	-114.94	2.99
288.15	-57.35	1.49
298.15	0.06	0.01
308.15	56.99	1.48
318.15	113.45	2.95
328.15	169.29	4.4
338.15	224.38	5.83
348.15	278.61	7.24
358.15	331.95	8.62
368.15	384.38	9.99
378.15	435.93	11.33
388.15	486.67	12.64
398.15	536.67	13.94
408.15	586	15
418.15	634.73	16.49
428.15	682.93	17.74
438.15	730.65	18.98
448.15	777.89	20.21
458.15	824.69	21.43
468.15	871.05	22.63
478.15	917	24
488.15	962.61	25.01

System: di(o-phenanthrolinoholmium (III)) hexa(2-chloro-4,5-difluorobenzoate); phases: Crystal
Fixed: Pressure, kPa = 101.325
Property: Molar heat capacity at constant pressure, J/K/mol (Crystal); method: Small sample (50 mg) DSC
Temperature, K	Molar heat capacity at constant pressure, J/K/mol	uncertainty
258.15	1174.729	20.347
261.41	1191.987	20.646
264.67	1209.525	20.95
267.93	1226.711	21.247
271.19	1243.406	21.536
274.45	1260.361	21.83
277.71	1277.879	22.134
280.97	1296.597	22.458
284.23	1315.197	22.78
287.49	1334.328	23.111
290.75	1355.212	23.473
294.01	1376.505	23.842
297.27	1397.683	24.209
300.53	1419.752	24.591
303.79	1440.731	24.954
307.05	1462.071	25.324
310.31	1482.816	25.683
313.57	1502.178	26.018
316.83	1521.609	26.355
320.09	1541.381	26.698
323.35	1560.165	27.023
326.61	1576.768	27.31
329.87	1593.005	27.592
333.13	1606.696	27.829
336.39	1620.196	28.063
339.65	1631.769	28.263
342.91	1642.514	28.449
346.17	1655.548	28.675
349.43	1666.034	28.857
352.69	1675.152	29.014
355.95	1684.2	29.2
359.21	1692.714	29.319
362.47	1701.639	29.473
365.73	1711.948	29.652
368.99	1721.156	29.811
372.25	1731.163	29.985
375.51	1742.831	30.187
378.77	1755.032	30.398
382.03	1767.349	30.611
385.29	1780.751	30.844
388.55	1794.692	31.085
391.81	1807.823	31.312
395.07	1821.817	31.555
398.33	1837.05	31.82
401.59	1852.087	32.079
404.85	1866.115	32.322
408.11	1881.882	32.595
411.37	1896.687	32.852
414.63	1912.67	33.13
417.89	1928.637	33.405
421.15	1944.938	33.687
424.41	1959.974	33.948
427.67	1976.059	34.226
430.93	1993.188	34.523
434.19	2007.812	34.776
437.45	2025.332	35.08
440.71	2042.968	35.385
443.97	2061.347	35.704
447.23	2080.002	36.027
450.49	2098.792	36.352
453.75	2118.6	36.7
457.01	2139.135	37.051
460.27	2158.647	37.389
463.53	2177.173	37.71
466.79	2197.668	38.065
470.05	2218.144	38.419
473.31	2237.443	38.754
476.57	2255.675	39.069
479.83	2273.705	39.382
483.09	2291.746	39.694
486.35	2307.723	39.971
489.61	2323.569	40.245
492.87	2338.293	40.5
493.15	2339.463	40.521

System: di(o-phenanthrolinoholmium (III)) hexa(2-chloro-4,5-difluorobenzoate); phases: Crystal
Fixed: Pressure, kPa = 101.325
Property: Molar heat capacity at constant pressure, J/K/mol (Crystal); method: Small sample (50 mg) DSC
Temperature, K	Molar heat capacity at constant pressure, J/K/mol	uncertainty
258.15	1188.87	20.59
268.15	1221.74	21.16
278.15	1276.94	22.12
288.15	1342.19	23.25
298.15	1409.06	24.41
308.15	1472.28	25.5
318.15	1529.06	26.48
328.15	1578.54	27.34
338.15	1621.22	28.08
348.15	1658.54	28.73
358.15	1692.42	29.31
368.15	1725	30
378.15	1758.28	30.45
388.15	1793.98	31.07
398.15	1833.34	31.75
408.15	1877.02	32.51
418.15	1925.14	33.34
428.15	1977.25	34.25
438.15	2032.45	35.2
448.15	2089.56	36.19
458.15	2147.32	37.19
468.15	2204.7	38.2
478.15	2261.25	39.17
488.15	2317.46	40.14

System: di(o-phenanthrolinoholmium (III)) hexa(2-chloro-4,5-difluorobenzoate); phases: Crystal
Fixed: Pressure, kPa = 101.325
Property: Molar enthalpy, kJ/mol (Crystal); method: Small sample (50 mg) DSC
Temperature, K	Molar enthalpy, kJ/mol	uncertainty
258.15	-51.37	0.89
268.15	-39.343	0.681
278.15	-26.862	0.465
288.15	-13.771	0.239
298.15	0.014	0.003
308.15	14.426	0.25
318.15	29.439	0.51
328.15	44.983	0.779
338.15	60.987	1.056
348.15	77.39	1.34
358.15	94.147	1.631
368.15	111.234	1.927
378.15	128.649	2.228
388.15	146.408	2.536
398.15	164.542	2.85
408.15	183.09	3.17
418.15	202.097	3.5
428.15	221.607	3.838
438.15	241.653	4.186
448.15	262.263	4.543
458.15	283.447	4.909
468.15	305.208	5.286
478.15	327.539	5.673
488.15	350.433	6.07

System: di(o-phenanthrolinoholmium (III)) hexa(2-chloro-4,5-difluorobenzoate); phases: Crystal
Fixed: Pressure, kPa = 101.325
Property: Molar entropy, J/K/mol (Crystal); method: Small sample (50 mg) DSC
Temperature, K	Molar entropy, J/K/mol	uncertainty
258.15	-184.61	4.8
268.15	-138.9	3.6
278.15	-93.21	2.42
288.15	-46.97	1.22
298.15	0.05	0.01
308.15	47.58	1.24
318.15	95.52	2.48
328.15	143.63	3.73
338.15	191.66	4.98
348.15	239.47	6.22
358.15	286.92	7.45
368.15	333.97	8.68
378.15	380.64	9.89
388.15	426.99	11.09
398.15	473.11	12.29
408.15	519.12	13.49
418.15	565.13	14.68
428.15	611.23	15.88
438.15	657.51	17.08
448.15	704.02	18.29
458.15	750.77	19.51
468.15	797.75	20.73
478.15	844.94	21.95
488.15	892.33	23.18
