Measured thermophysical data. Excess properties and vapour pressure of 2-diethylaminoethylamine + cyclohexane
Source: J. Chem. Thermodyn., 2013, 10.1016/j.jct.2012.07.005
Compound 1: N,N-diethylethane-1,2-diamine, C6H16N2, InChI=1S/C6H16N2/c1-3-8(4-2)6-5-7/h3-7H2,1-2H3, purity 99%
Compound 2: cyclohexane, C6H12, InChI=1S/C6H12/c1-2-4-6-5-3-1/h1-6H2, purity 99%

System: N,N-diethylethane-1,2-diamine; phases: Liquid, Gas
Property: Vapor or sublimation pressure, kPa (Liquid); method: Closed cell (Static) method
Temperature, K	Vapor or sublimation pressure, kPa	uncertainty
273.15	0.129	0.002
283.15	0.269	0.003
293.15	0.528	0.006
298.15	0.725	0.008
303.15	0.983	0.01
313.15	1.741	0.015
323.15	2.957	0.022
333.15	4.833	0.034
343.15	7.634	0.052
353.15	11.696	0.077
363.15	17.429	0.113

System: cyclohexane; phases: Liquid, Gas
Property: Vapor or sublimation pressure, kPa (Liquid); method: Closed cell (Static) method
Temperature, K	Vapor or sublimation pressure, kPa	uncertainty
273.15	3.726	0.028
283.15	6.352	0.044
293.15	10.361	0.069
298.15	13.037	0.087
303.15	16.257	0.108
313.15	24.646	0.161
323.15	36.241	0.234
333.15	51.853	0.333
343.15	72.395	0.463
353.15	98.868	0.631
363.15	132.352	0.839

System: N,N-diethylethane-1,2-diamine + cyclohexane; phases: Liquid
Fixed: Pressure, kPa = 101
Fixed: Temperature, K = 303.15
Property: Excess molar enthalpy (molar enthalpy of mixing), kJ/mol (Liquid); method: Calvet calorimetry
Mole fraction of N,N-diethylethane-1,2-diamine	Excess molar enthalpy (molar enthalpy of mixing), kJ/mol	uncertainty
0.1053	0.488	0.02
0.2026	0.77	0.031
0.2548	0.867	0.035
0.3243	0.952	0.039
0.3621	0.974	0.04
0.4196	0.988	0.04

System: N,N-diethylethane-1,2-diamine + cyclohexane; phases: Liquid, Gas
Property: Vapor or sublimation pressure, kPa (Liquid); method: Closed cell (Static) method
Temperature, K	Mole fraction of N,N-diethylethane-1,2-diamine	Vapor or sublimation pressure, kPa	uncertainty
273.15	0.1222	3.3769	0.0333
273.15	0.2567	3.073	0.0312
273.15	0.3985	2.73	0.0289
273.15	0.541	2.3192	0.0262
273.15	0.6788	1.7957	0.0229
273.15	0.8001	1.2769	0.0223
273.15	0.8994	0.778	0.0145
283.15	0.1222	5.7551	0.049
283.15	0.2567	5.2244	0.0453
283.15	0.3985	4.6154	0.0411
283.15	0.541	3.9027	0.0362
283.15	0.6788	3.0115	0.0303
283.15	0.8001	2.147	0.0249
283.15	0.8994	1.3263	0.0202
293.15	0.1222	9.3884	0.0738
293.15	0.2567	8.5057	0.0675
293.15	0.3985	7.4797	0.0604
293.15	0.541	6.3023	0.0523
293.15	0.6788	4.8545	0.0424
293.15	0.8001	3.4756	0.0334
293.15	0.8994	2.1811	0.0253
298.15	0.1222	11.8155	0.0912
298.15	0.2567	10.6957	0.0833
298.15	0.3985	9.3866	0.074
298.15	0.541	7.8978	0.0636
298.15	0.6788	6.0811	0.0511
298.15	0.8001	4.3653	0.0395
298.15	0.8994	2.7626	0.0292
303.15	0.1222	14.7359	0.1124
303.15	0.2567	13.3293	0.1024
303.15	0.3985	11.6764	0.0906
303.15	0.541	9.8125	0.0775
303.15	0.6788	7.5547	0.0616
303.15	0.8001	5.4388	0.0471
303.15	0.8994	3.4724	0.0341
313.15	0.1222	22.3519	0.1655
313.15	0.2567	20.1927	0.15
313.15	0.3985	17.6323	0.1319
313.15	0.541	14.7896	0.1119
313.15	0.6788	11.393	0.0882
313.15	0.8001	8.2557	0.0666
313.15	0.8994	5.3683	0.047
323.15	0.1222	32.8876	0.2395
323.15	0.2567	29.6809	0.2167
323.15	0.3985	25.8485	0.1896
323.15	0.541	21.6533	0.1601
323.15	0.6788	16.7034	0.1255
323.15	0.8001	12.1921	0.0943
323.15	0.8994	8.0809	0.0662
333.15	0.1222	47.0897	0.3392
333.15	0.2567	42.4652	0.3064
333.15	0.3985	36.9006	0.2672
333.15	0.541	30.887	0.225
333.15	0.6788	23.8748	0.1761
333.15	0.8001	17.5638	0.1323
333.15	0.8994	11.8722	0.0932
343.15	0.1222	65.7967	0.4703
343.15	0.2567	59.2997	0.4244
343.15	0.3985	51.4351	0.3691
343.15	0.541	43.0362	0.3103
343.15	0.6788	33.351	0.2428
343.15	0.8001	24.7385	0.1831
343.15	0.8994	17.0596	0.1302
353.15	0.1222	89.9324	0.6393
353.15	0.2567	81.0163	0.5764
353.15	0.3985	70.1656	0.5003
353.15	0.541	58.705	0.4202
353.15	0.6788	45.6288	0.3291
353.15	0.8001	34.1368	0.2495
353.15	0.8994	24.0204	0.1797
363.15	0.1222	120.497	0.8503
363.15	0.2567	108.5164	0.7662
363.15	0.3985	93.8667	0.6643
363.15	0.541	78.5522	0.5573
363.15	0.6788	61.2564	0.4378
363.15	0.8001	46.232	0.3336
363.15	0.8994	33.196	0.2447
