Measured thermophysical data. The partial molar volumes at T = (288.15 to 313.15) K, and the partial molar heat capacities and expansions at T = 298.15 K of cytidine, uridine, and adenosine in aqueous solution
Source: J. Chem. Thermodyn., 2008, 10.1016/j.jct.2008.01.020
Compound 1: .beta.-adenosine, C10H13N5O4, InChI=1S/C10H13N5O4/c11-8-5-9(13-2-12-8)15(3-14-5)10-7(18)6(17)4(1-16)19-10/h2-4,6-7,10,16-18H,1H2,(H2,11,12,13)/t4-,6-,7-,10-/m1/s1
Compound 2: uridine, C9H12N2O6, InChI=1S/C9H12N2O6/c12-3-4-6(14)7(15)8(17-4)11-2-1-5(13)10-9(11)16/h1-2,4,6-8,12,14-15H,3H2,(H,10,13,16)/t4-,6?,7?,8-/m1/s1
Compound 3: cytidine, C9H13N3O5, InChI=1S/C9H13N3O5/c10-5-1-2-12(9(16)11-5)8-7(15)6(14)4(3-13)17-8/h1-2,4,6-8,13-15H,3H2,(H2,10,11,16)/t4-,6?,7?,8-/m1/s1, purity 99%
Compound 4: water, H2O, InChI=1S/H2O/h1H2

System: .beta.-adenosine + water; phases: Liquid
Fixed: Temperature, K = 298.15
Fixed: Pressure, kPa = 101
Property: Apparent molar heat capacity, J/K/mol (Liquid); method: Flow calorimetry
Molality, mol/kg of .beta.-adenosine	Apparent molar heat capacity, J/K/mol	uncertainty
0.01599	483.2	49.3
0.01704	488	46.3
0.01799	487.4	43.9
0.01899	491.7	41.6
0.01941	486.7	40.7
0.01999	489.8	39.6
0.02098	488.4	37.8
0.02171	489.9	36.5
0.02196	487.5	36.1

System: .beta.-adenosine + water; phases: Liquid
Fixed: Pressure, kPa = 101
Property: Mass density, kg/m3 (Liquid); method: VIBTUB:UFactor:4
Temperature, K	Molality, mol/kg of .beta.-adenosine	Mass density, kg/m3	uncertainty
288.15	0.01329	1000.402	0.137
288.15	0.01395	1000.468	0.137
288.15	0.01492	1000.561	0.137
288.15	0.01614	1000.682	0.137
288.15	0.01712	1000.774	0.138
288.15	0.01799	1000.857	0.138
288.15	0.01882	1000.936	0.138
288.15	0.01892	1000.951	0.138
288.15	0.01942	1000.997	0.138
298.15	0.01501	998.486	0.139
298.15	0.01599	998.58	0.139
298.15	0.01704	998.686	0.139
298.15	0.01799	998.767	0.139
298.15	0.01899	998.864	0.139
298.15	0.01941	998.902	0.139
298.15	0.01999	998.965	0.138
298.15	0.02098	999.055	0.138
298.15	0.02171	999.129	0.138
298.15	0.02196	999.151	0.138
303.15	0.01329	996.913	0.142
303.15	0.01395	996.975	0.142
303.15	0.01501	997.076	0.141
303.15	0.01546	997.117	0.141
303.15	0.01614	997.185	0.141
303.15	0.01712	997.271	0.141
303.15	0.01799	997.354	0.141
303.15	0.01892	997.445	0.141
303.15	0.01903	997.455	0.141
303.15	0.01942	997.495	0.141
313.15	0.01297	993.43	0.147
313.15	0.01346	993.47	0.147
313.15	0.01395	993.522	0.147
313.15	0.01501	993.616	0.147
313.15	0.01598	993.707	0.147
313.15	0.017	993.802	0.147
313.15	0.01799	993.896	0.147
313.15	0.01882	993.976	0.146
313.15	0.01997	994.077	0.146

System: uridine + water; phases: Liquid
Fixed: Temperature, K = 298.15
Fixed: Pressure, kPa = 101
Property: Apparent molar heat capacity, J/K/mol (Liquid); method: Flow calorimetry
Molality, mol/kg of uridine	Apparent molar heat capacity, J/K/mol	uncertainty
0.03196	388.6	24.9
0.03905	392.2	20.5
0.04509	389	17.9
0.05202	390.2	15.6
0.06502	392.8	12.7
0.07806	394.6	11.3
0.09088	393	9.8
0.10403	395.8	8.6
0.1169	396.3	8.2
0.12974	397.2	7.5
0.14192	397.4	6.9
0.15597	397.9	6.4
0.16909	399.7	6
0.18168	400	5.3

System: uridine + water; phases: Liquid
Fixed: Pressure, kPa = 101
Property: Mass density, kg/m3 (Liquid); method: VIBTUB:UFactor:4
Temperature, K	Molality, mol/kg of uridine	Mass density, kg/m3	uncertainty
288.15	0.01999	1000.969	0.138
288.15	0.02506	1001.438	0.139
288.15	0.03209	1002.092	0.14
288.15	0.03891	1002.718	0.14
288.15	0.04722	1003.48	0.142
288.15	0.05292	1004.003	0.142
288.15	0.06097	1004.738	0.143
288.15	0.06302	1004.93	0.144
288.15	0.07323	1005.863	0.145
288.15	0.08112	1006.579	0.146
288.15	0.0856	1006.988	0.147
288.15	0.09527	1007.859	0.148
288.15	0.10859	1009.06	0.15
288.15	0.12262	1010.321	0.152
288.15	0.13607	1011.522	0.154
288.15	0.15139	1012.894	0.156
288.15	0.16465	1014.068	0.157
288.15	0.17722	1015.174	0.159
288.15	0.1879	1016.117	0.161
298.15	0.02	998.874	0.139
298.15	0.02209	999.063	0.138
298.15	0.02816	999.615	0.138
298.15	0.03196	999.958	0.137
298.15	0.03905	1000.599	0.138
298.15	0.04509	1001.147	0.139
298.15	0.04701	1001.321	0.139
298.15	0.05202	1001.77	0.14
298.15	0.0649	1002.93	0.141
298.15	0.06502	1002.94	0.141
298.15	0.07806	1004.105	0.143
298.15	0.09088	1005.247	0.145
298.15	0.10403	1006.414	0.147
298.15	0.1169	1007.55	0.148
298.15	0.12974	1008.682	0.15
298.15	0.14192	1009.749	0.152
298.15	0.15597	1010.967	0.153
298.15	0.16909	1012.104	0.155
298.15	0.18168	1013.191	0.157
303.15	0.02609	998.01	0.14
303.15	0.03099	998.45	0.14
303.15	0.03994	999.255	0.138
303.15	0.05406	1000.521	0.138
303.15	0.06024	1001.068	0.139
303.15	0.07423	1002.314	0.141
303.15	0.08686	1003.433	0.142
303.15	0.09942	1004.535	0.144
303.15	0.11513	1005.917	0.146
303.15	0.13147	1007.338	0.148
303.15	0.15206	1009.126	0.151
303.15	0.15928	1009.749	0.152
303.15	0.17361	1010.977	0.154
313.15	0.02609	994.543	0.146
313.15	0.03097	994.974	0.145
313.15	0.03994	995.768	0.144
313.15	0.04997	996.65	0.143
313.15	0.06105	997.626	0.141
313.15	0.06591	998.051	0.141
313.15	0.0739	998.749	0.14
313.15	0.08812	999.989	0.138
313.15	0.09479	1000.565	0.139
313.15	0.10778	1001.695	0.141
313.15	0.11607	1002.406	0.142
313.15	0.12451	1003.133	0.143
313.15	0.12982	1003.594	0.143
313.15	0.15421	1005.682	0.146

System: cytidine + water; phases: Liquid
Fixed: Temperature, K = 298.15
Fixed: Pressure, kPa = 101
Property: Apparent molar heat capacity, J/K/mol (Liquid); method: Flow calorimetry
Molality, mol/kg of cytidine	Apparent molar heat capacity, J/K/mol	uncertainty
0.03603	400.6	22.2
0.04693	402.7	17.2
0.05491	402.1	15.2
0.06183	403.6	14.1
0.07678	403.7	11.4
0.0916	403.6	10.4
0.10665	408.5	8.4
0.12212	409.7	7.5
0.13675	409.2	6.6
0.15549	411.9	5.7
0.16665	412.3	5.8
0.18024	414.7	5.8

System: cytidine + water; phases: Liquid
Fixed: Pressure, kPa = 101
Property: Mass density, kg/m3 (Liquid); method: VIBTUB:UFactor:6
Temperature, K	Molality, mol/kg of cytidine	Mass density, kg/m3	uncertainty
288.15	0.02485	1001.365	0.212
288.15	0.03879	1002.627	0.214
288.15	0.04824	1003.474	0.216
288.15	0.06758	1005.207	0.22
288.15	0.08075	1006.383	0.222
288.15	0.09313	1007.485	0.224
288.15	0.10881	1008.869	0.227
288.15	0.11987	1009.838	0.229
288.15	0.1364	1011.283	0.232
288.15	0.1506	1012.521	0.235
288.15	0.16489	1013.759	0.238
298.15	0.02499	999.277	0.222
298.15	0.03096	999.805	0.217
298.15	0.03479	1000.141	0.197
298.15	0.03603	1000.254	0.189
298.15	0.04188	1000.774	0.216
298.15	0.04501	1001.047	0.199
298.15	0.04693	1001.217	0.205
298.15	0.05289	1001.741	0.209
298.15	0.05491	1001.92	0.22
298.15	0.06183	1002.529	0.206
298.15	0.06395	1002.717	0.198
298.15	0.07451	1003.639	0.199
298.15	0.07678	1003.839	0.217
298.15	0.08514	1004.569	0.214
298.15	0.08961	1004.958	0.211
298.15	0.0916	1005.131	0.205
298.15	0.10465	1006.267	0.206
298.15	0.10665	1006.439	0.226
298.15	0.11341	1007.023	0.221
298.15	0.12212	1007.775	0.226
298.15	0.12958	1008.413	0.222
298.15	0.13675	1009.033	0.227
298.15	0.14014	1009.324	0.232
298.15	0.15099	1010.252	0.229
298.15	0.15549	1010.636	0.239
298.15	0.15957	1010.987	0.237
298.15	0.16665	1011.587	0.241
298.15	0.18024	1012.74	0.236
298.15	0.18204	1012.897	0.236
298.15	0.1997	1014.377	0.238
303.15	0.02494	997.856	0.217
303.15	0.03802	999.006	0.21
303.15	0.05095	1000.134	0.206
303.15	0.05473	1000.464	0.212
303.15	0.06602	1001.452	0.211
303.15	0.07717	1002.416	0.213
303.15	0.09004	1003.534	0.215
303.15	0.10491	1004.814	0.218
303.15	0.12006	1006.113	0.22
303.15	0.13485	1007.376	0.223
303.15	0.14984	1008.65	0.223
313.15	0.02593	994.479	0.219
313.15	0.03799	995.525	0.217
313.15	0.04943	996.513	0.215
313.15	0.06017	997.437	0.213
313.15	0.07018	998.296	0.211
313.15	0.07717	998.896	0.21
313.15	0.09844	1000.704	0.209
313.15	0.10972	1001.664	0.211
313.15	0.12121	1002.631	0.214
313.15	0.12319	1002.803	0.214
313.15	0.1409	1004.298	0.216
313.15	0.15593	1005.55	0.219
