Measured thermophysical data. (Vapor + liquid) equilibrium for the binary systems {water + glycerol} and {ethanol + glycerol, ethyl stearate, and ethyl palmitate} at low pressures
Source: J. Chem. Thermodyn., 2011, 10.1016/j.jct.2011.06.016
Compound 1: water, H2O, InChI=1S/H2O/h1H2
Compound 2: ethanol, C2H6O, InChI=1S/C2H6O/c1-2-3/h3H,2H2,1H3, purity 99.8%
Compound 3: glycerol, C3H8O3, InChI=1S/C3H8O3/c4-1-3(6)2-5/h3-6H,1-2H2, purity 99.5%
Compound 4: ethyl octadecanoate, C20H40O2, InChI=1S/C20H40O2/c1-3-5-6-7-8-9-10-11-12-13-14-15-16-17-18-19-20(21)22-4-2/h3-19H2,1-2H3, purity 97%
Compound 5: ethyl hexadecanoate, C18H36O2, InChI=1S/C18H36O2/c1-3-5-6-7-8-9-10-11-12-13-14-15-16-17-18(19)20-4-2/h3-17H2,1-2H3, purity 95%

System: water; phases: Liquid
Property: Refractive index (Na D-line) (Liquid); method: Standard Abbe refractometry
Temperature, K	Pressure, kPa	Refractive index (Na D-line)	uncertainty
298.15	101.325	1.333	0.001

System: ethanol; phases: Liquid
Property: Refractive index (Na D-line) (Liquid); method: Standard Abbe refractometry
Temperature, K	Pressure, kPa	Refractive index (Na D-line)	uncertainty
298.15	101.325	1.3625	0.0007

System: glycerol; phases: Liquid
Property: Refractive index (Na D-line) (Liquid); method: Standard Abbe refractometry
Temperature, K	Pressure, kPa	Refractive index (Na D-line)	uncertainty
298.15	101.325	1.471	0.001

System: ethyl octadecanoate; phases: Liquid
Property: Refractive index (Na D-line) (Liquid); method: Standard Abbe refractometry
Temperature, K	Pressure, kPa	Refractive index (Na D-line)	uncertainty
313.15	101.325	1.436	0.001

System: ethyl hexadecanoate; phases: Liquid
Property: Refractive index (Na D-line) (Liquid); method: Standard Abbe refractometry
Temperature, K	Pressure, kPa	Refractive index (Na D-line)	uncertainty
298.15	101.325	1.437	0.001

System: glycerol + water; phases: Liquid, Gas
Property: Boiling temperature at pressure P, K (Liquid); method: Ebulliometric method (Recirculating still)
Mole fraction of water	Pressure, kPa	Boiling temperature at pressure P, K	uncertainty
0.1896	13.7	381.18	0.34
0.1896	24.1	399.47	0.39
0.1896	34.5	413.86	0.42
0.1896	44.5	422.65	0.45
0.1896	54.3	431.95	0.47
0.1896	64.4	438.35	0.49
0.1896	74.6	445.44	0.47
0.1896	91.5	452.24	0.47
0.3329	13.5	361.69	0.32
0.3329	24.2	377.98	0.38
0.3329	33.8	387.68	0.4
0.3329	44.3	396.47	0.41
0.3329	54.5	402.97	0.43
0.3329	64.4	408.56	0.45
0.3329	74.8	414.56	0.46
0.3329	91.9	422.06	0.48
0.4458	13.9	347.1	0.25
0.4458	24	360.49	0.33
0.4458	34.3	369.89	0.33
0.4458	44.4	377.08	0.34
0.4458	54.5	382.78	0.35
0.4458	64.5	387.88	0.35
0.4458	74.7	392.37	0.36
0.4458	92.1	398.87	0.45
0.4761	13.8	348.4	0.19
0.4761	23.9	362.09	0.2
0.4761	34.5	372.19	0.21
0.4761	44.4	379.08	0.21
0.4761	54.6	385.28	0.24
0.4761	64.2	390.37	0.24
0.4761	75.1	395.17	0.24
0.4761	91	401.37	0.18
0.651	14	338.21	0.18
0.651	23.8	350.6	0.22
0.651	34.5	359.59	0.22
0.651	44.6	366.29	0.22
0.651	54.7	371.89	0.22
0.651	64.4	376.48	0.22
0.651	75.1	380.88	0.22
0.651	90.9	386.48	0.27
0.7438	9.9	326.91	0.23
0.7438	14.2	335.01	0.18
0.7438	24.1	346.9	0.2
0.7438	34.1	355.2	0.19
0.7438	44.5	361.89	0.19
0.7438	54.4	367.19	0.19
0.7438	64.3	371.69	0.19
0.7438	75	375.98	0.19
0.7438	90.9	381.48	0.21
0.8673	13.6	329.31	0.16
0.8673	23.6	341.2	0.2
0.8673	34.2	349.9	0.19
0.8673	44.2	356.09	0.18
0.8673	54.6	361.29	0.19
0.8673	64.3	365.69	0.19
0.8673	74.9	369.79	0.18
0.8673	91	375.18	0.21
0.9141	14	328.21	0.16
0.9141	24.1	340	0.19
0.9141	33.9	347.9	0.18
0.9141	44.6	354.6	0.18
0.9141	54.4	359.59	0.18
0.9141	64.4	363.99	0.18
0.9141	74.5	367.89	0.17
0.9141	90.8	373.38	0.19
0.9512	13.7	326.71	0.16
0.9512	23.6	338.41	0.21
0.9512	34.2	346.9	0.19
0.9512	45	353.6	0.19
0.9512	54.8	358.49	0.18
0.9512	64.4	362.69	0.18
0.9512	75.1	366.89	0.18
0.9512	91.9	372.38	0.19

System: glycerol + ethanol; phases: Liquid, Gas
Property: Boiling temperature at pressure P, K (Liquid); method: Ebulliometric method (Recirculating still)
Mole fraction of ethanol	Pressure, kPa	Boiling temperature at pressure P, K	uncertainty
0.0537	24	359.09	0.39
0.0537	34.2	369.74	0.41
0.0537	44.5	377.58	0.44
0.0537	54.6	384.33	0.49
0.0537	64.6	390.62	0.56
0.0537	74.7	397.52	0.6
0.0537	91.3	405.61	0.72
0.1029	18.3	344.25	0.22
0.1029	24.2	350.8	0.25
0.1029	34.3	360.09	0.28
0.1029	44.4	367.44	0.28
0.1029	54.4	373.28	0.29
0.1029	64.4	378.43	0.3
0.1029	74.6	382.98	0.31
0.1029	91.5	389.22	0.46
0.2575	23.8	337.76	0.14
0.2575	34.1	345.5	0.24
0.2575	44.2	353	0.35
0.2575	54.5	358.44	0.17
0.2575	64.6	363.64	0.15
0.2575	74.6	365.99	0.25
0.2575	91.8	371.69	0.16
0.2643	18.3	332.31	0.18
0.2643	24.2	338.46	0.17
0.2643	34.3	346.25	0.24
0.2643	44.5	353.5	0.21
0.2643	54.6	358.34	0.17
0.2643	64.6	362.84	0.31
0.2643	74.8	367.19	0.33
0.2643	92	373.58	0.57
0.3594	24.3	334.21	0.16
0.3594	34.1	341.1	0.17
0.3594	44.5	346.75	0.19
0.3594	54.4	351.9	0.19
0.3594	64.6	356.19	0.2
0.3594	74.7	360.24	0.2
0.3594	91.7	365.94	0.24
0.4173	18.7	324.51	0.18
0.4173	24	330.46	0.19
0.4173	34.3	338.66	0.19
0.4173	44.3	344.9	0.17
0.4173	54.4	349.65	0.16
0.4173	64.5	353.9	0.17
0.4173	74.6	357.84	0.17
0.4173	91.6	363.49	0.19
0.479	18.8	322.02	0.13
0.479	24	327.11	0.15
0.479	34.3	335.36	0.17
0.479	44.4	342	0.17
0.479	54.4	347.2	0.17
0.479	64.3	351.65	0.16
0.479	74.8	355.6	0.15
0.479	92.1	361.14	0.19
0.5525	18.7	321.12	0.14
0.5525	24.1	326.56	0.15
0.5525	34.1	334.41	0.16
0.5525	44.3	340.75	0.15
0.5525	54.4	345.7	0.15
0.5525	64.5	350	0.16
0.5525	74.6	353.9	0.15
0.5525	91.3	359.34	0.18
0.6505	18.7	320.42	0.14
0.6505	23.9	325.56	0.15
0.6505	34	333.51	0.16
0.6505	44.4	339.7	0.15
0.6505	54.4	344.7	0.15
0.6505	64.5	348.95	0.15
0.6505	74.8	352.7	0.15
0.6505	91.4	358.04	0.17

System: ethanol + ethyl octadecanoate; phases: Liquid, Gas
Property: Boiling temperature at pressure P, K (Liquid); method: Ebulliometric method (Recirculating still)
Mole fraction of ethanol	Pressure, kPa	Boiling temperature at pressure P, K	uncertainty
0.0655	23.9	371.89	0.42
0.0655	34.1	381.92	0.47
0.0655	44.3	389.92	0.46
0.0655	54.5	395.77	0.47
0.0655	64.5	399.46	0.48
0.0655	74.7	403.2	0.53
0.0655	92	418.85	0.67
0.2213	23.9	341.75	0.3
0.2213	34.1	348.55	0.34
0.2213	44.3	356.44	0.34
0.2213	54.5	360.54	0.33
0.2213	64.5	363.93	0.38
0.2213	74.7	373.13	0.39
0.2213	92	382.67	0.6
0.3838	23.9	325.11	0.2
0.3838	34.1	333.76	0.24
0.3838	44.2	341.6	0.25
0.3838	54.2	346.75	0.23
0.3838	64.5	352.15	0.25
0.3838	74.7	358.14	0.26
0.3838	92.4	364.94	0.31
0.4434	24	324.26	0.15
0.4434	34	332.76	0.17
0.4434	44.2	339.35	0.17
0.4434	54.4	344.85	0.18
0.4434	64.5	349.95	0.19
0.4434	74.7	354.35	0.19
0.4434	92.6	361.04	0.24
0.6012	18.5	315.92	0.15
0.6012	23.9	321.37	0.15
0.6012	34	329.16	0.16
0.6012	44.3	335.16	0.15
0.6012	54.2	340.05	0.16
0.6012	64.4	344.35	0.16
0.6012	74.6	348.15	0.15
0.6012	91.6	353.5	0.21
0.6896	20.8	317.87	0.15
0.6896	24	320.87	0.14
0.6896	34	328.51	0.15
0.6896	44.3	334.56	0.15
0.6896	54.2	339.3	0.15
0.6896	64.4	343.5	0.15
0.6896	74.6	347.2	0.14
0.6896	91.6	352.45	0.16
0.7594	18.4	314.92	0.14
0.7594	23.9	320.27	0.14
0.7594	34.1	328.06	0.15
0.7594	44.3	334.01	0.15
0.7594	54.3	338.76	0.14
0.7594	64.5	342.9	0.15
0.7594	74.6	346.55	0.14
0.7594	91.8	351.8	0.16
0.8743	23.8	319.52	0.13
0.8743	34	327.16	0.15
0.8743	44.1	332.96	0.14
0.8743	54.2	337.71	0.14
0.8743	64.4	341.8	0.14
0.8743	74.7	345.4	0.14
0.8743	92	350.6	0.16
0.9204	16.8	312.62	0.13
0.9204	23.9	319.57	0.14
0.9204	34.1	327.06	0.14
0.9204	44.2	332.76	0.14
0.9204	54.6	337.51	0.14
0.9204	64.5	341.45	0.14
0.9204	74.5	345	0.13
0.9204	91.6	350.1	0.15
0.9541	18.7	314.57	0.14
0.9541	24	319.57	0.13
0.9541	34.1	326.81	0.14
0.9541	44.3	332.61	0.14
0.9541	54.3	337.26	0.14
0.9541	64.4	341.2	0.14
0.9541	74.6	344.75	0.14
0.9541	91.6	349.8	0.15
0.9789	23.9	319.12	0.13
0.9789	34.2	326.51	0.16
0.9789	44.1	331.91	0.15
0.9789	54.3	336.61	0.15
0.9789	64.4	340.45	0.15
0.9789	74.7	344	0.15
0.9789	91.7	348.9	0.17

System: ethanol + ethyl hexadecanoate; phases: Liquid, Gas
Property: Boiling temperature at pressure P, K (Liquid); method: Ebulliometric method (Recirculating still)
Mole fraction of ethanol	Pressure, kPa	Boiling temperature at pressure P, K	uncertainty
0.0474	23.7	374.64	0.77
0.0474	33.8	379.23	0.59
0.0474	44.5	388.72	0.75
0.0474	54.4	403.21	0.8
0.0474	64.3	405.15	0.96
0.0474	74.9	416.9	0.92
0.0474	92.2	422.24	0.93
0.1017	19.31	350.31	0.44
0.1017	23.81	353.9	0.51
0.1017	34.1	365.59	0.47
0.1017	44.3	372.54	0.45
0.1017	54.3	378.73	0.46
0.1017	64.4	383.43	0.39
0.1017	74.5	389.32	0.4
0.1017	92.6	397.66	0.7
0.2172	21	327.36	0.33
0.2172	24	331.56	0.19
0.2172	34.1	342.65	0.28
0.2172	44.1	351.75	0.33
0.2172	54.3	362.54	0.41
0.2172	64.4	373.33	0.39
0.2172	74.7	380.03	0.2
0.2172	93.2	376.43	0.21
0.4847	23.9	323.21	0.14
0.4847	34.1	331.46	0.17
0.4847	44.2	337.8	0.16
0.4847	54.6	343.25	0.16
0.4847	64.6	347.65	0.16
0.4847	74.6	351.45	0.16
0.4847	91.4	357.14	0.18
0.536	19.6	319.07	0.16
0.536	23.9	323.61	0.15
0.536	34	331.51	0.16
0.536	44.2	338.05	0.16
0.536	54.6	343	0.15
0.536	64.6	347.35	0.16
0.536	74.7	351.15	0.15
0.536	91.7	356.59	0.17
0.5699	19.6	318.57	0.15
0.5699	24	323.06	0.15
0.5699	33.9	330.71	0.16
0.5699	44.3	337.01	0.16
0.5699	54.3	342.1	0.16
0.5699	64.3	346.3	0.16
0.5699	74.6	350.5	0.16
0.5699	91.4	355.89	0.17
0.5908	19.3	318.47	0.16
0.5908	23.8	322.71	0.15
0.5908	34.1	330.91	0.16
0.5908	44.2	337.06	0.16
0.5908	54.4	342.15	0.16
0.5908	64.5	346.55	0.16
0.5908	74.7	350.3	0.15
0.5908	91.3	355.6	0.17
0.6765	18.9	316.07	0.13
0.6765	24	321.17	0.15
0.6765	33.9	328.86	0.16
0.6765	44.1	335.06	0.16
0.6765	54.3	340.15	0.16
0.6765	64.5	344.65	0.16
0.6765	74.6	348.35	0.15
0.6765	91.7	353.95	0.18
0.7624	15.9	311.97	0.13
0.7624	23.9	320.42	0.15
0.7624	34.2	328.31	0.15
0.7624	44.1	334.21	0.15
0.7624	54.4	339.15	0.15
0.7624	64.4	343.25	0.15
0.7624	74.7	347	0.14
0.7624	91.8	352.2	0.17
0.828	19	315.17	0.13
0.828	23.9	319.97	0.14
0.828	34.2	327.81	0.15
0.828	44.1	333.61	0.15
0.828	54.2	338.51	0.14
0.828	64.6	342.7	0.14
0.828	74.6	346.3	0.13
0.828	92	351.4	0.16
0.8813	18.4	315.27	0.14
0.8813	24	320.02	0.13
0.8813	34	327.51	0.15
0.8813	44.2	333.46	0.14
0.8813	54.4	338.26	0.15
0.8813	64.3	342.45	0.14
0.8813	74.7	346.05	0.14
0.8813	92	351.35	0.15
0.9222	18.6	314.17	0.13
0.9222	24	319.42	0.14
0.9222	34.2	327.01	0.15
0.9222	44.4	332.96	0.14
0.9222	54.6	337.71	0.14
0.9222	64.4	341.7	0.14
0.9222	74.7	345.3	0.14
0.9222	92.5	350.65	0.16
0.9627	18.3	313.87	0.16
0.9627	23.9	319.57	0.14
0.9627	34.2	327.26	0.15
0.9627	44.1	332.91	0.14
0.9627	54.4	337.76	0.14
0.9627	64.6	341.7	0.14
0.9627	74.8	345.15	0.13
0.9627	93.1	349.65	0.14
0.9739	15.1	309.37	0.17
0.9739	23.9	318.87	0.16
0.9739	33.9	326.56	0.26
0.9739	44.2	332.36	0.23
0.9739	54.4	336.91	0.23
0.9739	64.4	340.7	0.24
0.9739	74.7	344	0.26
0.9739	93.2	349.4	0.16
