Measured thermophysical data. Isothermal (vapor + liquid) equilibria and excess enthalpy data of {1-hexene + methyl butyl ether (MBE)} and {1-hexene + methyl tert-butyl ether (MTBE)} binary systems at several temperatures
Source: J. Chem. Thermodyn., 2012, 10.1016/j.jct.2012.03.016
Compound 1: hex-1-ene, C6H12, InChI=1S/C6H12/c1-3-5-6-4-2/h3H,1,4-6H2,2H3, purity 99%
Compound 2: butyl methyl ether, C5H12O, InChI=1S/C5H12O/c1-3-4-5-6-2/h3-5H2,1-2H3, purity 99%
Compound 3: 2-methoxy-2-methylpropane, C5H12O, InChI=1S/C5H12O/c1-5(2,3)6-4/h1-4H3, purity 99%

System: hex-1-ene; phases: Liquid, Gas
Property: Vapor or sublimation pressure, kPa (Liquid); method: Closed cell (Static) method
Temperature, K	Vapor or sublimation pressure, kPa	uncertainty
263.15	4.4602	0.0904
263.45	4.5	0.1
273.15	7.7162	0.1556
273.32	7.7	0.2
283.15	12.7142	0.2565
283.241	12.8	0.3
293.15	20.0774	0.404
293.22	20.1	0.4
303.15	30.5441	0.6142
303.22	30.6	0.6
313.15	44.9625	0.9038
313.2	45	0.9
323.15	64.2832	1.2918
323.19	64.4	1.3
333.15	89.5471	1.7986
333.23	89.7	1.8

System: butyl methyl ether; phases: Liquid, Gas
Property: Vapor or sublimation pressure, kPa (Liquid); method: Closed cell (Static) method
Temperature, K	Vapor or sublimation pressure, kPa	uncertainty
262.99	3.2	0.1
263.15	3.1936	0.065
273.04	5.7	0.1
273.15	5.7041	0.1152
283.07	9.6	0.2
283.15	9.6875	0.1963
293.1	15.6	0.3
293.15	15.7431	0.317
303.12	24.4	0.5
303.15	24.61	0.4951
313.15	37.1725	0.7474
313.16	36.8	0.7
313.16	36.9	0.7
323.15	54.4598	1.0946
323.2	54	1.1
333.15	77.6413	1.7125
333.25	74.1	1.6

System: 2-methoxy-2-methylpropane; phases: Liquid, Gas
Property: Vapor or sublimation pressure, kPa (Liquid); method: Closed cell (Static) method
Temperature, K	Vapor or sublimation pressure, kPa	uncertainty
263.15	6.2447	0.1263
263.53	6.4	0.1
273.15	10.6728	0.2153
273.34	10.8	0.2
283.15	17.4073	0.3515
283.27	17.6	0.4
293.15	27.2535	0.5484
293.25	27.4	0.6
303.15	41.1613	0.8275
303.22	41.2	0.8
313.15	60.22	1.2096
313.24	60.3	1.2
323.15	85.6477	1.7209
323.21	85.8	1.7
333.19	119.2	2.4
333.15	118.7772	2.3859

System: hex-1-ene + butyl methyl ether; phases: Liquid
Fixed: Pressure, kPa = 101.3
Fixed: Temperature, K = 303.15
Property: Excess molar enthalpy (molar enthalpy of mixing), kJ/mol (Liquid); method: Calvet calorimetry
Mole fraction of hex-1-ene	Excess molar enthalpy (molar enthalpy of mixing), kJ/mol	uncertainty
0.0997	0.023	0.01004
0.1966	0.0459	0.01005
0.2897	0.06352	0.01007
0.3935	0.08087	0.01008
0.4933	0.08963	0.01009
0.5922	0.09067	0.01009
0.694	0.08565	0.01009
0.7912	0.07085	0.01007
0.8863	0.04412	0.01005

System: hex-1-ene + butyl methyl ether; phases: Liquid, Gas
Property: Vapor or sublimation pressure, kPa (Liquid); method: Closed cell (Static) method
Mole fraction of hex-1-ene	Temperature, K	Vapor or sublimation pressure, kPa	uncertainty
0	263.15	3.1936	0.0684
0	273.15	5.7041	0.1188
0	283.15	9.6875	0.1994
0	293.15	15.7431	0.3222
0	303.15	24.61	0.5022
0	313.15	37.1725	0.7572
0	323.15	54.4598	1.1082
0	333.15	77.6413	1.5787
0.0999	263.15	3.3419	0.0714
0.0999	273.15	5.929	0.1233
0.0999	283.15	10.0117	0.2059
0.0999	293.15	16.189	0.3312
0.0999	303.15	25.8477	0.5273
0.0999	313.15	37.9172	0.7723
0.0999	323.15	55.3676	1.1266
0.0999	333.15	78.7064	1.6003
0.198	263.15	3.4771	0.0741
0.198	273.15	6.1435	0.1276
0.198	283.15	10.3355	0.2125
0.198	293.15	16.6569	0.3407
0.198	303.15	25.8477	0.5273
0.198	313.15	38.7878	0.79
0.198	323.15	56.4961	1.1495
0.198	333.15	80.1249	1.6291
0.2951	263.15	3.6775	0.0781
0.2951	273.15	6.4746	0.1343
0.2951	283.15	10.8557	0.223
0.2951	293.15	17.4391	0.3566
0.2951	303.15	26.9789	0.5502
0.2951	313.15	40.368	0.8221
0.2951	323.15	58.6359	1.193
0.2951	333.15	82.9421	1.6862
0.392	263.15	3.7848	0.0802
0.392	273.15	6.6309	0.1375
0.392	283.15	11.072	0.2274
0.392	293.15	17.7241	0.3624
0.392	303.15	27.3378	0.5575
0.392	313.15	40.8002	0.8309
0.392	323.15	59.1331	1.2031
0.392	333.15	83.4866	1.6973
0.5061	263.15	3.9305	0.0832
0.5061	273.15	6.8583	0.1421
0.5061	283.15	11.411	0.2343
0.5061	293.15	18.2103	0.3722
0.5061	303.15	28.0112	0.5712
0.5061	313.15	41.7045	0.8492
0.5061	323.15	60.3146	1.2271
0.5061	333.15	84.9927	1.7279
0.6914	263.15	4.0866	0.0863
0.6914	273.15	7.0959	0.1469
0.6914	283.15	11.7586	0.2413
0.6914	293.15	18.7012	0.3822
0.6914	303.15	28.6842	0.5849
0.6914	313.15	42.6041	0.8675
0.6914	323.15	61.491	1.251
0.6914	333.15	86.5027	1.7586
0.8095	263.15	4.2361	0.0893
0.8095	273.15	7.3368	0.1517
0.8095	283.15	12.1286	0.2488
0.8095	293.15	19.2465	0.3933
0.8095	303.15	29.4585	0.6006
0.8095	313.15	43.6675	0.8891
0.8095	323.15	62.9085	1.2797
0.8095	333.15	88.3413	1.7959
0.8977	263.15	4.3505	0.0916
0.8977	273.15	7.5265	0.1556
0.8977	283.15	12.4223	0.2548
0.8977	293.15	19.6742	0.4019
0.8977	303.15	30.047	0.6125
0.8977	313.15	44.4341	0.9046
0.8977	323.15	63.8527	1.2989
0.8977	333.15	89.4357	1.8181
1	263.15	4.4602	0.0938
1	273.15	7.7162	0.1594
1	283.15	12.7142	0.2607
1	293.15	20.0774	0.4101
1	303.15	30.5441	0.6226
1	313.15	44.9625	0.9153
1	323.15	64.2832	1.3076
1	333.15	89.5471	1.8203

System: hex-1-ene + 2-methoxy-2-methylpropane; phases: Liquid
Fixed: Pressure, kPa = 101.3
Fixed: Temperature, K = 303.15
Property: Excess molar enthalpy (molar enthalpy of mixing), kJ/mol (Liquid); method: Calvet calorimetry
Mole fraction of hex-1-ene	Excess molar enthalpy (molar enthalpy of mixing), kJ/mol	uncertainty
0.1491	0.08728	0.01009
0.2162	0.1133	0.01011
0.3039	0.13798	0.01014
0.4052	0.15455	0.01016
0.4892	0.16053	0.01017
0.6174	0.1584	0.01017
0.7128	0.14358	0.01015
0.788	0.12334	0.01013
0.8837	0.08275	0.01009

System: hex-1-ene + 2-methoxy-2-methylpropane; phases: Liquid, Gas
Property: Vapor or sublimation pressure, kPa (Liquid); method: Closed cell (Static) method
Mole fraction of hex-1-ene	Temperature, K	Vapor or sublimation pressure, kPa	uncertainty
0	263.15	6.2447	0.1298
0.0999	263.15	6.1277	0.1274
0.2056	263.15	5.9958	0.1248
0.2963	263.15	5.8675	0.1222
0.399	263.15	5.7107	0.119
0.5164	263.15	5.5324	0.1154
0.607	263.15	5.3579	0.1119
0.7171	263.15	5.1496	0.1077
0.8196	263.15	4.9331	0.1033
0.9133	263.15	4.7028	0.0987
1	263.15	4.4602	0.0938
0	273.15	10.6728	0.2193
0.0999	273.15	10.4533	0.2149
0.2056	273.15	10.2398	0.2106
0.2963	273.15	10.0129	0.206
0.399	273.15	9.7581	0.2008
0.5164	273.15	9.4614	0.1948
0.607	273.15	9.1818	0.1891
0.7171	273.15	8.8273	0.1819
0.8196	273.15	8.4899	0.1751
0.9133	273.15	8.0984	0.1672
1	273.15	7.7162	0.1594
0	283.15	17.4073	0.356
0.0999	283.15	17.0365	0.3484
0.2056	283.15	16.6998	0.3416
0.2963	283.15	16.3244	0.334
0.399	283.15	15.9254	0.3259
0.5164	283.15	15.4531	0.3163
0.607	283.15	15.0194	0.3075
0.7171	283.15	14.4463	0.2959
0.8196	283.15	13.9367	0.2855
0.9133	283.15	13.3094	0.2728
1	283.15	12.7142	0.2607
0	293.15	27.2535	0.5558
0.0999	293.15	26.676	0.5441
0.2056	293.15	26.1569	0.5336
0.2963	293.15	25.5694	0.5216
0.399	293.15	24.9645	0.5094
0.5164	293.15	24.2414	0.4947
0.607	293.15	23.5869	0.4814
0.7171	293.15	22.7012	0.4634
0.8196	293.15	21.9513	0.4482
0.9133	293.15	20.9958	0.4288
1	293.15	20.0774	0.4101
0	303.15	41.1613	0.8382
0.0999	303.15	40.3205	0.8211
0.2056	303.15	39.537	0.8052
0.2963	303.15	38.6602	0.7874
0.399	303.15	37.769	0.7693
0.5164	303.15	36.6994	0.7476
0.607	303.15	35.7355	0.728
0.7171	303.15	34.4188	0.7013
0.8196	303.15	33.3398	0.6794
0.9133	303.15	31.9475	0.6511
1	303.15	30.5441	0.6226
0	313.15	60.22	1.2252
0.0999	313.15	59.0664	1.2018
0.2056	313.15	57.9074	1.1782
0.2963	313.15	56.6513	1.1527
0.399	313.15	55.3713	1.1267
0.5164	313.15	53.8366	1.0956
0.607	313.15	52.4479	1.0674
0.7171	313.15	50.5565	1.0289
0.8196	313.15	49.0334	0.998
0.9133	313.15	47.0824	0.9584
1	313.15	44.9625	0.9153
0	323.15	85.6477	1.7415
0.0999	323.15	84.1494	1.7111
0.2056	323.15	82.4679	1.6769
0.2963	323.15	80.7322	1.6417
0.399	323.15	78.9354	1.6052
0.5164	323.15	76.792	1.5616
0.607	323.15	74.8307	1.5218
0.7171	323.15	72.1947	1.4683
0.8196	323.15	70.0811	1.4254
0.9133	323.15	67.4415	1.3718
1	323.15	64.2832	1.3076
0	333.15	118.7772	2.4138
0.0999	333.15	116.9331	2.3764
0.2056	333.15	114.5386	2.3278
0.2963	333.15	112.2154	2.2806
0.399	333.15	109.745	2.2304
0.5164	333.15	106.8229	2.1711
0.607	333.15	104.1031	2.1159
0.7171	333.15	100.527	2.0433
0.8196	333.15	97.6388	1.9846
0.9133	333.15	94.1787	1.9144
1	333.15	89.5471	1.8203
