Measured thermophysical data. Deterpenation of eucalyptus essential oil by liquid + liquid extraction: Phase equilibrium and physical properties for model systems at T = 298.2 K
Source: J. Chem. Thermodyn., 2014, 10.1016/j.jct.2013.09.044
Compound 1: (R)-1-methyl-4-(1-methylethenyl)cyclohexene, C10H16, InChI=1S/C10H16/c1-8(2)10-6-4-9(3)5-7-10/h4,10H,1,5-7H2,2-3H3/t10-/m0/s1, purity 98%
Compound 2: (.+-.)-citronellal, C10H18O, InChI=1S/C10H18O/c1-9(2)5-4-6-10(3)7-8-11/h5,8,10H,4,6-7H2,1-3H3, purity 99%
Compound 3: ethanol, C2H6O, InChI=1S/C2H6O/c1-2-3/h3H,2H2,1H3, purity 98%
Compound 4: water, H2O, InChI=1S/H2O/h1H2, purity 99.8%

System: (R)-1-methyl-4-(1-methylethenyl)cyclohexene; phases: Liquid
Property: Mass density, kg/m3 (Liquid); method: Vibrating tube method
Pressure, kPa	Temperature, K	Mass density, kg/m3	uncertainty
100	298.2	838.59	1.17

System: (R)-1-methyl-4-(1-methylethenyl)cyclohexene; phases: Liquid
Property: Viscosity, Pa*s (Liquid); method: Falling or rolling sphere viscometry
Pressure, kPa	Temperature, K	Viscosity, Pa*s	uncertainty
100	298.2	0.0008599	8.66e-05

System: (.+-.)-citronellal; phases: Liquid
Property: Mass density, kg/m3 (Liquid); method: Vibrating tube method
Pressure, kPa	Temperature, K	Mass density, kg/m3	uncertainty
100	298.2	850.03	1.03

System: (.+-.)-citronellal; phases: Liquid
Property: Viscosity, Pa*s (Liquid); method: Falling or rolling sphere viscometry
Pressure, kPa	Temperature, K	Viscosity, Pa*s	uncertainty
100	298.2	0.0015849	0.0001591

System: ethanol; phases: Liquid
Property: Mass density, kg/m3 (Liquid); method: Vibrating tube method
Pressure, kPa	Temperature, K	Mass density, kg/m3	uncertainty
100	298.2	785.07	1.15

System: ethanol; phases: Liquid
Property: Viscosity, Pa*s (Liquid); method: Falling or rolling sphere viscometry
Pressure, kPa	Temperature, K	Viscosity, Pa*s	uncertainty
100	298.2	0.0011866	0.0001196

System: water; phases: Liquid
Property: Mass density, kg/m3 (Liquid); method: Vibrating tube method
Pressure, kPa	Temperature, K	Mass density, kg/m3	uncertainty
100	298.2	997.05	1.01

System: water; phases: Liquid
Property: Viscosity, Pa*s (Liquid); method: Falling or rolling sphere viscometry
Pressure, kPa	Temperature, K	Viscosity, Pa*s	uncertainty
100	298.2	0.0008976	9e-05

System: ethanol + (R)-1-methyl-4-(1-methylethenyl)cyclohexene + water; phases: Liquid
Fixed: Pressure, kPa = 100
Fixed: Temperature, K = 298.2
Property: Mass density, kg/m3 (Liquid); method: Vibrating tube method
Mass fraction of (R)-1-methyl-4-(1-methylethenyl)cyclohexene	Mass fraction of ethanol	Mass density, kg/m3	uncertainty
0.963	0.0344	837.39	6.11
0.0601	0.7066	847.98	9.7
0.9672	0.0307	837.04	6.11
0.0399	0.6793	856.74	15.75
0.9727	0.0242	837.45	6.11
0.0243	0.6537	869.76	9.63

System: ethanol + (R)-1-methyl-4-(1-methylethenyl)cyclohexene + water; phases: Liquid
Fixed: Pressure, kPa = 100
Fixed: Temperature, K = 298.2
Property: Viscosity, Pa*s (Liquid); method: Falling or rolling sphere viscometry
Mass fraction of (R)-1-methyl-4-(1-methylethenyl)cyclohexene	Mass fraction of ethanol	Viscosity, Pa*s	uncertainty
0.963	0.0344	0.0008571	0.0001826
0.0601	0.7066	0.0017718	0.000204
0.9672	0.0307	0.0008467	0.0001826
0.0399	0.6793	0.0018779	0.0002552
0.9727	0.0242	0.0008529	0.0001825
0.0243	0.6537	0.0020379	0.000206

System: ethanol + (R)-1-methyl-4-(1-methylethenyl)cyclohexene + water; phases: Liquid mixture 1, Liquid mixture 2
Fixed: Temperature, K = 298.2
Fixed: Pressure, kPa = 100
Property: Mass fraction of ethanol (Liquid mixture 1); method: Chromatography
Property: Mass fraction of ethanol (Liquid mixture 2); method: Chromatography
Property: Mass fraction of (R)-1-methyl-4-(1-methylethenyl)cyclohexene (Liquid mixture 2); method: Chromatography
Mass fraction of (R)-1-methyl-4-(1-methylethenyl)cyclohexene	Mass fraction of ethanol	uncertainty	Mass fraction of ethanol	uncertainty	Mass fraction of (R)-1-methyl-4-(1-methylethenyl)cyclohexene	uncertainty
0.963	0.0344	0.0174	0.7066	0.0175	0.0601	
0.9672	0.0307	0.0174	0.6793	0.0175	0.0399	
0.9727	0.0242	0.0174	0.6537	0.0176	0.0243	
