Measured thermophysical data. Heat capacity and thermodynamic properties of germanium disulfide at temperatures from T = (2 to 1240) K
Source: J. Chem. Thermodyn., 2011, 10.1016/j.jct.2010.10.011
Compound 1: germanium disulfide, GeS2, InChI=1S/Ge.2S/q+4;2*-2, purity 99%

System: germanium disulfide; phases: Crystal, Liquid, Air at 1 atmosphere
Property: Molar enthalpy of transition or fusion, kJ/mol (Crystal); method: DSC
Molar enthalpy of transition or fusion, kJ/mol	uncertainty
23	1.1

System: germanium disulfide; phases: Crystal, Liquid, Air at 1 atmosphere
Property: Normal melting temperature, K (Crystal); method: DTA
Normal melting temperature, K	uncertainty
1116	4

System: germanium disulfide; phases: Crystal
Fixed: Pressure, kPa = 101.325
Property: Molar heat capacity at constant pressure, J/K/mol (Crystal); method: Thermal relaxation method
Temperature, K	Molar heat capacity at constant pressure, J/K/mol	uncertainty
2.03	0.007	0.001
2.21	0.009	0.001
2.34	0.011	0.019
2.5	0.141	0.003
2.68	0.018	0.013
2.86	0.022	0.001
3.06	0.027	0.001
3.28	0.032	0.001
3.51	0.04	0.002
3.77	0.05	0.002
4.04	0.063	0.003
4.32	0.079	0.003
4.62	0.101	0.003
4.95	0.122	0.004
5.3	0.157	0.005
5.68	0.196	0.006
6.08	0.249	0.008
6.51	0.313	0.009
6.97	0.387	0.01
7.46	0.477	0.013
7.99	0.6	0.015
8.55	0.73	0.018
9.15	0.892	0.021
9.8	1.075	0.025
10.49	1.289	0.029
11.23	1.531	0.033
12.02	1.804	0.039
12.87	2.108	0.045
13.78	2.469	0.052
14.77	2.833	0.059
15.8	3.239	0.067
16.91	3.704	0.076
18.11	4.213	0.086
19.39	4.767	0.097
20.74	5.376	0.109
22.22	6.049	0.122
23.8	6.765	0.137
25.48	7.575	0.153
27.28	8.436	0.17
29.19	9.353	0.188
31.28	10.38	0.21
33.47	11.47	0.23
35.88	12.63	0.25
38.44	13.84	0.28
41.14	15.12	0.3
44.05	16.48	0.33
47.16	17.88	0.36
50.49	19.35	0.39

System: germanium disulfide; phases: Crystal
Fixed: Pressure, kPa = 101.325
Property: Molar heat capacity at constant pressure, J/K/mol (Crystal); method: Small (less than 1 g) adiabatic calorimetry
Temperature, K	Molar heat capacity at constant pressure, J/K/mol	uncertainty
8.518	0.75	0.025
9.293	0.956	0.028
10.119	1.192	0.03
11.036	1.481	0.034
12.12	1.84	0.037
13.326	2.27	0.041
14.45	2.692	0.045
15.54	3.114	0.049
16.617	3.548	0.052
17.695	3.993	0.056
18.849	4.481	0.059
20.002	4.986	0.062
21.172	5.507	0.065
22.38	6.053	0.067
23.644	6.638	0.07
24.986	7.263	0.072
26.365	7.941	0.075
27.729	8.614	0.077
29.096	9.268	0.078
30.411	9.913	0.116
31.754	10.586	0.119
33.124	11.268	0.121
34.46	11.933	0.124
35.771	12.579	0.126
37.069	13.218	0.129
38.447	13.876	0.132
39.922	14.577	0.136
41.4	15.273	0.139
42.895	15.954	0.142
44.41	16.661	0.146
45.972	17.362	0.149
47.852	18.072	0.153
49.117	18.732	0.156
50.599	19.352	0.159
52.036	19.968	0.162
53.425	20.517	0.165
54.867	21.098	0.168
55.867	21.5	0.161
56.372	21.697	0.171
56.826	21.875	0.162
57.845	22.282	0.174
57.977	22.331	0.164
59.29	22.827	0.177
59.296	22.84	0.166
60.707	23.361	0.168
60.722	23.343	0.179
62.133	23.876	0.17
63.541	24.382	0.172
65.004	24.903	0.174
66.521	25.422	0.176
67.797	26.528	0.18
68.295	26.027	0.179
71.301	27.031	0.182
72.886	27.55	0.184
74.539	28.09	0.186
76.196	28.635	0.188
77.876	29.164	0.19
79.639	29.717	0.193
81.453	30.275	0.195
83.227	30.816	0.197
84.964	31.344	0.199
86.667	31.853	0.201
88.339	32.349	0.203
89.982	32.834	0.205
91.598	33.337	0.258
93.222	33.818	0.26
94.854	34.29	0.261
96.462	34.75	0.263
98.078	35.21	0.264
99.736	35.726	0.266
101.44	36.205	0.267
103.192	36.613	0.268
105.045	37.209	0.27
106.96	37.739	0.272
108.869	38.256	0.273
110.774	38.778	0.275
112.656	39.276	0.277
114.515	39.772	0.278
116.373	40.262	0.28
118.251	40.739	0.281
120.151	41.229	0.283
122.052	41.719	0.284
123.934	42.183	0.286
125.797	42.621	0.287
127.726	43.133	0.289
129.72	43.613	0.29
131.696	44.07	0.291
133.656	44.552	0.293
135.599	44.955	0.294
137.526	45.465	0.296
139.437	45.896	0.297
141.333	46.326	0.298
143.215	46.73	0.3
145.083	47.142	0.301
146.938	47.54	0.302
148.782	47.916	0.303
150.613	48.306	0.305
152.433	48.673	0.306
154.241	49.037	0.307
156.038	49.39	0.308
157.825	49.747	0.309
159.602	50.091	0.31
161.369	50.444	0.311
163.128	50.764	0.312
164.878	51.091	0.313
166.618	51.403	0.314
168.35	51.723	0.315
170.073	52.023	0.316
171.788	52.345	0.317
173.496	52.582	0.318
175.234	52.964	0.319
177.026	53.248	0.32
178.834	53.533	0.321
180.708	53.867	0.322
182.648	54.205	0.323
184.601	54.54	0.324
186.566	54.839	0.325
188.523	55.137	0.326
190.494	55.432	0.327
192.479	55.728	0.328
194.478	56.042	0.329
196.491	56.323	0.329
198.497	56.623	0.33
200.494	56.89	0.331
202.483	57.164	0.332
204.539	57.453	0.333
206.664	57.673	0.334
208.781	58.014	0.335
210.889	58.279	0.335
212.991	58.539	0.336
215.085	58.799	0.337
217.173	59.044	0.338
219.254	59.264	0.339
221.335	59.577	0.34
223.476	59.752	0.34
225.615	60.029	0.341
227.77	60.271	0.342
229.918	60.508	0.342
232.059	60.745	0.343
234.193	60.961	0.344
236.32	61.168	0.344
238.441	61.375	0.345
240.554	61.576	0.346
242.661	61.782	0.346
244.761	61.981	0.347
246.855	62.181	0.348
248.943	62.366	0.348
251.024	62.568	0.349
253.099	62.761	0.349
255.168	62.956	0.35
257.232	63.108	0.35
259.29	63.271	0.351
261.343	63.454	0.352
263.39	63.603	0.352
265.505	63.776	0.353
267.689	63.923	0.353
269.87	64.099	0.354
272.046	64.304	0.354
274.218	64.454	0.355
276.385	64.662	0.355
278.574	64.856	0.356
280.784	65.019	0.356
282.989	65.142	0.357
285.19	65.269	0.357
287.385	65.49	0.358
289.574	65.575	0.358
291.758	65.76	0.359
293.964	65.891	0.359
296.19	66.071	0.36
298.411	66.199	0.36
300.626	66.393	0.361
302.836	66.517	0.361
305.04	66.643	0.361
307.239	66.775	0.362

System: germanium disulfide; phases: Crystal
Fixed: Pressure, kPa = 101.325
Property: Molar heat capacity at constant pressure, J/K/mol (Crystal); method: Large sample (1 g) DSC
Temperature, K	Molar heat capacity at constant pressure, J/K/mol	uncertainty
335.19	68.64	1.68
339.41	68.98	1.69
343.62	69.49	1.7
347.82	69.88	1.71
354.6	70.34	1.72
358.63	70.58	1.73
362.64	70.76	1.73
366.64	70.92	1.74
370.65	71.12	1.74
377.42	71.53	1.75
381.44	71.79	1.76
385.46	71.81	1.76
389.47	71.82	1.76
393.48	71.83	1.76
397.48	71.85	1.76
404.87	72.13	1.77
408.88	72.2	1.77
412.89	72.4	1.77
416.89	72.5	1.78
420.9	72.66	1.78
427.68	72.51	1.78
431.7	72.62	1.78
435.71	72.7	1.78
439.72	72.92	1.79
443.72	73.13	1.79
447.73	73.33	1.8
454.92	73.32	1.8
458.93	73.57	1.8
462.94	73.61	1.8
467.14	73.52	1.8
471.14	73.71	1.81
478.34	73.89	1.81
482.74	74.05	1.81
486.75	74.43	1.82
490.75	74.51	1.83
494.75	74.54	1.83
500.96	74.47	1.82
504.96	74.48	1.82
508.97	74.68	1.83
512.97	74.67	1.83
516.97	74.76	1.83
520.98	74.81	1.83
526.78	74.9	1.83
530.78	75.15	1.84
534.78	74.97	1.84
538.78	75.17	1.84
542.78	75.15	1.84
546.79	75.41	1.85
553.6	75.46	1.85
557.6	75.84	1.86
561.61	76.2	1.87
565.61	76.26	1.87
569.61	76.05	1.86
575.62	76.37	1.87
579.62	76.54	1.87
583.61	76.73	1.88
587.62	76.63	1.88
591.62	76.78	1.88
595.62	76.38	1.87
601.46	76.44	1.87
605.44	76.86	1.88
609.43	76.91	1.88
613.43	77.21	1.89
617.43	77.37	1.9
621.43	77.17	1.89
627.27	77.31	1.89
631.25	77.35	1.89
635.25	77.63	1.9
639.25	77.97	1.91
643.25	77.95	1.91
647.25	78.18	1.92
653.08	77.83	1.91
657.06	78.16	1.91
661.06	78.57	1.92
665.05	78.61	1.93
669.06	78.64	1.93
675.32	78.34	1.92
679.28	78.82	1.93
683.27	78.76	1.93
687.26	78.75	1.93
691.26	78.8	1.93
695.26	79.4	1.95

System: germanium disulfide; phases: Crystal
Fixed: Pressure, kPa = 101.325
Property: Molar heat capacity at constant pressure, J/K/mol (Crystal); method: Heat-flux Calorimetry
Temperature, K	Molar heat capacity at constant pressure, J/K/mol	uncertainty
700	78.9	7.9
710	79	7.9
720	79	7.9
730	79.3	7.9
740	79.8	8
750	80.1	8
760	80.8	8.1
770	80.5	8.1
780	80.2	8
790	80	8
800	80.1	8
810	80.5	8.1
820	80.9	8.1
830	81.9	8.2
840	82.3	8.2
850	82.4	8.2
860	82.9	8.3
870	83.6	8.4
880	84.2	8.4
890	84.7	8.5
900	84.6	8.5
910	84.2	8.4
920	84.2	8.4
930	84.4	8.4
940	85.6	8.6
950	85.4	8.5
960	85.6	8.6
970	86	8.6
980	85.6	8.6
990	84.8	8.5
1000	85.2	8.5
1010	88.2	8.8
1020	87.9	8.8
1030	87.8	8.8

System: germanium disulfide; phases: Liquid
Fixed: Pressure, kPa = 101.325
Property: Molar heat capacity at constant pressure, J/K/mol (Liquid); method: Heat-flux Calorimetry
Temperature, K	Molar heat capacity at constant pressure, J/K/mol	uncertainty
1120	140	14
1130	142	14
1140	142	14
1150	146	15
1160	147	15
1170	150	15
1180	153	15
1190	156	16
1200	157	16
1210	159	16
1220	162	16
1230	165	17
1240	164	16

System: germanium disulfide; phases: Crystal
Fixed: Pressure, kPa = 101.325
Property: Molar heat capacity at constant pressure, J/K/mol (Crystal); method: Small (less than 1 g) adiabatic calorimetry
Temperature, K	Molar heat capacity at constant pressure, J/K/mol	uncertainty
0	0	1
10	9.453	0.171
20	4.98	0.08
30	9.72	0.149
40	14.617	0.173
50	19.106	0.196
60	23.089	0.216
70	26.606	0.233
80	29.815	0.249
90	32.859	0.331
100	35.769	0.343
110	38.562	0.354
120	41.198	0.365
130	43.676	0.375
140	45.995	0.384
150	48.157	0.393
160	50.177	0.401
170	52.04	0.408
180	53.761	0.415
190	55.357	0.421
200	56.812	0.427
210	58.151	0.433
220	59.381	0.438
230	60.504	0.442
240	61.527	0.446
250	62.474	0.45
260	63.464	0.454
270	64.154	0.457
280	64.911	0.46
290	65.626	0.463
298.15	66.191	0.465
300	66.316	0.465
310	66.989	0.468
350	69.949	0.48
400	72.011	0.488
450	73.341	0.493
500	74.455	0.498
550	75.553	0.502
600	76.692	0.507
650	77.898	0.512
700	79.153	0.517
750	80.4	0.522
800	81.647	0.527
850	82.895	0.532
900	84.142	0.537
950	85.223	0.541
1000	86.22	0.545
1050	87.135	0.549
1100	87.883	0.552
1116	88.133	0.553

System: germanium disulfide; phases: Liquid
Fixed: Pressure, kPa = 101.325
Property: Molar heat capacity at constant pressure, J/K/mol (Liquid); method: Small (less than 1 g) adiabatic calorimetry
Temperature, K	Molar heat capacity at constant pressure, J/K/mol	uncertainty
1120	139.183	0.757
1130	141.511	0.766
1140	143.839	0.775
1150	146.084	0.784
1160	148.329	0.793
1170	150.574	0.802
1180	152.819	0.811
1190	154.98	0.82
1200	157.142	0.829
1210	159.304	0.837
1220	161.383	0.846
1230	163.461	0.854
1240	165.54	0.862

System: germanium disulfide; phases: Crystal
Fixed: Pressure, kPa = 101.325
Property: Molar enthalpy, kJ/mol (Crystal); method: Small (less than 1 g) adiabatic calorimetry
Temperature, K	Molar enthalpy, kJ/mol	uncertainty
0	0	0.02
10	0.002877	0.000248
20	0.032434	0.000796
30	0.105468	0.003533
40	0.227341	0.005145
50	0.396364	0.006992
60	0.607783	0.009051
70	0.856549	0.011295
80	1.138907	0.013707
90	1.452359	0.023818
100	1.795578	0.027192
110	2.167398	0.030679
120	2.566323	0.034275
130	2.990856	0.037973
140	3.439335	0.041767
150	3.910262	0.045651
160	4.402059	0.049618
170	4.913228	0.053663
180	5.442357	0.057779
190	5.988031	0.061962
200	6.549003	0.066206
210	7.123944	0.070505
220	7.711689	0.074856
230	8.311157	0.079254
240	8.921351	0.083694
250	9.541605	0.088175
260	10.171006	0.092693
270	10.807889	0.09724
280	11.453917	0.101824
290	12.106598	0.106434
298.15	12.642045	0.110206
300	12.765098	0.111068
310	13.431082	0.115732
350	16.175665	0.13471
400	19.72924	0.158923
450	23.365127	0.183466
500	27.060046	0.208246
550	30.810672	0.233248
600	34.616173	0.258469
650	38.480706	0.283927
700	42.40344	0.309618
750	46.394352	0.335581
800	50.451779	0.361811
850	54.567407	0.388273
900	58.741236	0.414968
950	62.973266	0.441896
1000	67.263496	0.469057
1050	71.595298	0.496384
1100	75.968673	0.523878
1116	77.382121	0.532731

System: germanium disulfide; phases: Liquid
Fixed: Pressure, kPa = 101.325
Property: Molar enthalpy, kJ/mol (Liquid); method: Small (less than 1 g) adiabatic calorimetry
Temperature, K	Molar enthalpy, kJ/mol	uncertainty
1120	100.93682	0.627754
1130	102.34195	0.635374
1140	103.76371	0.643061
1150	105.21873	0.650882
1160	106.69038	0.658768
1170	108.17866	0.666721
1180	109.70019	0.674808
1190	111.23836	0.68296
1200	112.80146	0.691213
1210	114.3812	0.699532
1220	115.98588	0.707951
1230	117.60719	0.716436
1240	119.25344	0.725021

System: germanium disulfide; phases: Crystal
Fixed: Pressure, kPa = 101.325
Property: Molar entropy, J/K/mol (Crystal); method: Small (less than 1 g) adiabatic calorimetry
Temperature, K	Molar entropy, J/K/mol	uncertainty
0	0	1
10	0.416	0.04
20	2.311	0.072
30	5.205	0.189
40	8.68	0.215
50	12.43	0.243
60	16.271	0.272
70	20.104	0.301
80	23.871	0.329
90	27.554	0.465
100	31.171	0.487
110	34.713	0.508
120	38.18	0.529
130	41.555	0.549
140	44.898	0.569
150	48.149	0.589
160	51.325	0.608
170	54.418	0.627
180	57.444	0.645
190	60.396	0.662
200	63.273	0.68
210	66.075	0.696
220	68.81	0.713
230	71.471	0.729
240	74.073	0.744
250	76.601	0.76
260	79.07	0.774
270	81.473	0.789
280	83.826	0.803
290	86.112	0.817
298.15	87.933	0.828
300	88.349	0.83
310	90.527	0.843
350	98.85	0.893
400	108.345	0.95
450	116.9	1.001
500	124.691	1.048
550	131.841	1.091
600	138.46	1.131
650	144.646	1.168
700	150.491	1.203
750	155.978	1.236
800	161.216	1.267
850	166.205	1.297
900	170.944	1.326
950	175.517	1.353
1000	179.924	1.38
1050	184.164	1.405
1100	188.238	1.429
1116	189.485	1.437

System: germanium disulfide; phases: Liquid
Fixed: Pressure, kPa = 101.325
Property: Molar entropy, J/K/mol (Liquid); method: Small (less than 1 g) adiabatic calorimetry
Temperature, K	Molar entropy, J/K/mol	uncertainty
1120	210.853	1.565
1130	212.1	1.573
1140	213.348	1.58
1150	214.678	1.588
1160	215.925	1.596
1170	217.172	1.603
1180	218.502	1.611
1190	219.833	1.619
1200	221.08	1.626
1210	222.41	1.634
1220	223.741	1.642
1230	225.071	1.65
1240	226.401	1.658
