Measured thermophysical data. Thermodynamic properties of Ga-Zn system. Experiment vs model
Source: J. Chem. Thermodyn., 2016, 10.1016/j.jct.2016.07.029
Compound 1: gallium, Ga, InChI=1S/Ga, purity 99.999%
Compound 2: zinc, Zn, InChI=1S/Zn, purity 99.999%

System: gallium + zinc; phases: Liquid
Fixed: Pressure, kPa = 100
Property: Excess molar enthalpy (molar enthalpy of mixing), kJ/mol (Liquid); method: Calvet calorimetry
Mole fraction of zinc	Temperature, K	Excess molar enthalpy (molar enthalpy of mixing), kJ/mol	uncertainty
0.0966	722	0.523	0.168
0.1679	722	0.858	0.168
0.237	722	1.136	0.168
0.2796	722	1.273	0.168
0.3239	722	1.41	0.168
0.3664	722	1.495	0.168
0.4104	722	1.576	0.168
0.4432	722	1.612	0.168
0.4747	722	1.646	0.168
0.5057	722	1.68	0.168
0.5368	722	1.689	0.168
0.562	722	1.7	0.169
0.94802	722	0.427	0.094
0.90042	722	0.762	0.094
0.8495	722	1.071	0.094
0.8068	722	1.275	0.095
0.132	722	0.672	0.096
0.2478	722	1.066	0.096
0.3424	722	1.351	0.097
0.4155	722	1.51	0.097
0.4746	722	1.58	0.097
0.5202	722	1.579	0.097
0.5565	722	1.583	0.097
0.5901	722	1.585	0.097
0.61879	722	1.57	0.097
0.64445	722	1.549	0.097
0.66592	722	1.52	0.097
0.68458	722	1.493	0.097
0.761	722	1.363	0.097
0.07739	923	0.385	0.186
0.1593	923	0.763	0.186
0.2736	923	1.187	0.186
0.3262	923	1.317	0.186
0.3711	923	1.449	0.186
0.4101	923	1.511	0.186
0.44342	923	1.608	0.186
0.47434	923	1.652	0.186
0.49815	923	1.687	0.186
0.1307	923	0.625	0.124
0.2353	923	1.055	0.124
0.3154	923	1.311	0.124
0.3774	923	1.474	0.125
0.4408	923	1.589	0.125
0.4896	923	1.664	0.125
