Measured thermophysical data. On the permittivity and density of the systems {tetraglyme + (n-nonane or n-dodecane)} at various temperatures
Source: J. Chem. Thermodyn., 2006, 10.1016/j.jct.2005.05.010
Compound 1: 2,5,8,11,14-pentaoxapentadecane, C10H22O5, InChI=1S/C10H22O5/c1-11-3-5-13-7-9-15-10-8-14-6-4-12-2/h3-10H2,1-2H3, purity 99%
Compound 2: nonane, C9H20, InChI=1S/C9H20/c1-3-5-7-9-8-6-4-2/h3-9H2,1-2H3, purity 99.5%
Compound 3: dodecane, C12H26, InChI=1S/C12H26/c1-3-5-7-9-11-12-10-8-6-4-2/h3-12H2,1-2H3, purity 99%

System: nonane + 2,5,8,11,14-pentaoxapentadecane; phases: Liquid
Fixed: Pressure, kPa = 101
Fixed: Frequency, MHz = 1
Property: Relative permittivity at various frequencies (Liquid); method: HP4284A LCR meter with HP16452A measuring cell
Temperature, K	Mole fraction of 2,5,8,11,14-pentaoxapentadecane	Relative permittivity at various frequencies	uncertainty
288.15	0.092	2.38	0.05
288.15	0.198	2.86	0.06
288.15	0.2475	3.12	0.06
288.15	0.2956	3.38	0.07
288.15	0.396	3.96	0.08
288.15	0.4959	4.55	0.09
293.15	0.0994	2.39	0.05
293.15	0.1985	2.84	0.06
293.15	0.2501	3.1	0.06
293.15	0.2939	3.34	0.07
293.15	0.3984	3.92	0.08
293.15	0.4938	4.48	0.09
298.15	0.1005	2.38	0.05
298.15	0.208	2.87	0.06
298.15	0.2446	3.05	0.06
298.15	0.2933	3.3	0.07
298.15	0.3955	3.86	0.08
298.15	0.4915	4.41	0.09
303.15	0.0917	2.33	0.05
303.15	0.1979	2.8	0.06
303.15	0.2457	3.03	0.06
303.15	0.2956	3.29	0.07
303.15	0.3945	3.81	0.08
303.15	0.491	4.36	0.09
308.15	0.092	2.32	0.05
308.15	0.198	2.78	0.06
308.15	0.2475	3.02	0.06
308.15	0.2956	3.26	0.07
308.15	0.396	3.79	0.08
308.15	0.4959	4.35	0.09
318.15	0.0986	2.32	0.05
318.15	0.1991	2.75	0.06
318.15	0.2493	2.97	0.06
318.15	0.2933	3.19	0.06
318.15	0.3928	3.7	0.07
318.15	0.4936	4.25	0.09
328.15	0.0994	2.3	0.05
328.15	0.1985	2.7	0.05
328.15	0.2501	2.92	0.06
328.15	0.2939	3.13	0.06
328.15	0.3984	3.65	0.07
328.15	0.4938	4.15	0.08

System: nonane + 2,5,8,11,14-pentaoxapentadecane; phases: Liquid
Fixed: Pressure, kPa = 101.325
Property: Mass density, kg/m3 (Liquid); method: VIBTUB:UFactor:4
Temperature, K	Mole fraction of 2,5,8,11,14-pentaoxapentadecane	Mass density, kg/m3	uncertainty
288.15	0.0981	754.33	0.69
288.15	0.1975	786.68	0.64
288.15	0.2492	803.19	0.62
288.15	0.2941	817.34	0.6
288.15	0.3965	848.9	0.57
288.15	0.4949	878.3	0.54
288.15	0.5953	907.25	0.52
288.15	0.6896	933.6	0.5
288.15	0.7957	962.35	0.5
288.15	0.8991	989.64	0.51
288.15	0.9483	1002.46	0.52
293.15	0.1031	751.88	0.7
293.15	0.1962	782.05	0.65
293.15	0.247	798.25	0.63
293.15	0.2955	813.52	0.61
293.15	0.3961	844.48	0.57
293.15	0.501	875.69	0.55
293.15	0.5902	901.4	0.52
293.15	0.6925	929.94	0.51
293.15	0.7922	956.89	0.5
293.15	0.898	984.82	0.51
293.15	0.9488	998.06	0.52
298.15	0.1031	747.78	0.7
298.15	0.1962	777.92	0.66
298.15	0.247	794.1	0.63
298.15	0.2955	809.35	0.61
298.15	0.3961	840.28	0.58
298.15	0.501	871.43	0.55
298.15	0.5902	897.15	0.53
298.15	0.6925	925.7	0.51
298.15	0.7922	952.68	0.51
298.15	0.898	980.6	0.51
298.15	0.9488	993.85	0.52
303.15	0.1014	743.19	0.71
303.15	0.1976	774.18	0.66
303.15	0.2477	790.05	0.64
303.15	0.2921	803.95	0.62
303.15	0.4017	837.48	0.58
303.15	0.4933	864.65	0.56
303.15	0.5993	895.1	0.53
303.15	0.699	922.78	0.51
303.15	0.8003	950.11	0.51
303.15	0.8973	975.65	0.51
303.15	0.9491	989.1	0.52
308.15	0.0989	738.45	0.72
308.15	0.2001	770.9	0.67
308.15	0.2444	784.88	0.65
308.15	0.297	801.28	0.63
308.15	0.3929	830.52	0.59
308.15	0.4965	861.18	0.57
308.15	0.5956	889.54	0.54
308.15	0.6958	917.32	0.52
308.15	0.7934	943.57	0.51
308.15	0.9025	972.17	0.52
308.15	0.9489	984.21	0.52
318.15	0.0909	727.57	0.74
318.15	0.1951	760.81	0.69
318.15	0.2465	776.92	0.66
318.15	0.2951	792.01	0.64
318.15	0.3996	823.72	0.61
318.15	0.4975	852.5	0.58
318.15	0.593	879.69	0.55
318.15	0.6937	907.5	0.53
318.15	0.7958	934.82	0.52
318.15	0.901	962.34	0.52
318.15	0.949	974.75	0.53
328.15	0.1038	723.59	0.75
328.15	0.207	756.29	0.7
328.15	0.2448	768.07	0.68
328.15	0.2921	782.68	0.66
328.15	0.3924	813.05	0.62
328.15	0.5009	844.87	0.59
328.15	0.5944	871.46	0.56
328.15	0.6951	899.22	0.54
328.15	0.8	927.31	0.53
328.15	0.9003	953.54	0.53
328.15	0.949	966.16	0.53

System: dodecane + 2,5,8,11,14-pentaoxapentadecane; phases: Liquid
Fixed: Pressure, kPa = 101
Fixed: Frequency, MHz = 1
Property: Relative permittivity at various frequencies (Liquid); method: HP4284A LCR meter with HP16452A measuring cell
Temperature, K	Mole fraction of 2,5,8,11,14-pentaoxapentadecane	Relative permittivity at various frequencies	uncertainty
288.15	0.1029	2.31	0.05
293.15	0.1029	2.34	0.05
293.15	0.1884	2.64	0.05
298.15	0.101	2.34	0.05
298.15	0.1951	2.68	0.05
298.15	0.2452	2.88	0.06
303.15	0.0958	2.3	0.05
303.15	0.2014	2.7	0.05
303.15	0.2469	2.87	0.06
308.15	0.0936	2.29	0.05
308.15	0.1977	2.66	0.05
308.15	0.229	2.79	0.06
308.15	0.299	3.07	0.06
308.15	0.3376	3.25	0.07
308.15	0.5011	4.07	0.08
318.15	0.0976	2.28	0.05
318.15	0.1982	2.63	0.05
318.15	0.2411	2.79	0.06
318.15	0.2985	3.02	0.06
318.15	0.4152	3.53	0.07
318.15	0.5117	4.02	0.08
328.15	0.1038	2.28	0.05
328.15	0.1956	2.58	0.05
328.15	0.2515	2.79	0.06
328.15	0.2964	2.96	0.06
328.15	0.4118	3.44	0.07
328.15	0.4952	3.83	0.08

System: dodecane + 2,5,8,11,14-pentaoxapentadecane; phases: Liquid
Fixed: Pressure, kPa = 101.325
Property: Mass density, kg/m3 (Liquid); method: VIBTUB:UFactor:4
Temperature, K	Mole fraction of 2,5,8,11,14-pentaoxapentadecane	Mass density, kg/m3	uncertainty
288.15	0.0993	775.55	0.73
288.15	0.902	987.22	0.53
288.15	0.9519	1001.75	0.53
293.15	0.0978	771.51	0.73
293.15	0.2005	796.1	0.7
293.15	0.8	953.5	0.55
293.15	0.9	982.07	0.54
293.15	0.9508	996.87	0.53
298.15	0.0989	767.93	0.74
298.15	0.204	793.1	0.71
298.15	0.802	949.8	0.55
298.15	0.9008	977.89	0.54
298.15	0.9501	992.26	0.53
303.15	0.0988	764.08	0.75
303.15	0.2002	788.23	0.71
303.15	0.2521	801	0.7
303.15	0.6966	916.15	0.58
303.15	0.8055	946.01	0.55
303.15	0.8981	972.19	0.54
303.15	0.95	987.31	0.53
308.15	0.0985	760.19	0.75
308.15	0.2003	784.33	0.72
308.15	0.25	796.44	0.7
308.15	0.2982	808.41	0.69
308.15	0.3947	832.66	0.66
308.15	0.4951	858.4	0.64
308.15	0.6029	886.59	0.6
308.15	0.6932	910.64	0.58
308.15	0.7972	938.98	0.56
308.15	0.9	967.93	0.54
308.15	0.9499	982.47	0.54
318.15	0.0933	751.51	0.76
318.15	0.2002	776.57	0.73
318.15	0.2473	787.94	0.71
318.15	0.3005	800.98	0.7
318.15	0.4089	828.03	0.67
318.15	0.4964	850.31	0.65
318.15	0.5793	871.75	0.62
318.15	0.6947	902.16	0.59
318.15	0.7984	930.16	0.56
318.15	0.901	958.9	0.54
318.15	0.9508	973.29	0.54
328.15	0.0984	745.11	0.77
328.15	0.2005	768.85	0.74
328.15	0.2504	780.79	0.72
328.15	0.2999	792.82	0.71
328.15	0.4045	818.73	0.68
328.15	0.4998	842.88	0.65
328.15	0.5993	868.54	0.62
328.15	0.7079	897.15	0.59
328.15	0.7991	921.81	0.57
328.15	0.9043	951.23	0.55
328.15	0.9508	964.69	0.54
