Measured thermophysical data. The study of thermodynamic properties of the ternary (1-ethyl-3-methylimidazolium hydrogen sulfate + lithium chloride + water) system and corresponding binary systems at different temperatures and ambient pressure
Source: J. Chem. Thermodyn., 2016, 10.1016/j.jct.2016.07.003
Compound 1: 1-ethyl-3-methylimidazolium hydrogen sulfate, C6H12N2O4S, InChI=1S/C6H11N2.H2O4S/c1-3-8-5-4-7(2)6-8;1-5(2,3)4/h4-6H,3H2,1-2H3;(H2,1,2,3,4)/q+1;/p-1, purity 98%
Compound 2: lithium chloride, ClLi, InChI=1S/ClH.Li/h1H;/q;+1/p-1, purity 99%
Compound 3: water, H2O, InChI=1S/H2O/h1H2

System: water + 1-ethyl-3-methylimidazolium hydrogen sulfate; phases: Liquid
Fixed: Pressure, kPa = 87
Fixed: Temperature, K = 298.15
Property: Osmotic coefficient (Liquid); method: ISOPIE
Molality, mol/kg of 1-ethyl-3-methylimidazolium hydrogen sulfate	Osmotic coefficient	uncertainty
1.0385	0.895	0.011
1.5432	0.897	0.011
1.7447	0.898	0.011
1.9614	0.9	0.011
2.0453	0.904	0.011
2.251	0.909	0.011
2.5339	0.915	0.01
2.8143	0.919	0.01
3.343	0.93	0.01
4.0416	0.948	0.01
4.5133	0.96	0.01
5.0403	0.974	0.01
5.6628	0.993	0.01
6.5548	1.03	0.01
6.9104	1.05	0.01

System: water + 1-ethyl-3-methylimidazolium hydrogen sulfate; phases: Liquid
Fixed: Pressure, kPa = 87
Property: Mass density, kg/m3 (Liquid); method: Vibrating tube method
Temperature, K	Molality, mol/kg of 1-ethyl-3-methylimidazolium hydrogen sulfate	Mass density, kg/m3	uncertainty
293.15	0.0363	1000.86	3.01
293.15	0.0687	1003.08	3.01
293.15	0.1026	1005.3	3.01
293.15	0.1384	1007.57	3.01
293.15	0.1716	1009.63	3.01
293.15	0.2049	1011.67	3.01
293.15	0.2391	1013.72	3.01
293.15	0.2718	1015.68	3.01
293.15	0.3034	1017.53	3.01
293.15	0.3375	1019.54	3.01
298.15	0.0363	999.65	3.01
298.15	0.0687	1001.82	3.01
298.15	0.1026	1003.99	3.01
298.15	0.1384	1006.22	3.01
298.15	0.1716	1008.23	3.01
298.15	0.2049	1010.23	3.01
298.15	0.2391	1012.24	3.01
298.15	0.2718	1014.17	3.01
298.15	0.3034	1016	3.01
298.15	0.3375	1017.98	3.01
303.15	0.0363	998.2	3.01
303.15	0.0687	1000.33	3.01
303.15	0.1026	1002.46	3.01
303.15	0.1384	1004.64	3.01
303.15	0.1716	1006.63	3.01
303.15	0.2049	1008.6	3.01
303.15	0.2391	1010.58	3.01
303.15	0.2718	1012.47	3.01
303.15	0.3034	1014.26	3.01
303.15	0.3375	1016.21	3.01
308.15	0.0363	996.54	3.01
308.15	0.0687	998.63	3.01
308.15	0.1026	1000.73	3.01
308.15	0.1384	1002.87	3.01
308.15	0.1716	1004.82	3.01
308.15	0.2049	1006.76	3.01
308.15	0.2391	1008.7	3.01
308.15	0.2718	1010.58	3.01
308.15	0.3034	1012.34	3.01
308.15	0.3375	1014.25	3.01
313.15	0.0363	994.68	3.01
313.15	0.0687	996.73	3.01
313.15	0.1026	998.8	3.01
313.15	0.1384	1000.91	3.01
313.15	0.1716	1002.83	3.01
313.15	0.2049	1004.74	3.01
313.15	0.2391	1006.66	3.01
313.15	0.2718	1008.5	3.01
313.15	0.3034	1010.24	3.01
313.15	0.3375	1012.13	3.01

System: water + 1-ethyl-3-methylimidazolium hydrogen sulfate; phases: Liquid
Fixed: Pressure, kPa = 87
Fixed: Temperature, K = 298.15
Property: (Relative) activity of water (Liquid); method: isopiestic method
Mass fraction of 1-ethyl-3-methylimidazolium hydrogen sulfate	(Relative) activity of water	uncertainty
0.1778	0.9671	0.0387
0.2432	0.9514	0.0387
0.2665	0.9451	0.0387
0.29	0.9384	0.0387
0.2987	0.9356	0.0388
0.3191	0.9289	0.0388
0.3454	0.9199	0.0388
0.3695	0.9111	0.0388
0.4104	0.8941	0.0388
0.457	0.8711	0.0388
0.4845	0.8554	0.0388
0.5121	0.8378	0.0388
0.5411	0.8166	0.0389
0.5772	0.7842	0.0389
0.59	0.7707	0.0387

System: lithium chloride + water; phases: Liquid
Fixed: Pressure, kPa = 87
Fixed: Temperature, K = 298.15
Property: Osmotic coefficient (Liquid); method: ISOPIE
Molality, mol/kg of lithium chloride	Osmotic coefficient	uncertainty
0.9064	1.02	0.01
1.2783	1.08	0.01
1.4392	1.09	0.01
1.6157	1.09	0.01
1.667	1.11	0.01
1.8303	1.12	0.01
1.9902	1.16	0.01
2.183	1.18	0.01
2.563	1.21	0.01
3.0143	1.27	0.01
3.2933	1.32	0.02
3.5718	1.37	0.02
3.9524	1.42	0.02
4.4567	1.51	0.02
4.6684	1.55	0.02

System: lithium chloride + water; phases: Liquid
Fixed: Pressure, kPa = 87
Fixed: Temperature, K = 298.15
Property: (Relative) activity of water (Liquid); method: isopiestic method
Mass fraction of lithium chloride	(Relative) activity of water	uncertainty
0.037	0.9671	0.039
0.0514	0.9514	0.039
0.0575	0.9451	0.0389
0.0641	0.9384	0.039
0.066	0.9356	0.039
0.072	0.9289	0.0391
0.0778	0.9199	0.0391
0.0847	0.9111	0.0391
0.098	0.8941	0.0391
0.1133	0.8711	0.0392
0.1225	0.8554	0.0394
0.1315	0.8378	0.0394
0.1435	0.8166	0.0395
0.1589	0.7842	0.0396
0.1652	0.7707	0.0397

System: lithium chloride + water; phases: Liquid
Fixed: Pressure, kPa = 87
Property: Mass density, kg/m3 (Liquid); method: Vibrating tube method
Temperature, K	Mass fraction of lithium chloride	Mass density, kg/m3	uncertainty
293.15	0.0346	1017.42	3.74
298.15	0.0346	1016.17	3.74
303.15	0.0346	1014.72	3.73
308.15	0.0346	1013.08	3.73
313.15	0.0346	1011.25	3.73
293.15	0.0691	1036.35	3.74
298.15	0.0691	1035.04	3.73
303.15	0.0691	1033.55	3.73
308.15	0.0691	1031.8	3.73
313.15	0.0691	1030.06	3.74
293.15	0.1035	1055.18	3.74
298.15	0.1035	1053.81	3.74
303.15	0.1035	1052.33	3.74
308.15	0.1035	1050.73	3.74
313.15	0.1035	1049.03	3.74
293.15	0.1379	1074.05	3.74
298.15	0.1379	1072.65	3.74
303.15	0.1379	1071.16	3.74
308.15	0.1379	1069.55	3.74
313.15	0.1379	1067.85	3.74

System: lithium chloride + water + 1-ethyl-3-methylimidazolium hydrogen sulfate; phases: Liquid
Fixed: Pressure, kPa = 87
Fixed: Temperature, K = 298.15
Property: (Relative) activity of water (Liquid); method: isopiestic method
Mass fraction of 1-ethyl-3-methylimidazolium hydrogen sulfate	Mass fraction of lithium chloride	(Relative) activity of water	uncertainty
0.1778	0	0.9671	0.0387
0.0883	0.0264	0.9671	0.039
0.0258	0.0345	0.9671	0.0389
0	0.037	0.9671	0.039
0.2432	0	0.9514	0.0387
0.1061	0.0377	0.9514	0.0391
0.0342	0.0482	0.9514	0.0389
0	0.0514	0.9514	0.039
0.2665	0	0.9451	0.0387
0.113	0.0415	0.9451	0.039
0.0365	0.0535	0.9451	0.0391
0	0.0575	0.9451	0.0389
0.29	0	0.9384	0.0387
0.1187	0.0431	0.9384	0.039
0.0405	0.058	0.9384	0.0394
0	0.0641	0.9384	0.039
0.2987	0	0.9356	0.0388
0.12	0.0456	0.9356	0.0395
0.043	0.06	0.9356	0.0389
0	0.066	0.9356	0.039
0.3191	0	0.9289	0.0388
0.1251	0.049	0.9289	0.0391
0.0466	0.064	0.9289	0.0395
0	0.072	0.9289	0.0391
0.3454	0	0.9199	0.0388
0.1331	0.053	0.9199	0.0391
0.0502	0.0701	0.9199	0.0391
0	0.0778	0.9199	0.0391
0.3695	0	0.9111	0.0388
0.1398	0.058	0.9111	0.0391
0.0535	0.0755	0.9111	0.0391
0	0.0847	0.9111	0.0391
0.4104	0	0.8941	0.0388
0.16	0.066	0.8941	0.0394
0.0602	0.0874	0.8941	0.0392
0	0.098	0.8941	0.0391
0.457	0	0.8711	0.0388
0.1786	0.076	0.8711	0.0394
0.0694	0.101	0.8711	0.0391
0	0.1133	0.8711	0.0392
0.4845	0	0.8554	0.0388
0.1942	0.083	0.8554	0.0392
0.0764	0.109	0.8554	0.0394
0	0.1225	0.8554	0.0394
0.5121	0	0.8378	0.0388
0.211	0.0891	0.8378	0.0393
0.082	0.1174	0.8378	0.0393
0	0.1315	0.8378	0.0394
0.5411	0	0.8166	0.0389
0.2253	0.099	0.8166	0.0393
0.0879	0.1284	0.8166	0.0395
0	0.1435	0.8166	0.0395
0.5772	0	0.7842	0.0388
0.251	0.111	0.7842	0.04
0.0953	0.1433	0.7842	0.0397
0	0.1589	0.7842	0.0396
0.59	0	0.7707	0.0388
0.2606	0.115	0.7707	0.0399
0.1	0.1475	0.7707	0.0404
0	0.1652	0.7707	0.0397

System: lithium chloride + water + 1-ethyl-3-methylimidazolium hydrogen sulfate; phases: Liquid
Fixed: Pressure, kPa = 87
Property: Mass density, kg/m3 (Liquid); method: Vibrating tube method
Temperature, K	Solvent: Mass fraction of lithium chloride	Molality, mol/kg of 1-ethyl-3-methylimidazolium hydrogen sulfate	Mass density, kg/m3	uncertainty
293.15	0.0346	0	1017.42	3.74
293.15	0.0346	0.0349	1020.03	3.75
293.15	0.0346	0.068	1022.38	3.75
293.15	0.0346	0.1014	1024.65	3.76
293.15	0.0346	0.1355	1026.92	3.76
293.15	0.0346	0.1675	1028.99	3.77
293.15	0.0346	0.2017	1031.17	3.77
293.15	0.0346	0.2352	1033.25	3.78
293.15	0.0346	0.2672	1035.23	3.78
293.15	0.0346	0.3006	1037.25	3.78
293.15	0.0346	0.332	1039.12	3.78
298.15	0.0346	0	1016.17	3.74
298.15	0.0346	0.0349	1018.74	3.74
298.15	0.0346	0.068	1021.05	3.75
298.15	0.0346	0.1014	1023.29	3.75
298.15	0.0346	0.1355	1025.5	3.76
298.15	0.0346	0.1675	1027.55	3.76
298.15	0.0346	0.2017	1029.69	3.77
298.15	0.0346	0.2352	1031.75	3.77
298.15	0.0346	0.2672	1033.7	3.77
298.15	0.0346	0.3006	1035.72	3.78
298.15	0.0346	0.332	1037.58	3.78
303.15	0.0346	0	1014.72	3.73
303.15	0.0346	0.0349	1017.26	3.74
303.15	0.0346	0.068	1019.52	3.74
303.15	0.0346	0.1014	1021.72	3.75
303.15	0.0346	0.1355	1023.88	3.75
303.15	0.0346	0.1675	1025.88	3.76
303.15	0.0346	0.2017	1027.98	3.76
303.15	0.0346	0.2352	1029.99	3.77
303.15	0.0346	0.2672	1031.9	3.77
303.15	0.0346	0.3006	1033.87	3.78
303.15	0.0346	0.332	1035.72	3.78
308.15	0.0346	0	1013.08	3.73
308.15	0.0346	0.0349	1015.59	3.74
308.15	0.0346	0.068	1017.81	3.74
308.15	0.0346	0.1014	1019.97	3.75
308.15	0.0346	0.1355	1022.11	3.75
308.15	0.0346	0.1675	1024.08	3.76
308.15	0.0346	0.2017	1026.14	3.76
308.15	0.0346	0.2352	1028.13	3.77
308.15	0.0346	0.2672	1029.99	3.77
308.15	0.0346	0.3006	1031.94	3.78
308.15	0.0346	0.332	1033.74	3.78
313.15	0.0346	0	1011.25	3.73
313.15	0.0346	0.0349	1013.73	3.74
313.15	0.0346	0.068	1015.92	3.74
313.15	0.0346	0.1014	1018.05	3.75
313.15	0.0346	0.1355	1020.15	3.75
313.15	0.0346	0.1675	1022.1	3.76
313.15	0.0346	0.2017	1024.13	3.76
313.15	0.0346	0.2352	1026.1	3.77
313.15	0.0346	0.2672	1027.97	3.77
313.15	0.0346	0.3006	1029.88	3.78
313.15	0.0346	0.332	1031.66	3.78
293.15	0.0691	0	1036.35	3.74
293.15	0.0691	0.0342	1038.97	3.74
293.15	0.0691	0.07	1041.56	3.74
293.15	0.0691	0.1044	1043.96	3.74
293.15	0.0691	0.1355	1046.08	3.74
293.15	0.0691	0.1692	1048.32	3.74
293.15	0.0691	0.2051	1050.65	3.75
293.15	0.0691	0.2367	1052.67	3.75
293.15	0.0691	0.2675	1054.62	3.75
293.15	0.0691	0.3004	1056.7	3.75
293.15	0.0691	0.3325	1058.67	3.76
298.15	0.0691	0	1035.04	3.73
298.15	0.0691	0.0342	1037.62	3.74
298.15	0.0691	0.07	1040.16	3.74
298.15	0.0691	0.1044	1042.52	3.74
298.15	0.0691	0.1355	1044.59	3.74
298.15	0.0691	0.1692	1046.8	3.74
298.15	0.0691	0.2051	1049.09	3.74
298.15	0.0691	0.2367	1051.08	3.74
298.15	0.0691	0.2675	1053.01	3.75
298.15	0.0691	0.3004	1055.07	3.75
298.15	0.0691	0.3325	1057.03	3.75
303.15	0.0691	0	1033.55	3.73
303.15	0.0691	0.0342	1036.1	3.74
303.15	0.0691	0.07	1038.6	3.74
303.15	0.0691	0.1044	1040.91	3.74
303.15	0.0691	0.1355	1042.96	3.74
303.15	0.0691	0.1692	1045.12	3.74
303.15	0.0691	0.2051	1047.4	3.74
303.15	0.0691	0.2367	1049.35	3.75
303.15	0.0691	0.2675	1051.25	3.75
303.15	0.0691	0.3004	1053.27	3.75
303.15	0.0691	0.3325	1055.23	3.76
308.15	0.0691	0	1031.8	3.73
308.15	0.0691	0.0342	1034.33	3.74
308.15	0.0691	0.07	1036.8	3.74
308.15	0.0691	0.1044	1039.09	3.74
308.15	0.0691	0.1355	1041.11	3.74
308.15	0.0691	0.1692	1043.26	3.74
308.15	0.0691	0.2051	1045.49	3.74
308.15	0.0691	0.2367	1047.45	3.75
308.15	0.0691	0.2675	1049.34	3.75
308.15	0.0691	0.3004	1051.35	3.75
308.15	0.0691	0.3325	1053.29	3.76
313.15	0.0691	0	1030.06	3.74
313.15	0.0691	0.0342	1032.56	3.74
313.15	0.0691	0.07	1035.01	3.74
313.15	0.0691	0.1044	1037.28	3.74
313.15	0.0691	0.1355	1039.27	3.74
313.15	0.0691	0.1692	1041.38	3.74
313.15	0.0691	0.2051	1043.59	3.75
313.15	0.0691	0.2367	1045.5	3.75
313.15	0.0691	0.2675	1047.36	3.75
313.15	0.0691	0.3004	1049.33	3.75
313.15	0.0691	0.3325	1051.22	3.76
293.15	0.1035	0	1055.18	3.74
293.15	0.1035	0.0348	1057.96	17.43
293.15	0.1035	0.0682	1060.39	3.75
293.15	0.1035	0.1011	1062.65	3.75
293.15	0.1035	0.136	1064.97	3.75
293.15	0.1035	0.1696	1067.17	3.75
293.15	0.1035	0.2037	1069.39	3.75
293.15	0.1035	0.236	1071.45	3.75
293.15	0.1035	0.2694	1073.59	3.76
293.15	0.1035	0.3021	1075.7	3.76
293.15	0.1035	0.3342	1077.74	3.76
298.15	0.1035	0	1053.81	3.74
298.15	0.1035	0.0348	1056.56	4.26
298.15	0.1035	0.0682	1058.96	3.74
298.15	0.1035	0.1011	1061.19	3.74
298.15	0.1035	0.136	1063.49	3.75
298.15	0.1035	0.1696	1065.65	3.75
298.15	0.1035	0.2037	1067.84	3.75
298.15	0.1035	0.236	1069.86	3.75
298.15	0.1035	0.2694	1071.97	3.75
298.15	0.1035	0.3021	1074.04	3.76
298.15	0.1035	0.3342	1076.06	3.76
303.15	0.1035	0	1052.33	3.74
303.15	0.1035	0.0348	1055.05	23.48
303.15	0.1035	0.0682	1057.4	3.74
303.15	0.1035	0.1011	1059.6	3.74
303.15	0.1035	0.136	1061.85	3.75
303.15	0.1035	0.1696	1063.99	3.75
303.15	0.1035	0.2037	1066.14	3.75
303.15	0.1035	0.236	1068.15	3.75
303.15	0.1035	0.2694	1070.23	3.76
303.15	0.1035	0.3021	1072.3	3.76
303.15	0.1035	0.3342	1074.29	3.76
308.15	0.1035	0	1050.73	3.74
308.15	0.1035	0.0348	1053.41	3.11
308.15	0.1035	0.0682	1055.72	3.75
308.15	0.1035	0.1011	1057.87	3.75
308.15	0.1035	0.136	1060.08	3.75
308.15	0.1035	0.1696	1062.19	3.75
308.15	0.1035	0.2037	1064.3	3.75
308.15	0.1035	0.236	1066.28	3.76
308.15	0.1035	0.2694	1068.35	3.76
308.15	0.1035	0.3021	1070.39	3.76
308.15	0.1035	0.3342	1072.37	3.77
313.15	0.1035	0	1049.03	3.74
313.15	0.1035	0.0348	1051.67	6.44
313.15	0.1035	0.0682	1053.94	3.75
313.15	0.1035	0.1011	1056.05	3.75
313.15	0.1035	0.136	1058.22	3.75
313.15	0.1035	0.1696	1060.28	3.75
313.15	0.1035	0.2037	1062.36	3.75
313.15	0.1035	0.236	1064.3	3.76
313.15	0.1035	0.2694	1066.34	3.76
313.15	0.1035	0.3021	1068.35	3.76
313.15	0.1035	0.3342	1070.3	3.77
293.15	0.1379	0	1074.05	3.74
293.15	0.1379	0.0342	1076.85	3.74
293.15	0.1379	0.0684	1079.41	3.75
293.15	0.1379	0.1018	1081.79	3.75
293.15	0.1379	0.1366	1084.18	3.76
293.15	0.1379	0.1709	1086.49	3.76
293.15	0.1379	0.2033	1088.64	3.77
293.15	0.1379	0.2361	1090.81	3.77
293.15	0.1379	0.2695	1093.02	3.78
293.15	0.1379	0.3016	1095.15	3.78
293.15	0.1379	0.3343	1097.28	3.78
298.15	0.1379	0	1072.65	3.74
298.15	0.1379	0.0342	1075.42	3.74
298.15	0.1379	0.0684	1077.95	3.74
298.15	0.1379	0.1018	1080.3	3.75
298.15	0.1379	0.1366	1082.67	3.75
298.15	0.1379	0.1709	1084.96	3.76
298.15	0.1379	0.2033	1087.1	3.76
298.15	0.1379	0.2361	1089.24	3.77
298.15	0.1379	0.2695	1091.41	3.78
298.15	0.1379	0.3016	1093.52	3.78
298.15	0.1379	0.3343	1095.62	3.78
303.15	0.1379	0	1071.16	3.74
303.15	0.1379	0.0342	1073.89	3.74
303.15	0.1379	0.0684	1076.39	3.74
303.15	0.1379	0.1018	1078.71	3.75
303.15	0.1379	0.1366	1081.05	3.76
303.15	0.1379	0.1709	1083.31	3.76
303.15	0.1379	0.2033	1085.42	3.77
303.15	0.1379	0.2361	1087.53	3.77
303.15	0.1379	0.2695	1089.67	3.78
303.15	0.1379	0.3016	1091.76	3.78
303.15	0.1379	0.3343	1093.84	3.78
308.15	0.1379	0	1069.55	3.74
308.15	0.1379	0.0342	1072.25	3.74
308.15	0.1379	0.0684	1074.71	3.74
308.15	0.1379	0.1018	1077.01	3.75
308.15	0.1379	0.1366	1079.32	3.76
308.15	0.1379	0.1709	1081.55	3.76
308.15	0.1379	0.2033	1083.64	3.77
308.15	0.1379	0.2361	1085.73	3.78
308.15	0.1379	0.2695	1087.84	3.78
308.15	0.1379	0.3016	1089.9	3.78
308.15	0.1379	0.3343	1091.97	3.79
313.15	0.1379	0	1067.85	3.74
313.15	0.1379	0.0342	1070.51	3.74
313.15	0.1379	0.0684	1072.93	3.74
313.15	0.1379	0.1018	1075.2	3.75
313.15	0.1379	0.1366	1077.48	3.76
313.15	0.1379	0.1709	1079.69	3.77
313.15	0.1379	0.2033	1081.75	3.77
313.15	0.1379	0.2361	1083.82	3.78
313.15	0.1379	0.2695	1085.91	3.79
313.15	0.1379	0.3016	1087.95	3.79
313.15	0.1379	0.3343	1089.99	3.79
293.15	0	0.0363	1000.86	3.02
293.15	0	0.0687	1003.08	3.02
293.15	0	0.1026	1005.3	3.02
293.15	0	0.1384	1007.57	3.02
293.15	0	0.1716	1009.63	3.02
293.15	0	0.2049	1011.67	3.02
293.15	0	0.2391	1013.72	3.02
293.15	0	0.2718	1015.68	3.02
293.15	0	0.3034	1017.53	3.02
293.15	0	0.3375	1019.54	3.02
298.15	0	0.0363	999.65	3.02
298.15	0	0.0687	1001.82	3.02
298.15	0	0.1026	1003.99	3.02
298.15	0	0.1384	1006.22	3.02
298.15	0	0.1716	1008.23	3.02
298.15	0	0.2049	1010.23	3.02
298.15	0	0.2391	1012.24	3.02
298.15	0	0.2718	1014.17	3.02
298.15	0	0.3034	1016	3.02
298.15	0	0.3375	1017.98	3.02
303.15	0	0.0363	998.2	3.02
303.15	0	0.0687	1000.33	3.02
303.15	0	0.1026	1002.46	3.02
303.15	0	0.1384	1004.64	3.02
303.15	0	0.1716	1006.63	3.02
303.15	0	0.2049	1008.6	3.02
303.15	0	0.2391	1010.58	3.02
303.15	0	0.2718	1012.47	3.02
303.15	0	0.3034	1014.26	3.02
303.15	0	0.3375	1016.21	3.02
308.15	0	0.0363	996.54	3.02
308.15	0	0.0687	998.63	3.02
308.15	0	0.1026	1000.73	3.02
308.15	0	0.1384	1002.87	3.02
308.15	0	0.1716	1004.82	3.02
308.15	0	0.2049	1006.76	3.02
308.15	0	0.2391	1008.7	3.02
308.15	0	0.2718	1010.58	3.02
308.15	0	0.3034	1012.34	3.02
308.15	0	0.3375	1014.25	3.02
313.15	0	0.0363	994.68	3.02
313.15	0	0.0687	996.73	3.02
313.15	0	0.1026	998.8	3.02
313.15	0	0.1384	1000.91	3.02
313.15	0	0.1716	1002.83	3.02
313.15	0	0.2049	1004.74	3.02
313.15	0	0.2391	1006.66	3.02
313.15	0	0.2718	1008.5	3.02
313.15	0	0.3034	1010.24	3.02
313.15	0	0.3375	1012.13	3.02
