Measured thermophysical data. Temperature and concentration dependence of the relative permittivity of (1,3-butanediol + 1-octanol or 1,4-dioxane) binary liquid mixtures
Source: J. Chem. Thermodyn., 2013, 10.1016/j.jct.2013.07.003
Compound 1: 1,3-butanediol, C4H10O2, InChI=1S/C4H10O2/c1-4(6)2-3-5/h4-6H,2-3H2,1H3, purity 99%
Compound 2: octan-1-ol, C8H18O, InChI=1S/C8H18O/c1-2-3-4-5-6-7-8-9/h9H,2-8H2,1H3, purity 99%
Compound 3: 1,4-dioxane, C4H8O2, InChI=1S/C4H8O2/c1-2-6-4-3-5-1/h1-4H2, purity 99.5%

System: 1,3-butanediol; phases: Liquid
Property: Mass density, kg/m3 (Liquid); method: Vibrating tube method
Temperature, K	Pressure, kPa	Mass density, kg/m3	uncertainty
298.2	101.325	1001.2	0.24

System: 1,3-butanediol; phases: Liquid
Fixed: Pressure, kPa = 101.325
Property: Refractive index (Na D-line) (Liquid); method: Standard Abbe refractometry
Temperature, K	Refractive index (Na D-line)	uncertainty
298.2	1.4384	0.0005
303.2	1.4371	0.0005
308.2	1.4356	0.0005
313.2	1.4341	0.0005
318.2	1.4328	0.0005

System: 1,3-butanediol; phases: Liquid
Fixed: Pressure, kPa = 101
Fixed: Frequency, MHz = 0.1
Property: Relative permittivity at various frequencies (Liquid); method: Coaxial cylinder capacitor
Temperature, K	Relative permittivity at various frequencies	uncertainty
298.2	28.52	0.04
303.2	27.66	0.04
308.2	26.77	0.04
313.2	25.98	0.04
318.2	25.22	0.04

System: octan-1-ol; phases: Liquid
Property: Mass density, kg/m3 (Liquid); method: Vibrating tube method
Temperature, K	Pressure, kPa	Mass density, kg/m3	uncertainty
298.2	101.325	821.69	0.24

System: octan-1-ol; phases: Liquid
Fixed: Pressure, kPa = 101.325
Property: Refractive index (Na D-line) (Liquid); method: Standard Abbe refractometry
Temperature, K	Refractive index (Na D-line)	uncertainty
298.2	1.4276	0.0005
303.2	1.4254	0.0005
308.2	1.423	0.0005
313.2	1.4205	0.0005
318.2	1.4184	0.0005

System: octan-1-ol; phases: Liquid
Fixed: Pressure, kPa = 101
Fixed: Frequency, MHz = 0.1
Property: Relative permittivity at various frequencies (Liquid); method: Coaxial cylinder capacitor
Temperature, K	Relative permittivity at various frequencies	uncertainty
298.2	9.81	0.03
303.2	9.38	0.03
308.2	8.94	0.03
313.2	8.52	0.03
318.2	8.11	0.03

System: 1,4-dioxane; phases: Liquid
Property: Mass density, kg/m3 (Liquid); method: Vibrating tube method
Temperature, K	Pressure, kPa	Mass density, kg/m3	uncertainty
298.2	101.325	1027.89	0.12

System: 1,4-dioxane; phases: Liquid
Fixed: Pressure, kPa = 101.325
Property: Refractive index (Na D-line) (Liquid); method: Standard Abbe refractometry
Temperature, K	Refractive index (Na D-line)	uncertainty
298.2	1.4201	0.0005
303.2	1.4174	0.0005
308.2	1.4145	0.0005
313.2	1.4118	0.0005
318.2	1.4088	0.0005

System: 1,4-dioxane; phases: Liquid
Fixed: Pressure, kPa = 101
Fixed: Frequency, MHz = 0.1
Property: Relative permittivity at various frequencies (Liquid); method: Coaxial cylinder capacitor
Temperature, K	Relative permittivity at various frequencies	uncertainty
298.2	2.23	0.02
303.2	2.22	0.02
308.2	2.21	0.02
313.2	2.2	0.02
318.2	2.19	0.02

System: 1,3-butanediol + octan-1-ol; phases: Liquid
Fixed: Pressure, kPa = 101
Property: Refractive index (Na D-line) (Liquid); method: Standard Abbe refractometry
Temperature, K	Mole fraction of 1,3-butanediol	Refractive index (Na D-line)	uncertainty
298.2	0	1.4276	0.0005
298.2	0.105	1.4279	0.0005
298.2	0.2	1.4283	0.0005
298.2	0.301	1.4288	0.0005
298.2	0.401	1.4295	0.0005
298.2	0.45	1.43	0.0005
298.2	0.501	1.4305	0.0005
298.2	0.55	1.4311	0.0005
298.2	0.6	1.4316	0.0005
298.2	0.66	1.4325	0.0005
298.2	0.7	1.4331	0.0005
298.2	0.801	1.4347	0.0005
298.2	0.9	1.4364	0.0005
298.2	0.95	1.4373	0.0005
298.2	1	1.4384	0.0005
303.2	0	1.4254	0.0005
303.2	0.105	1.4257	0.0005
303.2	0.2	1.4261	0.0005
303.2	0.301	1.4268	0.0005
303.2	0.401	1.4275	0.0005
303.2	0.45	1.4281	0.0005
303.2	0.501	1.4286	0.0005
303.2	0.55	1.4292	0.0005
303.2	0.6	1.4298	0.0005
303.2	0.66	1.4307	0.0005
303.2	0.7	1.4314	0.0005
303.2	0.801	1.4331	0.0005
303.2	0.9	1.4349	0.0005
303.2	0.95	1.4359	0.0005
303.2	1	1.4371	0.0005
308.2	0	1.423	0.0005
308.2	0.105	1.4233	0.0005
308.2	0.2	1.4238	0.0005
308.2	0.301	1.4245	0.0005
308.2	0.401	1.4253	0.0005
308.2	0.45	1.4259	0.0005
308.2	0.501	1.4265	0.0005
308.2	0.55	1.4272	0.0005
308.2	0.6	1.4278	0.0005
308.2	0.66	1.4288	0.0005
308.2	0.7	1.4295	0.0005
308.2	0.801	1.4313	0.0005
308.2	0.9	1.4332	0.0005
308.2	0.95	1.4343	0.0005
308.2	1	1.4356	0.0005
313.2	0	1.4205	0.0005
313.2	0.105	1.4209	0.0005
313.2	0.2	1.4215	0.0005
313.2	0.301	1.4223	0.0005
313.2	0.401	1.4232	0.0005
313.2	0.45	1.4239	0.0005
313.2	0.501	1.4245	0.0005
313.2	0.55	1.4253	0.0005
313.2	0.6	1.426	0.0005
313.2	0.66	1.427	0.0005
313.2	0.7	1.4278	0.0005
313.2	0.801	1.4298	0.0005
313.2	0.9	1.4318	0.0005
313.2	0.95	1.4329	0.0005
313.2	1	1.4341	0.0005
318.2	0	1.4184	0.0005
318.2	0.105	1.4189	0.0005
318.2	0.2	1.4195	0.0005
318.2	0.301	1.4204	0.0005
318.2	0.401	1.4213	0.0005
318.2	0.45	1.4221	0.0005
318.2	0.501	1.4227	0.0005
318.2	0.55	1.4236	0.0005
318.2	0.6	1.4245	0.0005
318.2	0.66	1.4255	0.0005
318.2	0.7	1.4262	0.0005
318.2	0.801	1.4283	0.0005
318.2	0.9	1.4304	0.0005
318.2	0.95	1.4315	0.0005
318.2	1	1.4328	0.0005

System: 1,3-butanediol + octan-1-ol; phases: Liquid
Fixed: Pressure, kPa = 101
Fixed: Frequency, MHz = 0.1
Property: Relative permittivity at various frequencies (Liquid); method: Coaxial cylinder capacitor
Temperature, K	Mole fraction of 1,3-butanediol	Relative permittivity at various frequencies	uncertainty
298.2	0	9.81	0.03
298.2	0.105	10.43	0.03
298.2	0.2	11.24	0.03
298.2	0.301	12.31	0.03
298.2	0.401	13.6	0.03
298.2	0.45	14.39	0.03
298.2	0.501	15.23	0.03
298.2	0.55	16.1	0.03
298.2	0.6	17.05	0.03
298.2	0.66	18.34	0.03
298.2	0.7	19.31	0.03
298.2	0.801	21.99	0.04
298.2	0.9	25.05	0.04
298.2	0.95	26.73	0.04
298.2	1	28.52	0.04
303.2	0	9.38	0.03
303.2	0.105	9.99	0.03
303.2	0.2	10.8	0.03
303.2	0.301	11.86	0.03
303.2	0.401	13.15	0.03
303.2	0.45	13.92	0.03
303.2	0.501	14.73	0.03
303.2	0.55	15.6	0.03
303.2	0.6	16.52	0.03
303.2	0.66	17.77	0.03
303.2	0.7	18.77	0.03
303.2	0.801	21.34	0.04
303.2	0.9	24.33	0.04
303.2	0.95	25.9	0.04
303.2	1	27.66	0.04
308.2	0	8.94	0.03
308.2	0.105	9.56	0.03
308.2	0.2	10.32	0.03
308.2	0.301	11.36	0.03
308.2	0.401	12.62	0.03
308.2	0.45	13.39	0.03
308.2	0.501	14.21	0.03
308.2	0.55	15.04	0.03
308.2	0.6	15.93	0.03
308.2	0.66	17.13	0.03
308.2	0.7	18.02	0.03
308.2	0.801	20.58	0.03
308.2	0.9	23.43	0.04
308.2	0.95	25.07	0.04
308.2	1	26.77	0.04
313.2	0	8.52	0.03
313.2	0.105	9.1	0.03
313.2	0.2	9.91	0.03
313.2	0.301	10.95	0.03
313.2	0.401	12.19	0.03
313.2	0.45	12.94	0.03
313.2	0.501	13.75	0.03
313.2	0.55	14.53	0.03
313.2	0.6	15.42	0.03
313.2	0.66	16.57	0.03
313.2	0.7	17.46	0.03
313.2	0.801	20.02	0.03
313.2	0.9	22.79	0.03
313.2	0.95	24.31	0.04
313.2	1	25.98	0.04
318.2	0	8.11	0.03
318.2	0.105	8.74	0.02
318.2	0.2	9.5	0.02
318.2	0.301	10.54	0.02
318.2	0.401	11.76	0.03
318.2	0.45	12.49	0.03
318.2	0.501	13.27	0.03
318.2	0.55	14.06	0.03
318.2	0.6	14.92	0.03
318.2	0.66	16.07	0.03
318.2	0.7	16.91	0.03
318.2	0.801	19.37	0.03
318.2	0.9	22.1	0.03
318.2	0.95	23.62	0.03
318.2	1	25.22	0.04

System: 1,3-butanediol + 1,4-dioxane; phases: Liquid
Fixed: Pressure, kPa = 101
Property: Refractive index (Na D-line) (Liquid); method: Standard Abbe refractometry
Temperature, K	Mole fraction of 1,3-butanediol	Refractive index (Na D-line)	uncertainty
298.2	0	1.4201	0.0005
298.2	0.103	1.4217	0.0005
298.2	0.204	1.4235	0.0005
298.2	0.301	1.425	0.0005
298.2	0.401	1.4268	0.0005
298.2	0.451	1.4279	0.0005
298.2	0.5	1.4287	0.0005
298.2	0.548	1.4296	0.0005
298.2	0.61	1.431	0.0005
298.2	0.699	1.4325	0.0005
298.2	0.788	1.4342	0.0005
298.2	0.897	1.4363	0.0005
298.2	0.951	1.4374	0.0005
298.2	1	1.4384	0.0005
303.2	0	1.4174	0.0005
303.2	0.103	1.4195	0.0005
303.2	0.204	1.4213	0.0005
303.2	0.301	1.423	0.0005
303.2	0.401	1.425	0.0005
303.2	0.451	1.4258	0.0005
303.2	0.5	1.4267	0.0005
303.2	0.548	1.4275	0.0005
303.2	0.61	1.4285	0.0005
303.2	0.699	1.4308	0.0005
303.2	0.788	1.4326	0.0005
303.2	0.897	1.4348	0.0005
303.2	0.951	1.4361	0.0005
303.2	1	1.4371	0.0005
308.2	0	1.4145	0.0005
308.2	0.103	1.4165	0.0005
308.2	0.204	1.4183	0.0005
308.2	0.301	1.4202	0.0005
308.2	0.401	1.4222	0.0005
308.2	0.451	1.4233	0.0005
308.2	0.5	1.4243	0.0005
308.2	0.548	1.4255	0.0005
308.2	0.61	1.4262	0.0005
308.2	0.699	1.4285	0.0005
308.2	0.788	1.4303	0.0005
308.2	0.897	1.4333	0.0005
308.2	0.951	1.4347	0.0005
308.2	1	1.4356	0.0005
313.2	0	1.4118	0.0005
313.2	0.103	1.414	0.0005
313.2	0.204	1.4161	0.0005
313.2	0.301	1.418	0.0005
313.2	0.401	1.4202	0.0005
313.2	0.451	1.4213	0.0005
313.2	0.5	1.4222	0.0005
313.2	0.548	1.423	0.0005
313.2	0.61	1.4242	0.0005
313.2	0.699	1.4267	0.0005
313.2	0.788	1.4287	0.0005
313.2	0.897	1.4314	0.0005
313.2	0.951	1.4329	0.0005
313.2	1	1.4341	0.0005
318.2	0	1.4088	0.0005
318.2	0.103	1.4112	0.0005
318.2	0.204	1.4136	0.0005
318.2	0.301	1.4155	0.0005
318.2	0.401	1.4177	0.0005
318.2	0.451	1.419	0.0005
318.2	0.5	1.42	0.0005
318.2	0.548	1.4209	0.0005
318.2	0.61	1.4221	0.0005
318.2	0.699	1.4247	0.0005
318.2	0.788	1.4269	0.0005
318.2	0.897	1.4297	0.0005
318.2	0.951	1.4313	0.0005
318.2	1	1.4328	0.0005

System: 1,3-butanediol + 1,4-dioxane; phases: Liquid
Fixed: Pressure, kPa = 101
Fixed: Frequency, MHz = 0.1
Property: Relative permittivity at various frequencies (Liquid); method: Coaxial cylinder capacitor
Temperature, K	Mole fraction of 1,3-butanediol	Relative permittivity at various frequencies	uncertainty
298.2	0	2.23	0.02
298.2	0.103	3.36	0.02
298.2	0.204	4.91	0.02
298.2	0.301	6.73	0.02
298.2	0.401	8.96	0.02
298.2	0.451	10.17	0.02
298.2	0.5	11.44	0.02
298.2	0.548	12.76	0.02
298.2	0.61	14.6	0.03
298.2	0.699	17.46	0.03
298.2	0.788	20.41	0.03
298.2	0.897	24.35	0.03
298.2	0.951	26.42	0.04
298.2	1	28.52	0.04
303.2	0	2.22	0.02
303.2	0.103	3.34	0.02
303.2	0.204	4.85	0.02
303.2	0.301	6.64	0.02
303.2	0.401	8.82	0.02
303.2	0.451	10	0.02
303.2	0.5	11.23	0.02
303.2	0.548	12.5	0.02
303.2	0.61	14.3	0.02
303.2	0.699	17.03	0.03
303.2	0.788	19.88	0.03
303.2	0.897	23.72	0.03
303.2	0.951	25.72	0.04
303.2	1	27.66	0.04
308.2	0	2.21	0.02
308.2	0.103	3.32	0.02
308.2	0.204	4.79	0.02
308.2	0.301	6.54	0.02
308.2	0.401	8.66	0.02
308.2	0.451	9.83	0.02
308.2	0.5	11.02	0.02
308.2	0.548	12.25	0.02
308.2	0.61	13.94	0.02
308.2	0.699	16.58	0.03
308.2	0.788	19.36	0.03
308.2	0.897	23.02	0.03
308.2	0.951	24.98	0.04
308.2	1	26.77	0.04
313.2	0	2.2	0.02
313.2	0.103	3.3	0.02
313.2	0.204	4.72	0.02
313.2	0.301	6.45	0.02
313.2	0.401	8.52	0.02
313.2	0.451	9.67	0.02
313.2	0.5	10.85	0.02
313.2	0.548	12.03	0.02
313.2	0.61	13.63	0.02
313.2	0.699	16.15	0.03
313.2	0.788	18.88	0.03
313.2	0.897	22.41	0.03
313.2	0.951	24.29	0.03
313.2	1	25.98	0.04
318.2	0	2.19	0.02
318.2	0.103	3.28	0.02
318.2	0.204	4.67	0.02
318.2	0.301	6.38	0.02
318.2	0.401	8.38	0.02
318.2	0.451	9.5	0.02
318.2	0.5	10.61	0.02
318.2	0.548	11.77	0.02
318.2	0.61	13.3	0.02
318.2	0.699	15.73	0.02
318.2	0.788	18.38	0.03
318.2	0.897	21.79	0.03
318.2	0.951	23.61	0.03
318.2	1	25.22	0.04
