Measured thermophysical data. Solubilities of CO2, H2, N2 and O2 in ionic liquid 1-n-butyl-3-methylimidazolium heptafluorobutyrate
Source: J. Chem. Thermodyn., 2013, 10.1016/j.jct.2012.11.030
Compound 1: 1-butyl-3-methylimidazolium tetrafluoroborate, C8H15BF4N2, InChI=1S/C8H15N2.BF4/c1-3-4-5-10-7-6-9(2)8-10;2-1(3,4)5/h6-8H,3-5H2,1-2H3;/q+1;-1, purity 99%
Compound 2: 1-butyl-3-methylimidazolium bis(trifluoromethylsulfonyl)imide, C10H15F6N3O4S2, InChI=1S/C8H15N2.C2F6NO4S2/c1-3-4-5-10-7-6-9(2)8-10;3-1(4,5)14(10,11)9-15(12,13)2(6,7)8/h6-8H,3-5H2,1-2H3;/q+1;-1, purity 99%
Compound 3: carbon dioxide, CO2, InChI=1S/CO2/c2-1-3, purity 99.995%
Compound 4: hydrogen, H2, InChI=1S/H2/h1H, purity 99.999%
Compound 5: nitrogen, N2, InChI=1S/N2/c1-2, purity 99.99%
Compound 6: oxygen, O2, InChI=1S/O2/c1-2, purity 99.95%
Compound 7: 1-butyl-3-methylimidazolium heptafluorobutanate, C12H15F7N2O2, InChI=1S/C8H15N2.C4HF7O2/c1-3-4-5-10-7-6-9(2)8-10;5-2(6,1(12)13)3(7,8)4(9,10)11/h6-8H,3-5H2,1-2H3;(H,12,13)/q+1;/p-1, purity 99%

System: carbon dioxide + 1-butyl-3-methylimidazolium tetrafluoroborate; phases: Liquid, Gas
Fixed: Temperature, K = 323.15
Property: Molality, mol/kg of carbon dioxide (Liquid); method: gravimetric method
Pressure, kPa	Molality, mol/kg of carbon dioxide	uncertainty
380	0.1823	0.0029
1160	0.5636	0.0092
2060	0.9701	0.0155
2730	1.3036	0.0213
3410	1.7234	0.0282
3970	1.9651	0.0321

System: carbon dioxide + 1-butyl-3-methylimidazolium bis(trifluoromethylsulfonyl)imide; phases: Liquid, Gas
Fixed: Temperature, K = 323.15
Property: Molality, mol/kg of carbon dioxide (Liquid); method: gravimetric method
Pressure, kPa	Molality, mol/kg of carbon dioxide	uncertainty
380	0.2257	0.0036
740	0.4173	0.0068
1730	0.8577	0.0137
2600	1.2957	0.0212
3170	1.6002	0.0261
3630	1.8138	0.0296
4080	2.0491	0.0335

System: carbon dioxide + 1-butyl-3-methylimidazolium heptafluorobutanate; phases: Liquid, Gas
Property: Molality, mol/kg of carbon dioxide (Liquid); method: gravimetric method
Temperature, K	Pressure, kPa	Molality, mol/kg of carbon dioxide	uncertainty
303.15	550	0.3021	0.005
303.15	1120	0.6697	0.0111
303.15	2040	1.261	0.0213
303.15	2770	1.8421	0.0309
303.15	3320	2.2991	0.0389
303.15	3930	2.9741	0.0502
303.15	4240	3.2637	0.055
313.15	580	0.2758	0.0045
313.15	1210	0.5937	0.0099
313.15	2110	1.0886	0.0182
313.15	2890	1.6024	0.0268
313.15	3480	1.9928	0.0333
313.15	3900	2.2787	0.0387
313.15	4210	2.536	0.0429
323.15	610	0.2486	0.0041
323.15	1260	0.5357	0.0089
323.15	2160	0.9664	0.0158
323.15	2910	1.3577	0.0227
323.15	3540	1.7182	0.0286
323.15	3950	1.9303	0.0323
323.15	4200	2.0941	0.0352
333.15	600	0.2152	0.0035
333.15	1290	0.4724	0.0078
333.15	2230	0.8446	0.0138
333.15	2970	1.1603	0.0194
333.15	3460	1.4188	0.0239
333.15	3940	1.6138	0.0271
333.15	4270	1.7552	0.0296

System: hydrogen + 1-butyl-3-methylimidazolium heptafluorobutanate; phases: Liquid, Gas
Property: Molality, mol/kg of hydrogen (Liquid); method: gravimetric method
Temperature, K	Pressure, kPa	Molality, mol/kg of hydrogen	uncertainty
303.15	1460	0.1094	0.0018
303.15	2640	0.1969	0.0032
303.15	4380	0.3268	0.0053
303.15	6020	0.4342	0.0071
303.15	7240	0.5301	0.0087
303.15	8560	0.6326	0.0103
313.15	1500	0.106	0.0017
313.15	2760	0.197	0.0032
313.15	4480	0.3193	0.0052
313.15	6100	0.4352	0.0071
313.15	7360	0.5221	0.0086
313.15	8740	0.6236	0.0101
323.15	1580	0.102	0.0016
323.15	2780	0.1795	0.0029
323.15	4560	0.2942	0.0048
323.15	6180	0.4025	0.0066
323.15	7460	0.483	0.0079
323.15	8800	0.5704	0.0093
333.15	1600	0.0959	0.0015
333.15	2840	0.171	0.0028
333.15	4720	0.2817	0.0046
333.15	6240	0.3776	0.0062
333.15	7560	0.4581	0.0075
333.15	8900	0.5383	0.0088

System: nitrogen + 1-butyl-3-methylimidazolium heptafluorobutanate; phases: Liquid, Gas
Property: Molality, mol/kg of nitrogen (Liquid); method: gravimetric method
Temperature, K	Pressure, kPa	Molality, mol/kg of nitrogen	uncertainty
303.15	2240	0.31	0.005
303.15	4260	0.5457	0.0089
303.15	6540	0.7824	0.0126
303.15	7360	0.8732	0.014
303.15	8300	0.9753	0.0156
313.15	2200	0.2875	0.0046
313.15	4320	0.5226	0.0086
313.15	6480	0.7293	0.0118
313.15	7200	0.8214	0.0132
313.15	8360	0.9423	0.0151
323.15	2260	0.2803	0.0045
323.15	4340	0.4977	0.0082
323.15	6260	0.6737	0.0109
323.15	7320	0.7901	0.0127
323.15	8460	0.8873	0.0143
333.15	2300	0.2619	0.0042
333.15	4460	0.4699	0.0077
333.15	6160	0.6221	0.0101
333.15	7260	0.7315	0.0118
333.15	8420	0.8229	0.0133

System: oxygen + 1-butyl-3-methylimidazolium heptafluorobutanate; phases: Liquid, Gas
Property: Molality, mol/kg of oxygen (Liquid); method: gravimetric method
Temperature, K	Pressure, kPa	Molality, mol/kg of oxygen	uncertainty
303.15	2240	0.2736	0.0044
303.15	4020	0.4973	0.0082
303.15	5360	0.6642	0.0108
303.15	6380	0.8001	0.0129
303.15	7160	0.8954	0.0144
303.15	7820	0.978	0.0157
313.15	2280	0.2661	0.0043
313.15	4120	0.4877	0.008
313.15	5380	0.6371	0.0103
313.15	6520	0.7732	0.0125
313.15	7360	0.8842	0.0142
313.15	8220	0.9788	0.0157
323.15	2340	0.2631	0.0042
323.15	4320	0.4878	0.008
323.15	5500	0.6257	0.0102
323.15	6580	0.7489	0.0121
323.15	7460	0.8468	0.0136
323.15	8440	0.9695	0.0155
333.15	2380	0.256	0.0041
333.15	4360	0.469	0.0077
333.15	5600	0.6069	0.0099
333.15	6700	0.7321	0.0118
333.15	7640	0.8361	0.0134
333.15	8540	0.9418	0.0151
