Measured thermophysical data. Volumetric and transport properties of binary liquid mixtures of N-methylacetamide with lactones at temperatures (303.15 to 318.15) K
Source: J. Chem. Thermodyn., 2008, 10.1016/j.jct.2008.05.004
Compound 1: N-methylacetamide, C3H7NO, InChI=1S/C3H7NO/c1-3(5)4-2/h1-2H3,(H,4,5), purity 99%
Compound 2: .gamma.-butyrolactone, C4H6O2, InChI=1S/C4H6O2/c5-4-2-1-3-6-4/h1-3H2, purity 99%
Compound 3: 1-oxacyclohexan-2-one, C5H8O2, InChI=1S/C5H8O2/c6-5-3-1-2-4-7-5/h1-4H2, purity 99%
Compound 4: 6-hexanolactone, C6H10O2, InChI=1S/C6H10O2/c7-6-4-2-1-3-5-8-6/h1-5H2, purity 99%

System: N-methylacetamide; phases: Liquid
Fixed: Pressure, kPa = 101
Property: Viscosity, Pa*s (Liquid); method: CAPTUB:UFactor:12
Temperature, K	Viscosity, Pa*s	uncertainty
303.15	0.0038224	0.0002533
303.15	0.00382242	0.0002533
308.15	0.0033124	0.0002214
313.15	0.0029041	0.0001957
318.15	0.0026072	0.0001769

System: N-methylacetamide; phases: Liquid
Fixed: Pressure, kPa = 101
Property: Speed of sound, m/s (Liquid); method: LVPAI:UFactor:12
Temperature, K	Speed of sound, m/s	uncertainty
303.15	1367	17
308.15	1362	17
313.15	1334	17
318.15	1319	17

System: N-methylacetamide; phases: Liquid
Fixed: Pressure, kPa = 101
Property: Mass density, kg/m3 (Liquid); method: PYCNOM:UFactor:12
Temperature, K	Mass density, kg/m3	uncertainty
303.15	951.3	3.1
308.15	945.9	3.2
313.15	943.6	3.3
318.15	939.9	3.4

System: .gamma.-butyrolactone; phases: Liquid
Fixed: Pressure, kPa = 101
Property: Viscosity, Pa*s (Liquid); method: CAPTUB::UFactor:12
Temperature, K	Viscosity, Pa*s	uncertainty
303.15	0.001545	0.0001092
308.15	0.001429	0.0001018
313.15	0.0013375	9.59e-05
318.15	0.0012342	8.92e-05

System: .gamma.-butyrolactone; phases: Liquid
Fixed: Pressure, kPa = 101
Property: Speed of sound, m/s (Liquid); method: LVPAI::UFactor:12
Temperature, K	Speed of sound, m/s	uncertainty
303.15	1507	19
308.15	1485	18
313.15	1468	18
318.15	1451	18

System: .gamma.-butyrolactone; phases: Liquid
Fixed: Pressure, kPa = 101
Property: Mass density, kg/m3 (Liquid); method: PYCNOM::UFactor:12
Temperature, K	Mass density, kg/m3	uncertainty
303.15	1122.6	3.8
308.15	1117.7	3.9
313.15	1110.3	4
318.15	1106.1	4.1

System: 1-oxacyclohexan-2-one; phases: Liquid
Fixed: Pressure, kPa = 101
Property: Viscosity, Pa*s (Liquid); method: CAPTUB::UFactor:12
Temperature, K	Viscosity, Pa*s	uncertainty
303.15	0.0027577	0.0001864
308.15	0.0024957	0.0001698
313.15	0.002313	0.0001582
318.15	0.0021191	0.0001459

System: 1-oxacyclohexan-2-one; phases: Liquid
Fixed: Pressure, kPa = 101
Property: Speed of sound, m/s (Liquid); method: LVPAI::UFactor:12
Temperature, K	Speed of sound, m/s	uncertainty
303.15	1547	19
308.15	1529	19
313.15	1508	19
318.15	1492	19

System: 1-oxacyclohexan-2-one; phases: Liquid
Fixed: Pressure, kPa = 101
Property: Mass density, kg/m3 (Liquid); method: PYCNOM::UFactor:12
Temperature, K	Mass density, kg/m3	uncertainty
303.15	1075.3	3.6
308.15	1069.83	3.7
313.15	1065.1	3.8
318.15	1060.4	3.9

System: 6-hexanolactone; phases: Liquid
Fixed: Pressure, kPa = 101
Property: Viscosity, Pa*s (Liquid); method: CAPTUB::UFactor:12
Temperature, K	Viscosity, Pa*s	uncertainty
303.15	0.0048852	0.0003192
308.15	0.0043237	0.0002845
313.15	0.0038182	0.000253
318.15	0.0034203	0.0002281

System: 6-hexanolactone; phases: Liquid
Fixed: Pressure, kPa = 101
Property: Speed of sound, m/s (Liquid); method: LVPAI::UFactor:12
Temperature, K	Speed of sound, m/s	uncertainty
303.15	1522	19
308.15	1515	19
313.15	1491	19
318.15	1477	18

System: 6-hexanolactone; phases: Liquid
Fixed: Pressure, kPa = 101
Property: Mass density, kg/m3 (Liquid); method: PYCNOM::UFactor:16
Temperature, K	Mass density, kg/m3	uncertainty
303.15	1029.4	4.5
308.15	1025.43	4.62
313.15	1022.6	4.8
318.15	1017.1	4.9

System: N-methylacetamide + .gamma.-butyrolactone; phases: Liquid
Fixed: Pressure, kPa = 101
Property: Viscosity, Pa*s (Liquid); method: CAPTUB:UFactor:12
Temperature, K	Mole fraction of N-methylacetamide	Viscosity, Pa*s	uncertainty
303.15	0	0.001545	0.0001092
303.15	0.0549	0.00151554	0.00010732
303.15	0.1816	0.00158618	0.00011185
303.15	0.2715	0.00164226	0.00011544
303.15	0.3602	0.00171873	0.00012034
303.15	0.4477	0.0018204	0.0001268
303.15	0.5352	0.00198992	0.00013766
303.15	0.6411	0.00221505	0.000152
303.15	0.7239	0.00244971	0.00016691
303.15	0.9033	0.00314738	0.000211
303.15	1	0.0038224	0.0002533
308.15	0	0.001429	0.0001018
308.15	0.0549	0.00140806	0.00010042
308.15	0.1816	0.0014523	0.0001033
308.15	0.2715	0.00151029	0.00010698
308.15	0.3602	0.00157174	0.00011092
308.15	0.4477	0.00166221	0.00011672
308.15	0.5352	0.00177979	0.00012424
308.15	0.6411	0.00197879	0.00013695
308.15	0.7239	0.00217762	0.00014962
308.15	0.9033	0.00279913	0.00018904
308.15	1	0.0033124	0.0002214
313.15	0	0.0013375	9.59e-05
313.15	0.0549	0.00133789	9.592e-05
313.15	0.1816	0.00134325	9.626e-05
313.15	0.2715	0.00139271	9.944e-05
313.15	0.3602	0.00144663	0.0001029
313.15	0.4477	0.00152083	0.00010766
313.15	0.5352	0.00162629	0.00011442
313.15	0.6411	0.00180469	0.00012583
313.15	0.7239	0.00196733	0.00013622
313.15	0.9033	0.00251543	0.00017108
313.15	1	0.0029041	0.0001957
318.15	0	0.0012342	8.92e-05
318.15	0.0549	0.00121337	8.791e-05
318.15	0.1816	0.0012467	9.01e-05
318.15	0.2715	0.00128079	9.224e-05
318.15	0.3602	0.00133354	9.564e-05
318.15	0.4477	0.00140308	0.0001001
318.15	0.5352	0.00151361	0.0001072
318.15	0.6411	0.00166499	0.0001169
318.15	0.7239	0.00180022	0.00012555
318.15	0.9033	0.00222611	0.00015271
318.15	1	0.0026072	0.0001769

System: N-methylacetamide + .gamma.-butyrolactone; phases: Liquid
Fixed: Pressure, kPa = 101
Property: Speed of sound, m/s (Liquid); method: LVPAI:UFactor:12
Temperature, K	Mole fraction of N-methylacetamide	Speed of sound, m/s	uncertainty
303.15	0	1507	19
303.15	0.0549	1505	19
303.15	0.1816	1490	19
303.15	0.2715	1482	18
303.15	0.3602	1473	18
303.15	0.4477	1459	18
303.15	0.5352	1447	18
303.15	0.6411	1430	18
303.15	0.7239	1416	18
303.15	0.9033	1390	18
303.15	1	1367	17
308.15	0	1485	18
308.15	0.0549	1480	18
308.15	0.1816	1466	18
308.15	0.2715	1456	18
308.15	0.3602	1446	18
308.15	0.4477	1436	18
308.15	0.5352	1424	18
308.15	0.6411	1411	18
308.15	0.7239	1400	18
308.15	0.9033	1376	17
308.15	1	1362	17
313.15	0	1468	18
313.15	0.0549	1463	18
313.15	0.1816	1449	18
313.15	0.2715	1439	18
313.15	0.3602	1428	18
313.15	0.4477	1416	18
313.15	0.5352	1405	18
313.15	0.6411	1390	18
313.15	0.7239	1378	17
313.15	0.9033	1351	17
313.15	1	1334	17
318.15	0	1451	18
318.15	0.0549	1446	18
318.15	0.1816	1433	18
318.15	0.2715	1422	18
318.15	0.3602	1412	18
318.15	0.4477	1401	18
318.15	0.5352	1389	18
318.15	0.6411	1374	17
318.15	0.7239	1362	17
318.15	0.9033	1334	17
318.15	1	1319	17

System: N-methylacetamide + .gamma.-butyrolactone; phases: Liquid
Fixed: Pressure, kPa = 101
Property: Mass density, kg/m3 (Liquid); method: PYCNOM:UFactor:12
Temperature, K	Mole fraction of N-methylacetamide	Mass density, kg/m3	uncertainty
303.15	0	1122.6	3.8
303.15	0.0549	1114.29	3.74
303.15	0.1816	1093.46	3.66
303.15	0.2715	1078.96	3.6
303.15	0.3602	1064.43	3.54
303.15	0.4477	1050.02	3.48
303.15	0.5352	1035.12	3.41
303.15	0.6411	1016.74	3.34
303.15	0.7239	1002.12	3.28
303.15	0.9033	969.19	3.14
303.15	1	951.3	3.1
308.15	0	1117.7	3.9
308.15	0.0549	1108.86	3.86
308.15	0.1816	1088.11	3.77
308.15	0.2715	1073.71	3.71
308.15	0.3602	1059.08	3.65
308.15	0.4477	1044.76	3.59
308.15	0.5352	1030.07	3.53
308.15	0.6411	1011.63	3.46
308.15	0.7239	996.85	3.4
308.15	0.9033	963.84	3.26
308.15	1	945.9	3.2
313.15	0	1110.3	4
313.15	0.0549	1101.49	3.97
313.15	0.1816	1081.47	3.88
313.15	0.2715	1067.13	3.83
313.15	0.3602	1052.92	3.77
313.15	0.4477	1038.67	3.71
313.15	0.5352	1024.32	3.65
313.15	0.6411	1006.52	3.58
313.15	0.7239	992.34	3.52
313.15	0.9033	961.02	3.39
313.15	1	943.6	3.3
318.15	0	1106.1	4.1
318.15	0.0549	1098.01	4.09
318.15	0.1816	1077.91	4.01
318.15	0.2715	1063.62	3.95
318.15	0.3602	1049.18	3.89
318.15	0.4477	1034.76	3.83
318.15	0.5352	1020.32	3.77
318.15	0.6411	1002.54	3.7
318.15	0.7239	988.41	3.64
318.15	0.9033	957.21	3.51
318.15	1	939.9	3.4

System: N-methylacetamide + 1-oxacyclohexan-2-one; phases: Liquid
Fixed: Pressure, kPa = 101
Property: Viscosity, Pa*s (Liquid); method: CAPTUB:UFactor:12
Temperature, K	Mole fraction of N-methylacetamide	Viscosity, Pa*s	uncertainty
303.15	0	0.0027577	0.0001864
303.15	0.0818	0.00264787	0.00017947
303.15	0.2377	0.00249356	0.00016969
303.15	0.3396	0.00239337	0.00016333
303.15	0.4641	0.00235231	0.00016073
303.15	0.5194	0.00238894	0.00016305
303.15	0.717	0.00260727	0.0001769
303.15	0.7962	0.00278231	0.00018797
303.15	0.8929	0.00310832	0.00020853
303.15	0.9596	0.00351185	0.00023388
303.15	1	0.00382242	0.0002533
308.15	0	0.0024957	0.0001698
308.15	0.0818	0.00241247	0.00016455
308.15	0.2377	0.00228757	0.00015661
308.15	0.3396	0.00219948	0.00015101
308.15	0.4641	0.00220324	0.00015125
308.15	0.5194	0.00222245	0.00015247
308.15	0.717	0.00242239	0.00016518
308.15	0.7962	0.00258324	0.00017538
308.15	0.8929	0.00289578	0.00019514
308.15	0.9596	0.0031248	0.0002096
308.15	1	0.0033124	0.0002214
313.15	0	0.002313	0.0001582
313.15	0.0818	0.00220443	0.00015133
313.15	0.2377	0.00210144	0.00014477
313.15	0.3396	0.00206003	0.00014213
313.15	0.4641	0.00202142	0.00013967
313.15	0.5194	0.00202326	0.00013979
313.15	0.717	0.00216461	0.00014879
313.15	0.7962	0.00230363	0.00015764
313.15	0.8929	0.00255945	0.00017387
313.15	0.9596	0.00276544	0.00018691
313.15	1	0.0029041	0.0001957
318.15	0	0.0021191	0.0001459
318.15	0.0818	0.0020199	0.0001396
318.15	0.2377	0.00191601	0.00013295
318.15	0.3396	0.00186173	0.00012948
318.15	0.4641	0.00184268	0.00012826
318.15	0.5194	0.00186184	0.00012949
318.15	0.717	0.00199381	0.00013791
318.15	0.7962	0.00211066	0.00014536
318.15	0.8929	0.00230041	0.00015743
318.15	0.9596	0.00249087	0.00016952
318.15	1	0.0026072	0.0001769

System: N-methylacetamide + 1-oxacyclohexan-2-one; phases: Liquid
Fixed: Pressure, kPa = 101
Property: Speed of sound, m/s (Liquid); method: LVPAI:UFactor:12
Temperature, K	Mole fraction of N-methylacetamide	Speed of sound, m/s	uncertainty
303.15	0	1547	19
303.15	0.0818	1534	19
303.15	0.2377	1508	19
303.15	0.3396	1491	19
303.15	0.4641	1468	18
303.15	0.5194	1460	18
303.15	0.717	1424	18
303.15	0.7962	1408	18
303.15	0.8929	1390	18
303.15	0.9596	1377	17
303.15	1	1367	17
308.15	0	1529	19
308.15	0.0818	1520	19
308.15	0.2377	1495	19
308.15	0.3396	1481	18
308.15	0.4641	1460	18
308.15	0.5194	1452	18
308.15	0.717	1418	18
308.15	0.7962	1404	18
308.15	0.8929	1389	18
308.15	0.9596	1369	17
308.15	1	1362	17
313.15	0	1508	19
313.15	0.0818	1504	19
313.15	0.2377	1482	18
313.15	0.3396	1463	18
313.15	0.4641	1443	18
313.15	0.5194	1434	18
313.15	0.717	1397	18
313.15	0.7962	1382	18
313.15	0.8929	1360	17
313.15	0.9596	1343	17
313.15	1	1334	17
318.15	0	1492	19
318.15	0.0818	1486	18
318.15	0.2377	1465	18
318.15	0.3396	1448	18
318.15	0.4641	1426	18
318.15	0.5194	1414	18
318.15	0.717	1379	18
318.15	0.7962	1361	17
318.15	0.8929	1342	17
318.15	0.9596	1329	17
318.15	1	1319	17

System: N-methylacetamide + 1-oxacyclohexan-2-one; phases: Liquid
Fixed: Pressure, kPa = 101
Property: Mass density, kg/m3 (Liquid); method: PYCNOM:UFactor:12
Temperature, K	Mole fraction of N-methylacetamide	Mass density, kg/m3	uncertainty
303.15	0	1075.3	3.6
303.15	0.0818	1067.83	3.55
303.15	0.2377	1051.98	3.48
303.15	0.3396	1041.03	3.44
303.15	0.4641	1026.79	3.38
303.15	0.5194	1020.21	3.35
303.15	0.717	994.71	3.25
303.15	0.7962	983.65	3.2
303.15	0.8929	968.86	3.14
303.15	0.9596	958.2	3.1
303.15	1	951.3	3.1
308.15	0	1069.83	3.7
308.15	0.0818	1061.97	3.66
308.15	0.2377	1045.9	3.6
308.15	0.3396	1034.83	3.55
308.15	0.4641	1020.66	3.49
308.15	0.5194	1014.04	3.47
308.15	0.717	988.6	3.4
308.15	0.7962	977.74	3.32
308.15	0.8929	963.53	3.26
308.15	0.9596	952.64	3.21
308.15	1	945.9	3.2
313.15	0	1065.1	3.8
313.15	0.0818	1057.59	3.79
313.15	0.2377	1041.93	3.72
313.15	0.3396	1030.9	3.7
313.15	0.4641	1016.8	3.6
313.15	0.5194	1010.27	3.59
313.15	0.717	985.31	3.49
313.15	0.7962	974.49	3.44
313.15	0.8929	960.59	3.39
313.15	0.9596	950.24	3.34
313.15	1	943.6	3.3
318.15	0	1060.4	3.9
318.15	0.0818	1052.74	3.91
318.15	0.2377	1036.9	3.8
318.15	0.3396	1025.8	3.8
318.15	0.4641	1011.59	3.74
318.15	0.5194	1005.09	3.71
318.15	0.717	980.15	3.61
318.15	0.7962	969.57	3.56
318.15	0.8929	956.11	3.51
318.15	0.9596	946.32	3.47
318.15	1	939.9	3.4

System: N-methylacetamide + 6-hexanolactone; phases: Liquid
Fixed: Pressure, kPa = 101
Property: Viscosity, Pa*s (Liquid); method: CAPTUB:UFactor:12
Temperature, K	Mole fraction of N-methylacetamide	Viscosity, Pa*s	uncertainty
303.15	0	0.0048852	0.0003192
303.15	0.0922	0.00445843	0.00029285
303.15	0.2381	0.00392892	0.00025994
303.15	0.3459	0.00360012	0.0002394
303.15	0.4411	0.00336601	0.00022473
303.15	0.5823	0.00320089	0.00021436
303.15	0.6289	0.00318748	0.00021351
303.15	0.6641	0.00321775	0.00021542
303.15	0.7792	0.0033084	0.0002211
303.15	0.9465	0.00362925	0.00024124
303.15	1	0.00382242	0.0002533
308.15	0	0.0043237	0.0002845
308.15	0.0922	0.00399411	0.00026401
308.15	0.2381	0.00360878	0.00023995
308.15	0.3459	0.00335833	0.00022425
308.15	0.4411	0.00316165	0.00021189
308.15	0.5823	0.00296162	0.00019929
308.15	0.6289	0.00292104	0.00019673
308.15	0.6641	0.00291249	0.00019619
308.15	0.7792	0.00289525	0.00019511
308.15	0.9465	0.00306225	0.00020564
308.15	1	0.0033124	0.0002214
313.15	0	0.0038182	0.000253
313.15	0.0922	0.0035433	0.0002358
313.15	0.2381	0.00313492	0.00021021
313.15	0.3459	0.00294371	0.00019816
313.15	0.4411	0.00276021	0.00018657
313.15	0.5823	0.00260216	0.00017657
313.15	0.6289	0.00255198	0.0001734
313.15	0.6641	0.00253169	0.00017211
313.15	0.7792	0.0025265	0.0001718
313.15	0.9465	0.00277281	0.00018737
313.15	1	0.0029041	0.0001957
318.15	0	0.0034203	0.0002281
318.15	0.0922	0.00318181	0.00021316
318.15	0.2381	0.00276077	0.00018661
318.15	0.3459	0.00261629	0.00017747
318.15	0.4411	0.00247857	0.00016874
318.15	0.5823	0.00237203	0.00016198
318.15	0.6289	0.00232983	0.0001593
318.15	0.6641	0.00234833	0.00016047
318.15	0.7792	0.00234853	0.00016049
318.15	0.9465	0.00245275	0.0001671
318.15	1	0.0026072	0.0001769

System: N-methylacetamide + 6-hexanolactone; phases: Liquid
Fixed: Pressure, kPa = 101
Property: Speed of sound, m/s (Liquid); method: LVPAI:UFactor:12
Temperature, K	Mole fraction of N-methylacetamide	Speed of sound, m/s	uncertainty
303.15	0	1522	19
303.15	0.0922	1511	19
303.15	0.2381	1489	19
303.15	0.3459	1473	18
303.15	0.4411	1460	18
303.15	0.5823	1439	18
303.15	0.6289	1431	18
303.15	0.6641	1425	18
303.15	0.7792	1407	18
303.15	0.9465	1377	17
303.15	1	1367	17
308.15	0	1515	19
308.15	0.0922	1503	19
308.15	0.2381	1483	18
308.15	0.3459	1469	18
308.15	0.4411	1456	18
308.15	0.5823	1435	18
308.15	0.6289	1428	18
308.15	0.6641	1421	18
308.15	0.7792	1402	18
308.15	0.9465	1372	17
308.15	1	1362	17
313.15	0	1491	19
313.15	0.0922	1480	18
313.15	0.2381	1459	18
313.15	0.3459	1445	18
313.15	0.4411	1433	18
313.15	0.5823	1417	18
313.15	0.6289	1406	18
313.15	0.6641	1400	18
313.15	0.7792	1379	18
313.15	0.9465	1345	17
313.15	1	1334	17
318.15	0	1477	18
318.15	0.0922	1466	18
318.15	0.2381	1446	18
318.15	0.3459	1431	18
318.15	0.4411	1416	18
318.15	0.5823	1399	18
318.15	0.6289	1387	18
318.15	0.6641	1383	18
318.15	0.7792	1366	17
318.15	0.9465	1331	17
318.15	1	1319	17

System: N-methylacetamide + 6-hexanolactone; phases: Liquid
Fixed: Pressure, kPa = 101
Property: Mass density, kg/m3 (Liquid); method: PYCNOM:UFactor:16
Temperature, K	Mole fraction of N-methylacetamide	Mass density, kg/m3	uncertainty
303.15	0	1029.4	4.5
303.15	0.0922	1024.57	4.42
303.15	0.2381	1016.52	4.38
303.15	0.3459	1009.89	4.35
303.15	0.4411	1003.47	4.31
303.15	0.5823	993.03	4.26
303.15	0.6289	989.2	4.2
303.15	0.6641	986.09	4.22
303.15	0.7792	975.41	4.16
303.15	0.9465	957.68	4.07
303.15	1	951.3	4
308.15	0	1025.43	4.62
308.15	0.0922	1020.52	4.59
308.15	0.2381	1012.01	4.54
308.15	0.3459	1005.29	4.51
308.15	0.4411	998.91	4.47
308.15	0.5823	988.36	4.42
308.15	0.6289	984.49	4.4
308.15	0.6641	981.45	4.38
308.15	0.7792	970.76	4.32
308.15	0.9465	952.61	4.23
308.15	1	945.9	4.2
313.15	0	1022.6	4.8
313.15	0.0922	1018.61	4.76
313.15	0.2381	1007.48	4.7
313.15	0.3459	1000.78	4.67
313.15	0.4411	992.45	4.62
313.15	0.5823	984.53	4.58
313.15	0.6289	976.44	4.54
313.15	0.6641	968.46	4.5
313.15	0.7792	959.31	4.45
313.15	0.9465	949.21	4.39
313.15	1	943.6	4.4
318.15	0	1017.1	4.9
318.15	0.0922	1013.23	4.92
318.15	0.2381	1002.27	4.86
318.15	0.3459	995.55	4.83
318.15	0.4411	987.21	4.78
318.15	0.5823	979.08	4.74
318.15	0.6289	971.47	4.7
318.15	0.6641	963.77	4.66
318.15	0.7792	955.35	4.61
318.15	0.9465	945.43	4.56
318.15	1	939.9	4.5
