Measured thermophysical data. (Liquid + liquid) equilibria of (water + propionic acid + dimethyl phthalate) at several temperatures
Source: J. Chem. Thermodyn., 2005, 10.1016/j.jct.2004.12.003
Compound 1: propanoic acid, C3H6O2, InChI=1S/C3H6O2/c1-2-3(4)5/h2H2,1H3,(H,4,5), purity 99%
Compound 2: dimethyl 1,2-benzenedicarboxylate, C10H10O4, InChI=1S/C10H10O4/c1-13-9(11)7-5-3-4-6-8(7)10(12)14-2/h3-6H,1-2H3, purity 99%
Compound 3: water, H2O, InChI=1S/H2O/h1H2

System: propanoic acid; phases: Liquid, Gas
Property: Normal boiling temperature, K (Liquid); method: DISTILL:FP
Normal boiling temperature, K	uncertainty
414.1	0.08

System: propanoic acid; phases: Liquid
Property: Refractive index (Na D-line) (Liquid); method: Standard Abbe refractometry
Temperature, K	Pressure, kPa	Refractive index (Na D-line)	uncertainty
293.15	101.325	1.3811	0.0011

System: propanoic acid; phases: Liquid
Property: Mass density, kg/m3 (Liquid); method: VIBTUB:UFactor:4
Temperature, K	Pressure, kPa	Mass density, kg/m3	uncertainty
293.15	101.325	992.7	0.5

System: dimethyl 1,2-benzenedicarboxylate; phases: Liquid, Gas
Property: Normal boiling temperature, K (Liquid); method: DISTILL:FP
Normal boiling temperature, K	uncertainty
557.08	0.08

System: dimethyl 1,2-benzenedicarboxylate; phases: Liquid
Property: Refractive index (Na D-line) (Liquid); method: Standard Abbe refractometry
Temperature, K	Pressure, kPa	Refractive index (Na D-line)	uncertainty
293.15	101.325	1.514	0.0011

System: dimethyl 1,2-benzenedicarboxylate; phases: Liquid
Property: Mass density, kg/m3 (Liquid); method: VIBTUB:UFactor:4
Temperature, K	Pressure, kPa	Mass density, kg/m3	uncertainty
293.15	101.325	1191	0.8

System: propanoic acid + dimethyl 1,2-benzenedicarboxylate + water; phases: Liquid mixture 2, Liquid mixture 1
Fixed: Pressure, kPa = 101
Property: Mass fraction of propanoic acid (Liquid mixture 2); method: CHROM:UFactor:6
Property: Mass fraction of propanoic acid (Liquid mixture 1); method: CHROM:UFactor:6
Property: Mass fraction of water (Liquid mixture 1); method: CHROM:UFactor:6
Temperature, K	Mass fraction of water	Mass fraction of propanoic acid	uncertainty	Mass fraction of propanoic acid	uncertainty	Mass fraction of water	uncertainty
298.2	0.0457	0.0674	0.0042	0.055	0.0033	0.9393	
298.2	0.0516	0.0942	0.0058	0.0813	0.0049	0.9103	
298.2	0.0919	0.1672	0.0101	0.1097	0.0066	0.8819	
298.2	0.1027	0.1998	0.012	0.1429	0.0086	0.8413	
298.2	0.1587	0.259	0.0156	0.1866	0.0112	0.7939	
298.2	0.1763	0.2919	0.0176	0.209	0.0125	0.7589	
303.2	0.0564	0.1003	0.006	0.085	0.0051	0.9062	
303.2	0.0917	0.1654	0.01	0.1306	0.0078	0.8564	
303.2	0.1006	0.1923	0.0116	0.1393	0.0084	0.8453	
303.2	0.1546	0.2734	0.0165	0.2036	0.0122	0.7726	
303.2	0.214	0.299	0.018	0.2223	0.0133	0.7366	
308.2	0.0384	0.0541	0.0033	0.0497	0.003	0.9452	
308.2	0.0906	0.1409	0.0085	0.0861	0.0052	0.904	
308.2	0.1355	0.2275	0.0137	0.1546	0.0093	0.8256	
308.2	0.1679	0.2995	0.018	0.2079	0.0125	0.7656	
308.2	0.2937	0.3055	0.0183	0.2287	0.0138	0.7118	
313.2	0.0449	0.0567	0.0037	0.052	0.0031	0.9375	
313.2	0.0622	0.1116	0.0067	0.0931	0.0056	0.8946	
313.2	0.0881	0.1662	0.0101	0.135	0.0081	0.8525	
313.2	0.1294	0.226	0.0136	0.1617	0.0097	0.8198	
313.2	0.1654	0.2746	0.0166	0.1989	0.0119	0.7736	
313.2	0.3166	0.3125	0.0188	0.2428	0.0146	0.7134	

System: propanoic acid + dimethyl 1,2-benzenedicarboxylate + water; phases: Liquid mixture 1, Liquid mixture 2
Fixed: Pressure, kPa = 101
Property: Mass fraction of propanoic acid (Liquid mixture 1); method: Titration method
Temperature, K	Mass fraction of water	Mass fraction of propanoic acid	uncertainty
298.2	0.0298	0.1224	0.006
298.2	0.0862	0.23	0.0093
298.2	0.1062	0.2474	0.0099
298.2	0.1309	0.2798	0.0112
298.2	0.1888	0.3216	0.0129
298.2	0.2531	0.3437	0.0137
298.2	0.3384	0.3516	0.0141
298.2	0.3788	0.344	0.0138
298.2	0.4517	0.3338	0.0134
298.2	0.5176	0.317	0.0127
298.2	0.6755	0.264	0.0106
298.2	0.7097	0.2442	0.0098
303.2	0.0299	0.08	0.0034
303.2	0.0485	0.1436	0.0058
303.2	0.0867	0.2059	0.0083
303.2	0.106	0.2516	0.0101
303.2	0.1598	0.2882	0.0115
303.2	0.1951	0.3146	0.0126
303.2	0.2974	0.3446	0.0138
303.2	0.37	0.3405	0.0136
303.2	0.4615	0.3254	0.013
303.2	0.5184	0.3131	0.0125
303.2	0.6043	0.2863	0.0115
303.2	0.6595	0.2651	0.0106
308.2	0.0941	0.2106	0.0085
308.2	0.1412	0.2656	0.0106
308.2	0.1673	0.2948	0.0118
308.2	0.2025	0.3096	0.0124
308.2	0.2643	0.3368	0.0137
308.2	0.2711	0.3325	0.0133
308.2	0.3605	0.3366	0.0135
308.2	0.4468	0.3258	0.013
308.2	0.5385	0.303	0.0121
308.2	0.5885	0.2887	0.0115
308.2	0.7006	0.2361	0.0094
313.2	0.0514	0.142	0.0727
313.2	0.0538	0.0949	0.0726
313.2	0.0686	0.1435	0.0058
313.2	0.083	0.1826	0.0073
313.2	0.1099	0.25	0.01
313.2	0.1286	0.2685	0.0108
313.2	0.192	0.3034	0.0121
313.2	0.2197	0.3157	0.0126
313.2	0.3011	0.3323	0.0133
313.2	0.381	0.3341	0.0134
313.2	0.4501	0.3241	0.013
313.2	0.556	0.299	0.012
313.2	0.6174	0.2759	0.011
313.2	0.6948	0.2415	0.0097
313.2	0.7179	0.2319	0.0093
