Measured thermophysical data. Thermophysical properties of lithium nitrate + 1-ethyl-3-methylimidazolium diethylphosphate + water system
Source: J. Chem. Thermodyn., 2018, 10.1016/j.jct.2018.07.002
Compound 1: 1-ethyl-3-methylimidazolium diethyl phosphate, C10H21N2O4P, InChI=1S/C6H11N2.C4H11O4P/c1-3-8-5-4-7(2)6-8;1-3-7-9(5,6)8-4-2/h4-6H,3H2,1-2H3;3-4H2,1-2H3,(H,5,6)/q+1;/p-1, purity 99%
Compound 2: lithium nitrate, LiNO3, InChI=1S/Li.NO3/c;2-1(3)4/q+1;-1, purity 99.5%
Compound 3: potassium chloride, ClK, InChI=1S/ClH.K/h1H;/q;+1/p-1, purity 99%
Compound 4: water, H2O, InChI=1S/H2O/h1H2, purity 99.9%
Compound 5: lithium bromide, BrLi, InChI=1S/BrH.Li/h1H;/q;+1/p-1, purity 99.5%

System: 1-ethyl-3-methylimidazolium diethyl phosphate; phases: Liquid
Fixed: Pressure, kPa = 100
Property: Molar heat capacity at constant pressure, J/K/mol (Liquid); method: isoperibol calorimetry
Temperature, K	Molar heat capacity at constant pressure, J/K/mol	uncertainty
303.15	504.73388971	31.71102972
313.15	507.37647552	31.71102972
323.15	510.01906133	31.71102972
333.15	515.30423295	31.71102972
343.15	523.23199038	31.71102972
353.15	528.517162	31.71102972
363.15	536.44491943	31.71102972
373.15	541.73009105	31.71102972

System: potassium chloride + water; phases: Liquid
Fixed: Pressure, kPa = 100
Fixed: Temperature, K = 298.15
Property: Molar enthalpy of solution, kJ/mol (Liquid); method: Power-compensation calorimetry
Mass fraction of potassium chloride	Molar enthalpy of solution, kJ/mol	uncertainty
0.0764	16.845	0.684
0.0397	17.122	0.696
0.0203	17.277	0.702

System: 1-ethyl-3-methylimidazolium diethyl phosphate + lithium nitrate + water; phases: Liquid
Fixed: Pressure, kPa = 100
Property: Mass density, kg/m3 (Liquid); method: Pycnometric method
Mass fraction of lithium nitrate	Mass fraction of 1-ethyl-3-methylimidazolium diethyl phosphate	Temperature, K	Mass density, kg/m3	uncertainty
0.4125	0.1375	303.15	1308	6
0.4125	0.1375	313.15	1300	6
0.4125	0.1375	323.15	1294	6
0.4125	0.1375	333.15	1286	6
0.4125	0.1375	343.15	1279	6
0.4125	0.1375	353.15	1271	6
0.4125	0.1375	363.15	1264	6
0.4125	0.1375	373.15	1256	6
0.45	0.15	303.15	1343	6
0.45	0.15	313.15	1335	6
0.45	0.15	323.15	1327	6
0.45	0.15	333.15	1320	6
0.45	0.15	343.15	1312	6
0.45	0.15	353.15	1305	6
0.45	0.15	363.15	1297	6
0.45	0.15	373.15	1290	6
0.4875	0.1625	303.15	1380	6
0.4875	0.1625	313.15	1372	6
0.4875	0.1625	323.15	1364	6
0.4875	0.1625	333.15	1356	6
0.4875	0.1625	343.15	1348	6
0.4875	0.1625	353.15	1341	6
0.4875	0.1625	363.15	1333	6
0.4875	0.1625	373.15	1325	6
0.525	0.175	303.15	1416	6
0.525	0.175	313.15	1408	6
0.525	0.175	323.15	1400	6
0.525	0.175	333.15	1392	6
0.525	0.175	343.15	1384	6
0.525	0.175	353.15	1376	6
0.525	0.175	363.15	1369	6
0.525	0.175	373.15	1361	6

System: 1-ethyl-3-methylimidazolium diethyl phosphate + lithium nitrate + water; phases: Liquid
Fixed: Pressure, kPa = 100
Property: Viscosity, Pa*s (Liquid); method: Capillary tube (Ostwald; Ubbelohde) method
Mass fraction of lithium nitrate	Mass fraction of 1-ethyl-3-methylimidazolium diethyl phosphate	Temperature, K	Viscosity, Pa*s	uncertainty
0.4125	0.1375	303.15	0.006096	0.000247
0.4125	0.1375	313.15	0.004397	0.000178
0.4125	0.1375	323.15	0.003523	0.000142
0.4125	0.1375	333.15	0.002943	0.000119
0.4125	0.1375	343.15	0.002493	0.000101
0.4125	0.1375	353.15	0.002138	8.6e-05
0.4125	0.1375	363.15	0.001797	7.3e-05
0.4125	0.1375	373.15	0.001641	6.6e-05
0.45	0.15	303.15	0.008689	0.000352
0.45	0.15	313.15	0.006669	0.00027
0.45	0.15	323.15	0.005272	0.000213
0.45	0.15	333.15	0.004143	0.000168
0.45	0.15	343.15	0.003435	0.000139
0.45	0.15	353.15	0.002905	0.000117
0.45	0.15	363.15	0.002494	0.000101
0.45	0.15	373.15	0.002181	8.8e-05
0.4875	0.1625	303.15	0.013731	0.000558
0.4875	0.1625	313.15	0.010218	0.000414
0.4875	0.1625	323.15	0.007846	0.000317
0.4875	0.1625	333.15	0.006236	0.000252
0.4875	0.1625	343.15	0.005082	0.000206
0.4875	0.1625	353.15	0.004035	0.000163
0.4875	0.1625	363.15	0.003414	0.000138
0.4875	0.1625	373.15	0.002924	0.000118
0.525	0.175	303.15	0.023525	0.000961
0.525	0.175	313.15	0.01677	0.000681
0.525	0.175	323.15	0.012518	0.000507
0.525	0.175	333.15	0.009666	0.000391
0.525	0.175	343.15	0.007648	0.000309
0.525	0.175	353.15	0.006228	0.000252
0.525	0.175	363.15	0.005154	0.000208
0.525	0.175	373.15	0.004357	0.000176

System: 1-ethyl-3-methylimidazolium diethyl phosphate + lithium nitrate + water; phases: Liquid
Fixed: Pressure, kPa = 100
Property: Molar heat capacity at constant pressure, J/K/mol (Liquid); method: isoperibol calorimetry
Mass fraction of lithium nitrate	Mass fraction of 1-ethyl-3-methylimidazolium diethyl phosphate	Temperature, K	Molar heat capacity at constant pressure, J/K/mol	uncertainty
0.4125	0.1375	303.15	88.9395199060228	6.3528228504302
0.4125	0.1375	313.15	89.2571610485443	4.44697599530114
0.4125	0.1375	323.15	89.8924433335873	4.44697599530114
0.4125	0.1375	333.15	90.5277256186304	4.44697599530114
0.4125	0.1375	343.15	91.1630079036734	4.44697599530114
0.4125	0.1375	353.15	91.7982901887164	4.44697599530114
0.4125	0.1375	363.15	92.7512136162809	4.44697599530114
0.4125	0.1375	373.15	93.7041370438454	4.44697599530114
0.45	0.15	303.15	91.8156027504976	4.7785072063456
0.45	0.15	313.15	92.156924693808	4.7785072063456
0.45	0.15	323.15	92.4982466371184	4.7785072063456
0.45	0.15	333.15	92.8395685804288	4.7785072063456
0.45	0.15	343.15	93.5222124670496	4.7785072063456
0.45	0.15	353.15	94.2048563536704	4.7785072063456
0.45	0.15	363.15	94.8875002402912	4.7785072063456
0.45	0.15	373.15	95.9114660702224	4.7785072063456
0.4875	0.1625	303.15	95.1550674545179	5.16345327272578
0.4875	0.1625	313.15	95.1550674545179	5.16345327272578
0.4875	0.1625	323.15	95.5238855454269	5.16345327272578
0.4875	0.1625	333.15	95.8927036363358	3.68818090908984
0.4875	0.1625	343.15	96.6303398181538	5.16345327272578
0.4875	0.1625	353.15	97.3679759999718	5.16345327272578
0.4875	0.1625	363.15	98.1056121817898	5.16345327272578
0.4875	0.1625	373.15	98.8432483636077	5.16345327272578
0.525	0.175	303.15	99.4808453952148	5.21472173442658
0.525	0.175	313.15	99.8819778363245	5.21472173442658
0.525	0.175	323.15	99.8819778363245	5.21472173442658
0.525	0.175	333.15	100.283110277434	4.01132441109737
0.525	0.175	343.15	101.085375159654	5.21472173442658
0.525	0.175	353.15	101.887640041873	5.21472173442658
0.525	0.175	363.15	102.689904924093	5.21472173442658
0.525	0.175	373.15	103.893302247422	5.61585417553632

System: 1-ethyl-3-methylimidazolium diethyl phosphate + lithium nitrate + water; phases: Liquid
Fixed: Pressure, kPa = 100
Property: Thermal diffusivity, m2/s (Liquid); method: Laser flash apparatus
Mass fraction of lithium nitrate	Mass fraction of 1-ethyl-3-methylimidazolium diethyl phosphate	Temperature, K	Thermal diffusivity, m2/s	uncertainty
0.4125	0.1375	303.15	1.32e-07	6e-09
0.4125	0.1375	323.15	1.37e-07	6e-09
0.4125	0.1375	343.15	1.37e-07	6e-09
0.4125	0.1375	363.15	1.38e-07	6e-09
0.45	0.15	303.15	1.26e-07	6e-09
0.45	0.15	323.15	1.31e-07	6e-09
0.45	0.15	343.15	1.34e-07	6e-09
0.45	0.15	363.15	1.35e-07	6e-09
0.4875	0.1625	303.15	1.21e-07	6e-09
0.4875	0.1625	323.15	1.26e-07	6e-09
0.4875	0.1625	343.15	1.28e-07	6e-09
0.4875	0.1625	363.15	1.29e-07	6e-09
0.525	0.175	303.15	1.17e-07	6e-09
0.525	0.175	323.15	1.22e-07	6e-09
0.525	0.175	343.15	1.23e-07	6e-09
0.525	0.175	363.15	1.25e-07	6e-09

System: 1-ethyl-3-methylimidazolium diethyl phosphate + lithium nitrate + water; phases: Liquid, Crystal of intercomponent compound 1
Fixed: Pressure, kPa = 100
Property: Solid-liquid equilibrium temperature, K (Liquid); method: VISOBS
Mass fraction of water	Solvent: Mass fraction of lithium nitrate	Solid-liquid equilibrium temperature, K	uncertainty
0.3	0.5	263	4
0.3	0.667	276	4
0.3	0.75	277	4
0.4	0.75	276	4
0.38	0.75	278	4
0.36	0.75	279	4
0.34	0.75	280	4
0.32	0.75	281	4

System: 1-ethyl-3-methylimidazolium diethyl phosphate + lithium nitrate + water; phases: Liquid, Crystal
Fixed: Pressure, kPa = 100
Property: Solid-liquid equilibrium temperature, K (Liquid); method: VISOBS
Mass fraction of water	Solvent: Mass fraction of lithium nitrate	Solid-liquid equilibrium temperature, K	uncertainty
0.3	0.8	294	4
0.3	0.833	301	4
0.28	0.75	298	5
0.26	0.75	311	5

System: lithium bromide + water; phases: Liquid, Crystal of intercomponent compound 1
Property: Solid-liquid equilibrium temperature, K (Liquid); method: VISOBS
Mass fraction of lithium bromide	Pressure, kPa	Solid-liquid equilibrium temperature, K	uncertainty
0.6	100	295.65	4.44

System: lithium bromide + water; phases: Liquid, Crystal of intercomponent compound 2
Property: Solid-liquid equilibrium temperature, K (Liquid); method: VISOBS
Mass fraction of lithium bromide	Pressure, kPa	Solid-liquid equilibrium temperature, K	uncertainty
0.65	100	319.65	6

System: 1-ethyl-3-methylimidazolium diethyl phosphate + water; phases: Liquid
Fixed: Pressure, kPa = 100
Fixed: Temperature, K = 313.15
Property: Excess molar enthalpy (molar enthalpy of mixing), kJ/mol (Liquid); method: Power-compensation calorimetry
Mole fraction of 1-ethyl-3-methylimidazolium diethyl phosphate	Excess molar enthalpy (molar enthalpy of mixing), kJ/mol	uncertainty
0.25	-4.972	0.202
0.5	-5.263	0.214

System: 1-ethyl-3-methylimidazolium diethyl phosphate + water; phases: Liquid
Fixed: Pressure, kPa = 100
Fixed: Temperature, K = 313.15
Property: Excess molar enthalpy (molar enthalpy of mixing), kJ/mol (Liquid); method: Power-compensation calorimetry
Mole fraction of 1-ethyl-3-methylimidazolium diethyl phosphate	Excess molar enthalpy (molar enthalpy of mixing), kJ/mol	uncertainty
0.017	-0.46911592255221	0.01909321786062
0.019	-0.54533448233757	0.02224002466462
0.023	-0.64430221386483	0.02628355227453
0.027	-0.75841336065525	0.03082981140875

System: lithium nitrate + water; phases: Liquid
Fixed: Pressure, kPa = 100
Fixed: Temperature, K = 298.15
Property: Molar enthalpy of solution, kJ/mol (Liquid); method: Power-compensation calorimetry
Mole fraction of lithium nitrate	Molar enthalpy of solution, kJ/mol	uncertainty
0.061	-1.087	0.048
0.08	-0.918	0.044
0.101	-0.607	0.041
0.123	-0.213	0.039
0.148	0.277	0.041

System: lithium nitrate + water; phases: Liquid
Fixed: Pressure, kPa = 100
Fixed: Temperature, K = 313.15
Property: Molar enthalpy of solution, kJ/mol (Liquid); method: Power-compensation calorimetry
Mole fraction of lithium nitrate	Molar enthalpy of solution, kJ/mol	uncertainty
0.19	0.665718213816	0.033784368588
0.22	1.020655480236	0.044706638556
0.26	1.39251055878	0.061264213136
0.31	2.311840828794	0.099383126724
