Measured thermophysical data. Density, refraction index and vapor-liquid equilibria of N-methyl-2-hydroxyethylammonium butyrate plus (methyl acetate or ethyl acetate or propyl acetate) at several temperatures
Source: J. Chem. Thermodyn., 2013, 10.1016/j.jct.2013.02.022
Compound 1: methyl ethanoate, C3H6O2, InChI=1S/C3H6O2/c1-3(4)5-2/h1-2H3, purity 99.8%
Compound 2: ethyl acetate, C4H8O2, InChI=1S/C4H8O2/c1-3-6-4(2)5/h3H2,1-2H3, purity 99.9%
Compound 3: propyl ethanoate, C5H10O2, InChI=1S/C5H10O2/c1-3-4-7-5(2)6/h3-4H2,1-2H3, purity 99.5%
Compound 4: N-methyl-2-hydroxyethylammonium butanoate, C7H17NO3, InChI=1S/C4H8O2.C3H9NO/c1-2-3-4(5)6;1-4-2-3-5/h2-3H2,1H3,(H,5,6);4-5H,2-3H2,1H3

System: methyl ethanoate; phases: Liquid
Property: Refractive index (Na D-line) (Liquid); method: Standard Abbe refractometry
Temperature, K	Pressure, kPa	Refractive index (Na D-line)	uncertainty
288.15	101.325	1.365	0.0008

System: methyl ethanoate; phases: Liquid, Gas
Property: Vapor or sublimation pressure, kPa (Liquid); method: Ebulliometric method (Recirculating still)
Temperature, K	Vapor or sublimation pressure, kPa	uncertainty
330.1	101.3	1

System: methyl ethanoate; phases: Liquid
Fixed: Pressure, kPa = 101
Property: Mass density, kg/m3 (Liquid); method: Vibrating tube method
Temperature, K	Mass density, kg/m3	uncertainty
288.149	939.9	1
293.142	933.4	1
298.143	926.8	1
303.144	920.2	1
308.142	913.5	1
313.143	906.7	1
318.144	899.9	1
323.15	893	1

System: ethyl acetate; phases: Liquid
Property: Refractive index (Na D-line) (Liquid); method: Standard Abbe refractometry
Temperature, K	Pressure, kPa	Refractive index (Na D-line)	uncertainty
303.15	101.325	1.3672	0.0008

System: ethyl acetate; phases: Liquid, Gas
Property: Vapor or sublimation pressure, kPa (Liquid); method: Ebulliometric method (Recirculating still)
Temperature, K	Vapor or sublimation pressure, kPa	uncertainty
349.8	101.3	1

System: ethyl acetate; phases: Liquid
Fixed: Pressure, kPa = 101
Property: Mass density, kg/m3 (Liquid); method: Vibrating tube method
Temperature, K	Mass density, kg/m3	uncertainty
303.146	888.76	1
308.148	882.58	1
313.155	876.34	1
318.156	870.06	1
323.154	863.73	1
298.15	894.9	1

System: propyl ethanoate; phases: Liquid
Property: Refractive index (Na D-line) (Liquid); method: Standard Abbe refractometry
Temperature, K	Pressure, kPa	Refractive index (Na D-line)	uncertainty
313.15	101.325	1.3741	0.0008

System: propyl ethanoate; phases: Liquid, Gas
Property: Vapor or sublimation pressure, kPa (Liquid); method: Ebulliometric method (Recirculating still)
Temperature, K	Vapor or sublimation pressure, kPa	uncertainty
374	101.3	1

System: propyl ethanoate; phases: Liquid
Fixed: Pressure, kPa = 101
Property: Mass density, kg/m3 (Liquid); method: Vibrating tube method
Temperature, K	Mass density, kg/m3	uncertainty
308.143	871.38	1.01
313.151	865.7	1.01
318.151	860	1.01
323.149	854.26	1.01
298.15	882.61	1.01

System: N-methyl-2-hydroxyethylammonium butanoate; phases: Liquid
Fixed: Pressure, kPa = 101.325
Property: Refractive index (Na D-line) (Liquid); method: Standard Abbe refractometry
Temperature, K	Refractive index (Na D-line)	uncertainty
288.15	1.4579	0.0007
303.15	1.4534	0.0007
313.15	1.4504	0.0007

System: N-methyl-2-hydroxyethylammonium butanoate; phases: Liquid
Fixed: Pressure, kPa = 101
Property: Mass density, kg/m3 (Liquid); method: Vibrating tube method
Temperature, K	Mass density, kg/m3	uncertainty
288.15	1046	1.31
293.15	1042.6	1.31
298.15	1039.2	1.3
303.15	1035.9	1.3
308.15	1032.5	1.3
313.16	1029.1	1.29
318.16	1025.7	1.29
323.16	1022.3	1.28

System: methyl ethanoate + N-methyl-2-hydroxyethylammonium butanoate; phases: Liquid
Fixed: Pressure, kPa = 101
Fixed: Temperature, K = 288.15
Property: Refractive index (Na D-line) (Liquid); method: Standard Abbe refractometry
Mole fraction of methyl ethanoate	Refractive index (Na D-line)	uncertainty
1	1.365	0.0008
0.9483	1.3746	0.0008
0.8979	1.3833	0.0008
0.7912	1.3996	0.0008
0.6898	1.413	0.0008
0.5928	1.4232	0.0008
0.4973	1.4327	0.0008
0.3983	1.4399	0.0008
0.3079	1.4449	0.0008
0.2074	1.4509	0.0008
0.1097	1.4556	0.0009
0.0646	1.4558	0.0009
0	1.4579	0.0009

System: methyl ethanoate + N-methyl-2-hydroxyethylammonium butanoate; phases: Liquid, Gas
Fixed: Pressure, kPa = 101.3
Property: Boiling temperature at pressure P, K (Liquid); method: Ebulliometric method (Recirculating still)
Mole fraction of methyl ethanoate	Boiling temperature at pressure P, K	uncertainty
1	330.1	0.2
0.9746	330.2	0.2
0.9004	331.1	0.2
0.7753	332	0.2
0.6889	333.1	0.2
0.6174	334.6	0.3
0.6137	334.9	0.3
0.5399	337.8	0.2
0.4938	342.2	0.2
0.4872	342.6	0.3
0.4798	343.6	0.3
0.4696	344.2	0.2

System: methyl ethanoate + N-methyl-2-hydroxyethylammonium butanoate; phases: Liquid
Fixed: Pressure, kPa = 101
Property: Mass density, kg/m3 (Liquid); method: Vibrating tube method
Mole fraction of methyl ethanoate	Temperature, K	Mass density, kg/m3	uncertainty
0.0646	288.15	1040	1.26
0.0646	293.14	1036.4	1.25
0.0646	298.14	1032.8	1.25
0.0646	303.14	1029.1	1.25
0.0646	308.14	1025.6	1.24
0.0646	313.14	1022	1.24
0.0646	318.15	1018.3	1.24
0.0646	323.15	1014.6	1.23
0.1097	288.15	1036.1	1.22
0.1097	293.141	1032.5	1.21
0.1097	298.15	1028.9	1.21
0.1097	303.146	1025.2	1.21
0.1097	308.146	1021.6	1.2
0.1097	313.143	1018	1.2
0.1097	318.143	1014.3	1.2
0.1097	323.144	1010.6	1.2
0.2074	288.15	1027.3	1.15
0.2074	293.15	1024	1.14
0.2074	298.15	1019.6	1.14
0.2074	303.14	1015.8	1.14
0.2074	308.14	1013.3	1.14
0.2074	313.14	1009.2	1.14
0.2074	318.15	1006.1	1.13
0.2074	323.15	1001.4	1.13
0.3079	288.15	1021.07	1.09
0.3079	293.15	1017.3	1.09
0.3079	298.15	1013.2	1.09
0.3079	303.15	1009	1.09
0.3079	308.14	1004.8	1.09
0.3079	313.14	1000.6	1.09
0.3079	318.14	996.3	1.09
0.3079	323.15	992.33	1.09
0.3983	288.149	1015.6	1.06
0.3983	293.151	1011.4	1.06
0.3983	298.145	1007.1	1.06
0.3983	303.143	1002.8	1.06
0.3983	308.143	998.5	1.06
0.3983	313.143	994.2	1.06
0.3983	318.146	989.8	1.06
0.3983	323.146	985.3	1.06
0.4973	288.149	1011.5	1.04
0.4973	293.149	1007.2	1.04
0.4973	298.146	1002.9	1.04
0.4973	303.143	998.4	1.04
0.4973	308.142	992.6	1.04
0.4973	313.142	988.8	1.04
0.4973	318.15	983.8	1.04
0.4973	323.146	979.2	1.04
0.5928	288.149	1003	1.03
0.5928	293.148	998.4	1.03
0.5928	298.146	993.7	1.03
0.5928	303.144	989.1	1.03
0.5928	308.15	984.3	1.03
0.5928	313.146	979.6	1.03
0.5928	318.144	974.8	1.03
0.5928	323.143	970	1.03
0.6898	288.149	991.4	1.03
0.6898	293.151	986.5	1.03
0.6898	298.145	981.5	1.03
0.6898	303.143	976.4	1.03
0.6898	308.142	971.3	1.03
0.6898	313.142	966.1	1.03
0.6898	318.147	961	1.03
0.6898	323.146	955.7	1.04
0.7912	288.14	977.2	1.03
0.7912	293.15	971.7	1.03
0.7912	298.145	966.2	1.03
0.7912	303.145	960.7	1.03
0.7912	308.143	955.1	1.03
0.7912	313.142	949.5	1.04
0.7912	318.151	943.8	1.04
0.7912	323.146	938.1	1.04
0.898	288.149	959.7	1.03
0.898	293.15	953.8	1.03
0.898	298.145	947.7	1.04
0.898	303.143	941.6	1.04
0.898	308.145	935.5	1.04
0.898	313.143	929.3	1.04
0.898	318.142	923	1.04
0.898	323.146	916.7	1.05
0.9483	288.156	950.1	1.04
0.9483	293.145	943.8	1.04
0.9483	298.145	937.5	1.04
0.9483	303.143	931.1	1.05
0.9483	308.143	924.6	1.05
0.9483	313.142	918.1	1.05
0.9483	318.143	911.5	1.05
0.9483	323.146	904.9	1.06
1	288.149	939.9	1
1	293.142	933.4	1
1	298.143	926.8	1
1	303.144	920.2	1
1	308.142	913.5	1
1	313.143	906.7	1
1	318.144	899.9	1
1	323.15	893	1
0	288.15	1046	1.31
0	293.15	1042.6	1.31
0	298.15	1039.2	1.3
0	303.15	1035.9	1.3
0	308.15	1032.5	1.3
0	313.16	1029.1	1.29
0	318.16	1025.7	1.29
0	323.16	1022.3	1.28

System: ethyl acetate + N-methyl-2-hydroxyethylammonium butanoate; phases: Liquid
Fixed: Pressure, kPa = 101
Fixed: Temperature, K = 303.15
Property: Refractive index (Na D-line) (Liquid); method: Standard Abbe refractometry
Mole fraction of ethyl acetate	Refractive index (Na D-line)	uncertainty
1	1.3672	0.0008
0.9497	1.3746	0.0008
0.8998	1.3812	0.0008
0.8031	1.3949	0.0008
0.7039	1.4055	0.0008
0.6018	1.4161	0.0008
0.507	1.4246	0.0008
0.412	1.4324	0.0008
0.2901	1.4411	0.0008
0.199	1.4472	0.0008
0.0956	1.4511	0.0009
0.0454	1.4533	0.0009
0	1.4534	0.0009

System: ethyl acetate + N-methyl-2-hydroxyethylammonium butanoate; phases: Liquid, Gas
Fixed: Pressure, kPa = 101.3
Property: Boiling temperature at pressure P, K (Liquid); method: Ebulliometric method (Recirculating still)
Mole fraction of ethyl acetate	Boiling temperature at pressure P, K	uncertainty
1	349.8	0.2
0.9612	350	0.2
0.8956	350.3	0.2
0.8294	351.2	0.2
0.8188	351.4	0.2
0.7904	351.4	0.2
0.7576	351.9	0.2
0.7312	352.2	0.2
0.6925	353	0.2
0.6824	353.9	0.2
0.6581	353.3	0.2
0.6419	354.2	0.2
0.6248	354.7	0.2
0.5867	355.3	0.3
0.5807	355.9	0.3
0.5718	357	0.2
0.5363	358.3	0.2
0.4995	361.9	0.7
0.4974	361	0.4
0.4915	363.4	0.7
0.4558	368.2	0.3
0.4554	365.5	0.4
0.4471	367.3	0.5
0.4339	370.8	0.3
0.419	371.6	0.7
0.4162	372.7	0.7
0.3938	374.7	0.3
0.378	376.3	0.3
0.3663	378.8	0.3
0.3439	379.6	0.6
0.3423	380.2	0.6

System: ethyl acetate + N-methyl-2-hydroxyethylammonium butanoate; phases: Liquid
Fixed: Pressure, kPa = 101
Property: Mass density, kg/m3 (Liquid); method: Vibrating tube method
Mole fraction of ethyl acetate	Temperature, K	Mass density, kg/m3	uncertainty
0.0454	303.156	1026.24	1.26
0.0454	308.156	1022.67	1.26
0.0454	313.15	1019.09	1.26
0.0454	318.157	1015.66	1.25
0.0454	323.144	1012.2	1.25
0.0956	303.157	1022.32	1.21
0.0956	308.155	1018.71	1.21
0.0956	313.149	1015.1	1.2
0.0956	318.158	1011.66	1.2
0.0956	323.143	1007.98	1.2
0.199	303.15	1013.58	1.14
0.199	308.15	1009.85	1.14
0.199	313.16	1006.08	1.13
0.199	318.16	1002.32	1.13
0.199	323.14	998.56	1.13
0.2901	303.154	1004.61	1.09
0.2901	308.149	1000.57	1.09
0.2901	313.158	996.56	1.09
0.2901	318.157	992.61	1.09
0.2901	323.142	988.83	1.09
0.412	303.157	992.58	1.05
0.412	308.154	987.98	1.05
0.412	313.159	983.25	1.06
0.412	318.156	978.49	1.06
0.412	323.143	974.67	1.06
0.507	303.155	981.19	1.04
0.507	308.149	976.57	1.04
0.507	313.159	971.82	1.04
0.507	318.156	967.05	1.04
0.507	323.143	962.75	1.04
0.6018	303.156	967.06	1.04
0.6018	308.154	962.31	1.04
0.6018	313.15	957.53	1.04
0.6018	318.158	952.68	1.04
0.6018	323.147	947.5	1.04
0.7039	303.154	950.35	1.04
0.7039	308.149	945.26	1.04
0.7039	313.159	940.11	1.04
0.7039	318.156	934.92	1.04
0.7039	323.145	929.55	1.04
0.8031	303.153	931.53	1.04
0.8031	308.152	926.08	1.04
0.8031	313.159	920.58	1.05
0.8031	318.156	915.03	1.05
0.8031	323.143	909.33	1.05
0.8998	303.155	911.57	1.05
0.8998	308.155	905.73	1.05
0.8998	313.157	899.84	1.05
0.8998	318.157	893.91	1.05
0.8998	323.144	887.92	1.05
0.9497	303.158	900.62	1.05
0.9497	308.157	894.58	1.05
0.9497	313.156	888.5	1.06
0.9497	318.151	882.16	1.06
0.9497	323.151	876.1	1.06
1	303.146	888.76	1
1	308.148	882.58	1
1	313.155	876.34	1
1	318.156	870.06	1
1	323.154	863.73	1
0	303.15	1035.87	1.3
0	308.15	1032.53	1.3
0	313.16	1029.14	1.29
0	318.16	1025.72	1.29
0	323.16	1022.26	1.28

System: propyl ethanoate + N-methyl-2-hydroxyethylammonium butanoate; phases: Liquid
Fixed: Pressure, kPa = 101
Fixed: Temperature, K = 313.15
Property: Refractive index (Na D-line) (Liquid); method: Standard Abbe refractometry
Mole fraction of propyl ethanoate	Refractive index (Na D-line)	uncertainty
1	1.3741	0.0008
0.9454	1.3809	0.0008
0.8936	1.387	0.0008
0.7939	1.3991	0.0008
0.696	1.4068	0.0008
0.6042	1.4146	0.0008
0.5088	1.4222	0.0008
0.4177	1.4288	0.0008
0.3035	1.4365	0.0008
0.207	1.4417	0.0008
0.1247	1.4457	0.0009
0.0785	1.4483	0.0009
0	1.4504	0.0009

System: propyl ethanoate + N-methyl-2-hydroxyethylammonium butanoate; phases: Liquid, Gas
Fixed: Pressure, kPa = 101.3
Property: Boiling temperature at pressure P, K (Liquid); method: Ebulliometric method (Recirculating still)
Mole fraction of propyl ethanoate	Boiling temperature at pressure P, K	uncertainty
1	374	0.2
0.9575	374.4	0.2
0.9283	374.6	0.2
0.8944	374.8	0.2
0.8446	375.7	0.2
0.741	377.1	0.2
0.7207	376.7	0.2
0.7153	377.5	0.3
0.6922	378.2	0.2
0.6616	378.6	0.2
0.6423	379.2	0.2
0.6289	379.7	0.2
0.6171	380.4	0.2
0.5827	381.6	0.2
0.5548	382.9	0.3
0.5482	383.7	0.2
0.5333	383.3	0.2
0.5121	385.3	0.3
0.4579	389.2	0.3
0.4253	391.3	0.3
0.404	394.8	0.3
0.4106	393.7	0.3
0.3803	396.8	0.3
0.3653	398.4	0.3
0.3502	400.3	0.3

System: propyl ethanoate + N-methyl-2-hydroxyethylammonium butanoate; phases: Liquid
Fixed: Pressure, kPa = 101
Property: Mass density, kg/m3 (Liquid); method: Vibrating tube method
Mole fraction of propyl ethanoate	Temperature, K	Mass density, kg/m3	uncertainty
0.0785	308.155	1016.82	1.25
0.0785	313.155	1013.32	1.24
0.0785	318.155	1009.82	1.24
0.0785	323.159	1006.34	1.24
0.1247	308.158	1013.03	1.2
0.1247	313.156	1009.37	1.2
0.1247	318.156	1005.67	1.2
0.1247	323.151	1001.94	1.19
0.207	308.157	1003.47	1.15
0.207	313.156	999.76	1.15
0.207	318.154	996.08	1.15
0.207	323.151	992.3	1.15
0.3035	308.156	993.9	1.11
0.3035	313.155	989.89	1.11
0.3035	318.156	985.85	1.11
0.3035	323.156	981.79	1.11
0.4177	308.154	981.77	1.08
0.4177	313.155	977.59	1.08
0.4177	318.15	973.39	1.08
0.4177	323.159	969.14	1.08
0.5088	308.16	968.89	1.07
0.5088	313.16	964.73	1.07
0.5088	318.16	960.4	1.07
0.5088	323.15	956.04	1.07
0.6042	308.16	952.99	1.06
0.6042	313.16	948.38	1.06
0.6042	318.16	943.75	1.06
0.6042	323.15	939.06	1.06
0.696	308.156	936.16	1.05
0.696	313.155	931.3	1.05
0.696	318.155	926.41	1.06
0.696	323.149	921.47	1.06
0.7939	308.16	917.53	1.05
0.7939	313.16	912.41	1.05
0.7939	318.15	907.24	1.05
0.7939	323.16	901.89	1.06
0.8936	308.16	896.61	1.05
0.8936	313.16	891	1.06
0.8936	318.16	885.74	1.06
0.8936	323.16	880	1.06
0.9454	308.155	884.44	1.06
0.9454	313.156	878.87	1.06
0.9454	318.156	873.25	1.06
0.9454	323.157	867.59	1.06
1	308.143	871.38	1.01
1	313.151	865.7	1.01
1	318.151	860	1.01
1	323.149	854.26	1.01
0	308.15	1032.53	1.3
0	313.16	1029.14	1.29
0	318.16	1025.72	1.29
0	323.16	1022.26	1.28
