Measured thermophysical data. Correlation and thermodynamic analysis of solubility of cefmetazole acid in three (alcohol + water) binary solvents at temperatures from 278.15 K to 303.15 K
Source: J. Chem. Thermodyn., 2016, 10.1016/j.jct.2016.08.024
Compound 1: Cefmetazole, C15H17N7O5S3, InChI=1S/C15H17N7O5S3/c1-21-14(18-19-20-21)30-6-8-5-29-13-15(27-2,17-9(23)7-28-4-3-16)12(26)22(13)10(8)11(24)25/h13H,4-7H2,1-2H3,(H,17,23)(H,24,25)/t13-,15+/m1/s1, purity 98%
Compound 2: water, H2O, InChI=1S/H2O/h1H2
Compound 3: methanol, CH4O, InChI=1S/CH4O/c1-2/h2H,1H3, purity 99.5%
Compound 4: ethanol, C2H6O, InChI=1S/C2H6O/c1-2-3/h3H,2H2,1H3, purity 99.5%
Compound 5: propan-2-ol, C3H8O, InChI=1S/C3H8O/c1-3(2)4/h3-4H,1-2H3, purity 99.5%

System: methanol + water + Cefmetazole; phases: Liquid, Crystal
Fixed: Pressure, kPa = 100
Property: Mole fraction of Cefmetazole (Liquid); method: UV Spectrophotometry
Temperature, K	Solvent: Mole fraction of methanol	Mole fraction of Cefmetazole	uncertainty
278.15	0.2	7.75e-05	1.44e-05
278.15	0.3	0.000161	2.98e-05
278.15	0.4	0.0003114	5.8e-05
278.15	0.5	0.0005275	9.81e-05
278.15	0.6	0.0007994	0.0001452
278.15	0.7	0.00101	0.000182
278.15	0.8	0.001209	0.000218
278.15	0.9	0.001389	0.00025
278.15	1	0.001632	0.000294
283.15	0.2	0.0001118	2.08e-05
283.15	0.3	0.0002418	4.45e-05
283.15	0.4	0.0004098	7.63e-05
283.15	0.5	0.0007267	0.000133
283.15	0.6	0.0008802	0.0001597
283.15	0.7	0.001221	0.00022
283.15	0.8	0.001433	0.000258
283.15	0.9	0.001728	0.000311
283.15	1	0.001875	0.000338
288.15	0.2	0.0001498	2.76e-05
288.15	0.3	0.0003063	5.65e-05
288.15	0.4	0.0005609	0.0001037
288.15	0.5	0.0008896	0.0001636
288.15	0.6	0.001225	0.000222
288.15	0.7	0.001486	0.000268
288.15	0.8	0.001777	0.00032
288.15	0.9	0.00204	0.000367
288.15	1	0.002218	0.000399
293.15	0.2	0.0002087	3.88e-05
293.15	0.3	0.000446	8.2e-05
293.15	0.4	0.0007581	0.0001397
293.15	0.5	0.00118	0.000217
293.15	0.6	0.001669	0.000303
293.15	0.7	0.002095	0.000378
293.15	0.8	0.002389	0.00043
293.15	0.9	0.002507	0.000452
293.15	1	0.002733	0.000492
298.15	0.2	0.0002729	5.05e-05
298.15	0.3	0.0005551	0.0001027
298.15	0.4	0.001055	0.000195
298.15	0.5	0.001644	0.000302
298.15	0.6	0.002225	0.000404
298.15	0.7	0.002882	0.00052
298.15	0.8	0.003209	0.000578
298.15	0.9	0.003443	0.00062
298.15	1	0.003636	0.000655
303.15	0.2	0.0003243	6.09e-05
303.15	0.3	0.0007565	0.0001407
303.15	0.4	0.001483	0.000275
303.15	0.5	0.00236	0.000431
303.15	0.6	0.002959	0.000536
303.15	0.7	0.003689	0.000665
303.15	0.8	0.004115	0.000741
303.15	0.9	0.004363	0.000786
303.15	1	0.004455	0.000802

System: ethanol + water + Cefmetazole; phases: Liquid, Crystal
Fixed: Pressure, kPa = 100
Property: Mole fraction of Cefmetazole (Liquid); method: UV Spectrophotometry
Temperature, K	Solvent: Mole fraction of ethanol	Mole fraction of Cefmetazole	uncertainty
278.15	0.2	0.0001708	2.83e-05
278.15	0.3	0.0003519	5.79e-05
278.15	0.4	0.0006183	0.0001
278.15	0.5	0.0007114	0.000114
278.15	0.6	0.0007097	0.0001137
278.15	0.7	0.0006189	9.93e-05
278.15	0.8	0.0005	8.01e-05
278.15	0.9	0.0004091	6.55e-05
278.15	1	0.0002659	4.25e-05
283.15	0.2	0.0002198	3.64e-05
283.15	0.3	0.0004573	7.46e-05
283.15	0.4	0.000695	0.0001122
283.15	0.5	0.0008226	0.0001318
283.15	0.6	0.0008217	0.0001316
283.15	0.7	0.0007471	0.0001198
283.15	0.8	0.0005937	9.53e-05
283.15	0.9	0.0004103	6.57e-05
283.15	1	0.0002757	4.41e-05
288.15	0.2	0.0002902	4.78e-05
288.15	0.3	0.0005964	9.72e-05
288.15	0.4	0.0008858	0.0001429
288.15	0.5	0.001039	0.000167
288.15	0.6	0.001039	0.000166
288.15	0.7	0.0009693	0.0001555
288.15	0.8	0.0007137	0.0001146
288.15	0.9	0.0005034	8.07e-05
288.15	1	0.000343	5.49e-05
293.15	0.2	0.000435	7.17e-05
293.15	0.3	0.0008584	0.0001396
293.15	0.4	0.00124	0.0002
293.15	0.5	0.001435	0.00023
293.15	0.6	0.001423	0.000228
293.15	0.7	0.001184	0.00019
293.15	0.8	0.0009627	0.0001544
293.15	0.9	0.0006611	0.0001059
293.15	1	0.000435	6.96e-05
298.15	0.2	0.0005732	9.44e-05
298.15	0.3	0.001174	0.000191
298.15	0.4	0.001647	0.000265
298.15	0.5	0.001851	0.000296
298.15	0.6	0.001748	0.00028
298.15	0.7	0.001471	0.000236
298.15	0.8	0.001087	0.000175
298.15	0.9	0.0007124	0.0001142
298.15	1	0.0004898	7.84e-05
303.15	0.2	0.0008674	0.0001429
303.15	0.3	0.001705	0.000277
303.15	0.4	0.002405	0.000387
303.15	0.5	0.002597	0.000416
303.15	0.6	0.002373	0.000381
303.15	0.7	0.001962	0.000315
303.15	0.8	0.00143	0.00023
303.15	0.9	0.0009339	0.0001498
303.15	1	0.0006591	0.0001055

System: propan-2-ol + water + Cefmetazole; phases: Liquid, Crystal
Fixed: Pressure, kPa = 100
Property: Mole fraction of Cefmetazole (Liquid); method: UV Spectrophotometry
Temperature, K	Solvent: Mole fraction of propan-2-ol	Mole fraction of Cefmetazole	uncertainty
278.15	0.1	7.92e-05	8.6e-06
278.15	0.2	0.0002459	2.53e-05
278.15	0.3	0.000368	3.72e-05
278.15	0.4	0.0004072	4.08e-05
278.15	0.5	0.0003907	3.93e-05
278.15	0.6	0.0003359	3.41e-05
278.15	0.7	0.0002611	2.65e-05
278.15	0.8	0.0001916	1.95e-05
278.15	0.9	0.0001018	1.04e-05
283.15	0.1	0.0001152	1.21e-05
283.15	0.2	0.0002949	3.02e-05
283.15	0.3	0.0004242	4.29e-05
283.15	0.4	0.0005026	5.04e-05
283.15	0.5	0.0005018	5.03e-05
283.15	0.6	0.0004435	4.49e-05
283.15	0.7	0.0003384	3.44e-05
283.15	0.8	0.0002447	2.48e-05
283.15	0.9	0.0001393	1.41e-05
288.15	0.1	0.0001615	1.68e-05
288.15	0.2	0.0003852	3.95e-05
288.15	0.3	0.0005712	5.79e-05
288.15	0.4	0.0006725	6.75e-05
288.15	0.5	0.000656	6.59e-05
288.15	0.6	0.0005771	5.85e-05
288.15	0.7	0.0004344	4.44e-05
288.15	0.8	0.0002852	2.9e-05
288.15	0.9	0.0001803	1.82e-05
293.15	0.1	0.0002281	2.38e-05
293.15	0.2	0.0005706	5.85e-05
293.15	0.3	0.0008322	8.41e-05
293.15	0.4	0.0009225	9.25e-05
293.15	0.5	0.0009015	9.06e-05
293.15	0.6	0.0007756	7.88e-05
293.15	0.7	0.0005757	5.88e-05
293.15	0.8	0.000389	3.96e-05
293.15	0.9	0.0002202	2.23e-05
298.15	0.1	0.0003277	3.41e-05
298.15	0.2	0.0008005	8.17e-05
298.15	0.3	0.001098	0.000111
298.15	0.4	0.001223	0.000123
298.15	0.5	0.00117	0.000118
298.15	0.6	0.001027	0.000104
298.15	0.7	0.0007662	7.85e-05
298.15	0.8	0.0004795	4.91e-05
298.15	0.9	0.0002645	2.68e-05
303.15	0.1	0.0004721	4.92e-05
303.15	0.2	0.001151	0.000117
303.15	0.3	0.001579	0.000159
303.15	0.4	0.001726	0.000173
303.15	0.5	0.00161	0.000162
303.15	0.6	0.001348	0.000137
303.15	0.7	0.00101	0.000103
303.15	0.8	0.0006483	6.61e-05
303.15	0.9	0.0003968	4.01e-05

System: methanol + Cefmetazole; phases: Liquid, Crystal
Fixed: Pressure, kPa = 100
Property: Mole fraction of Cefmetazole (Liquid); method: UV Spectrophotometry
Temperature, K	Mole fraction of Cefmetazole	uncertainty
278.15	0.001632	0.000294
283.15	0.001875	0.000338
288.15	0.002218	0.000399
293.15	0.002733	0.000492
298.15	0.003636	0.000655
303.15	0.004455	0.000802

System: ethanol + Cefmetazole; phases: Liquid, Crystal
Fixed: Pressure, kPa = 100
Property: Mole fraction of Cefmetazole (Liquid); method: UV Spectrophotometry
Temperature, K	Mole fraction of Cefmetazole	uncertainty
278.15	0.0002659	4.25e-05
283.15	0.0002757	4.41e-05
288.15	0.000343	5.49e-05
293.15	0.000435	6.96e-05
298.15	0.0004898	7.84e-05
303.15	0.0006591	0.0001055
