Measured thermophysical data. Density studies of 1,8-diazabicyclo[5.4.0]undec-7-ene (DBU)-glycerol and CO2-DBU-glycerol solutions at temperatures between 288.15 K and 328.15 K
Source: J. Chem. Thermodyn., 2018, 10.1016/j.jct.2018.03.017
Compound 1: 1,8-diaza-7-bicyclo[5.4.0]undecene, C9H16N2, InChI=1S/C9H16N2/c1-2-5-9-10-6-4-8-11(9)7-3-1/h1-8H2, purity 99%
Compound 2: glycerol, C3H8O3, InChI=1S/C3H8O3/c4-1-3(6)2-5/h3-6H,1-2H2, purity 99.5%
Compound 3: carbon dioxide, CO2, InChI=1S/CO2/c2-1-3

System: 1,8-diaza-7-bicyclo[5.4.0]undecene; phases: Liquid
Fixed: Pressure, kPa = 96
Property: Mass density, kg/m3 (Liquid); method: Pycnometric method
Temperature, K	Mass density, kg/m3	uncertainty
288.15	1020.6	8.2
298.15	1014.1	8.2
308.15	1007.4	8.2
318.15	1000.8	8.2
328.15	994.2	8.2
293.15	1017.1	8.2
303.15	1010.9	8.2
313.15	1004.6	8.2
323.15	998.4	8.2

System: glycerol; phases: Liquid
Fixed: Pressure, kPa = 96
Property: Mass density, kg/m3 (Liquid); method: Pycnometric method
Temperature, K	Mass density, kg/m3	uncertainty
288.15	1262.7	8.2
298.15	1257.2	8.2
308.15	1251.5	8.2
318.15	1246	8.2
328.15	1240.5	8.2
293.15	1260.5	8.2
303.15	1254.8	8.2
313.15	1248.9	8.2
323.15	1242.4	8.2

System: 1,8-diaza-7-bicyclo[5.4.0]undecene + glycerol; phases: Liquid
Fixed: Pressure, kPa = 96
Property: Mass density, kg/m3 (Liquid); method: Pycnometric method
Temperature, K	Mole fraction of 1,8-diaza-7-bicyclo[5.4.0]undecene	Mass density, kg/m3	uncertainty
288.15	0	1262.7	8.2
288.15	0.0501	1251.8	8.6
288.15	0.0909	1238.4	8.6
288.15	0.1667	1211.2	8.6
288.15	0.2	1200.6	8.6
288.15	0.2153	1195.3	8.6
288.15	0.2306	1190.3	8.6
288.15	0.3059	1167.2	8.5
288.15	0.3333	1159.4	8.5
288.15	0.4011	1141.5	8.5
288.15	0.5	1117.4	8.5
288.15	0.5632	1102.9	8.5
288.15	0.625	1089.8	8.5
288.15	0.75	1065.4	8.5
288.15	0.8333	1051.7	8.5
288.15	1	1020.6	8.2
298.15	0	1257.2	8.2
298.15	0.0501	1245.4	8.6
298.15	0.0909	1231.7	8.6
298.15	0.1667	1204.2	8.6
298.15	0.2	1192.3	8.6
298.15	0.2153	1187	8.6
298.15	0.2306	1181.8	8.6
298.15	0.3059	1158	8.5
298.15	0.3333	1149.8	8.5
298.15	0.4011	1131.6	8.5
298.15	0.5	1108.1	8.5
298.15	0.5632	1093.7	8.5
298.15	0.625	1081	8.5
298.15	0.75	1058.1	8.5
298.15	0.8333	1044.3	8.5
298.15	1	1014.1	8.2
308.15	0	1251.5	8.2
308.15	0.0501	1239	8.6
308.15	0.0909	1224.7	8.6
308.15	0.1667	1196.4	8.6
308.15	0.2	1184.9	8.6
308.15	0.2153	1179.6	8.6
308.15	0.2306	1174.6	8.6
308.15	0.3059	1150.5	8.5
308.15	0.3333	1142.5	8.5
308.15	0.4011	1124.1	8.5
308.15	0.5	1100.2	8.5
308.15	0.5632	1086.4	8.5
308.15	0.625	1073.9	8.5
308.15	0.75	1050.9	8.5
308.15	0.8333	1037	8.5
308.15	1	1007.4	8.2
318.15	0	1246	8.2
318.15	0.0501	1232.2	8.6
318.15	0.0909	1217.1	8.6
318.15	0.1667	1188.2	8.6
318.15	0.2	1176.9	8.6
318.15	0.2153	1171.5	8.6
318.15	0.2306	1166.7	8.6
318.15	0.3059	1142.9	8.5
318.15	0.3333	1134.9	8.5
318.15	0.4011	1117.3	8.5
318.15	0.5	1093.5	8.5
318.15	0.5632	1079.3	8.5
318.15	0.625	1066.7	8.5
318.15	0.75	1042.7	8.5
318.15	0.8333	1028.7	8.5
318.15	1	1000.8	8.2
328.15	0	1240.5	8.2
328.15	0.0501	1224.9	8.6
328.15	0.0909	1208.3	8.6
328.15	0.1667	1180.2	8.6
328.15	0.2	1169.4	8.6
328.15	0.2153	1164.2	8.6
328.15	0.2306	1158.9	8.5
328.15	0.3059	1136	8.5
328.15	0.3333	1128	8.5
328.15	0.4011	1109.7	8.5
328.15	0.5	1086	8.5
328.15	0.5632	1071.9	8.5
328.15	0.625	1059.1	8.5
328.15	0.75	1035.3	8.5
328.15	0.8333	1021.1	8.5
328.15	1	994.2	8.2
293.15	0	1260.5	8.2
293.15	0.0926	1236.7	8.6
293.15	0.1902	1197.8	8.6
293.15	0.2998	1161.7	8.5
293.15	0.3996	1133.2	8.5
293.15	0.5032	1108.7	8.5
293.15	0.5995	1088	8.5
293.15	0.6992	1069.6	8.5
293.15	0.7998	1052.3	8.5
293.15	0.9001	1030.8	8.5
293.15	1	1017.1	8.2
303.15	0	1254.8	8.2
303.15	0.0926	1229.7	8.6
303.15	0.1902	1191.9	8.6
303.15	0.2998	1156.4	8.5
303.15	0.3996	1128.3	8.5
303.15	0.5032	1102.3	8.5
303.15	0.5995	1081.9	8.5
303.15	0.6992	1064.2	8.5
303.15	0.7998	1045.7	8.5
303.15	0.9001	1028.9	8.5
303.15	1	1010.9	8.2
313.15	0	1248.9	8.2
313.15	0.0926	1222.9	8.6
313.15	0.1902	1184.5	8.6
313.15	0.2998	1149.2	8.5
313.15	0.3996	1121.2	8.5
313.15	0.5032	1095.3	8.5
313.15	0.5995	1075.9	8.5
313.15	0.6992	1056.8	8.5
313.15	0.7998	1038.7	8.5
313.15	0.9001	1021.2	8.5
313.15	1	1004.6	8.2
323.15	0	1242.4	8.2
323.15	0.0926	1216	8.6
323.15	0.1902	1177.6	8.6
323.15	0.2998	1142.5	8.5
323.15	0.3996	1114.6	8.5
323.15	0.5032	1087.4	8.5
323.15	0.5995	1068.3	8.5
323.15	0.6992	1049.7	8.5
323.15	0.7998	1031.5	8.5
323.15	0.9001	1013.9	8.5
323.15	1	998.4	8.2
328.15	0.2	1170.9	9.6
298.15	0.5	1107.1	9.6
318.15	0.5	1091.1	9.6
288.15	0.75	1066.1	9.6

System: 1,8-diaza-7-bicyclo[5.4.0]undecene + glycerol + carbon dioxide; phases: Liquid
Fixed: Pressure, kPa = 96
Property: Mass density, kg/m3 (Liquid); method: Pycnometric method
Temperature, K	Solvent: Mole fraction of 1,8-diaza-7-bicyclo[5.4.0]undecene	Mass ratio of solute to solvent of carbon dioxide	Mass density, kg/m3	uncertainty
288.15	0.2	0	1200.6	9.6
288.15	0.2	0.0135	1207.5	9.6
288.15	0.2	0.0262	1215.4	9.6
288.15	0.2	0.0345	1218.9	9.6
288.15	0.2	0.045	1226.2	9.6
288.15	0.2	0.0543	1232.4	9.6
288.15	0.2	0.0616	1235.4	9.6
288.15	0.2	0.0695	1240.8	9.6
288.15	0.2	0.0734	1242.4	9.6
288.15	0.2	0.0826	1248.4	9.6
298.15	0.2	0	1192.3	9.6
298.15	0.2	0.0135	1200.9	9.6
298.15	0.2	0.0262	1209	10
298.15	0.2	0.0345	1214.4	9.6
298.15	0.2	0.045	1220.5	9.6
298.15	0.2	0.0543	1226.3	9.6
298.15	0.2	0.0616	1231.1	9.6
298.15	0.2	0.0695	1235.2	9.6
298.15	0.2	0.0734	1238	9.6
298.15	0.2	0.0826	1242.4	9.6
308.15	0.2	0	1184.9	9.6
308.15	0.2	0.0135	1193.3	9.6
308.15	0.2	0.0262	1202.1	9.6
308.15	0.2	0.0345	1206.8	9.6
308.15	0.2	0.045	1214.2	9.6
308.15	0.2	0.0543	1219.4	9.6
308.15	0.2	0.0616	1224.2	9.6
308.15	0.2	0.0695	1228.7	9.6
308.15	0.2	0.0734	1230.9	9.6
308.15	0.2	0.0826	1236	9.6
318.15	0.2	0	1176.9	9.6
318.15	0.2	0.0135	1185.9	9.6
318.15	0.2	0.0262	1195.1	9.6
318.15	0.2	0.0345	1199.6	9.6
318.15	0.2	0.045	1207.2	9.6
318.15	0.2	0.0543	1212.6	9.6
318.15	0.2	0.0616	1217.2	9.6
318.15	0.2	0.0695	1221.6	9.6
318.15	0.2	0.0734	1224.4	9.6
318.15	0.2	0.0826	1229.5	9.6
328.15	0.2	0	1170.9	9.6
328.15	0.2	0.0135	1178.7	9.6
328.15	0.2	0.0262	1187.9	9.6
328.15	0.2	0.0345	1193	9.6
328.15	0.2	0.045	1200.4	9.6
328.15	0.2	0.0543	1206	9.6
328.15	0.2	0.0616	1210.6	9.6
328.15	0.2	0.0695	1214.7	9.6
328.15	0.2	0.0734	1217.9	9.6
328.15	0.2	0.0826	1223.2	9.6
288.15	0.5	0	1117.4	9.6
288.15	0.5	0.0104	1121.4	9.6
288.15	0.5	0.0189	1127.2	9.6
288.15	0.5	0.029	1136.5	9.6
288.15	0.5	0.0414	1145.1	9.6
288.15	0.5	0.0584	1164.8	9.6
298.15	0.5	0	1107.1	9.6
298.15	0.5	0.0104	1114.5	9.6
298.15	0.5	0.0189	1120.6	9.6
298.15	0.5	0.029	1128.9	9.6
298.15	0.5	0.0414	1139.8	9.6
298.15	0.5	0.0584	1155.6	9.6
298.15	0.5	0.0719	1162.7	9.6
298.15	0.5	0.0867	1173.4	9.6
298.15	0.5	0.1016	1183.4	9.6
308.15	0.5	0	1100.2	9.6
308.15	0.5	0.0104	1106.3	9.6
308.15	0.5	0.0189	1113.3	9.6
308.15	0.5	0.029	1121.1	9.6
308.15	0.5	0.0414	1132.3	9.6
308.15	0.5	0.0584	1145.4	9.6
308.15	0.5	0.0719	1154.9	9.6
308.15	0.5	0.0867	1166.1	9.6
308.15	0.5	0.1016	1176.7	9.6
308.15	0.5	0.119	1191	9.6
318.15	0.5	0	1091.1	9.6
318.15	0.5	0.0104	1098.8	9.6
318.15	0.5	0.0189	1105.9	9.6
318.15	0.5	0.029	1113.7	9.6
318.15	0.5	0.0414	1125.1	9.6
318.15	0.5	0.0584	1137.8	9.6
318.15	0.5	0.0719	1147.4	9.6
318.15	0.5	0.0867	1158.8	9.6
318.15	0.5	0.1016	1168.2	9.6
318.15	0.5	0.119	1182.2	9.6
318.15	0.5	0.1288	1191.9	9.6
328.15	0.5	0	1086	9.6
328.15	0.5	0.0104	1091.6	9.6
328.15	0.5	0.0189	1098.4	9.6
328.15	0.5	0.029	1106.1	9.6
328.15	0.5	0.0414	1116.8	9.6
328.15	0.5	0.0584	1130.5	9.6
328.15	0.5	0.0719	1140.3	9.6
328.15	0.5	0.0867	1152.4	9.6
328.15	0.5	0.1016	1161.5	9.6
328.15	0.5	0.119	1175.1	9.6
328.15	0.5	0.1288	1184.7	9.6
288.15	0.75	0	1066.1	9.6
288.15	0.75	0.013	1075.4	9.6
288.15	0.75	0.0265	1087.3	9.6
288.15	0.75	0.0468	1103.3	9.6
288.15	0.75	0.0577	1114.4	9.6
288.15	0.75	0.0656	1118.6	9.6
288.15	0.75	0.0718	1120.6	9.6
288.15	0.75	0.0732	1118.6	9.6
298.15	0.75	0	1058.1	9.6
298.15	0.75	0.013	1068.7	9.6
298.15	0.75	0.0265	1077.9	9.6
298.15	0.75	0.0468	1096.4	9.6
298.15	0.75	0.0577	1106	9.6
298.15	0.75	0.0656	1112.1	9.6
298.15	0.75	0.0718	1113.2	9.6
298.15	0.75	0.0732	1113.6	9.6
298.15	0.75	0.0819	1125.3	9.6
298.15	0.75	0.0865	1137.4	9.6
308.15	0.75	0	1050.9	9.6
308.15	0.75	0.013	1061.7	9.6
308.15	0.75	0.0265	1074.1	9.6
308.15	0.75	0.0468	1089	9.6
308.15	0.75	0.0577	1097.5	9.6
308.15	0.75	0.0656	1104.7	9.6
308.15	0.75	0.0718	1105.8	9.6
308.15	0.75	0.0732	1107.1	9.6
308.15	0.75	0.0819	1116.1	9.6
308.15	0.75	0.0865	1126.8	9.6
308.15	0.75	0.0926	1133.4	9.6
308.15	0.75	0.0981	1143.6	9.6
318.15	0.75	0	1042.7	9.6
318.15	0.75	0.013	1054.1	9.6
318.15	0.75	0.0265	1065.7	9.6
318.15	0.75	0.0468	1082.2	9.6
318.15	0.75	0.0577	1089.3	9.6
318.15	0.75	0.0656	1097.4	9.6
318.15	0.75	0.0718	1099.1	9.6
318.15	0.75	0.0732	1100.8	9.6
318.15	0.75	0.0819	1110.2	9.6
318.15	0.75	0.0865	1118.5	9.6
318.15	0.75	0.0926	1127.1	9.6
318.15	0.75	0.0981	1133.6	9.6
328.15	0.75	0	1035.3	9.6
328.15	0.75	0.013	1047.3	9.6
328.15	0.75	0.0265	1058.2	9.6
328.15	0.75	0.0468	1075.3	9.6
328.15	0.75	0.0577	1082.3	9.6
328.15	0.75	0.0656	1090	9.6
328.15	0.75	0.0718	1092	9.6
328.15	0.75	0.0732	1094.5	9.6
328.15	0.75	0.0819	1102	9.6
328.15	0.75	0.0865	1110.6	9.6
328.15	0.75	0.0926	1117.2	9.6
328.15	0.75	0.0981	1124.5	9.6
288.15	0.8333	0	1051.7	9.6
288.15	0.8333	0.0192	1064.5	9.6
288.15	0.8333	0.0326	1076.1	9.6
288.15	0.8333	0.044	1084.1	9.6
288.15	0.8333	0.0514	1088.2	9.6
298.15	0.8333	0	1044.3	9.6
298.15	0.8333	0.0192	1057.6	9.6
298.15	0.8333	0.0326	1069.8	9.6
298.15	0.8333	0.044	1078.4	9.6
298.15	0.8333	0.0514	1084	9.6
308.15	0.8333	0	1037	9.6
308.15	0.8333	0.0192	1050.1	9.6
308.15	0.8333	0.0326	1062	9.6
308.15	0.8333	0.044	1070.5	9.6
308.15	0.8333	0.0514	1076.4	9.6
318.15	0.8333	0	1028.7	9.6
318.15	0.8333	0.0192	1042.3	9.6
318.15	0.8333	0.0326	1054.6	9.6
318.15	0.8333	0.044	1063.4	9.6
318.15	0.8333	0.0514	1069.1	9.6
328.15	0.8333	0	1021.1	9.6
328.15	0.8333	0.0192	1035.3	9.6
328.15	0.8333	0.0326	1047.5	9.6
328.15	0.8333	0.044	1056.4	9.6
328.15	0.8333	0.0514	1062.5	9.6
288.15	0.3333	0	1159.4	9.6
288.15	0.3333	0.0175	1165.1	9.6
288.15	0.3333	0.0308	1177.6	9.6
288.15	0.3333	0.0435	1186.1	9.6
288.15	0.3333	0.0584	1198.5	9.6
288.15	0.3333	0.0819	1213	9.6
288.15	0.3333	0.107	1233.1	9.6
298.15	0.3333	0	1149.8	9.6
298.15	0.3333	0.0175	1159.2	9.6
298.15	0.3333	0.0308	1172.5	9.6
298.15	0.3333	0.0435	1181.1	9.6
298.15	0.3333	0.0584	1194	9.6
298.15	0.3333	0.0819	1208.4	9.6
298.15	0.3333	0.107	1229	9.6
308.15	0.3333	0	1142.5	9.6
308.15	0.3333	0.0175	1152.1	9.6
308.15	0.3333	0.0308	1164.5	9.6
308.15	0.3333	0.0435	1174.5	9.6
308.15	0.3333	0.0584	1187.3	9.6
308.15	0.3333	0.0819	1202	9.6
308.15	0.3333	0.107	1222.2	9.6
318.15	0.3333	0	1134.9	9.6
318.15	0.3333	0.0175	1144.8	9.6
318.15	0.3333	0.0308	1157.5	9.6
318.15	0.3333	0.0435	1167	9.6
318.15	0.3333	0.0584	1181.1	9.6
318.15	0.3333	0.0819	1194.8	9.6
318.15	0.3333	0.107	1215.5	9.6
328.15	0.3333	0	1128	9.6
328.15	0.3333	0.0175	1137.1	9.6
328.15	0.3333	0.0308	1149.7	9.6
328.15	0.3333	0.0435	1159.6	9.6
328.15	0.3333	0.0584	1173.1	9.6
328.15	0.3333	0.0819	1187.6	9.6
328.15	0.3333	0.107	1208.8	9.6
