Measured thermophysical data. Critical temperatures and pressures, heat capacities, and thermal diffusivities of levulinic acid and four n-alkyl levulinates
Source: J. Chem. Thermodyn., 2019, 10.1016/j.jct.2019.03.040
Compound 1: 4-oxopentanoic acid, C5H8O3, InChI=1S/C5H8O3/c1-4(6)2-3-5(7)8/h2-3H2,1H3,(H,7,8), purity 99.1%
Compound 2: methyl levulinate, C6H10O3, InChI=1S/C6H10O3/c1-5(7)3-4-6(8)9-2/h3-4H2,1-2H3, purity 99.7%
Compound 3: ethyl levulinate, C7H12O3, InChI=1S/C7H12O3/c1-3-10-7(9)5-4-6(2)8/h3-5H2,1-2H3, purity 99.3%
Compound 4: propyl levulinate, C8H14O3, InChI=1S/C8H14O3/c1-3-6-11-8(10)5-4-7(2)9/h3-6H2,1-2H3, purity 97.7%
Compound 5: butyl levulinate, C9H16O3, InChI=1S/C9H16O3/c1-3-4-7-12-9(11)6-5-8(2)10/h3-7H2,1-2H3, purity 98.4%

System: 4-oxopentanoic acid; phases: Liquid, Gas
Property: Critical temperature, K (Liquid); method: Resistive pulse heating
Critical temperature, K	uncertainty
766	12

System: 4-oxopentanoic acid; phases: Liquid, Gas
Property: Critical pressure, kPa (Liquid); method: Resistive pulse heating
Critical pressure, kPa	uncertainty
5310	220

System: 4-oxopentanoic acid; phases: Metastable liquid
Fixed: Pressure, kPa = 101.325
Property: Molar heat capacity at constant pressure, J/K/mol (Metastable liquid); method: Small sample (50 mg) DSC
Temperature, K	Molar heat capacity at constant pressure, J/K/mol	uncertainty
302.62	245.93203596	6.03799144
303.12	246.1642664	6.03799144
303.62	246.04815118	6.03799144
304.12	246.28038162	6.03799144
304.62	246.1642664	6.03799144
305.12	246.51261206	6.03799144
305.62	246.39649684	6.03799144
306.12	246.86095772	6.03799144
306.62	246.86095772	6.03799144
307.12	246.86095772	6.03799144
307.62	246.86095772	6.03799144
308.12	246.97707294	6.03799144
308.62	247.44153382	6.03799144
309.12	247.09318816	6.03799144
309.62	247.3254186	6.03799144
310.12	247.44153382	6.03799144
310.62	248.02210992	6.03799144
311.12	247.9059947	6.03799144
311.62	247.9059947	6.03799144
312.12	247.9059947	6.03799144
312.62	247.9059947	6.03799144
313.12	247.55764904	6.03799144
313.62	247.9059947	6.03799144
314.12	248.25434036	6.03799144
314.62	248.37045558	6.03799144
315.12	248.4865708	6.03799144
315.62	248.83491646	6.15410666
316.12	248.95103168	6.15410666
316.62	249.53160778	6.15410666
317.12	249.647723	6.15410666
317.62	249.76383822	6.15410666
318.12	250.46052954	6.15410666
318.62	250.2282991	6.15410666
319.12	249.99606866	6.15410666
319.62	250.34441432	6.15410666
320.12	250.11218388	6.15410666
320.62	250.46052954	6.15410666
321.12	250.34441432	6.15410666
321.62	250.46052954	6.15410666
322.12	250.57664476	6.15410666
322.62	250.46052954	6.15410666
323.12	251.15722086	6.15410666
323.62	251.04110564	6.15410666
324.12	251.27333608	6.15410666
324.62	251.50556652	6.15410666
325.12	251.27333608	6.15410666
325.62	251.3894513	6.15410666
326.12	251.73779696	6.15410666
326.62	252.20225784	6.15410666
327.12	251.85391218	6.15410666
327.62	251.85391218	6.15410666
328.12	251.85391218	6.15410666
328.62	252.08614262	6.15410666
329.12	252.31837306	6.15410666
329.62	251.85391218	6.15410666
330.12	252.5506035	6.15410666
330.62	252.5506035	6.15410666
331.12	252.66671872	6.15410666
331.62	253.24729482	6.15410666
332.12	253.59564048	6.27022188
332.62	253.82787092	6.27022188
333.12	254.06010136	6.27022188
333.62	254.2923318	6.27022188
334.12	254.06010136	6.27022188
334.62	254.17621658	6.27022188
335.12	254.40844702	6.27022188
335.62	254.40844702	6.27022188
336.12	254.8729079	6.27022188
336.62	254.64067746	6.27022188
337.12	255.10513834	6.27022188
337.62	255.453484	6.27022188
338.12	255.22125356	6.27022188
338.62	255.22125356	6.27022188
339.12	255.56959922	6.27022188
339.62	255.80182966	6.27022188
340.12	256.0340601	6.27022188
340.62	256.49852098	6.27022188
341.12	256.73075142	6.27022188
341.62	257.07909708	6.27022188
342.12	257.42744274	6.27022188
342.62	257.54355796	6.27022188
343.12	257.65967318	6.27022188
343.62	257.89190362	6.27022188
344.12	257.89190362	6.27022188
344.62	257.31132752	6.27022188
345.12	257.42744274	6.27022188
345.62	257.54355796	6.27022188
346.12	257.89190362	6.27022188
346.62	258.24024928	6.27022188
347.12	258.58859494	6.3863371
347.62	258.70471016	6.3863371
348.12	258.58859494	6.3863371
348.62	258.82082538	6.3863371
349.12	258.9369406	6.3863371
349.62	258.82082538	6.3863371
350.12	258.9369406	6.3863371
350.62	259.16917104	6.3863371
351.12	259.16917104	6.3863371
351.62	259.28528626	6.3863371
352.12	260.21420802	6.3863371
352.62	260.0980928	6.3863371
353.12	259.86586236	6.3863371
353.62	260.33032324	6.3863371
354.12	260.44643846	6.3863371
354.62	259.74974714	6.3863371
355.12	260.21420802	6.3863371
355.62	260.44643846	6.3863371
356.12	260.79478412	6.3863371
356.62	260.79478412	6.3863371
357.12	260.56255368	6.3863371
357.62	260.79478412	6.3863371
358.12	260.44643846	6.3863371
358.62	260.56255368	6.3863371
359.12	261.02701456	6.3863371
359.62	260.6786689	6.3863371
360.12	260.79478412	6.3863371
360.62	261.02701456	6.3863371
361.12	261.37536022	6.3863371
361.62	261.60759066	6.3863371
362.12	261.95593632	6.3863371
362.62	262.07205154	6.3863371
363.12	262.07205154	6.3863371
363.62	262.07205154	6.3863371
364.12	262.88485808	6.3863371
364.62	262.76874286	6.3863371
365.12	263.11708852	6.50245232
365.62	263.69766462	6.50245232
366.12	264.39435594	6.50245232
366.62	264.39435594	6.50245232
367.12	263.92989506	6.50245232
367.62	263.46543418	6.50245232
368.12	263.11708852	6.50245232
368.62	263.11708852	6.50245232
369.12	263.46543418	6.50245232
369.62	263.46543418	6.50245232
370.12	263.69766462	6.50245232
370.62	263.69766462	6.50245232
371.12	263.92989506	6.50245232
371.62	264.04601028	6.50245232
372.12	264.27824072	6.50245232
372.62	264.04601028	6.50245232
373.12	264.27824072	6.50245232
373.62	264.27824072	6.50245232
374.12	264.51047116	6.50245232

System: methyl levulinate; phases: Liquid, Gas
Property: Critical temperature, K (Liquid); method: Resistive pulse heating
Critical temperature, K	uncertainty
668	7

System: methyl levulinate; phases: Liquid, Gas
Property: Critical pressure, kPa (Liquid); method: Resistive pulse heating
Critical pressure, kPa	uncertainty
3270	100

System: methyl levulinate; phases: Liquid
Fixed: Pressure, kPa = 101.325
Property: Thermal diffusivity, m2/s (Liquid); method: Laser flash apparatus
Temperature, K	Thermal diffusivity, m2/s	uncertainty
303.15	8e-08	4.3e-09
313.15	7.9e-08	4.2e-09
323.15	7.85e-08	4.2e-09
333.15	7.7e-08	4.1e-09
343.15	7.6e-08	4.1e-09
353.15	7.5e-08	4e-09
363.15	7.35e-08	3.9e-09
373.15	7.25e-08	3.9e-09

System: methyl levulinate; phases: Liquid
Fixed: Pressure, kPa = 101.325
Property: Molar heat capacity at constant pressure, J/K/mol (Liquid); method: Small sample (50 mg) DSC
Temperature, K	Molar heat capacity at constant pressure, J/K/mol	uncertainty
302.68	258.8520402	6.3769482
303.18	259.1123238	6.3769482
303.68	258.982182	6.3769482
304.18	259.2424656	6.3769482
304.68	258.982182	6.3769482
305.18	258.7218984	6.3769482
305.68	259.1123238	6.3769482
306.18	258.8520402	6.3769482
306.68	258.982182	6.3769482
307.18	259.5027492	6.3769482
307.68	259.632891	6.3769482
308.18	259.8931746	6.3769482
308.68	260.1534582	6.3769482
309.18	259.8931746	6.3769482
309.68	259.632891	6.3769482
310.18	259.7630328	6.3769482
310.68	259.3726074	6.3769482
311.18	259.3726074	6.3769482
311.68	259.5027492	6.3769482
312.18	259.7630328	6.3769482
312.68	259.8931746	6.3769482
313.18	259.7630328	6.3769482
313.68	260.1534582	6.3769482
314.18	260.0233164	6.3769482
314.68	260.5438836	6.3769482
315.18	260.1534582	6.3769482
315.68	260.0233164	6.3769482
316.18	259.8931746	6.3769482
316.68	260.8041672	6.3769482
317.18	260.934309	6.3769482
317.68	260.8041672	6.3769482
318.18	261.0644508	6.3769482
318.68	261.0644508	6.3769482
319.18	261.1945926	6.3769482
319.68	261.0644508	6.3769482
320.18	260.934309	6.3769482
320.68	261.0644508	6.3769482
321.18	261.1945926	6.3769482
321.68	261.3247344	6.3769482
322.18	261.0644508	6.3769482
322.68	260.8041672	6.3769482
323.18	261.3247344	6.3769482
323.68	261.3247344	6.3769482
324.18	261.4548762	6.3769482
324.68	261.7151598	6.3769482
325.18	261.585018	6.3769482
325.68	261.8453016	6.3769482
326.18	261.9754434	6.3769482
326.68	262.1055852	6.3769482
327.18	262.1055852	6.3769482
327.68	262.235727	6.3769482
328.18	262.3658688	6.3769482
328.68	262.6261524	6.3769482
329.18	262.7562942	6.3769482
329.68	262.6261524	6.3769482
330.18	262.6261524	6.3769482
330.68	263.0165778	6.50709
331.18	263.1467196	6.50709
331.68	263.1467196	6.50709
332.18	263.9275704	6.50709
332.68	263.7974286	6.50709
333.18	264.0577122	6.50709
333.68	263.9275704	6.50709
334.18	264.0577122	6.50709
334.68	264.4481376	6.50709
335.18	264.4481376	6.50709
335.68	264.187854	6.50709
336.18	264.187854	6.50709
336.68	264.5782794	6.50709
337.18	264.4481376	6.50709
337.68	264.3179958	6.50709
338.18	264.4481376	6.50709
338.68	264.4481376	6.50709
339.18	265.0988466	6.50709
339.68	265.3591302	6.50709
340.18	264.9687048	6.50709
340.68	264.838563	6.50709
341.18	264.9687048	6.50709
341.68	265.489272	6.50709
342.18	265.489272	6.50709
342.68	265.6194138	6.50709
343.18	265.7495556	6.50709
343.68	266.0098392	6.50709
344.18	266.4002646	6.50709
344.68	266.2701228	6.50709
345.18	266.2701228	6.50709
345.68	266.4002646	6.50709
346.18	266.79069	6.50709
346.68	266.4002646	6.50709
347.18	266.79069	6.50709
347.68	266.6605482	6.50709
348.18	266.9208318	6.50709
348.68	267.3112572	6.50709
349.18	266.9208318	6.50709
349.68	267.1811154	6.50709
350.18	267.7016826	6.50709
350.68	267.7016826	6.50709
351.18	268.092108	6.50709
351.68	268.092108	6.50709
352.18	267.9619662	6.50709
352.68	268.4825334	6.6372318
353.18	268.6126752	6.6372318
353.68	268.6126752	6.6372318
354.18	268.4825334	6.6372318
354.68	268.4825334	6.6372318
355.18	268.8729588	6.6372318
355.68	268.8729588	6.6372318
356.18	268.8729588	6.6372318
356.68	269.1332424	6.6372318
357.18	269.393526	6.6372318
357.68	269.7839514	6.6372318
358.18	269.9140932	6.6372318
358.68	269.6538096	6.6372318
359.18	270.1743768	6.6372318
359.68	270.3045186	6.6372318
360.18	270.5648022	6.6372318
360.68	270.8250858	6.6372318
361.18	270.9552276	6.6372318
361.68	270.5648022	6.6372318
362.18	270.5648022	6.6372318
362.68	270.5648022	6.6372318
363.18	271.0853694	6.6372318
363.68	270.9552276	6.6372318
364.18	271.2155112	6.6372318
364.68	271.4757948	6.6372318
365.18	271.7360784	6.6372318
365.68	271.7360784	6.6372318
366.18	271.8662202	6.6372318
366.68	271.8662202	6.6372318
367.18	271.8662202	6.6372318
367.68	272.3867874	6.6372318
368.18	272.5169292	6.6372318
368.68	272.647071	6.6372318
369.18	273.0374964	6.6372318
369.68	273.0374964	6.6372318
370.18	272.7772128	6.6372318
370.68	272.9073546	6.6372318
371.18	273.29778	6.6372318
371.68	273.5580636	6.6372318
372.18	273.5580636	6.6372318
372.68	273.5580636	6.6372318
373.18	273.8183472	6.7673736
373.68	273.6882054	6.7673736

System: ethyl levulinate; phases: Liquid, Gas
Property: Critical temperature, K (Liquid); method: Resistive pulse heating
Critical temperature, K	uncertainty
669	7

System: ethyl levulinate; phases: Liquid, Gas
Property: Critical pressure, kPa (Liquid); method: Resistive pulse heating
Critical pressure, kPa	uncertainty
2970	90

System: ethyl levulinate; phases: Liquid
Fixed: Pressure, kPa = 101.325
Property: Thermal diffusivity, m2/s (Liquid); method: Laser flash apparatus
Temperature, K	Thermal diffusivity, m2/s	uncertainty
303.15	7.9e-08	4.2e-09
313.15	7.8e-08	4.2e-09
323.15	7.7e-08	4.1e-09
333.15	7.6e-08	4.1e-09
343.15	7.5e-08	4e-09
353.15	7.4e-08	4e-09
363.15	7.25e-08	3.9e-09
373.15	7.15e-08	3.8e-09

System: ethyl levulinate; phases: Liquid
Fixed: Pressure, kPa = 101.325
Property: Molar heat capacity at constant pressure, J/K/mol (Liquid); method: Small sample (50 mg) DSC
Temperature, K	Molar heat capacity at constant pressure, J/K/mol	uncertainty
302.98	275.21743742	6.77591386
303.48	275.79411094	6.77591386
303.98	276.51495284	6.77591386
304.48	276.37078446	6.77591386
304.98	275.64994256	6.77591386
305.48	276.0824477	6.77591386
305.98	275.64994256	6.77591386
306.48	276.0824477	6.77591386
306.98	276.94745798	6.77591386
307.48	277.23579474	6.77591386
307.98	277.66829988	6.77591386
308.48	277.5241315	6.77591386
308.98	277.37996312	6.77591386
309.48	277.66829988	6.77591386
309.98	277.95663664	6.77591386
310.48	278.53331016	6.77591386
310.98	278.82164692	6.77591386
311.48	277.95663664	6.77591386
311.98	278.2449734	6.77591386
312.48	277.23579474	6.77591386
312.98	278.53331016	6.77591386
313.48	278.82164692	6.77591386
313.98	279.25415206	6.77591386
314.48	279.25415206	6.77591386
314.98	279.25415206	6.77591386
315.48	278.53331016	6.77591386
315.98	279.25415206	6.77591386
316.48	278.67747854	6.77591386
316.98	278.9658153	6.77591386
317.48	279.6866572	6.92008224
317.98	279.39832044	6.77591386
318.48	279.83082558	6.92008224
318.98	279.6866572	6.92008224
319.48	279.83082558	6.92008224
319.98	279.54248882	6.92008224
320.48	280.55166748	6.92008224
320.98	280.98417262	6.92008224
321.48	280.69583586	6.92008224
321.98	279.97499396	6.92008224
322.48	280.55166748	6.92008224
322.98	280.84000424	6.92008224
323.48	281.41667776	6.92008224
323.98	281.128341	6.92008224
324.48	281.41667776	6.92008224
324.98	281.56084614	6.92008224
325.48	281.27250938	6.92008224
325.98	281.99335128	6.92008224
326.48	282.5700248	6.92008224
326.98	282.13751966	6.92008224
327.48	282.42585642	6.92008224
327.98	282.5700248	6.92008224
328.48	283.2908667	6.92008224
328.98	283.14669832	6.92008224
329.48	282.85836156	6.92008224
329.98	283.2908667	6.92008224
330.48	283.86754022	6.92008224
330.98	284.0117086	6.92008224
331.48	284.0117086	6.92008224
331.98	284.15587698	6.92008224
332.48	284.44421374	6.92008224
332.98	284.15587698	6.92008224
333.48	284.30004536	6.92008224
333.98	284.0117086	6.92008224
334.48	284.87671888	6.92008224
334.98	285.74172916	7.06425062
335.48	285.59756078	7.06425062
335.98	285.88589754	7.06425062
336.48	285.59756078	7.06425062
336.98	285.88589754	7.06425062
337.48	285.74172916	7.06425062
337.98	285.59756078	7.06425062
338.48	286.1742343	7.06425062
338.98	286.31840268	7.06425062
339.48	286.31840268	7.06425062
339.98	286.03006592	7.06425062
340.48	286.31840268	7.06425062
340.98	285.74172916	7.06425062
341.48	286.1742343	7.06425062
341.98	286.46257106	7.06425062
342.48	286.75090782	7.06425062
342.98	285.88589754	7.06425062
343.48	286.60673944	7.06425062
343.98	286.8950762	7.06425062
344.48	287.76008648	7.06425062
344.98	288.33676	7.06425062
345.48	287.47174972	7.06425062
345.98	288.62509676	7.06425062
346.48	288.19259162	7.06425062
346.98	287.90425486	7.06425062
347.48	288.04842324	7.06425062
347.98	288.48092838	7.06425062
348.48	288.48092838	7.06425062
348.98	288.19259162	7.06425062
349.48	289.20177028	7.06425062
349.98	289.20177028	7.06425062
350.48	289.34593866	7.06425062
350.98	289.20177028	7.06425062
351.48	289.63427542	7.06425062
351.98	289.20177028	7.06425062
352.48	289.7784438	7.06425062
352.98	290.4992857	7.06425062
353.48	289.7784438	7.06425062
353.98	290.35511732	7.06425062
354.48	290.21094894	7.06425062
354.98	289.92261218	7.06425062
355.48	289.92261218	7.06425062
355.98	289.7784438	7.06425062
356.48	289.92261218	7.06425062
356.98	291.07595922	7.06425062
357.48	290.93179084	7.06425062
357.98	290.64345408	7.06425062
358.48	290.93179084	7.06425062
358.98	290.78762246	7.06425062
359.48	291.50846436	7.208419
359.98	292.08513788	7.208419
360.48	291.65263274	7.208419
360.98	292.08513788	7.208419
361.48	292.51764302	7.208419
361.98	291.50846436	7.208419
362.48	292.6618114	7.208419
362.98	292.80597978	7.208419
363.48	293.81515844	7.208419
363.98	293.52682168	7.208419
364.48	293.67099006	7.208419
364.98	294.24766358	7.208419
365.48	294.39183196	7.208419
365.98	295.40101062	7.208419
366.48	294.53600034	7.208419
366.98	295.83351576	7.208419
367.48	295.545179	7.208419
367.98	295.97768414	7.208419
368.48	295.83351576	7.208419
368.98	296.84269442	7.208419
369.48	296.84269442	7.208419
369.98	296.2660209	7.208419
370.48	296.9868628	7.208419
370.98	296.2660209	7.208419
371.48	296.55435766	7.208419
371.98	296.84269442	7.208419
372.48	296.84269442	7.208419
372.98	296.84269442	7.208419
373.48	296.9868628	7.208419
373.98	297.13103118	7.208419

System: propyl levulinate; phases: Liquid, Gas
Property: Critical temperature, K (Liquid); method: Resistive pulse heating
Critical temperature, K	uncertainty
674	7

System: propyl levulinate; phases: Liquid, Gas
Property: Critical pressure, kPa (Liquid); method: Resistive pulse heating
Critical pressure, kPa	uncertainty
2670	80

System: propyl levulinate; phases: Liquid
Fixed: Pressure, kPa = 101.325
Property: Thermal diffusivity, m2/s (Liquid); method: Laser flash apparatus
Temperature, K	Thermal diffusivity, m2/s	uncertainty
303.15	7.82e-08	4.2e-09
313.15	7.73e-08	4.2e-09
323.15	7.62e-08	4.1e-09
333.15	7.53e-08	4e-09
343.15	7.37e-08	4e-09
353.15	7.26e-08	3.9e-09
363.15	7.22e-08	3.9e-09

System: propyl levulinate; phases: Liquid
Fixed: Pressure, kPa = 101.325
Property: Molar heat capacity at constant pressure, J/K/mol (Liquid); method: Small sample (50 mg) DSC
Temperature, K	Molar heat capacity at constant pressure, J/K/mol	uncertainty
303.04	319.87020912	7.909748
303.54	320.344794	7.909748
304.04	320.50298896	7.909748
304.54	320.02840408	7.909748
305.04	320.50298896	7.909748
305.54	320.344794	7.909748
306.04	320.50298896	7.909748
306.54	320.18659904	7.909748
307.04	320.18659904	7.909748
307.54	320.81937888	7.909748
308.04	320.81937888	7.909748
308.54	321.45215872	7.909748
309.04	320.81937888	7.909748
309.54	321.1357688	7.909748
310.04	321.61035368	7.909748
310.54	321.1357688	7.909748
311.04	321.29396376	7.909748
311.54	321.29396376	7.909748
312.04	322.08493856	7.909748
312.54	321.45215872	7.909748
313.04	322.24313352	7.909748
313.54	322.08493856	7.909748
314.04	322.24313352	7.909748
314.54	322.24313352	7.909748
315.04	322.55952344	7.909748
315.54	322.87591336	7.909748
316.04	322.7177184	7.909748
316.54	322.24313352	7.909748
317.04	322.55952344	7.909748
317.54	323.03410832	7.909748
318.04	323.98327808	7.909748
318.54	323.19230328	7.909748
319.04	323.66688816	7.909748
319.54	324.14147304	7.909748
320.04	323.35049824	7.909748
320.54	323.82508312	7.909748
321.04	323.66688816	7.909748
321.54	323.82508312	7.909748
322.04	323.82508312	7.909748
322.54	324.61605792	7.909748
323.04	324.45786296	7.909748
323.54	324.45786296	7.909748
324.04	324.299668	7.909748
324.54	324.93244784	7.909748
325.04	324.93244784	7.909748
325.54	325.24883776	7.909748
326.04	325.56522768	7.909748
326.54	325.72342264	7.909748
327.04	325.8816176	7.909748
327.54	325.72342264	7.909748
328.04	326.03981256	8.06794296
328.54	326.6725924	8.06794296
329.04	325.72342264	7.909748
329.54	326.51439744	8.06794296
330.04	326.19800752	8.06794296
330.54	326.83078736	8.06794296
331.04	326.83078736	8.06794296
331.54	327.14717728	8.06794296
332.04	326.83078736	8.06794296
332.54	327.14717728	8.06794296
333.04	326.83078736	8.06794296
333.54	327.30537224	8.06794296
334.04	327.62176216	8.06794296
334.54	328.09634704	8.06794296
335.04	328.41273696	8.06794296
335.54	328.72912688	8.06794296
336.04	328.41273696	8.06794296
336.54	328.254542	8.06794296
337.04	328.57093192	8.06794296
337.54	328.57093192	8.06794296
338.04	329.20371176	8.06794296
338.54	328.88732184	8.06794296
339.04	329.0455168	8.06794296
339.54	329.20371176	8.06794296
340.04	328.88732184	8.06794296
340.54	329.36190672	8.06794296
341.04	329.8364916	8.06794296
341.54	329.99468656	8.06794296
342.04	329.67829664	8.06794296
342.54	329.36190672	8.06794296
343.04	330.31107648	8.06794296
343.54	330.31107648	8.06794296
344.04	330.15288152	8.06794296
344.54	330.15288152	8.06794296
345.04	330.6274664	8.06794296
345.54	331.10205128	8.06794296
346.04	331.10205128	8.06794296
346.54	330.94385632	8.06794296
347.04	331.57663616	8.06794296
347.54	331.57663616	8.06794296
348.04	331.73483112	8.06794296
348.54	332.05122104	8.06794296
349.04	331.89302608	8.06794296
349.54	332.05122104	8.06794296
350.04	332.36761096	8.06794296
350.54	332.68400088	8.22613792
351.04	333.15858576	8.22613792
351.54	333.0003908	8.22613792
352.04	333.0003908	8.22613792
352.54	333.15858576	8.22613792
353.04	333.94956056	8.22613792
353.54	333.47497568	8.22613792
354.04	334.26595048	8.22613792
354.54	334.26595048	8.22613792
355.04	334.42414544	8.22613792
355.54	334.74053536	8.22613792
356.04	334.26595048	8.22613792
356.54	334.42414544	8.22613792
357.04	334.5823404	8.22613792
357.54	334.5823404	8.22613792
358.04	335.21512024	8.22613792
358.54	335.3733152	8.22613792
359.04	335.84790008	8.22613792
359.54	335.84790008	8.22613792
360.04	335.53151016	8.22613792
360.54	336.00609504	8.22613792
361.04	336.32248496	8.22613792
361.54	336.63887488	8.22613792
362.04	336.16429	8.22613792
362.54	336.00609504	8.22613792
363.04	336.16429	8.22613792
363.54	336.63887488	8.22613792
364.04	337.11345976	8.22613792
364.54	337.11345976	8.22613792
365.04	337.11345976	8.22613792
365.54	337.11345976	8.22613792
366.04	337.90443456	8.22613792
366.54	337.90443456	8.22613792
367.04	337.58804464	8.22613792
367.54	337.58804464	8.22613792
368.04	338.06262952	8.22613792
368.54	338.06262952	8.22613792
369.04	337.7462396	8.22613792
369.54	337.90443456	8.22613792
370.04	338.22082448	8.22613792
370.54	338.06262952	8.22613792
371.04	338.5372144	8.22613792
371.54	338.5372144	8.22613792
372.04	338.69540936	8.22613792
372.54	339.48638416	8.38433288
373.04	339.3281892	8.38433288
373.54	339.48638416	8.38433288
374.04	340.119164	8.38433288
374.54	340.75194384	8.38433288

System: butyl levulinate; phases: Liquid, Gas
Property: Critical temperature, K (Liquid); method: Resistive pulse heating
Critical temperature, K	uncertainty
692	7

System: butyl levulinate; phases: Liquid, Gas
Property: Critical pressure, kPa (Liquid); method: Resistive pulse heating
Critical pressure, kPa	uncertainty
2410	80

System: butyl levulinate; phases: Liquid
Fixed: Pressure, kPa = 101.325
Property: Thermal diffusivity, m2/s (Liquid); method: Laser flash apparatus
Temperature, K	Thermal diffusivity, m2/s	uncertainty
303.15	7.77e-08	4.2e-09
313.15	7.68e-08	4.1e-09
323.15	7.57e-08	4.1e-09
333.15	7.48e-08	4e-09
343.15	7.37e-08	4e-09
353.15	7.26e-08	3.9e-09
363.15	7.15e-08	3.8e-09
373.15	7.06e-08	3.8e-09

System: butyl levulinate; phases: Liquid
Fixed: Pressure, kPa = 101.325
Property: Molar heat capacity at constant pressure, J/K/mol (Liquid); method: Small sample (50 mg) DSC
Temperature, K	Molar heat capacity at constant pressure, J/K/mol	uncertainty
302.66	336.86533224	8.26663392
303.16	337.38199686	8.26663392
303.66	338.58754764	8.26663392
304.16	338.4153261	8.26663392
304.66	337.72643994	8.26663392
305.16	337.38199686	8.26663392
305.66	337.72643994	8.26663392
306.16	337.5542184	8.26663392
306.66	338.4153261	8.26663392
307.16	339.2764338	8.26663392
307.66	338.75976918	8.26663392
308.16	337.89866148	8.26663392
308.66	338.24310456	8.26663392
309.16	338.4153261	8.26663392
309.66	339.10421226	8.26663392
310.16	338.93199072	8.26663392
310.66	340.1375415	8.26663392
311.16	338.75976918	8.26663392
311.66	338.58754764	8.26663392
312.16	338.75976918	8.26663392
312.66	338.75976918	8.26663392
313.16	338.4153261	8.26663392
313.66	338.75976918	8.26663392
314.16	339.96531996	8.26663392
314.66	339.79309842	8.26663392
315.16	339.96531996	8.26663392
315.66	339.62087688	8.26663392
316.16	340.30976304	8.26663392
316.66	340.1375415	8.26663392
317.16	340.65420612	8.26663392
317.66	340.65420612	8.26663392
318.16	341.17087074	8.43885546
318.66	340.9986492	8.43885546
319.16	341.17087074	8.43885546
319.66	340.9986492	8.43885546
320.16	340.1375415	8.26663392
320.66	341.68753536	8.43885546
321.16	341.68753536	8.43885546
321.66	340.9986492	8.43885546
322.16	340.9986492	8.43885546
322.66	341.68753536	8.43885546
323.16	342.03197844	8.43885546
323.66	342.37642152	8.43885546
324.16	341.68753536	8.43885546
324.66	342.89308614	8.43885546
325.16	342.20419998	8.43885546
325.66	341.51531382	8.43885546
326.16	342.20419998	8.43885546
326.66	343.23752922	8.43885546
327.16	342.89308614	8.43885546
327.66	343.06530768	8.43885546
328.16	343.40975076	8.43885546
328.66	341.34309228	8.43885546
329.16	341.8597569	8.43885546
329.66	342.37642152	8.43885546
330.16	342.89308614	8.43885546
330.66	342.89308614	8.43885546
331.16	343.06530768	8.43885546
331.66	342.37642152	8.43885546
332.16	342.7208646	8.43885546
332.66	343.5819723	8.43885546
333.16	343.23752922	8.43885546
333.66	344.27085846	8.43885546
334.16	345.13196616	8.43885546
334.66	344.44308	8.43885546
335.16	345.47640924	8.43885546
335.66	344.78752308	8.43885546
336.16	344.27085846	8.43885546
336.66	345.64863078	8.43885546
337.16	345.3041877	8.43885546
337.66	345.3041877	8.43885546
338.16	346.33751694	8.43885546
338.66	346.50973848	8.43885546
339.16	345.82085232	8.43885546
339.66	346.33751694	8.43885546
340.16	347.0264031	8.43885546
340.66	346.1652954	8.43885546
341.16	346.68196002	8.43885546
341.66	346.1652954	8.43885546
342.16	347.0264031	8.43885546
342.66	346.68196002	8.43885546
343.16	347.71528926	8.43885546
343.66	347.37084618	8.43885546
344.16	347.37084618	8.43885546
344.66	347.54306772	8.43885546
345.16	348.05973234	8.611077
345.66	348.23195388	8.611077
346.16	347.8875108	8.43885546
346.66	348.57639696	8.611077
347.16	348.23195388	8.611077
347.66	349.09306158	8.611077
348.16	348.92084004	8.611077
348.66	349.26528312	8.611077
349.16	349.26528312	8.611077
349.66	349.78194774	8.611077
350.16	349.78194774	8.611077
350.66	350.12639082	8.611077
351.16	349.95416928	8.611077
351.66	349.6097262	8.611077
352.16	350.12639082	8.611077
352.66	348.57639696	8.611077
353.16	348.23195388	8.611077
353.66	348.57639696	8.611077
354.16	349.43750466	8.611077
354.66	349.95416928	8.611077
355.16	349.95416928	8.611077
355.66	350.64305544	8.611077
356.16	350.12639082	8.611077
356.66	350.12639082	8.611077
357.16	351.50416314	8.611077
357.66	350.98749852	8.611077
358.16	351.50416314	8.611077
358.66	351.67638468	8.611077
359.16	351.84860622	8.611077
359.66	351.84860622	8.611077
360.16	352.02082776	8.611077
360.66	351.67638468	8.611077
361.16	352.36527084	8.611077
361.66	353.054157	8.611077
362.16	352.70971392	8.611077
362.66	352.88193546	8.611077
363.16	352.02082776	8.611077
363.66	352.70971392	8.611077
364.16	353.22637854	8.611077
364.66	353.57082162	8.611077
365.16	353.054157	8.611077
365.66	353.39860008	8.611077
366.16	353.39860008	8.611077
366.66	354.60415086	8.611077
367.16	353.57082162	8.611077
367.66	353.57082162	8.611077
368.16	354.08748624	8.611077
368.66	353.9152647	8.611077
369.16	353.57082162	8.611077
369.66	353.39860008	8.611077
370.16	354.94859394	8.78329854
370.66	354.7763724	8.611077
371.16	354.08748624	8.611077
371.66	354.7763724	8.611077
372.16	355.29303702	8.78329854
372.66	355.80970164	8.78329854
373.16	354.7763724	8.611077
373.66	355.80970164	8.78329854
374.16	355.98192318	8.78329854
