Measured thermophysical data. Experiment and model for the viscosity of carbonated 3-(dimethylamino)propan-1-ol and 2-(ethylamino)ethanol blended aqueous solutions
Source: J. Chem. Thermodyn., 2019, 10.1016/j.jct.2019.02.023
Compound 1: 3-dimethylamino-1-propanol, C5H13NO, InChI=1S/C5H13NO/c1-6(2)4-3-5-7/h7H,3-5H2,1-2H3, purity 99%
Compound 2: 2-(ethylamino)ethanol, C4H11NO, InChI=1S/C4H11NO/c1-2-5-3-4-6/h5-6H,2-4H2,1H3, purity 99%
Compound 3: water, H2O, InChI=1S/H2O/h1H2, purity 99.9%
Compound 4: carbon dioxide, CO2, InChI=1S/CO2/c2-1-3

System: 3-dimethylamino-1-propanol + carbon dioxide + water; phases: Liquid
Fixed: Pressure, kPa = 101
Property: Viscosity, Pa*s (Liquid); method: Concentric cylinders viscometry
Solvent: Mass fraction of 3-dimethylamino-1-propanol	Temperature, K	Molality, mol/kg of carbon dioxide	Viscosity, Pa*s	uncertainty
0.3	303.2	0.29	0.00302	0.00022
0.3	303.2	0.58	0.00316	0.00023
0.3	303.2	0.87	0.00325	0.00026
0.3	303.2	1.2	0.00344	0.00029
0.3	303.2	1.5	0.00355	0.00032
0.3	313.2	0.29	0.00228	0.00015
0.3	313.2	0.58	0.00236	0.00015
0.3	313.2	0.87	0.00247	0.00017
0.3	313.2	1.2	0.00256	0.00018
0.3	313.2	1.5	0.00266	0.00019
0.3	323.2	0.29	0.00174	0.0001
0.3	323.2	0.58	0.00179	0.0001
0.3	323.2	0.87	0.00186	0.00012
0.3	323.2	1.2	0.00194	0.00013
0.3	323.2	1.5	0.00203	0.00014
0.4	303.2	0.39	0.00486	0.00032
0.4	303.2	0.78	0.00536	0.00028
0.4	303.2	1.2	0.00574	0.00031
0.4	303.2	1.6	0.00618	0.00068
0.4	303.2	1.9	0.00656	0.0006
0.4	313.2	0.39	0.00352	0.0002
0.4	313.2	0.78	0.00378	0.0002
0.4	313.2	1.2	0.00407	0.00021
0.4	313.2	1.6	0.00432	0.00027
0.4	313.2	1.9	0.00462	0.00038
0.4	323.2	0.39	0.00256	0.00014
0.4	323.2	0.78	0.00276	0.00013
0.4	323.2	1.2	0.00293	0.00014
0.4	323.2	1.6	0.00312	0.00025
0.4	323.2	1.9	0.00334	0.00024
0.5	303.2	0.48	0.00809	0.00041
0.5	303.2	0.97	0.00909	0.00045
0.5	303.2	1.5	0.0102	0.00059
0.5	303.2	1.9	0.0114	0.00068
0.5	303.2	2.4	0.0132	0.00072
0.5	313.2	0.48	0.00538	0.00029
0.5	313.2	0.97	0.00602	0.00031
0.5	313.2	1.5	0.00685	0.0004
0.5	313.2	1.9	0.00769	0.00045
0.5	313.2	2.4	0.0086	0.00049
0.5	323.2	0.48	0.00382	0.00017
0.5	323.2	0.97	0.00426	0.00019
0.5	323.2	1.5	0.00472	0.00024
0.5	323.2	1.9	0.00523	0.00027
0.5	323.2	2.4	0.0058	0.00028

System: 3-dimethylamino-1-propanol + 2-(ethylamino)ethanol + water; phases: Liquid
Fixed: Pressure, kPa = 101
Property: Viscosity, Pa*s (Liquid); method: Concentric cylinders viscometry
Mass fraction of 3-dimethylamino-1-propanol	Temperature, K	Mass fraction of 2-(ethylamino)ethanol	Viscosity, Pa*s	uncertainty
0.3	303.2	0.01	0.00311	0.0002
0.3	313.2	0.01	0.00235	0.00013
0.3	323.2	0.01	0.00182	9e-05
0.3	303.2	0.02	0.00326	0.00021
0.3	313.2	0.02	0.00246	0.00013
0.3	323.2	0.02	0.0019	9e-05
0.3	303.2	0.03	0.00344	0.00021
0.3	313.2	0.03	0.00259	0.00013
0.3	323.2	0.03	0.00199	9e-05
0.4	303.2	0.01	0.00466	0.00036
0.4	313.2	0.01	0.00345	0.00018
0.4	323.2	0.01	0.00253	0.0001
0.4	303.2	0.02	0.00487	0.0004
0.4	313.2	0.02	0.00353	0.00018
0.4	323.2	0.02	0.00259	7e-05
0.4	303.2	0.03	0.00506	0.00041
0.4	313.2	0.03	0.00369	0.00018
0.4	323.2	0.03	0.00268	8e-05
0.5	303.2	0.01	0.00733	0.00036
0.5	313.2	0.01	0.00501	0.00025
0.5	323.2	0.01	0.00351	0.00014
0.5	303.2	0.02	0.00769	0.00038
0.5	313.2	0.02	0.00514	0.00026
0.5	323.2	0.02	0.00359	0.00014
0.5	303.2	0.03	0.00786	0.00038
0.5	313.2	0.03	0.00531	0.00026
0.5	323.2	0.03	0.00372	0.00015
