Measured thermophysical data. Interactions of amino acids and peptides with the drug pentoxifylline in aqueous solution at various temperatures: A volumetric approach
Source: J. Chem. Thermodyn., 2012, 10.1016/j.jct.2012.05.009
Compound 1: 2-aminoacetic acid, C2H5NO2, InChI=1S/C2H5NO2/c3-1-2(4)5/h1,3H2,(H,4,5), purity 99%
Compound 2: (S)-2-aminopropanoic acid, C3H7NO2, InChI=1S/C3H7NO2/c1-2(4)3(5)6/h2H,4H2,1H3,(H,5,6)/t2-/m0/s1, purity 99%
Compound 3: L-valine, C5H11NO2, InChI=1S/C5H11NO2/c1-3(2)4(6)5(7)8/h3-4H,6H2,1-2H3,(H,7,8)/t4-/m0/s1, purity 99%
Compound 4: glycylglycine, C4H8N2O3, InChI=1S/C4H8N2O3/c5-1-3(7)6-2-4(8)9/h1-2,5H2,(H,6,7)(H,8,9), purity 98%
Compound 5: glycylglycylglycine, C6H11N3O4, InChI=1S/C6H11N3O4/c7-1-4(10)8-2-5(11)9-3-6(12)13/h1-3,7H2,(H,8,10)(H,9,11)(H,12,13), purity 98%
Compound 6: 3,7-dimethyl-1-(5-oxohexyl)-3,7-dihydro-1H-purine-2,6-dione, C13H18N4O3, InChI=1S/C13H18N4O3/c1-9(18)6-4-5-7-17-12(19)10-11(14-8-15(10)2)16(3)13(17)20/h8H,4-7H2,1-3H3, purity 99%
Compound 7: water, H2O, InChI=1S/H2O/h1H2, purity 99.9%

System: 3,7-dimethyl-1-(5-oxohexyl)-3,7-dihydro-1H-purine-2,6-dione + water; phases: Liquid
Fixed: Pressure, kPa = 101
Property: Mass density, kg/m3 (Liquid); method: Vibrating tube method
Temperature, K	Molality, mol/kg of 3,7-dimethyl-1-(5-oxohexyl)-3,7-dihydro-1H-purine-2,6-dione	Mass density, kg/m3	uncertainty
293.15	0.09736	1003.773	0.036
293.15	0.0976	1003.775	0.036
293.15	0.09842	1003.813	0.037
293.15	0.09851	1003.834	0.037
293.15	0.10119	1003.967	0.036
298.15	0.09736	1002.514	0.038
298.15	0.0976	1002.513	0.036
298.15	0.09842	1002.551	0.057
298.15	0.09851	1002.574	0.043
298.15	0.10119	1002.704	0.036
303.15	0.09736	1001.023	0.037
303.15	0.0976	1001.021	0.035
303.15	0.09842	1001.058	0.054
303.15	0.09851	1001.081	0.041
303.15	0.10119	1001.211	0.035
308.15	0.09736	999.319	0.035
308.15	0.0976	999.32	0.035
308.15	0.09842	999.356	0.037
308.15	0.09851	999.381	0.037
308.15	0.10119	999.508	0.035

System: 2-aminoacetic acid + 3,7-dimethyl-1-(5-oxohexyl)-3,7-dihydro-1H-purine-2,6-dione + water; phases: Liquid
Fixed: Pressure, kPa = 101
Fixed: Solvent: Molality, mol/kg of 3,7-dimethyl-1-(5-oxohexyl)-3,7-dihydro-1H-purine-2,6-dione = 0.09736
Property: Mass density, kg/m3 (Liquid); method: Vibrating tube method
Temperature, K	Molality, mol/kg of 2-aminoacetic acid	Mass density, kg/m3	uncertainty
293.15	0	1003.773	0.13
293.15	0.06127	1005.737	0.131
293.15	0.10793	1007.218	0.132
293.15	0.15648	1008.744	0.132
293.15	0.21004	1010.413	0.133
293.15	0.24924	1011.627	0.134
293.15	0.2939	1012.992	0.135
298.15	0	1002.514	0.129
298.15	0.06127	1004.455	0.13
298.15	0.10793	1005.919	0.131
298.15	0.15648	1007.431	0.132
298.15	0.21004	1009.082	0.133
298.15	0.24924	1010.284	0.133
298.15	0.2939	1011.639	0.134
303.15	0	1001.023	0.128
303.15	0.06127	1002.945	0.129
303.15	0.10793	1004.396	0.13
303.15	0.15648	1005.895	0.131
303.15	0.21004	1007.533	0.132
303.15	0.24924	1008.727	0.132
303.15	0.2939	1010.07	0.133
308.15	0	999.319	0.128
308.15	0.06127	1001.231	0.128
308.15	0.10793	1002.673	0.129
308.15	0.15648	1004.163	0.13
308.15	0.21004	1005.788	0.131
308.15	0.24924	1006.971	0.131
308.15	0.2939	1008.306	0.132

System: (S)-2-aminopropanoic acid + 3,7-dimethyl-1-(5-oxohexyl)-3,7-dihydro-1H-purine-2,6-dione + water; phases: Liquid
Fixed: Pressure, kPa = 101
Fixed: Solvent: Molality, mol/kg of 3,7-dimethyl-1-(5-oxohexyl)-3,7-dihydro-1H-purine-2,6-dione = 0.09842
Property: Mass density, kg/m3 (Liquid); method: Vibrating tube method
Temperature, K	Molality, mol/kg of (S)-2-aminopropanoic acid	Mass density, kg/m3	uncertainty
293.15	0	1003.813	0.13
293.15	0.06309	1005.625	0.131
293.15	0.10496	1006.818	0.131
293.15	0.15155	1008.136	0.132
293.15	0.20128	1009.526	0.133
293.15	0.23506	1010.465	0.133
293.15	0.30229	1012.326	0.135
298.15	0	1002.551	0.129
298.15	0.06309	1004.347	0.13
298.15	0.10496	1005.529	0.131
298.15	0.15155	1006.834	0.131
298.15	0.20128	1008.214	0.132
298.15	0.23506	1009.145	0.133
298.15	0.30229	1010.993	0.134
303.15	0	1001.058	0.128
303.15	0.06309	1002.839	0.129
303.15	0.10496	1004.012	0.13
303.15	0.15155	1005.308	0.13
303.15	0.20128	1006.68	0.131
303.15	0.23506	1007.607	0.132
303.15	0.30229	1009.438	0.133
308.15	0	999.356	0.128
308.15	0.06309	1001.127	0.128
308.15	0.10496	1002.293	0.129
308.15	0.15155	1003.582	0.129
308.15	0.20128	1004.949	0.13
308.15	0.23506	1005.871	0.131
308.15	0.30229	1007.691	0.132

System: L-valine + 3,7-dimethyl-1-(5-oxohexyl)-3,7-dihydro-1H-purine-2,6-dione + water; phases: Liquid
Fixed: Pressure, kPa = 101
Fixed: Solvent: Molality, mol/kg of 3,7-dimethyl-1-(5-oxohexyl)-3,7-dihydro-1H-purine-2,6-dione = 0.0976
Property: Mass density, kg/m3 (Liquid); method: Vibrating tube method
Temperature, K	Molality, mol/kg of L-valine	Mass density, kg/m3	uncertainty
293.15	0	1003.775	0.13
293.15	0.04895	1005.074	0.13
293.15	0.0936	1006.244	0.131
293.15	0.14544	1007.586	0.132
293.15	0.20099	1009.002	0.133
293.15	0.25061	1010.252	0.133
293.15	0.27108	1010.762	0.134
298.15	0	1002.513	0.129
298.15	0.04895	1003.798	0.13
298.15	0.0936	1004.956	0.13
298.15	0.14544	1006.282	0.131
298.15	0.20099	1007.688	0.132
298.15	0.25061	1008.925	0.133
298.15	0.27108	1009.428	0.133
303.15	0	1001.021	0.128
303.15	0.04895	1002.295	0.129
303.15	0.0936	1003.443	0.129
303.15	0.14544	1004.759	0.13
303.15	0.20099	1006.146	0.131
303.15	0.25061	1007.372	0.132
303.15	0.27108	1007.873	0.132
308.15	0	999.32	0.128
308.15	0.04895	1000.585	0.128
308.15	0.0936	1001.725	0.128
308.15	0.14544	1003.031	0.129
308.15	0.20099	1004.41	0.13
308.15	0.25061	1005.626	0.131
308.15	0.27108	1006.125	0.131

System: glycylglycine + 3,7-dimethyl-1-(5-oxohexyl)-3,7-dihydro-1H-purine-2,6-dione + water; phases: Liquid
Fixed: Pressure, kPa = 101
Fixed: Solvent: Molality, mol/kg of 3,7-dimethyl-1-(5-oxohexyl)-3,7-dihydro-1H-purine-2,6-dione = 0.10119
Property: Mass density, kg/m3 (Liquid); method: Vibrating tube method
Temperature, K	Molality, mol/kg of glycylglycine	Mass density, kg/m3	uncertainty
293.15	0	1003.967	0.245
293.15	0.0555	1007.078	0.248
293.15	0.10469	1009.794	0.25
293.15	0.15076	1012.317	0.252
293.15	0.1931	1014.608	0.254
293.15	0.2631	1018.306	0.257
293.15	0.29012	1019.745	0.258
298.15	0	1002.704	0.244
298.15	0.0555	1005.785	0.247
298.15	0.10469	1008.485	0.249
298.15	0.15076	1010.981	0.251
298.15	0.1931	1013.245	0.253
298.15	0.2631	1016.933	0.256
298.15	0.29012	1018.347	0.257
303.15	0	1001.211	0.243
303.15	0.0555	1004.27	0.246
303.15	0.10469	1006.948	0.248
303.15	0.15076	1009.427	0.25
303.15	0.1931	1011.676	0.252
303.15	0.2631	1015.336	0.255
303.15	0.29012	1016.742	0.256
308.15	0	999.508	0.242
308.15	0.0555	1002.548	0.244
308.15	0.10469	1005.21	0.246
308.15	0.15076	1007.673	0.248
308.15	0.1931	1009.909	0.25
308.15	0.2631	1013.551	0.253
308.15	0.29012	1014.947	0.254

System: glycylglycylglycine + 3,7-dimethyl-1-(5-oxohexyl)-3,7-dihydro-1H-purine-2,6-dione + water; phases: Liquid
Fixed: Pressure, kPa = 101
Fixed: Solvent: Molality, mol/kg of 3,7-dimethyl-1-(5-oxohexyl)-3,7-dihydro-1H-purine-2,6-dione = 0.09851
Property: Mass density, kg/m3 (Liquid); method: Vibrating tube method
Temperature, K	Molality, mol/kg of glycylglycylglycine	Mass density, kg/m3	uncertainty
293.15	0	1003.834	0.245
293.15	0.04145	1007.026	0.248
293.15	0.05077	1007.732	0.248
293.15	0.06006	1008.434	0.249
293.15	0.07253	1009.372	0.25
293.15	0.0828	1010.14	0.25
293.15	0.08325	1010.173	0.25
298.15	0	1002.574	0.244
298.15	0.04145	1005.736	0.247
298.15	0.05077	1006.434	0.247
298.15	0.06006	1007.128	0.248
298.15	0.07253	1008.052	0.249
298.15	0.0828	1008.809	0.249
298.15	0.08325	1008.841	0.249
303.15	0	1001.081	0.243
303.15	0.04145	1004.22	0.246
303.15	0.05077	1004.916	0.246
303.15	0.06006	1005.607	0.247
303.15	0.07253	1006.533	0.248
303.15	0.0828	1007.291	0.248
303.15	0.08325	1007.324	0.248
308.15	0	999.381	0.242
308.15	0.04145	1002.497	0.244
308.15	0.05077	1003.195	0.245
308.15	0.06006	1003.889	0.245
308.15	0.07253	1004.82	0.246
308.15	0.0828	1005.584	0.247
308.15	0.08325	1005.618	0.247
