Measured thermophysical data. Solution thermodynamics of pyrazinamide, isoniazid, and p-aminobenzoic acid in buffers and octanol
Source: J. Chem. Thermodyn., 2015, 10.1016/j.jct.2015.08.022
Compound 1: pyrazinecarboxamide, C5H5N3O, InChI=1S/C5H5N3O/c6-5(9)4-3-7-1-2-8-4/h1-3H,(H2,6,9), purity 99%
Compound 2: isonicotinic acid hydrazide, C6H7N3O, InChI=1S/C6H7N3O/c7-9-6(10)5-1-3-8-4-2-5/h1-4H,7H2,(H,9,10), purity 99%
Compound 3: 4-aminobenzoic acid, C7H7NO2, InChI=1S/C7H7NO2/c8-6-3-1-5(2-4-6)7(9)10/h1-4H,8H2,(H,9,10), purity 99%
Compound 4: octan-1-ol, C8H18O, InChI=1S/C8H18O/c1-2-3-4-5-6-7-8-9/h9H,2-8H2,1H3, purity 99%

System: pyrazinecarboxamide; phases: Crystal, Liquid, Air at 1 atmosphere
Property: Molar enthalpy of transition or fusion, kJ/mol (Crystal); method: DSC
Molar enthalpy of transition or fusion, kJ/mol	uncertainty
27.1	0.7

System: pyrazinecarboxamide; phases: Crystal, Liquid, Air at 1 atmosphere
Property: Normal melting temperature, K (Crystal); method: DTA
Normal melting temperature, K	uncertainty
462.5	0.4

System: isonicotinic acid hydrazide; phases: Crystal, Liquid, Air at 1 atmosphere
Property: Molar enthalpy of transition or fusion, kJ/mol (Crystal); method: DSC
Molar enthalpy of transition or fusion, kJ/mol	uncertainty
31.1	0.8

System: isonicotinic acid hydrazide; phases: Crystal, Liquid, Air at 1 atmosphere
Property: Normal melting temperature, K (Crystal); method: DTA
Normal melting temperature, K	uncertainty
443.5	0.4

System: 4-aminobenzoic acid; phases: Crystal, Liquid, Air at 1 atmosphere
Property: Molar enthalpy of transition or fusion, kJ/mol (Crystal); method: DSC
Molar enthalpy of transition or fusion, kJ/mol	uncertainty
25	0.7

System: 4-aminobenzoic acid; phases: Crystal, Liquid, Air at 1 atmosphere
Property: Normal melting temperature, K (Crystal); method: DTA
Normal melting temperature, K	uncertainty
458.7	0.4

System: pyrazinecarboxamide + octan-1-ol; phases: Liquid, Crystal
Fixed: Pressure, kPa = 101.3
Property: Mole fraction of pyrazinecarboxamide (Liquid); method: Spectrophotometer
Temperature, K	Mole fraction of pyrazinecarboxamide	uncertainty
293.15	0.0013	2e-05
298.15	0.00151	3e-05
303.15	0.0018	3e-05
308.15	0.00214	4e-05
313.15	0.0025	5e-05

System: isonicotinic acid hydrazide + octan-1-ol; phases: Liquid, Crystal
Fixed: Pressure, kPa = 101.3
Property: Mole fraction of isonicotinic acid hydrazide (Liquid); method: Spectrophotometer
Temperature, K	Mole fraction of isonicotinic acid hydrazide	uncertainty
293.15	0.0031	4e-05
298.15	0.00365	4e-05
303.15	0.00431	4e-05
308.15	0.00506	5e-05
313.15	0.0059	6e-05

System: octan-1-ol + 4-aminobenzoic acid; phases: Liquid, Crystal
Fixed: Pressure, kPa = 101.3
Property: Mole fraction of 4-aminobenzoic acid (Liquid); method: Spectrophotometer
Temperature, K	Mole fraction of 4-aminobenzoic acid	uncertainty
293.15	0.01753	0.0001
298.15	0.01981	0.00011
303.15	0.02247	0.00013
308.15	0.02547	0.00013
313.15	0.02781	0.00013
