Measured thermophysical data. The low-temperature heat capacity of CaUO4 and SrUO4
Source: J. Chem. Thermodyn., 2008, 10.1016/j.jct.2007.06.019
Compound 1: calcium monouranate, CaO4U, InChI=1S/Ca.4O.U/q+2;;;2*-1;
Compound 2: strontium monouranate, O4SrU, InChI=1S/4O.Sr.U/q;;2*-1;+2;

System: calcium monouranate; phases: Crystal
Fixed: Pressure, kPa = 101.325
Property: Molar heat capacity at constant pressure, J/K/mol (Crystal); method: hybrid adiabatic relaxation method
Temperature, K	Molar heat capacity at constant pressure, J/K/mol	uncertainty
2.005	0.002207	0.000161
2.09	0.002412	0.000175
2.18	0.002791	0.000197
2.275	0.003151	0.000218
2.374	0.003508	0.000237
2.472	0.003939	0.000263
2.579	0.004458	0.000292
2.685	0.005058	0.000325
2.802	0.005641	0.000359
2.927	0.006456	0.000407
3.043	0.007074	0.000446
3.17	0.007966	0.000497
3.313	0.009171	0.00057
3.449	0.01024	0.00063
3.59	0.01128	0.0007
3.751	0.0127	0.00078
3.909	0.01413	0.000873
4.07	0.01576	0.000973
4.241	0.01826	0.00112
4.428	0.01993	0.00122
4.612	0.0223	0.00136
4.619	0.02262	0.00138
4.619	0.02238	0.00137
4.825	0.02551	0.00156
4.853	0.02636	0.00161
4.856	0.02594	0.00159
5.014	0.02811	0.00172
5.089	0.02981	0.00182
5.091	0.02955	0.0018
5.23	0.03115	0.0019
5.33	0.03398	0.00207
5.333	0.03355	0.00205
5.578	0.03809	0.00232
5.578	0.03801	0.00231
5.823	0.04279	0.0026
6.073	0.04792	0.00291
6.073	0.0482	0.00293
6.323	0.05383	0.00326
6.324	0.0535	0.00324
6.57	0.05981	0.00363
6.571	0.05966	0.00362
6.82	0.06639	0.00402
6.821	0.06597	0.00399
7.084	0.07366	0.00446
7.086	0.07352	0.00445
7.306	0.07948	0.00481
7.306	0.07978	0.00482
7.546	0.08672	0.0052
7.547	0.08722	0.0052
7.784	0.09537	0.0057
7.785	0.09553	0.0057
8.023	0.1034	0.0062
8.023	0.1044	0.0063
8.259	0.1123	0.0068
8.26	0.1125	0.0068
8.495	0.1216	0.0073
8.496	0.1219	0.0073
8.731	0.1314	0.0079
8.732	0.1315	0.008
8.966	0.1334	0.0081
8.967	0.1416	0.00856
9.207	0.1522	0.00915
9.226	0.1519	0.00915
10.225	0.2045	0.0123
11.232	0.2698	0.0162
12.242	0.3485	0.021
13.245	0.4418	0.0266
14.213	0.5466	0.0328
15.225	0.6742	0.0406
16.232	0.8217	0.0494
17.24	0.9903	0.06
18.246	1.174	0.071
19.257	1.377	0.082
20.318	1.615	0.0973
21.345	1.864	0.1122
22.325	2.121	0.1272
23.296	2.393	0.1438
25.401	3.043	0.1829
25.406	3.046	0.1829
25.422	3.051	0.1829
27.3	3.707	0.2228
27.316	3.717	0.2228
27.351	3.731	0.2237
29.281	4.459	0.2677
29.285	4.474	0.2686
29.32	4.491	0.2694
31.274	5.248	0.3151
31.274	5.254	0.3151
31.314	5.274	0.3168
33.269	6.095	0.3658
33.272	6.085	0.365
33.326	6.12	0.3675
35.272	6.959	0.4174
35.283	6.98	0.419
35.347	7.008	0.4207
37.276	7.86	0.4714
37.289	7.88	0.4731
37.351	7.913	0.4748
39.287	8.805	0.532
39.294	8.83	0.532
39.356	8.855	0.532
41.299	9.803	0.59
41.305	9.811	0.59
41.366	9.853	0.59
43.306	10.86	0.649
43.311	10.85	0.649
43.374	10.89	0.657
45.551	12.08	0.723
45.639	12.13	0.732
45.65	12.13	0.732
50.751	15.01	0.898
55.815	17.83	1.0726
60.866	20.87	1.2555
65.969	24.01	1.4384
71.218	27.27	1.638
76.627	30.64	1.8375
82.08	34.06	2.0454
87.471	37.38	2.2449
92.738	40.69	2.4445
97.917	43.82	2.6274
103.03	46.94	2.8186
108.08	49.94	2.9932
113.12	52.93	3.1761
118.16	55.96	3.359
123.2	58.64	3.517
128.22	59.03	3.542
133.26	64.79	3.8912
138.31	67.68	4.0575
143.35	70.24	4.2154
148.39	72.58	4.3568
153.42	74.83	4.4898
158.46	77.21	4.6312
163.51	79.25	4.7559
168.56	80.91	4.8557
173.58	82.75	4.9637
178.62	84.641	5.0801
183.67	86.337	5.1799
188.71	87.726	5.2631
193.75	89.597	5.3795
198.79	91.318	5.4792
203.81	92.947	5.579
208.85	94.461	5.6705
213.88	95.949	5.7536
218.93	97.346	5.8368
223.97	98.693	5.9199
229.02	99.99	6.003
234.06	101.22	6.0696
239.11	102.93	6.1777
244.17	104.39	6.2608
249.22	105.74	6.3439
254.27	106.82	6.4105
259.31	107.61	6.4603
262.36	109	6.5435
269.4	109.96	6.6017
274.44	110.7	6.6433
279.27	111.39	6.6848
282.52	112.44	6.743
289.57	113.82	6.8262
294.64	115.01	6.901
299.65	115.06	6.901
305.1	116.98	7.0174

System: strontium monouranate; phases: Crystal
Fixed: Pressure, kPa = 101.325
Property: Molar heat capacity at constant pressure, J/K/mol (Crystal); method: hybrid adiabatic relaxation method
Temperature, K	Molar heat capacity at constant pressure, J/K/mol	uncertainty
2.024	0.005734	0.0004
2.025	0.005779	0.000402
2.26	0.00757	0.000513
2.263	0.007647	0.000516
2.495	0.009803	0.00064
2.499	0.009853	0.00064
2.732	0.01239	0.00079
2.733	0.01242	0.00079
2.968	0.01534	0.000964
2.968	0.01533	0.000964
3.199	0.01875	0.00117
3.204	0.01882	0.00117
3.437	0.02272	0.00141
3.439	0.02276	0.00141
3.667	0.02716	0.00168
3.674	0.02735	0.0017
3.907	0.03252	0.002
3.907	0.03258	0.00201
4.142	0.03819	0.00235
4.143	0.03816	0.00234
4.377	0.04433	0.00272
4.378	0.04456	0.00274
4.613	0.05138	0.00315
4.614	0.05157	0.00316
4.849	0.05935	0.00363
4.85	0.05924	0.00363
5.085	0.06786	0.00415
5.085	0.06782	0.00414
5.325	0.07752	0.00473
5.327	0.07756	0.00473
5.572	0.08788	0.0053
5.573	0.08788	0.0053
5.816	0.09969	0.0061
5.816	0.09969	0.0061
6.066	0.1127	0.0068
6.067	0.113	0.0069
6.316	0.1273	0.0077
6.316	0.1275	0.0077
6.564	0.1432	0.00873
6.564	0.1432	0.00873
6.812	0.1602	0.00973
6.812	0.16	0.00973
7.077	0.1799	0.0109
7.078	0.1802	0.0109
7.297	0.197	0.012
7.298	0.1972	0.012
7.536	0.2173	0.0131
7.538	0.2177	0.0132
7.775	0.2396	0.0145
7.777	0.24	0.0146
8.011	0.2636	0.016
8.013	0.2639	0.016
8.247	0.2884	0.0175
8.25	0.2886	0.0175
8.484	0.3154	0.019
8.487	0.3156	0.019
8.719	0.3438	0.0208
8.723	0.3441	0.0208
8.958	0.3744	0.0226
8.961	0.3746	0.0226
9.19	0.4056	0.0245
9.199	0.4067	0.0245
10.213	0.5677	0.0343
11.207	0.7643	0.0461
12.217	1.001	0.061
13.228	1.284	0.077
14.245	1.611	0.0973
15.261	1.98	0.1189
16.273	2.391	0.1438
17.292	2.849	0.1713
18.315	3.338	0.2004
19.335	3.871	0.2328
20.327	4.423	0.2652
21.372	5.035	0.3026
22.35	5.639	0.3384
23.338	6.27	0.3766
25.417	7.706	0.4623
27.423	9.204	0.549
29.482	10.82	0.649
31.5	12.36	0.74
33.514	13.98	0.8398
35.524	15.62	0.9395
37.532	17.24	1.031
39.538	18.87	1.1308
41.556	20.55	1.2305
43.559	22.22	1.3303
45.359	24.05	1.4467
50.681	28.12	1.6878
56.563	32.79	1.9705
62.451	37.39	2.2449
68.442	41.85	2.511
74.66	46.3	2.777
81.021	50.67	3.0431
87.277	54.81	3.2925
93.42	58.78	3.5253
99.435	62.47	3.7498
105.36	65.93	3.9577
111.24	69.23	4.1572
117.13	72.33	4.3402
123	75.17	4.5064
128.88	78.03	4.681
134.75	80.84	4.8473
140.63	83.652	5.0219
146.52	86.304	5.1799
152.4	88.807	5.3296
158.29	91.251	5.4792
164.17	93.372	5.604
170.05	95.151	5.712
175.94	96.955	5.8201
181.81	98.643	5.9199
187.68	100.18	6.0114
193.55	101.72	6.1028
193.74	102.04	6.1195
198.59	102.89	6.1777
203.61	104.01	6.2442
208.63	104.92	6.2941
213.69	106.05	6.3606
218.73	107.14	6.4271
223.78	108.3	6.5019
228.83	109.38	6.5601
233.87	110.41	6.6266
238.93	111.62	6.7015
243.98	112.65	6.7597
249.04	113.53	6.8096
254.07	113.96	6.8345
259.1	114.39	6.8594
264.15	115.3	6.9176
269.2	116.11	6.9675
274.24	116.87	7.0091
279.29	117.49	7.0507
284.34	118.13	7.0839
289.39	118.75	7.1255
294.45	119.45	7.1671
299.17	119.56	7.1754
305.18	120.44	7.2253
