Measured thermophysical data. Phase equilibria study on bromide-based ionic liquids with glycols and sulfolane. Experimental data and correlation
Source: J. Chem. Thermodyn., 2018, 10.1016/j.jct.2018.03.011
Compound 1: 4-butyl-4-methylmorpholinium bromide, C9H20BrNO, InChI=1S/C9H20NO.BrH/c1-3-4-5-10(2)6-8-11-9-7-10;/h3-9H2,1-2H3;1H/q+1;/p-1, purity 95%
Compound 2: 1-butyl-3-methylimidazolium bromide, C8H15BrN2, InChI=1S/C8H15N2.BrH/c1-3-4-5-10-7-6-9(2)8-10;/h6-8H,3-5H2,1-2H3;1H/q+1;/p-1, purity 95%
Compound 3: diethylene glycol, C4H10O3, InChI=1S/C4H10O3/c5-1-3-7-4-2-6/h5-6H,1-4H2, purity 99%
Compound 4: triethylene glycol, C6H14O4, InChI=1S/C6H14O4/c7-1-3-9-5-6-10-4-2-8/h7-8H,1-6H2, purity 99%
Compound 5: sulfolane, C4H8O2S, InChI=1S/C4H8O2S/c5-7(6)3-1-2-4-7/h1-4H2, purity 99%
Compound 6: N-ethyl-N-methylmorpholinium bromide, C7H16BrNO, InChI=1S/C7H16NO.BrH/c1-3-8(2)4-6-9-7-5-8;/h3-7H2,1-2H3;1H/q+1;/p-1, purity 95%

System: 4-butyl-4-methylmorpholinium bromide; phases: Crystal, Liquid, Air at 1 atmosphere
Property: Normal melting temperature, K (Crystal); method: DTA
Normal melting temperature, K	uncertainty
484.2	1.1

System: 4-butyl-4-methylmorpholinium bromide; phases: Crystal, Liquid, Air at 1 atmosphere
Property: Molar enthalpy of transition or fusion, kJ/mol (Crystal); method: DSC
Molar enthalpy of transition or fusion, kJ/mol	uncertainty
14.8	1.08

System: 1-butyl-3-methylimidazolium bromide; phases: Crystal, Liquid, Air at 1 atmosphere
Property: Normal melting temperature, K (Crystal); method: VISOBS
Normal melting temperature, K	uncertainty
352.1	1.1

System: diethylene glycol; phases: Liquid
Fixed: Pressure, kPa = 101.325
Property: Viscosity, Pa*s (Liquid); method: Falling or rolling sphere viscometry
Temperature, K	Viscosity, Pa*s	uncertainty
293.2	0.03811	0.00384
298.2	0.02982	0.00301
303.2	0.02364	0.00238
308.2	0.01902	0.00192
313.2	0.0156	0.00157
318.2	0.01269	0.00128
323.2	0.01062	0.00107
328.2	0.008853	0.000891
333.2	0.007362	0.000741
338.2	0.006208	0.000624
343.2	0.005324	0.000536

System: diethylene glycol; phases: Liquid
Fixed: Pressure, kPa = 101.325
Property: Mass density, kg/m3 (Liquid); method: Vibrating tube method
Temperature, K	Mass density, kg/m3	uncertainty
293.2	1116.4	1.1
298.2	1112.8	1.1
303.2	1109.2	1.1
308.2	1105.7	1.1
313.2	1102.1	1.1
318.2	1098.5	1.1
323.2	1094.8	1
328.2	1091.2	1
333.2	1087.5	1
338.2	1083.8	1
343.2	1080.1	1

System: triethylene glycol; phases: Liquid
Fixed: Pressure, kPa = 101.325
Property: Viscosity, Pa*s (Liquid); method: Falling or rolling sphere viscometry
Temperature, K	Viscosity, Pa*s	uncertainty
293.2	0.04832	0.00487
298.2	0.03716	0.00375
303.2	0.02927	0.00295
308.2	0.02374	0.00239
313.2	0.01926	0.00194
318.2	0.01641	0.00165
323.2	0.01351	0.00136
328.2	0.01135	0.00114
333.2	0.009602	0.000966
338.2	0.008278	0.000832
343.2	0.007351	0.000739

System: triethylene glycol; phases: Liquid
Fixed: Pressure, kPa = 101.325
Property: Mass density, kg/m3 (Liquid); method: Vibrating tube method
Temperature, K	Mass density, kg/m3	uncertainty
293.2	1123.1	1.1
298.2	1119.2	1.1
303.2	1115.4	1.1
308.2	1111.5	1.1
313.2	1107.6	1.1
318.2	1103.8	1.1
323.2	1099.9	1.1
328.2	1096	1.1
333.2	1092.1	1.1
338.2	1088.2	1.1
343.2	1084.3	1

System: sulfolane; phases: Liquid
Fixed: Pressure, kPa = 101.325
Property: Viscosity, Pa*s (Liquid); method: Falling or rolling sphere viscometry
Temperature, K	Viscosity, Pa*s	uncertainty
308.2	0.009194	0.000924
313.2	0.008116	0.000816
318.2	0.007201	0.000724
323.2	0.006439	0.000647
328.2	0.005772	0.00058
333.2	0.005199	0.000522
338.2	0.004714	0.000474
343.2	0.004268	0.000429

System: sulfolane; phases: Liquid
Fixed: Pressure, kPa = 101.325
Property: Mass density, kg/m3 (Liquid); method: Vibrating tube method
Temperature, K	Mass density, kg/m3	uncertainty
308.2	1257.4	1.1
313.2	1253	1.1
318.2	1248.6	1.1
323.2	1244.2	1.1
328.2	1239.8	1.1
333.2	1235.5	1.1
338.2	1231.1	1.1
343.2	1226.7	1.1

System: N-ethyl-N-methylmorpholinium bromide; phases: Crystal, Liquid, Air at 1 atmosphere
Property: Normal melting temperature, K (Crystal); method: DTA:corrimp
Normal melting temperature, K	uncertainty
445.6	5.1

System: N-ethyl-N-methylmorpholinium bromide; phases: Crystal, Liquid, Air at 1 atmosphere
Property: Molar enthalpy of transition or fusion, kJ/mol (Crystal); method: DSC
Molar enthalpy of transition or fusion, kJ/mol	uncertainty
16.7	1.09

System: N-ethyl-N-methylmorpholinium bromide + diethylene glycol; phases: Liquid, Crystal
Fixed: Pressure, kPa = 100
Property: Solid-liquid equilibrium temperature, K (Liquid); method: VISOBS
Mole fraction of N-ethyl-N-methylmorpholinium bromide	Solid-liquid equilibrium temperature, K	uncertainty
0.789	437.8	1
0.732	432.5	1
0.688	429.1	1
0.629	422.9	1
0.571	414.7	1.1
0.515	405.3	1.1
0.504	402.7	1.1
0.461	394.1	1.1
0.41	380.8	1.1
0.367	369.2	1.2
0.323	355.4	1.2
0.297	345.5	1.3
0.27	334.7	1.3
0.247	326.1	1.3
0.226	316.7	1.4
0.207	307.4	1.4
0.189	299.3	1.4
0.175	292.7	1.4
0.159	285.4	1.4
0.149	280.2	1.4
0.137	275	1.4
0.124	268.8	1.5
0.113	262	1.6

System: N-ethyl-N-methylmorpholinium bromide + triethylene glycol; phases: Liquid, Crystal
Fixed: Pressure, kPa = 100
Property: Solid-liquid equilibrium temperature, K (Liquid); method: VISOBS
Mole fraction of N-ethyl-N-methylmorpholinium bromide	Solid-liquid equilibrium temperature, K	uncertainty
0.75	423.2	1
0.683	415.1	1.1
0.616	403.9	1.1
0.553	392.1	1.1
0.502	380.4	1.1
0.458	369.7	1.1
0.42	359.9	1.2
0.384	348.6	1.2
0.354	338.1	1.2
0.324	328.1	1.2
0.3	320.7	1.3
0.277	310.4	1.3
0.255	301.8	1.3
0.237	294.7	1.3
0.219	286.9	1.4
0.206	280.8	1.4
0.193	274.4	1.4
0.177	266.7	1.4

System: N-ethyl-N-methylmorpholinium bromide + sulfolane; phases: Liquid, Crystal
Fixed: Pressure, kPa = 100
Property: Solid-liquid equilibrium temperature, K (Liquid); method: VISOBS
Mole fraction of N-ethyl-N-methylmorpholinium bromide	Solid-liquid equilibrium temperature, K	uncertainty
0.787	430.2	1
0.724	425.2	1
0.642	418.1	1
0.577	412.8	1
0.493	406	1
0.425	400.1	1
0.38	394.9	1
0.344	390.8	1
0.303	386.9	1
0.274	383.6	1
0.251	380.6	1
0.227	376.4	1
0.205	373.1	1
0.189	370.2	1
0.174	367.4	1
0.16	364.3	1
0.15	362.3	1
0.14	359.9	1
0.131	357.4	1
0.122	354.1	1
0.115	351.8	1
0.102	347.7	1
0.091	343.8	1
0.083	339.9	1
0.073	335.7	1
0.064	330.2	1
0.058	325.6	1
0.054	322.6	1
0.053	322	1
0.042	312.1	1
0.038	306.4	1
0.033	300.9	1
0.027	291.5	1
0.024	285.5	1

System: N-ethyl-N-methylmorpholinium bromide + sulfolane; phases: Liquid, Crystal 2
Property: Solid-liquid equilibrium temperature, K (Liquid); method: VISOBS
Mole fraction of N-ethyl-N-methylmorpholinium bromide	Pressure, kPa	Solid-liquid equilibrium temperature, K	uncertainty
0.022	100	288.1	1

System: N-ethyl-N-methylmorpholinium bromide + sulfolane; phases: Liquid, Crystal 1
Fixed: Pressure, kPa = 100
Property: Solid-liquid equilibrium temperature, K (Liquid); method: VISOBS
Mole fraction of N-ethyl-N-methylmorpholinium bromide	Solid-liquid equilibrium temperature, K	uncertainty
0.019	290.5	1.6
0.016	292.4	1.5
0.013	293.9	1.4
0.012	294.4	1.5
0.01	295.5	1.4
0.008	296.8	1.4
0.004	298.4	1.3

System: 4-butyl-4-methylmorpholinium bromide + diethylene glycol; phases: Liquid, Crystal
Fixed: Pressure, kPa = 100
Property: Solid-liquid equilibrium temperature, K (Liquid); method: VISOBS
Mole fraction of 4-butyl-4-methylmorpholinium bromide	Solid-liquid equilibrium temperature, K	uncertainty
0.711	439.5	1.1
0.671	431.3	1.1
0.617	420.3	1.1
0.549	402.4	1.1
0.503	389.7	1.2
0.471	377.7	1.3
0.444	367.2	1.3
0.403	352.1	1.3
0.346	325.3	1.5
0.32	307.8	1.5
0.292	296.9	1.3
0.266	286.4	1.3

System: 4-butyl-4-methylmorpholinium bromide + triethylene glycol; phases: Liquid, Crystal
Fixed: Pressure, kPa = 100
Property: Solid-liquid equilibrium temperature, K (Liquid); method: VISOBS
Mole fraction of 4-butyl-4-methylmorpholinium bromide	Solid-liquid equilibrium temperature, K	uncertainty
0.639	428.2	1.2
0.621	422.7	1.1
0.592	415.5	1.1
0.563	408.9	1.1
0.538	402.9	1.2
0.517	393.3	1.2
0.486	385	1.2
0.459	373.7	1.2
0.419	361.7	1.2
0.379	347.2	1.3
0.345	331.4	1.3
0.315	319.7	1.3
0.287	309.6	1.2

System: 4-butyl-4-methylmorpholinium bromide + sulfolane; phases: Liquid, Crystal
Fixed: Pressure, kPa = 100
Property: Solid-liquid equilibrium temperature, K (Liquid); method: VISOBS
Mole fraction of 4-butyl-4-methylmorpholinium bromide	Solid-liquid equilibrium temperature, K	uncertainty
0.532	428.2	1.1
0.449	411.8	1.1
0.404	404.1	1.1
0.361	396.9	1.1
0.327	391.9	1.1
0.303	386.4	1.1
0.286	383.5	1.1
0.266	379.8	1.1
0.236	373.3	1.1
0.206	368.1	1.1
0.176	359.4	1.2
0.148	348.7	1.3
0.116	336.7	1.3
0.087	323.1	1.4
0.059	307.8	1.5

System: 1-butyl-3-methylimidazolium bromide + diethylene glycol; phases: Liquid, Crystal
Fixed: Pressure, kPa = 100
Property: Solid-liquid equilibrium temperature, K (Liquid); method: VISOBS
Mole fraction of 1-butyl-3-methylimidazolium bromide	Solid-liquid equilibrium temperature, K	uncertainty
1	352.1	1
0.968	350.3	1
0.925	348.9	1
0.883	346.2	1
0.842	344	1
0.8	340.7	1
0.745	334.9	1
0.706	331.3	1
0.675	328.7	1
0.647	323.9	1.1
0.604	317.8	1.1
0.565	311.4	1.1
0.531	303.7	1.1
0.491	299.4	1.1
0.461	291.6	1.1

System: 1-butyl-3-methylimidazolium bromide + triethylene glycol; phases: Liquid, Crystal
Fixed: Pressure, kPa = 100
Property: Solid-liquid equilibrium temperature, K (Liquid); method: VISOBS
Mole fraction of 1-butyl-3-methylimidazolium bromide	Solid-liquid equilibrium temperature, K	uncertainty
1	352.1	1
0.959	350.3	1
0.915	348.2	1
0.866	345.4	1
0.829	343.4	1
0.794	340.4	1
0.759	337.5	1
0.728	333.6	1
0.696	330.8	1
0.664	326.1	1.1
0.629	319.9	1.1
0.595	313	1.1
0.564	306.7	1.1
0.536	301.3	1.1
0.499	291.7	1.1

System: 1-butyl-3-methylimidazolium bromide + sulfolane; phases: Liquid, Crystal
Fixed: Pressure, kPa = 100
Property: Solid-liquid equilibrium temperature, K (Liquid); method: VISOBS
Mole fraction of 1-butyl-3-methylimidazolium bromide	Solid-liquid equilibrium temperature, K	uncertainty
1	352.1	1
0.955	351.3	1
0.909	349.9	1
0.869	347.1	1
0.828	345.9	1
0.793	344.6	1
0.746	340.9	1
0.713	338.7	1
0.682	336.6	1
0.637	334.3	1
0.606	332.9	1
0.571	329.5	1
0.531	324.5	1
0.5	321.5	1
0.453	317	1
0.415	313.9	1
0.379	309.6	1
0.327	303.9	1
0.295	300.3	1
0.254	295.3	1.1
0.22	288.3	1.1

System: 1-butyl-3-methylimidazolium bromide + sulfolane; phases: Liquid, Crystal 2
Fixed: Pressure, kPa = 100
Property: Solid-liquid equilibrium temperature, K (Liquid); method: VISOBS
Mole fraction of 1-butyl-3-methylimidazolium bromide	Solid-liquid equilibrium temperature, K	uncertainty
0.181	276.9	1
0.144	281	1
0.107	285.9	1

System: 1-butyl-3-methylimidazolium bromide + sulfolane; phases: Liquid, Crystal 1
Property: Solid-liquid equilibrium temperature, K (Liquid); method: VISOBS
Mole fraction of 1-butyl-3-methylimidazolium bromide	Pressure, kPa	Solid-liquid equilibrium temperature, K	uncertainty
0.055	100	289.1	1
