Measured thermophysical data. (Vapour + liquid) equilibria and excess molar enthalpies for binary mixtures containing N,N-dialkylamides and 1-chloroalkanes
Source: J. Chem. Thermodyn., 2007, 10.1016/j.jct.2007.01.017
Compound 1: dimethylformamide, C3H7NO, InChI=1S/C3H7NO/c1-4(2)3-5/h3H,1-2H3, purity 99%
Compound 2: 1-chlorooctane, C8H17Cl, InChI=1S/C8H17Cl/c1-2-3-4-5-6-7-8-9/h2-8H2,1H3, purity 98%
Compound 3: 1-chlorohexane, C6H13Cl, InChI=1S/C6H13Cl/c1-2-3-4-5-6-7/h2-6H2,1H3, purity 99%
Compound 4: N,N-dimethylethanamide, C4H9NO, InChI=1S/C4H9NO/c1-4(6)5(2)3/h1-3H3, purity 99%
Compound 5: 1-chlorobutane, C4H9Cl, InChI=1S/C4H9Cl/c1-2-3-4-5/h2-4H2,1H3, purity 99.8%

System: dimethylformamide; phases: Liquid
Property: Mass density, kg/m3 (Liquid); method: VIBTUB:UFactor:8
Temperature, K	Pressure, kPa	Mass density, kg/m3	uncertainty
298.15	101.325	943.81	0.78

System: 1-chlorooctane; phases: Liquid
Property: Mass density, kg/m3 (Liquid); method: VIBTUB:UFactor:12
Temperature, K	Pressure, kPa	Mass density, kg/m3	uncertainty
298.15	101.325	868.98	2.08

System: 1-chlorohexane; phases: Liquid, Gas
Property: Vapor or sublimation pressure, kPa (Liquid); method: EBULLIO:UFactor:2
Temperature, K	Vapor or sublimation pressure, kPa	uncertainty
313.15	2.857	0.021

System: 1-chlorohexane; phases: Liquid
Property: Mass density, kg/m3 (Liquid); method: VIBTUB:UFactor:8
Temperature, K	Pressure, kPa	Mass density, kg/m3	uncertainty
298.15	101.325	873.21	1.04

System: N,N-dimethylethanamide; phases: Liquid
Property: Mass density, kg/m3 (Liquid); method: VIBTUB:UFactor:8
Temperature, K	Pressure, kPa	Mass density, kg/m3	uncertainty
298.15	101.325	936.34	0.81

System: 1-chlorobutane; phases: Liquid, Gas
Property: Vapor or sublimation pressure, kPa (Liquid); method: EBULLIO:UFactor:2
Temperature, K	Vapor or sublimation pressure, kPa	uncertainty
313.15	25.722	0.036

System: 1-chlorobutane; phases: Liquid
Property: Mass density, kg/m3 (Liquid); method: VIBTUB:UFactor:2
Temperature, K	Pressure, kPa	Mass density, kg/m3	uncertainty
298.15	101.325	880.72	0.22

System: dimethylformamide + 1-chlorobutane; phases: Liquid
Fixed: Pressure, kPa = 101
Property: Excess molar enthalpy (molar enthalpy of mixing), kJ/mol (Liquid); method: Flow calorimetry
Temperature, K	Mole fraction of dimethylformamide	Excess molar enthalpy (molar enthalpy of mixing), kJ/mol	uncertainty
298.15	0.056	0.123	0.006
298.15	0.106	0.239	0.006
298.15	0.207	0.404	0.006
298.15	0.308	0.509	0.006
298.15	0.407	0.564	0.006
298.15	0.507	0.571	0.006
298.15	0.606	0.54	0.006
298.15	0.705	0.467	0.006
298.15	0.803	0.352	0.006
298.15	0.901	0.192	0.006
298.15	0.95	0.098	0.006
308.15	0.058	0.117	0.006
308.15	0.108	0.231	0.006
308.15	0.207	0.4	0.006
308.15	0.306	0.508	0.006
308.15	0.404	0.568	0.006
308.15	0.503	0.58	0.006
308.15	0.602	0.552	0.006
308.15	0.701	0.481	0.006
308.15	0.799	0.364	0.006
308.15	0.898	0.201	0.006
308.15	0.947	0.103	0.006
308.15	0.967	0.061	0.006

System: dimethylformamide + 1-chlorobutane; phases: Liquid, Gas
Property: Vapor or sublimation pressure, kPa (Liquid); method: EBULLIO:UFactor:2
Mole fraction of dimethylformamide	Temperature, K	Vapor or sublimation pressure, kPa	uncertainty
0.1591	323.15	33.955	0.441
0.1596	313.15	22.803	0.329
0.2601	323.15	31.233	0.413
0.2718	313.15	21.062	0.312
0.3669	323.15	28.72	0.389
0.3792	313.15	19.346	0.295
0.4758	323.15	26.047	0.362
0.4827	313.15	17.674	0.278
0.5544	323.15	23.832	0.34
0.5825	313.15	15.873	0.26
0.6522	323.15	21.194	0.314
0.6526	313.15	14.422	0.246
0.6951	323.15	19.714	0.299
0.7111	313.15	13.193	0.233
0.755	313.15	11.853	0.22
0.7568	323.15	17.6	0.278
0.8224	323.15	14.672	0.249
0.8647	313.15	7.928	0.18
0.922	323.15	8.647	0.188
0.9223	313.15	5.371	0.154

System: dimethylformamide + 1-chlorobutane; phases: Gas, Liquid
Property: Mole fraction of dimethylformamide (Gas); method: Density calibration data
Mole fraction of dimethylformamide	Temperature, K	Mole fraction of dimethylformamide	uncertainty
0.1591	323.15	0.0233	0.01
0.1596	313.15	0.0239	0.01
0.2601	323.15	0.0329	0.01
0.2718	313.15	0.0331	0.01
0.3669	323.15	0.0415	0.01
0.3792	313.15	0.0412	0.01
0.4758	323.15	0.0527	0.01
0.4827	313.15	0.054	0.01
0.5544	323.15	0.0621	0.01
0.5825	313.15	0.0627	0.01
0.6522	323.15	0.0661	0.01
0.6526	313.15	0.0671	0.01
0.6951	323.15	0.0844	0.01
0.7111	313.15	0.085	0.01
0.755	313.15	0.0886	0.01
0.7568	323.15	0.0899	0.01
0.8224	323.15	0.1139	0.01

System: dimethylformamide + 1-chlorohexane; phases: Liquid
Fixed: Pressure, kPa = 101
Property: Excess molar enthalpy (molar enthalpy of mixing), kJ/mol (Liquid); method: Flow calorimetry
Temperature, K	Mole fraction of dimethylformamide	Excess molar enthalpy (molar enthalpy of mixing), kJ/mol	uncertainty
298.15	0.058	0.161	0.007
298.15	0.107	0.306	0.007
298.15	0.205	0.542	0.007
298.15	0.303	0.694	0.007
298.15	0.402	0.802	0.008
298.15	0.5	0.847	0.008
298.15	0.598	0.822	0.008
298.15	0.697	0.741	0.008
298.15	0.796	0.583	0.008
298.15	0.894	0.336	0.007
298.15	0.944	0.175	0.008
308.15	0.062	0.144	0.008
308.15	0.111	0.316	0.007
308.15	0.208	0.555	0.007
308.15	0.305	0.721	0.008
308.15	0.403	0.826	0.008
308.15	0.501	0.87	0.008
308.15	0.6	0.848	0.008
308.15	0.699	0.761	0.008
308.15	0.798	0.6	0.008
308.15	0.897	0.349	0.008
308.15	0.947	0.183	0.008
308.15	0.967	0.108	0.009

System: dimethylformamide + 1-chlorohexane; phases: Liquid, Gas
Property: Vapor or sublimation pressure, kPa (Liquid); method: EBULLIO:UFactor:2
Temperature, K	Mole fraction of dimethylformamide	Vapor or sublimation pressure, kPa	uncertainty
313.15	0.3019	2.907	0.129
313.15	0.447	2.814	0.128
313.15	0.5369	2.736	0.128
313.15	0.5806	2.666	0.127
313.15	0.6707	2.521	0.125
313.15	0.7155	2.427	0.124
313.15	0.745	2.343	0.124
313.15	0.787	2.249	0.123
313.15	0.8248	2.104	0.121
313.15	0.8606	1.994	0.12
323.15	0.3015	4.821	0.149
323.15	0.4468	4.718	0.148
323.15	0.5365	4.528	0.146
323.15	0.5809	4.447	0.145
323.15	0.6702	4.211	0.142
323.15	0.7154	4.068	0.141
323.15	0.7448	3.905	0.139
323.15	0.7872	3.784	0.138
323.15	0.8247	3.568	0.136
323.15	0.8606	3.433	0.135
333.15	0.304	7.787	0.179
333.15	0.4461	7.697	0.178
333.15	0.5362	7.324	0.174
333.15	0.5804	7.115	0.172
333.15	0.6698	6.817	0.169
333.15	0.7152	6.668	0.167
333.15	0.7445	6.389	0.164
333.15	0.7869	6.179	0.162
333.15	0.8251	5.857	0.159
333.15	0.8604	5.57	0.156

System: dimethylformamide + 1-chlorooctane; phases: Liquid
Fixed: Pressure, kPa = 101
Property: Excess molar enthalpy (molar enthalpy of mixing), kJ/mol (Liquid); method: Flow calorimetry
Temperature, K	Mole fraction of dimethylformamide	Excess molar enthalpy (molar enthalpy of mixing), kJ/mol	uncertainty
298.15	0.064	0.174	0.009
298.15	0.113	0.361	0.009
298.15	0.21	0.68	0.009
298.15	0.308	0.886	0.009
298.15	0.405	1.029	0.009
298.15	0.502	1.087	0.009
298.15	0.6	1.071	0.009
298.15	0.698	0.978	0.009
298.15	0.795	0.79	0.009
298.15	0.893	0.49	0.009
298.15	0.942	0.265	0.01
308.15	0.069	0.213	0.009
308.15	0.117	0.385	0.008
308.15	0.212	0.678	0.009
308.15	0.309	0.917	0.009
308.15	0.406	1.064	0.009
308.15	0.503	1.128	0.01
308.15	0.601	1.115	0.01
308.15	0.699	1.018	0.009
308.15	0.798	0.828	0.009
308.15	0.898	0.501	0.009
308.15	0.948	0.28	0.011
308.15	0.968	0.167	0.012

System: 1-chlorobutane + N,N-dimethylethanamide; phases: Liquid
Fixed: Pressure, kPa = 101
Property: Excess molar enthalpy (molar enthalpy of mixing), kJ/mol (Liquid); method: Flow calorimetry
Temperature, K	Mole fraction of N,N-dimethylethanamide	Excess molar enthalpy (molar enthalpy of mixing), kJ/mol	uncertainty
298.15	0.06	0.068	0.005
298.15	0.111	0.141	0.005
298.15	0.212	0.244	0.005
298.15	0.312	0.313	0.005
298.15	0.412	0.354	0.005
298.15	0.511	0.363	0.005
298.15	0.61	0.348	0.005
298.15	0.708	0.305	0.005
298.15	0.805	0.234	0.005
298.15	0.902	0.13	0.005
298.15	0.95	0.069	0.005
308.15	0.057	0.068	0.005
308.15	0.106	0.14	0.005
308.15	0.206	0.246	0.005
308.15	0.305	0.318	0.005
308.15	0.404	0.362	0.005
308.15	0.503	0.375	0.005
308.15	0.602	0.361	0.005
308.15	0.7	0.317	0.005
308.15	0.799	0.243	0.005
308.15	0.897	0.139	0.005
308.15	0.946	0.072	0.005
308.15	0.966	0.041	0.005

System: 1-chlorobutane + N,N-dimethylethanamide; phases: Liquid, Gas
Property: Vapor or sublimation pressure, kPa (Liquid); method: EBULLIO:UFactor:2
Temperature, K	Mole fraction of N,N-dimethylethanamide	Vapor or sublimation pressure, kPa	uncertainty
313.15	0.1285	23.233	0.333
313.15	0.2187	21.468	0.316
313.15	0.2978	19.924	0.3
313.15	0.3886	18.065	0.282
313.15	0.4666	16.404	0.265
313.15	0.5173	15.063	0.252
313.15	0.6156	12.474	0.226
313.15	0.67	10.978	0.211
313.15	0.7578	8.624	0.187
313.15	0.8242	6.908	0.17
323.15	0.1255	34.908	0.45
323.15	0.208	32.459	0.426
323.15	0.302	29.291	0.395
323.15	0.3718	27.007	0.372
323.15	0.4547	24.189	0.344
323.15	0.5151	22.132	0.323
323.15	0.6109	19.006	0.292
323.15	0.662	17.227	0.275
323.15	0.7543	13.821	0.241
323.15	0.8168	11.254	0.216

System: 1-chlorobutane + N,N-dimethylethanamide; phases: Gas, Liquid
Property: Mole fraction of N,N-dimethylethanamide (Gas); method: Density calibration data
Temperature, K	Mole fraction of N,N-dimethylethanamide	Mole fraction of N,N-dimethylethanamide	uncertainty
313.15	0.1285	0.0105	0.001
313.15	0.2187	0.0139	0.001
313.15	0.2978	0.0177	0.001
313.15	0.3886	0.0211	0.001
323.15	0.1255	0.0103	0.001
323.15	0.208	0.0143	0.001
323.15	0.302	0.0175	0.001
323.15	0.3718	0.0217	0.001

System: N,N-dimethylethanamide + 1-chlorohexane; phases: Liquid
Fixed: Pressure, kPa = 101
Property: Excess molar enthalpy (molar enthalpy of mixing), kJ/mol (Liquid); method: Flow calorimetry
Temperature, K	Mole fraction of N,N-dimethylethanamide	Excess molar enthalpy (molar enthalpy of mixing), kJ/mol	uncertainty
298.15	0.064	0.105	0.006
298.15	0.113	0.199	0.006
298.15	0.211	0.38	0.006
298.15	0.309	0.499	0.006
298.15	0.407	0.575	0.006
298.15	0.505	0.61	0.006
298.15	0.603	0.598	0.006
298.15	0.701	0.538	0.006
298.15	0.798	0.425	0.006
298.15	0.896	0.246	0.006
298.15	0.945	0.132	0.006
308.15	0.059	0.106	0.006
308.15	0.108	0.204	0.006
308.15	0.206	0.391	0.006
308.15	0.304	0.52	0.006
308.15	0.402	0.602	0.007
308.15	0.501	0.642	0.007
308.15	0.6	0.631	0.007
308.15	0.698	0.569	0.006
308.15	0.798	0.453	0.006
308.15	0.897	0.262	0.006
308.15	0.947	0.14	0.007
308.15	0.967	0.084	0.007

System: 1-chlorooctane + N,N-dimethylethanamide; phases: Liquid
Fixed: Pressure, kPa = 101
Property: Excess molar enthalpy (molar enthalpy of mixing), kJ/mol (Liquid); method: Flow calorimetry
Temperature, K	Mole fraction of N,N-dimethylethanamide	Excess molar enthalpy (molar enthalpy of mixing), kJ/mol	uncertainty
298.15	0.067	0.136	0.007
298.15	0.117	0.273	0.007
298.15	0.215	0.519	0.007
298.15	0.313	0.676	0.007
298.15	0.411	0.78	0.008
298.15	0.508	0.829	0.008
298.15	0.606	0.821	0.008
298.15	0.703	0.751	0.008
298.15	0.8	0.609	0.008
298.15	0.897	0.37	0.008
298.15	0.945	0.202	0.008
308.15	0.061	0.135	0.007
308.15	0.11	0.274	0.007
308.15	0.207	0.531	0.007
308.15	0.305	0.703	0.008
308.15	0.403	0.817	0.008
308.15	0.501	0.874	0.008
308.15	0.6	0.871	0.008
308.15	0.699	0.8	0.008
308.15	0.798	0.651	0.008
308.15	0.898	0.396	0.008
308.15	0.948	0.216	0.009
308.15	0.968	0.126	0.01
