Measured thermophysical data. Monoethanolamine+2-methoxyethanol mixtures for CO2 capture: Density, viscosity and CO2 solubility
Source: J. Chem. Thermodyn., 2019, 10.1016/j.jct.2018.12.028
Compound 1: 2-aminoethan-1-ol, C2H7NO, InChI=1S/C2H7NO/c3-1-2-4/h4H,1-3H2, purity 99.12%
Compound 2: 2-methoxyethan-1-ol, C3H8O2, InChI=1S/C3H8O2/c1-5-3-2-4/h4H,2-3H2,1H3, purity 99.89%
Compound 3: carbon dioxide, CO2, InChI=1S/CO2/c2-1-3, purity 99.99%
Compound 4: water, H2O, InChI=1S/H2O/h1H2, purity 99.8%

System: 2-aminoethan-1-ol; phases: Liquid
Fixed: Pressure, kPa = 101.3
Property: Mass density, kg/m3 (Liquid); method: Vibrating tube method
Temperature, K	Mass density, kg/m3	uncertainty
293.15	1016.7	2
298.15	1012.8	2
303.15	1008.8	2
308.15	1004.9	2
313.15	1000.9	2
318.15	996.9	2
323.15	992.9	2
328.15	988.8	2
333.15	984.8	2
338.15	980.7	2
343.15	976.6	2
348.15	972.5	2
353.15	968.4	2

System: 2-aminoethan-1-ol; phases: Liquid
Fixed: Pressure, kPa = 101.3
Property: Viscosity, Pa*s (Liquid); method: Falling or rolling sphere viscometry
Temperature, K	Viscosity, Pa*s	uncertainty
293.15	0.024228	0.000986
298.15	0.018937	0.000771
303.15	0.015043	0.000612
308.15	0.01214	0.000494
313.15	0.0099384	0.0004043
318.15	0.0082358	0.000335
323.15	0.0069065	0.0002809
328.15	0.0058549	0.0002381
333.15	0.0050113	0.0002038
338.15	0.0043274	0.000176
343.15	0.0037665	0.0001532
348.15	0.0032998	0.0001342
353.15	0.0029082	0.0001183

System: 2-methoxyethan-1-ol; phases: Liquid
Fixed: Pressure, kPa = 101.3
Property: Mass density, kg/m3 (Liquid); method: Vibrating tube method
Temperature, K	Mass density, kg/m3	uncertainty
293.15	964.7	2
298.15	960.1	2
303.15	955.5	2
308.15	950.9	2
313.15	946.2	2
318.15	941.5	2
323.15	936.7	2
328.15	932	2
333.15	927.2	2
338.15	922.3	2
343.15	917.4	2
348.15	912.4	2
353.15	907.4	2

System: 2-methoxyethan-1-ol; phases: Liquid
Fixed: Pressure, kPa = 101.3
Property: Viscosity, Pa*s (Liquid); method: Falling or rolling sphere viscometry
Temperature, K	Viscosity, Pa*s	uncertainty
293.15	0.0016916	7.13e-05
298.15	0.0015273	6.42e-05
303.15	0.0013858	5.8e-05
308.15	0.0012622	5.27e-05
313.15	0.0011552	4.81e-05
318.15	0.0010611	4.41e-05
323.15	0.0009781	4.05e-05
328.15	0.000905	3.74e-05
333.15	0.0008397	3.46e-05
338.15	0.0007818	3.22e-05
343.15	0.0007298	3e-05
348.15	0.0006834	2.81e-05
353.15	0.0006409	2.63e-05

System: 2-aminoethan-1-ol + carbon dioxide + 2-methoxyethan-1-ol; phases: Liquid
Fixed: Pressure, kPa = 101.3
Property: Mass density, kg/m3 (Liquid); method: Vibrating tube method
Temperature, K	Solvent: Mass fraction of 2-aminoethan-1-ol	Molality, mol/kg of carbon dioxide	Mass density, kg/m3	uncertainty
293.15	0	0	964.7	2
293.15	0.1	0	971.8	2
293.15	0.3	0	984.5	2
293.15	0.5	0	995.6	2
293.15	0.7	0	1005.1	2
293.15	0.898	0	1013.4	2
293.15	1	0	1016.7	2
293.15	0.1	0.193	980.7	2
293.15	0.1	0.388	989.2	2
293.15	0.1	0.63	1001.5	2
293.15	0.3	0.167	990.8	2
293.15	0.3	0.587	1011.2	2
293.15	0.3	0.823	1020.7	2
293.15	0.3	1.031	1030.9	2
293.15	0.3	1.583	1055	2
293.15	0.3	1.755	1064.9	2.1
293.15	0.5	0.387	1010	2
293.15	0.5	1.025	1040.9	2
293.15	0.5	1.583	1065.5	2
293.15	0.5	2.15	1092.4	2
298.15	0	0	960.1	2
298.15	0.1	0	967.3	2
298.15	0.3	0	980.2	2
298.15	0.5	0	991.4	2
298.15	0.7	0	1001	2
298.15	0.898	0	1009.4	2
298.15	1	0	1012.8	2
298.15	0.1	0.193	976.3	2
298.15	0.1	0.388	984.8	2
298.15	0.1	0.63	997	2
298.15	0.3	0.167	986.5	2
298.15	0.3	0.587	1007.1	2
298.15	0.3	0.823	1016.6	2
298.15	0.3	1.031	1026.8	2
298.15	0.3	1.583	1051	2
298.15	0.3	1.755	1060.9	2.1
298.15	0.5	0.387	1005.9	2
298.15	0.5	1.025	1036.9	2
298.15	0.5	1.583	1061.7	2
298.15	0.5	2.15	1088.7	2
298.15	0.5	2.8	1118	2
303.15	0	0	955.5	2
303.15	0.1	0	962.8	2
303.15	0.3	0	975.8	2
303.15	0.5	0	987.1	2
303.15	0.7	0	996.9	2
303.15	0.898	0	1005.4	2
303.15	1	0	1008.8	2
303.15	0.1	0.193	971.9	2
303.15	0.1	0.388	980.4	2
303.15	0.1	0.63	992.5	2
303.15	0.3	0.167	982.2	2
303.15	0.3	0.587	1002.9	2
303.15	0.3	0.823	1012.5	2
303.15	0.3	1.031	1022.7	2
303.15	0.3	1.583	1046.9	2
303.15	0.3	1.755	1056.9	2.1
303.15	0.5	0.387	1001.8	2
303.15	0.5	1.025	1033	2
303.15	0.5	1.583	1057.9	2
303.15	0.5	2.15	1085	2
303.15	0.5	2.8	1114.3	2
308.15	0	0	950.9	2
308.15	0.1	0	958.3	2
308.15	0.3	0	971.5	2
308.15	0.5	0	982.9	2
308.15	0.7	0	992.8	2
308.15	0.898	0	1001.4	2
308.15	1	0	1004.9	2
308.15	0.1	0.193	967.4	2
308.15	0.1	0.388	975.9	2
308.15	0.1	0.63	988	2
308.15	0.3	0.167	977.9	2
308.15	0.3	0.587	998.7	2
308.15	0.3	0.823	1008.3	2
308.15	0.3	1.031	1018.6	2
308.15	0.3	1.583	1042.9	2
308.15	0.3	1.755	1052.8	2.1
308.15	0.5	0.387	997.6	2
308.15	0.5	1.025	1029	2
308.15	0.5	1.583	1054	2
308.15	0.5	2.15	1081.3	2
308.15	0.5	2.8	1110.7	2
313.15	0	0	946.2	2
313.15	0.1	0	953.7	2
313.15	0.3	0	967.1	2
313.15	0.5	0	978.6	2
313.15	0.7	0	988.6	2
313.15	0.898	0	997.3	2
313.15	1	0	1000.9	2
313.15	0.1	0.193	962.9	2
313.15	0.1	0.388	971.5	2
313.15	0.1	0.63	983.3	2
313.15	0.3	0.167	973.6	2
313.15	0.3	0.587	994.5	2
313.15	0.3	0.823	1004.1	2
313.15	0.3	1.031	1014.5	2
313.15	0.3	1.583	1038.9	2
313.15	0.3	1.755	1048.8	2.1
313.15	0.5	0.387	993.5	2
313.15	0.5	1.025	1025	2
313.15	0.5	1.583	1050.2	2
313.15	0.5	2.15	1077.5	2
313.15	0.5	2.8	1107.1	2
318.15	0	0	941.5	2
318.15	0.1	0	949.1	2
318.15	0.3	0	962.7	2
318.15	0.5	0	974.3	2
318.15	0.7	0	984.4	2
318.15	0.898	0	993.3	2
318.15	1	0	996.9	2
318.15	0.1	0.193	958.3	2
318.15	0.1	0.388	966.9	2
318.15	0.1	0.63	978.6	2
318.15	0.3	0.167	969.2	2
318.15	0.3	0.587	990.2	2
318.15	0.3	0.823	999.9	2
318.15	0.3	1.031	1010.3	2
318.15	0.3	1.583	1034.8	2
318.15	0.3	1.755	1044.7	2.1
318.15	0.5	0.387	989.3	2
318.15	0.5	1.025	1021	2
318.15	0.5	1.583	1046.3	2
318.15	0.5	2.15	1073.8	2
318.15	0.5	2.8	1103.4	2
323.15	0	0	936.7	2
323.15	0.1	0	944.5	2
323.15	0.3	0	958.2	2
323.15	0.5	0	970	2
323.15	0.7	0	980.3	2
323.15	0.898	0	989.2	2
323.15	1	0	992.9	2
323.15	0.1	0.193	953.7	2
323.15	0.1	0.388	962.4	2
323.15	0.1	0.63	973.8	2
323.15	0.3	0.167	964.8	2
323.15	0.3	0.587	985.9	2
323.15	0.3	0.823	995.7	2
323.15	0.3	1.031	1006.2	2
323.15	0.3	1.583	1030.7	2
323.15	0.3	1.755	1040.5	2.1
323.15	0.5	0.387	985.1	2
323.15	0.5	1.025	1017	2
323.15	0.5	1.583	1042.4	2
323.15	0.5	2.15	1070	2
323.15	0.5	2.8	1099.7	2
328.15	0	0	932	2
328.15	0.1	0	939.9	2
328.15	0.3	0	953.8	2
328.15	0.5	0	965.7	2
328.15	0.7	0	976	2
328.15	0.898	0	985.1	2
328.15	1	0	988.8	2
328.15	0.1	0.193	949.1	2
328.15	0.1	0.388	957.7	2
328.15	0.1	0.63	968.9	2
328.15	0.3	0.167	960.4	2
328.15	0.3	0.587	981.6	2
328.15	0.3	0.823	991.4	2
328.15	0.3	1.031	1001.9	2
328.15	0.3	1.583	1026.5	2
328.15	0.3	1.755	1036.3	2.1
328.15	0.5	0.387	980.8	2
328.15	0.5	1.025	1013	2
328.15	0.5	1.583	1038.5	2
328.15	0.5	2.15	1066.3	2
328.15	0.5	2.8	1096	2
333.15	0	0	927.2	2
333.15	0.1	0	935.2	2
333.15	0.3	0	949.2	2
333.15	0.5	0	961.3	2
333.15	0.7	0	971.8	2
333.15	0.898	0	981	2
333.15	1	0	984.8	2
333.15	0.1	0.193	944.4	2
333.15	0.1	0.388	953	2
333.15	0.1	0.63	963.8	2
333.15	0.3	0.167	955.9	2
333.15	0.3	0.587	977.3	2
333.15	0.3	0.823	987.2	2
333.15	0.3	1.031	997.7	2
333.15	0.3	1.583	1022.3	2
333.15	0.3	1.755	1032	2.1
333.15	0.5	0.387	976.6	2
333.15	0.5	1.025	1008.9	2
333.15	0.5	1.583	1034.6	2
333.15	0.5	2.15	1062.5	2
333.15	0.5	2.8	1092.3	2
338.15	0	0	922.3	2
338.15	0.1	0	930.4	2
338.15	0.3	0	944.7	2
338.15	0.5	0	956.9	2
338.15	0.7	0	967.5	2
338.15	0.898	0	976.9	2
338.15	1	0	980.7	2
338.15	0.1	0.193	939.7	2
338.15	0.1	0.388	948.3	2
338.15	0.1	0.63	958.7	2
338.15	0.3	0.167	951.4	2
338.15	0.3	0.587	972.9	2
338.15	0.3	0.823	982.8	2
338.15	0.3	1.031	993.4	2
338.15	0.3	1.583	1018.1	2
338.15	0.3	1.755	1027.7	2.1
338.15	0.5	0.387	972.3	2
338.15	0.5	1.025	1004.8	2
338.15	0.5	1.583	1030.7	2
338.15	0.5	2.15	1058.6	2
338.15	0.5	2.8	1088.5	2
343.15	0	0	917.4	2
343.15	0.1	0	925.7	2
343.15	0.3	0	940.1	2
343.15	0.5	0	952.5	2
343.15	0.7	0	963.3	2
343.15	0.898	0	972.7	2
343.15	1	0	976.6	2
343.15	0.1	0.193	934.9	2
343.15	0.1	0.388	943.4	2
343.15	0.1	0.63	953.4	2
343.15	0.3	0.167	946.8	2
343.15	0.3	0.587	968.5	2
343.15	0.3	0.823	978.5	2
343.15	0.3	1.031	989.1	2
343.15	0.3	1.583	1013.8	2
343.15	0.3	1.755	1023.2	2.1
343.15	0.5	0.387	968	2
343.15	0.5	1.025	1000.7	2
343.15	0.5	1.583	1026.7	2
343.15	0.5	2.15	1054.8	2
343.15	0.5	2.8	1084.7	2
348.15	0	0	912.4	2
348.15	0.1	0	920.8	2
348.15	0.3	0	935.5	2
348.15	0.5	0	948	2
348.15	0.7	0	958.9	2
348.15	0.898	0	968.5	2
348.15	1	0	972.5	2
348.15	0.1	0.193	930.1	2
348.15	0.1	0.388	938.4	2
348.15	0.3	0.167	942.3	2
348.15	0.3	0.587	964	2
348.15	0.3	0.823	974	2
348.15	0.3	1.031	984.7	2
348.15	0.3	1.583	1009.4	2
348.15	0.3	1.755	1018.7	2.1
348.15	0.5	0.387	963.6	2
348.15	0.5	1.025	996.5	2
348.15	0.5	1.583	1022.7	2
348.15	0.5	2.15	1050.9	2
348.15	0.5	2.8	1080.8	2
353.15	0	0	907.4	2
353.15	0.1	0	916	2
353.15	0.3	0	930.8	2
353.15	0.5	0	943.5	2
353.15	0.7	0	954.6	2
353.15	0.898	0	964.3	2
353.15	1	0	968.4	2
353.15	0.1	0.193	925.2	2
353.15	0.1	0.388	933.3	2
353.15	0.3	0.167	937.7	2
353.15	0.3	0.587	959.6	2
353.15	0.3	0.823	969.6	2
353.15	0.3	1.031	980.3	2
353.15	0.3	1.583	1004.9	2
353.15	0.3	1.755	1014	2.1
353.15	0.5	0.387	959.2	2
353.15	0.5	1.025	992.4	2
353.15	0.5	1.583	1018.6	2
353.15	0.5	2.15	1047	2
353.15	0.5	2.8	1076.8	2

System: 2-aminoethan-1-ol + carbon dioxide + 2-methoxyethan-1-ol; phases: Liquid
Fixed: Pressure, kPa = 101.3
Property: Viscosity, Pa*s (Liquid); method: Falling or rolling sphere viscometry
Temperature, K	Solvent: Mass fraction of 2-aminoethan-1-ol	Molality, mol/kg of carbon dioxide	Viscosity, Pa*s	uncertainty
293.15	0	0	0.0016916	7.13e-05
293.15	0.1	0	0.0023207	9.65e-05
293.15	0.3	0	0.0043707	0.0001801
293.15	0.5	0	0.007952	0.0003293
293.15	0.7	0	0.013005	0.000542
293.15	0.898	0	0.020504	0.000873
293.15	1	0	0.024228	0.000986
293.15	0.1	0.193	0.002688	0.0001128
293.15	0.1	0.388	0.0031006	0.0001325
293.15	0.1	0.63	0.0038047	0.0001603
293.15	0.3	0.167	0.0049072	0.0002049
293.15	0.3	0.587	0.0071636	0.0002972
293.15	0.3	0.823	0.0086547	0.0003599
293.15	0.3	1.031	0.010794	0.000459
293.15	0.3	1.583	0.018078	0.000764
293.15	0.3	1.755	0.023613	0.00101
293.15	0.5	0.387	0.010504	0.000444
293.15	0.5	1.025	0.019797	0.000832
293.15	0.5	1.583	0.035406	0.001511
293.15	0.5	2.15	0.072092	0.003054
298.15	0	0	0.0015273	6.42e-05
298.15	0.1	0	0.0020653	8.59e-05
298.15	0.3	0	0.0037647	0.0001551
298.15	0.5	0	0.0066339	0.0002745
298.15	0.7	0	0.010509	0.000437
298.15	0.898	0	0.016166	0.000687
298.15	1	0	0.018937	0.000771
298.15	0.1	0.193	0.0023842	9.97e-05
298.15	0.1	0.388	0.0027364	0.0001162
298.15	0.1	0.63	0.0033291	0.0001398
298.15	0.3	0.167	0.0042119	0.0001756
298.15	0.3	0.587	0.0060798	0.000252
298.15	0.3	0.823	0.0072995	0.000303
298.15	0.3	1.031	0.0090367	0.0003824
298.15	0.3	1.583	0.014839	0.000624
298.15	0.3	1.755	0.019111	0.000817
298.15	0.5	0.387	0.0086817	0.000365
298.15	0.5	1.025	0.015995	0.000668
298.15	0.5	1.583	0.02791	0.001182
298.15	0.5	2.15	0.05543	0.002325
298.15	0.5	2.8	0.12541	0.00624
303.15	0	0	0.0013858	5.8e-05
303.15	0.1	0	0.0018489	7.68e-05
303.15	0.3	0	0.0032687	0.0001345
303.15	0.5	0	0.0055982	0.0002313
303.15	0.7	0	0.0086191	0.0003579
303.15	0.898	0	0.012967	0.000549
303.15	1	0	0.015043	0.000612
303.15	0.1	0.193	0.0021258	8.86e-05
303.15	0.1	0.388	0.0024305	0.0001027
303.15	0.1	0.63	0.0029316	0.0001227
303.15	0.3	0.167	0.0036466	0.0001518
303.15	0.3	0.587	0.005208	0.0002156
303.15	0.3	0.823	0.0062181	0.0002578
303.15	0.3	1.031	0.0076442	0.0003229
303.15	0.3	1.583	0.012633	0.000529
303.15	0.3	1.755	0.015705	0.000665
303.15	0.5	0.387	0.007258	0.0003042
303.15	0.5	1.025	0.0131	0.000546
303.15	0.5	1.583	0.022394	0.000944
303.15	0.5	2.15	0.043324	0.001831
303.15	0.5	2.8	0.094812	0.0043
308.15	0	0	0.0012622	5.27e-05
308.15	0.1	0	0.0016641	6.9e-05
308.15	0.3	0	0.0028609	0.0001177
308.15	0.5	0	0.0047727	0.000197
308.15	0.7	0	0.0071579	0.0002968
308.15	0.898	0	0.010548	0.000445
308.15	1	0	0.01214	0.000494
308.15	0.1	0.193	0.0019052	7.93e-05
308.15	0.1	0.388	0.002171	9.14e-05
308.15	0.1	0.63	0.0025949	0.0001083
308.15	0.3	0.167	0.0031819	0.0001322
308.15	0.3	0.587	0.0044996	0.0001861
308.15	0.3	0.823	0.0053421	0.0002212
308.15	0.3	1.031	0.0065261	0.0002747
308.15	0.3	1.583	0.010604	0.000443
308.15	0.3	1.755	0.013065	0.000551
308.15	0.5	0.387	0.0061378	0.0002566
308.15	0.5	1.025	0.010863	0.000452
308.15	0.5	1.583	0.018218	0.000766
308.15	0.5	2.15	0.03441	0.001449
308.15	0.5	2.8	0.072822	0.003084
313.15	0	0	0.0011552	4.81e-05
313.15	0.1	0	0.0015043	6.23e-05
313.15	0.3	0	0.0025206	0.0001036
313.15	0.5	0	0.0041051	0.0001693
313.15	0.7	0	0.0060106	0.0002489
313.15	0.898	0	0.008699	0.0003662
313.15	1	0	0.0099384	0.0004043
313.15	0.1	0.193	0.0017183	7.13e-05
313.15	0.1	0.388	0.0019493	8.18e-05
313.15	0.1	0.63	0.00231	9.62e-05
313.15	0.3	0.167	0.0027959	0.000116
313.15	0.3	0.587	0.0039186	0.0001619
313.15	0.3	0.823	0.0046298	0.0001915
313.15	0.3	1.031	0.0056259	0.000236
313.15	0.3	1.583	0.0089952	0.0003745
313.15	0.3	1.755	0.010974	0.000461
313.15	0.5	0.387	0.0052434	0.0002187
313.15	0.5	1.025	0.0091108	0.0003785
313.15	0.5	1.583	0.015014	0.00063
313.15	0.5	2.15	0.027719	0.001163
313.15	0.5	2.8	0.056935	0.002325
318.15	0	0	0.0010611	4.41e-05
318.15	0.1	0	0.0013665	5.65e-05
318.15	0.3	0	0.0022351	9.18e-05
318.15	0.5	0	0.0035614	0.0001467
318.15	0.7	0	0.0050976	0.0002109
318.15	0.898	0	0.0072649	0.0003051
318.15	1	0	0.0082358	0.000335
318.15	0.1	0.193	0.0015554	6.45e-05
318.15	0.1	0.388	0.0017587	7.35e-05
318.15	0.1	0.63	0.0020649	8.58e-05
318.15	0.3	0.167	0.0024727	0.0001025
318.15	0.3	0.587	0.003436	0.0001418
318.15	0.3	0.823	0.0040414	0.000167
318.15	0.3	1.031	0.0048796	0.0002042
318.15	0.3	1.583	0.0076922	0.0003195
318.15	0.3	1.755	0.0093092	0.00039
318.15	0.5	0.387	0.0045152	0.000188
318.15	0.5	1.025	0.0077241	0.0003204
318.15	0.5	1.583	0.012514	0.000523
318.15	0.5	2.15	0.022616	0.000947
318.15	0.5	2.8	0.045135	0.00186
323.15	0	0	0.0009781	4.05e-05
323.15	0.1	0	0.0012463	5.15e-05
323.15	0.3	0	0.0019925	8.18e-05
323.15	0.5	0	0.0031121	0.0001281
323.15	0.7	0	0.0043672	0.0001805
323.15	0.898	0	0.0061343	0.0002571
323.15	1	0	0.0069065	0.0002809
323.15	0.1	0.193	0.001414	5.85e-05
323.15	0.1	0.388	0.0015928	6.64e-05
323.15	0.1	0.63	0.001853	7.69e-05
323.15	0.3	0.167	0.0021997	9.11e-05
323.15	0.3	0.587	0.0030332	0.0001251
323.15	0.3	0.823	0.0035528	0.0001467
323.15	0.3	1.031	0.0042686	0.0001782
323.15	0.3	1.583	0.0066279	0.0002748
323.15	0.3	1.755	0.0079625	0.0003328
323.15	0.5	0.387	0.0039211	0.000163
323.15	0.5	1.025	0.006609	0.0002738
323.15	0.5	1.583	0.010535	0.00044
323.15	0.5	2.15	0.018662	0.000779
323.15	0.5	2.8	0.036253	0.001492
328.15	0	0	0.000905	3.74e-05
328.15	0.1	0	0.0011413	4.71e-05
328.15	0.3	0	0.0017863	7.33e-05
328.15	0.5	0	0.0027408	0.0001127
328.15	0.7	0	0.0037753	0.0001559
328.15	0.898	0	0.0052294	0.0002187
328.15	1	0	0.0058549	0.0002381
328.15	0.1	0.193	0.0012909	5.33e-05
328.15	0.1	0.388	0.0014486	6.03e-05
328.15	0.1	0.63	0.0016689	6.91e-05
328.15	0.3	0.167	0.001968	8.14e-05
328.15	0.3	0.587	0.002693	0.000111
328.15	0.3	0.823	0.0031424	0.0001297
328.15	0.3	1.031	0.0037562	0.0001565
328.15	0.3	1.583	0.0057558	0.0002383
328.15	0.3	1.755	0.0068631	0.0002862
328.15	0.5	0.387	0.0034293	0.0001423
328.15	0.5	1.025	0.0057033	0.000236
328.15	0.5	1.583	0.0089603	0.0003732
328.15	0.5	2.15	0.015569	0.000649
328.15	0.5	2.8	0.029585	0.001217
333.15	0	0	0.0008397	3.46e-05
333.15	0.1	0	0.0010487	4.32e-05
333.15	0.3	0	0.0016095	6.6e-05
333.15	0.5	0	0.0024268	9.98e-05
333.15	0.7	0	0.0032877	0.0001357
333.15	0.898	0	0.0045032	0.000188
333.15	1	0	0.0050113	0.0002038
333.15	0.1	0.193	0.0011834	4.88e-05
333.15	0.1	0.388	0.001322	5.49e-05
333.15	0.1	0.63	0.0015076	6.23e-05
333.15	0.3	0.167	0.0017688	7.31e-05
333.15	0.3	0.587	0.0024052	9.91e-05
333.15	0.3	0.823	0.002795	0.0001152
333.15	0.3	1.031	0.0033267	0.0001383
333.15	0.3	1.583	0.0050306	0.000208
333.15	0.3	1.755	0.0059542	0.0002478
333.15	0.5	0.387	0.0030194	0.0001252
333.15	0.5	1.025	0.0049601	0.000205
333.15	0.5	1.583	0.0076825	0.0003194
333.15	0.5	2.15	0.013103	0.000545
333.15	0.5	2.8	0.024314	0.001
338.15	0	0	0.0007818	3.22e-05
338.15	0.1	0	0.000967	3.98e-05
338.15	0.3	0	0.0014563	5.97e-05
338.15	0.5	0	0.0021613	8.88e-05
338.15	0.7	0	0.0028835	0.0001189
338.15	0.898	0	0.0039097	0.000163
338.15	1	0	0.0043274	0.000176
338.15	0.1	0.193	0.0010868	4.48e-05
338.15	0.1	0.388	0.0012097	5.01e-05
338.15	0.1	0.63	0.0013657	5.64e-05
338.15	0.3	0.167	0.0015976	6.6e-05
338.15	0.3	0.587	0.0021575	8.88e-05
338.15	0.3	0.823	0.0024989	0.000103
338.15	0.3	1.031	0.0029619	0.0001229
338.15	0.3	1.583	0.0044221	0.0001826
338.15	0.3	1.755	0.0051965	0.0002159
338.15	0.5	0.387	0.0026728	0.0001107
338.15	0.5	1.025	0.0043374	0.0001791
338.15	0.5	1.583	0.0066413	0.0002757
338.15	0.5	2.15	0.011124	0.000462
338.15	0.5	2.8	0.020188	0.000831
343.15	0	0	0.0007298	3e-05
343.15	0.1	0	0.0008945	3.68e-05
343.15	0.3	0	0.0013236	5.42e-05
343.15	0.5	0	0.0019358	7.95e-05
343.15	0.7	0	0.0025456	0.0001049
343.15	0.898	0	0.0034203	0.0001423
343.15	1	0	0.0037665	0.0001532
343.15	0.1	0.193	0.0010017	4.12e-05
343.15	0.1	0.388	0.00111	4.59e-05
343.15	0.1	0.63	0.0012404	5.12e-05
343.15	0.3	0.167	0.0014491	5.98e-05
343.15	0.3	0.587	0.0019449	8.01e-05
343.15	0.3	0.823	0.0022447	9.24e-05
343.15	0.3	1.031	0.0026485	0.0001098
343.15	0.3	1.583	0.0039065	0.0001611
343.15	0.3	1.755	0.0045567	0.000189
343.15	0.5	0.387	0.0023779	9.83e-05
343.15	0.5	1.025	0.0038205	0.0001576
343.15	0.5	1.583	0.0057824	0.0002397
343.15	0.5	2.15	0.009526	0.0003949
343.15	0.5	2.8	0.016921	0.000696
348.15	0	0	0.0006834	2.81e-05
348.15	0.1	0	0.0008302	3.41e-05
348.15	0.3	0	0.0012074	4.95e-05
348.15	0.5	0	0.0017409	7.14e-05
348.15	0.7	0	0.0022615	9.32e-05
348.15	0.898	0	0.003011	0.0001251
348.15	1	0	0.0032998	0.0001342
348.15	0.1	0.193	0.0009257	3.81e-05
348.15	0.1	0.388	0.001021	4.22e-05
348.15	0.3	0.167	0.0013194	5.44e-05
348.15	0.3	0.587	0.0017605	7.23e-05
348.15	0.3	0.823	0.0020249	8.37e-05
348.15	0.3	1.031	0.00238	9.85e-05
348.15	0.3	1.583	0.0034653	0.0001428
348.15	0.3	1.755	0.0040154	0.0001663
348.15	0.5	0.387	0.0021256	8.78e-05
348.15	0.5	1.025	0.0033818	0.0001394
348.15	0.5	1.583	0.0050679	0.0002098
348.15	0.5	2.15	0.0082124	0.00034
348.15	0.5	2.8	0.014293	0.000588
353.15	0	0	0.0006409	2.63e-05
353.15	0.1	0	0.0007712	3.17e-05
353.15	0.3	0	0.0011055	4.52e-05
353.15	0.5	0	0.0015679	6.43e-05
353.15	0.7	0	0.0020189	8.31e-05
353.15	0.898	0	0.0026698	0.0001108
353.15	1	0	0.0029082	0.0001183
353.15	0.1	0.193	0.0008561	3.52e-05
353.15	0.1	0.388	0.0009395	3.88e-05
353.15	0.3	0.167	0.0012048	4.96e-05
353.15	0.3	0.587	0.0015971	6.56e-05
353.15	0.3	0.823	0.0018318	7.57e-05
353.15	0.3	1.031	0.0021443	8.86e-05
353.15	0.3	1.583	0.0030804	0.0001268
353.15	0.3	1.755	0.0035467	0.0001465
353.15	0.5	0.387	0.0019066	7.87e-05
353.15	0.5	1.025	0.003011	0.0001241
353.15	0.5	1.583	0.0044684	0.0001849
353.15	0.5	2.15	0.0071194	0.0002944
353.15	0.5	2.8	0.012162	0.000502

System: 2-aminoethan-1-ol + carbon dioxide + 2-methoxyethan-1-ol; phases: Liquid, Gas
Fixed: Solvent: Mass fraction of 2-aminoethan-1-ol = 0.31
Property: Molality, mol/kg of carbon dioxide (Liquid); method: Volumetric method
Temperature, K	Pressure, kPa	Molality, mol/kg of carbon dioxide	uncertainty
313	7.98	2.084	0.021
313	10.77	2.302	0.021
313	18.05	2.386	0.022
313	35.13	2.507	0.022
313	83.4	2.648	0.022
313	123.25	2.727	0.022
313	174.6	2.809	0.023
333	10.51	1.695	0.02
333	16.81	1.952	0.021
333	28.47	2.16	0.021
333	63.94	2.364	0.022
333	114.78	2.492	0.022
333	170.77	2.581	0.022
333	232.05	2.662	0.022
353	15.01	0.282	0.02
353	17.53	0.651	0.02
353	19.28	0.895	0.02
353	24.1	1.174	0.02
353	37.31	1.596	0.02
353	54.9	1.832	0.021
353	87.95	2.038	0.021
353	134.03	2.188	0.021
353	219.38	2.344	0.022
373	39.72	0.16	0.02
373	44.73	0.33	0.02
373	47.71	0.446	0.02
373	51.59	0.601	0.02
373	60.3	0.838	0.02
373	80.98	1.174	0.02
373	102.15	1.386	0.02
373	131.75	1.578	0.02
373	156.9	1.706	0.021
373	205.75	1.855	0.021
373	257.45	1.964	0.021
373	295.35	2.034	0.021
393	90.59	0.165	0.02
393	105.5	0.327	0.02
393	123.45	0.494	0.02
393	148.4	0.662	0.02
393	174.9	0.813	0.02
393	228.8	1.055	0.02
393	274.45	1.215	0.02
393	321.95	1.321	0.02

System: 2-aminoethan-1-ol + 2-methoxyethan-1-ol; phases: Liquid
Fixed: Pressure, kPa = 101.3
Property: Mass density, kg/m3 (Liquid); method: Vibrating tube method
Temperature, K	Mass fraction of 2-aminoethan-1-ol	Mass density, kg/m3	uncertainty
293.15	0.1	971.8	2
293.15	0.3	984.5	2
293.15	0.5	995.6	2
293.15	0.7	1005.1	2
293.15	0.898	1013.4	2
298.15	0.1	967.3	2
298.15	0.3	980.2	2
298.15	0.5	991.4	2
298.15	0.7	1001	2
298.15	0.898	1009.4	2
303.15	0.1	962.8	2
303.15	0.3	975.8	2
303.15	0.5	987.1	2
303.15	0.7	996.9	2
303.15	0.898	1005.4	2
308.15	0.1	958.3	2
308.15	0.3	971.5	2
308.15	0.5	982.9	2
308.15	0.7	992.8	2
308.15	0.898	1001.4	2
313.15	0.1	953.7	2
313.15	0.3	967.1	2
313.15	0.5	978.6	2
313.15	0.7	988.6	2
313.15	0.898	997.3	2
318.15	0.1	949.1	2
318.15	0.3	962.7	2
318.15	0.5	974.3	2
318.15	0.7	984.4	2
318.15	0.898	993.3	2
323.15	0.1	944.5	2
323.15	0.3	958.2	2
323.15	0.5	970	2
323.15	0.7	980.3	2
323.15	0.898	989.2	2
328.15	0.1	939.9	2
328.15	0.3	953.8	2
328.15	0.5	965.7	2
328.15	0.7	976	2
328.15	0.898	985.1	2
333.15	0.1	935.2	2
333.15	0.3	949.2	2
333.15	0.5	961.3	2
333.15	0.7	971.8	2
333.15	0.898	981	2
338.15	0.1	930.4	2
338.15	0.3	944.7	2
338.15	0.5	956.9	2
338.15	0.7	967.5	2
338.15	0.898	976.9	2
343.15	0.1	925.7	2
343.15	0.3	940.1	2
343.15	0.5	952.5	2
343.15	0.7	963.3	2
343.15	0.898	972.7	2
348.15	0.1	920.8	2
348.15	0.3	935.5	2
348.15	0.5	948	2
348.15	0.7	958.9	2
348.15	0.898	968.5	2
353.15	0.1	916	2
353.15	0.3	930.8	2
353.15	0.5	943.5	2
353.15	0.7	954.6	2
353.15	0.898	964.3	2
293.15	1	1016.7	2
298.15	1	1012.8	2
303.15	1	1008.8	2
308.15	1	1004.9	2
313.15	1	1000.9	2
318.15	1	996.9	2
323.15	1	992.9	2
328.15	1	988.8	2
333.15	1	984.8	2
338.15	1	980.7	2
343.15	1	976.6	2
348.15	1	972.5	2
353.15	1	968.4	2
293.15	0	964.7	2
298.15	0	960.1	2
303.15	0	955.5	2
308.15	0	950.9	2
313.15	0	946.2	2
318.15	0	941.5	2
323.15	0	936.7	2
328.15	0	932	2
333.15	0	927.2	2
338.15	0	922.3	2
343.15	0	917.4	2
348.15	0	912.4	2
353.15	0	907.4	2

System: 2-aminoethan-1-ol + 2-methoxyethan-1-ol; phases: Liquid
Fixed: Pressure, kPa = 101.3
Property: Viscosity, Pa*s (Liquid); method: Falling or rolling sphere viscometry
Temperature, K	Mass fraction of 2-aminoethan-1-ol	Viscosity, Pa*s	uncertainty
293.15	0.1	0.0023207	9.65e-05
293.15	0.3	0.0043707	0.0001801
293.15	0.5	0.007952	0.0003293
293.15	0.7	0.013005	0.000542
293.15	0.898	0.020504	0.000873
298.15	0.1	0.0020653	8.59e-05
298.15	0.3	0.0037647	0.0001551
298.15	0.5	0.0066339	0.0002745
298.15	0.7	0.010509	0.000437
298.15	0.898	0.016166	0.000687
303.15	0.1	0.0018489	7.68e-05
303.15	0.3	0.0032687	0.0001345
303.15	0.5	0.0055982	0.0002313
303.15	0.7	0.0086191	0.0003579
303.15	0.898	0.012967	0.000549
308.15	0.1	0.0016641	6.9e-05
308.15	0.3	0.0028609	0.0001177
308.15	0.5	0.0047727	0.000197
308.15	0.7	0.0071579	0.0002968
308.15	0.898	0.010548	0.000445
313.15	0.1	0.0015043	6.23e-05
313.15	0.3	0.0025206	0.0001036
313.15	0.5	0.0041051	0.0001693
313.15	0.7	0.0060106	0.0002489
313.15	0.898	0.008699	0.0003662
318.15	0.1	0.0013665	5.65e-05
318.15	0.3	0.0022351	9.18e-05
318.15	0.5	0.0035614	0.0001467
318.15	0.7	0.0050976	0.0002109
318.15	0.898	0.0072649	0.0003051
323.15	0.1	0.0012463	5.15e-05
323.15	0.3	0.0019925	8.18e-05
323.15	0.5	0.0031121	0.0001281
323.15	0.7	0.0043672	0.0001805
323.15	0.898	0.0061343	0.0002571
328.15	0.1	0.0011413	4.71e-05
328.15	0.3	0.0017863	7.33e-05
328.15	0.5	0.0027408	0.0001127
328.15	0.7	0.0037753	0.0001559
328.15	0.898	0.0052294	0.0002187
333.15	0.1	0.0010487	4.32e-05
333.15	0.3	0.0016095	6.6e-05
333.15	0.5	0.0024268	9.98e-05
333.15	0.7	0.0032877	0.0001357
333.15	0.898	0.0045032	0.000188
338.15	0.1	0.000967	3.98e-05
338.15	0.3	0.0014563	5.97e-05
338.15	0.5	0.0021613	8.88e-05
338.15	0.7	0.0028835	0.0001189
338.15	0.898	0.0039097	0.000163
343.15	0.1	0.0008945	3.68e-05
343.15	0.3	0.0013236	5.42e-05
343.15	0.5	0.0019358	7.95e-05
343.15	0.7	0.0025456	0.0001049
343.15	0.898	0.0034203	0.0001423
348.15	0.1	0.0008302	3.41e-05
348.15	0.3	0.0012074	4.95e-05
348.15	0.5	0.0017409	7.14e-05
348.15	0.7	0.0022615	9.32e-05
348.15	0.898	0.003011	0.0001251
353.15	0.1	0.0007712	3.17e-05
353.15	0.3	0.0011055	4.52e-05
353.15	0.5	0.0015679	6.43e-05
353.15	0.7	0.0020189	8.31e-05
353.15	0.898	0.0026698	0.0001108
293.15	1	0.024228	0.000986
298.15	1	0.018937	0.000771
303.15	1	0.015043	0.000612
308.15	1	0.01214	0.000494
313.15	1	0.0099384	0.0004043
318.15	1	0.0082358	0.000335
323.15	1	0.0069065	0.0002809
328.15	1	0.0058549	0.0002381
333.15	1	0.0050113	0.0002038
338.15	1	0.0043274	0.000176
343.15	1	0.0037665	0.0001532
348.15	1	0.0032998	0.0001342
353.15	1	0.0029082	0.0001183
293.15	0	0.0016916	7.13e-05
298.15	0	0.0015273	6.42e-05
303.15	0	0.0013858	5.8e-05
308.15	0	0.0012622	5.27e-05
313.15	0	0.0011552	4.81e-05
318.15	0	0.0010611	4.41e-05
323.15	0	0.0009781	4.05e-05
328.15	0	0.000905	3.74e-05
333.15	0	0.0008397	3.46e-05
338.15	0	0.0007818	3.22e-05
343.15	0	0.0007298	3e-05
348.15	0	0.0006834	2.81e-05
353.15	0	0.0006409	2.63e-05

System: 2-aminoethan-1-ol + carbon dioxide + water; phases: Liquid, Gas
Fixed: Solvent: Mass fraction of 2-aminoethan-1-ol = 0.302
Property: Molality, mol/kg of carbon dioxide (Liquid); method: Volumetric method
Temperature, K	Pressure, kPa	Molality, mol/kg of carbon dioxide	uncertainty
313	10.6	2.329	0.022
313	18.11	2.5	0.022
313	40.61	2.657	0.022
313	69.8	2.781	0.023
313	105.7	2.89	0.023
313	160.7	3.016	0.023
373	97.52	1.304	0.02
373	105.95	1.62	0.02
373	151.9	2.047	0.021
373	215.2	2.241	0.021
373	279.3	2.35	0.022
