Measured thermophysical data. Thermodynamic assessment of the Na-O and Na-U-O systems: Margin to the safe operation of SFRs
Source: J. Chem. Thermodyn., 2017, 10.1016/j.jct.2017.04.003
Compound 1: sodium peroxide, Na2O2, InChI=1S/2Na.O2/c;;1-2/q2*+1;-2, purity 95%

System: sodium peroxide; phases: Crystal 1, Liquid, Air at 1 atmosphere
Property: Normal melting temperature, K (Crystal 1); method: DTA
Normal melting temperature, K	uncertainty
939.8	10

System: sodium peroxide; phases: Crystal 2, Crystal 1, Air at 1 atmosphere
Property: Triple point temperature, K (Crystal 2); method: DSC
Triple point temperature, K	uncertainty
756.8	10
