Measured thermophysical data. Studies on thermo-acoustic parameters in binary liquid mixtures of phosphinic acid (Cyanex 272) with different diluents at temperature 303.15 K: an ultrasonic study
Source: J. Chem. Thermodyn., 2005, 10.1016/j.jct.2004.12.001
Compound 1: bis-(2,4,4-trimethylpentyl) phosphinic acid, C16H35O2P, InChI=1S/C16H35O2P/c1-13(9-15(3,4)5)11-19(17,18)12-14(2)10-16(6,7)8/h13-14H,9-12H2,1-8H3,(H,17,18)
Compound 2: benzene, C6H6, InChI=1S/C6H6/c1-2-4-6-5-3-1/h1-6H, purity 99%
Compound 3: toluene, C7H8, InChI=1S/C7H8/c1-7-5-3-2-4-6-7/h2-6H,1H3, purity 99%

System: bis-(2,4,4-trimethylpentyl) phosphinic acid; phases: Liquid
Property: Speed of sound, m/s (Liquid); method: LVPAI:UFactor:6
Temperature, K	Pressure, kPa	Frequency, MHz	Speed of sound, m/s	uncertainty
303.15	101.325	2	1290.4	16.9

System: bis-(2,4,4-trimethylpentyl) phosphinic acid; phases: Liquid
Property: Mass density, kg/m3 (Liquid); method: PYCNOM:UFactor:32
Temperature, K	Pressure, kPa	Mass density, kg/m3	uncertainty
303.15	101	924.7	11.9

System: benzene; phases: Liquid
Property: Speed of sound, m/s (Liquid); method: LVPAI:UFactor:6
Temperature, K	Pressure, kPa	Frequency, MHz	Speed of sound, m/s	uncertainty
303.15	101.325	2	1257	10.6

System: benzene; phases: Liquid
Property: Mass density, kg/m3 (Liquid); method: PYCNOM:UFactor:32
Temperature, K	Pressure, kPa	Mass density, kg/m3	uncertainty
303.15	101	872	9

System: toluene; phases: Liquid
Property: Speed of sound, m/s (Liquid); method: LVPAI:UFactor:6
Temperature, K	Pressure, kPa	Frequency, MHz	Speed of sound, m/s	uncertainty
303.15	101.325	2	1271.9	10.7

System: toluene; phases: Liquid
Property: Mass density, kg/m3 (Liquid); method: PYCNOM:UFactor:32
Temperature, K	Pressure, kPa	Mass density, kg/m3	uncertainty
303.15	101	866.7	8.9

System: benzene + bis-(2,4,4-trimethylpentyl) phosphinic acid; phases: Liquid
Fixed: Temperature, K = 303.15
Fixed: Pressure, kPa = 101
Fixed: Frequency, MHz = 2
Property: Speed of sound, m/s (Liquid); method: LVPAI:UFactor:6
Mole fraction of bis-(2,4,4-trimethylpentyl) phosphinic acid	Speed of sound, m/s	uncertainty
0	1257	10.6
0.0666	1252.2	10.7
0.109	1255.2	10.8
0.1599	1258.1	11
0.2222	1259.1	11.2
0.2999	1261.3	11.5
0.3999	1263.2	12.1
0.5332	1266.8	12.9
0.7199	1274.3	14.4
1	1290.4	16.9

System: benzene + bis-(2,4,4-trimethylpentyl) phosphinic acid; phases: Liquid
Fixed: Temperature, K = 303.15
Fixed: Pressure, kPa = 101
Property: Mass density, kg/m3 (Liquid); method: PYCNOM:UFactor:32
Mole fraction of bis-(2,4,4-trimethylpentyl) phosphinic acid	Mass density, kg/m3	uncertainty
0	872	9
0.0666	886.8	9.2
0.109	891.9	9.3
0.1599	895.6	9.4
0.2222	901.1	9.5
0.2999	904.9	9.6
0.3999	908.4	9.8
0.5332	912.3	10.2
0.7199	915.3	10.7
1	924.7	11.9

System: toluene + bis-(2,4,4-trimethylpentyl) phosphinic acid; phases: Liquid
Fixed: Temperature, K = 303.15
Fixed: Pressure, kPa = 101
Fixed: Frequency, MHz = 2
Property: Speed of sound, m/s (Liquid); method: LVPAI:UFactor:6
Mole fraction of bis-(2,4,4-trimethylpentyl) phosphinic acid	Speed of sound, m/s	uncertainty
0	1271.9	10.7
0.0781	1266.5	10.8
0.1268	1266.9	10.9
0.1843	1267.5	11.1
0.2532	1268.2	11.4
0.3371	1269.2	11.8
0.4416	1274.6	12.4
0.5755	1278	13.3
0.7531	1284	14.7
1	1290.4	16.9

System: toluene + bis-(2,4,4-trimethylpentyl) phosphinic acid; phases: Liquid
Fixed: Temperature, K = 303.15
Fixed: Pressure, kPa = 101
Property: Mass density, kg/m3 (Liquid); method: PYCNOM:UFactor:32
Mole fraction of bis-(2,4,4-trimethylpentyl) phosphinic acid	Mass density, kg/m3	uncertainty
0	866.7	8.9
0.0781	875.6	9.1
0.1268	882.5	9.2
0.1843	888	9.3
0.2532	893.8	9.4
0.3371	899.7	9.6
0.4416	900.9	9.8
0.5755	906.4	10.2
0.7531	913.1	10.8
1	924.7	11.9
