Measured thermophysical data. Isobutane as a probe of the structure of 1-alkyl-3-methylimidazolium bis(trifluoromethylsulfonyl)imide ionic liquids
Source: J. Chem. Thermodyn., 2015, 10.1016/j.jct.2015.04.026
Compound 1: 1-ethyl-3-methylimidazolium bis((trifluoromethyl)sulfonyl)imide, C8H11F6N3O4S2, InChI=1S/C6H11N2.C2F6NO4S2/c1-3-8-5-4-7(2)6-8;3-1(4,5)14(10,11)9-15(12,13)2(6,7)8/h4-6H,3H2,1-2H3;/q+1;-1
Compound 2: 1-hexyl-3-methylimidazolium bis[(trifluoromethyl)sulfonyl]imide, C12H19F6N3O4S2, InChI=1S/C10H19N2.C2F6NO4S2/c1-3-4-5-6-7-12-9-8-11(2)10-12;3-1(4,5)14(10,11)9-15(12,13)2(6,7)8/h8-10H,3-7H2,1-2H3;/q+1;-1
Compound 3: 1-octyl-3-methylimidazolium bis[(trifluoromethyl)sulfonyl]imide, C14H23F6N3O4S2, InChI=1S/C12H23N2.C2F6NO4S2/c1-3-4-5-6-7-8-9-14-11-10-13(2)12-14;3-1(4,5)14(10,11)9-15(12,13)2(6,7)8/h10-12H,3-9H2,1-2H3;/q+1;-1
Compound 4: 1-decyl-3-methylimidazolium bis(trifluoromethylsulfonyl)amide, C16H27F6N3O4S2, InChI=1S/C14H27N2.C2F6NO4S2/c1-3-4-5-6-7-8-9-10-11-16-13-12-15(2)14-16;3-1(4,5)14(10,11)9-15(12,13)2(6,7)8/h12-14H,3-11H2,1-2H3;/q+1;-1
Compound 5: 1-butyl-3-methylimidazolium bis(trifluoromethylsulfonyl)imide, C10H15F6N3O4S2, InChI=1S/C8H15N2.C2F6NO4S2/c1-3-4-5-10-7-6-9(2)8-10;3-1(4,5)14(10,11)9-15(12,13)2(6,7)8/h6-8H,3-5H2,1-2H3;/q+1;-1
Compound 6: 2-methylpropane, C4H10, InChI=1S/C4H10/c1-4(2)3/h4H,1-3H3, purity 99.5%

System: 2-methylpropane + 1-ethyl-3-methylimidazolium bis((trifluoromethyl)sulfonyl)imide; phases: Liquid, Gas
Property: Mole fraction of 2-methylpropane (Liquid); method: volumetric
Pressure, kPa	Temperature, K	Mole fraction of 2-methylpropane	uncertainty
59.91	303.25	0.01384	0.00042
62.4	303.26	0.01436	0.00043
59.78	303.29	0.01363	0.00041
62.75	313.26	0.01136	0.00034
62.63	313.35	0.01126	0.00034
65.48	323.25	0.00935	0.00028
68.31	323.26	0.00994	0.0003
65.24	323.31	0.0096	0.00029
68.11	333.22	0.00769	0.00023
67.96	333.35	0.00777	0.00023
70.68	343.21	0.00631	0.00019
73.84	343.23	0.00689	0.00021
70.51	343.24	0.00641	0.00019

System: 2-methylpropane + 1-butyl-3-methylimidazolium bis(trifluoromethylsulfonyl)imide; phases: Liquid, Gas
Property: Mole fraction of 2-methylpropane (Liquid); method: volumetric
Pressure, kPa	Temperature, K	Mole fraction of 2-methylpropane	uncertainty
55.51	303.17	0.02149	0.00064
53.06	303.18	0.02046	0.00061
58.38	313.18	0.01742	0.00052
56.25	313.28	0.01641	0.00049
61.09	323.18	0.0142	0.00043
59.07	323.2	0.01354	0.00041
63.73	333.19	0.01146	0.00034
62	333.25	0.01061	0.00032
66.27	343.18	0.00918	0.00028
64.68	343.27	0.00846	0.00025

System: 2-methylpropane + 1-hexyl-3-methylimidazolium bis[(trifluoromethyl)sulfonyl]imide; phases: Liquid, Gas
Property: Mole fraction of 2-methylpropane (Liquid); method: volumetric
Pressure, kPa	Temperature, K	Mole fraction of 2-methylpropane	uncertainty
57.73	303.18	0.03338	0.001
53.87	306.15	0.02815	0.00084
56	313.17	0.02511	0.00075
60.82	313.18	0.02792	0.00084
63.72	323.16	0.02361	0.00071
58.19	323.17	0.02175	0.00065
61.62	333.11	0.01849	0.00056
60.68	333.14	0.01836	0.00055
66.5	333.15	0.02002	0.0006
63.08	343.11	0.01551	0.00047
69.14	343.12	0.01719	0.00052
64.37	343.16	0.01567	0.00047

System: 2-methylpropane + 1-octyl-3-methylimidazolium bis[(trifluoromethyl)sulfonyl]imide; phases: Liquid, Gas
Property: Mole fraction of 2-methylpropane (Liquid); method: volumetric
Pressure, kPa	Temperature, K	Mole fraction of 2-methylpropane	uncertainty
55.69	303.17	0.04586	0.00138
50.79	303.17	0.04122	0.00124
54.31	313.16	0.03425	0.00103
52.95	313.17	0.03441	0.00103
53.19	313.18	0.03474	0.00104
56.44	323.15	0.0287	0.00086
57.58	323.16	0.0286	0.00086
59.48	333.16	0.02375	0.00071
59.28	333.17	0.0242	0.00073
62.32	343.16	0.01981	0.0006

System: 2-methylpropane + 1-decyl-3-methylimidazolium bis(trifluoromethylsulfonyl)amide; phases: Liquid, Gas
Property: Mole fraction of 2-methylpropane (Liquid); method: volumetric
Pressure, kPa	Temperature, K	Mole fraction of 2-methylpropane	uncertainty
53.08	303.24	0.05386	0.00162
52.39	303.25	0.05211	0.00156
51.93	303.25	0.05181	0.00155
56.26	313.26	0.04304	0.00129
55.87	313.26	0.04328	0.0013
59.83	323.24	0.03565	0.00107
59.47	323.25	0.03641	0.00109
62.88	333.24	0.03062	0.00092
63.14	333.25	0.02966	0.00089
66.09	343.22	0.02579	0.00078
