Measured thermophysical data. Liquid-liquid separation of hex-1-ene from hexane and cyclohexene from cyclohexane with ionic liquids
Source: J. Chem. Thermodyn., 2017, 10.1016/j.jct.2017.01.013
Compound 1: 1-butyl-3-methylimidazolium dicyanamide, C10H15N5, InChI=1S/C8H15N2.C2N3/c1-3-4-5-10-7-6-9(2)8-10;3-1-5-2-4/h6-8H,3-5H2,1-2H3;/q+1;-1, purity 98%
Compound 2: 1-butyl-3-methylimidazolium tricyanomethane, C12H15N5, InChI=1S/C8H15N2.C4N3/c1-3-4-5-10-7-6-9(2)8-10;5-1-4(2-6)3-7/h6-8H,3-5H2,1-2H3;/q+1;-1, purity 98%
Compound 3: 1-butyl-4-cyanopyridinium bis(trifluoromethylsulfonyl)imide, C12H13F6N3O4S2, InChI=1S/C10H13N2.C2F6NO4S2/c1-2-3-6-12-7-4-10(9-11)5-8-12;3-1(4,5)14(10,11)9-15(12,13)2(6,7)8/h4-5,7-8H,2-3,6H2,1H3;/q+1;-1
Compound 4: cyclohexane, C6H12, InChI=1S/C6H12/c1-2-4-6-5-3-1/h1-6H2
Compound 5: cyclohexene, C6H10, InChI=1S/C6H10/c1-2-4-6-5-3-1/h1-2H,3-6H2
Compound 6: hexane, C6H14, InChI=1S/C6H14/c1-3-5-6-4-2/h3-6H2,1-2H3
Compound 7: hex-1-ene, C6H12, InChI=1S/C6H12/c1-3-5-6-4-2/h3H,1,4-6H2,2H3

System: hexane + hex-1-ene + 1-butyl-3-methylimidazolium dicyanamide; phases: Liquid mixture 1, Liquid mixture 2
Fixed: Temperature, K = 298.15
Fixed: Pressure, kPa = 101
Property: Mole fraction of 1-butyl-3-methylimidazolium dicyanamide (Liquid mixture 1); method: Chromatography
Property: Mole fraction of 1-butyl-3-methylimidazolium dicyanamide (Liquid mixture 2); method: Chromatography
Property: Mole fraction of hex-1-ene (Liquid mixture 2); method: Chromatography
Mole fraction of hex-1-ene	Mole fraction of 1-butyl-3-methylimidazolium dicyanamide	uncertainty	Mole fraction of 1-butyl-3-methylimidazolium dicyanamide	uncertainty	Mole fraction of hex-1-ene	uncertainty
0	0		0.983	0.01	0	
0.047	0		0.981	0.01	0.002	
0.138	0		0.978	0.01	0.006	
0.224	0		0.975	0.01	0.011	
0.31	0		0.973	0.01	0.015	
0.386	0		0.971	0.01	0.017	
0.455	0		0.97	0.01	0.02	
0.513	0		0.968	0.01	0.023	
0.571	0		0.967	0.01	0.025	
0.621	0		0.965	0.01	0.029	
0.739	0		0.963	0.01	0.033	
0.772	0		0.961	0.01	0.035	
0.885	0		0.96	0.01	0.038	
0.966	0		0.959	0.01	0.04	
1	0		0.959	0.01	0.041	

System: hexane + hex-1-ene + 1-butyl-3-methylimidazolium tricyanomethane; phases: Liquid mixture 1, Liquid mixture 2
Fixed: Temperature, K = 298.15
Fixed: Pressure, kPa = 101
Property: Mole fraction of 1-butyl-3-methylimidazolium tricyanomethane (Liquid mixture 1); method: Chromatography
Property: Mole fraction of 1-butyl-3-methylimidazolium tricyanomethane (Liquid mixture 2); method: Chromatography
Property: Mole fraction of hex-1-ene (Liquid mixture 2); method: Chromatography
Mole fraction of hex-1-ene	Mole fraction of 1-butyl-3-methylimidazolium tricyanomethane	uncertainty	Mole fraction of 1-butyl-3-methylimidazolium tricyanomethane	uncertainty	Mole fraction of hex-1-ene	uncertainty
0	0		0.966	0.01	0	
0.057	0		0.963	0.01	0.004	
0.137	0		0.959	0.012	0.011	
0.186	0		0.956	0.012	0.015	
0.225	0		0.954	0.012	0.018	
0.285	0		0.952	0.012	0.021	
0.343	0		0.949	0.011	0.028	
0.407	0		0.946	0.011	0.032	
0.482	0		0.944	0.011	0.037	
0.556	0		0.941	0.011	0.043	
0.608	0		0.938	0.011	0.048	
0.67	0		0.936	0.011	0.052	
0.73	0		0.933	0.011	0.057	
0.77	0		0.932	0.011	0.06	
0.823	0		0.93	0.011	0.064	
0.869	0		0.928	0.01	0.068	
0.904	0		0.927	0.01	0.07	
0.943	0		0.926	0.01	0.072	
0.983	0		0.924	0.01	0.075	
1	0		0.924	0.01	0.076	

System: hexane + hex-1-ene + 1-butyl-4-cyanopyridinium bis(trifluoromethylsulfonyl)imide; phases: Liquid mixture 2, Liquid mixture 1
Fixed: Temperature, K = 298.15
Fixed: Pressure, kPa = 101
Property: Mole fraction of 1-butyl-4-cyanopyridinium bis(trifluoromethylsulfonyl)imide (Liquid mixture 2); method: Chromatography
Property: Mole fraction of 1-butyl-4-cyanopyridinium bis(trifluoromethylsulfonyl)imide (Liquid mixture 1); method: Chromatography
Property: Mole fraction of hex-1-ene (Liquid mixture 1); method: Chromatography
Mole fraction of hex-1-ene	Mole fraction of 1-butyl-4-cyanopyridinium bis(trifluoromethylsulfonyl)imide	uncertainty	Mole fraction of 1-butyl-4-cyanopyridinium bis(trifluoromethylsulfonyl)imide	uncertainty	Mole fraction of hex-1-ene	uncertainty
0	0.961	0.01	0		0	
0.004	0.957	0.01	0		0.049	
0.008	0.954	0.01	0		0.1	
0.013	0.95	0.013	0		0.149	
0.016	0.947	0.012	0		0.205	
0.022	0.944	0.012	0		0.257	
0.026	0.941	0.012	0		0.294	
0.03	0.938	0.012	0		0.326	
0.033	0.937	0.012	0		0.351	
0.036	0.935	0.012	0		0.382	
0.044	0.93	0.012	0		0.46	
0.052	0.926	0.011	0		0.526	
0.056	0.924	0.011	0		0.586	
0.062	0.922	0.011	0		0.645	
0.067	0.92	0.011	0		0.716	
0.073	0.918	0.01	0		0.802	
0.077	0.917	0.01	0		0.875	
0.081	0.916	0.01	0		0.941	
0.083	0.916	0.01	0		0.98	
0.084	0.916	0.01	0		1	

System: cyclohexane + cyclohexene + 1-butyl-3-methylimidazolium dicyanamide; phases: Liquid mixture 2, Liquid mixture 1
Fixed: Temperature, K = 298.15
Fixed: Pressure, kPa = 101
Property: Mole fraction of 1-butyl-3-methylimidazolium dicyanamide (Liquid mixture 2); method: Chromatography
Property: Mole fraction of 1-butyl-3-methylimidazolium dicyanamide (Liquid mixture 1); method: Chromatography
Property: Mole fraction of cyclohexene (Liquid mixture 1); method: Chromatography
Mole fraction of cyclohexene	Mole fraction of 1-butyl-3-methylimidazolium dicyanamide	uncertainty	Mole fraction of 1-butyl-3-methylimidazolium dicyanamide	uncertainty	Mole fraction of cyclohexene	uncertainty
0	0.962	0.01	0		0	
0.005	0.958	0.01	0		0.056	
0.013	0.951	0.013	0		0.14	
0.017	0.948	0.013	0		0.2	
0.027	0.941	0.012	0		0.272	
0.036	0.935	0.012	0		0.359	
0.044	0.93	0.012	0		0.443	
0.049	0.928	0.011	0		0.484	
0.051	0.927	0.011	0		0.517	
0.055	0.925	0.011	0		0.563	
0.062	0.921	0.011	0		0.639	
0.07	0.918	0.011	0		0.726	
0.076	0.915	0.011	0		0.789	
0.083	0.912	0.01	0		0.87	
0.089	0.91	0.01	0		0.953	
0.091	0.909	0.01	0		1	

System: cyclohexane + cyclohexene + 1-butyl-3-methylimidazolium tricyanomethane; phases: Liquid mixture 2, Liquid mixture 1
Fixed: Temperature, K = 298.15
Fixed: Pressure, kPa = 101
Property: Mole fraction of 1-butyl-3-methylimidazolium tricyanomethane (Liquid mixture 2); method: Chromatography
Property: Mole fraction of 1-butyl-3-methylimidazolium tricyanomethane (Liquid mixture 1); method: Chromatography
Property: Mole fraction of cyclohexene (Liquid mixture 1); method: Chromatography
Mole fraction of cyclohexene	Mole fraction of 1-butyl-3-methylimidazolium tricyanomethane	uncertainty	Mole fraction of 1-butyl-3-methylimidazolium tricyanomethane	uncertainty	Mole fraction of cyclohexene	uncertainty
0	0.928	0.01	0		0	
0.005	0.924	0.01	0		0.033	
0.018	0.917	0.011	0		0.101	
0.033	0.909	0.011	0		0.205	
0.048	0.901	0.011	0		0.302	
0.064	0.893	0.011	0		0.412	
0.076	0.886	0.011	0		0.488	
0.091	0.878	0.011	0		0.579	
0.102	0.872	0.011	0		0.649	
0.115	0.866	0.011	0		0.743	
0.128	0.859	0.011	0		0.823	
0.145	0.85	0.011	0		0.925	
0.157	0.843	0.01	0		1	

System: cyclohexane + cyclohexene + 1-butyl-4-cyanopyridinium bis(trifluoromethylsulfonyl)imide; phases: Liquid mixture 2, Liquid mixture 1
Fixed: Temperature, K = 298.15
Fixed: Pressure, kPa = 101
Property: Mole fraction of 1-butyl-4-cyanopyridinium bis(trifluoromethylsulfonyl)imide (Liquid mixture 2); method: Chromatography
Property: Mole fraction of 1-butyl-4-cyanopyridinium bis(trifluoromethylsulfonyl)imide (Liquid mixture 1); method: Chromatography
Property: Mole fraction of cyclohexene (Liquid mixture 1); method: Chromatography
Mole fraction of cyclohexene	Mole fraction of 1-butyl-4-cyanopyridinium bis(trifluoromethylsulfonyl)imide	uncertainty	Mole fraction of 1-butyl-4-cyanopyridinium bis(trifluoromethylsulfonyl)imide	uncertainty	Mole fraction of cyclohexene	uncertainty
0	0.928	0.01	0		0	
0.005	0.924	0.01	0		0.047	
0.015	0.918	0.011	0		0.111	
0.03	0.91	0.011	0		0.21	
0.041	0.904	0.011	0		0.3	
0.048	0.9	0.011	0		0.328	
0.051	0.899	0.011	0		0.352	
0.06	0.894	0.011	0		0.413	
0.071	0.888	0.011	0		0.489	
0.077	0.885	0.011	0		0.524	
0.084	0.881	0.011	0		0.57	
0.095	0.876	0.011	0		0.639	
0.105	0.871	0.011	0		0.705	
0.118	0.865	0.011	0		0.789	
0.127	0.861	0.011	0		0.853	
0.136	0.858	0.01	0		0.929	
0.139	0.857	0.01	0		0.955	
0.144	0.856	0.01	0		1	

System: hexane + 1-butyl-3-methylimidazolium dicyanamide; phases: Liquid mixture 2, Liquid mixture 1
Property: Mole fraction of 1-butyl-3-methylimidazolium dicyanamide (Liquid mixture 2); method: Chromatography
Temperature, K	Pressure, kPa	Mole fraction of 1-butyl-3-methylimidazolium dicyanamide	uncertainty
298.15	101	0.983	0.01

System: hex-1-ene + 1-butyl-3-methylimidazolium dicyanamide; phases: Liquid mixture 2, Liquid mixture 1
Property: Mole fraction of 1-butyl-3-methylimidazolium dicyanamide (Liquid mixture 2); method: Chromatography
Temperature, K	Pressure, kPa	Mole fraction of 1-butyl-3-methylimidazolium dicyanamide	uncertainty
298.15	101	0.959	0.01

System: hexane + 1-butyl-3-methylimidazolium tricyanomethane; phases: Liquid mixture 2, Liquid mixture 1
Property: Mole fraction of 1-butyl-3-methylimidazolium tricyanomethane (Liquid mixture 2); method: Chromatography
Temperature, K	Pressure, kPa	Mole fraction of 1-butyl-3-methylimidazolium tricyanomethane	uncertainty
298.15	101	0.966	0.01

System: hex-1-ene + 1-butyl-3-methylimidazolium tricyanomethane; phases: Liquid mixture 2, Liquid mixture 1
Property: Mole fraction of 1-butyl-3-methylimidazolium tricyanomethane (Liquid mixture 2); method: Chromatography
Temperature, K	Pressure, kPa	Mole fraction of 1-butyl-3-methylimidazolium tricyanomethane	uncertainty
298.15	101	0.924	0.01

System: hexane + 1-butyl-4-cyanopyridinium bis(trifluoromethylsulfonyl)imide; phases: Liquid mixture 2, Liquid mixture 1
Property: Mole fraction of 1-butyl-4-cyanopyridinium bis(trifluoromethylsulfonyl)imide (Liquid mixture 2); method: Chromatography
Temperature, K	Pressure, kPa	Mole fraction of 1-butyl-4-cyanopyridinium bis(trifluoromethylsulfonyl)imide	uncertainty
298.15	101	0.961	0.01

System: hex-1-ene + 1-butyl-4-cyanopyridinium bis(trifluoromethylsulfonyl)imide; phases: Liquid mixture 2, Liquid mixture 1
Property: Mole fraction of 1-butyl-4-cyanopyridinium bis(trifluoromethylsulfonyl)imide (Liquid mixture 2); method: Chromatography
Temperature, K	Pressure, kPa	Mole fraction of 1-butyl-4-cyanopyridinium bis(trifluoromethylsulfonyl)imide	uncertainty
298.15	101	0.916	0.01

System: cyclohexane + 1-butyl-3-methylimidazolium dicyanamide; phases: Liquid mixture 2, Liquid mixture 1
Property: Mole fraction of 1-butyl-3-methylimidazolium dicyanamide (Liquid mixture 2); method: Chromatography
Temperature, K	Pressure, kPa	Mole fraction of 1-butyl-3-methylimidazolium dicyanamide	uncertainty
298.15	101	0.962	0.01

System: cyclohexene + 1-butyl-3-methylimidazolium dicyanamide; phases: Liquid mixture 2, Liquid mixture 1
Property: Mole fraction of 1-butyl-3-methylimidazolium dicyanamide (Liquid mixture 2); method: Chromatography
Temperature, K	Pressure, kPa	Mole fraction of 1-butyl-3-methylimidazolium dicyanamide	uncertainty
298.15	101	0.909	0.01

System: cyclohexane + 1-butyl-3-methylimidazolium tricyanomethane; phases: Liquid mixture 2, Liquid mixture 1
Property: Mole fraction of 1-butyl-3-methylimidazolium tricyanomethane (Liquid mixture 2); method: Chromatography
Temperature, K	Pressure, kPa	Mole fraction of 1-butyl-3-methylimidazolium tricyanomethane	uncertainty
298.15	101	0.928	0.01

System: cyclohexene + 1-butyl-3-methylimidazolium tricyanomethane; phases: Liquid mixture 2, Liquid mixture 1
Property: Mole fraction of 1-butyl-3-methylimidazolium tricyanomethane (Liquid mixture 2); method: Chromatography
Temperature, K	Pressure, kPa	Mole fraction of 1-butyl-3-methylimidazolium tricyanomethane	uncertainty
298.15	101	0.843	0.01

System: cyclohexane + 1-butyl-4-cyanopyridinium bis(trifluoromethylsulfonyl)imide; phases: Liquid mixture 2, Liquid mixture 1
Property: Mole fraction of 1-butyl-4-cyanopyridinium bis(trifluoromethylsulfonyl)imide (Liquid mixture 2); method: Chromatography
Temperature, K	Pressure, kPa	Mole fraction of 1-butyl-4-cyanopyridinium bis(trifluoromethylsulfonyl)imide	uncertainty
298.15	101	0.928	0.01

System: cyclohexene + 1-butyl-4-cyanopyridinium bis(trifluoromethylsulfonyl)imide; phases: Liquid mixture 2, Liquid mixture 1
Property: Mole fraction of 1-butyl-4-cyanopyridinium bis(trifluoromethylsulfonyl)imide (Liquid mixture 2); method: Chromatography
Temperature, K	Pressure, kPa	Mole fraction of 1-butyl-4-cyanopyridinium bis(trifluoromethylsulfonyl)imide	uncertainty
298.15	101	0.856	0.01
