Measured thermophysical data. High-pressure phase equilibria in the (carbon dioxide + 1-hexanol) system
Source: J. Chem. Thermodyn., 2010, 10.1016/j.jct.2010.05.006
Compound 1: carbon dioxide, CO2, InChI=1S/CO2/c2-1-3, purity 99.7%
Compound 2: hexan-1-ol, C6H14O, InChI=1S/C6H14O/c1-2-3-4-5-6-7/h7H,2-6H2,1H3, purity 99%

System: hexan-1-ol + carbon dioxide; phases: Gas, Liquid mixture 1, Liquid mixture 2
Property: Vapor or sublimation pressure, kPa (Gas); method: Closed cell (Static) method
Temperature, K	Vapor or sublimation pressure, kPa	uncertainty
293.15	5490	60
303.15	6860	80

System: hexan-1-ol + carbon dioxide; phases: Liquid mixture 1, Liquid mixture 2, Gas
Property: Vapor or sublimation pressure, kPa (Liquid mixture 1); method: Closed cell (Static) method
Temperature, K	Vapor or sublimation pressure, kPa	uncertainty
289.35	5030	60
289.45	5030	60
290.65	5180	60
293.15	5470	60
295.35	5670	70
296.55	5930	70
296.65	5960	70
296.65	5960	70
297.75	6080	70
300.15	6440	70
300.25	6450	70
300.25	6450	70
305.15	7160	80
305.15	7170	80
308.15	7620	90
308.15	7640	90
309.75	7890	90
309.75	7900	90
310.25	7980	90
310.25	7980	90
311.15	8140	90
311.15	8140	90
311.35	8140	90
312.05	8300	100
312.05	8300	100
312.55	8380	90

System: hexan-1-ol + carbon dioxide; phases: Liquid mixture 2, Liquid mixture 1, Gas
Property: Mole fraction of carbon dioxide (Liquid mixture 2); method: CO2 Expansion into Calibration Volume
Temperature, K	Mole fraction of carbon dioxide	uncertainty
293.15	0.9382	0.002
303.15	0.9464	0.002

System: hexan-1-ol + carbon dioxide; phases: Liquid mixture 1, Liquid mixture 2, Gas
Property: Mole fraction of carbon dioxide (Liquid mixture 1); method: CO2 Expansion into Calibration Volume
Temperature, K	Mole fraction of carbon dioxide	uncertainty
293.15	0.7252	0.002
303.15	0.7417	0.002

System: hexan-1-ol + carbon dioxide; phases: Gas, Liquid mixture 2, Liquid mixture 1
Property: Mole fraction of carbon dioxide (Gas); method: CO2 Expansion into Calibration Volume
Temperature, K	Mole fraction of carbon dioxide	uncertainty
293.15	0.9949	0.002
303.15	0.9907	0.002

System: hexan-1-ol + carbon dioxide; phases: Liquid mixture 1, Liquid mixture 2, Gas
Property: Mole fraction of carbon dioxide (Liquid mixture 1); method: CO2 Expansion into Calibration Volume
Pressure, kPa	Mole fraction of carbon dioxide	uncertainty
5030	0.7061	0.0021
5960	0.7422	0.0021
6450	0.7414	0.002
7170	0.7407	0.002
7640	0.7392	0.002
7900	0.7364	0.002
7980	0.7387	0.002
8140	0.7371	0.002
8300	0.7354	0.002
8380	0.7365	0.002

System: hexan-1-ol + carbon dioxide; phases: Liquid mixture 2, Liquid mixture 1, Gas
Property: Mole fraction of carbon dioxide (Liquid mixture 2); method: CO2 Expansion into Calibration Volume
Pressure, kPa	Mole fraction of carbon dioxide	uncertainty
5030	0.9277	0.002
5960	0.9312	0.002
6450	0.9356	0.002
7170	0.9493	0.002
7640	0.9601	0.002
7900	0.964	0.002
7980	0.9672	0.002
8140	0.969	0.002
8300	0.9726	0.0021
8380	0.9747	0.0021

System: hexan-1-ol + carbon dioxide; phases: Liquid, Gas
Property: Vapor or sublimation pressure, kPa (Liquid); method: Closed cell (Static) method
Mole fraction of carbon dioxide	Temperature, K	Vapor or sublimation pressure, kPa	uncertainty
0.0296	353.15	690	40
0.0404	333.15	600	40
0.0448	313.15	680	40
0.0636	303.15	720	30
0.0687	333.15	1210	40
0.0765	293.15	760	20
0.0845	353.15	1740	40
0.1014	303.15	1300	30
0.1017	313.15	1620	30
0.1308	293.15	1330	30
0.1402	333.15	2550	50
0.1492	313.15	2210	40
0.1609	353.15	3340	60
0.1735	303.15	2250	40
0.2235	353.15	4830	70
0.2293	333.15	4090	60
0.2371	313.15	3470	50
0.2545	293.15	2480	40
0.2829	353.15	6100	70
0.2854	303.15	3560	50
0.2974	293.15	3150	40
0.3048	313.15	4460	60
0.3157	333.15	5640	70
0.3629	353.15	7130	90
0.3657	313.15	5430	60
0.3847	353.15	8370	110
0.3898	333.15	6830	80
0.4034	303.15	4820	50
0.4269	303.15	4960	60
0.4474	353.15	9760	110
0.4549	333.15	8180	100
0.4655	293.15	4580	50
0.4662	313.15	6510	70
0.506	333.15	8930	100
0.5273	353.15	10930	120
0.5629	303.15	6010	70
0.5689	313.15	7550	90
0.577	313.15	7720	90
0.5924	333.15	9970	110
0.5974	353.15	12550	140
0.6024	313.15	8000	90
0.6418	313.15	8320	90
0.6576	313.15	8480	90
0.6601	303.15	6660	80
0.6638	313.15	8500	90
0.6699	353.15	13970	150
0.6703	293.15	5360	60
0.6792	313.15	8610	100
0.6869	333.15	11260	130
0.7084	313.15	9080	100
0.7227	333.15	12270	130
0.7399	303.15	6850	90
0.7537	353.15	14490	150
0.7729	313.15	9430	110
0.7753	333.15	12900	140
0.8023	333.15	13100	140
0.8856	313.15	9600	110
0.8998	333.15	13820	150
0.9192	353.15	15880	170

System: hexan-1-ol + carbon dioxide; phases: Liquid mixture 2, Liquid mixture 1
Property: Mole fraction of carbon dioxide (Liquid mixture 2); method: CO2 Expansion into Calibration Volume
Temperature, K	Pressure, kPa	Mole fraction of carbon dioxide	uncertainty
293.15	5840	0.9446	0.002
293.15	6110	0.9443	0.0021
293.15	6490	0.9369	0.0044
293.15	6680	0.9072	0.0147
293.15	6880	0.8529	0.0189
303.15	6880	0.9467	0.0027
303.15	7570	0.9466	0.0059
303.15	7870	0.8632	0.024

System: hexan-1-ol + carbon dioxide; phases: Gas, Liquid
Property: Mole fraction of carbon dioxide (Gas); method: CO2 Expansion into Calibration Volume
Mole fraction of carbon dioxide	Temperature, K	Mole fraction of carbon dioxide	uncertainty
0.0296	353.15	0.9824	0.0021
0.0404	333.15	0.9898	0.0021
0.0448	313.15	0.992	0.002
0.0636	303.15	0.9919	0.002
0.0687	333.15	0.9953	0.002
0.0765	293.15	0.9962	0.002
0.0845	353.15	0.9949	0.002
0.1014	303.15	0.9945	0.002
0.1017	313.15	0.9969	0.002
0.1308	293.15	0.9975	0.002
0.1402	333.15	0.9967	0.002
0.1492	313.15	0.9972	0.002
0.1609	353.15	0.9969	0.002
0.1735	303.15	0.9969	0.002
0.2235	353.15	0.9974	0.002
0.2293	333.15	0.9974	0.002
0.2371	313.15	0.9981	0.0019
0.2545	293.15	0.9992	0.0008
0.2829	353.15	0.9979	0.002
0.2854	303.15	0.9987	0.0013
0.2974	293.15	0.9995	0.0005
0.3048	313.15	0.9982	0.0018
0.3157	333.15	0.9968	0.002
0.3629	353.15	0.9977	0.002
0.3657	313.15	0.9961	0.002
0.3847	353.15	0.9965	0.002
0.3898	333.15	0.9959	0.002
0.4034	303.15	0.9987	0.0013
0.4269	303.15	0.9984	0.0016
0.4474	353.15	0.9956	0.002
0.4549	333.15	0.994	0.002
0.4655	293.15	0.9995	0.0005
0.4662	313.15	0.994	0.002
0.506	333.15	0.9926	0.002
0.5273	353.15	0.9934	0.002
0.5629	303.15	0.9925	0.002
0.5689	313.15	0.9928	0.002
0.577	313.15	0.9918	0.002
0.5924	333.15	0.9907	0.002
0.5974	353.15	0.9917	0.002
0.6024	313.15	0.9899	0.002
0.6418	313.15	0.9882	0.002
0.6576	313.15	0.9869	0.002
0.6601	303.15	0.9907	0.002
0.6638	313.15	0.9865	0.002
0.6699	353.15	0.9868	0.002
0.6703	293.15	0.9959	0.002
0.6792	313.15	0.9816	0.0021
0.6869	333.15	0.9892	0.002
0.7084	313.15	0.9775	0.002
0.7227	333.15	0.984	0.002
0.7399	303.15	0.9908	0.002
0.7537	353.15	0.9786	0.0021
0.7729	313.15	0.9593	0.0023
0.7753	333.15	0.9811	0.002
0.8023	333.15	0.9795	0.0023
0.8856	313.15	0.8856	0.0025
0.8998	333.15	0.8998	0.0026
0.9192	353.15	0.9192	0.0022

System: hexan-1-ol + carbon dioxide; phases: Liquid mixture 1, Liquid mixture 2
Property: Mole fraction of carbon dioxide (Liquid mixture 1); method: CO2 Expansion into Calibration Volume
Temperature, K	Pressure, kPa	Mole fraction of carbon dioxide	uncertainty
293.15	5840	0.7312	0.0043
293.15	6110	0.7488	0.0056
293.15	6490	0.7858	0.0069
293.15	6680	0.8057	0.0119
293.15	6880	0.8529	0.0165
303.15	6880	0.7457	0.0048
303.15	7570	0.7835	0.0086
303.15	7870	0.8632	0.0225
