Measured thermophysical data. Ternary (liquid + liquid) equilibria for mixtures of 1-hexyl-3-methylimidazolium (tetrafluoroborate or hexafluorophosphate) + benzene + an alkane at T = 298.2 K and p = 0.1 MPa
Source: J. Chem. Thermodyn., 2005, 10.1016/j.jct.2004.05.001
Compound 1: 1-hexyl-3-methylimidazolium tetrafluoroborate, C10H19BF4N2, InChI=1S/C10H19N2.BF4/c1-3-4-5-6-7-12-9-8-11(2)10-12;2-1(3,4)5/h8-10H,3-7H2,1-2H3;/q+1;-1, purity 97%
Compound 2: 1-hexyl-3-methylimidazolium hexafluorophosphate, C10H19F6N2P, InChI=1S/C10H19N2.F6P/c1-3-4-5-6-7-12-9-8-11(2)10-12;1-7(2,3,4,5)6/h8-10H,3-7H2,1-2H3;/q+1;-1, purity 97%
Compound 3: benzene, C6H6, InChI=1S/C6H6/c1-2-4-6-5-3-1/h1-6H
Compound 4: heptane, C7H16, InChI=1S/C7H16/c1-3-5-7-6-4-2/h3-7H2,1-2H3
Compound 5: dodecane, C12H26, InChI=1S/C12H26/c1-3-5-7-9-11-12-10-8-6-4-2/h3-12H2,1-2H3
Compound 6: hexadecane, C16H34, InChI=1S/C16H34/c1-3-5-7-9-11-13-15-16-14-12-10-8-6-4-2/h3-16H2,1-2H3

System: 1-hexyl-3-methylimidazolium tetrafluoroborate; phases: Liquid
Property: Mass density, kg/m3 (Liquid); method: VIBTUB:UFactor:16
Temperature, K	Pressure, kPa	Mass density, kg/m3	uncertainty
298.15	101.325	1148.1	5

System: 1-hexyl-3-methylimidazolium hexafluorophosphate; phases: Liquid
Property: Mass density, kg/m3 (Liquid); method: VIBTUB:UFactor:16
Temperature, K	Pressure, kPa	Mass density, kg/m3	uncertainty
298.15	101.325	1293.5	7

System: benzene; phases: Liquid
Property: Mass density, kg/m3 (Liquid); method: VIBTUB:UFactor:8
Temperature, K	Pressure, kPa	Mass density, kg/m3	uncertainty
298.15	101.325	873.2	0.9

System: heptane; phases: Liquid
Property: Mass density, kg/m3 (Liquid); method: VIBTUB:UFactor:8
Temperature, K	Pressure, kPa	Mass density, kg/m3	uncertainty
298.15	101.325	690.6	1.6

System: dodecane; phases: Liquid
Property: Mass density, kg/m3 (Liquid); method: VIBTUB:UFactor:16
Temperature, K	Pressure, kPa	Mass density, kg/m3	uncertainty
298.15	101.325	747	4

System: hexadecane; phases: Liquid
Property: Mass density, kg/m3 (Liquid); method: VIBTUB:UFactor:8
Temperature, K	Pressure, kPa	Mass density, kg/m3	uncertainty
298.15	101.325	771.5	1.4

System: benzene + heptane + 1-hexyl-3-methylimidazolium tetrafluoroborate; phases: Liquid mixture 1, Liquid mixture 2
Fixed: Pressure, kPa = 100
Fixed: Temperature, K = 298.2
Property: Mole fraction of benzene (Liquid mixture 1); method: TITR:UFactor:2
Mole fraction of 1-hexyl-3-methylimidazolium tetrafluoroborate	Mole fraction of benzene	uncertainty
0.001	0.622	0.0302
0.002	0.464	0.0371
0.002	0	
0.005	0.995	0.0004
0.006	0.753	0.0198
0.254	0.746	0.0203
0.533	0.421	0.0337
0.573	0.387	0.031
0.624	0.32	0.0256
0.73	0.2	0.016
0.82	0.103	0.0082
0.902	0	

System: benzene + heptane + 1-hexyl-3-methylimidazolium tetrafluoroborate; phases: Liquid mixture 1, Liquid mixture 2
Fixed: Pressure, kPa = 100
Fixed: Temperature, K = 298.2
Property: Mole fraction of benzene (Liquid mixture 1); method: RIXVDN
Property: Mole fraction of 1-hexyl-3-methylimidazolium tetrafluoroborate (Liquid mixture 2); method: RIXVDN
Property: Mole fraction of benzene (Liquid mixture 2); method: RIXVDN
Mole fraction of 1-hexyl-3-methylimidazolium tetrafluoroborate	Mole fraction of benzene	uncertainty	Mole fraction of 1-hexyl-3-methylimidazolium tetrafluoroborate	uncertainty	Mole fraction of benzene	uncertainty
0.2798	0.7179	0.0085	0.003	0.0001	0.9438	
0.2894	0.7044	0.0089	0.0032	0.0001	0.9333	
0.3155	0.6769	0.0097	0.0022	0.0001	0.8881	
0.3844	0.5961	0.0121	0.0016	0.0001	0.8067	
0.4562	0.514	0.0146	0.002	0.0001	0.7095	
0.4818	0.4852	0.0146	0.0022	0.0001	0.6495	
0.537	0.418	0.0125	0.0032	0.0001	0.46	
0.5738	0.38	0.0114	0.0022	0.0001	0.4799	
0.6	0.348	0.0104	0.0018	0.0001	0.4199	
0.6792	0.26	0.0078	0.0016	0.0001	0.3203	
0.7499	0.1783	0.0053	0.0011	0.0001	0.2286	
0.8108	0.1043	0.0031	0.0016	0.0001	0.128	

System: benzene + dodecane + 1-hexyl-3-methylimidazolium tetrafluoroborate; phases: Liquid mixture 1, Liquid mixture 2
Fixed: Pressure, kPa = 100
Fixed: Temperature, K = 298.2
Property: Mole fraction of benzene (Liquid mixture 1); method: TITR:UFactor:2
Mole fraction of 1-hexyl-3-methylimidazolium tetrafluoroborate	Mole fraction of benzene	uncertainty
0.0001	0	
0.0008	0.8748	0.01
0.0017	0.758	0.0194
0.005	0.995	0.0004
0.254	0.746	0.0203
0.3513	0.644	0.0285
0.4759	0.5013	0.0399
0.5946	0.3836	0.0307
0.6658	0.3051	0.0244
0.8366	0.1321	0.0106
0.8752	0.0919	0.0074
0.9638	0	

System: benzene + dodecane + 1-hexyl-3-methylimidazolium tetrafluoroborate; phases: Liquid mixture 1, Liquid mixture 2
Fixed: Pressure, kPa = 100
Fixed: Temperature, K = 298.2
Property: Mole fraction of benzene (Liquid mixture 1); method: RIXVDN
Property: Mole fraction of 1-hexyl-3-methylimidazolium tetrafluoroborate (Liquid mixture 2); method: RIXVDN
Property: Mole fraction of benzene (Liquid mixture 2); method: RIXVDN
Mole fraction of 1-hexyl-3-methylimidazolium tetrafluoroborate	Mole fraction of benzene	uncertainty	Mole fraction of 1-hexyl-3-methylimidazolium tetrafluoroborate	uncertainty	Mole fraction of benzene	uncertainty
0.3399	0.6507	0.0105	0.0074	0.0002	0.9413	
0.3775	0.6127	0.0116	0.006	0.0002	0.8554	
0.4799	0.5001	0.015	0.0052	0.0002	0.7121	
0.531	0.4476	0.0134	0.0048	0.0002	0.62	
0.6211	0.3517	0.0106	0.0042	0.0001	0.5157	
0.7395	0.2306	0.0069	0.0035	0.0001	0.3516	
0.868	0.1002	0.003	0.0021	0.0001	0.206	

System: benzene + hexadecane + 1-hexyl-3-methylimidazolium tetrafluoroborate; phases: Liquid mixture 1, Liquid mixture 2
Fixed: Pressure, kPa = 100
Fixed: Temperature, K = 298.2
Property: Mole fraction of benzene (Liquid mixture 1); method: TITR:UFactor:2
Mole fraction of 1-hexyl-3-methylimidazolium tetrafluoroborate	Mole fraction of benzene	uncertainty
0.0001	0	
0.0007	0.8603	0.0112
0.0016	0.5736	0.0341
0.0027	0.2988	0.0239
0.005	0.995	0.0004
0.254	0.746	0.0203
0.2989	0.7002	0.024
0.4332	0.5652	0.0348
0.5348	0.4535	0.0363
0.7334	0.2517	0.0201
0.909	0.0761	0.0061
0.9808	0	

System: benzene + hexadecane + 1-hexyl-3-methylimidazolium tetrafluoroborate; phases: Liquid mixture 1, Liquid mixture 2
Fixed: Pressure, kPa = 100
Fixed: Temperature, K = 298.2
Property: Mole fraction of benzene (Liquid mixture 1); method: RIXVDN
Property: Mole fraction of 1-hexyl-3-methylimidazolium tetrafluoroborate (Liquid mixture 2); method: RIXVDN
Property: Mole fraction of benzene (Liquid mixture 2); method: RIXVDN
Mole fraction of 1-hexyl-3-methylimidazolium tetrafluoroborate	Mole fraction of benzene	uncertainty	Mole fraction of 1-hexyl-3-methylimidazolium tetrafluoroborate	uncertainty	Mole fraction of benzene	uncertainty
0.3348	0.6616	0.0102	0.0007	0.0001	0.995	
0.3701	0.624	0.0113	0.0007	0.0001	0.9441	
0.4992	0.4917	0.0148	0.0006	0.0001	0.8103	
0.6145	0.3758	0.0113	0.0005	0.0001	0.6558	
0.6919	0.2957	0.0089	0.0003	0.0001	0.5201	
0.8142	0.1701	0.0051	0.0003	0.0001	0.4051	
0.8812	0.1001	0.003	0.0001	0.0001	0.335	
0.9162	0.0659	0.002	0.0001	0.0001	0.2485	
0.9542	0.0263	0.0008	0		0.0972	

System: benzene + heptane + 1-hexyl-3-methylimidazolium hexafluorophosphate; phases: Liquid mixture 1, Liquid mixture 2
Fixed: Pressure, kPa = 100
Fixed: Temperature, K = 298.2
Property: Mole fraction of benzene (Liquid mixture 1); method: TITR:UFactor:2
Mole fraction of 1-hexyl-3-methylimidazolium hexafluorophosphate	Mole fraction of benzene	uncertainty
0.0002	0.8962	0.0083
0.0004	0.8762	0.0099
0.0007	0.9993	0.0001
0.0015	0.6902	0.0248
0.0016	0	
0.004	0.9992	0.0001
0.2165	0.7835	0.0173
0.41	0.5688	0.0345
0.5288	0.4402	0.0352
0.6598	0.2965	0.0237
0.8034	0.1234	0.0099
0.8859	0.1141	0.0091
0.9161	0	

System: benzene + heptane + 1-hexyl-3-methylimidazolium hexafluorophosphate; phases: Liquid mixture 2, Liquid mixture 1
Fixed: Temperature, K = 298.2
Fixed: Pressure, kPa = 100
Property: Mole fraction of 1-hexyl-3-methylimidazolium hexafluorophosphate (Liquid mixture 2); method: RIXVDN
Property: Mole fraction of 1-hexyl-3-methylimidazolium hexafluorophosphate (Liquid mixture 1); method: RIXVDN
Property: Mole fraction of benzene (Liquid mixture 1); method: RIXVDN
Mole fraction of benzene	Mole fraction of 1-hexyl-3-methylimidazolium hexafluorophosphate	uncertainty	Mole fraction of 1-hexyl-3-methylimidazolium hexafluorophosphate	uncertainty	Mole fraction of benzene	uncertainty
0.9495	0.003	0.0001	0.2692	0.0081	0.7239	
0.8501	0.0022	0.0001	0.3055	0.0092	0.6857	
0.839	0.002	0.0001	0.327	0.0098	0.663	
0.7307	0.0014	0.0001	0.407	0.0122	0.5737	
0.6882	0.0012	0.0001	0.425	0.0128	0.5548	
0.6722	0.0012	0.0001	0.4308	0.0129	0.5461	
0.5689	0.0007	0.0001	0.4782	0.0143	0.4954	
0.5506	0.0006	0.0001	0.49	0.0147	0.4801	
0.4197	0.0008	0.0001	0.5872	0.0124	0.3755	
0.302	0.0007	0.0001	0.6756	0.0097	0.2783	
0.1512	0.0006	0.0001	0.7918	0.0062	0.1387	
0.0414	0.0005	0.0001	0.8904	0.0033	0.0288	

System: benzene + dodecane + 1-hexyl-3-methylimidazolium hexafluorophosphate; phases: Liquid mixture 1, Liquid mixture 2
Fixed: Pressure, kPa = 100
Fixed: Temperature, K = 298.2
Property: Mole fraction of benzene (Liquid mixture 1); method: TITR:UFactor:2
Mole fraction of 1-hexyl-3-methylimidazolium hexafluorophosphate	Mole fraction of benzene	uncertainty
0.0004	0	
0.0008	0.8854	0.0092
0.0013	0.7713	0.0183
0.0018	0.496	0.0397
0.0035	0.1503	0.012
0.004	0.996	0.0003
0.2165	0.7835	0.0173
0.3809	0.6108	0.0311
0.5343	0.4448	0.0356
0.5999	0.38	0.0304
0.7308	0.23	0.0184
0.8463	0.1061	0.0085
0.9471	0	

System: benzene + dodecane + 1-hexyl-3-methylimidazolium hexafluorophosphate; phases: Liquid mixture 1, Liquid mixture 2
Fixed: Pressure, kPa = 100
Fixed: Temperature, K = 298.2
Property: Mole fraction of benzene (Liquid mixture 1); method: RIXVDN
Property: Mole fraction of 1-hexyl-3-methylimidazolium hexafluorophosphate (Liquid mixture 2); method: RIXVDN
Property: Mole fraction of benzene (Liquid mixture 2); method: RIXVDN
Mole fraction of 1-hexyl-3-methylimidazolium hexafluorophosphate	Mole fraction of benzene	uncertainty	Mole fraction of 1-hexyl-3-methylimidazolium hexafluorophosphate	uncertainty	Mole fraction of benzene	uncertainty
0.3308	0.6603	0.0102	0.0038	0.0001	0.9428	
0.3597	0.6306	0.0111	0.0032	0.0001	0.8279	
0.4309	0.559	0.0132	0.0028	0.0001	0.7446	
0.492	0.4912	0.0147	0.0024	0.0001	0.6562	
0.6448	0.3274	0.0098	0.0021	0.0001	0.4602	
0.8299	0.1275	0.0038	0.0018	0.0001	0.2536	
0.8912	0.059	0.0018	0.001	0.001	0.1451	

System: benzene + hexadecane + 1-hexyl-3-methylimidazolium hexafluorophosphate; phases: Liquid mixture 1, Liquid mixture 2
Fixed: Pressure, kPa = 100
Fixed: Temperature, K = 298.2
Property: Mole fraction of benzene (Liquid mixture 1); method: TITR:UFactor:2
Mole fraction of 1-hexyl-3-methylimidazolium hexafluorophosphate	Mole fraction of benzene	uncertainty
0.0001	0	
0.0003	0.5452	0.0364
0.0004	0.8631	0.011
0.004	0.996	0.0003
0.2165	0.7835	0.0173
0.3724	0.6262	0.0299
0.4791	0.5181	0.0386
0.6166	0.3786	0.0303
0.7365	0.2489	0.0199
0.908	0.0715	0.0057
0.9783	0	

System: benzene + hexadecane + 1-hexyl-3-methylimidazolium hexafluorophosphate; phases: Liquid mixture 1, Liquid mixture 2
Fixed: Temperature, K = 298.2
Fixed: Pressure, kPa = 100
Property: Mole fraction of benzene (Liquid mixture 1); method: RIXVDN
Property: Mole fraction of 1-hexyl-3-methylimidazolium hexafluorophosphate (Liquid mixture 2); method: RIXVDN
Property: Mole fraction of benzene (Liquid mixture 2); method: RIXVDN
Mole fraction of 1-hexyl-3-methylimidazolium hexafluorophosphate	Mole fraction of benzene	uncertainty	Mole fraction of 1-hexyl-3-methylimidazolium hexafluorophosphate	uncertainty	Mole fraction of benzene	uncertainty
0.3132	0.684	0.0095	0.0004	0.0001	0.945	
0.3829	0.6136	0.0116	0.0004	0.0001	0.8509	
0.624	0.3683	0.011	0.0001	0.0001	0.5448	
0.7501	0.2348	0.007	0.0001	0.0001	0.395	
0.9062	0.0745	0.0022	0		0.1722	

System: heptane + 1-hexyl-3-methylimidazolium tetrafluoroborate; phases: Liquid mixture 1, Liquid mixture 2
Fixed: Pressure, kPa = 100
Fixed: Temperature, K = 298.2
Property: Mole fraction of 1-hexyl-3-methylimidazolium tetrafluoroborate (Liquid mixture 1); method: TITR:UFactor:2
Mole fraction of 1-hexyl-3-methylimidazolium tetrafluoroborate	uncertainty
0.002	0.0001
0.902	0.0039

System: benzene + 1-hexyl-3-methylimidazolium tetrafluoroborate; phases: Liquid mixture 1, Liquid mixture 2
Fixed: Pressure, kPa = 100
Fixed: Temperature, K = 298.2
Property: Mole fraction of benzene (Liquid mixture 1); method: TITR:UFactor:2
Mole fraction of benzene	uncertainty
0.995	0.0002
0.746	0.0102

System: dodecane + 1-hexyl-3-methylimidazolium tetrafluoroborate; phases: Liquid mixture 1, Liquid mixture 2
Fixed: Pressure, kPa = 100
Fixed: Temperature, K = 298.2
Property: Mole fraction of 1-hexyl-3-methylimidazolium tetrafluoroborate (Liquid mixture 1); method: TITR:UFactor:2
Mole fraction of 1-hexyl-3-methylimidazolium tetrafluoroborate	uncertainty
0.0001	0.0001
0.9638	0.0014

System: hexadecane + 1-hexyl-3-methylimidazolium tetrafluoroborate; phases: Liquid mixture 1, Liquid mixture 2
Fixed: Pressure, kPa = 100
Fixed: Temperature, K = 298.2
Property: Mole fraction of 1-hexyl-3-methylimidazolium tetrafluoroborate (Liquid mixture 1); method: TITR:UFactor:2
Mole fraction of 1-hexyl-3-methylimidazolium tetrafluoroborate	uncertainty
0.0001	0.0001
0.9808	0.0008

System: benzene + 1-hexyl-3-methylimidazolium hexafluorophosphate; phases: Liquid mixture 1, Liquid mixture 2
Fixed: Pressure, kPa = 100
Fixed: Temperature, K = 298.2
Property: Mole fraction of benzene (Liquid mixture 1); method: TITR:UFactor:2
Mole fraction of benzene	uncertainty
0.7835	0.0087
0.996	0.0002

System: heptane + 1-hexyl-3-methylimidazolium hexafluorophosphate; phases: Liquid mixture 1, Liquid mixture 2
Fixed: Pressure, kPa = 100
Fixed: Temperature, K = 298.2
Property: Mole fraction of 1-hexyl-3-methylimidazolium hexafluorophosphate (Liquid mixture 1); method: TITR:UFactor:2
Mole fraction of 1-hexyl-3-methylimidazolium hexafluorophosphate	uncertainty
0.0016	0.0001
0.9161	0.0034

System: dodecane + 1-hexyl-3-methylimidazolium hexafluorophosphate; phases: Liquid mixture 1, Liquid mixture 2
Fixed: Pressure, kPa = 100
Fixed: Temperature, K = 298.2
Property: Mole fraction of 1-hexyl-3-methylimidazolium hexafluorophosphate (Liquid mixture 1); method: TITR:UFactor:2
Mole fraction of 1-hexyl-3-methylimidazolium hexafluorophosphate	uncertainty
0.0004	0.0001
0.9471	0.0021

System: hexadecane + 1-hexyl-3-methylimidazolium hexafluorophosphate; phases: Liquid mixture 1, Liquid mixture 2
Fixed: Pressure, kPa = 100
Fixed: Temperature, K = 298.2
Property: Mole fraction of 1-hexyl-3-methylimidazolium hexafluorophosphate (Liquid mixture 1); method: TITR:UFactor:2
Mole fraction of 1-hexyl-3-methylimidazolium hexafluorophosphate	uncertainty
0.0001	0.0001
0.9783	0.0009
