Measured thermophysical data. The (p, p, T,x) properties for {x propane + (1 - x) isobutane} with x =(1.0000, 0.2765, 0.5052, and 0.7468) in the temperature range from (280 to 440) K at pressures from (1 to 200) MPa
Source: J. Chem. Thermodyn., 2007, 10.1016/j.jct.2007.03.012
Compound 1: propane, C3H8, InChI=1S/C3H8/c1-3-2/h3H2,1-2H3, purity 99.99%
Compound 2: 2-methylpropane, C4H10, InChI=1S/C4H10/c1-4(2)3/h4H,1-3H3, purity 99.99%

System: propane; phases: Liquid
Property: Mass density, kg/m3 (Liquid); method: Bellows volumetry
Temperature, K	Pressure, kPa	Mass density, kg/m3	uncertainty
280	1000	520.5	0.47
280	2000	522.64	0.47
280	3000	524.74	0.47
280	5000	528.56	0.48
280	10000	537.44	0.48
280	20000	551.94	0.5
280	30000	563.74	0.51
280	40000	573.78	0.52
280	50000	582.55	0.53
280	60000	590.49	0.53
280	70000	597.67	0.54
280	80000	604.54	0.55
280	90000	610.6	0.55
280	100000	616.37	0.56
280	120000	627.11	0.59
280	140000	636.51	0.59
280	160000	645.22	0.6
280	180000	653.38	0.61
280	200000	660.82	0.6
300	1000	489.81	0.44
300	2000	492.87	0.44
300	3000	495.95	0.45
300	5000	501.37	0.45
300	10000	512.99	0.46
300	20000	530.94	0.48
300	30000	544.91	0.49
300	40000	556.1	0.5
300	50000	566.32	0.51
300	60000	575.16	0.52
300	70000	583.22	0.53
300	80000	590.34	0.53
300	90000	597.08	0.54
300	100000	603.47	0.55
300	120000	614.69	0.56
300	140000	624.98	0.59
300	160000	634.04	0.6
300	180000	642.55	0.58
300	200000	650.24	0.59
320	2000	457.48	0.41
320	3000	462.23	0.42
320	5000	470.53	0.43
320	10000	486.59	0.44
320	20000	509.27	0.46
320	30000	525.89	0.47
320	40000	539.36	0.49
320	50000	550.64	0.5
320	60000	560.7	0.51
320	70000	569.45	0.52
320	80000	577.41	0.53
320	90000	584.63	0.53
320	100000	591.38	0.54
320	120000	603.54	0.57
320	140000	614.39	0.58
320	160000	624.07	0.59
320	180000	632.92	0.59
320	200000	641.18	0.58
340	3000	418.14	0.39
340	5000	433.26	0.4
340	10000	457.48	0.42
340	20000	486.91	0.44
340	30000	506.87	0.46
340	40000	522.28	0.47
340	50000	534.97	0.49
340	60000	545.94	0.5
340	70000	555.7	0.51
340	80000	564.27	0.51
340	90000	572.21	0.52
340	100000	579.45	0.53
340	120000	592.54	0.54
340	140000	603.89	0.58
340	160000	614.28	0.58
340	180000	623.6	0.57
340	200000	632.17	0.58
360	5000	380.9	0.36
360	10000	424.08	0.39
360	20000	463.3	0.42
360	30000	487.16	0.44
360	40000	505.03	0.46
360	50000	519.45	0.47
360	60000	531.56	0.48
360	70000	542.12	0.49
360	80000	551.67	0.5
360	90000	560.11	0.51
360	100000	568.02	0.52
360	120000	581.93	0.53
360	140000	593.99	0.57
360	160000	604.85	0.58
360	180000	614.61	0.56
360	200000	623.73	0.57
380	10000	384.1	0.36
380	20000	438.22	0.41
380	30000	466.67	0.43
380	40000	487.15	0.45
380	50000	503.08	0.46
380	60000	516.47	0.47
380	70000	527.94	0.48
380	80000	538.06	0.49
380	90000	547.06	0.5
380	100000	555.29	0.51
380	120000	570.05	0.56
380	140000	582.94	0.57
380	160000	594.15	0.58
380	180000	604.41	0.55
380	200000	613.68	0.56
400	10000	334.74	0.33
400	20000	411.69	0.39
400	30000	445.87	0.41
400	40000	469.1	0.44
400	50000	486.87	0.45
400	60000	501.44	0.46
400	70000	513.89	0.47
400	80000	524.67	0.48
400	90000	534.43	0.49
400	100000	543.41	0.5
400	120000	558.91	0.51
400	140000	572.19	0.55
400	160000	583.93	0.56
400	180000	594.64	0.57
400	200000	604.15	0.55
420	20000	384.77	0.36
420	30000	425.47	0.4
420	40000	451.66	0.43
420	50000	471.39	0.44
420	60000	487.29	0.45
420	70000	500.74	0.46
420	80000	512.43	0.47
420	90000	522.77	0.49
420	100000	532.04	0.49
420	120000	548.04	0.55
420	140000	562.28	0.55
420	160000	574.66	0.56
420	180000	585.51	0.54
420	200000	595.61	0.55
440	20000	357.43	0.34
440	30000	405.22	0.38
440	40000	434.68	0.42
440	50000	456.37	0.43
440	60000	473.51	0.44
440	70000	488.02	0.46
440	80000	500.46	0.47
440	90000	511.55	0.48
440	100000	521.4	0.49
440	120000	538.39	0.55
440	140000	553.07	0.56
440	160000	565.84	0.56
440	180000	577.32	0.56
440	200000	587.63	0.54

System: propane + 2-methylpropane; phases: Liquid
Property: Mass density, kg/m3 (Liquid); method: Bellows volumetry
Mole fraction of propane	Temperature, K	Pressure, kPa	Mass density, kg/m3	uncertainty
0.2765	280	1000	562.64	0.51
0.2765	280	2000	564.6	0.51
0.2765	280	3000	566.3	0.51
0.2765	280	5000	569.29	0.51
0.2765	280	10000	576.64	0.52
0.2765	280	20000	589.39	0.53
0.2765	280	30000	600.09	0.54
0.2765	280	40000	609.41	0.55
0.2765	280	50000	617.7	0.56
0.2765	280	60000	625.03	0.56
0.2765	280	70000	632.03	0.57
0.2765	280	80000	638.32	0.58
0.2765	280	90000	644.2	0.58
0.2765	280	100000	649.78	0.59
0.2765	280	120000	659.95	0.6
0.2765	280	140000	669.13	0.61
0.2765	280	160000	677.73	0.62
0.2765	280	180000	685.38	0.63
0.2765	280	200000	692.5	0.64
0.2765	320	1000	508.11	0.46
0.2765	320	2000	511.38	0.46
0.2765	320	3000	514.42	0.46
0.2765	320	5000	520.11	0.47
0.2765	320	10000	531.88	0.48
0.2765	320	20000	550.35	0.5
0.2765	320	30000	564.57	0.51
0.2765	320	40000	576.53	0.52
0.2765	320	50000	586.9	0.53
0.2765	320	60000	595.84	0.54
0.2765	320	70000	604.2	0.55
0.2765	320	80000	611.65	0.55
0.2765	320	90000	618.46	0.56
0.2765	320	100000	625.01	0.57
0.2765	320	120000	636.48	0.58
0.2765	320	140000	647	0.59
0.2765	320	160000	656.27	0.61
0.2765	320	180000	665.05	0.62
0.2765	320	200000	673	0.63
0.2765	360	3000	445.63	0.4
0.2765	360	5000	458.57	0.41
0.2765	360	10000	480.82	0.43
0.2765	360	20000	509.06	0.46
0.2765	360	30000	528.67	0.48
0.2765	360	40000	543.99	0.49
0.2765	360	50000	556.8	0.5
0.2765	360	60000	567.78	0.51
0.2765	360	70000	577.53	0.52
0.2765	360	80000	586.26	0.53
0.2765	360	90000	594.28	0.54
0.2765	360	100000	601.6	0.55
0.2765	360	120000	614.72	0.56
0.2765	360	140000	626.08	0.57
0.2765	360	160000	636.59	0.59
0.2765	360	180000	645.76	0.6
0.2765	360	200000	654.56	0.61
0.2765	400	5000	353.34	0.32
0.2765	400	10000	418.11	0.38
0.2765	400	20000	464.84	0.42
0.2765	400	30000	491.48	0.44
0.2765	400	40000	510.96	0.46
0.2765	400	50000	526.54	0.48
0.2765	400	60000	539.61	0.49
0.2765	400	70000	550.88	0.5
0.2765	400	80000	560.85	0.51
0.2765	400	90000	570.04	0.52
0.2765	400	100000	578.09	0.53
0.2765	400	120000	592.86	0.54
0.2765	400	140000	605.66	0.55
0.2765	400	160000	616.77	0.58
0.2765	400	180000	626.93	0.59
0.2765	400	200000	636.12	0.61
0.2765	440	20000	418.57	0.38
0.2765	440	30000	455.11	0.41
0.2765	440	40000	479.61	0.43
0.2765	440	50000	498.3	0.45
0.2765	440	60000	513.76	0.47
0.2765	440	70000	526.7	0.48
0.2765	440	80000	538.18	0.49
0.2765	440	90000	548.29	0.5
0.2765	440	100000	557.44	0.51
0.2765	440	120000	573.52	0.52
0.2765	440	140000	587.48	0.54
0.2765	440	160000	599.81	0.57
0.2765	440	180000	610.74	0.58
0.2765	440	200000	620.79	0.59
0.5052	280	1000	551.34	0.5
0.5052	280	2000	553.2	0.5
0.5052	280	3000	555.01	0.5
0.5052	280	5000	558.39	0.5
0.5052	280	10000	565.97	0.51
0.5052	280	20000	579.24	0.52
0.5052	280	30000	590.28	0.53
0.5052	280	40000	599.56	0.54
0.5052	280	50000	608.07	0.55
0.5052	280	60000	615.65	0.56
0.5052	280	70000	622.58	0.56
0.5052	280	80000	629.12	0.57
0.5052	280	90000	635.05	0.57
0.5052	280	100000	640.63	0.58
0.5052	280	120000	650.88	0.59
0.5052	280	140000	660.2	0.6
0.5052	280	160000	668.68	0.62
0.5052	280	180000	676.44	0.62
0.5052	280	200000	683.68	0.63
0.5052	300	1000	524.22	0.47
0.5052	300	2000	526.6	0.47
0.5052	300	3000	529.08	0.48
0.5052	300	5000	533.59	0.48
0.5052	300	10000	543.3	0.49
0.5052	300	20000	559.15	0.5
0.5052	300	30000	572.02	0.52
0.5052	300	40000	582.88	0.53
0.5052	300	50000	592.36	0.53
0.5052	300	60000	600.74	0.54
0.5052	300	70000	608.66	0.55
0.5052	300	80000	615.58	0.56
0.5052	300	90000	622.2	0.56
0.5052	300	100000	628.29	0.57
0.5052	300	120000	639.23	0.58
0.5052	300	140000	649.29	0.59
0.5052	300	160000	658.13	0.61
0.5052	300	180000	666.5	0.62
0.5052	300	200000	674.16	0.63
0.5052	320	2000	497.06	0.45
0.5052	320	3000	500.46	0.45
0.5052	320	5000	506.63	0.46
0.5052	320	10000	519.45	0.47
0.5052	320	20000	538.88	0.49
0.5052	320	30000	553.95	0.5
0.5052	320	40000	566.43	0.51
0.5052	320	50000	576.96	0.52
0.5052	320	60000	586.25	0.53
0.5052	320	70000	594.64	0.54
0.5052	320	80000	602.37	0.55
0.5052	320	90000	609.27	0.55
0.5052	320	100000	615.79	0.56
0.5052	320	120000	627.71	0.57
0.5052	320	140000	638.12	0.58
0.5052	320	160000	647.73	0.6
0.5052	320	180000	656.41	0.61
0.5052	320	200000	664.56	0.62
0.5052	340	2000	461.7	0.42
0.5052	340	3000	467.03	0.42
0.5052	340	5000	476.37	0.43
0.5052	340	10000	493.82	0.44
0.5052	340	20000	518.13	0.47
0.5052	340	30000	535.68	0.48
0.5052	340	40000	549.83	0.5
0.5052	340	50000	561.5	0.51
0.5052	340	60000	571.92	0.52
0.5052	340	70000	581.17	0.53
0.5052	340	80000	589.45	0.53
0.5052	340	90000	597.11	0.54
0.5052	340	100000	603.84	0.55
0.5052	340	120000	616.54	0.56
0.5052	340	140000	627.45	0.57
0.5052	340	160000	637.64	0.59
0.5052	340	180000	646.63	0.6
0.5052	340	200000	655.11	0.61
0.5052	360	3000	423.27	0.38
0.5052	360	5000	439.84	0.4
0.5052	360	10000	465.78	0.42
0.5052	360	20000	496.7	0.45
0.5052	360	30000	517.29	0.47
0.5052	360	40000	533.27	0.48
0.5052	360	50000	546.45	0.49
0.5052	360	60000	557.79	0.51
0.5052	360	70000	567.64	0.52
0.5052	360	80000	576.76	0.52
0.5052	360	90000	584.67	0.53
0.5052	360	100000	592.18	0.54
0.5052	360	120000	605.4	0.55
0.5052	360	140000	617.13	0.56
0.5052	360	160000	627.68	0.59
0.5052	360	180000	637.18	0.6
0.5052	360	200000	645.89	0.6
0.5052	380	5000	390.11	0.35
0.5052	380	10000	433.73	0.39
0.5052	380	20000	473.66	0.43
0.5052	380	30000	498.04	0.45
0.5052	380	40000	516.11	0.47
0.5052	380	50000	530.72	0.48
0.5052	380	60000	543.03	0.49
0.5052	380	70000	553.8	0.5
0.5052	380	80000	563.25	0.51
0.5052	380	90000	572.07	0.52
0.5052	380	100000	579.89	0.53
0.5052	380	120000	593.88	0.54
0.5052	380	140000	606.29	0.55
0.5052	380	160000	617.17	0.58
0.5052	380	180000	627.17	0.59
0.5052	380	200000	636.19	0.6
0.5052	400	10000	396.98	0.36
0.5052	400	20000	450.18	0.41
0.5052	400	30000	478.86	0.43
0.5052	400	40000	499.19	0.45
0.5052	400	50000	515.41	0.47
0.5052	400	60000	528.8	0.48
0.5052	400	70000	540.38	0.49
0.5052	400	80000	550.76	0.5
0.5052	400	90000	559.81	0.51
0.5052	400	100000	568.28	0.52
0.5052	400	120000	583.05	0.53
0.5052	400	140000	595.97	0.54
0.5052	400	160000	607.43	0.57
0.5052	400	180000	617.7	0.58
0.5052	400	200000	627.01	0.6
0.5052	420	10000	353.95	0.32
0.5052	420	20000	426.22	0.39
0.5052	420	30000	459.76	0.42
0.5052	420	40000	482.81	0.44
0.5052	420	50000	500.59	0.45
0.5052	420	60000	515.22	0.47
0.5052	420	70000	527.71	0.48
0.5052	420	80000	538.65	0.49
0.5052	420	90000	548.42	0.5
0.5052	420	100000	557.24	0.51
0.5052	420	120000	572.89	0.52
0.5052	420	140000	586.39	0.54
0.5052	420	160000	598.41	0.57
0.5052	420	180000	609.2	0.58
0.5052	420	200000	619.16	0.59
0.5052	440	20000	401.72	0.36
0.5052	440	30000	441.26	0.4
0.5052	440	40000	467.04	0.42
0.5052	440	50000	486.62	0.44
0.5052	440	60000	502.39	0.46
0.5052	440	70000	515.83	0.47
0.5052	440	80000	527.49	0.48
0.5052	440	90000	537.76	0.49
0.5052	440	100000	547.21	0.5
0.5052	440	120000	563.63	0.52
0.5052	440	140000	577.64	0.53
0.5052	440	160000	590.03	0.56
0.5052	440	180000	601.17	0.57
0.5052	440	200000	611.27	0.58
0.7468	280	1000	537.6	0.48
0.7468	280	2000	539.46	0.49
0.7468	280	3000	541.38	0.49
0.7468	280	5000	545.05	0.49
0.7468	280	10000	553.18	0.5
0.7468	280	20000	566.92	0.51
0.7468	280	30000	578.25	0.52
0.7468	280	40000	588.02	0.53
0.7468	280	50000	596.76	0.54
0.7468	280	60000	604.59	0.55
0.7468	280	70000	611.65	0.55
0.7468	280	80000	618.29	0.56
0.7468	280	90000	624.34	0.56
0.7468	280	100000	629.98	0.57
0.7468	280	120000	640.58	0.58
0.7468	280	140000	649.88	0.59
0.7468	280	160000	658.46	0.61
0.7468	280	180000	666.22	0.62
0.7468	280	200000	673.88	0.63
0.7468	320	2000	479.56	0.43
0.7468	320	3000	483.56	0.44
0.7468	320	5000	490.55	0.44
0.7468	320	10000	504.71	0.45
0.7468	320	20000	525.65	0.47
0.7468	320	30000	541.33	0.49
0.7468	320	40000	553.96	0.5
0.7468	320	50000	564.8	0.51
0.7468	320	60000	574.56	0.52
0.7468	320	70000	583.04	0.53
0.7468	320	80000	590.88	0.54
0.7468	320	90000	598.03	0.54
0.7468	320	100000	604.67	0.55
0.7468	320	120000	616.69	0.56
0.7468	320	140000	627.42	0.57
0.7468	320	160000	636.99	0.59
0.7468	320	180000	645.7	0.6
0.7468	320	200000	653.87	0.61
0.7468	360	5000	415.25	0.37
0.7468	360	10000	447.04	0.4
0.7468	360	20000	481.36	0.43
0.7468	360	30000	503.41	0.45
0.7468	360	40000	520.23	0.47
0.7468	360	50000	534.15	0.48
0.7468	360	60000	545.73	0.5
0.7468	360	70000	555.96	0.5
0.7468	360	80000	565.01	0.51
0.7468	360	90000	573.12	0.52
0.7468	360	100000	580.81	0.53
0.7468	360	120000	594.3	0.54
0.7468	360	140000	606.32	0.55
0.7468	360	160000	616.85	0.58
0.7468	360	180000	626.62	0.59
0.7468	360	200000	635.27	0.6
0.7468	400	10000	370.08	0.34
0.7468	400	20000	432.58	0.39
0.7468	400	30000	463.78	0.42
0.7468	400	40000	485.32	0.44
0.7468	400	50000	502.4	0.45
0.7468	400	60000	516.38	0.47
0.7468	400	70000	528.32	0.48
0.7468	400	80000	538.83	0.49
0.7468	400	90000	548.28	0.5
0.7468	400	100000	557.19	0.51
0.7468	400	120000	571.88	0.52
0.7468	400	140000	584.98	0.53
0.7468	400	160000	596.72	0.57
0.7468	400	180000	606.99	0.58
0.7468	400	200000	616.65	0.59
0.7468	440	20000	381.56	0.35
0.7468	440	30000	424.79	0.39
0.7468	440	40000	452.26	0.41
0.7468	440	50000	472.75	0.43
0.7468	440	60000	489.17	0.45
0.7468	440	70000	503.08	0.46
0.7468	440	80000	515.14	0.47
0.7468	440	90000	525.87	0.48
0.7468	440	100000	535.38	0.49
0.7468	440	120000	552.06	0.51
0.7468	440	140000	566.38	0.52
0.7468	440	160000	579.07	0.56
0.7468	440	180000	590.35	0.57
0.7468	440	200000	600.48	0.58
