Measured thermophysical data. Surface thermodynamics of binary mixtures of aliphatic alcohols in heavy water
Source: J. Chem. Thermodyn., 2012, 10.1016/j.jct.2012.02.017
Compound 1: methanol, CH4O, InChI=1S/CH4O/c1-2/h2H,1H3, purity 99.9%
Compound 2: ethanol, C2H6O, InChI=1S/C2H6O/c1-2-3/h3H,2H2,1H3, purity 99.8%
Compound 3: propan-1-ol, C3H8O, InChI=1S/C3H8O/c1-2-3-4/h4H,2-3H2,1H3, purity 99.5%
Compound 4: water-d2, D2O, InChI=1S/H2O/h1H2/i/hD2, purity 99.9%

System: methanol; phases: Liquid, Air at 1 atmosphere
Property: Surface tension liquid-gas, N/m (Liquid); method: Ring tensiometer
Temperature, K	Surface tension liquid-gas, N/m	uncertainty
288.15	0.022372	0.000505
298.15	0.021639	0.0005
308.15	0.020941	0.000496
318.15	0.019931	0.00049

System: ethanol; phases: Liquid, Air at 1 atmosphere
Property: Surface tension liquid-gas, N/m (Liquid); method: Ring tensiometer
Temperature, K	Surface tension liquid-gas, N/m	uncertainty
288.15	0.022079	0.000504
298.15	0.021187	0.000498
308.15	0.020346	0.000493
318.15	0.020183	0.000491

System: propan-1-ol; phases: Liquid, Air at 1 atmosphere
Property: Surface tension liquid-gas, N/m (Liquid); method: Ring tensiometer
Temperature, K	Surface tension liquid-gas, N/m	uncertainty
288.15	0.023341	0.000515
298.15	0.022538	0.000509
308.15	0.021619	0.000503
318.15	0.020988	0.000499

System: water-d2; phases: Liquid, Air at 1 atmosphere
Property: Surface tension liquid-gas, N/m (Liquid); method: Ring tensiometer
Temperature, K	Surface tension liquid-gas, N/m	uncertainty
288.15	0.073593	0.000942
298.15	0.071866	0.000925
308.15	0.070214	0.000909
318.15	0.068842	0.000896

System: methanol + water-d2; phases: Liquid, Air at 1 atmosphere
Property: Surface tension liquid-gas, N/m (Liquid); method: Ring tensiometer
Temperature, K	Mole fraction of methanol	Surface tension liquid-gas, N/m	uncertainty
288.15	0.0045	0.071031	0.000921
288.15	0.0154	0.066198	0.000875
288.15	0.0304	0.061238	0.000827
288.15	0.0509	0.056434	0.000782
288.15	0.0707	0.052827	0.000749
288.15	0.0896	0.050225	0.000725
288.15	0.1252	0.045791	0.000687
288.15	0.1737	0.042446	0.000657
288.15	0.2171	0.038508	0.000625
288.15	0.2684	0.036011	0.000605
288.15	0.3133	0.034678	0.000594
288.15	0.353	0.033404	0.000584
288.15	0.4271	0.03183	0.000572
288.15	0.5279	0.029141	0.000552
288.15	0.691	0.026146	0.00053
288.15	0.8173	0.023492	0.000512
298.15	0.0045	0.069552	0.000907
298.15	0.0154	0.065134	0.000864
298.15	0.0304	0.060455	0.000819
298.15	0.0509	0.055326	0.000772
298.15	0.0707	0.052044	0.000741
298.15	0.0896	0.049445	0.000718
298.15	0.1252	0.045012	0.000679
298.15	0.1737	0.041804	0.000652
298.15	0.2171	0.03807	0.000621
298.15	0.2684	0.035487	0.0006
298.15	0.3133	0.034048	0.000589
298.15	0.353	0.032786	0.000579
298.15	0.4271	0.030792	0.000564
298.15	0.5279	0.029009	0.000551
298.15	0.691	0.025654	0.000527
298.15	0.8173	0.022956	0.000509
308.15	0.0045	0.068101	0.000892
308.15	0.0154	0.064172	0.000855
308.15	0.0304	0.059671	0.000812
308.15	0.0509	0.054085	0.00076
308.15	0.0707	0.051254	0.000734
308.15	0.0896	0.048648	0.000711
308.15	0.1252	0.044565	0.000676
308.15	0.1737	0.040258	0.000639
308.15	0.2171	0.0377	0.000618
308.15	0.2684	0.035101	0.000597
308.15	0.3133	0.033488	0.000585
308.15	0.353	0.032054	0.000574
308.15	0.4271	0.030294	0.00056
308.15	0.5279	0.028676	0.000549
308.15	0.691	0.025056	0.000523
308.15	0.8173	0.022484	0.000506
318.15	0.0045	0.066543	0.000877
318.15	0.0154	0.062798	0.000841
318.15	0.0304	0.058881	0.000805
318.15	0.0509	0.05297	0.00075
318.15	0.0707	0.050478	0.000727
318.15	0.0896	0.047916	0.000705
318.15	0.1252	0.042795	0.00066
318.15	0.1737	0.039662	0.000634
318.15	0.2171	0.036609	0.000609
318.15	0.2684	0.034162	0.00059
318.15	0.3133	0.032647	0.000578
318.15	0.353	0.031786	0.000572
318.15	0.4271	0.029416	0.000554
318.15	0.5279	0.027748	0.000542
318.15	0.691	0.024382	0.000518
318.15	0.8173	0.021748	0.000501

System: ethanol + water-d2; phases: Liquid, Air at 1 atmosphere
Property: Surface tension liquid-gas, N/m (Liquid); method: Ring tensiometer
Temperature, K	Mole fraction of ethanol	Surface tension liquid-gas, N/m	uncertainty
288.15	0.0008	0.072505	0.000964
288.15	0.0016	0.071286	0.000947
288.15	0.0023	0.070283	0.000943
288.15	0.0039	0.06868	0.000925
288.15	0.007	0.065309	0.00088
288.15	0.0116	0.062128	0.000844
288.15	0.0191	0.057618	0.000803
288.15	0.0295	0.052544	0.00075
288.15	0.044	0.047973	0.000708
288.15	0.0716	0.041942	0.000659
288.15	0.1103	0.036216	0.000609
288.15	0.157	0.031997	0.000575
288.15	0.1991	0.030525	0.000563
288.15	0.2462	0.029148	0.000552
288.15	0.345	0.027294	0.000539
288.15	0.4209	0.026214	0.000531
288.15	0.4811	0.025295	0.000525
288.15	0.5703	0.024342	0.000519
288.15	0.6752	0.023355	0.000512
288.15	0.7572	0.022976	0.00051
288.15	0.8618	0.022366	0.000506
298.15	0.0008	0.070956	0.000954
298.15	0.0016	0.069785	0.00094
298.15	0.0023	0.068674	0.000933
298.15	0.0039	0.066879	0.000909
298.15	0.007	0.063612	0.000869
298.15	0.0116	0.059425	0.000825
298.15	0.0191	0.053652	0.000762
298.15	0.0295	0.050895	0.000734
298.15	0.044	0.046075	0.000692
298.15	0.0716	0.038622	0.000629
298.15	0.1103	0.034152	0.000591
298.15	0.157	0.03033	0.000561
298.15	0.1991	0.029159	0.000553
298.15	0.2462	0.02817	0.000545
298.15	0.345	0.025988	0.00053
298.15	0.4209	0.025229	0.000525
298.15	0.4811	0.02459	0.00052
298.15	0.5703	0.023437	0.000512
298.15	0.6752	0.022455	0.000506
298.15	0.7572	0.021594	0.000501
298.15	0.8618	0.02148	0.0005
308.15	0.0008	0.069428	0.000941
308.15	0.0016	0.068348	0.000929
308.15	0.0023	0.067121	0.000921
308.15	0.0039	0.065217	0.000896
308.15	0.007	0.06192	0.00085
308.15	0.0116	0.058097	0.00081
308.15	0.0191	0.052635	0.000754
308.15	0.0295	0.048048	0.000709
308.15	0.044	0.044175	0.000675
308.15	0.0716	0.036301	0.00061
308.15	0.1103	0.033098	0.000583
308.15	0.157	0.0291	0.000552
308.15	0.1991	0.028139	0.000545
308.15	0.2462	0.027388	0.000539
308.15	0.345	0.025031	0.000523
308.15	0.4209	0.02367	0.000514
308.15	0.4811	0.023559	0.000513
308.15	0.5703	0.023017	0.000509
308.15	0.6752	0.021972	0.000503
308.15	0.7572	0.020922	0.000496
308.15	0.8618	0.020407	0.000493
318.15	0.0008	0.067727	0.000927
318.15	0.0016	0.066432	0.00091
318.15	0.0023	0.065554	0.000907
318.15	0.0039	0.063521	0.00088
318.15	0.007	0.060226	0.000832
318.15	0.0116	0.056985	0.000798
318.15	0.0191	0.05186	0.000747
318.15	0.0295	0.0473	0.000703
318.15	0.044	0.042275	0.00066
318.15	0.0716	0.033316	0.000584
318.15	0.1103	0.031295	0.00057
318.15	0.157	0.027576	0.000541
318.15	0.1991	0.027031	0.000537
318.15	0.2462	0.026559	0.000534
318.15	0.345	0.024632	0.00052
318.15	0.4209	0.022849	0.000508
318.15	0.4811	0.022695	0.000508
318.15	0.5703	0.022303	0.000505
318.15	0.6752	0.021566	0.0005
318.15	0.7572	0.0209	0.000496
318.15	0.8618	0.020114	0.000491

System: propan-1-ol + water-d2; phases: Liquid, Air at 1 atmosphere
Property: Surface tension liquid-gas, N/m (Liquid); method: Ring tensiometer
Temperature, K	Mole fraction of propan-1-ol	Surface tension liquid-gas, N/m	uncertainty
288.15	0.0007	0.070609	0.001089
288.15	0.002	0.066372	0.001016
288.15	0.0033	0.062897	0.000978
288.15	0.0047	0.060073	0.000931
288.15	0.006	0.057589	0.000856
288.15	0.0099	0.052318	0.00078
288.15	0.0165	0.045843	0.000703
288.15	0.0255	0.041336	0.000655
288.15	0.038	0.036344	0.000612
288.15	0.0622	0.029001	0.000556
288.15	0.138	0.025812	0.000529
288.15	0.1851	0.025778	0.000528
288.15	0.2272	0.025166	0.000524
288.15	0.351	0.024569	0.000521
288.15	0.4933	0.024204	0.000518
288.15	0.6187	0.023837	0.000516
288.15	0.8296	0.023477	0.000515
298.15	0.0007	0.068812	0.001205
298.15	0.002	0.063938	0.001068
298.15	0.0033	0.058496	0.000973
298.15	0.0047	0.055756	0.000927
298.15	0.006	0.054161	0.00082
298.15	0.0099	0.048487	0.000737
298.15	0.0165	0.043667	0.000679
298.15	0.0255	0.039382	0.000638
298.15	0.038	0.034779	0.000598
298.15	0.0622	0.028093	0.000545
298.15	0.138	0.024901	0.000522
298.15	0.1851	0.025094	0.000524
298.15	0.2272	0.024989	0.000523
298.15	0.351	0.023792	0.000515
298.15	0.4933	0.023582	0.000514
298.15	0.6187	0.022937	0.00051
298.15	0.8296	0.022645	0.000509
308.15	0.0007	0.067496	0.001226
308.15	0.002	0.06232	0.001084
308.15	0.0033	0.056438	0.000957
308.15	0.0047	0.053566	0.000923
308.15	0.006	0.052754	0.000803
308.15	0.0099	0.046751	0.00073
308.15	0.0165	0.040516	0.00065
308.15	0.0255	0.038393	0.000628
308.15	0.038	0.033312	0.000587
308.15	0.0622	0.02745	0.00054
308.15	0.138	0.024755	0.000521
308.15	0.1851	0.024194	0.000517
308.15	0.2272	0.024379	0.000519
308.15	0.351	0.023499	0.000513
308.15	0.4933	0.022796	0.000509
308.15	0.6187	0.022536	0.000508
308.15	0.8296	0.022457	0.000508
318.15	0.0007	0.066161	0.001268
318.15	0.002	0.061896	0.001152
318.15	0.0033	0.054175	0.001016
318.15	0.0047	0.050402	0.001014
318.15	0.006	0.048263	0.000757
318.15	0.0099	0.045224	0.000702
318.15	0.0165	0.039538	0.000641
318.15	0.0255	0.037112	0.000618
318.15	0.038	0.032452	0.000579
318.15	0.0622	0.027034	0.000538
318.15	0.138	0.023579	0.000513
318.15	0.1851	0.023618	0.000514
318.15	0.2272	0.023374	0.000512
318.15	0.351	0.022884	0.000509
318.15	0.4933	0.022119	0.000504
318.15	0.6187	0.021805	0.000503
318.15	0.8296	0.02164	0.000503
