Measured thermophysical data. Volumetric behaviour of binary mixtures of (trichloromethane + amines) at temperatures between T = (288.15 and 303.15) K at p = 0.1 MPa
Source: J. Chem. Thermodyn., 2008, 10.1016/j.jct.2008.05.003
Compound 1: trichloromethane, CHCl3, InChI=1S/CHCl3/c2-1(3)4/h1H, purity 99%
Compound 2: 1-butanamine, C4H11N, InChI=1S/C4H11N/c1-2-3-4-5/h2-5H2,1H3, purity 99.5%
Compound 3: 2-butanamine, C4H11N, InChI=1S/C4H11N/c1-3-4(2)5/h4H,3,5H2,1-2H3, purity 99%
Compound 4: diethylamine, C4H11N, InChI=1S/C4H11N/c1-3-5-4-2/h5H,3-4H2,1-2H3, purity 99%
Compound 5: triethylamine, C6H15N, InChI=1S/C6H15N/c1-4-7(5-2)6-3/h4-6H2,1-3H3, purity 99%

System: trichloromethane; phases: Liquid
Fixed: Pressure, kPa = 101.325
Property: Mass density, kg/m3 (Liquid); method: VIBTUB:UFactor:4
Temperature, K	Mass density, kg/m3	uncertainty
288.15	1498.14	1.36
293.15	1488.7	1.34
298.15	1479.21	1.32
303.15	1469.63	1.3

System: 1-butanamine; phases: Liquid
Fixed: Pressure, kPa = 101.325
Property: Mass density, kg/m3 (Liquid); method: VIBTUB:UFactor:4
Temperature, K	Mass density, kg/m3	uncertainty
288.15	741.72	0.56
293.15	736.95	0.57
298.15	732.15	0.58
303.15	727.34	0.59

System: 2-butanamine; phases: Liquid
Fixed: Pressure, kPa = 101.325
Property: Mass density, kg/m3 (Liquid); method: VIBTUB:UFactor:4
Temperature, K	Mass density, kg/m3	uncertainty
288.15	727.87	0.66
293.15	722.86	0.67
298.15	717.81	0.68
303.15	712.73	0.68

System: diethylamine; phases: Liquid
Fixed: Pressure, kPa = 101.325
Property: Mass density, kg/m3 (Liquid); method: VIBTUB:UFactor:4
Temperature, K	Mass density, kg/m3	uncertainty
288.15	710.01	0.69
293.15	704.78	0.69
298.15	699.33	0.7
303.15	693.9	0.71

System: triethylamine; phases: Liquid
Fixed: Pressure, kPa = 101.325
Property: Mass density, kg/m3 (Liquid); method: VIBTUB:UFactor:4
Temperature, K	Mass density, kg/m3	uncertainty
288.15	732.03	0.66
293.15	727.4	0.66
298.15	722.77	0.67
303.15	718.12	0.68

System: trichloromethane + 1-butanamine; phases: Liquid
Fixed: Pressure, kPa = 100
Property: Mass density, kg/m3 (Liquid); method: VIBTUB:UFactor:4
Temperature, K	Mole fraction of trichloromethane	Mass density, kg/m3	uncertainty
288.15	0.0017	742.8	0.57
288.15	0.006	745.56	0.56
288.15	0.0101	748.14	0.56
288.15	0.0174	752.82	0.55
288.15	0.0235	756.68	0.55
288.15	0.0284	759.75	0.55
288.15	0.0353	764.16	0.54
288.15	0.0604	780.1	0.52
288.15	0.0662	783.75	0.51
288.15	0.1121	813.47	0.47
288.15	0.1524	839.95	0.44
288.15	0.1994	871.07	0.4
288.15	0.2493	904.85	0.36
288.15	0.3152	950.29	0.31
288.15	0.358	980.32	0.28
288.15	0.3796	995.66	0.27
288.15	0.4198	1024.52	0.3
288.15	0.4573	1051.73	0.35
288.15	0.4988	1082.38	0.41
288.15	0.532	1107.22	0.46
288.15	0.5553	1124.89	0.49
288.15	0.6066	1164.32	0.58
288.15	0.6524	1200.3	0.65
288.15	0.7011	1239.18	0.74
288.15	0.748	1277.58	0.82
288.15	0.8041	1324.38	0.93
288.15	0.8546	1367.67	1.03
288.15	0.9024	1409.59	1.13
288.15	0.9158	1421.5	1.16
288.15	0.93	1434.19	1.2
288.15	0.9457	1448.38	1.23
288.15	0.9574	1458.97	1.26
288.15	0.9689	1469.43	1.29
288.15	0.9828	1482.17	1.32
288.15	0.9899	1488.77	1.34
288.15	0.9913	1490.05	1.34
293.15	0.0017	738.02	0.58
293.15	0.006	740.77	0.57
293.15	0.0101	743.34	0.57
293.15	0.0174	747.99	0.56
293.15	0.0235	751.83	0.56
293.15	0.0284	754.9	0.55
293.15	0.0353	759.29	0.55
293.15	0.0604	775.15	0.52
293.15	0.0662	778.8	0.52
293.15	0.1121	808.38	0.48
293.15	0.1524	834.72	0.45
293.15	0.1994	865.71	0.41
293.15	0.2493	899.34	0.37
293.15	0.3152	944.56	0.32
293.15	0.358	974.45	0.29
293.15	0.3796	989.7	0.27
293.15	0.4198	1018.4	0.29
293.15	0.4573	1045.47	0.34
293.15	0.4988	1075.94	0.4
293.15	0.532	1100.63	0.45
293.15	0.5553	1118.21	0.48
293.15	0.6066	1157.39	0.56
293.15	0.6524	1193.15	0.64
293.15	0.7011	1231.74	0.72
293.15	0.748	1269.88	0.81
293.15	0.8041	1316.33	0.91
293.15	0.8546	1359.3	1.01
293.15	0.9024	1400.89	1.12
293.15	0.9158	1412.68	1.15
293.15	0.93	1425.26	1.18
293.15	0.9457	1439.34	1.21
293.15	0.9574	1449.85	1.24
293.15	0.9689	1460.22	1.27
293.15	0.9828	1472.85	1.3
293.15	0.9899	1479.41	1.32
293.15	0.9913	1480.66	1.32
298.15	0.0017	733.22	0.58
298.15	0.006	735.96	0.58
298.15	0.0101	738.52	0.57
298.15	0.0174	743.15	0.57
298.15	0.0235	746.96	0.56
298.15	0.0284	750.02	0.56
298.15	0.0353	754.39	0.55
298.15	0.0604	770.18	0.53
298.15	0.0662	773.81	0.53
298.15	0.1121	803.25	0.49
298.15	0.1524	829.48	0.46
298.15	0.1994	860.32	0.42
298.15	0.2493	893.8	0.38
298.15	0.3152	938.78	0.33
298.15	0.358	968.53	0.29
298.15	0.3796	983.69	0.28
298.15	0.4198	1012.24	0.28
298.15	0.4573	1039.15	0.33
298.15	0.4988	1069.46	0.39
298.15	0.532	1094.01	0.44
298.15	0.5553	1111.47	0.47
298.15	0.6066	1150.41	0.55
298.15	0.6524	1185.92	0.62
298.15	0.7011	1224.26	0.71
298.15	0.748	1262.12	0.79
298.15	0.8041	1308.24	0.9
298.15	0.8546	1350.86	1
298.15	0.9024	1392.13	1.1
298.15	0.9158	1403.83	1.13
298.15	0.93	1416.3	1.16
298.15	0.9457	1430.26	1.19
298.15	0.9574	1440.68	1.22
298.15	0.9689	1450.98	1.25
298.15	0.9828	1463.49	1.28
298.15	0.9899	1469.98	1.3
298.15	0.9913	1471.25	1.3
303.15	0.0017	728.41	0.59
303.15	0.006	731.14	0.59
303.15	0.0101	733.69	0.58
303.15	0.0174	738.29	0.58
303.15	0.0235	742.08	0.57
303.15	0.0284	745.12	0.57
303.15	0.0353	749.48	0.56
303.15	0.0604	765.19	0.54
303.15	0.0662	768.81	0.53
303.15	0.1121	798.1	0.5
303.15	0.1524	824.2	0.46
303.15	0.1994	854.92	0.42
303.15	0.2493	888.23	0.38
303.15	0.3152	933	0.33
303.15	0.358	962.58	0.3
303.15	0.3796	977.66	0.29
303.15	0.4198	1006.06	0.27
303.15	0.4573	1032.82	0.32
303.15	0.4988	1062.93	0.38
303.15	0.532	1087.36	0.42
303.15	0.5553	1104.7	0.46
303.15	0.6066	1143.39	0.54
303.15	0.6524	1178.68	0.61
303.15	0.7011	1216.75	0.69
303.15	0.748	1254.34	0.78
303.15	0.8041	1300.1	0.88
303.15	0.8546	1342.42	0.98
303.15	0.9024	1383.36	1.08
303.15	0.9158	1394.94	1.11
303.15	0.93	1407.31	1.14
303.15	0.9457	1421.15	1.17
303.15	0.9574	1431.48	1.2
303.15	0.9689	1441.69	1.23
303.15	0.9828	1454.11	1.26
303.15	0.9899	1460.54	1.27
303.15	0.9913	1461.78	1.28

System: trichloromethane + 2-butanamine; phases: Liquid
Fixed: Pressure, kPa = 100
Property: Mass density, kg/m3 (Liquid); method: VIBTUB:UFactor:4
Temperature, K	Mole fraction of trichloromethane	Mass density, kg/m3	uncertainty
288.15	0.0027	729.64	0.66
288.15	0.0066	732.12	0.66
288.15	0.0119	735.58	0.66
288.15	0.0149	737.51	0.66
288.15	0.0203	740.99	0.65
288.15	0.028	745.95	0.64
288.15	0.0317	748.29	0.64
288.15	0.0381	752.43	0.64
288.15	0.0709	773.71	0.61
288.15	0.0954	789.69	0.59
288.15	0.1047	795.77	0.58
288.15	0.1487	824.87	0.55
288.15	0.1782	844.73	0.53
288.15	0.1966	857.3	0.51
288.15	0.2244	876.28	0.49
288.15	0.2737	910.47	0.45
288.15	0.3057	932.93	0.43
288.15	0.3331	952.32	0.4
288.15	0.3759	983.02	0.37
288.15	0.4076	1005.95	0.36
288.15	0.4488	1036.29	0.42
288.15	0.4929	1069.2	0.48
288.15	0.5185	1088.6	0.52
288.15	0.5435	1107.75	0.56
288.15	0.5861	1140.84	0.62
288.15	0.6324	1177.52	0.7
288.15	0.6905	1224.53	0.79
288.15	0.7069	1238.1	0.82
288.15	0.7521	1275.81	0.89
288.15	0.8002	1316.88	0.98
288.15	0.8468	1357.56	1.06
288.15	0.9035	1408.26	1.17
288.15	0.9248	1427.69	1.21
288.15	0.9389	1440.66	1.24
288.15	0.9472	1448.32	1.25
288.15	0.9588	1459.13	1.28
288.15	0.9605	1460.73	1.28
288.15	0.9683	1468.01	1.3
288.15	0.9717	1471.24	1.3
288.15	0.9831	1481.93	1.33
293.15	0.0027	724.62	0.67
293.15	0.0066	727.09	0.67
293.15	0.0119	730.52	0.66
293.15	0.0149	732.44	0.66
293.15	0.0203	735.89	0.66
293.15	0.028	740.83	0.65
293.15	0.0317	743.17	0.65
293.15	0.0381	747.27	0.64
293.15	0.0709	768.48	0.62
293.15	0.0954	784.38	0.6
293.15	0.1047	790.46	0.59
293.15	0.1487	819.44	0.56
293.15	0.1782	839.19	0.53
293.15	0.1966	851.7	0.52
293.15	0.2244	870.61	0.5
293.15	0.2737	904.65	0.46
293.15	0.3057	927	0.43
293.15	0.3331	946.29	0.41
293.15	0.3759	976.85	0.38
293.15	0.4076	999.67	0.35
293.15	0.4488	1029.86	0.41
293.15	0.4929	1062.59	0.47
293.15	0.5185	1081.9	0.51
293.15	0.5435	1100.95	0.54
293.15	0.5861	1133.84	0.61
293.15	0.6324	1170.31	0.68
293.15	0.6905	1217.04	0.77
293.15	0.7069	1230.52	0.8
293.15	0.7521	1267.98	0.88
293.15	0.8002	1308.77	0.96
293.15	0.8468	1349.17	1.05
293.15	0.9035	1399.5	1.15
293.15	0.9248	1418.79	1.19
293.15	0.9389	1431.65	1.22
293.15	0.9472	1439.26	1.23
293.15	0.9588	1450.01	1.26
293.15	0.9605	1451.56	1.26
293.15	0.9683	1458.79	1.28
293.15	0.9717	1461.99	1.28
293.15	0.9831	1472.62	1.31
298.15	0.0027	719.56	0.68
298.15	0.0066	722.01	0.67
298.15	0.0119	725.43	0.67
298.15	0.0149	727.33	0.67
298.15	0.0203	730.79	0.66
298.15	0.028	735.69	0.66
298.15	0.0317	738.02	0.65
298.15	0.0381	742.1	0.65
298.15	0.0709	763.21	0.62
298.15	0.0954	779.05	0.6
298.15	0.1047	785.09	0.6
298.15	0.1487	813.94	0.56
298.15	0.1782	833.61	0.54
298.15	0.1966	846.08	0.52
298.15	0.2244	864.89	0.5
298.15	0.2737	898.77	0.46
298.15	0.3057	921.03	0.44
298.15	0.3331	940.23	0.42
298.15	0.3759	970.63	0.38
298.15	0.4076	993.36	0.36
298.15	0.4488	1023.38	0.4
298.15	0.4929	1055.95	0.46
298.15	0.5185	1075.14	0.49
298.15	0.5435	1094.1	0.53
298.15	0.5861	1126.81	0.59
298.15	0.6324	1163.06	0.67
298.15	0.6905	1209.49	0.76
298.15	0.7069	1222.89	0.79
298.15	0.7521	1260.11	0.86
298.15	0.8002	1300.62	0.94
298.15	0.8468	1340.73	1.03
298.15	0.9035	1390.71	1.13
298.15	0.9248	1409.83	1.17
298.15	0.9389	1422.6	1.2
298.15	0.9472	1430.16	1.22
298.15	0.9588	1440.82	1.24
298.15	0.9605	1442.37	1.24
298.15	0.9683	1449.52	1.26
298.15	0.9717	1452.69	1.26
298.15	0.9831	1463.25	1.29
303.15	0.0027	714.47	0.68
303.15	0.0066	716.91	0.68
303.15	0.0119	720.31	0.68
303.15	0.0149	722.21	0.67
303.15	0.0203	725.65	0.67
303.15	0.028	730.54	0.66
303.15	0.0317	732.85	0.66
303.15	0.0381	736.92	0.66
303.15	0.0709	757.93	0.63
303.15	0.0954	773.68	0.61
303.15	0.1047	779.7	0.6
303.15	0.1487	808.42	0.57
303.15	0.1782	828	0.55
303.15	0.1966	840.41	0.53
303.15	0.2244	859.15	0.51
303.15	0.2737	892.87	0.47
303.15	0.3057	915.02	0.45
303.15	0.3331	934.13	0.42
303.15	0.3759	964.38	0.39
303.15	0.4076	986.99	0.37
303.15	0.4488	1016.86	0.38
303.15	0.4929	1049.27	0.44
303.15	0.5185	1068.35	0.48
303.15	0.5435	1087.21	0.52
303.15	0.5861	1119.73	0.58
303.15	0.6324	1155.78	0.65
303.15	0.6905	1201.92	0.74
303.15	0.7069	1215.21	0.77
303.15	0.7521	1252.21	0.85
303.15	0.8002	1292.44	0.93
303.15	0.8468	1332.25	1.01
303.15	0.9035	1381.85	1.11
303.15	0.9248	1400.85	1.15
303.15	0.9389	1413.51	1.18
303.15	0.9472	1421.04	1.2
303.15	0.9588	1431.61	1.22
303.15	0.9605	1433.12	1.22
303.15	0.9683	1440.23	1.24
303.15	0.9717	1443.33	1.24
303.15	0.9831	1453.84	1.27

System: trichloromethane + diethylamine; phases: Liquid
Fixed: Pressure, kPa = 100
Property: Mass density, kg/m3 (Liquid); method: VIBTUB:UFactor:4
Temperature, K	Mole fraction of trichloromethane	Mass density, kg/m3	uncertainty
288.15	0.0028	711.87	0.69
288.15	0.0052	713.44	0.69
288.15	0.0198	723.09	0.67
288.15	0.026	727.23	0.67
288.15	0.0586	748.75	0.64
288.15	0.0594	749.3	0.64
288.15	0.0685	755.32	0.63
288.15	0.0728	758.18	0.63
288.15	0.0952	773.14	0.61
288.15	0.1102	783.31	0.6
288.15	0.14	803.48	0.58
288.15	0.1664	821.53	0.55
288.15	0.2133	853.9	0.52
288.15	0.265	890.66	0.47
288.15	0.3047	919.28	0.44
288.15	0.3418	946.27	0.41
288.15	0.354	955.2	0.4
288.15	0.3878	980.33	0.38
288.15	0.4046	992.93	0.36
288.15	0.4248	1008.09	0.37
288.15	0.4477	1025.43	0.4
288.15	0.4524	1028.91	0.41
288.15	0.5115	1074.22	0.49
288.15	0.5554	1108.16	0.56
288.15	0.5982	1142.34	0.63
288.15	0.6547	1187.98	0.72
288.15	0.6956	1221.83	0.78
288.15	0.7477	1266.04	0.87
288.15	0.7994	1311.05	0.97
288.15	0.8507	1356.97	1.06
288.15	0.8964	1398.78	1.15
288.15	0.9221	1422.5	1.2
288.15	0.9508	1449.85	1.26
288.15	0.9612	1459.89	1.28
288.15	0.9636	1462.16	1.29
288.15	0.9728	1471.21	1.3
288.15	0.9836	1481.76	1.33
288.15	0.9885	1486.65	1.34
288.15	0.9944	1492.51	1.35
288.15	0.9976	1495.74	1.36
293.15	0.0028	706.63	0.7
293.15	0.0052	708.19	0.69
293.15	0.0198	717.77	0.68
293.15	0.026	721.85	0.68
293.15	0.0586	743.38	0.65
293.15	0.0594	743.92	0.65
293.15	0.0685	749.91	0.64
293.15	0.0728	752.75	0.64
293.15	0.0952	767.6	0.62
293.15	0.1102	777.69	0.61
293.15	0.14	797.78	0.58
293.15	0.1664	815.78	0.56
293.15	0.2133	848.09	0.52
293.15	0.265	884.65	0.48
293.15	0.3047	913.12	0.45
293.15	0.3418	940.03	0.42
293.15	0.354	948.91	0.41
293.15	0.3878	973.94	0.38
293.15	0.4046	986.5	0.37
293.15	0.4248	1001.61	0.36
293.15	0.4477	1018.86	0.39
293.15	0.4524	1022.33	0.39
293.15	0.5115	1067.46	0.48
293.15	0.5554	1101.24	0.55
293.15	0.5982	1135.25	0.61
293.15	0.6547	1180.62	0.7
293.15	0.6956	1214.29	0.77
293.15	0.7477	1258.23	0.86
293.15	0.7994	1302.98	0.95
293.15	0.8507	1348.55	1.04
293.15	0.8964	1390.08	1.13
293.15	0.9221	1413.61	1.18
293.15	0.9508	1440.77	1.24
293.15	0.9612	1450.73	1.26
293.15	0.9636	1453	1.27
293.15	0.9728	1461.95	1.28
293.15	0.9836	1472.43	1.31
293.15	0.9885	1477.28	1.32
293.15	0.9944	1483.1	1.33
293.15	0.9976	1486.31	1.34
298.15	0.0028	701.17	0.7
298.15	0.0052	702.73	0.7
298.15	0.0198	712.28	0.69
298.15	0.026	716.35	0.68
298.15	0.0586	737.85	0.66
298.15	0.0594	738.39	0.65
298.15	0.0685	744.37	0.65
298.15	0.0728	747.18	0.64
298.15	0.0952	762	0.63
298.15	0.1102	771.88	0.61
298.15	0.14	792.06	0.59
298.15	0.1664	810.02	0.57
298.15	0.2133	842.16	0.53
298.15	0.265	878.57	0.49
298.15	0.3047	906.91	0.46
298.15	0.3418	933.73	0.43
298.15	0.354	942.58	0.42
298.15	0.3878	967.51	0.39
298.15	0.4046	980.01	0.38
298.15	0.4248	995.07	0.36
298.15	0.4477	1012.24	0.38
298.15	0.4524	1015.69	0.38
298.15	0.5115	1060.62	0.47
298.15	0.5554	1094.23	0.53
298.15	0.5982	1128.09	0.6
298.15	0.6547	1173.23	0.69
298.15	0.6956	1206.69	0.75
298.15	0.7477	1250.37	0.84
298.15	0.7994	1294.84	0.93
298.15	0.8507	1340.09	1.03
298.15	0.8964	1381.32	1.11
298.15	0.9221	1404.67	1.16
298.15	0.9508	1431.62	1.22
298.15	0.9612	1441.52	1.24
298.15	0.9636	1443.75	1.25
298.15	0.9728	1452.65	1.26
298.15	0.9836	1463.04	1.29
298.15	0.9885	1467.85	1.3
298.15	0.9944	1473.65	1.31
298.15	0.9976	1476.84	1.32
303.15	0.0028	695.73	0.71
303.15	0.0052	697.28	0.71
303.15	0.0198	706.81	0.69
303.15	0.026	710.86	0.69
303.15	0.0586	732.26	0.66
303.15	0.0594	732.79	0.66
303.15	0.0685	738.74	0.65
303.15	0.0728	741.53	0.65
303.15	0.0952	756.26	0.63
303.15	0.1102	766.2	0.62
303.15	0.14	786.32	0.6
303.15	0.1664	804.11	0.58
303.15	0.2133	836.22	0.54
303.15	0.265	872.47	0.5
303.15	0.3047	900.67	0.46
303.15	0.3418	927.4	0.43
303.15	0.354	936.21	0.42
303.15	0.3878	961.03	0.4
303.15	0.4046	973.49	0.38
303.15	0.4248	988.47	0.37
303.15	0.4477	1005.56	0.36
303.15	0.4524	1009.01	0.37
303.15	0.5115	1053.71	0.45
303.15	0.5554	1087.18	0.52
303.15	0.5982	1120.87	0.58
303.15	0.6547	1165.78	0.67
303.15	0.6956	1199.05	0.74
303.15	0.7477	1242.47	0.83
303.15	0.7994	1286.65	0.92
303.15	0.8507	1331.57	1.01
303.15	0.8964	1372.54	1.09
303.15	0.9221	1395.72	1.14
303.15	0.9508	1422.47	1.2
303.15	0.9612	1432.28	1.22
303.15	0.9636	1434.48	1.23
303.15	0.9728	1443.31	1.24
303.15	0.9836	1453.64	1.27
303.15	0.9885	1458.41	1.28
303.15	0.9944	1464.14	1.29
303.15	0.9976	1467.32	1.3

System: trichloromethane + triethylamine; phases: Liquid
Fixed: Pressure, kPa = 100
Property: Mass density, kg/m3 (Liquid); method: VIBTUB:UFactor:4
Temperature, K	Mole fraction of trichloromethane	Mass density, kg/m3	uncertainty
288.15	0.0095	736.67	0.65
288.15	0.0109	737.33	0.65
288.15	0.0179	740.77	0.65
288.15	0.0201	741.86	0.64
288.15	0.0282	745.82	0.64
288.15	0.05	756.68	0.63
288.15	0.0529	758.15	0.62
288.15	0.0653	764.44	0.62
288.15	0.0729	768.3	0.61
288.15	0.0995	781.93	0.6
288.15	0.1412	804.12	0.57
288.15	0.1705	820.1	0.55
288.15	0.2011	837.03	0.53
288.15	0.2559	869.14	0.49
288.15	0.2973	894.14	0.47
288.15	0.3683	939.54	0.41
288.15	0.3912	954.66	0.4
288.15	0.4403	988.5	0.36
288.15	0.467	1007.28	0.36
288.15	0.4825	1018.08	0.39
288.15	0.5172	1043.26	0.43
288.15	0.5348	1055.96	0.46
288.15	0.5774	1088.02	0.52
288.15	0.6266	1126.81	0.6
288.15	0.6357	1134.22	0.61
288.15	0.6858	1175.96	0.69
288.15	0.7489	1231.15	0.81
288.15	0.8006	1280.08	0.91
288.15	0.8711	1350.9	1.05
288.15	0.9035	1385.83	1.13
288.15	0.9353	1421.06	1.2
288.15	0.9495	1437.36	1.24
288.15	0.9617	1451.54	1.27
288.15	0.97	1461.47	1.29
288.15	0.9763	1468.92	1.31
288.15	0.984	1478.29	1.33
288.15	0.988	1483.25	1.34
288.15	0.9951	1492.02	1.36
288.15	0.996	1493.11	1.36
293.15	0.0095	732.03	0.66
293.15	0.0109	732.69	0.66
293.15	0.0179	736.11	0.65
293.15	0.0201	737.18	0.65
293.15	0.0282	741.13	0.65
293.15	0.05	751.92	0.63
293.15	0.0529	753.39	0.63
293.15	0.0653	759.65	0.62
293.15	0.0729	763.48	0.62
293.15	0.0995	777.06	0.6
293.15	0.1412	799.1	0.57
293.15	0.1705	814.99	0.56
293.15	0.2011	831.82	0.54
293.15	0.2559	863.73	0.5
293.15	0.2973	888.57	0.47
293.15	0.3683	933.65	0.42
293.15	0.3912	948.67	0.41
293.15	0.4403	982.29	0.37
293.15	0.467	1000.95	0.35
293.15	0.4825	1011.74	0.37
293.15	0.5172	1036.71	0.42
293.15	0.5348	1049.35	0.45
293.15	0.5774	1081.23	0.51
293.15	0.6266	1119.82	0.58
293.15	0.6357	1127.17	0.6
293.15	0.6858	1168.76	0.68
293.15	0.7489	1223.57	0.79
293.15	0.8006	1272.19	0.89
293.15	0.8711	1342.54	1.04
293.15	0.9035	1377.25	1.11
293.15	0.9353	1412.2	1.18
293.15	0.9495	1428.39	1.22
293.15	0.9617	1442.45	1.25
293.15	0.97	1452.29	1.27
293.15	0.9763	1459.71	1.29
293.15	0.984	1468.99	1.31
293.15	0.988	1473.92	1.32
293.15	0.9951	1482.62	1.34
293.15	0.996	1483.7	1.34
298.15	0.0095	727.37	0.66
298.15	0.0109	728.02	0.66
298.15	0.0179	731.42	0.66
298.15	0.0201	732.49	0.66
298.15	0.0282	736.42	0.65
298.15	0.05	747.15	0.64
298.15	0.0529	748.6	0.64
298.15	0.0653	754.83	0.63
298.15	0.0729	758.64	0.62
298.15	0.0995	772.15	0.61
298.15	0.1412	794.04	0.58
298.15	0.1705	809.84	0.56
298.15	0.2011	826.56	0.54
298.15	0.2559	858.26	0.51
298.15	0.2973	882.96	0.48
298.15	0.3683	927.72	0.43
298.15	0.3912	942.62	0.41
298.15	0.4403	976.03	0.38
298.15	0.467	994.57	0.36
298.15	0.4825	1005.29	0.36
298.15	0.5172	1030.08	0.41
298.15	0.5348	1042.67	0.43
298.15	0.5774	1074.38	0.49
298.15	0.6266	1112.75	0.57
298.15	0.6357	1120.07	0.58
298.15	0.6858	1161.43	0.67
298.15	0.7489	1215.93	0.78
298.15	0.8006	1264.25	0.88
298.15	0.8711	1334.14	1.02
298.15	0.9035	1368.57	1.09
298.15	0.9353	1403.28	1.17
298.15	0.9495	1419.34	1.2
298.15	0.9617	1433.3	1.23
298.15	0.97	1443.08	1.25
298.15	0.9763	1450.42	1.27
298.15	0.984	1459.64	1.29
298.15	0.988	1464.54	1.3
298.15	0.9951	1473.18	1.32
298.15	0.996	1474.25	1.32
303.15	0.0095	722.69	0.67
303.15	0.0109	723.34	0.67
303.15	0.0179	726.72	0.66
303.15	0.0201	727.78	0.66
303.15	0.0282	731.69	0.66
303.15	0.05	742.36	0.64
303.15	0.0529	743.79	0.64
303.15	0.0653	749.99	0.63
303.15	0.0729	753.77	0.63
303.15	0.0995	767.19	0.61
303.15	0.1412	788.96	0.59
303.15	0.1705	804.67	0.57
303.15	0.2011	821.26	0.55
303.15	0.2559	852.76	0.51
303.15	0.2973	877.29	0.48
303.15	0.3683	921.74	0.43
303.15	0.3912	936.54	0.42
303.15	0.4403	969.7	0.38
303.15	0.467	988.14	0.36
303.15	0.4825	998.78	0.35
303.15	0.5172	1023.39	0.39
303.15	0.5348	1035.96	0.42
303.15	0.5774	1067.46	0.48
303.15	0.6266	1105.61	0.56
303.15	0.6357	1112.91	0.57
303.15	0.6858	1154.03	0.65
303.15	0.7489	1208.22	0.76
303.15	0.8006	1256.25	0.86
303.15	0.8711	1325.68	1
303.15	0.9035	1359.87	1.07
303.15	0.9353	1394.34	1.15
303.15	0.9495	1410.27	1.18
303.15	0.9617	1424.12	1.21
303.15	0.97	1433.83	1.23
303.15	0.9763	1441.14	1.25
303.15	0.984	1450.26	1.27
303.15	0.988	1455.12	1.28
303.15	0.9951	1463.69	1.3
303.15	0.996	1464.76	1.3
