Measured thermophysical data. Measurements and correlations of solubility of N2O in and density, viscosity of partially CO2 loaded water-lean amino acid salts
Source: J. Chem. Thermodyn., 2018, 10.1016/j.jct.2018.06.021
Compound 1: potassium L-lysinate, C6H13KN2O2, InChI=1S/C6H14N2O2.K/c7-4-2-1-3-5(8)6(9)10;/h5H,1-4,7-8H2,(H,9,10);/q;+1/p-1/t5-;/m0./s1, purity 97%
Compound 2: potassium L-prolinate, C5H8KNO2, InChI=1S/C5H9NO2.K/c7-5(8)4-2-1-3-6-4;/h4,6H,1-3H2,(H,7,8);/q;+1/p-1/t4-;/m0./s1, purity 97%
Compound 3: 1,2-ethanediol, C2H6O2, InChI=1S/C2H6O2/c3-1-2-4/h3-4H,1-2H2, purity 99.24%
Compound 4: nitrous oxide, N2O, InChI=1S/N2O/c1-2-3, purity 99.9%
Compound 5: water, H2O, InChI=1S/H2O/h1H2, purity 99.8%

System: 1,2-ethanediol; phases: Liquid
Fixed: Pressure, kPa = 101.325
Property: Mass density, kg/m3 (Liquid); method: Vibrating tube method
Temperature, K	Mass density, kg/m3	uncertainty
303.15	1106.3	2
308.15	1102.7	2
313.15	1099.2	2
318.15	1095.6	2
323.15	1092.1	2
328.15	1088.4	2
333.15	1084.8	2
338.15	1081.2	2
343.15	1077.5	2
348.15	1073.7	2
353.15	1070	2

System: 1,2-ethanediol; phases: Liquid
Fixed: Pressure, kPa = 101.325
Property: Viscosity, Pa*s (Liquid); method: Falling or rolling sphere viscometry
Temperature, K	Viscosity, Pa*s	uncertainty
303.15	0.013659	0.000558
308.15	0.011315	0.000462
313.15	0.0094743	0.0003868
318.15	0.0080163	0.0003272
323.15	0.0068489	0.0002796
328.15	0.0059027	0.0002409
333.15	0.005124	0.0002091
338.15	0.0044819	0.0001829
343.15	0.0039455	0.000161
348.15	0.0034959	0.0001427
353.15	0.0031124	0.000127

System: water + 1,2-ethanediol + potassium L-prolinate; phases: Liquid
Fixed: Pressure, kPa = 101.3
Property: Mass density, kg/m3 (Liquid); method: Vibrating tube method
Temperature, K	Molality, mol/kg of potassium L-prolinate	Molality, mol/kg of water	Mass density, kg/m3	uncertainty
303.15	0.481	0.481	1126.3	2.1
303.15	1.036	1.036	1145.8	2
303.15	1.688	1.688	1165	2.1
303.15	2.337	2.337	1183.2	2.2
303.15	3.309	3.309	1201.8	2.1
303.15	4.331	4.331	1218.8	2.2
308.15	0.481	0.481	1122.8	2.1
308.15	1.036	1.036	1142.4	2.1
308.15	1.688	1.688	1161.6	2.1
308.15	2.337	2.337	1179.8	2.1
308.15	3.309	3.309	1198.4	2.1
308.15	4.331	4.331	1215.4	2.2
313.15	0.481	0.481	1119.4	2.1
313.15	1.036	1.036	1138.9	2
313.15	1.688	1.688	1158.2	2.1
313.15	2.337	2.337	1176.4	2.1
313.15	3.309	3.309	1195	2.1
313.15	4.331	4.331	1212	2.2
318.15	0.481	0.481	1115.9	2.1
318.15	1.036	1.036	1135.5	2.1
318.15	1.688	1.688	1154.7	2.1
318.15	2.337	2.337	1173	2.1
318.15	3.309	3.309	1191.6	2.1
318.15	4.331	4.331	1208.6	2.2
323.15	0.481	0.481	1112.4	2.1
323.15	1.036	1.036	1132	2.1
323.15	1.688	1.688	1151.2	2.1
323.15	2.337	2.337	1169.6	2.1
323.15	3.309	3.309	1188.2	2.1
323.15	4.331	4.331	1205.2	2.2
328.15	0.481	0.481	1108.8	2.1
328.15	1.036	1.036	1128.6	2.1
328.15	1.688	1.688	1147.8	2.1
328.15	2.337	2.337	1166.2	2.1
328.15	3.309	3.309	1184.8	2.1
328.15	4.331	4.331	1201.8	2.2
333.15	0.481	0.481	1105.3	2.1
333.15	1.036	1.036	1125.1	2.2
333.15	1.688	1.688	1144.4	2.1
333.15	2.337	2.337	1162.8	2.2
333.15	3.309	3.309	1181.4	2.1
333.15	4.331	4.331	1198.3	2.2
338.15	0.481	0.481	1101.7	2.1
338.15	1.036	1.036	1121.6	2.1
338.15	1.688	1.688	1140.9	2.1
338.15	2.337	2.337	1159.3	2.1
338.15	3.309	3.309	1177.9	2.1
338.15	4.331	4.331	1194.9	2.1
343.15	0.481	0.481	1098.1	2.1
343.15	1.036	1.036	1118	2.1
343.15	1.688	1.688	1137.4	2.1
343.15	2.337	2.337	1155.9	2.1
343.15	3.309	3.309	1174.5	2.1
343.15	4.331	4.331	1191.5	2.1
348.15	0.481	0.481	1094.5	2.1
348.15	1.036	1.036	1114.5	2.1
348.15	1.688	1.688	1133.9	2.1
348.15	2.337	2.337	1152.4	2.1
348.15	3.309	3.309	1171	2.1
348.15	4.331	4.331	1188	2.1
353.15	0.481	0.481	1090.9	2.1
353.15	1.036	1.036	1110.9	2.1
353.15	1.688	1.688	1130.4	2.1
353.15	2.337	2.337	1148.9	2.1
353.15	3.309	3.309	1167.6	2.1
353.15	4.331	4.331	1184.6	2.1
303.15	0	0	1106.3	2.1
308.15	0	0	1102.7	2.1
313.15	0	0	1099.2	2.1
318.15	0	0	1095.6	2.1
323.15	0	0	1092.1	2.1
328.15	0	0	1088.4	2.1
333.15	0	0	1084.8	2.1
338.15	0	0	1081.2	2.1
343.15	0	0	1077.5	2.1
348.15	0	0	1073.7	2.1
353.15	0	0	1070	2.1
293.15	1.011	1.011	1153.3	2.1
303.15	1.011	1.011	1145.8	2
313.15	1.011	1.011	1138.3	2
323.25	1.011	1.011	1130.7	2.1
333.25	1.011	1.011	1123.2	2.2
293.15	2.315	2.315	1192.3	2.1
303.15	2.315	2.315	1184.6	2.2
313.15	2.315	2.315	1176.8	2.1
323.15	2.315	2.315	1169	2.1
333.25	2.315	2.315	1161.2	2.2

System: water + 1,2-ethanediol + potassium L-prolinate; phases: Liquid
Fixed: Pressure, kPa = 101.3
Property: Viscosity, Pa*s (Liquid); method: Falling or rolling sphere viscometry
Temperature, K	Molality, mol/kg of potassium L-prolinate	Molality, mol/kg of water	Viscosity, Pa*s	uncertainty
303.15	0.481	0.481	0.018191	0.000754
303.15	1.036	1.036	0.024919	0.001029
303.15	1.688	1.688	0.031986	0.001331
303.15	2.337	2.337	0.045052	0.001868
303.15	3.309	3.309	0.059728	0.002461
303.15	4.331	4.331	0.081053	0.003533
308.15	0.481	0.481	0.01497	0.000619
308.15	1.036	1.036	0.020322	0.00084
308.15	1.688	1.688	0.025824	0.001072
308.15	2.337	2.337	0.035936	0.001491
308.15	3.309	3.309	0.046907	0.001945
308.15	4.331	4.331	0.062681	0.002607
313.15	0.481	0.481	0.012466	0.000515
313.15	1.036	1.036	0.01678	0.000693
313.15	1.688	1.688	0.021137	0.000877
313.15	2.337	2.337	0.029019	0.001203
313.15	3.309	3.309	0.037446	0.001552
313.15	4.331	4.331	0.049344	0.002052
318.15	0.481	0.481	0.010488	0.000433
318.15	1.036	1.036	0.014014	0.000579
318.15	1.688	1.688	0.017876	0.00074
318.15	2.337	2.337	0.023779	0.000985
318.15	3.309	3.309	0.030403	0.00126
318.15	4.331	4.331	0.03945	0.00164
323.15	0.481	0.481	0.0089162	0.0003682
323.15	1.036	1.036	0.011823	0.000488
323.15	1.688	1.688	0.014974	0.00062
323.15	2.337	2.337	0.019729	0.000817
323.15	3.309	3.309	0.024957	0.001034
323.15	4.331	4.331	0.032026	0.001331
328.15	0.481	0.481	0.0076384	0.0003153
328.15	1.036	1.036	0.01007	0.000415
328.15	1.688	1.688	0.012668	0.000524
328.15	2.337	2.337	0.016556	0.000685
328.15	3.309	3.309	0.020723	0.000858
328.15	4.331	4.331	0.026449	0.001099
333.15	0.481	0.481	0.0066037	0.0002724
333.15	1.036	1.036	0.0086479	0.0003566
333.15	1.688	1.688	0.010799	0.000446
333.15	2.337	2.337	0.01401	0.00058
333.15	3.309	3.309	0.017396	0.00072
333.15	4.331	4.331	0.021984	0.000913
338.15	0.481	0.481	0.0057479	0.000237
338.15	1.036	1.036	0.007488	0.0003087
338.15	1.688	1.688	0.0092986	0.0003843
338.15	2.337	2.337	0.011982	0.000496
338.15	3.309	3.309	0.01474	0.00061
338.15	4.331	4.331	0.018457	0.000767
343.15	0.481	0.481	0.0050448	0.000208
343.15	1.036	1.036	0.0065257	0.0002689
343.15	1.688	1.688	0.0080614	0.0003331
343.15	2.337	2.337	0.01033	0.000427
343.15	3.309	3.309	0.012624	0.000523
343.15	4.331	4.331	0.015678	0.000651
348.15	0.481	0.481	0.0044487	0.0001833
348.15	1.036	1.036	0.0057272	0.000236
348.15	1.688	1.688	0.0070319	0.0002905
348.15	2.337	2.337	0.0089755	0.0003712
348.15	3.309	3.309	0.01088	0.00045
348.15	4.331	4.331	0.01342	0.000557
353.15	0.481	0.481	0.0039386	0.0001623
353.15	1.036	1.036	0.005057	0.0002083
353.15	1.688	1.688	0.0061504	0.0002542
353.15	2.337	2.337	0.0078597	0.000325
353.15	3.309	3.309	0.0094417	0.0003908
353.15	4.331	4.331	0.011574	0.000481
303.16	0	0	0.013659	0.000558
308.16	0	0	0.011315	0.000462
313.16	0	0	0.0094743	0.0003868
318.16	0	0	0.0080163	0.0003272
323.16	0	0	0.0068489	0.0002796
328.16	0	0	0.0059027	0.0002409
333.16	0	0	0.005124	0.0002091
338.16	0	0	0.0044819	0.0001829
343.16	0	0	0.0039455	0.000161
348.16	0	0	0.0034959	0.0001427
353.14	0	0	0.0031124	0.000127

System: water + 1,2-ethanediol + potassium L-lysinate; phases: Liquid
Fixed: Pressure, kPa = 101.3
Property: Mass density, kg/m3 (Liquid); method: Vibrating tube method
Temperature, K	Molality, mol/kg of water	Molality, mol/kg of potassium L-lysinate	Mass density, kg/m3	uncertainty
303.15	0.487	0.487	1124.8	2.1
303.15	1.051	1.051	1142.7	2
303.15	1.785	1.785	1159.1	2.1
303.15	2.587	2.587	1175.7	2.1
308.15	0.487	0.487	1121.3	2.1
308.15	1.051	1.051	1139.3	2.1
308.15	1.785	1.785	1155.7	2.1
308.15	2.587	2.587	1172.3	2.1
313.15	0.487	0.487	1117.9	2.1
313.15	1.051	1.051	1135.8	2.1
313.15	1.785	1.785	1152.3	2.1
313.15	2.587	2.587	1168.9	2.1
313.15	3.787	3.787	1185.3	2.2
318.15	0.487	0.487	1114.4	2.1
318.15	1.051	1.051	1132.4	2.1
318.15	1.785	1.785	1148.9	2.1
318.15	2.587	2.587	1165.5	2.1
318.15	3.787	3.787	1181.9	2.2
323.15	0.487	0.487	1110.9	2.1
323.15	1.051	1.051	1128.9	2.2
323.15	1.785	1.785	1145.5	2.1
323.15	2.587	2.587	1162	2.1
323.15	3.787	3.787	1178.5	2.1
328.15	0.487	0.487	1107.3	2.1
328.15	1.051	1.051	1125.5	2.1
328.15	1.785	1.785	1142.1	2.1
328.15	2.587	2.587	1158.6	2.1
328.15	3.787	3.787	1175	2.1
333.15	0.487	0.487	1103.8	2.1
333.15	1.051	1.051	1122	2.4
333.15	1.785	1.785	1138.6	2.1
333.15	2.587	2.587	1155.2	2.1
333.15	3.787	3.787	1171.6	2.1
338.15	0.487	0.487	1100.2	2.1
338.15	1.051	1.051	1118.5	2.1
338.15	1.785	1.785	1135.1	2.1
338.15	2.587	2.587	1151.7	2.1
338.15	3.787	3.787	1168.1	2.1
343.15	0.487	0.487	1096.6	2.1
343.15	1.051	1.051	1115	2.1
343.15	1.785	1.785	1131.7	2.1
343.15	2.587	2.587	1148.3	2.1
343.15	3.787	3.787	1164.7	2.1
348.15	0.487	0.487	1093	2.1
348.15	1.051	1.051	1111.4	2.1
348.15	1.785	1.785	1128.2	2.1
348.15	2.587	2.587	1144.8	2.1
348.15	3.787	3.787	1161.2	2.1
353.15	0.487	0.487	1089.4	2.1
353.15	1.051	1.051	1107.9	2.1
353.15	1.785	1.785	1124.7	2.1
353.15	2.587	2.587	1141.4	2.1
353.15	3.787	3.787	1157.8	2.1
303.15	0	0	1106.3	2
308.15	0	0	1102.7	2
313.15	0	0	1099.2	2
318.15	0	0	1095.6	2
323.15	0	0	1092.1	2
328.15	0	0	1088.4	2
333.15	0	0	1084.8	2
338.15	0	0	1081.2	2
343.15	0	0	1077.5	2
348.15	0	0	1073.7	2
353.15	0	0	1070	2.1
293.35	1.036	1.036	1150	2.1
303.15	1.036	1.036	1142.6	2
313.15	1.036	1.036	1135.2	2.1
323.25	1.036	1.036	1127.6	2.2
333.25	1.036	1.036	1120.1	2.4
293.15	2.548	2.548	1185.2	2.1
303.15	2.548	2.548	1177.5	2.1
313.15	2.548	2.548	1169.8	2.1
323.25	2.548	2.548	1162	2.1
333.25	2.548	2.548	1154.3	2.1

System: water + 1,2-ethanediol + potassium L-lysinate; phases: Liquid
Fixed: Pressure, kPa = 101.3
Property: Viscosity, Pa*s (Liquid); method: Falling or rolling sphere viscometry
Temperature, K	Molality, mol/kg of potassium L-lysinate	Molality, mol/kg of water	Viscosity, Pa*s	uncertainty
303.15	0.487	0.487	0.021536	0.000896
303.15	1.051	1.051	0.034727	0.001444
303.15	1.785	1.785	0.053461	0.002186
303.15	2.587	2.587	0.086469	0.003829
308.15	0.487	0.487	0.017552	0.000731
308.15	1.051	1.051	0.02784	0.001158
308.15	1.785	1.785	0.041987	0.001741
308.15	2.587	2.587	0.066227	0.002775
313.15	0.487	0.487	0.014486	0.000603
313.15	1.051	1.051	0.022627	0.000941
313.15	1.785	1.785	0.033519	0.001389
313.15	2.587	2.587	0.051674	0.002117
313.15	3.787	3.787	0.080045	0.003477
318.15	0.487	0.487	0.012183	0.000506
318.15	1.051	1.051	0.018607	0.000773
318.15	1.785	1.785	0.027235	0.001128
318.15	2.587	2.587	0.040909	0.001699
318.15	3.787	3.787	0.061995	0.002573
323.15	0.487	0.487	0.010282	0.000427
323.15	1.051	1.051	0.015464	0.000642
323.15	1.785	1.785	0.022321	0.000924
323.15	2.587	2.587	0.03287	0.001365
323.15	3.787	3.787	0.048836	0.00203
328.15	0.487	0.487	0.0087603	0.0003635
328.15	1.051	1.051	0.012999	0.000539
328.15	1.785	1.785	0.018514	0.000766
328.15	2.587	2.587	0.026947	0.001118
328.15	3.787	3.787	0.039182	0.001628
333.15	0.487	0.487	0.0075243	0.000312
333.15	1.051	1.051	0.011027	0.000457
333.15	1.785	1.785	0.015516	0.000642
333.15	2.587	2.587	0.022231	0.000922
333.15	3.787	3.787	0.031872	0.001324
338.15	0.487	0.487	0.0065157	0.00027
338.15	1.051	1.051	0.0094179	0.0003899
338.15	1.785	1.785	0.013129	0.000543
338.15	2.587	2.587	0.018535	0.000768
338.15	3.787	3.787	0.026707	0.001109
343.15	0.487	0.487	0.0056876	0.0002355
343.15	1.051	1.051	0.0081145	0.0003358
343.15	1.785	1.785	0.011205	0.000463
343.15	2.587	2.587	0.015611	0.000647
343.15	3.787	3.787	0.022215	0.000923
348.15	0.487	0.487	0.0049954	0.0002067
348.15	1.051	1.051	0.0070414	0.0002912
348.15	1.785	1.785	0.0096425	0.0003984
348.15	2.587	2.587	0.013241	0.000549
348.15	3.787	3.787	0.018543	0.00077
353.15	0.487	0.487	0.004398	0.0001818
353.15	1.051	1.051	0.0061394	0.0002537
353.15	1.785	1.785	0.0083346	0.0003443
353.15	2.587	2.587	0.011347	0.00047
353.15	3.787	3.787	0.015665	0.00065
303.16	0	0	0.013659	0.000581
308.16	0	0	0.011315	0.000478
313.16	0	0	0.0094743	0.0003995
318.16	0	0	0.0080163	0.0003377
323.16	0	0	0.0068489	0.0002879
328.16	0	0	0.0059027	0.0002477
333.16	0	0	0.005124	0.0002146
338.16	0	0	0.0044819	0.0001875
343.16	0	0	0.0039455	0.0001648
348.16	0	0	0.0034959	0.0001459
353.14	0	0	0.0031124	0.0001297

System: water + 1,2-ethanediol + nitrous oxide; phases: Liquid, Gas
Property: Molality, mol/kg of nitrous oxide (Liquid); method: volumetric method
Temperature, K	Pressure, kPa of nitrous oxide	Solvent: Mass fraction of 1,2-ethanediol	Molality, mol/kg of nitrous oxide	uncertainty
293.15	108.39	0	0.0294	0.0007
303.15	125.38	0	0.0261	0.0005
313.25	140.87	0	0.0235	0.0005
323.25	154.64	0	0.0215	0.0005
333.35	167.39	0	0.0199	0.0005
293.45	109.74	0.95	0.03	0.0005
303.45	119.85	0.95	0.0286	0.0004
313.15	129.49	0.95	0.0273	0.0004
323.25	139.02	0.95	0.0263	0.0004
333.35	148.02	0.95	0.0255	0.0004
293.25	81.98	1	0.0251	0.0004
303.15	91.09	1	0.0237	0.0004
313.15	99.27	1	0.0227	0.0004
323.25	107.12	1	0.0219	0.0004
333.25	114.46	1	0.0212	0.0004

System: water + nitrous oxide; phases: Liquid, Gas
Property: Molality, mol/kg of nitrous oxide (Liquid); method: volumetric method
Temperature, K	Pressure, kPa of nitrous oxide	Molality, mol/kg of nitrous oxide	uncertainty
293.15	108.39	0.0294	0.0004
303.15	125.38	0.0261	0.0005
313.25	140.87	0.0235	0.0005
323.25	154.64	0.0215	0.0005
333.35	167.39	0.0199	0.0004

System: 1,2-ethanediol + nitrous oxide; phases: Liquid, Gas
Property: Molality, mol/kg of nitrous oxide (Liquid); method: volumetric method
Temperature, K	Pressure, kPa of nitrous oxide	Molality, mol/kg of nitrous oxide	uncertainty
293.25	81.98	0.0251	0.0004
303.15	91.09	0.0237	0.0005
313.15	99.27	0.0227	0.0005
323.25	107.12	0.0219	0.0004
333.25	114.46	0.0212	0.0004

System: water + 1,2-ethanediol; phases: Liquid
Fixed: Pressure, kPa = 101.3
Property: Mass density, kg/m3 (Liquid); method: Vibrating tube method
Mass fraction of 1,2-ethanediol	Temperature, K	Mass density, kg/m3	uncertainty
0	293.15	998.2	2
0	303.15	995.6	2
0	313.25	992.2	2
0	323.25	988	2
0	333.35	983.1	2
0.95	293.45	1109.3	2
0.95	303.45	1102.4	2
0.95	313.15	1095.5	2
0.95	323.25	1088.3	2
0.95	333.35	1081	2
1	293.25	1113.6	2
1	303.15	1106.5	2
1	313.15	1099.2	2
1	323.25	1091.9	2
1	333.25	1084.6	2
