Measured thermophysical data. Volumetric, acoustic, viscometric, and spectroscopic properties for binary properties for binary mixtures of alkoxypropanol with mono, di-, and tri- alkylamines at a temperature of 298.15K
Source: J. Chem. Thermodyn., 2006, 10.1016/j.jct.2005.12.007
Compound 1: 1-butanamine, C4H11N, InChI=1S/C4H11N/c1-2-3-4-5/h2-5H2,1H3
Compound 2: dibutylamine, C8H19N, InChI=1S/C8H19N/c1-3-5-7-9-8-6-4-2/h9H,3-8H2,1-2H3
Compound 3: tributylamine, C12H27N, InChI=1S/C12H27N/c1-4-7-10-13(11-8-5-2)12-9-6-3/h4-12H2,1-3H3

System: 1-butanamine; phases: Liquid
Property: Mass density, kg/m3 (Liquid); method: Pycnometric method
Temperature, K	Pressure, kPa	Mass density, kg/m3	uncertainty
298.15	101.325	733.3	1

System: 1-butanamine; phases: Liquid
Property: Viscosity, Pa*s (Liquid); method: Capillary tube (Ostwald; Ubbelohde) method
Temperature, K	Pressure, kPa	Viscosity, Pa*s	uncertainty
298.15	101.325	0.000486	7e-06

System: 1-butanamine; phases: Liquid
Property: Speed of sound, m/s (Liquid); method: Sing-around technique in a fixed-path interferometer
Temperature, K	Pressure, kPa	Speed of sound, m/s	uncertainty
298.15	101.325	1249.7	2.2

System: dibutylamine; phases: Liquid
Property: Mass density, kg/m3 (Liquid); method: Pycnometric method
Temperature, K	Pressure, kPa	Mass density, kg/m3	uncertainty
298.15	101.325	757.53	0.74

System: dibutylamine; phases: Liquid
Property: Viscosity, Pa*s (Liquid); method: Capillary tube (Ostwald; Ubbelohde) method
Temperature, K	Pressure, kPa	Viscosity, Pa*s	uncertainty
298.15	101.325	0.000821	8e-06

System: dibutylamine; phases: Liquid
Property: Speed of sound, m/s (Liquid); method: Sing-around technique in a fixed-path interferometer
Temperature, K	Pressure, kPa	Speed of sound, m/s	uncertainty
298.15	101.325	1243.4	1.4

System: tributylamine; phases: Liquid
Property: Mass density, kg/m3 (Liquid); method: Pycnometric method
Temperature, K	Pressure, kPa	Mass density, kg/m3	uncertainty
298.15	101.325	773.56	0.76

System: tributylamine; phases: Liquid
Property: Viscosity, Pa*s (Liquid); method: Capillary tube (Ostwald; Ubbelohde) method
Temperature, K	Pressure, kPa	Viscosity, Pa*s	uncertainty
298.15	101.325	0.001258	1.2e-05

System: tributylamine; phases: Liquid
Property: Speed of sound, m/s (Liquid); method: Sing-around technique in a fixed-path interferometer
Temperature, K	Pressure, kPa	Speed of sound, m/s	uncertainty
298.15	101.325	1245.3	1.4
