Measured thermophysical data. Liquid--liquid equilibria for mixtures of {methyl acetate + methanol + n-alkane (C10--C12)} at several temperatures and 1 atm
Source: J. Chem. Thermodyn., 2004, 10.1016/j.jct.2003.11.009
Compound 1: methyl ethanoate, C3H6O2, InChI=1S/C3H6O2/c1-3(4)5-2/h1-2H3, purity 99.6%
Compound 2: methanol, CH4O, InChI=1S/CH4O/c1-2/h2H,1H3, purity 99.8%
Compound 3: decane, C10H22, InChI=1S/C10H22/c1-3-5-7-9-10-8-6-4-2/h3-10H2,1-2H3, purity 99.4%
Compound 4: undecane, C11H24, InChI=1S/C11H24/c1-3-5-7-9-11-10-8-6-4-2/h3-11H2,1-2H3, purity 99.4%
Compound 5: dodecane, C12H26, InChI=1S/C12H26/c1-3-5-7-9-11-12-10-8-6-4-2/h3-12H2,1-2H3, purity 99.4%

System: methanol + decane; phases: Liquid mixture 1, Liquid mixture 2
Fixed: Pressure, kPa = 101
Property: Mole fraction of methanol (Liquid mixture 1); method: Chromatography
Temperature, K	Mole fraction of methanol	uncertainty
278.15	0.06	0.006
288.15	0.075	0.006
298.15	0.091	0.006
308.15	0.109	0.006

System: methanol + decane; phases: Liquid mixture 2, Liquid mixture 1
Fixed: Pressure, kPa = 101
Property: Mole fraction of methanol (Liquid mixture 2); method: Chromatography
Temperature, K	Mole fraction of methanol	uncertainty
278.15	0.984	0.006
288.15	0.98	0.006
298.15	0.974	0.006
308.15	0.972	0.006

System: methanol + undecane; phases: Liquid mixture 1, Liquid mixture 2
Fixed: Pressure, kPa = 101
Property: Mole fraction of methanol (Liquid mixture 1); method: Chromatography
Temperature, K	Mole fraction of methanol	uncertainty
278.15	0.054	0.006
288.15	0.063	0.006
298.15	0.084	0.006
308.15	0.104	0.006

System: methanol + undecane; phases: Liquid mixture 2, Liquid mixture 1
Fixed: Pressure, kPa = 101
Property: Mole fraction of methanol (Liquid mixture 2); method: Chromatography
Temperature, K	Mole fraction of methanol	uncertainty
278.15	0.989	0.006
288.15	0.987	0.006
298.15	0.984	0.006
308.15	0.983	0.006

System: methanol + dodecane; phases: Liquid mixture 1, Liquid mixture 2
Fixed: Pressure, kPa = 101
Property: Mole fraction of methanol (Liquid mixture 1); method: Chromatography
Temperature, K	Mole fraction of methanol	uncertainty
278.15	0.053	0.006
288.15	0.062	0.006
298.15	0.084	0.006
308.15	0.094	0.006

System: methanol + dodecane; phases: Liquid mixture 2, Liquid mixture 1
Fixed: Pressure, kPa = 101
Property: Mole fraction of methanol (Liquid mixture 2); method: Chromatography
Temperature, K	Mole fraction of methanol	uncertainty
278.15	0.992	0.006
288.15	0.992	0.006
298.15	0.99	0.006
308.15	0.987	0.006

System: methanol + methyl ethanoate + decane; phases: Liquid mixture 1, Liquid mixture 2
Fixed: Pressure, kPa = 101
Property: Mole fraction of methanol (Liquid mixture 1); method: Chromatography
Property: Mole fraction of methanol (Liquid mixture 2); method: Chromatography
Property: Mole fraction of methyl ethanoate (Liquid mixture 2); method: Chromatography
Temperature, K	Mole fraction of methyl ethanoate	Mole fraction of methanol	uncertainty	Mole fraction of methanol	uncertainty	Mole fraction of methyl ethanoate	uncertainty
278.15	0	0.06	0.006	0.984	0.006	0	
278.15	0.022	0.066	0.006	0.951	0.009	0.03	
278.15	0.036	0.071	0.006	0.933	0.009	0.044	
278.15	0.059	0.074	0.007	0.901	0.009	0.078	
278.15	0.09	0.093	0.007	0.856	0.009	0.118	
278.15	0.112	0.102	0.006	0.821	0.009	0.15	
278.15	0.134	0.11	0.006	0.784	0.009	0.182	
278.15	0.157	0.118	0.006	0.748	0.01	0.214	
278.15	0.19	0.131	0.007	0.688	0.01	0.259	
288.15	0	0.075	0.006	0.98	0.006	0	
288.15	0.023	0.08	0.006	0.948	0.009	0.028	
288.15	0.041	0.085	0.007	0.926	0.009	0.047	
288.15	0.062	0.097	0.007	0.895	0.009	0.078	
288.15	0.095	0.115	0.007	0.847	0.009	0.12	
288.15	0.123	0.132	0.007	0.813	0.01	0.149	
298.15	0	0.091	0.006	0.974	0.006	0	
298.15	0.024	0.099	0.007	0.944	0.009	0.027	
298.15	0.042	0.113	0.007	0.921	0.009	0.046	
298.15	0.068	0.13	0.007	0.892	0.01	0.075	
298.15	0.101	0.149	0.007	0.838	0.01	0.114	
298.15	0.125	0.168	0.008	0.804	0.009	0.145	
308.15	0	0.109	0.006	0.972	0.006	0	
308.15	0.026	0.124	0.007	0.936	0.009	0.028	
308.15	0.042	0.129	0.008	0.918	0.009	0.045	
308.15	0.066	0.153	0.008	0.888	0.009	0.072	
308.15	0.102	0.183	0.008	0.835	0.01	0.114	
278.15	0.197	0.135	0.007	0.675	0.009	0.271	
278.15	0.238	0.152	0.007	0.608	0.01	0.324	
278.15	0.257	0.165	0.007	0.576	0.011	0.347	
278.15	0.29	0.182	0.007	0.53	0.011	0.378	
278.15	0.308	0.193	0.007	0.506	0.013	0.395	
278.15	0.349	0.222	0.008	0.45	0.014	0.422	
278.15	0.363	0.236	0.009	0.429	0.017	0.432	
278.15	0.376	0.25	0.009	0.412	0.026	0.436	
288.15	0.14	0.145	0.008	0.777	0.01	0.178	
288.15	0.166	0.164	0.007	0.742	0.01	0.208	
288.15	0.201	0.181	0.007	0.691	0.01	0.247	
288.15	0.231	0.2	0.008	0.635	0.011	0.29	
288.15	0.264	0.232	0.007	0.583	0.013	0.318	
288.15	0.308	0.26	0.007	0.519	0.013	0.354	
298.15	0.148	0.186	0.008	0.764	0.01	0.176	
298.15	0.182	0.223	0.009	0.721	0.011	0.207	
298.15	0.219	0.262	0.01	0.662	0.013	0.243	
298.15	0.24	0.294	0.012	0.611	0.013	0.266	
298.15	0.258	0.325	0.012	0.582	0.011	0.285	
308.15	0.13	0.206	0.009	0.792	0.011	0.145	
308.15	0.158	0.246	0.011	0.748	0.011	0.175	
308.15	0.18	0.281	0.013	0.713	0.014	0.195	
308.15	0.208	0.338	0.014	0.649	0.015	0.223	

System: methanol + methyl ethanoate + undecane; phases: Liquid mixture 1, Liquid mixture 2
Fixed: Pressure, kPa = 101
Property: Mole fraction of methanol (Liquid mixture 1); method: Chromatography
Property: Mole fraction of methanol (Liquid mixture 2); method: Chromatography
Property: Mole fraction of methyl ethanoate (Liquid mixture 2); method: Chromatography
Temperature, K	Mole fraction of methyl ethanoate	Mole fraction of methanol	uncertainty	Mole fraction of methanol	uncertainty	Mole fraction of methyl ethanoate	uncertainty
278.15	0	0.054	0.006	0.989	0.006	0	
278.15	0.033	0.07	0.007	0.948	0.009	0.035	
278.15	0.065	0.082	0.006	0.901	0.009	0.082	
278.15	0.102	0.096	0.006	0.837	0.009	0.142	
278.15	0.131	0.101	0.006	0.795	0.009	0.182	
278.15	0.154	0.106	0.006	0.752	0.009	0.219	
278.15	0.181	0.115	0.006	0.713	0.009	0.253	
278.15	0.214	0.128	0.006	0.661	0.01	0.299	
288.15	0	0.063	0.006	0.987	0.006	0	
288.15	0.035	0.079	0.007	0.944	0.009	0.038	
288.15	0.067	0.099	0.007	0.9	0.009	0.08	
288.15	0.106	0.119	0.007	0.853	0.009	0.125	
288.15	0.129	0.126	0.006	0.812	0.01	0.16	
288.15	0.153	0.136	0.007	0.777	0.009	0.187	
288.15	0.171	0.147	0.007	0.754	0.009	0.213	
298.15	0	0.084	0.006	0.984	0.006	0	
298.15	0.036	0.106	0.007	0.941	0.009	0.041	
298.15	0.059	0.119	0.007	0.905	0.009	0.068	
298.15	0.087	0.132	0.007	0.87	0.009	0.099	
298.15	0.113	0.148	0.007	0.834	0.01	0.129	
298.15	0.152	0.177	0.007	0.782	0.009	0.172	
298.15	0.177	0.193	0.007	0.749	0.01	0.204	
308.15	0	0.104	0.006	0.983	0.006	0	
308.15	0.034	0.128	0.007	0.94	0.009	0.034	
308.15	0.071	0.153	0.007	0.897	0.009	0.071	
308.15	0.108	0.176	0.007	0.852	0.01	0.111	
308.15	0.149	0.203	0.008	0.795	0.01	0.155	
278.15	0.236	0.133	0.006	0.61	0.01	0.34	
278.15	0.267	0.14	0.006	0.559	0.01	0.388	
278.15	0.292	0.15	0.006	0.525	0.011	0.414	
278.15	0.32	0.158	0.007	0.484	0.012	0.442	
278.15	0.35	0.172	0.007	0.445	0.012	0.466	
278.15	0.393	0.192	0.006	0.398	0.01	0.496	
278.15	0.4	0.194	0.006	0.39	0.01	0.502	
288.15	0.198	0.161	0.007	0.711	0.01	0.245	
288.15	0.232	0.177	0.007	0.654	0.01	0.294	
288.15	0.273	0.205	0.007	0.591	0.011	0.341	
288.15	0.302	0.222	0.007	0.54	0.011	0.374	
288.15	0.324	0.23	0.008	0.518	0.017	0.389	
288.15	0.362	0.274	0.01	0.456	0.024	0.406	
288.15	0.38	0.298	0.01	0.427	0.026	0.413	
298.15	0.205	0.211	0.007	0.706	0.01	0.236	
298.15	0.228	0.228	0.008	0.681	0.01	0.257	
298.15	0.245	0.243	0.009	0.654	0.014	0.276	
298.15	0.271	0.28	0.011	0.608	0.012	0.298	
298.15	0.304	0.326	0.011	0.55	0.015	0.328	
298.15	0.314	0.342	0.012	0.52	0.024	0.336	
308.15	0.184	0.234	0.008	0.743	0.011	0.192	
308.15	0.214	0.264	0.009	0.686	0.012	0.231	
308.15	0.227	0.282	0.011	0.649	0.017	0.247	
308.15	0.239	0.301	0.013	0.607	0.019	0.262	
308.15	0.251	0.326	0.014	0.567	0.021	0.274	

System: methanol + methyl ethanoate + dodecane; phases: Liquid mixture 1, Liquid mixture 2
Fixed: Pressure, kPa = 101
Property: Mole fraction of methanol (Liquid mixture 1); method: Chromatography
Property: Mole fraction of methanol (Liquid mixture 2); method: Chromatography
Property: Mole fraction of methyl ethanoate (Liquid mixture 2); method: Chromatography
Temperature, K	Mole fraction of methyl ethanoate	Mole fraction of methanol	uncertainty	Mole fraction of methanol	uncertainty	Mole fraction of methyl ethanoate	uncertainty
278.15	0	0.053	0.006	0.992	0.006	0	
278.15	0.045	0.065	0.006	0.934	0.009	0.056	
278.15	0.074	0.072	0.006	0.887	0.009	0.1	
278.15	0.108	0.081	0.006	0.835	0.009	0.147	
278.15	0.14	0.088	0.006	0.782	0.009	0.195	
278.15	0.177	0.096	0.006	0.717	0.009	0.26	
278.15	0.222	0.111	0.006	0.652	0.009	0.316	
278.15	0.245	0.112	0.006	0.616	0.009	0.354	
288.15	0	0.062	0.006	0.992	0.006	0	
288.15	0.042	0.082	0.007	0.94	0.009	0.047	
288.15	0.081	0.094	0.006	0.88	0.009	0.103	
288.15	0.104	0.106	0.007	0.843	0.009	0.135	
288.15	0.158	0.126	0.007	0.771	0.009	0.209	
288.15	0.209	0.15	0.007	0.698	0.01	0.271	
288.15	0.245	0.165	0.006	0.644	0.01	0.317	
298.15	0	0.084	0.006	0.99	0.006	0	
298.15	0.036	0.098	0.007	0.947	0.009	0.038	
298.15	0.049	0.102	0.007	0.929	0.009	0.055	
298.15	0.089	0.119	0.007	0.877	0.009	0.101	
298.15	0.129	0.137	0.007	0.828	0.009	0.142	
298.15	0.181	0.168	0.007	0.762	0.009	0.206	
308.15	0	0.094	0.006	0.987	0.006	0	
308.15	0.055	0.126	0.007	0.924	0.009	0.057	
308.15	0.077	0.14	0.007	0.899	0.009	0.079	
308.15	0.114	0.157	0.007	0.852	0.009	0.118	
278.15	0.299	0.125	0.006	0.518	0.01	0.437	
278.15	0.325	0.129	0.006	0.475	0.01	0.477	
278.15	0.356	0.137	0.006	0.434	0.011	0.507	
278.15	0.378	0.142	0.006	0.398	0.01	0.534	
278.15	0.405	0.148	0.006	0.374	0.011	0.555	
278.15	0.445	0.153	0.006	0.318	0.013	0.586	
278.15	0.482	0.16	0.006	0.28	0.018	0.602	
278.15	0.51	0.17	0.007	0.254	0.032	0.607	
288.15	0.282	0.172	0.006	0.581	0.007	0.372	
288.15	0.286	0.176	0.006	0.572	0.007	0.376	
288.15	0.356	0.204	0.007	0.481	0.017	0.443	
288.15	0.383	0.218	0.007	0.443	0.015	0.458	
288.15	0.389	0.223	0.007	0.435	0.014	0.464	
288.15	0.431	0.249	0.008	0.391	0.035	0.485	
288.15	0.444	0.262	0.009	0.362	0.035	0.49	
298.15	0.224	0.192	0.007	0.694	0.009	0.263	
298.15	0.271	0.21	0.007	0.638	0.01	0.313	
298.15	0.295	0.227	0.008	0.592	0.012	0.339	
298.15	0.327	0.255	0.009	0.543	0.012	0.369	
298.15	0.346	0.282	0.012	0.517	0.014	0.383	
298.15	0.361	0.312	0.014	0.487	0.015	0.396	
308.15	0.152	0.181	0.008	0.809	0.009	0.159	
308.15	0.203	0.226	0.008	0.747	0.01	0.214	
308.15	0.269	0.272	0.008	0.662	0.011	0.28	
308.15	0.297	0.318	0.012	0.61	0.012	0.31	
