Measured thermophysical data. Physico-chemical characterization antituberculosis thioacetazone: Vapor pressure, solubility and lipophilicity
Source: J. Chem. Thermodyn., 2017, 10.1016/j.jct.2016.12.034
Compound 1: Thioacetazone, C10H12N4OS, InChI=1S/C10H12N4OS/c1-7(15)13-9-4-2-8(3-5-9)6-12-14-10(11)16/h2-6H,1H3,(H,13,15)(H3,11,14,16)/b12-6+, purity 98%
Compound 2: octan-1-ol, C8H18O, InChI=1S/C8H18O/c1-2-3-4-5-6-7-8-9/h9H,2-8H2,1H3, purity 99%
Compound 3: hexane, C6H14, InChI=1S/C6H14/c1-3-5-6-4-2/h3-6H2,1-2H3, purity 97%

System: Thioacetazone; phases: Crystal, Liquid, Air at 1 atmosphere
Property: Normal melting temperature, K (Crystal); method: DTA
Normal melting temperature, K	uncertainty
502.15	0.5

System: Thioacetazone; phases: Crystal, Gas
Property: Vapor or sublimation pressure, kPa (Crystal); method: Transpiration method
Temperature, K	Vapor or sublimation pressure, kPa	uncertainty
404.15	1.89e-05	2.1e-06
406.15	2.23e-05	2.5e-06
408.15	2.81e-05	3.2e-06
410.15	3.67e-05	4.1e-06
412.15	4.46e-05	5e-06
415.15	6.04e-05	6.6e-06
417.15	7.03e-05	8.1e-06
420.15	0.0001125	1.25e-05
423.15	0.0001414	1.53e-05
425.15	0.0001651	1.9e-05
427.15	0.0002376	2.68e-05
429.15	0.0002851	3.11e-05

System: Thioacetazone + hexane; phases: Liquid, Crystal
Fixed: Pressure, kPa = 100
Property: Mole fraction of Thioacetazone (Liquid); method: UV Spectrophotometry
Temperature, K	Mole fraction of Thioacetazone	uncertainty
288.15	5.55e-06	4.6e-07
293.15	7.25e-06	6e-07
298.15	1.026e-05	8.4e-07
303.15	1.34e-05	1.09e-06
308.15	1.745e-05	1.42e-06
313.15	2.213e-05	1.81e-06
318.15	2.927e-05	2.38e-06

System: Thioacetazone + hexane; phases: Liquid, Crystal
Fixed: Pressure, kPa = 100
Property: Mass density, kg/m3 (Liquid); method: Vibrating tube method
Temperature, K	Mass density, kg/m3	uncertainty
288.15	662.2	4
293.15	658.7	4
298.15	654.3	4
303.15	649.5	4
308.15	645.3	3.9
313.15	643.2	3.9
318.15	641.3	3.9

System: Thioacetazone + octan-1-ol; phases: Liquid, Crystal
Fixed: Pressure, kPa = 100
Property: Mole fraction of Thioacetazone (Liquid); method: UV Spectrophotometry
Temperature, K	Mole fraction of Thioacetazone	uncertainty
288.15	0.0003797	3.06e-05
293.15	0.0004394	3.54e-05
298.15	0.0005034	4.05e-05
303.15	0.0005802	4.67e-05
308.15	0.0006735	5.42e-05
313.15	0.0007616	6.12e-05
318.15	0.0008631	6.93e-05

System: Thioacetazone + octan-1-ol; phases: Liquid, Crystal
Fixed: Pressure, kPa = 100
Property: Mass density, kg/m3 (Liquid); method: Vibrating tube method
Temperature, K	Mass density, kg/m3	uncertainty
288.15	843.2	5.1
293.15	845.4	5.1
298.15	847.8	5.1
303.15	851.4	5.1
308.15	854.5	5.1
313.15	856.7	5.2
318.15	859.8	5.2
