Measured thermophysical data. Absorption capacity and CO2 removal efficiency in tray tower by using 2-(ethylamino)ethanol activated 3-(dimethylamino)propan-1-ol aqueous solution
Source: J. Chem. Thermodyn., 2019, 10.1016/j.jct.2019.07.004
Compound 1: 3-dimethylamino-1-propanol, C5H13NO, InChI=1S/C5H13NO/c1-6(2)4-3-5-7/h7H,3-5H2,1-2H3, purity 99%
Compound 2: carbon dioxide, CO2, InChI=1S/CO2/c2-1-3
Compound 3: water, H2O, InChI=1S/H2O/h1H2, purity 99.9%

System: carbon dioxide + 3-dimethylamino-1-propanol + water; phases: Liquid, Gas
Fixed: Pressure, kPa = 101
Property: Mass ratio of solute to solvent of carbon dioxide (Liquid); method: CO2 Analyzer
Temperature, K	Solvent: Mass fraction of 3-dimethylamino-1-propanol	Mass ratio of solute to solvent of carbon dioxide	uncertainty
303.2	0.3	0.1139	0.0042
313.2	0.3	0.105	0.0035
323.2	0.3	0.0941	0.003
303.2	0.4	0.1475	0.0042
313.2	0.4	0.1313	0.0035
323.2	0.4	0.1173	0.0029
303.2	0.5	0.1775	0.0042
313.2	0.5	0.1576	0.0036
323.2	0.5	0.1362	0.0028

System: carbon dioxide + 3-dimethylamino-1-propanol + water; phases: Liquid, Gas
Fixed: Solvent: Mass fraction of 3-dimethylamino-1-propanol = 0.21
Property: Mass fraction of carbon dioxide (Liquid); method: CO2 Analyzer
Pressure, kPa of carbon dioxide	Temperature, K	Mass fraction of carbon dioxide	uncertainty
8.1	303.2	0.0614	0.0022
15	303.2	0.0669	0.0022
20.3	303.2	0.0676	0.0022
30.4	303.2	0.07	0.0022
60.8	303.2	0.0723	0.0022
8.1	313.2	0.055	0.0022
15	313.2	0.0614	0.0022
20.3	313.2	0.0629	0.0022
30.4	313.2	0.0653	0.0022
60.8	313.2	0.0707	0.0022
