Measured thermophysical data. Solubility and preferential solvation of flubendazole dissolved in aqueous co-solvent mixtures of 1,4-dioxane, dimethyl sulfoxide, N,N-dimethylformamide and isopropanol
Source: J. Chem. Thermodyn., 2019, 10.1016/j.jct.2019.04.001
Compound 1: flubendazole, C16H12FN3O3, InChI=1S/C16H12FN3O3/c1-23-16(22)20-15-18-12-7-4-10(8-13(12)19-15)14(21)9-2-5-11(17)6-3-9/h2-8H,1H3,(H2,18,19,20,22), purity 98.5%
Compound 2: dimethylformamide, C3H7NO, InChI=1S/C3H7NO/c1-4(2)3-5/h3H,1-2H3, purity 99.4%
Compound 3: propan-2-ol, C3H8O, InChI=1S/C3H8O/c1-3(2)4/h3-4H,1-2H3, purity 99.5%
Compound 4: 1,4-dioxane, C4H8O2, InChI=1S/C4H8O2/c1-2-6-4-3-5-1/h1-4H2, purity 99.5%
Compound 5: dimethyl sulfoxide, C2H6OS, InChI=1S/C2H6OS/c1-4(2)3/h1-2H3, purity 99.4%
Compound 6: water, H2O, InChI=1S/H2O/h1H2

System: flubendazole + 1,4-dioxane + water; phases: Liquid, Crystal
Fixed: Pressure, kPa = 101.1
Property: Mole fraction of flubendazole (Liquid); method: Chromatography
Solvent: Mass fraction of 1,4-dioxane	Temperature, K	Mole fraction of flubendazole	uncertainty
0.1	288.15	3.567e-07	3.35e-08
0.1	293.15	4.471e-07	4.2e-08
0.1	298.15	5.456e-07	5.13e-08
0.1	303.15	6.708e-07	6.31e-08
0.1	308.15	8.308e-07	7.81e-08
0.1	313.15	1.029e-06	9.7e-08
0.1	318.15	1.228e-06	1.15e-07
0.1	323.15	1.456e-06	1.37e-07
0.1	328.15	1.75e-06	1.65e-07
0.1	333.15	2.074e-06	1.95e-07
0.2	288.15	6.909e-07	6.5e-08
0.2	293.15	8.684e-07	8.17e-08
0.2	298.15	1.0677e-06	1.004e-07
0.2	303.15	1.303e-06	1.225e-07
0.2	308.15	1.6139e-06	1.518e-07
0.2	313.15	1.941e-06	1.83e-07
0.2	318.15	2.368e-06	2.23e-07
0.2	323.15	2.848e-06	2.68e-07
0.2	328.15	3.4e-06	3.2e-07
0.2	333.15	3.999e-06	3.76e-07
0.3	288.15	1.157e-06	1.09e-07
0.3	293.15	1.434e-06	1.35e-07
0.3	298.15	1.789e-06	1.68e-07
0.3	303.15	2.184e-06	2.05e-07
0.3	308.15	2.626e-06	2.47e-07
0.3	313.15	3.205e-06	3.01e-07
0.3	318.15	3.911e-06	3.68e-07
0.3	323.15	4.635e-06	4.36e-07
0.3	328.15	5.573e-06	5.24e-07
0.3	333.15	6.604e-06	6.21e-07
0.4	288.15	2.3e-06	2.16e-07
0.4	293.15	2.848e-06	2.68e-07
0.4	298.15	3.528e-06	3.32e-07
0.4	303.15	4.273e-06	4.02e-07
0.4	308.15	5.139e-06	4.83e-07
0.4	313.15	6.18e-06	5.81e-07
0.4	318.15	7.542e-06	7.09e-07
0.4	323.15	8.805e-06	8.28e-07
0.4	328.15	1.043e-05	9.8e-07
0.4	333.15	1.255e-05	1.18e-06
0.5	288.15	4.206e-06	3.96e-07
0.5	293.15	5.064e-06	4.76e-07
0.5	298.15	6.134e-06	5.77e-07
0.5	303.15	7.486e-06	7.04e-07
0.5	308.15	9.272e-06	8.72e-07
0.5	313.15	1.115e-05	1.05e-06
0.5	318.15	1.302e-05	1.22e-06
0.5	323.15	1.565e-05	1.47e-06
0.5	328.15	1.855e-05	1.74e-06
0.5	333.15	2.198e-05	2.07e-06
0.6	288.15	9.136e-06	8.59e-07
0.6	293.15	1.115e-05	1.05e-06
0.6	298.15	1.381e-05	1.3e-06
0.6	303.15	1.648e-05	1.55e-06
0.6	308.15	2.012e-05	1.89e-06
0.6	313.15	2.419e-05	2.27e-06
0.6	318.15	2.909e-05	2.74e-06
0.6	323.15	3.397e-05	3.19e-06
0.6	328.15	4.025e-05	3.79e-06
0.6	333.15	4.769e-05	4.48e-06
0.7	288.15	1.6e-05	1.5e-06
0.7	293.15	1.925e-05	1.81e-06
0.7	298.15	2.349e-05	2.21e-06
0.7	303.15	2.888e-05	2.72e-06
0.7	308.15	3.447e-05	3.24e-06
0.7	313.15	4.115e-05	3.87e-06
0.7	318.15	4.84e-05	4.55e-06
0.7	323.15	5.82e-05	5.47e-06
0.7	328.15	6.696e-05	6.3e-06
0.7	333.15	7.818e-05	7.35e-06
0.8	288.15	2.783e-05	2.62e-06
0.8	293.15	3.347e-05	3.15e-06
0.8	298.15	4.084e-05	3.84e-06
0.8	303.15	4.84e-05	4.55e-06
0.8	308.15	5.82e-05	5.47e-06
0.8	313.15	6.999e-05	6.58e-06
0.8	318.15	8.293e-05	7.8e-06
0.8	323.15	9.826e-05	9.24e-06
0.8	328.15	0.0001147	1.08e-05
0.8	333.15	0.000134	1.26e-05
0.9	288.15	4.615e-05	4.34e-06
0.9	293.15	5.693e-05	5.35e-06
0.9	298.15	6.845e-05	6.44e-06
0.9	303.15	8.232e-05	7.74e-06
0.9	308.15	9.754e-05	9.17e-06
0.9	313.15	0.0001156	1.09e-05
0.9	318.15	0.0001411	1.33e-05
0.9	323.15	0.0001623	1.53e-05
0.9	328.15	0.0001923	1.81e-05
0.9	333.15	0.0002228	2.1e-05

System: flubendazole + dimethylformamide + water; phases: Liquid, Crystal
Fixed: Pressure, kPa = 101.1
Property: Mole fraction of flubendazole (Liquid); method: Chromatography
Solvent: Mass fraction of dimethylformamide	Temperature, K	Mole fraction of flubendazole	uncertainty
0.1	283.15	3.499e-07	3.29e-08
0.1	288.15	4.564e-07	4.29e-08
0.1	293.15	5.836e-07	5.49e-08
0.1	298.15	7.39e-07	6.95e-08
0.1	303.15	9.085e-07	8.54e-08
0.1	308.15	1.139e-06	1.07e-07
0.1	313.15	1.4e-06	1.32e-07
0.1	318.15	1.722e-06	1.62e-07
0.1	323.15	2.076e-06	1.95e-07
0.1	328.15	2.527e-06	2.38e-07
0.1	333.15	3.016e-06	2.84e-07
0.2	283.15	1.002e-06	9.4e-08
0.2	288.15	1.307e-06	1.23e-07
0.2	293.15	1.639e-06	1.54e-07
0.2	298.15	2.055e-06	1.93e-07
0.2	303.15	2.502e-06	2.35e-07
0.2	308.15	3.137e-06	2.95e-07
0.2	313.15	3.819e-06	3.59e-07
0.2	318.15	4.604e-06	4.33e-07
0.2	323.15	5.661e-06	5.32e-07
0.2	328.15	6.824e-06	6.42e-07
0.2	333.15	7.909e-06	7.44e-07
0.3	283.15	2.535e-06	2.38e-07
0.3	288.15	3.231e-06	3.04e-07
0.3	293.15	4.012e-06	3.77e-07
0.3	298.15	5.03e-06	4.73e-07
0.3	303.15	6.308e-06	5.93e-07
0.3	308.15	7.529e-06	7.08e-07
0.3	313.15	9.628e-06	9.05e-07
0.3	318.15	1.161e-05	1.09e-06
0.3	323.15	1.399e-05	1.32e-06
0.3	328.15	1.687e-05	1.59e-06
0.3	333.15	1.955e-05	1.84e-06
0.4	283.15	5.717e-06	5.38e-07
0.4	288.15	7.168e-06	6.74e-07
0.4	293.15	8.988e-06	8.45e-07
0.4	298.15	1.105e-05	1.04e-06
0.4	303.15	1.358e-05	1.28e-06
0.4	308.15	1.654e-05	1.56e-06
0.4	313.15	2.033e-05	1.91e-06
0.4	318.15	2.5e-05	2.35e-06
0.4	323.15	2.984e-05	2.81e-06
0.4	328.15	3.527e-05	3.32e-06
0.4	333.15	4.252e-05	4e-06
0.5	283.15	1.268e-05	1.19e-06
0.5	288.15	1.559e-05	1.47e-06
0.5	293.15	1.974e-05	1.86e-06
0.5	298.15	2.403e-05	2.26e-06
0.5	303.15	2.955e-05	2.78e-06
0.5	308.15	3.562e-05	3.35e-06
0.5	313.15	4.422e-05	4.16e-06
0.5	318.15	5.227e-05	4.92e-06
0.5	323.15	6.179e-05	5.81e-06
0.5	328.15	7.303e-05	6.87e-06
0.5	333.15	8.464e-05	7.96e-06
0.6	283.15	2.678e-05	2.52e-06
0.6	288.15	3.358e-05	3.16e-06
0.6	293.15	4.128e-05	3.88e-06
0.6	298.15	5.279e-05	4.96e-06
0.6	303.15	6.302e-05	5.93e-06
0.6	308.15	7.522e-05	7.07e-06
0.6	313.15	9.248e-05	8.7e-06
0.6	318.15	0.0001082	1.02e-05
0.6	323.15	0.0001279	1.2e-05
0.6	328.15	0.0001483	1.39e-05
0.6	333.15	0.0001788	1.68e-05
0.7	283.15	5.331e-05	5.01e-06
0.7	288.15	6.751e-05	6.35e-06
0.7	293.15	8.3e-05	7.81e-06
0.7	298.15	0.000102	9.6e-06
0.7	303.15	0.0001254	1.18e-05
0.7	308.15	0.0001483	1.39e-05
0.7	313.15	0.0001788	1.68e-05
0.7	318.15	0.0002113	1.99e-05
0.7	323.15	0.0002473	2.33e-05
0.7	328.15	0.0002866	2.7e-05
0.7	333.15	0.0003355	3.16e-05
0.8	283.15	0.0001075	1.01e-05
0.8	288.15	0.0001318	1.24e-05
0.8	293.15	0.0001589	1.49e-05
0.8	298.15	0.0001953	1.84e-05
0.8	303.15	0.0002308	2.17e-05
0.8	308.15	0.0002783	2.62e-05
0.8	313.15	0.0003355	3.15e-05
0.8	318.15	0.0003926	3.69e-05
0.8	323.15	0.0004641	4.36e-05
0.8	328.15	0.0005379	5.06e-05
0.8	333.15	0.0005993	5.64e-05
0.9	283.15	0.0002473	2.33e-05
0.9	288.15	0.0002952	2.78e-05
0.9	293.15	0.0003559	3.35e-05
0.9	298.15	0.0004248	3.99e-05
0.9	303.15	0.0004972	4.68e-05
0.9	308.15	0.0006053	5.69e-05
0.9	313.15	0.0007154	6.73e-05
0.9	318.15	0.0008374	7.87e-05
0.9	323.15	0.0009801	9.22e-05
0.9	328.15	0.00114	0.000107
0.9	333.15	0.0013	0.000122

System: flubendazole + dimethyl sulfoxide + water; phases: Liquid, Crystal
Fixed: Pressure, kPa = 101.1
Property: Mole fraction of flubendazole (Liquid); method: Chromatography
Solvent: Mass fraction of dimethyl sulfoxide	Temperature, K	Mole fraction of flubendazole	uncertainty
0.1	293.15	9.326e-07	8.77e-08
0.1	298.15	1.181e-06	1.11e-07
0.1	303.15	1.466e-06	1.38e-07
0.1	308.15	1.821e-06	1.71e-07
0.1	313.15	2.173e-06	2.04e-07
0.1	318.15	2.672e-06	2.51e-07
0.1	323.15	3.317e-06	3.12e-07
0.1	328.15	3.999e-06	3.76e-07
0.1	333.15	4.821e-06	4.54e-07
0.2	293.15	2.374e-06	2.23e-07
0.2	298.15	2.919e-06	2.75e-07
0.2	303.15	3.589e-06	3.38e-07
0.2	308.15	4.412e-06	4.15e-07
0.2	313.15	5.319e-06	5e-07
0.2	318.15	6.475e-06	6.09e-07
0.2	323.15	7.883e-06	7.41e-07
0.2	328.15	9.503e-06	8.94e-07
0.2	333.15	1.157e-05	1.09e-06
0.3	293.15	4.242e-06	3.99e-07
0.3	298.15	5.164e-06	4.86e-07
0.3	303.15	6.225e-06	5.85e-07
0.3	308.15	7.806e-06	7.34e-07
0.3	313.15	9.41e-06	8.85e-07
0.3	318.15	1.168e-05	1.1e-06
0.3	323.15	1.395e-05	1.31e-06
0.3	328.15	1.648e-05	1.55e-06
0.3	333.15	1.948e-05	1.83e-06
0.4	293.15	8.528e-06	8.02e-07
0.4	298.15	1.028e-05	9.7e-07
0.4	303.15	1.239e-05	1.17e-06
0.4	308.15	1.539e-05	1.45e-06
0.4	313.15	1.837e-05	1.73e-06
0.4	318.15	2.258e-05	2.12e-06
0.4	323.15	2.643e-05	2.49e-06
0.4	328.15	3.218e-05	3.03e-06
0.4	333.15	3.766e-05	3.54e-06
0.5	293.15	1.451e-05	1.36e-06
0.5	298.15	1.801e-05	1.69e-06
0.5	303.15	2.129e-05	2e-06
0.5	308.15	2.617e-05	2.46e-06
0.5	313.15	3.063e-05	2.88e-06
0.5	318.15	3.729e-05	3.51e-06
0.5	323.15	4.365e-05	4.11e-06
0.5	328.15	5.262e-05	4.95e-06
0.5	333.15	6.039e-05	5.68e-06
0.6	293.15	3.282e-05	3.09e-06
0.6	298.15	4.035e-05	3.8e-06
0.6	303.15	4.912e-05	4.62e-06
0.6	308.15	5.693e-05	5.35e-06
0.6	313.15	6.862e-05	6.45e-06
0.6	318.15	8.191e-05	7.7e-06
0.6	323.15	9.778e-05	9.2e-06
0.6	328.15	0.0001122	1.06e-05
0.6	333.15	0.0001275	1.2e-05
0.7	293.15	9.494e-05	8.93e-06
0.7	298.15	0.00011	1.03e-05
0.7	303.15	0.0001313	1.23e-05
0.7	308.15	0.0001552	1.46e-05
0.7	313.15	0.0001835	1.73e-05
0.7	318.15	0.0002169	2.04e-05
0.7	323.15	0.0002539	2.39e-05
0.7	328.15	0.0002942	2.77e-05
0.7	333.15	0.0003444	3.24e-05
0.8	293.15	0.0002829	2.66e-05
0.8	298.15	0.0003311	3.11e-05
0.8	303.15	0.0004031	3.79e-05
0.8	308.15	0.0004672	4.39e-05
0.8	313.15	0.0005414	5.09e-05
0.8	318.15	0.0006463	6.08e-05
0.8	323.15	0.0007417	6.97e-05
0.8	328.15	0.0008512	8e-05
0.8	333.15	0.0009673	9.11e-05
0.9	293.15	0.0008767	8.24e-05
0.9	298.15	0.001036	9.7e-05
0.9	303.15	0.001234	0.000116
0.9	308.15	0.001462	0.000137
0.9	313.15	0.001645	0.000155
0.9	318.15	0.001926	0.000181
0.9	323.15	0.002254	0.000212
0.9	328.15	0.002638	0.000248
0.9	333.15	0.00294	0.000276

System: flubendazole + propan-2-ol + water; phases: Liquid, Crystal
Fixed: Pressure, kPa = 101.1
Property: Mole fraction of flubendazole (Liquid); method: Chromatography
Solvent: Mass fraction of propan-2-ol	Temperature, K	Mole fraction of flubendazole	uncertainty
0.1	283.15	2.381e-07	2.24e-08
0.1	288.15	3.009e-07	2.83e-08
0.1	293.15	3.774e-07	3.55e-08
0.1	298.15	4.702e-07	4.42e-08
0.1	303.15	5.817e-07	5.47e-08
0.1	308.15	7.151e-07	6.72e-08
0.1	313.15	8.738e-07	8.22e-08
0.1	318.15	1.061e-06	1e-07
0.1	323.15	1.282e-06	1.21e-07
0.1	328.15	1.541e-06	1.45e-07
0.1	333.15	1.842e-06	1.73e-07
0.2	283.15	4.697e-07	4.42e-08
0.2	288.15	5.877e-07	5.53e-08
0.2	293.15	7.302e-07	6.87e-08
0.2	298.15	9.012e-07	8.47e-08
0.2	303.15	1.105e-06	1.04e-07
0.2	308.15	1.347e-06	1.27e-07
0.2	313.15	1.632e-06	1.53e-07
0.2	318.15	1.967e-06	1.85e-07
0.2	323.15	2.358e-06	2.22e-07
0.2	328.15	2.812e-06	2.64e-07
0.2	333.15	3.338e-06	3.14e-07
0.3	283.15	9.189e-07	8.64e-08
0.3	288.15	1.139e-06	1.07e-07
0.3	293.15	1.401e-06	1.32e-07
0.3	298.15	1.714e-06	1.61e-07
0.3	303.15	2.083e-06	1.96e-07
0.3	308.15	2.518e-06	2.37e-07
0.3	313.15	3.026e-06	2.85e-07
0.3	318.15	3.618e-06	3.4e-07
0.3	323.15	4.304e-06	4.05e-07
0.3	328.15	5.096e-06	4.79e-07
0.3	333.15	6.006e-06	5.65e-07
0.4	283.15	1.935e-06	1.82e-07
0.4	288.15	2.371e-06	2.23e-07
0.4	293.15	2.888e-06	2.72e-07
0.4	298.15	3.495e-06	3.29e-07
0.4	303.15	4.207e-06	3.96e-07
0.4	308.15	5.035e-06	4.74e-07
0.4	313.15	5.997e-06	5.64e-07
0.4	318.15	7.106e-06	6.68e-07
0.4	323.15	8.382e-06	7.88e-07
0.4	328.15	9.842e-06	9.26e-07
0.4	333.15	1.151e-05	1.08e-06
0.5	283.15	4.35e-06	4.09e-07
0.5	288.15	5.265e-06	4.95e-07
0.5	293.15	6.335e-06	5.96e-07
0.5	298.15	7.582e-06	7.13e-07
0.5	303.15	9.025e-06	8.49e-07
0.5	308.15	1.069e-05	1.01e-06
0.5	313.15	1.26e-05	1.19e-06
0.5	318.15	1.479e-05	1.39e-06
0.5	323.15	1.728e-05	1.63e-06
0.5	328.15	2.01e-05	1.89e-06
0.5	333.15	2.329e-05	2.19e-06
0.6	283.15	1.01e-05	9.5e-07
0.6	288.15	1.207e-05	1.14e-06
0.6	293.15	1.435e-05	1.35e-06
0.6	298.15	1.697e-05	1.6e-06
0.6	303.15	1.997e-05	1.88e-06
0.6	308.15	2.34e-05	2.2e-06
0.6	313.15	2.729e-05	2.57e-06
0.6	318.15	3.169e-05	2.98e-06
0.6	323.15	3.666e-05	3.45e-06
0.6	328.15	4.225e-05	3.97e-06
0.6	333.15	4.85e-05	4.56e-06
0.7	283.15	2.079e-05	1.96e-06
0.7	288.15	2.458e-05	2.31e-06
0.7	293.15	2.892e-05	2.72e-06
0.7	298.15	3.386e-05	3.18e-06
0.7	303.15	3.947e-05	3.71e-06
0.7	308.15	4.581e-05	4.31e-06
0.7	313.15	5.295e-05	4.98e-06
0.7	318.15	6.098e-05	5.73e-06
0.7	323.15	6.996e-05	6.58e-06
0.7	328.15	7.997e-05	7.52e-06
0.7	333.15	9.111e-05	8.57e-06
0.8	283.15	3.04e-05	2.86e-06
0.8	288.15	3.576e-05	3.36e-06
0.8	293.15	4.188e-05	3.94e-06
0.8	298.15	4.882e-05	4.59e-06
0.8	303.15	5.667e-05	5.33e-06
0.8	308.15	6.551e-05	6.16e-06
0.8	313.15	7.543e-05	7.09e-06
0.8	318.15	8.654e-05	8.14e-06
0.8	323.15	9.893e-05	9.3e-06
0.8	328.15	0.0001127	1.06e-05
0.8	333.15	0.000128	1.2e-05
0.9	283.15	1.849e-05	1.74e-06
0.9	288.15	2.186e-05	2.06e-06
0.9	293.15	2.573e-05	2.42e-06
0.9	298.15	3.013e-05	2.83e-06
0.9	303.15	3.506e-05	3.3e-06
0.9	308.15	4.091e-05	3.85e-06
0.9	313.15	4.737e-05	4.45e-06
0.9	318.15	5.438e-05	5.11e-06
0.9	323.15	6.273e-05	5.9e-06
0.9	328.15	7.195e-05	6.77e-06
0.9	333.15	8.181e-05	7.69e-06
