Measured thermophysical data. Apparent molar volumes and apparent molar heat capacities of aqueous KI, HIO3, NaIO3, and KIO3 at temperatures from 278.15 K to 393.15 K and at the pressure 0.35 MPa
Source: J. Chem. Thermodyn., 2008, 10.1016/j.jct.2007.05.008
Compound 1: potassium iodide, IK, InChI=1S/HI.K/h1H;/q;+1/p-1, purity 99.9%
Compound 2: iodic acid, HIO3, InChI=1S/HIO3/c2-1(3)4/h(H,2,3,4), purity 98.5%
Compound 3: iodic acid, sodium salt, INaO3, InChI=1S/HIO3.Na/c2-1(3)4;/h(H,2,3,4);/q;+1/p-1, purity 99.9%
Compound 4: potassium iodate, IKO3, InChI=1S/HIO3.K/c2-1(3)4;/h(H,2,3,4);/q;+1/p-1, purity 99.9%
Compound 5: water, H2O, InChI=1S/H2O/h1H2, purity 99.99%

System: potassium iodide + water; phases: Liquid
Fixed: Pressure, kPa = 350
Property: Apparent molar heat capacity, J/K/mol (Liquid); method: Extra sensitive DSC
Temperature, K	Molality, mol/kg of potassium iodide	Apparent molar heat capacity, J/K/mol	uncertainty
278.15	0.0151	-172	87
278.15	0.0299	-176	45
278.15	0.0701	-174.9	19.1
278.15	0.2001	-165.4	9.9
278.15	0.5376	-145.6	7.9
278.15	0.6957	-137.6	6.4
278.15	1.0006	-125.2	6.2
278.15	2.5002	-73.3	5.6
278.15	4.0008	-37.3	5.2
278.15	5.4786	-35.6	5.2
283.15	0.0151	-152	79
283.15	0.0299	-152	41
283.15	0.0701	-146.8	18.9
283.15	0.2001	-138.4	9.9
283.15	0.5376	-121	7.9
283.15	0.6957	-113.8	6.6
283.15	1.0006	-102.6	6.2
283.15	2.5002	-55.7	5.6
283.15	4.0008	-22.5	5.2
283.15	5.4786	-16	5.2
288.15	0.0151	-133	79
288.15	0.0299	-133	40
288.15	0.0701	-127.5	18.6
288.15	0.2001	-119.9	9.6
288.15	0.5376	-104.5	7.5
288.15	0.6957	-98.1	6.3
288.15	1.0006	-88.1	6
288.15	2.5002	-45.3	5.4
288.15	4.0008	-14.1	5
288.15	5.4786	-7.4	5.2
293.15	0.0151	-119	78
293.15	0.0299	-118	40
293.15	0.0701	-112.7	18.3
293.15	0.2001	-105.6	9.4
293.15	0.5376	-91.7	7.5
293.15	0.6957	-85.9	6.1
293.15	1.0006	-77	5.8
293.15	2.5002	-37.6	5.4
293.15	4.0008	-8	5
293.15	5.4786	-2.3	5
298.15	0.0151	-108	76
298.15	0.0299	-107	40
298.15	0.0701	-102.4	18.1
298.15	0.2001	-95.5	9.2
298.15	0.5376	-82.8	7.3
298.15	0.6957	-77.6	6.1
298.15	1.0006	-69.4	5.8
298.15	2.5002	-32.4	5.4
298.15	4.0008	-4.2	5
298.15	5.4786	0	5
303.15	0.0151	-100	76
303.15	0.0299	-99	38
303.15	0.0701	-94.1	18
303.15	0.2001	-87.4	9.2
303.15	0.5376	-75.6	7.3
303.15	0.6957	-70.8	6.1
303.15	1.0006	-63.2	5.8
303.15	2.5002	-28.6	5.4
303.15	4.0008	-1.4	5
303.15	5.4786	1.3	5
308.15	0.0151	-94	74
308.15	0.0299	-92	38
308.15	0.0701	-87.9	17.8
308.15	0.2001	-81.4	9.2
308.15	0.5376	-70.3	7.3
308.15	0.6957	-65.9	6.1
308.15	1.0006	-58.8	5.8
308.15	2.5002	-26	5.4
308.15	4.0008	0.4	5
308.15	5.4786	1.8	5
313.15	0.0151	-89	74
313.15	0.0299	-88	38
313.15	0.0701	-83.3	17.6
313.15	0.2001	-77.1	9.1
313.15	0.5376	-66.6	7.3
313.15	0.6957	-62.4	6.1
313.15	1.0006	-55.7	5.8
313.15	2.5002	-24.2	5.4
313.15	4.0008	1.4	5
313.15	5.4786	1.7	5.2
318.15	0.0151	-86	73
318.15	0.0299	-85	38
318.15	0.0701	-80.1	17.5
318.15	0.2001	-74	9.1
318.15	0.5376	-63.8	7.3
318.15	0.6957	-59.8	6.1
318.15	1.0006	-53.5	6
318.15	2.5002	-23.2	5.4
318.15	4.0008	1.9	5.2
318.15	5.4786	1.2	5.2
323.15	0.0151	-84	73
323.15	0.0299	-82	37
323.15	0.0701	-78	17.3
323.15	0.2001	-72	9.1
323.15	0.5376	-62.1	7.3
323.15	0.6957	-58.2	6.3
323.15	1.0006	-52.2	6
323.15	2.5002	-22.7	5.6
323.15	4.0008	2	5.2
323.15	5.4786	0.4	5.2
328.15	0.0151	-83	71
328.15	0.0299	-81	37
328.15	0.0701	-76.8	17.2
328.15	0.2001	-70.9	9.1
328.15	0.5376	-61.2	7.5
328.15	0.6957	-57.4	6.3
328.15	1.0006	-51.6	6
328.15	2.5002	-22.7	5.6
328.15	4.0008	1.7	5.2
328.15	5.4786	-0.7	5.4
333.15	0.0151	-82	71
333.15	0.0299	-81	37
333.15	0.0701	-76.2	17
333.15	0.2001	-70.2	9.2
333.15	0.5376	-60.7	7.5
333.15	0.6957	-57	6.3
333.15	1.0006	-51.3	6.2
333.15	2.5002	-23	6
333.15	4.0008	1.3	5.4
333.15	5.4786	-1.7	5.4
338.15	0.0151	-83	70
338.15	0.0299	-81	37
338.15	0.0701	-76	17
338.15	0.2001	-70.1	9.2
338.15	0.5376	-60.6	7.5
338.15	0.6957	-57	6.5
338.15	1.0006	-51.4	6.2
338.15	2.5002	-23.5	5.8
338.15	4.0008	0.6	5.4
338.15	5.4786	-2.8	5.6
343.15	0.0151	-83	70
343.15	0.0299	-81	35
343.15	0.0701	-76.8	16.8
343.15	0.2001	-70.9	9.2
343.15	0.5376	-61.4	7.7
343.15	0.6957	-57.8	6.5
343.15	1.0006	-52.3	6.4
343.15	2.5002	-24.6	5.8
343.15	4.0008	-0.5	5.6
343.15	5.4786	-4.4	5.6
348.15	0.0151	-85	68
348.15	0.0299	-83	35
348.15	0.0701	-78	16.8
348.15	0.2001	-71.9	9.4
348.15	0.5376	-62.4	7.9
348.15	0.6957	-58.8	6.7
348.15	1.0006	-53.3	6.4
348.15	2.5002	-25.7	6
348.15	4.0008	-1.6	5.6
348.15	5.4786	-5.9	5.8
353.15	0.0151	-86	68
353.15	0.0299	-84	35
353.15	0.0701	-79.6	16.7
353.15	0.2001	-73.4	9.4
353.15	0.5376	-63.7	7.9
353.15	0.6957	-60.1	6.9
353.15	1.0006	-54.6	6.6
353.15	2.5002	-26.9	6.2
353.15	4.0008	-2.9	5.8
353.15	5.4786	-7.4	5.8
358.15	0.0151	-89	67
358.15	0.0299	-86	35
358.15	0.0701	-81.4	16.7
358.15	0.2001	-74.9	9.4
358.15	0.5376	-65.1	8.1
358.15	0.6957	-61.5	7.1
358.15	1.0006	-56	6.8
358.15	2.5002	-28.2	6.2
358.15	4.0008	-4.1	5.8
358.15	5.4786	-8.9	6
363.15	0.0151	-91	67
363.15	0.0299	-88	35
363.15	0.0701	-83.4	16.5
363.15	0.2001	-76.6	9.6
363.15	0.5376	-66.7	8.3
363.15	0.6957	-63	7.1
363.15	1.0006	-57.4	7
363.15	2.5002	-29.6	6.4
363.15	4.0008	-5.3	6
363.15	5.4786	-10.1	6.2
368.15	0.0151	-93	66
368.15	0.0299	-91	34
368.15	0.0701	-86	16.5
368.15	0.2001	-79.1	9.6
368.15	0.5376	-68.9	8.3
368.15	0.6957	-65.1	7.3
368.15	1.0006	-59.5	7
368.15	2.5002	-31.5	6.6
368.15	4.0008	-6.9	6.2
368.15	5.4786	-11.8	6.2
373.15	0.0151	-96	66
373.15	0.0299	-94	34
373.15	0.0701	-88.5	16.5
373.15	0.2001	-81.4	9.8
373.15	0.5376	-71	8.5
373.15	0.6957	-67.2	7.5
373.15	1.0006	-61.4	7.2
373.15	2.5002	-33.2	6.6
373.15	4.0008	-8.3	6.2
373.15	5.4786	-13.1	6.4
378.15	0.0151	-99	64
378.15	0.0299	-97	34
378.15	0.0701	-91.4	16.3
378.15	0.2001	-84.2	9.8
378.15	0.5376	-73.5	8.5
378.15	0.6957	-69.6	7.5
378.15	1.0006	-63.8	7.4
378.15	2.5002	-35.1	6.8
378.15	4.0008	-10	6.4
378.15	5.4786	-14.6	6.4
383.15	0.0151	-103	64
383.15	0.0299	-100	34
383.15	0.0701	-94.2	16.3
383.15	0.2001	-87	10
383.15	0.5376	-76.2	8.7
383.15	0.6957	-72.2	7.6
383.15	1.0006	-66.3	7.4
383.15	2.5002	-37.2	6.8
383.15	4.0008	-11.7	6.4
383.15	5.4786	-16.1	6.6
388.15	0.0151	-107	63
388.15	0.0299	-104	32
388.15	0.0701	-97	16.3
388.15	0.2001	-90	10
388.15	0.5376	-79.2	8.9
388.15	0.6957	-75.1	7.6
388.15	1.0006	-69	7.6
388.15	2.5002	-39.6	7
388.15	4.0008	-13.7	6.6
388.15	5.4786	-17.5	6.6
393.15	0.0151	-113	63
393.15	0.0299	-108	32
393.15	0.0701	-99.5	16.3
393.15	0.2001	-93.8	10.4
393.15	0.5376	-83.2	9.1
393.15	0.6957	-79.2	8
393.15	1.0006	-73.1	7.8
393.15	2.5002	-43.8	7.4
393.15	4.0008	-17.7	6.8
393.15	5.4786	-18.9	7

System: potassium iodide + water; phases: Liquid
Fixed: Pressure, kPa = 350
Property: Mass density, kg/m3 (Liquid); method: VIBTUB:UFactor:2
Temperature, K	Molality, mol/kg of potassium iodide	Mass density, kg/m3	uncertainty
278.15	0.0151	1001.67	0.16
278.15	0.0299	1003.68	0.15
278.15	0.0701	1008.43	0.15
278.15	0.2001	1024.58	0.16
278.15	0.5376	1064.35	0.19
278.15	0.6957	1081.95	0.2
278.15	1.0006	1117.05	0.23
278.15	2.5002	1271.29	0.38
278.15	4.6364	1453.94	0.56
278.15	5.4786	1515.42	0.62
278.15	7.5011	1648.17	0.76
283.15	0.0151	1001.47	0.16
283.15	0.0299	1003.4	0.15
283.15	0.0701	1008.17	0.15
283.15	0.2001	1024.09	0.16
283.15	0.5376	1063.61	0.19
283.15	0.6957	1081.08	0.2
283.15	1.0006	1115.82	0.23
283.15	2.5002	1268.99	0.37
283.15	4.6364	1450.65	0.55
283.15	5.4786	1512.83	0.62
283.15	7.5011	1645.23	0.75
288.15	0.0151	1000.88	0.16
288.15	0.0299	1002.77	0.15
288.15	0.0701	1007.55	0.15
288.15	0.2001	1023.33	0.16
288.15	0.5376	1062.62	0.19
288.15	0.6957	1080.04	0.2
288.15	1.0006	1114.31	0.23
288.15	2.5002	1266.38	0.37
288.15	4.6364	1448.01	0.55
288.15	5.4786	1510.11	0.61
288.15	7.5011	1642.29	0.75
298.15	0.0151	998.82	0.17
298.15	0.0299	1000.63	0.15
298.15	0.0701	1005.39	0.15
298.15	0.2001	1021	0.16
298.15	0.5376	1059.83	0.18
298.15	0.6957	1077.25	0.2
298.15	1.0006	1110.96	0.22
298.15	2.5002	1261.31	0.36
298.15	4.6364	1441.32	0.55
298.15	5.4786	1503.36	0.61
298.15	7.5011	1635.01	0.74
308.15	0.0151	995.79	0.16
308.15	0.0299	997.53	0.15
308.15	0.0701	1002.28	0.15
308.15	0.2001	1017.73	0.15
308.15	0.5376	1056.13	0.18
308.15	0.6957	1073.61	0.19
308.15	1.0006	1106.78	0.22
308.15	2.5002	1255.84	0.36
308.15	4.6364	1434.16	0.54
308.15	5.4786	1495.89	0.6
308.15	7.5011	1626.88	0.74
318.15	0.0151	991.94	0.16
318.15	0.0299	993.68	0.15
318.15	0.0701	998.38	0.15
318.15	0.2001	1013.67	0.15
318.15	0.5376	1051.77	0.18
318.15	0.6957	1069.13	0.19
318.15	1.0006	1101.94	0.22
318.15	2.5002	1249.89	0.35
318.15	4.6364	1426.64	0.53
318.15	5.4786	1488.09	0.59
318.15	7.5011	1618.36	0.73
328.15	0.0151	987.43	0.16
328.15	0.0299	989.17	0.15
328.15	0.0701	993.85	0.15
328.15	0.2001	1008.93	0.15
328.15	0.5376	1046.78	0.17
328.15	0.6957	1064	0.18
328.15	1.0006	1096.55	0.21
328.15	2.5002	1243.46	0.35
328.15	4.6364	1418.83	0.52
328.15	5.4786	1479.85	0.58
328.15	7.5011	1609.25	0.72
338.15	0.0151	982.32	0.17
338.15	0.0299	984.03	0.15
338.15	0.0701	988.65	0.15
338.15	0.2001	1003.58	0.14
338.15	0.5376	1041.14	0.17
338.15	0.6957	1058.16	0.18
338.15	1.0006	1090.66	0.21
338.15	2.5002	1236.58	0.34
338.15	4.6364	1410.65	0.51
338.15	5.4786	1471.57	0.57
338.15	7.5011	1600.65	0.71
348.15	0.0151	976.56	0.17
348.15	0.0299	978.32	0.16
348.15	0.0701	982.92	0.15
348.15	0.2001	997.75	0.14
348.15	0.5376	1035.02	0.16
348.15	0.6957	1051.97	0.17
348.15	1.0006	1084.3	0.2
348.15	2.5002	1229.37	0.33
348.15	4.6364	1402.31	0.51
348.15	5.4786	1463.16	0.57
348.15	7.5011	1591.74	0.7
358.15	0.0151	970.33	0.18
358.15	0.0299	972.11	0.16
358.15	0.0701	976.68	0.16
358.15	0.2001	991.55	0.15
358.15	0.5376	1028.65	0.16
358.15	0.6957	1045.42	0.17
358.15	1.0006	1077.52	0.2
358.15	2.5002	1221.83	0.32
358.15	4.6364	1393.66	0.5
358.15	5.4786	1455.05	0.56
358.15	7.5011	1583.19	0.69
368.15	0.0151	963.58	0.17
368.15	0.0299	965.34	0.17
368.15	0.0701	969.93	0.16
368.15	0.2001	984.74	0.15
368.15	0.5376	1021.81	0.16
368.15	0.6957	1038.47	0.16
368.15	1.0006	1070.31	0.19
368.15	2.5002	1213.99	0.33
368.15	4.6364	1384.78	0.49
368.15	5.4786	1446.45	0.55
368.15	7.5011	1574.23	0.68

System: water + iodic acid; phases: Liquid
Fixed: Pressure, kPa = 350
Property: Apparent molar heat capacity, J/K/mol (Liquid); method: Extra sensitive DSC
Temperature, K	Molality, mol/kg of iodic acid	Apparent molar heat capacity, J/K/mol	uncertainty
278.15	0.015	-162	86
278.15	0.0302	-170	48
278.15	0.0602	-158	23
278.15	0.125	-123.5	15.8
278.15	0.2508	-88.7	11.5
278.15	0.5019	-47.1	10.1
278.15	0.8029	-6.3	9.2
278.15	1.0029	18.7	8.8
283.15	0.015	-128	81
283.15	0.0302	-130	53
283.15	0.0602	-124.9	22.9
283.15	0.125	-90.1	16.3
283.15	0.2508	-63.4	11.1
283.15	0.5019	-25	9.9
283.15	0.8029	8.3	9
283.15	1.0029	29.9	8.8
288.15	0.015	-109	81
288.15	0.0302	-91	61
288.15	0.0602	-100	22.4
288.15	0.125	-63	17.5
288.15	0.2508	-43.3	10.8
288.15	0.5019	-6.7	9.9
288.15	0.8029	20.9	9
288.15	1.0029	39.2	8.6
293.15	0.015	-88	79
293.15	0.0302	-67	64
293.15	0.0602	-78.5	22.3
293.15	0.125	-40.9	18.3
293.15	0.2508	-26	10.6
293.15	0.5019	8.6	9.9
293.15	0.8029	32.2	9.1
293.15	1.0029	47.5	8.4
298.15	0.015	-71	79
298.15	0.0302	-51	55
298.15	0.0602	-60.8	22.1
298.15	0.125	-25.4	16.4
298.15	0.2508	-11.6	10.4
298.15	0.5019	20.4	9.3
298.15	0.8029	41.6	8.7
298.15	1.0029	54.6	8.4
303.15	0.015	-56	79
303.15	0.0302	-35	46
303.15	0.0602	-45.7	22
303.15	0.125	-13.3	14.5
303.15	0.2508	0.8	10.4
303.15	0.5019	30.3	9.1
303.15	0.8029	49.7	8.5
303.15	1.0029	60.9	8.4
308.15	0.015	-44	78
308.15	0.0302	-20	46
308.15	0.0602	-33.1	21.8
308.15	0.125	-3.1	14.5
308.15	0.2508	11.3	10.2
308.15	0.5019	38.9	8.9
308.15	0.8029	56.9	8.5
308.15	1.0029	66.5	8.2
313.15	0.015	-35	78
313.15	0.0302	-5	50
313.15	0.0602	-22.6	21.6
313.15	0.125	5.8	14.9
313.15	0.2508	20.2	10
313.15	0.5019	46.5	8.9
313.15	0.8029	63.2	8.5
313.15	1.0029	71.5	8.2
318.15	0.015	-27	78
318.15	0.0302	4	52
318.15	0.0602	-13.5	21.6
318.15	0.125	13.8	15.3
318.15	0.2508	27.9	10
318.15	0.5019	53.1	8.9
318.15	0.8029	68.8	8.5
318.15	1.0029	75.9	8.2
323.15	0.015	-20	78
323.15	0.0302	4	52
323.15	0.0602	-6	21.5
323.15	0.125	21.9	15.3
323.15	0.2508	34.5	10
323.15	0.5019	59.3	8.7
323.15	0.8029	73.8	8.3
323.15	1.0029	80	8
328.15	0.015	-14	78
328.15	0.0302	4	52
328.15	0.0602	0.4	21.3
328.15	0.125	28.8	15.1
328.15	0.2508	40.4	9.8
328.15	0.5019	64.8	8.7
328.15	0.8029	78.3	8.3
328.15	1.0029	83.6	8
333.15	0.015	-10	76
333.15	0.0302	6	50
333.15	0.0602	6	21.3
333.15	0.125	33.9	15.1
333.15	0.2508	45.5	9.8
333.15	0.5019	69.9	8.7
333.15	0.8029	82.5	8.3
333.15	1.0029	87	8.1
338.15	0.015	-6	76
338.15	0.0302	8	50
338.15	0.0602	10.8	21.2
338.15	0.125	38.9	14.9
338.15	0.2508	50.1	9.8
338.15	0.5019	74.4	8.5
338.15	0.8029	86.3	8.1
338.15	1.0029	90.2	8.1
343.15	0.015	-3	76
343.15	0.0302	12	50
343.15	0.0602	14.8	21.2
343.15	0.125	43.5	14.8
343.15	0.2508	54.1	9.7
343.15	0.5019	78.3	8.5
343.15	0.8029	89.5	8.1
343.15	1.0029	93.1	8.1
348.15	0.015	-1	76
348.15	0.0302	16	46
348.15	0.0602	18.3	21.2
348.15	0.125	47.7	14.2
348.15	0.2508	57.7	9.7
348.15	0.5019	81.7	8.5
348.15	0.8029	92.4	8.1
348.15	1.0029	95.8	8.1
353.15	0.015	1	76
353.15	0.0302	21	45
353.15	0.0602	21.4	21
353.15	0.125	51.6	13.9
353.15	0.2508	60.8	9.7
353.15	0.5019	84.8	8.6
353.15	0.8029	95.1	8.1
353.15	1.0029	98.4	7.9
358.15	0.015	2	76
358.15	0.0302	24	45
358.15	0.0602	24.1	21
358.15	0.125	54.9	13.7
358.15	0.2508	63.7	9.7
358.15	0.5019	87.7	8.4
358.15	0.8029	97.7	8.1
358.15	1.0029	100.8	7.9
363.15	0.015	4	76
363.15	0.0302	27	45
363.15	0.0602	26.4	21
363.15	0.125	58.2	13.7
363.15	0.2508	66.2	9.7
363.15	0.5019	90.3	8.4
363.15	0.8029	100.1	8.1
363.15	1.0029	103.2	7.9
368.15	0.015	3	75
368.15	0.0302	29	43
368.15	0.0602	28.3	20.9
368.15	0.125	61	13.5
368.15	0.2508	68.4	9.7
368.15	0.5019	92.6	8.4
368.15	0.8029	102.4	8.1
368.15	1.0029	105.4	7.9
373.15	0.015	4	75
373.15	0.0302	30	43
373.15	0.0602	30.1	20.9
373.15	0.125	63.3	13.3
373.15	0.2508	70.4	9.7
373.15	0.5019	94.8	8.4
373.15	0.8029	104.5	8.1
373.15	1.0029	107.6	7.9
378.15	0.015	3	75
378.15	0.0302	31	41
378.15	0.0602	31.2	20.9
378.15	0.125	65	13
378.15	0.2508	72.2	9.7
378.15	0.5019	96.7	8.4
378.15	0.8029	106.5	7.9
378.15	1.0029	109.7	7.9
383.15	0.015	2	75
383.15	0.0302	29	38
383.15	0.0602	32.2	20.9
383.15	0.125	65.8	12.6
383.15	0.2508	73.7	9.7
383.15	0.5019	98.4	8.4
383.15	0.8029	108.4	7.9
383.15	1.0029	111.7	7.9
388.15	0.015	2	75
388.15	0.0302	28	38
388.15	0.0602	33.1	20.9
388.15	0.125	66.5	12.4
388.15	0.2508	74.7	9.7
388.15	0.5019	100	8.4
388.15	0.8029	110.2	7.9
388.15	1.0029	113.5	7.9
393.15	0.015	1	75
393.15	0.0302	26	40
393.15	0.0602	33.4	20.9
393.15	0.125	67.7	12.8
393.15	0.2508	75.3	9.7
393.15	0.5019	101.6	8.4
393.15	0.8029	112.3	7.9
393.15	1.0029	114.8	7.9

System: water + iodic acid; phases: Liquid
Fixed: Pressure, kPa = 350
Property: Mass density, kg/m3 (Liquid); method: VIBTUB:UFactor:8
Temperature, K	Molality, mol/kg of iodic acid	Mass density, kg/m3	uncertainty
278.15	0.015	1002.51	0.36
278.15	0.0302	1004.83	0.37
278.15	0.0602	1009.27	0.39
278.15	0.125	1019.5	0.43
278.15	0.2508	1038.41	0.5
278.15	0.5019	1075.21	0.65
278.15	0.8029	1118.53	0.84
278.15	1.0029	1147.59	0.96
283.15	0.015	1002.15	0.37
283.15	0.0302	1004.47	0.37
283.15	0.0602	1008.95	0.39
283.15	0.125	1019.01	0.43
283.15	0.2508	1037.86	0.5
283.15	0.5019	1074.5	0.65
283.15	0.8029	1117.65	0.83
283.15	1.0029	1146.41	0.96
288.15	0.015	1001.54	0.36
288.15	0.0302	1003.79	0.37
288.15	0.0602	1008.27	0.39
288.15	0.125	1018.23	0.42
288.15	0.2508	1037.01	0.5
288.15	0.5019	1073.42	0.65
288.15	0.8029	1116.43	0.83
288.15	1.0029	1145.13	0.95
298.15	0.015	999.43	0.36
298.15	0.0302	1001.66	0.36
298.15	0.0602	1006.06	0.38
298.15	0.125	1015.97	0.41
298.15	0.2508	1034.49	0.49
298.15	0.5019	1070.43	0.63
298.15	0.8029	1113.13	0.81
298.15	1.0029	1141.45	0.93
308.15	0.015	996.4	0.37
308.15	0.0302	998.59	0.36
308.15	0.0602	1002.93	0.37
308.15	0.125	1012.82	0.4
308.15	0.2508	1031.04	0.47
308.15	0.5019	1066.6	0.62
308.15	0.8029	1108.9	0.8
308.15	1.0029	1137.11	0.92
318.15	0.015	992.55	0.38
318.15	0.0302	994.62	0.37
318.15	0.0602	999.03	0.36
318.15	0.125	1008.7	0.39
318.15	0.2508	1026.85	0.46
318.15	0.5019	1062.1	0.6
318.15	0.8029	1104.01	0.78
318.15	1.0029	1132.09	0.9
328.15	0.015	988.02	0.4
328.15	0.0302	990.03	0.39
328.15	0.0602	994.43	0.38
328.15	0.125	1004.06	0.37
328.15	0.2508	1022	0.44
328.15	0.5019	1056.97	0.58
328.15	0.8029	1098.54	0.75
328.15	1.0029	1126.37	0.87
338.15	0.015	982.88	0.42
338.15	0.0302	984.85	0.41
338.15	0.0602	989.21	0.4
338.15	0.125	998.79	0.36
338.15	0.2508	1016.58	0.42
338.15	0.5019	1051.27	0.56
338.15	0.8029	1092.51	0.73
338.15	1.0029	1120.1	0.85
348.15	0.015	977.17	0.44
348.15	0.0302	979.18	0.43
348.15	0.0602	983.45	0.42
348.15	0.125	992.96	0.38
348.15	0.2508	1010.59	0.39
348.15	0.5019	1045.08	0.53
348.15	0.8029	1086.02	0.7
348.15	1.0029	1113.3	0.82
358.18	0.015	971.01	0.47
358.18	0.0302	972.95	0.46
358.18	0.0602	977.2	0.44
358.18	0.125	986.64	0.41
358.18	0.2508	1004.14	0.37
358.18	0.5019	1038.43	0.51
358.18	0.8029	1079.23	0.68
358.18	1.0029	1106.02	0.79
368.15	0.015	964.28	0.49
368.15	0.0302	966.2	0.49
368.15	0.0602	970.45	0.47
368.15	0.125	979.79	0.43
368.15	0.2508	997.19	0.37
368.15	0.5019	1031.28	0.48
368.15	0.8029	1071.77	0.65
368.15	1.0029	1098.32	0.76

System: water + potassium iodate; phases: Liquid
Fixed: Pressure, kPa = 350
Property: Apparent molar heat capacity, J/K/mol (Liquid); method: Extra sensitive DSC
Temperature, K	Molality, mol/kg of potassium iodate	Apparent molar heat capacity, J/K/mol	uncertainty
278.15	0.01	-173	96
278.15	0.02	-178	50
278.15	0.05	-163	26
278.15	0.08	-149.8	19.7
278.15	0.1001	-150.6	18.3
278.15	0.1201	-144.7	17.3
278.15	0.1206	-141.3	17.5
278.15	0.1493	-139.6	16.6
278.15	0.15	-143.1	16.4
278.15	0.1985	-122.6	15.8
278.15	0.1993	-125.3	15.6
278.15	0.01	-178	96
278.15	0.02	-178	52
278.15	0.01	-168	96
278.15	0.02	-184	52
283.15	0.01	-139	97
283.15	0.02	-140	50
283.15	0.05	-124	24
283.15	0.08	-118.2	19.4
283.15	0.1001	-113.8	17.8
283.15	0.1201	-108.5	16.8
283.15	0.1206	-108.1	17
283.15	0.1493	-107.8	16
283.15	0.15	-108.5	16
283.15	0.1985	-90.8	15.2
283.15	0.1993	-92.7	15.2
283.15	0.01	-138	95
283.15	0.02	-140	50
283.15	0.01	-127	95
283.15	0.02	-147	50
288.15	0.01	-111	95
288.15	0.02	-111	50
288.15	0.05	-98	24
288.15	0.08	-91.4	19.1
288.15	0.1001	-86.7	17.4
288.15	0.1201	-81.3	16.4
288.15	0.1206	-81.7	16.6
288.15	0.1493	-82.2	15.7
288.15	0.15	-81.7	15.7
288.15	0.1985	-65.8	14.8
288.15	0.1993	-66.9	14.8
288.15	0.01	-107	94
288.15	0.02	-111	49
288.15	0.01	-110	94
288.15	0.02	-115	49
293.15	0.01	-84	94
293.15	0.02	-84	49
293.15	0.05	-73.8	24.1
293.15	0.08	-68.2	18.7
293.15	0.1001	-63.8	17.1
293.15	0.1201	-58.8	16.1
293.15	0.1206	-59.3	16.2
293.15	0.1493	-59.4	15.3
293.15	0.15	-59.2	15.3
293.15	0.1985	-44.9	14.4
293.15	0.1993	-45.7	14.4
293.15	0.01	-81	93
293.15	0.02	-86	49
293.15	0.01	-83	93
293.15	0.02	-90	49
298.15	0.01	-60	91
298.15	0.02	-63	48
298.15	0.05	-54.9	23.6
298.15	0.08	-49.7	18.4
298.15	0.1001	-45.5	16.7
298.15	0.1201	-40.6	15.9
298.15	0.1206	-41.4	15.9
298.15	0.1493	-41.3	15.1
298.15	0.15	-40.9	14.9
298.15	0.1985	-28.2	14.2
298.15	0.1993	-28.7	14.2
298.15	0.01	-60	91
298.15	0.02	-66	49
298.15	0.01	-62	91
298.15	0.02	-70	49
303.15	0.01	-44	90
303.15	0.02	-50	48
303.15	0.05	-39.1	23.2
303.15	0.08	-34.2	18.1
303.15	0.1001	-30.3	16.6
303.15	0.1201	-25.5	15.5
303.15	0.1206	-26.7	15.7
303.15	0.1493	-26.3	15
303.15	0.15	-25.6	14.8
303.15	0.1985	-14.3	14.1
303.15	0.1993	-14.6	14
303.15	0.01	-46	90
303.15	0.02	-50	48
303.15	0.01	-45	78
303.15	0.02	-54	48
308.15	0.01	-31	90
308.15	0.02	-36	48
308.15	0.05	-25.9	22.9
308.15	0.08	-21.4	17.9
308.15	0.1001	-17.9	16.4
308.15	0.1201	-13.3	15.4
308.15	0.1206	-14.7	15.5
308.15	0.1493	-14	14.8
308.15	0.15	-13.2	14.6
308.15	0.1985	-3.1	13.9
308.15	0.1993	-3.1	13.9
308.15	0.01	-32	90
308.15	0.02	-36	48
308.15	0.01	-31	77
308.15	0.02	-40	48
313.15	0.01	-19	89
313.15	0.02	-24	46
313.15	0.05	-15	22.6
313.15	0.08	-10.9	17.6
313.15	0.1001	-7.5	16.2
313.15	0.1201	-3.2	15.2
313.15	0.1206	-4.6	15.4
313.15	0.1493	-3.7	14.6
313.15	0.15	-3.1	14.4
313.15	0.1985	6.4	13.7
313.15	0.1993	6.3	13.7
313.15	0.01	-20	89
313.15	0.02	-24	46
313.15	0.01	-20	77
313.15	0.02	-29	46
318.15	0.01	-10	88
318.15	0.02	-16	46
318.15	0.05	-6	22.4
318.15	0.08	-2.1	17.4
318.15	0.1001	1	16
318.15	0.1201	5.1	15.2
318.15	0.1206	3.5	15.2
318.15	0.1493	4.6	14.4
318.15	0.15	5.3	14.4
318.15	0.1985	13.8	13.7
318.15	0.1993	14	13.7
318.15	0.01	-9	88
318.15	0.02	-16	46
318.15	0.01	-11	77
318.15	0.02	-21	46
323.15	0.01	-1	87
323.15	0.02	-8	46
323.15	0.05	1.4	22.1
323.15	0.08	5	17.2
323.15	0.1001	7.9	15.9
323.15	0.1201	12	15
323.15	0.1206	10.2	15.2
323.15	0.1493	11.4	14.2
323.15	0.15	12.1	14.2
323.15	0.1985	20	13.5
323.15	0.1993	20.2	13.5
323.15	0.01	1	87
323.15	0.02	-8	46
323.15	0.01	-3	77
323.15	0.02	-13	46
328.15	0.01	5	85
328.15	0.02	3	45
328.15	0.05	7.5	22
328.15	0.08	10.9	17.1
328.15	0.1001	13.7	15.7
328.15	0.1201	17.6	14.8
328.15	0.1206	15.7	15
328.15	0.1493	17.1	14.2
328.15	0.15	17.7	14
328.15	0.1985	25	13.5
328.15	0.1993	25.3	13.5
328.15	0.01	6	85
328.15	0.02	-1	45
328.15	0.01	8	85
328.15	0.02	-7	45
333.15	0.01	10	84
333.15	0.02	8	44
333.15	0.05	12.6	21.8
333.15	0.08	15.8	17.1
333.15	0.1001	18.5	15.7
333.15	0.1201	22.3	14.8
333.15	0.1206	20.3	14.8
333.15	0.1493	21.8	14
333.15	0.15	22.3	14
333.15	0.1985	29.1	13.3
333.15	0.1993	29.4	13.3
333.15	0.01	11	84
333.15	0.02	4	45
333.15	0.01	13	84
333.15	0.02	-2	45
338.15	0.01	15	83
338.15	0.02	13	44
338.15	0.05	16.7	21.7
338.15	0.08	19.8	16.9
338.15	0.1001	22.4	15.5
338.15	0.1201	26.1	14.7
338.15	0.1206	24	14.8
338.15	0.1493	25.6	14
338.15	0.15	26	14
338.15	0.1985	32.2	13.3
338.15	0.1993	32.7	13.3
338.15	0.01	16	83
338.15	0.02	8	44
338.15	0.01	17	83
338.15	0.02	2	44
343.15	0.01	19	82
343.15	0.02	17	43
343.15	0.05	20	21.4
343.15	0.08	22.9	16.8
343.15	0.1001	25.3	15.5
343.15	0.1201	29	14.7
343.15	0.1206	26.8	14.7
343.15	0.1493	28.4	13.9
343.15	0.15	28.7	13.9
343.15	0.1985	34.4	13.3
343.15	0.1993	35	13.3
343.15	0.01	18	82
343.15	0.02	11	44
343.15	0.01	19	82
343.15	0.02	4	44
348.15	0.01	23	81
348.15	0.02	19	43
348.15	0.05	22.6	21.2
348.15	0.08	25.4	16.8
348.15	0.1001	27.7	15.4
348.15	0.1201	31.2	14.7
348.15	0.1206	29	14.7
348.15	0.1493	30.5	13.9
348.15	0.15	30.8	13.9
348.15	0.1985	35.9	13.3
348.15	0.1993	36.7	13.3
348.15	0.01	20	81
348.15	0.02	13	43
348.15	0.01	21	81
348.15	0.02	7	43
353.15	0.01	25	81
353.15	0.02	21	43
353.15	0.05	24.6	21.1
353.15	0.08	27.1	16.6
353.15	0.1001	29.3	15.4
353.15	0.1201	32.8	14.5
353.15	0.1206	30.5	14.5
353.15	0.1493	32.1	13.9
353.15	0.15	32.2	13.9
353.15	0.1985	37	13.1
353.15	0.1993	37.7	13.3
353.15	0.01	21	80
353.15	0.02	15	43
353.15	0.01	22	80
353.15	0.02	9	43
358.15	0.01	26	80
358.15	0.02	23	42
358.15	0.05	26	21
358.15	0.08	28.4	16.6
358.15	0.1001	30.5	15.4
358.15	0.1201	33.9	14.5
358.15	0.1206	31.3	14.5
358.15	0.1493	32.9	13.9
358.15	0.15	33	13.9
358.15	0.1985	37.3	13.1
358.15	0.1993	38.1	13.3
358.15	0.01	22	79
358.15	0.02	16	42
358.15	0.01	23	79
358.15	0.02	10	42
363.15	0.01	28	79
363.15	0.02	24	42
363.15	0.05	26.9	20.8
363.15	0.08	29.3	16.6
363.15	0.1001	31.2	15.4
363.15	0.1201	34.4	14.5
363.15	0.1206	31.7	14.5
363.15	0.1493	33.2	13.7
363.15	0.15	33.4	13.9
363.15	0.1985	37.1	13.1
363.15	0.1993	38.1	13.3
363.15	0.01	23	79
363.15	0.02	18	42
363.15	0.01	24	79
363.15	0.02	11	42
368.15	0.01	29	79
368.15	0.02	25	42
368.15	0.05	27.1	20.7
368.15	0.08	29.4	16.4
368.15	0.1001	31.1	15.4
368.15	0.1201	34.4	14.5
368.15	0.1206	31.5	14.3
368.15	0.1493	32.9	13.7
368.15	0.15	33.1	13.9
368.15	0.1985	36.3	13.1
368.15	0.1993	37.4	13.3
368.15	0.01	23	78
368.15	0.02	18	41
368.15	0.01	24	78
368.15	0.02	11	41
373.15	0.01	29	78
373.15	0.02	25	41
373.15	0.05	27.1	20.7
373.15	0.08	29.3	16.4
373.15	0.1001	30.9	15.4
373.15	0.1201	34	14
373.15	0.1206	30.7	14.3
373.15	0.1493	32	13.7
373.15	0.15	32.5	13.9
373.15	0.1985	35	13.1
373.15	0.1993	36.5	13.5
373.15	0.01	23	78
373.15	0.02	18	41
373.15	0.01	24	78
373.15	0.02	11	41
378.15	0.01	28	78
378.15	0.02	25	41
378.15	0.05	26.6	20.5
378.15	0.08	28.7	16.4
378.15	0.1001	30.2	15.4
378.15	0.1201	33.2	14.7
378.15	0.1206	29.5	14.3
378.15	0.1493	30.7	13.7
378.15	0.15	31.4	14
378.15	0.1985	33.3	13.1
378.15	0.1993	35	13.5
378.15	0.01	22	78
378.15	0.02	17	40
378.15	0.01	24	78
378.15	0.02	10.6	40.4
383.15	0.01	27	78
383.15	0.02	24.1	40.4
383.15	0.05	25.9	20.4
383.15	0.08	27.9	16.4
383.15	0.1001	29.2	15.4
383.15	0.1201	32.1	14.7
383.15	0.1206	28.1	14.3
383.15	0.1493	29.1	13.7
383.15	0.15	29.9	14
383.15	0.1985	31.3	13.1
383.15	0.1993	33.2	13.5
383.15	0.01	22	78
383.15	0.02	15.7	40.1
383.15	0.01	24	78
383.15	0.02	9.5	40.1
388.15	0.01	25	78
388.15	0.02	22.9	40.2
388.15	0.05	24.9	20.4
388.15	0.08	26.8	16.4
388.15	0.1001	27.9	15.4
388.15	0.1201	30.7	14.7
388.15	0.1206	25.9	14.3
388.15	0.1493	26.7	13.7
388.15	0.15	28.3	14
388.15	0.1985	28.7	13.3
388.15	0.1993	31	13.7
388.15	0.01	21	78
388.15	0.02	13.7	39.9
388.15	0.01	24	78
388.15	0.02	7.9	39.9
393.15	0.01	18	78
393.15	0.02	21	40
393.15	0.05	22.9	20.4
393.15	0.08	24.6	16.4
393.15	0.1001	26.4	15.4
393.15	0.1201	29.3	14.7
393.15	0.1206	22.9	14.3
393.15	0.1493	24.1	13.9
393.15	0.15	26.3	14.2
393.15	0.1985	25.6	13.3
393.15	0.1993	28.5	13.7
393.15	0.01	20	78
393.15	0.02	11.2	39.8
393.15	0.01	24	78
393.15	0.02	5.7	39.8

System: water + potassium iodate; phases: Liquid
Fixed: Pressure, kPa = 350
Property: Mass density, kg/m3 (Liquid); method: VIBTUB:UFactor:2
Temperature, K	Molality, mol/kg of potassium iodate	Mass density, kg/m3	uncertainty
278.15	0.01	1001.99	0.19
278.15	0.02	1003.73	0.21
278.15	0.05	1009.45	0.21
278.15	0.08	1014.79	0.2
278.15	0.1001	1018.37	0.21
278.15	0.1201	1022.02	0.21
278.15	0.15	1027.68	0.21
278.15	0.1993	1036.28	0.21
283.15	0.01	1001.69	0.2
283.15	0.02	1003.43	0.21
283.15	0.05	1009.07	0.2
283.15	0.08	1014.35	0.2
283.15	0.1001	1017.96	0.21
283.15	0.1201	1021.56	0.21
283.15	0.15	1027.14	0.21
283.15	0.1993	1035.69	0.21
288.15	0.01	1001.08	0.21
288.15	0.02	1002.81	0.2
288.15	0.05	1008.36	0.2
288.15	0.08	1013.62	0.2
288.15	0.1001	1017.23	0.2
288.15	0.1201	1020.78	0.21
288.15	0.15	1026.34	0.21
288.15	0.1993	1034.8	0.2
298.15	0.01	999.04	0.22
298.15	0.02	1000.72	0.2
298.15	0.05	1006.14	0.2
298.15	0.08	1011.34	0.2
298.15	0.1001	1014.91	0.2
298.15	0.1201	1018.42	0.21
298.15	0.15	1023.84	0.2
298.15	0.1993	1032.22	0.2
308.15	0.01	996.02	0.21
308.15	0.02	997.64	0.2
308.15	0.05	1002.95	0.2
308.15	0.08	1008.21	0.2
308.15	0.1001	1011.71	0.2
308.15	0.1201	1015.15	0.2
308.15	0.15	1020.41	0.2
308.15	0.1993	1028.76	0.2
318.15	0.01	992.17	0.2
318.15	0.02	993.78	0.2
318.15	0.05	999.03	0.19
318.15	0.08	1004.29	0.19
318.15	0.1001	1007.7	0.19
318.15	0.1201	1011.1	0.2
318.15	0.15	1016.26	0.2
318.15	0.1993	1024.55	0.2
328.15	0.01	987.64	0.2
328.15	0.02	989.23	0.2
328.15	0.05	994.41	0.19
328.15	0.08	999.56	0.19
328.15	0.1001	1002.99	0.19
328.15	0.1201	1006.37	0.19
328.15	0.15	1011.43	0.19
328.15	0.1993	1019.68	0.19
338.15	0.01	982.45	0.21
338.15	0.02	984.12	0.2
338.15	0.05	989.2	0.19
338.15	0.08	994.18	0.19
338.15	0.1001	997.72	0.19
338.15	0.1201	1001.05	0.19
338.15	0.15	1006.02	0.19
338.15	0.1993	1014.21	0.19
348.15	0.01	976.73	0.21
348.15	0.02	978.39	0.2
348.15	0.05	983.36	0.2
348.15	0.08	988.37	0.2
348.15	0.1001	991.92	0.19
348.15	0.1201	995.18	0.19
348.15	0.15	1000.1	0.19
348.15	0.1993	1008.25	0.19
358.15	0.01	970.47	0.21
358.15	0.02	972.12	0.2
358.15	0.05	977.08	0.2
358.15	0.08	982.03	0.2
358.15	0.1001	985.59	0.2
358.15	0.1201	988.88	0.19
358.15	0.15	993.74	0.19
358.15	0.1993	1001.86	0.18
368.15	0.01	963.74	0.2
368.15	0.02	965.36	0.2
368.15	0.05	970.29	0.2
368.15	0.08	975.23	0.2
368.15	0.1001	978.77	0.2
368.15	0.1201	982.01	0.19
368.15	0.15	986.89	0.19
368.15	0.1993	994.91	0.19

System: iodic acid, sodium salt + water; phases: Liquid
Fixed: Pressure, kPa = 350
Property: Apparent molar heat capacity, J/K/mol (Liquid); method: Extra sensitive DSC
Temperature, K	Molality, mol/kg of iodic acid, sodium salt	Apparent molar heat capacity, J/K/mol	uncertainty
278.15	0.02	-139	49
278.15	0.0505	-119	23.6
278.15	0.08	-114.1	18.5
278.15	0.1203	-114.9	16
278.15	0.1497	-94.6	15.1
283.15	0.02	-103	48
283.15	0.0505	-83	23.2
283.15	0.08	-82.7	18
283.15	0.1203	-84.9	15.5
283.15	0.1497	-64	14.7
288.15	0.02	-72	46
288.15	0.0505	-53.8	22.7
288.15	0.08	-54.2	17.7
288.15	0.1203	-57.2	15.1
288.15	0.1497	-38.6	14.4
293.15	0.02	-47	46
293.15	0.0505	-30.7	22.3
293.15	0.08	-30.9	17.6
293.15	0.1203	-32.8	15
293.15	0.1497	-17.2	14.2
298.15	0.02	-27	46
298.15	0.0505	-11.4	22
298.15	0.08	-12.3	17.2
298.15	0.1203	-13.2	14.6
298.15	0.1497	0.1	14
303.15	0.02	-11	45
303.15	0.0505	4.8	21.9
303.15	0.08	3	17.1
303.15	0.1203	3.2	14.5
303.15	0.1497	14.3	13.7
308.15	0.02	2	45
308.15	0.0505	17.8	21.6
308.15	0.08	15.4	16.9
308.15	0.1203	16.4	14.3
308.15	0.1497	25.9	13.7
313.15	0.02	13	45
313.15	0.0505	28.6	21.5
313.15	0.08	25.8	16.8
313.15	0.1203	27.5	14.1
313.15	0.1497	35.4	13.5
318.15	0.02	21	45
318.15	0.0505	37.6	21.2
318.15	0.08	34	16.6
318.15	0.1203	36.3	13.9
318.15	0.1497	43	13.3
323.15	0.02	29	44
323.15	0.0505	45	21
323.15	0.08	40.6	16.4
323.15	0.1203	43.7	13.9
323.15	0.1497	49.2	13.3
328.15	0.02	35	44
328.15	0.0505	50.9	20.9
328.15	0.08	46.1	16.3
328.15	0.1203	49.8	13.8
328.15	0.1497	54.2	13.1
333.15	0.02	40	44
333.15	0.0505	55.4	20.6
333.15	0.08	50.8	16.3
333.15	0.1203	54.8	13.8
333.15	0.1497	58.4	13.1
338.15	0.02	44	43
338.15	0.0505	58.9	20.5
338.15	0.08	54.3	16.1
338.15	0.1203	59	13.6
338.15	0.1497	61.7	12.9
343.15	0.02	46	43
343.15	0.0505	61.4	20.3
343.15	0.08	56.8	16
343.15	0.1203	62	13.6
343.15	0.1497	64.2	12.9
348.15	0.02	48	43
348.15	0.0505	63.2	20.2
348.15	0.08	58.6	16
348.15	0.1203	64.2	13.6
348.15	0.1497	65.9	13
353.15	0.02	49	42
353.15	0.0505	64.2	20
353.15	0.08	59.6	15.8
353.15	0.1203	65.6	13.4
353.15	0.1497	67	13
358.15	0.02	49	42
358.15	0.0505	64.5	19.9
358.15	0.08	60.1	15.8
358.15	0.1203	66.3	13.4
358.15	0.1497	67.3	12.8
363.15	0.02	49	42
363.15	0.0505	64.4	19.9
363.15	0.08	60	15.6
363.15	0.1203	66.5	13.4
363.15	0.1497	67.3	12.8
368.15	0.02	48	42
368.15	0.0505	63.6	19.8
368.15	0.08	59.5	15.6
368.15	0.1203	66.2	13.4
368.15	0.1497	66.7	12.8
373.15	0.02	47	41
373.15	0.0505	62.5	19.6
373.15	0.08	58.4	15.6
373.15	0.1203	65.2	13.4
373.15	0.1497	65.7	12.8
378.15	0.02	45	41
378.15	0.0505	61	19.6
378.15	0.08	56.9	15.5
378.15	0.1203	63.9	13.4
378.15	0.1497	64.2	12.8
383.15	0.02	43	41
383.15	0.0505	58.9	19.5
383.15	0.08	55	15.5
383.15	0.1203	62.3	13.4
383.15	0.1497	62.4	12.8
388.15	0.02	39.9	40.6
388.15	0.0505	56.5	19.5
388.15	0.08	52.2	15.5
388.15	0.1203	59.9	13.4
388.15	0.1497	59.9	12.8
393.15	0.02	36.1	40.5
393.15	0.0505	53.5	19.3
393.15	0.08	48.9	15.5
393.15	0.1203	57.3	13.4
393.15	0.1497	56.8	12.9
