Measured thermophysical data. Crystal structure and thermochemical properties of a novel coordination compound manganese D-gluconate tetrahydrate
Source: J. Chem. Thermodyn., 2014, 10.1016/j.jct.2014.03.009
Compound 1: manganese, Mn, InChI=1S/Mn
Compound 2: hydrogen, H2, InChI=1S/H2/h1H
Compound 3: graphite, C
Compound 4: oxygen, O2, InChI=1S/O2/c1-2
Compound 5: sodium (2R,3S,4R,5R)-2,3,4,5,6-pentahydroxyhexanoate, C6H11NaO7, InChI=1S/C6H12O7.Na/c7-1-2(8)3(9)4(10)5(11)6(12)13;/h2-5,7-11H,1H2,(H,12,13);/q;+1/p-1/t2-,3-,4+,5-;/m1./s1, purity 99%
Compound 6: manganese chloride tetrahydrate, Cl2H8MnO4, InChI=1S/2ClH.Mn.4H2O/h2*1H;;4*1H2/q;;+2;;;;/p-2, purity 99%
Compound 7: sodium chloride, ClNa, InChI=1S/ClH.Na/h1H;/q;+1/p-1, purity 99%
Compound 8: manganese(II) D-gluconate tetrahydrate, C12H30MnO18, InChI=1S/2C6H12O7.Mn.4H2O/c2*7-1-2(8)3(9)4(10)5(11)6(12)13;;;;;/h2*2-5,7-11H,1H2,(H,12,13);;4*1H2/q;;+2;;;;/p-2/t2*2-,3-,4+,5-;;;;;/m11...../s1

System: manganese(II) D-gluconate tetrahydrate; phases: Crystal
Property: Mass density, kg/m3 (Crystal); method: X-ray diffraction
Temperature, K	Pressure, kPa	Mass density, kg/m3	uncertainty
298	101.325	1713	8

Reaction: 1 manganese(II) D-gluconate tetrahydrate + -2 sodium (2R,3S,4R,5R)-2,3,4,5,6-pentahydroxyhexanoate + 2 sodium chloride + -1 manganese chloride tetrahydrate
Property: Molar enthalpy of reaction, kJ/mol
11.76

Reaction: 1 manganese(II) D-gluconate tetrahydrate + -1 manganese + -15 hydrogen + -12 graphite + -9 oxygen
Property: Molar enthalpy of reaction, kJ/mol
-4358.72
