Measured thermophysical data. Thermophysical properties of diphenyl ether + biphenyl mixtures for their use as heat transfer fluids
Source: J. Chem. Thermodyn., 2012, 10.1016/j.jct.2012.02.001
Compound 1: diphenyl ether, C12H10O, InChI=1S/C12H10O/c1-3-7-11(8-4-1)13-12-9-5-2-6-10-12/h1-10H, purity 99%
Compound 2: biphenyl, C12H10, InChI=1S/C12H10/c1-3-7-11(8-4-1)12-9-5-2-6-10-12/h1-10H, purity 99.5%

System: diphenyl ether; phases: Liquid
Fixed: Pressure, kPa = 101
Property: Thermal conductivity, W/m/K (Liquid); method: Hot wire method
Temperature, K	Thermal conductivity, W/m/K	uncertainty
303.15	0.129	0.002
313.15	0.13	0.002
323.15	0.135	0.002
333.15	0.141	0.002
343.15	0.147	0.002

System: diphenyl ether; phases: Liquid
Fixed: Pressure, kPa = 101
Property: Viscosity, Pa*s (Liquid); method: Falling or rolling sphere viscometry
Temperature, K	Viscosity, Pa*s	uncertainty
303.15	0.0033	0.00014
308.15	0.00292	0.00012
313.15	0.00261	0.00011
323.15	0.00217	9e-05
333.15	0.00182	8e-05

System: diphenyl ether; phases: Liquid
Property: Mass density, kg/m3 (Liquid); method: Vibrating tube method
Temperature, K	Pressure, kPa	Mass density, kg/m3	uncertainty
303.15	100	1066	0.5
303.15	1000	1066.6	0.5
303.15	5000	1068.8	0.5
303.15	10000	1071.8	0.5
303.15	15000	1074.5	0.5
303.15	20000	1077.2	0.5
303.15	25000	1079.9	0.6
303.15	30000	1082.5	0.6
303.15	35000	1085	0.6
303.15	40000	1087.5	0.6
303.15	45000	1090.2	0.6
313.15	100	1057.4	0.5
313.15	1000	1057.9	0.5
313.15	5000	1060.4	0.5
313.15	10000	1063.3	0.5
313.15	15000	1066.2	0.5
313.15	20000	1069.2	0.5
313.15	25000	1071.9	0.5
313.15	30000	1074.5	0.6
313.15	35000	1077.1	0.6
313.15	40000	1079.7	0.6
313.15	45000	1082.4	0.6
323.15	100	1048.8	0.5
323.15	1000	1049.4	0.5
323.15	5000	1052	0.5
323.15	10000	1055.1	0.5
323.15	15000	1058.1	0.5
323.15	20000	1061.1	0.5
323.15	25000	1063.9	0.5
323.15	30000	1066.8	0.5
323.15	35000	1069.5	0.6
323.15	40000	1072.2	0.6
323.15	45000	1074.9	0.6
333.15	100	1040	0.5
333.15	1000	1040.7	0.5
333.15	5000	1043.2	0.5
333.15	10000	1046.4	0.5
333.15	15000	1049.8	0.5
333.15	20000	1052.9	0.5
333.15	25000	1055.8	0.5
333.15	30000	1058.6	0.5
333.15	35000	1062.3	0.5
333.15	40000	1064.3	0.6
333.15	45000	1067.1	0.6
343.15	100	1031.4	0.5
343.15	1000	1032.2	0.5
343.15	5000	1035	0.5
343.15	10000	1038.3	0.5
343.15	15000	1041.7	0.5
343.15	20000	1044.8	0.5
343.15	25000	1048.1	0.5
343.15	30000	1051.3	0.5
343.15	35000	1054.2	0.5
343.15	40000	1057.1	0.5
343.15	45000	1060.1	0.6
363.15	100	1014	0.5
363.15	1000	1014.6	0.5
363.15	5000	1017.6	0.5
363.15	10000	1021.4	0.5
363.15	15000	1025	0.5
363.15	20000	1028.6	0.5
363.15	25000	1031.9	0.5
363.15	30000	1035.2	0.5
363.15	35000	1038.4	0.5
363.15	40000	1041.9	0.5
363.15	45000	1044.2	0.5

System: biphenyl + diphenyl ether; phases: Liquid
Fixed: Pressure, kPa = 101
Property: Thermal conductivity, W/m/K (Liquid); method: Hot wire method
Mole fraction of diphenyl ether	Temperature, K	Thermal conductivity, W/m/K	uncertainty
0.55	313.15	0.129	0.002
0.55	323.15	0.134	0.002
0.55	333.15	0.14	0.002
0.55	343.15	0.146	0.002
0.705	293.15	0.13	0.002
0.705	303.15	0.128	0.002
0.705	313.15	0.131	0.002
0.705	323.15	0.134	0.002
0.705	333.15	0.14	0.002
0.705	343.15	0.146	0.002
0.85	303.15	0.131	0.002
0.85	313.15	0.133	0.002
0.85	323.15	0.135	0.002
0.85	333.15	0.141	0.002
0.85	343.15	0.145	0.002
1	303.15	0.129	0.002
1	313.15	0.13	0.002
1	323.15	0.135	0.002
1	333.15	0.141	0.002
1	343.15	0.147	0.002

System: biphenyl + diphenyl ether; phases: Liquid
Fixed: Pressure, kPa = 101
Property: Viscosity, Pa*s (Liquid); method: Falling or rolling sphere viscometry
Mole fraction of diphenyl ether	Temperature, K	Viscosity, Pa*s	uncertainty
0.55	308.15	0.00296	0.00012
0.55	313.15	0.00263	0.00011
0.55	323.15	0.00217	9e-05
0.55	333.15	0.00183	8e-05
0.705	288.15	0.00512	0.00021
0.705	293.15	0.00435	0.00018
0.705	298.15	0.00378	0.00016
0.705	303.15	0.00333	0.00014
0.705	308.15	0.00294	0.00012
0.705	313.15	0.00261	0.00011
0.705	323.15	0.00217	9e-05
0.705	333.15	0.00183	8e-05
0.85	298.15	0.00371	0.00015
0.85	303.15	0.00332	0.00014
0.85	308.15	0.00293	0.00012
0.85	313.15	0.00261	0.00011
0.85	323.15	0.00217	9e-05
0.85	333.15	0.00183	8e-05
1	303.15	0.0033	0.00014
1	308.15	0.00292	0.00012
1	313.15	0.00261	0.00011
1	323.15	0.00217	9e-05
1	333.15	0.00182	8e-05

System: biphenyl + diphenyl ether; phases: Liquid
Property: Mass density, kg/m3 (Liquid); method: Vibrating tube method
Mole fraction of diphenyl ether	Temperature, K	Pressure, kPa	Mass density, kg/m3	uncertainty
0.55	313.15	100	1038.9	0.5
0.55	313.15	1000	1039.4	0.5
0.55	313.15	5000	1041.8	0.5
0.55	313.15	10000	1044.6	0.5
0.55	313.15	15000	1047.5	0.5
0.55	313.15	20000	1050.3	0.5
0.55	313.15	25000	1052.9	0.5
0.55	313.15	30000	1055.5	0.5
0.55	313.15	35000	1058.1	0.5
0.55	313.15	40000	1060.5	0.5
0.55	313.15	45000	1063	0.5
0.55	323.15	100	1030.7	0.4
0.55	323.15	1000	1031.2	0.4
0.55	323.15	5000	1033.7	0.4
0.55	323.15	10000	1036.7	0.5
0.55	323.15	15000	1039.6	0.5
0.55	323.15	20000	1042.6	0.5
0.55	323.15	25000	1045.2	0.5
0.55	323.15	30000	1047.9	0.5
0.55	323.15	35000	1050.6	0.5
0.55	323.15	40000	1053.2	0.5
0.55	323.15	45000	1055.8	0.5
0.55	333.15	100	1022.2	0.4
0.55	333.15	1000	1022.8	0.4
0.55	333.15	5000	1025.3	0.4
0.55	333.15	10000	1028.5	0.4
0.55	333.15	15000	1031.6	0.5
0.55	333.15	20000	1034.6	0.5
0.55	333.15	25000	1037.3	0.5
0.55	333.15	30000	1040.2	0.5
0.55	333.15	35000	1042.9	0.5
0.55	333.15	40000	1045.5	0.5
0.55	333.15	45000	1048.1	0.5
0.55	343.15	100	1013.9	0.4
0.55	343.15	1000	1014.5	0.4
0.55	343.15	5000	1017.2	0.4
0.55	343.15	10000	1020.4	0.4
0.55	343.15	15000	1023.7	0.4
0.55	343.15	20000	1026.8	0.5
0.55	343.15	25000	1029.9	0.5
0.55	343.15	30000	1032.8	0.5
0.55	343.15	35000	1035.6	0.5
0.55	343.15	40000	1038.4	0.5
0.55	343.15	45000	1041.3	0.5
0.55	363.15	100	997.1	0.4
0.55	363.15	1000	997.8	0.4
0.55	363.15	5000	1000.7	0.4
0.55	363.15	10000	1004.4	0.4
0.55	363.15	15000	1007.9	0.4
0.55	363.15	20000	1011.3	0.4
0.55	363.15	25000	1014.6	0.4
0.55	363.15	30000	1017.7	0.4
0.55	363.15	35000	1020.7	0.4
0.55	363.15	40000	1024.1	0.5
0.55	363.15	45000	1026.5	0.5
0.705	288.15	100	1066.5	0.5
0.705	288.15	1000	1067	0.5
0.705	288.15	5000	1069.3	0.5
0.705	288.15	10000	1071.9	0.5
0.705	288.15	15000	1074.4	0.5
0.705	288.15	20000	1076.8	0.5
0.705	288.15	25000	1079.3	0.5
0.705	288.15	30000	1081.9	0.5
0.705	288.15	35000	1084.3	0.5
0.705	288.15	40000	1086.6	0.6
0.705	288.15	45000	1088.8	0.6
0.705	293.15	100	1062.3	0.5
0.705	293.15	1000	1062.7	0.5
0.705	293.15	5000	1065	0.5
0.705	293.15	10000	1067.7	0.5
0.705	293.15	15000	1070.3	0.5
0.705	293.15	20000	1072.7	0.5
0.705	293.15	25000	1075.4	0.5
0.705	293.15	30000	1077.9	0.5
0.705	293.15	35000	1080.2	0.5
0.705	293.15	40000	1082.5	0.5
0.705	293.15	45000	1084.9	0.6
0.705	303.15	100	1053.7	0.5
0.705	303.15	1000	1054.3	0.5
0.705	303.15	5000	1056.6	0.5
0.705	303.15	10000	1059.5	0.5
0.705	303.15	15000	1062.2	0.5
0.705	303.15	20000	1064.7	0.5
0.705	303.15	25000	1067.4	0.5
0.705	303.15	30000	1070	0.5
0.705	303.15	35000	1072.5	0.5
0.705	303.15	40000	1074.9	0.5
0.705	303.15	45000	1077.5	0.5
0.705	313.15	100	1045.5	0.5
0.705	313.15	1000	1046	0.5
0.705	313.15	5000	1048.2	0.5
0.705	313.15	10000	1051.1	0.5
0.705	313.15	15000	1054	0.5
0.705	313.15	20000	1056.9	0.5
0.705	313.15	25000	1059.6	0.5
0.705	313.15	30000	1062.4	0.5
0.705	313.15	35000	1064.8	0.5
0.705	313.15	40000	1067.4	0.5
0.705	313.15	45000	1069.9	0.5
0.705	323.15	100	1037.2	0.5
0.705	323.15	1000	1037.7	0.5
0.705	323.15	5000	1040.2	0.5
0.705	323.15	10000	1043.4	0.5
0.705	323.15	15000	1046.4	0.5
0.705	323.15	20000	1049.2	0.5
0.705	323.15	25000	1052	0.5
0.705	323.15	30000	1054.7	0.5
0.705	323.15	35000	1057.5	0.5
0.705	323.15	40000	1059.9	0.5
0.705	323.15	45000	1062.6	0.5
0.705	333.15	100	1028.6	0.5
0.705	333.15	1000	1029.2	0.5
0.705	333.15	5000	1031.8	0.5
0.705	333.15	10000	1034.9	0.5
0.705	333.15	15000	1038	0.5
0.705	333.15	20000	1041.1	0.5
0.705	333.15	25000	1044	0.5
0.705	333.15	30000	1047	0.5
0.705	333.15	35000	1050.2	0.5
0.705	333.15	40000	1052.3	0.5
0.705	333.15	45000	1055.1	0.5
0.705	343.15	100	1020	0.4
0.705	343.15	1000	1020.7	0.4
0.705	343.15	5000	1023.3	0.5
0.705	343.15	10000	1026.7	0.5
0.705	343.15	15000	1030.2	0.5
0.705	343.15	20000	1033.2	0.5
0.705	343.15	25000	1036.2	0.5
0.705	343.15	30000	1039.3	0.5
0.705	343.15	35000	1042.1	0.5
0.705	343.15	40000	1045.1	0.5
0.705	343.15	45000	1048	0.5
0.705	363.15	100	1003.1	0.4
0.705	363.15	1000	1003.8	0.4
0.705	363.15	5000	1006.9	0.4
0.705	363.15	10000	1010.5	0.4
0.705	363.15	15000	1013.9	0.4
0.705	363.15	20000	1017.5	0.5
0.705	363.15	25000	1020.8	0.5
0.705	363.15	30000	1023.9	0.5
0.705	363.15	35000	1027	0.5
0.705	363.15	40000	1030.7	0.5
0.705	363.15	45000	1033	0.5
0.85	303.15	100	1059.2	0.5
0.85	303.15	1000	1060.3	0.5
0.85	303.15	5000	1062.6	0.5
0.85	303.15	10000	1065.4	0.5
0.85	303.15	15000	1068.2	0.5
0.85	303.15	20000	1070.9	0.5
0.85	303.15	25000	1073.5	0.5
0.85	303.15	30000	1076.2	0.5
0.85	303.15	35000	1078.6	0.5
0.85	303.15	40000	1081.1	0.6
0.85	303.15	45000	1083.7	0.6
0.85	313.15	100	1051.2	0.5
0.85	313.15	1000	1051.7	0.5
0.85	313.15	5000	1054.1	0.5
0.85	313.15	10000	1057.1	0.5
0.85	313.15	15000	1060	0.5
0.85	313.15	20000	1062.7	0.5
0.85	313.15	25000	1065.5	0.5
0.85	313.15	30000	1068.1	0.5
0.85	313.15	35000	1070.8	0.5
0.85	313.15	40000	1073.3	0.5
0.85	313.15	45000	1076	0.6
0.85	323.15	100	1042.6	0.5
0.85	323.15	1000	1043.2	0.5
0.85	323.15	5000	1045.7	0.5
0.85	323.15	10000	1048.8	0.5
0.85	323.15	15000	1051.7	0.5
0.85	323.15	20000	1054.8	0.5
0.85	323.15	25000	1057.5	0.5
0.85	323.15	30000	1060.4	0.5
0.85	323.15	35000	1063.2	0.5
0.85	323.15	40000	1065.8	0.5
0.85	323.15	45000	1068.4	0.5
0.85	333.15	100	1033.8	0.5
0.85	333.15	1000	1034.5	0.5
0.85	333.15	5000	1037.1	0.5
0.85	333.15	10000	1040.2	0.5
0.85	333.15	15000	1043.5	0.5
0.85	333.15	20000	1046.5	0.5
0.85	333.15	25000	1049.5	0.5
0.85	333.15	30000	1052.5	0.5
0.85	333.15	35000	1055.2	0.5
0.85	333.15	40000	1057.9	0.5
0.85	333.15	45000	1060.7	0.5
0.85	343.15	100	1025.2	0.5
0.85	343.15	1000	1025.9	0.5
0.85	343.15	5000	1028.8	0.5
0.85	343.15	10000	1032.1	0.5
0.85	343.15	15000	1035.5	0.5
0.85	343.15	20000	1038.4	0.5
0.85	343.15	25000	1041.7	0.5
0.85	343.15	30000	1044.8	0.5
0.85	343.15	35000	1047.8	0.5
0.85	343.15	40000	1050.7	0.5
0.85	343.15	45000	1053.7	0.5
0.85	363.15	100	1007.9	0.5
0.85	363.15	1000	1008.8	0.5
0.85	363.15	5000	1012	0.5
0.85	363.15	10000	1015.5	0.5
0.85	363.15	15000	1019.3	0.5
0.85	363.15	20000	1022.7	0.5
0.85	363.15	25000	1025.9	0.5
0.85	363.15	30000	1029.1	0.5
0.85	363.15	35000	1032.3	0.5
0.85	363.15	40000	1036.1	0.5
0.85	363.15	45000	1038.4	0.5
1	303.15	100	1066	0.5
1	303.15	1000	1066.6	0.5
1	303.15	5000	1068.8	0.5
1	303.15	10000	1071.8	0.5
1	303.15	15000	1074.5	0.5
1	303.15	20000	1077.2	0.5
1	303.15	25000	1079.9	0.6
1	303.15	30000	1082.5	0.6
1	303.15	35000	1085	0.6
1	303.15	40000	1087.5	0.6
1	303.15	45000	1090.2	0.6
1	313.15	100	1057.4	0.5
1	313.15	1000	1057.9	0.5
1	313.15	5000	1060.4	0.5
1	313.15	10000	1063.3	0.5
1	313.15	15000	1066.2	0.5
1	313.15	20000	1069.2	0.5
1	313.15	25000	1071.9	0.5
1	313.15	30000	1074.5	0.6
1	313.15	35000	1077.1	0.6
1	313.15	40000	1079.7	0.6
1	313.15	45000	1082.4	0.6
1	323.15	100	1048.8	0.5
1	323.15	1000	1049.4	0.5
1	323.15	5000	1052	0.5
1	323.15	10000	1055.1	0.5
1	323.15	15000	1058.1	0.5
1	323.15	20000	1061.1	0.5
1	323.15	25000	1063.9	0.5
1	323.15	30000	1066.8	0.5
1	323.15	35000	1069.5	0.6
1	323.15	40000	1072.2	0.6
1	323.15	45000	1074.9	0.6
1	333.15	100	1040	0.5
1	333.15	1000	1040.7	0.5
1	333.15	5000	1043.2	0.5
1	333.15	10000	1046.4	0.5
1	333.15	15000	1049.8	0.5
1	333.15	20000	1052.9	0.5
1	333.15	25000	1055.8	0.5
1	333.15	30000	1058.6	0.5
1	333.15	35000	1062.3	0.5
1	333.15	40000	1064.3	0.6
1	333.15	45000	1067.1	0.6
1	343.15	100	1031.4	0.5
1	343.15	1000	1032.2	0.5
1	343.15	5000	1035	0.5
1	343.15	10000	1038.3	0.5
1	343.15	15000	1041.7	0.5
1	343.15	20000	1044.8	0.5
1	343.15	25000	1048.1	0.5
1	343.15	30000	1051.3	0.5
1	343.15	35000	1054.2	0.5
1	343.15	40000	1057.1	0.5
1	343.15	45000	1060.1	0.6
1	363.15	100	1014	0.5
1	363.15	1000	1014.6	0.5
1	363.15	5000	1017.6	0.5
1	363.15	10000	1021.4	0.5
1	363.15	15000	1025	0.5
1	363.15	20000	1028.6	0.5
1	363.15	25000	1031.9	0.5
1	363.15	30000	1035.2	0.5
1	363.15	35000	1038.4	0.5
1	363.15	40000	1041.9	0.5
1	363.15	45000	1044.2	0.5
