Measured thermophysical data. Solubility modelling and thermodynamic aspect of 2,3-dihydro-6-propyl-2-thioxo-4(1H)-pyrimidinone in binary aqueous solutions of several alcohols
Source: J. Chem. Thermodyn., 2019, 10.1016/j.jct.2018.12.038
Compound 1: 6-propyl-2-thiouracil, C7H10N2OS, InChI=1S/C7H10N2OS/c1-2-3-5-4-6(10)9-7(11)8-5/h4H,2-3H2,1H3,(H2,8,9,10,11), purity 98.4%
Compound 2: methanol, CH4O, InChI=1S/CH4O/c1-2/h2H,1H3, purity 99.5%
Compound 3: ethanol, C2H6O, InChI=1S/C2H6O/c1-2-3/h3H,2H2,1H3, purity 99.4%
Compound 4: propan-1-ol, C3H8O, InChI=1S/C3H8O/c1-2-3-4/h4H,2-3H2,1H3, purity 99.5%
Compound 5: propan-2-ol, C3H8O, InChI=1S/C3H8O/c1-3(2)4/h3-4H,1-2H3, purity 99.6%
Compound 6: water, H2O, InChI=1S/H2O/h1H2

System: 6-propyl-2-thiouracil + methanol + water; phases: Liquid, Crystal
Fixed: Pressure, kPa = 101.1
Property: Mole fraction of 6-propyl-2-thiouracil (Liquid); method: Chromatography
Temperature, K	Solvent: Mass fraction of methanol	Mole fraction of 6-propyl-2-thiouracil	uncertainty
278.15	0	4.794e-05	3.74e-06
283.15	0	6.233e-05	4.87e-06
288.15	0	7.84e-05	6.12e-06
293.15	0	9.862e-05	7.7e-06
298.15	0	0.0001263	9.9e-06
303.15	0	0.0001564	1.22e-05
308.15	0	0.0001903	1.49e-05
313.15	0	0.0002326	1.82e-05
318.15	0	0.0002862	2.23e-05
323.15	0	0.0003459	2.7e-05
328.15	0	0.0004128	3.22e-05
333.15	0	0.0005023	3.92e-05
278.15	0.1	0.000256	2e-05
283.15	0.1	0.0003209	2.5e-05
288.15	0.1	0.0003964	3.09e-05
293.15	0.1	0.0004831	3.77e-05
298.15	0.1	0.0005857	4.57e-05
303.15	0.1	0.0007101	5.54e-05
308.15	0.1	0.0008475	6.61e-05
313.15	0.1	0.001023	8e-05
318.15	0.1	0.001231	9.6e-05
323.15	0.1	0.001448	0.000113
328.15	0.1	0.001698	0.000133
333.15	0.1	0.002002	0.000156
278.15	0.2	0.0006354	4.96e-05
283.15	0.2	0.0007807	6.09e-05
288.15	0.2	0.000944	7.37e-05
293.15	0.2	0.001141	8.9e-05
298.15	0.2	0.001392	0.000109
303.15	0.2	0.001653	0.000129
308.15	0.2	0.001952	0.000152
313.15	0.2	0.002299	0.000179
318.15	0.2	0.002713	0.000212
323.15	0.2	0.003183	0.000248
328.15	0.2	0.003668	0.000286
333.15	0.2	0.004304	0.000336
278.15	0.3	0.0009705	7.57e-05
283.15	0.3	0.00118	9.2e-05
288.15	0.3	0.001438	0.000112
293.15	0.3	0.001723	0.000134
298.15	0.3	0.002083	0.000163
303.15	0.3	0.002499	0.000195
308.15	0.3	0.002928	0.000229
313.15	0.3	0.003427	0.000267
318.15	0.3	0.004018	0.000314
323.15	0.3	0.00467	0.000364
328.15	0.3	0.005362	0.000418
333.15	0.3	0.006225	0.000486
278.15	0.4	0.001278	0.0001
283.15	0.4	0.001526	0.000119
288.15	0.4	0.001837	0.000143
293.15	0.4	0.002208	0.000172
298.15	0.4	0.002625	0.000205
303.15	0.4	0.003138	0.000245
308.15	0.4	0.003673	0.000287
313.15	0.4	0.004317	0.000337
318.15	0.4	0.005004	0.000391
323.15	0.4	0.005796	0.000452
328.15	0.4	0.006663	0.00052
333.15	0.4	0.007744	0.000604
278.15	0.5	0.001492	0.000116
283.15	0.5	0.0018	0.00014
288.15	0.5	0.002151	0.000168
293.15	0.5	0.002578	0.000201
298.15	0.5	0.00306	0.000239
303.15	0.5	0.003628	0.000283
308.15	0.5	0.004258	0.000332
313.15	0.5	0.004955	0.000387
318.15	0.5	0.005764	0.00045
323.15	0.5	0.006614	0.000516
328.15	0.5	0.007617	0.000594
333.15	0.5	0.008813	0.000688
278.15	0.6	0.00171	0.000133
283.15	0.6	0.002076	0.000162
288.15	0.6	0.002494	0.000195
293.15	0.6	0.003002	0.000234
298.15	0.6	0.003539	0.000276
303.15	0.6	0.004179	0.000326
308.15	0.6	0.004889	0.000382
313.15	0.6	0.005684	0.000444
318.15	0.6	0.006569	0.000513
323.15	0.6	0.007574	0.000591
328.15	0.6	0.008689	0.000678
333.15	0.6	0.009992	0.00078
278.15	0.7	0.002068	0.000161
283.15	0.7	0.002493	0.000195
288.15	0.7	0.002978	0.000232
293.15	0.7	0.003524	0.000275
298.15	0.7	0.004188	0.000327
303.15	0.7	0.004929	0.000385
308.15	0.7	0.005751	0.000449
313.15	0.7	0.006671	0.000521
318.15	0.7	0.007696	0.000601
323.15	0.7	0.008858	0.000691
328.15	0.7	0.01015	0.00079
333.15	0.7	0.01161	0.00091
278.15	0.8	0.00251	0.000196
283.15	0.8	0.002989	0.000233
288.15	0.8	0.003544	0.000277
293.15	0.8	0.004215	0.000329
298.15	0.8	0.004968	0.000388
303.15	0.8	0.005812	0.000454
308.15	0.8	0.006796	0.00053
313.15	0.8	0.00784	0.000612
318.15	0.8	0.008953	0.000699
323.15	0.8	0.01033	0.00081
328.15	0.8	0.01174	0.00092
333.15	0.8	0.0133	0.00104
278.15	0.9	0.002815	0.00022
283.15	0.9	0.003355	0.000262
288.15	0.9	0.003975	0.00031
293.15	0.9	0.004729	0.000369
298.15	0.9	0.005574	0.000435
303.15	0.9	0.006519	0.000509
308.15	0.9	0.007622	0.000595
313.15	0.9	0.008791	0.000686
318.15	0.9	0.01004	0.00078
323.15	0.9	0.01157	0.0009
328.15	0.9	0.01315	0.00103
333.15	0.9	0.0149	0.00116
278.15	1	0.003123	0.000244
283.15	1	0.003721	0.00029
288.15	1	0.004408	0.000344
293.15	1	0.005244	0.000409
298.15	1	0.006179	0.000482
303.15	1	0.007226	0.000564
308.15	1	0.008448	0.000659
313.15	1	0.009742	0.00076
318.15	1	0.01112	0.00087
323.15	1	0.01282	0.001
328.15	1	0.01457	0.00114
333.15	1	0.0165	0.00129

System: 6-propyl-2-thiouracil + ethanol + water; phases: Liquid, Crystal
Fixed: Pressure, kPa = 101.1
Property: Mole fraction of 6-propyl-2-thiouracil (Liquid); method: Chromatography
Temperature, K	Solvent: Mass fraction of ethanol	Mole fraction of 6-propyl-2-thiouracil	uncertainty
278.15	0	4.794e-05	3.74e-06
283.15	0	6.233e-05	4.87e-06
288.15	0	7.84e-05	6.12e-06
293.15	0	9.862e-05	7.7e-06
298.15	0	0.0001263	9.9e-06
303.15	0	0.0001564	1.22e-05
308.15	0	0.0001903	1.49e-05
313.15	0	0.0002326	1.82e-05
318.15	0	0.0002862	2.23e-05
323.15	0	0.0003459	2.7e-05
328.15	0	0.0004128	3.22e-05
333.15	0	0.0005023	3.92e-05
278.15	0.1	0.000214	1.67e-05
283.15	0.1	0.0002706	2.11e-05
288.15	0.1	0.0003322	2.59e-05
293.15	0.1	0.0004079	3.18e-05
298.15	0.1	0.0005089	3.97e-05
303.15	0.1	0.0006161	4.81e-05
308.15	0.1	0.0007342	5.73e-05
313.15	0.1	0.0008791	6.86e-05
318.15	0.1	0.00106	8.3e-05
323.15	0.1	0.001256	9.8e-05
328.15	0.1	0.001472	0.000115
333.15	0.1	0.001757	0.000137
278.15	0.2	0.0005052	3.94e-05
283.15	0.2	0.0006283	4.9e-05
288.15	0.2	0.0007609	5.94e-05
293.15	0.2	0.0009213	7.19e-05
298.15	0.2	0.001131	8.8e-05
303.15	0.2	0.001352	0.000106
308.15	0.2	0.001593	0.000124
313.15	0.2	0.001886	0.000147
318.15	0.2	0.002247	0.000175
323.15	0.2	0.002633	0.000205
328.15	0.2	0.003058	0.000239
333.15	0.2	0.003609	0.000282
278.15	0.3	0.000796	6.21e-05
283.15	0.3	0.0009808	7.65e-05
288.15	0.3	0.00118	9.2e-05
293.15	0.3	0.001418	0.000111
298.15	0.3	0.001725	0.000135
303.15	0.3	0.002049	0.00016
308.15	0.3	0.002401	0.000187
313.15	0.3	0.002827	0.000221
318.15	0.3	0.003346	0.000261
323.15	0.3	0.0039	0.000304
328.15	0.3	0.00451	0.000352
333.15	0.3	0.00529	0.000413
278.15	0.4	0.001029	8e-05
283.15	0.4	0.001234	9.6e-05
288.15	0.4	0.001469	0.000115
293.15	0.4	0.00174	0.000136
298.15	0.4	0.002053	0.00016
303.15	0.4	0.002407	0.000188
308.15	0.4	0.002807	0.000219
313.15	0.4	0.003281	0.000256
318.15	0.4	0.003835	0.000299
323.15	0.4	0.004428	0.000346
328.15	0.4	0.005116	0.000399
333.15	0.4	0.005917	0.000462
278.15	0.5	0.001274	9.9e-05
283.15	0.5	0.001527	0.000119
288.15	0.5	0.001817	0.000142
293.15	0.5	0.002151	0.000168
298.15	0.5	0.002534	0.000198
303.15	0.5	0.002969	0.000232
308.15	0.5	0.003461	0.00027
313.15	0.5	0.004043	0.000316
318.15	0.5	0.004722	0.000368
323.15	0.5	0.005448	0.000425
328.15	0.5	0.006291	0.000491
333.15	0.5	0.007271	0.000567
278.15	0.6	0.00152	0.000119
283.15	0.6	0.00182	0.000142
288.15	0.6	0.002165	0.000169
293.15	0.6	0.002561	0.0002
298.15	0.6	0.003016	0.000235
303.15	0.6	0.003532	0.000276
308.15	0.6	0.004115	0.000321
313.15	0.6	0.004805	0.000375
318.15	0.6	0.005609	0.000438
323.15	0.6	0.006468	0.000505
328.15	0.6	0.007467	0.000583
333.15	0.6	0.008625	0.000673
278.15	0.7	0.001765	0.000138
283.15	0.7	0.002112	0.000165
288.15	0.7	0.002513	0.000196
293.15	0.7	0.002972	0.000232
298.15	0.7	0.003497	0.000273
303.15	0.7	0.004094	0.000319
308.15	0.7	0.004769	0.000372
313.15	0.7	0.005567	0.000434
318.15	0.7	0.006496	0.000507
323.15	0.7	0.007489	0.000584
328.15	0.7	0.008643	0.000674
333.15	0.7	0.009979	0.000779
278.15	0.8	0.002034	0.000159
283.15	0.8	0.002449	0.000191
288.15	0.8	0.002915	0.000227
293.15	0.8	0.003455	0.00027
298.15	0.8	0.004094	0.000319
303.15	0.8	0.004802	0.000375
308.15	0.8	0.005591	0.000436
313.15	0.8	0.006528	0.000509
318.15	0.8	0.007633	0.000596
323.15	0.8	0.008808	0.000687
328.15	0.8	0.01015	0.00079
333.15	0.8	0.01175	0.00092
278.15	0.9	0.002256	0.000176
283.15	0.9	0.002698	0.000211
288.15	0.9	0.003208	0.00025
293.15	0.9	0.003793	0.000296
298.15	0.9	0.00446	0.000348
303.15	0.9	0.005219	0.000407
308.15	0.9	0.006078	0.000474
313.15	0.9	0.007091	0.000553
318.15	0.9	0.008271	0.000645
323.15	0.9	0.00953	0.000744
328.15	0.9	0.01099	0.00086
333.15	0.9	0.01269	0.00099
278.15	1	0.002501	0.000195
283.15	1	0.002991	0.000233
288.15	1	0.003556	0.000278
293.15	1	0.004203	0.000328
298.15	1	0.004942	0.000386
303.15	1	0.005782	0.000451
308.15	1	0.006732	0.000525
313.15	1	0.007853	0.000613
318.15	1	0.009158	0.000715
323.15	1	0.01055	0.00082
328.15	1	0.01217	0.00095
333.15	1	0.01404	0.0011

System: 6-propyl-2-thiouracil + propan-1-ol + water; phases: Liquid, Crystal
Fixed: Pressure, kPa = 101.1
Property: Mole fraction of 6-propyl-2-thiouracil (Liquid); method: Chromatography
Temperature, K	Solvent: Mass fraction of propan-1-ol	Mole fraction of 6-propyl-2-thiouracil	uncertainty
278.15	0	4.794e-05	3.74e-06
283.15	0	6.233e-05	4.87e-06
288.15	0	7.84e-05	6.12e-06
293.15	0	9.862e-05	7.7e-06
298.15	0	0.0001263	9.9e-06
303.15	0	0.0001564	1.22e-05
308.15	0	0.0001903	1.49e-05
313.15	0	0.0002326	1.82e-05
318.15	0	0.0002862	2.23e-05
323.15	0	0.0003459	2.7e-05
328.15	0	0.0004128	3.22e-05
333.15	0	0.0005023	3.92e-05
278.15	0.1	0.0001964	1.53e-05
283.15	0.1	0.0002488	1.94e-05
288.15	0.1	0.000306	2.39e-05
293.15	0.1	0.0003764	2.94e-05
298.15	0.1	0.0004705	3.67e-05
303.15	0.1	0.0005705	4.45e-05
308.15	0.1	0.000681	5.31e-05
313.15	0.1	0.0008163	6.37e-05
318.15	0.1	0.0009843	7.68e-05
323.15	0.1	0.001168	9.1e-05
328.15	0.1	0.00137	0.000107
333.15	0.1	0.001636	0.000128
278.15	0.2	0.0004457	3.48e-05
283.15	0.2	0.0005562	4.34e-05
288.15	0.2	0.0006755	5.27e-05
293.15	0.2	0.0008202	6.4e-05
298.15	0.2	0.00101	7.9e-05
303.15	0.2	0.00121	9.4e-05
308.15	0.2	0.00143	0.000112
313.15	0.2	0.001695	0.000132
318.15	0.2	0.00202	0.000158
323.15	0.2	0.002372	0.000185
328.15	0.2	0.002757	0.000215
333.15	0.2	0.003253	0.000254
278.15	0.3	0.0006945	5.42e-05
283.15	0.3	0.000859	6.7e-05
288.15	0.3	0.001037	8.1e-05
293.15	0.3	0.001251	9.8e-05
298.15	0.3	0.001527	0.000119
303.15	0.3	0.001819	0.000142
308.15	0.3	0.002138	0.000167
313.15	0.3	0.002521	0.000197
318.15	0.3	0.002983	0.000233
323.15	0.3	0.003485	0.000272
328.15	0.3	0.004032	0.000315
333.15	0.3	0.004727	0.000369
278.15	0.4	0.0008948	6.98e-05
283.15	0.4	0.001081	8.4e-05
288.15	0.4	0.001295	0.000101
293.15	0.4	0.001544	0.00012
298.15	0.4	0.001833	0.000143
303.15	0.4	0.002162	0.000169
308.15	0.4	0.002537	0.000198
313.15	0.4	0.002963	0.000231
318.15	0.4	0.003449	0.000269
323.15	0.4	0.003995	0.000312
328.15	0.4	0.004608	0.00036
333.15	0.4	0.005301	0.000414
278.15	0.5	0.001106	8.6e-05
283.15	0.5	0.001335	0.000104
288.15	0.5	0.0016	0.000125
293.15	0.5	0.001906	0.000149
298.15	0.5	0.00226	0.000176
303.15	0.5	0.002664	0.000208
308.15	0.5	0.003123	0.000244
313.15	0.5	0.003646	0.000285
318.15	0.5	0.00424	0.000331
323.15	0.5	0.004907	0.000383
328.15	0.5	0.005656	0.000441
333.15	0.5	0.006501	0.000507
278.15	0.6	0.001195	9.3e-05
283.15	0.6	0.001461	0.000114
288.15	0.6	0.001755	0.000137
293.15	0.6	0.002103	0.000164
298.15	0.6	0.00253	0.000197
303.15	0.6	0.002996	0.000234
308.15	0.6	0.003514	0.000274
313.15	0.6	0.004118	0.000321
318.15	0.6	0.00483	0.000377
323.15	0.6	0.005612	0.000438
328.15	0.6	0.006474	0.000505
333.15	0.6	0.007513	0.000586
278.15	0.7	0.001436	0.000112
283.15	0.7	0.001748	0.000136
288.15	0.7	0.002096	0.000164
293.15	0.7	0.002506	0.000196
298.15	0.7	0.003001	0.000234
303.15	0.7	0.003546	0.000277
308.15	0.7	0.004155	0.000324
313.15	0.7	0.004861	0.000379
318.15	0.7	0.005684	0.000444
323.15	0.7	0.006592	0.000514
328.15	0.7	0.007597	0.000593
333.15	0.7	0.008786	0.000686
278.15	0.8	0.001763	0.000138
283.15	0.8	0.002135	0.000167
288.15	0.8	0.002556	0.000199
293.15	0.8	0.003047	0.000238
298.15	0.8	0.00363	0.000283
303.15	0.8	0.00428	0.000334
308.15	0.8	0.005009	0.000391
313.15	0.8	0.005847	0.000456
318.15	0.8	0.006813	0.000532
323.15	0.8	0.007885	0.000615
328.15	0.8	0.009076	0.000708
333.15	0.8	0.01046	0.00082
278.15	0.9	0.001953	0.000152
283.15	0.9	0.002353	0.000184
288.15	0.9	0.002817	0.00022
293.15	0.9	0.003352	0.000262
298.15	0.9	0.003966	0.00031
303.15	0.9	0.00467	0.000364
308.15	0.9	0.005469	0.000427
313.15	0.9	0.006376	0.000498
318.15	0.9	0.007402	0.000578
323.15	0.9	0.008557	0.000668
328.15	0.9	0.009851	0.000769
333.15	0.9	0.0113	0.00088
278.15	1	0.002165	0.000169
283.15	1	0.002608	0.000204
288.15	1	0.003121	0.000244
293.15	1	0.003713	0.00029
298.15	1	0.004393	0.000343
303.15	1	0.005171	0.000404
308.15	1	0.006056	0.000473
313.15	1	0.007059	0.000551
318.15	1	0.008193	0.000639
323.15	1	0.009469	0.000739
328.15	1	0.0109	0.00085
333.15	1	0.0125	0.00098

System: 6-propyl-2-thiouracil + propan-2-ol + water; phases: Liquid, Crystal
Fixed: Pressure, kPa = 101.1
Property: Mole fraction of 6-propyl-2-thiouracil (Liquid); method: Chromatography
Temperature, K	Solvent: Mass fraction of propan-2-ol	Mole fraction of 6-propyl-2-thiouracil	uncertainty
278.15	0	4.794e-05	3.74e-06
283.15	0	6.233e-05	4.87e-06
288.15	0	7.84e-05	6.12e-06
293.15	0	9.862e-05	7.7e-06
298.15	0	0.0001263	9.9e-06
303.15	0	0.0001564	1.22e-05
308.15	0	0.0001903	1.49e-05
313.15	0	0.0002326	1.82e-05
318.15	0	0.0002862	2.23e-05
323.15	0	0.0003459	2.7e-05
328.15	0	0.0004128	3.22e-05
333.15	0	0.0005023	3.92e-05
278.15	0.1	0.0001566	1.22e-05
283.15	0.1	0.0001992	1.55e-05
288.15	0.1	0.000246	1.92e-05
293.15	0.1	0.0003036	2.37e-05
298.15	0.1	0.0003809	2.97e-05
303.15	0.1	0.0004636	3.62e-05
308.15	0.1	0.0005552	4.33e-05
313.15	0.1	0.0006677	5.21e-05
318.15	0.1	0.0008077	6.3e-05
323.15	0.1	0.0009613	7.5e-05
328.15	0.1	0.001131	8.8e-05
333.15	0.1	0.001355	0.000106
278.15	0.2	0.0003247	2.53e-05
283.15	0.2	0.0004074	3.18e-05
288.15	0.2	0.0004975	3.88e-05
293.15	0.2	0.0006073	4.74e-05
298.15	0.2	0.0007516	5.87e-05
303.15	0.2	0.0009052	7.06e-05
308.15	0.2	0.001075	8.4e-05
313.15	0.2	0.00128	0.0001
318.15	0.2	0.001532	0.00012
323.15	0.2	0.001806	0.000141
328.15	0.2	0.002108	0.000165
333.15	0.2	0.002499	0.000195
278.15	0.3	0.0004988	3.89e-05
283.15	0.3	0.0006206	4.84e-05
288.15	0.3	0.0007535	5.88e-05
293.15	0.3	0.0009139	7.13e-05
298.15	0.3	0.001121	8.7e-05
303.15	0.3	0.001343	0.000105
308.15	0.3	0.001587	0.000124
313.15	0.3	0.00188	0.000147
318.15	0.3	0.002235	0.000174
323.15	0.3	0.002622	0.000205
328.15	0.3	0.003048	0.000238
333.15	0.3	0.003589	0.00028
278.15	0.4	0.000643	5.02e-05
283.15	0.4	0.0007957	6.21e-05
288.15	0.4	0.0009633	7.52e-05
293.15	0.4	0.001164	9.1e-05
298.15	0.4	0.00142	0.000111
303.15	0.4	0.001696	0.000132
308.15	0.4	0.002	0.000156
313.15	0.4	0.002362	0.000184
318.15	0.4	0.002797	0.000218
323.15	0.4	0.003273	0.000255
328.15	0.4	0.003798	0.000296
333.15	0.4	0.004452	0.000347
278.15	0.5	0.0007633	5.96e-05
283.15	0.5	0.0009409	7.34e-05
288.15	0.5	0.001137	8.9e-05
293.15	0.5	0.001372	0.000107
298.15	0.5	0.001666	0.00013
303.15	0.5	0.001985	0.000155
308.15	0.5	0.00234	0.000183
313.15	0.5	0.002759	0.000215
318.15	0.5	0.003258	0.000254
323.15	0.5	0.003806	0.000297
328.15	0.5	0.004412	0.000344
333.15	0.5	0.005156	0.000402
278.15	0.6	0.0008879	6.93e-05
283.15	0.6	0.00109	8.5e-05
288.15	0.6	0.001317	0.000103
293.15	0.6	0.001586	0.000124
298.15	0.6	0.001917	0.00015
303.15	0.6	0.002281	0.000178
308.15	0.6	0.002688	0.00021
313.15	0.6	0.003165	0.000247
318.15	0.6	0.003727	0.000291
323.15	0.6	0.004349	0.000339
328.15	0.6	0.005038	0.000393
333.15	0.6	0.005871	0.000458
278.15	0.7	0.001044	8.1e-05
283.15	0.7	0.001277	0.0001
288.15	0.7	0.001541	0.00012
293.15	0.7	0.001851	0.000144
298.15	0.7	0.002229	0.000174
303.15	0.7	0.002647	0.000207
308.15	0.7	0.003118	0.000243
313.15	0.7	0.003665	0.000286
318.15	0.7	0.004304	0.000336
323.15	0.7	0.005015	0.000391
328.15	0.7	0.005806	0.000453
333.15	0.7	0.006744	0.000526
278.15	0.8	0.001241	9.7e-05
283.15	0.8	0.001512	0.000118
288.15	0.8	0.001821	0.000142
293.15	0.8	0.002184	0.00017
298.15	0.8	0.002617	0.000204
303.15	0.8	0.003102	0.000242
308.15	0.8	0.003651	0.000285
313.15	0.8	0.004285	0.000334
318.15	0.8	0.005018	0.000392
323.15	0.8	0.005836	0.000455
328.15	0.8	0.006752	0.000527
333.15	0.8	0.007818	0.00061
278.15	0.9	0.001445	0.000113
283.15	0.9	0.001754	0.000137
288.15	0.9	0.00211	0.000165
293.15	0.9	0.002526	0.000197
298.15	0.9	0.003015	0.000235
303.15	0.9	0.003569	0.000279
308.15	0.9	0.004198	0.000328
313.15	0.9	0.00492	0.000384
318.15	0.9	0.005746	0.000448
323.15	0.9	0.006675	0.000521
328.15	0.9	0.007717	0.000602
333.15	0.9	0.008909	0.000695
278.15	1	0.001549	0.000121
283.15	1	0.001877	0.000146
288.15	1	0.002259	0.000176
293.15	1	0.002703	0.000211
298.15	1	0.003216	0.000251
303.15	1	0.003806	0.000297
308.15	1	0.004481	0.00035
313.15	1	0.00525	0.00041
318.15	1	0.006123	0.000478
323.15	1	0.007111	0.000555
328.15	1	0.008226	0.000642
333.15	1	0.009478	0.00074

System: 6-propyl-2-thiouracil + water; phases: Liquid, Crystal
Fixed: Pressure, kPa = 101.1
Property: Mole fraction of 6-propyl-2-thiouracil (Liquid); method: Chromatography
Temperature, K	Mole fraction of 6-propyl-2-thiouracil	uncertainty
278.15	4.794e-05	3.74e-06
283.15	6.233e-05	4.87e-06
288.15	7.84e-05	6.12e-06
293.15	9.862e-05	7.7e-06
298.15	0.0001263	9.9e-06
303.15	0.0001564	1.22e-05
308.15	0.0001903	1.49e-05
313.15	0.0002326	1.82e-05
318.15	0.0002862	2.23e-05
323.15	0.0003459	2.7e-05
328.15	0.0004128	3.22e-05
333.15	0.0005023	3.92e-05

System: 6-propyl-2-thiouracil + methanol; phases: Liquid, Crystal
Fixed: Pressure, kPa = 101.1
Property: Mole fraction of 6-propyl-2-thiouracil (Liquid); method: Chromatography
Temperature, K	Mole fraction of 6-propyl-2-thiouracil	uncertainty
278.15	0.003123	0.000244
283.15	0.003721	0.00029
288.15	0.004408	0.000344
293.15	0.005244	0.000409
298.15	0.006179	0.000482
303.15	0.007226	0.000564
308.15	0.008448	0.000659
313.15	0.009742	0.00076
318.15	0.01112	0.00087
323.15	0.01282	0.001
328.15	0.01457	0.00114
333.15	0.0165	0.00129

System: 6-propyl-2-thiouracil + ethanol; phases: Liquid, Crystal
Fixed: Pressure, kPa = 101.1
Property: Mole fraction of 6-propyl-2-thiouracil (Liquid); method: Chromatography
Temperature, K	Mole fraction of 6-propyl-2-thiouracil	uncertainty
278.15	0.002501	0.000195
283.15	0.002991	0.000233
288.15	0.003556	0.000278
293.15	0.004203	0.000328
298.15	0.004942	0.000386
303.15	0.005782	0.000451
308.15	0.006732	0.000525
313.15	0.007853	0.000613
318.15	0.009158	0.000715
323.15	0.01055	0.00082
328.15	0.01217	0.00095
333.15	0.01404	0.0011

System: 6-propyl-2-thiouracil + propan-1-ol; phases: Liquid, Crystal
Fixed: Pressure, kPa = 101.1
Property: Mole fraction of 6-propyl-2-thiouracil (Liquid); method: Chromatography
Temperature, K	Mole fraction of 6-propyl-2-thiouracil	uncertainty
278.15	0.002165	0.000169
283.15	0.002608	0.000204
288.15	0.003121	0.000244
293.15	0.003713	0.00029
298.15	0.004393	0.000343
303.15	0.005171	0.000404
308.15	0.006056	0.000473
313.15	0.007059	0.000551
318.15	0.008193	0.000639
323.15	0.009469	0.000739
328.15	0.0109	0.00085
333.15	0.0125	0.00098

System: 6-propyl-2-thiouracil + propan-2-ol; phases: Liquid, Crystal
Fixed: Pressure, kPa = 101.1
Property: Mole fraction of 6-propyl-2-thiouracil (Liquid); method: Chromatography
Temperature, K	Mole fraction of 6-propyl-2-thiouracil	uncertainty
278.15	0.001549	0.000121
283.15	0.001877	0.000146
288.15	0.002259	0.000176
293.15	0.002703	0.000211
298.15	0.003216	0.000251
303.15	0.003806	0.000297
308.15	0.004481	0.00035
313.15	0.00525	0.00041
318.15	0.006123	0.000478
323.15	0.007111	0.000555
328.15	0.008226	0.000642
333.15	0.009478	0.00074
