Measured thermophysical data. Combustion energies and formation enthalpies of 2-SH-benzazoles
Source: J. Chem. Thermodyn., 2008, 10.1016/j.jct.2008.02.018
Compound 1: sulfuric acid, H2O4S, InChI=1S/H2O4S/c1-5(2,3)4/h(H2,1,2,3,4)
Compound 2: carbon dioxide, CO2, InChI=1S/CO2/c2-1-3
Compound 3: nitrogen, N2, InChI=1S/N2/c1-2
Compound 4: water, H2O, InChI=1S/H2O/h1H2
Compound 5: oxygen, O2, InChI=1S/O2/c1-2
Compound 6: 2-benzimidazolethiol, C7H6N2S, InChI=1S/C7H6N2S/c10-7-8-5-3-1-2-4-6(5)9-7/h1-4H,(H2,8,9,10), purity 98%
Compound 7: 2(3H)-benzothiazolethione, C7H5NS2, InChI=1S/C7H5NS2/c9-7-8-5-3-1-2-4-6(5)10-7/h1-4H,(H,8,9), purity 99%
Compound 8: 2-benzoxazolethiol, C7H5NOS, InChI=1S/C7H5NOS/c10-7-8-5-3-1-2-4-6(5)9-7/h1-4H,(H,8,10), purity 98%

System: 2-benzimidazolethiol; phases: Crystal, Liquid, Air at 1 atmosphere
Property: Molar enthalpy of transition or fusion, kJ/mol (Crystal); method: DSC
Molar enthalpy of transition or fusion, kJ/mol	uncertainty
24.11	3.14

System: 2-benzimidazolethiol; phases: Crystal, Liquid, Air at 1 atmosphere
Property: Normal melting temperature, K (Crystal); method: DTA
Normal melting temperature, K	uncertainty
589.42	0.5

System: 2-benzimidazolethiol; phases: Crystal
Property: Mass density, kg/m3 (Crystal); method: Pycnometric method
Temperature, K	Pressure, kPa	Mass density, kg/m3	uncertainty
298.15	101.325	1420	2

System: 2-benzimidazolethiol; phases: Crystal
Property: Molar heat capacity at constant pressure, J/K/mol (Crystal); method: Small sample (50 mg) DSC
Temperature, K	Pressure, kPa	Molar heat capacity at constant pressure, J/K/mol	uncertainty
298.15	101.325	171.2303028	3.0040404

System: 2(3H)-benzothiazolethione; phases: Crystal, Liquid, Air at 1 atmosphere
Property: Molar enthalpy of transition or fusion, kJ/mol (Crystal); method: DSC
Molar enthalpy of transition or fusion, kJ/mol	uncertainty
20.56	0.95

System: 2(3H)-benzothiazolethione; phases: Crystal, Liquid, Air at 1 atmosphere
Property: Normal melting temperature, K (Crystal); method: DTA
Normal melting temperature, K	uncertainty
453.46	0.5

System: 2(3H)-benzothiazolethione; phases: Crystal
Property: Mass density, kg/m3 (Crystal); method: Pycnometric method
Temperature, K	Pressure, kPa	Mass density, kg/m3	uncertainty
298.15	101.325	1420	2

System: 2(3H)-benzothiazolethione; phases: Crystal
Property: Molar heat capacity at constant pressure, J/K/mol (Crystal); method: Small sample (50 mg) DSC
Temperature, K	Pressure, kPa	Molar heat capacity at constant pressure, J/K/mol	uncertainty
298.15	101.325	128.7850718	3.3450668

System: 2-benzoxazolethiol; phases: Crystal, Liquid, Air at 1 atmosphere
Property: Molar enthalpy of transition or fusion, kJ/mol (Crystal); method: DSC
Molar enthalpy of transition or fusion, kJ/mol	uncertainty
22.56	1.86

System: 2-benzoxazolethiol; phases: Crystal, Liquid, Air at 1 atmosphere
Property: Normal melting temperature, K (Crystal); method: DTA
Normal melting temperature, K	uncertainty
468.25	0.5

System: 2-benzoxazolethiol; phases: Crystal
Property: Mass density, kg/m3 (Crystal); method: Pycnometric method
Temperature, K	Pressure, kPa	Mass density, kg/m3	uncertainty
298.15	101.325	1120	2

System: 2-benzoxazolethiol; phases: Crystal
Property: Molar heat capacity at constant pressure, J/K/mol (Crystal); method: Small sample (50 mg) DSC
Temperature, K	Pressure, kPa	Molar heat capacity at constant pressure, J/K/mol	uncertainty
298.15	101.325	220.7326404	4.5356022

Reaction: -1 2-benzimidazolethiol + 1 sulfuric acid + 7 carbon dioxide + 1 nitrogen + 2 water + -10 oxygen
Property: Specific internal energy of reaction at constant volume, J/g
-28346.4

Reaction: -1 2(3H)-benzothiazolethione + 2 sulfuric acid + 7 carbon dioxide + .5 nitrogen + .5 water + -11.25 oxygen
Property: Specific internal energy of reaction at constant volume, J/g
-28395

Reaction: -1 2-benzoxazolethiol + 1 sulfuric acid + 7 carbon dioxide + .5 nitrogen + 1.5 water + -9.25 oxygen
Property: Specific internal energy of reaction at constant volume, J/g
-26153.4
