Measured thermophysical data. Excess molar heat capacities for (decan-1-ol + n-heptane) at temperatures from (290 to 318) K. Experimental results and theoretical description using the ERAS model
Source: J. Chem. Thermodyn., 2006, 10.1016/j.jct.2005.10.009
Compound 1: decan-1-ol, C10H22O, InChI=1S/C10H22O/c1-2-3-4-5-6-7-8-9-10-11/h11H,2-10H2,1H3, purity 99%
Compound 2: heptane, C7H16, InChI=1S/C7H16/c1-3-5-7-6-4-2/h3-7H2,1-2H3, purity 99.8%

System: decan-1-ol; phases: Liquid
Fixed: Pressure, kPa = 101.325
Property: Speed of sound, m/s (Liquid); method: Pulse-echo method
Temperature, K	Speed of sound, m/s	uncertainty
293.1	1397.23	1.59
298.07	1379.96	1.59
303.04	1362.82	1.58
308.04	1345.82	1.58
313.01	1329.03	1.58
318.18	1311.69	1.57

System: decan-1-ol; phases: Liquid
Fixed: Pressure, kPa = 101.325
Property: Mass density, kg/m3 (Liquid); method: Pycnometric method
Temperature, K	Mass density, kg/m3	uncertainty
293.15	829.77	0.67
298.15	826.38	0.67
303.15	822.98	0.67
308.15	819.62	0.67
313.15	816.15	0.68
318.15	812.67	0.68

System: decan-1-ol; phases: Liquid
Fixed: Pressure, kPa = 101
Property: Molar heat capacity at constant pressure, J/K/mol (Liquid); method: Small sample (50 mg) DSC
Temperature, K	Molar heat capacity at constant pressure, J/K/mol	uncertainty
290.91	364.49	5.65
291.15	364.8	5.65
292.15	366.05	5.67
293.15	367.19	5.69
294.15	368.25	5.7
295.15	369.35	5.72
296.15	370.35	5.74
297.15	371.6	5.76
298.15	372.77	5.77
299.15	373.71	5.79
300.15	374.91	5.81
301.15	375.89	5.82
302.15	377.05	5.84
303.15	378.2	5.86
304.15	379.47	5.88
305.15	380.58	5.9
306.15	381.75	5.91
307.15	382.43	5.92
308.15	384.6	5.96
309.15	385.42	5.97
310.15	386.61	5.99
311.15	387.89	6.01
312.15	389.03	6.03
313.15	390.28	6.05
314.15	391.58	6.07
315.15	392.8	6.09
316.15	394.11	6.11
317.15	395.3	6.12
318.15	396.66	6.15
318.39	396.93	6.15

System: heptane; phases: Liquid
Fixed: Pressure, kPa = 101.325
Property: Speed of sound, m/s (Liquid); method: Pulse-echo method
Temperature, K	Speed of sound, m/s	uncertainty
293.13	1151.92	1.24
298.12	1130.26	1.23
303.1	1108.78	1.23
308.07	1087.47	1.22
313.03	1066.28	1.22
318.33	1043.9	1.22

System: heptane; phases: Liquid
Fixed: Pressure, kPa = 101.325
Property: Mass density, kg/m3 (Liquid); method: Pycnometric method
Temperature, K	Mass density, kg/m3	uncertainty
293.15	683.81	0.62
298.15	679.6	0.62
303.15	675.38	0.63
308.15	671.05	0.64
313.15	666.78	0.64
318.15	662.42	0.65

System: decan-1-ol + heptane; phases: Liquid
Fixed: Pressure, kPa = 101
Property: Molar heat capacity at constant pressure, J/K/mol (Liquid); method: Small sample (50 mg) DSC
Temperature, K	Mole fraction of decan-1-ol	Molar heat capacity at constant pressure, J/K/mol	uncertainty
290.91	0.0506	235.98	3.66
290.91	0.0979	243.78	3.78
290.91	0.1541	252.15	3.91
290.91	0.2543	266.07	4.12
290.91	0.3757	282.7	4.38
290.91	0.5378	304.21	4.71
290.91	0.7551	333.09	5.16
290.91	0.9008	351.55	5.45
290.91	1	364.49	5.65
291.15	0.0506	236.08	3.66
291.15	0.0979	243.9	3.78
291.15	0.1541	252.2	3.91
291.15	0.2543	266.16	4.12
291.15	0.3757	282.63	4.38
291.15	0.5378	304.17	4.71
291.15	0.7551	333.35	5.16
291.15	0.9008	351.9	5.45
291.15	1	364.8	5.65
292.15	0.0506	236.53	3.66
292.15	0.0979	244.42	3.79
292.15	0.1541	252.79	3.92
292.15	0.2543	266.99	4.14
292.15	0.3757	283.4	4.39
292.15	0.5378	305.3	4.73
292.15	0.7551	334.38	5.18
292.15	0.9008	353.11	5.47
292.15	1	366.05	5.67
293.15	0.0506	237.09	3.67
293.15	0.0979	245.13	3.8
293.15	0.1541	253.5	3.93
293.15	0.2543	267.69	4.15
293.15	0.3757	284.09	4.4
293.15	0.5378	306.17	4.74
293.15	0.7551	335.4	5.2
293.15	0.9008	354.31	5.49
293.15	1	367.19	5.69
294.15	0.0506	237.67	3.68
294.15	0.0979	245.8	3.81
294.15	0.1541	254.28	3.94
294.15	0.2543	268.44	4.16
294.15	0.3757	284.97	4.41
294.15	0.5378	307.04	4.76
294.15	0.7551	336.39	5.21
294.15	0.9008	355.23	5.5
294.15	1	368.25	5.7
295.15	0.0506	238.27	3.69
295.15	0.0979	246.44	3.82
295.15	0.1541	255.06	3.95
295.15	0.2543	269.19	4.17
295.15	0.3757	285.92	4.43
295.15	0.5378	308.08	4.77
295.15	0.7551	337.47	5.23
295.15	0.9008	356.26	5.52
295.15	1	369.35	5.72
296.15	0.0506	238.89	3.7
296.15	0.0979	247.13	3.83
296.15	0.1541	255.82	3.96
296.15	0.2543	269.75	4.18
296.15	0.3757	286.81	4.44
296.15	0.5378	308.89	4.79
296.15	0.7551	338.44	5.24
296.15	0.9008	357.26	5.53
296.15	1	370.35	5.74
297.15	0.0506	239.51	3.71
297.15	0.0979	247.87	3.84
297.15	0.1541	256.61	3.98
297.15	0.2543	270.59	4.19
297.15	0.3757	287.73	4.46
297.15	0.5378	309.97	4.8
297.15	0.7551	339.61	5.26
297.15	0.9008	358.4	5.55
297.15	1	371.6	5.76
298.15	0.0506	239.86	3.72
298.15	0.0979	248.38	3.85
298.15	0.1541	257.16	3.98
298.15	0.2543	271.36	4.2
298.15	0.3757	288.4	4.47
298.15	0.5378	310.74	4.81
298.15	0.7551	340.46	5.27
298.15	0.9008	359.54	5.57
298.15	1	372.77	5.77
299.15	0.0506	240.3	3.72
299.15	0.0979	248.86	3.86
299.15	0.1541	257.8	3.99
299.15	0.2543	272.19	4.22
299.15	0.3757	289.09	4.48
299.15	0.5378	311.53	4.83
299.15	0.7551	341.42	5.29
299.15	0.9008	360.58	5.59
299.15	1	373.71	5.79
300.15	0.0506	240.83	3.73
300.15	0.0979	249.51	3.87
300.15	0.1541	258.45	4
300.15	0.2543	272.99	4.23
300.15	0.3757	289.92	4.49
300.15	0.5378	312.43	4.84
300.15	0.7551	342.44	5.31
300.15	0.9008	361.76	5.6
300.15	1	374.91	5.81
301.15	0.0506	241.28	3.74
301.15	0.0979	250.01	3.87
301.15	0.1541	259.03	4.01
301.15	0.2543	273.68	4.24
301.15	0.3757	290.74	4.5
301.15	0.5378	313.24	4.85
301.15	0.7551	343.35	5.32
301.15	0.9008	362.66	5.62
301.15	1	375.89	5.82
302.15	0.0506	241.86	3.75
302.15	0.0979	250.66	3.88
302.15	0.1541	259.8	4.02
302.15	0.2543	274.46	4.25
302.15	0.3757	291.61	4.52
302.15	0.5378	314.17	4.87
302.15	0.7551	344.4	5.34
302.15	0.9008	363.81	5.64
302.15	1	377.05	5.84
303.15	0.0506	242.35	3.75
303.15	0.0979	251.17	3.89
303.15	0.1541	260.34	4.03
303.15	0.2543	275.23	4.26
303.15	0.3757	292.47	4.53
303.15	0.5378	315.15	4.88
303.15	0.7551	345.4	5.35
303.15	0.9008	364.87	5.65
303.15	1	378.2	5.86
304.15	0.0506	242.86	3.76
304.15	0.0979	251.87	3.9
304.15	0.1541	261.18	4.05
304.15	0.2543	276.03	4.28
304.15	0.3757	293.43	4.55
304.15	0.5378	316.13	4.9
304.15	0.7551	346.52	5.37
304.15	0.9008	366.04	5.67
304.15	1	379.47	5.88
305.15	0.0506	243.39	3.77
305.15	0.0979	252.56	3.91
305.15	0.1541	261.84	4.06
305.15	0.2543	276.84	4.29
305.15	0.3757	294.24	4.56
305.15	0.5378	317.05	4.91
305.15	0.7551	347.59	5.38
305.15	0.9008	367.12	5.69
305.15	1	380.58	5.9
306.15	0.0506	243.87	3.78
306.15	0.0979	253.07	3.92
306.15	0.1541	262.53	4.07
306.15	0.2543	277.6	4.3
306.15	0.3757	295.15	4.57
306.15	0.5378	318	4.93
306.15	0.7551	348.57	5.4
306.15	0.9008	368.24	5.7
306.15	1	381.75	5.91
307.15	0.0506	244.14	3.78
307.15	0.0979	253.41	3.93
307.15	0.1541	262.92	4.07
307.15	0.2543	278.04	4.31
307.15	0.3757	295.57	4.58
307.15	0.5378	318.55	4.94
307.15	0.7551	349.26	5.41
307.15	0.9008	368.97	5.72
307.15	1	382.43	5.92
308.15	0.0506	245.18	3.8
308.15	0.0979	254.65	3.95
308.15	0.1541	264.24	4.09
308.15	0.2543	279.52	4.33
308.15	0.3757	297.18	4.6
308.15	0.5378	320.29	4.96
308.15	0.7551	351.13	5.44
308.15	0.9008	370.98	5.75
308.15	1	384.6	5.96
309.15	0.0506	245.41	3.8
309.15	0.0979	255.04	3.95
309.15	0.1541	264.68	4.1
309.15	0.2543	280.05	4.34
309.15	0.3757	297.76	4.61
309.15	0.5378	320.96	4.97
309.15	0.7551	351.89	5.45
309.15	0.9008	371.76	5.76
309.15	1	385.42	5.97
310.15	0.0506	245.95	3.81
310.15	0.0979	255.58	3.96
310.15	0.1541	265.32	4.11
310.15	0.2543	280.82	4.35
310.15	0.3757	298.67	4.63
310.15	0.5378	321.92	4.99
310.15	0.7551	352.97	5.47
310.15	0.9008	372.9	5.78
310.15	1	386.61	5.99
311.15	0.0506	246.43	3.82
311.15	0.0979	256.31	3.97
311.15	0.1541	266.13	4.12
311.15	0.2543	281.69	4.36
311.15	0.3757	299.62	4.64
311.15	0.5378	323.01	5
311.15	0.7551	354.17	5.49
311.15	0.9008	374.19	5.8
311.15	1	387.89	6.01
312.15	0.0506	246.88	3.82
312.15	0.0979	256.87	3.98
312.15	0.1541	266.75	4.13
312.15	0.2543	282.41	4.38
312.15	0.3757	300.41	4.65
312.15	0.5378	323.89	5.02
312.15	0.7551	355.15	5.5
312.15	0.9008	375.27	5.81
312.15	1	389.03	6.03
313.15	0.0506	247.31	3.83
313.15	0.0979	257.46	3.99
313.15	0.1541	267.42	4.14
313.15	0.2543	283.25	4.39
313.15	0.3757	301.36	4.67
313.15	0.5378	324.89	5.03
313.15	0.7551	356.22	5.52
313.15	0.9008	376.4	5.83
313.15	1	390.28	6.05
314.15	0.0506	247.77	3.84
314.15	0.0979	258.06	4
314.15	0.1541	268.13	4.15
314.15	0.2543	284.06	4.4
314.15	0.3757	302.25	4.68
314.15	0.5378	325.9	5.05
314.15	0.7551	357.35	5.54
314.15	0.9008	377.6	5.85
314.15	1	391.58	6.07
315.15	0.0506	248.34	3.85
315.15	0.0979	258.68	4.01
315.15	0.1541	268.86	4.17
315.15	0.2543	284.88	4.41
315.15	0.3757	303.16	4.7
315.15	0.5378	326.94	5.06
315.15	0.7551	358.54	5.55
315.15	0.9008	378.81	5.87
315.15	1	392.8	6.09
316.15	0.0506	248.75	3.85
316.15	0.0979	259.2	4.02
316.15	0.1541	269.56	4.18
316.15	0.2543	285.67	4.43
316.15	0.3757	304.03	4.71
316.15	0.5378	327.84	5.08
316.15	0.7551	359.56	5.57
316.15	0.9008	379.98	5.89
316.15	1	394.11	6.11
317.15	0.0506	249.2	3.86
317.15	0.0979	259.91	4.03
317.15	0.1541	270.2	4.19
317.15	0.2543	286.49	4.44
317.15	0.3757	304.91	4.72
317.15	0.5378	328.86	5.09
317.15	0.7551	360.67	5.59
317.15	0.9008	381.22	5.91
317.15	1	395.3	6.12
318.15	0.0506	249.65	3.87
318.15	0.0979	260.46	4.04
318.15	0.1541	270.95	4.2
318.15	0.2543	287.25	4.45
318.15	0.3757	305.87	4.74
318.15	0.5378	329.91	5.11
318.15	0.7551	361.79	5.61
318.15	0.9008	382.38	5.92
318.15	1	396.66	6.15
318.39	0.0506	249.73	3.87
318.39	0.0979	260.52	4.04
318.39	0.1541	271.04	4.2
318.39	0.2543	287.43	4.45
318.39	0.3757	306.02	4.74
318.39	0.5378	330.09	5.11
318.39	0.7551	362.01	5.61
318.39	0.9008	382.62	5.93
318.39	1	396.93	6.15
