Measured thermophysical data. Vapour pressures of n-hexane determined by comparative ebulliometry
Source: J. Chem. Thermodyn., 2006, 10.1016/j.jct.2005.05.014
Compound 1: hexane, C6H14, InChI=1S/C6H14/c1-3-5-6-4-2/h3-6H2,1-2H3

System: hexane; phases: Liquid, Gas
Property: Vapor or sublimation pressure, kPa (Liquid); method: Twin ebulliometer
Temperature, K	Vapor or sublimation pressure, kPa	uncertainty
315.744	41.162	0.036
321.32	50.619	0.04
328.022	64.197	0.045
332.402	74.527	0.052
336.323	84.847	0.058
340.393	96.724	0.062
341.862	101.307	0.066
342.016	101.804	0.065
342.15	102.225	0.066
352.738	140.837	0.087
354.139	146.696	0.087
361.056	178.415	0.097
363.29	189.716	0.11
367.776	214.054	0.12
374.399	254.294	0.131
378.416	281.37	0.145
378.817	284.179	0.145
384.304	324.951	0.164
390.793	378.714	0.176
393.438	402.463	0.189
395.097	417.931	0.202
399.909	465.314	0.211
403.546	503.728	0.228
404.076	509.536	0.228
407.8	551.625	0.243
411.959	601.704	0.261
416.84	664.702	0.274
419.097	695.488	0.288
420.879	720.498	0.305
425.994	796.059	0.314
428.126	829.289	0.332
430.719	871.033	0.343
433.165	911.85	0.362
437.758	992.365	0.373
439.903	1031.74	0.394
442.895	1088.575	0.411
447.008	1170.511	0.435
447.502	1180.73	0.436
453.535	1310.011	0.464
457.473	1399.984	0.497
461.813	1504.518	0.521
464.995	1584.847	0.554
470.261	1725.01	0.575
472.99	1801.254	0.615
478.429	1961.151	0.638
481.544	2057.521	0.667
483.083	2106.526	0.691
485.796	2195.23	0.709
488.266	2278.559	0.743
493.138	2450.363	0.778
497.753	2623.451	0.815
499.76	2701.957	0.848
501.324	2764.641	0.877
504.036	2876.832	0.889
