Measured thermophysical data. Design and construction of an adiabatic calorimeter for samples of less than 1 cm3 in the temperature range T=15 K to T=350 K
Source: J. Chem. Thermodyn., 2006, 10.1016/j.jct.2006.03.016
Compound 1: copper, Cu, InChI=1S/Cu
Compound 2: aluminum oxide (Al2O3), Al2O3, InChI=1S/2Al.3O/q2*+3;3*-2
Compound 3: benzoic acid, C7H6O2, InChI=1S/C7H6O2/c8-7(9)6-4-2-1-3-5-6/h1-5H,(H,8,9)

System: copper; phases: Crystal
Fixed: Pressure, kPa = 101.325
Property: Molar heat capacity at constant pressure, J/K/mol (Crystal); method: Small (less than 1 g) adiabatic calorimetry
Temperature, K	Molar heat capacity at constant pressure, J/K/mol	uncertainty
14.198	0.102681	0.016693
15.682	0.209684	0.017753
16.376	0.238415	0.018
16.771	0.23511	0.017936
17.805	0.307879	0.01861
19.327	0.40494	0.0194
21.001	0.550731	0.020514
22.759	0.702389	0.021512
24.894	0.93641	0.022914
27.192	1.257334	0.024598
29.538	1.620876	0.027059
32.172	2.071151	0.08556
35.066	2.634436	0.087752
35.815	2.79605	0.088394
38.362	3.344037	0.090533
38.952	3.482666	0.091069
42.312	4.275617	0.094138
46.054	5.165888	0.098225
50.213	6.197394	0.10517
54.076	7.127744	0.111755
54.616	7.29574	0.11289
56.098	7.6323	0.1153
58.529	8.2257	0.1197
59.114	8.3601	0.1206
59.498	8.4783	0.1215
63.711	9.4347	0.1286
63.867	9.5076	0.1292
68.551	10.597	0.138
73.281	11.601	0.145
78.072	12.55	0.153
82.914	13.413	0.16
87.795	14.227	0.166
92.708	15.004	0.22
93.134	15.06	0.22
97.656	15.717	0.224
97.698	15.695	0.224
102.69	16.376	0.229
107.7	16.962	0.233
112.73	17.492	0.237
117.78	18.014	0.24
122.84	18.486	0.244
127.92	18.947	0.247
133	19.369	0.25
138.1	19.738	0.253
143.21	20.061	0.255
148.33	20.365	0.257
151.4	20.552	0.259
153.45	20.658	0.259
156.5	20.846	0.261
158.58	20.95	0.261
161.61	21.112	0.263
166.74	21.374	0.265
171.89	21.593	0.266
177.04	21.775	0.268
182.2	21.944	0.269
187.36	22.153	0.27
192.53	22.25	0.271
197.69	22.354	0.272
202.86	22.598	0.274
203.62	22.665	0.274
208.02	22.732	0.275
208.7	22.806	0.275
213.88	22.957	0.276
219.05	23.105	0.277
224.22	23.245	0.278
229.39	23.327	0.279
234.57	23.449	0.28
239.76	23.52	0.28
244.94	23.598	0.281
247.71	23.625	0.281
250.12	23.695	0.282
253.15	23.756	0.282
255.31	23.788	0.282
261.84	23.833	0.283
270.43	24.072	0.285
275.79	24.134	0.285
280.97	24.201	0.286
286.16	24.272	0.286
291.35	24.323	0.286
296.54	24.391	0.287
301.73	24.514	0.288
306.93	24.55	0.288
312.11	24.54	0.288
317.29	24.586	0.288
322.48	24.635	0.289
327.67	24.687	0.289
332.85	24.808	0.29
338.04	24.857	0.29
343.25	24.876	0.291
348.43	25.04	0.292

System: aluminum oxide (Al2O3); phases: Crystal
Fixed: Pressure, kPa = 101.325
Property: Molar heat capacity at constant pressure, J/K/mol (Crystal); method: Small (less than 1 g) adiabatic calorimetry
Temperature, K	Molar heat capacity at constant pressure, J/K/mol	uncertainty
67.512	4.2298	0.0939
72.339	5.2834	0.099
77.036	6.2425	0.1055
81.804	7.4034	0.1137
86.61	8.7253	0.1234
91.443	10.141	0.189
96.309	11.67	0.198
101.2	13.332	0.209
106.12	15.051	0.22
111.05	16.78	0.232
116.01	18.55	0.244
120.97	20.404	0.258
125.95	22.451	0.273
126.3	22.608	0.274
130.94	24.452	0.288
131.11	24.51	0.288
136.11	26.545	0.303
141.13	28.626	0.319
146.18	30.359	0.333
151.22	32.533	0.35
156.26	34.604	0.366
161.32	36.539	0.381
166.38	38.672	0.398
171.45	40.513	0.413
176.54	42.374	0.428
181.62	44.418	0.445
186.71	46.268	0.46
191.8	48.186	0.475
192.43	48.271	0.476
197.63	50.365	0.493
202.75	52.122	0.507
207.86	53.85	0.521
212.97	55.548	0.535
218.09	57.325	0.55
223.2	59.076	0.564
228.33	60.718	0.578
233.45	62.366	0.592
238.56	63.95	0.605
243.82	65.474	0.617
248.97	66.825	0.629
253.98	68.285	0.641
259.13	69.776	0.653
264.27	71.185	0.665
269.43	72.535	0.676
274.59	73.756	0.686
279.73	74.967	0.696
284.88	76.163	0.706
290.03	77.34	0.716
295.19	78.602	0.726
300.35	79.789	0.736
305.76	80.805	0.745
311	82.005	0.755
316.16	83.019	0.763
321.33	83.654	0.769
326.51	84.829	0.778
331.66	86.076	0.789

System: benzoic acid; phases: Crystal
Fixed: Pressure, kPa = 101.325
Property: Molar heat capacity at constant pressure, J/K/mol (Crystal); method: Small (less than 1 g) adiabatic calorimetry
Temperature, K	Molar heat capacity at constant pressure, J/K/mol	uncertainty
15.947	7.2428	0.1024
17.215	7.8337	0.1086
19	9.9642	0.1311
20.932	12.145	0.152
22.912	14.481	0.172
25.235	16.992	0.191
27.827	19.322	0.207
30.447	22.545	0.236
33.46	25.663	0.262
36.824	28.561	0.286
40.347	31.829	0.314
42.492	34.491	0.337
44.384	35.05	0.342
46.364	38.036	0.367
50.057	39.198	0.377
52.256	40.573	0.389
54.24	41.942	0.401
54.476	43.058	0.411
56.709	43.656	0.416
59.171	46.101	0.437
59.644	45.512	0.432
63.044	47.67	0.45
67.377	50.026	0.471
72.182	52.478	0.492
77.01	54.698	0.511
81.663	56.455	0.526
86.466	58.382	0.543
91.425	60.831	0.579
96.328	62.657	0.594
101.31	64.691	0.611
106.39	66.752	0.628
111.42	68.592	0.643
116.46	70.265	0.657
121.51	72.226	0.673
126.57	74.39	0.691
131.52	76.397	0.708
136.54	78.387	0.725
141.64	80.136	0.739
146.72	81.954	0.754
151.83	83.844	0.77
156.96	85.936	0.788
162.08	87.954	0.805
167.21	90.158	0.823
172.34	92.082	0.839
177.47	93.88	0.854
182.61	95.816	0.87
187.75	97.758	0.887
192.89	100.22	0.91
198.03	102.35	0.93
203.11	104.33	0.94
208.2	106.33	0.96
213.34	108.35	0.98
218.49	110.69	1
223.64	113.13	1.02
228.8	115.06	1.03
233.96	117.66	1.05
239.1	120.1	1.07
244.26	122.38	1.09
249.39	124.56	1.11
254.51	127.05	1.13
259.67	129.62	1.15
264.84	131.98	1.17
269.99	134.13	1.19
275.13	137.14	1.22
280.31	138.73	1.23
285.48	141.06	1.25
290.65	143.42	1.27
296.6	146.34	1.3
302.17	148.97	1.32
306.93	151.12	1.34
312.15	153.27	1.35
317.33	155.37	1.37
322.49	157.74	1.39
326.5	160.6	1.42
330.48	161.44	1.42
335.65	163.8	1.44
340.82	165.96	1.46
