Measured thermophysical data. Isopiestic determination of water activity and vapour pressure for ternary (ionic liquid, 1-hexyl-4-methyl pyridinium bromide + d-fructose or sucrose + water) systems and corresponding binary ionic liquid solutions at 298.15 K
Source: J. Chem. Thermodyn., 2018, 10.1016/j.jct.2017.08.023
Compound 1: D-fructose, C6H12O6, InChI=1S/C6H12O6/c7-1-3(9)5(11)6(12)4(10)2-8/h3,5-9,11-12H,1-2H2/t3-,5-,6-/m1/s1, purity 99.5%
Compound 2: D-sucrose, C12H22O11, InChI=1S/C12H22O11/c13-1-4-6(16)8(18)9(19)11(21-4)23-12(3-15)10(20)7(17)5(2-14)22-12/h4-11,13-20H,1-3H2/t4-,5-,6-,7-,8+,9-,10+,11-,12+/m1/s1, purity 99.5%
Compound 3: 1-hexyl-4-methylpyridinium bromide, C12H20BrN, InChI=1S/C12H20N.BrH/c1-3-4-5-6-9-13-10-7-12(2)8-11-13;/h7-8,10-11H,3-6,9H2,1-2H3;1H/q+1;/p-1, purity 98%
Compound 4: water, H2O, InChI=1S/H2O/h1H2

System: 1-hexyl-4-methylpyridinium bromide + water; phases: Liquid
Fixed: Pressure, kPa = 85
Fixed: Temperature, K = 298.15
Property: (Relative) activity of water (Liquid); method: ISOPIE
Molality, mol/kg of 1-hexyl-4-methylpyridinium bromide	(Relative) activity of water	uncertainty
0.3795	0.9895	0.0387
0.449	0.9883	0.0387
0.472	0.9878	0.0387
0.532	0.9869	0.0387
0.6877	0.9838	0.0387
0.7252	0.9834	0.0387
0.8152	0.9818	0.0387
0.9992	0.9785	0.0387
1.0268	0.9781	0.0387
1.1067	0.9769	0.0387
1.33	0.9737	0.0387
0.7551	0.9834	0.0387
0.4314	0.989	0.039
0.5881	0.9855	0.0387
0.7109	0.9838	0.0387

System: D-fructose + 1-hexyl-4-methylpyridinium bromide + water; phases: Liquid
Fixed: Pressure, kPa = 85
Fixed: Temperature, K = 298.15
Property: (Relative) activity of water (Liquid); method: ISOPIE
Molality, mol/kg of 1-hexyl-4-methylpyridinium bromide	Molality, mol/kg of D-fructose	(Relative) activity of water	uncertainty
0.6877	0	0.9838	0.0387
0.4021	0.334	0.9838	0.0387
0.1639	0.6158	0.9838	0.0387
0	0.8634	0.9838	0.0387
0.7551	0	0.9834	0.0387
0.3609	0.3969	0.9834	0.0387
0.2869	0.4925	0.9834	0.0387
0	0.891	0.9834	0.0387
0.8152	0	0.9818	0.0387
0.4584	0.3815	0.9818	0.0387
0.1892	0.7107	0.9818	0.0387
0	0.9839	0.9818	0.0387
0.9992	0	0.9785	0.0387
0.5357	0.4458	0.9785	0.0387
0.2205	0.8281	0.9785	0.0387
0	1.1032	0.9785	0.0387
1.1067	0	0.9769	0.0387
0.5967	0.4963	0.9769	0.0387
0.2376	0.8912	0.9769	0.0387
0	1.2286	0.9769	0.0387
1.33	0	0.9737	0.0387
0.6124	0.5484	0.9737	0.0387
0.2678	1.0048	0.9737	0.0387
0	1.3925	0.9737	0.0387

System: D-sucrose + 1-hexyl-4-methylpyridinium bromide + water; phases: Liquid
Fixed: Pressure, kPa = 85
Fixed: Temperature, K = 298.15
Property: (Relative) activity of water (Liquid); method: ISOPIE
Molality, mol/kg of 1-hexyl-4-methylpyridinium bromide	Molality, mol/kg of D-sucrose	(Relative) activity of water	uncertainty
0.3795	0	0.9895	0.0387
0.2657	0.1314	0.9895	0.0387
0.1507	0.2991	0.9895	0.0387
0	0.5592	0.9895	0.0387
0.4314	0	0.989	0.039
0.307	0.1458	0.989	0.039
0.1531	0.3292	0.989	0.039
0	0.5787	0.989	0.039
0.449	0	0.9883	0.0387
0.3136	0.1554	0.9883	0.0387
0.1712	0.3393	0.9883	0.0387
0	0.5862	0.9883	0.0387
0.472	0	0.9878	0.0387
0.343	0.1628	0.9878	0.0387
0.174	0.3738	0.9878	0.0387
0	0.6366	0.9878	0.0387
0.532	0	0.9869	0.0387
0.3748	0.1779	0.9869	0.0387
0.1863	0.3998	0.9869	0.0387
0	0.684	0.9869	0.0387
0.5881	0	0.9855	0.0387
0.4143	0.1966	0.9855	0.0387
0.208	0.4474	0.9855	0.0387
0	0.7481	0.9855	0.0387
0.7109	0	0.9838	0.0387
0.4743	0.225	0.9838	0.0387
0.2298	0.4938	0.9838	0.0387
0	0.8249	0.9838	0.0387
1.0268	0	0.9781	0.0387
0.6462	0.3065	0.9781	0.0387
0.3041	0.6536	0.9781	0.0387
0	1.0747	0.9781	0.0387

System: D-fructose + water; phases: Liquid
Fixed: Pressure, kPa = 85
Fixed: Temperature, K = 298.15
Property: (Relative) activity of water (Liquid); method: ISOPIE
Molality, mol/kg of D-fructose	(Relative) activity of water	uncertainty
0.8634	0.9838	0.0387
0.891	0.9834	0.0387
0.9839	0.9818	0.0387
1.1032	0.9785	0.0387
1.2286	0.9769	0.0387
1.3925	0.9737	0.0387

System: D-sucrose + water; phases: Liquid
Fixed: Pressure, kPa = 85
Fixed: Temperature, K = 298.15
Property: (Relative) activity of water (Liquid); method: ISOPIE
Molality, mol/kg of D-sucrose	(Relative) activity of water	uncertainty
0.5592	0.9895	0.0387
0.5787	0.989	0.039
0.5862	0.9883	0.0387
0.6366	0.9878	0.0387
0.684	0.9869	0.0387
0.7481	0.9855	0.0387
0.8249	0.9838	0.0387
1.0747	0.9781	0.0387
