Measured thermophysical data. Speed of sound, density, and heat capacity for (2-methyl-2-butanol + heptane) at pressures up to 100 MPa and temperatures from (293 to 318) K. Experimental results and theoretical investigations
Source: J. Chem. Thermodyn., 2010, 10.1016/j.jct.2009.09.001
Compound 1: 2-methylbutan-2-ol, C5H12O, InChI=1S/C5H12O/c1-4-5(2,3)6/h6H,4H2,1-3H3, purity 99%
Compound 2: heptane, C7H16, InChI=1S/C7H16/c1-3-5-7-6-4-2/h3-7H2,1-2H3, purity 99%

System: 2-methylbutan-2-ol + heptane; phases: Liquid
Fixed: Pressure, kPa = 101
Property: Speed of sound, m/s (Liquid); method: Pulse-echo method
Temperature, K	Mole fraction of 2-methylbutan-2-ol	Speed of sound, m/s	uncertainty
292.88	0.0983	1148.08	1.58
292.88	0.8045	1173.01	1.57
292.89	0.0214	1150.88	1.58
292.89	0.6013	1159.39	1.58
292.9	0	1152.8	1.58
292.9	0.3027	1149.34	1.58
292.91	0.0509	1149.21	1.58
292.91	0.1967	1147.86	1.58
292.91	0.3978	1151.42	1.58
292.91	0.5098	1155.17	1.58
292.91	0.7041	1165.42	1.57
292.93	0.903	1182.86	1.57
298.16	0.6013	1137.77	1.57
298.16	0.8045	1152.66	1.57
298.17	0.0214	1127.97	1.58
298.17	0.0983	1125.2	1.57
298.18	0	1129.83	1.58
298.18	0.3027	1126.65	1.57
298.19	0.0509	1126.26	1.57
298.19	0.1967	1125.02	1.57
298.19	0.3978	1128.93	1.57
298.19	0.7041	1144.23	1.57
298.2	0.5098	1133	1.57
298.2	0.903	1163.25	1.57
303.14	0.0983	1103.73	1.57
303.14	0.6013	1117.41	1.57
303.14	0.8045	1133.48	1.57
303.15	0.0214	1106.56	1.57
303.16	0	1108.3	1.57
303.16	0.3027	1105.29	1.57
303.17	0.0509	1104.82	1.57
303.17	0.1967	1103.64	1.57
303.17	0.3978	1107.88	1.57
303.17	0.5098	1112.3	1.57
303.17	0.7041	1124.52	1.57
303.18	0.903	1144.83	1.57
308.12	0.0983	1082.34	1.57
308.12	0.6013	1097.17	1.56
308.12	0.8045	1114.36	1.56
308.13	0.0214	1085.23	1.57
308.14	0.3027	1084.1	1.57
308.15	0	1086.77	1.57
308.15	0.0509	1083.51	1.57
308.15	0.1967	1082.28	1.57
308.15	0.3978	1086.92	1.57
308.15	0.5098	1091.7	1.57
308.15	0.903	1126.36	1.56
308.16	0.7041	1104.77	1.56
313.1	0.8045	1095.24	1.56
313.11	0.0214	1064.03	1.57
313.11	0.0983	1061.07	1.56
313.11	0.6013	1077.01	1.56
313.12	0.3978	1066.08	1.56
313.13	0	1065.46	1.57
313.13	0.0509	1062.31	1.56
313.13	0.1967	1061.08	1.56
313.13	0.3027	1063.07	1.56
313.13	0.5098	1071.2	1.56
313.13	0.7041	1085.13	1.56
313.14	0.903	1107.83	1.56
318.29	0.0983	1039.22	1.56
318.29	0.6013	1056.18	1.56
318.29	0.8045	1075.38	1.56
318.3	0.0214	1042.05	1.56
318.3	0.3978	1044.58	1.56
318.31	0	1043.43	1.56
318.31	0.1967	1039.23	1.56
318.31	0.3027	1041.31	1.56
318.31	0.5098	1050.04	1.56
318.31	0.7041	1064.74	1.56
318.32	0.0509	1040.49	1.56
318.32	0.903	1088.54	1.56

System: 2-methylbutan-2-ol + heptane; phases: Liquid
Fixed: Pressure, kPa = 101
Property: Mass density, kg/m3 (Liquid); method: Vibrating tube method
Temperature, K	Mole fraction of 2-methylbutan-2-ol	Mass density, kg/m3	uncertainty
293.148	0.0998	691.893	0.277
293.149	0.2847	710.084	0.282
293.151	0.0433	686.905	0.275
293.151	0.3744	719.733	0.283
293.151	0.5133	735.927	0.287
293.151	0.9038	791.667	0.305
293.153	0.0613	688.452	0.276
293.153	0.0993	691.85	0.277
293.153	0.6083	747.934	0.29
293.153	0.6958	759.754	0.295
293.153	0.8028	775.423	0.301
293.153	0.9599	801.502	0.309
293.154	0.0253	685.446	0.272
293.154	0.2081	702.236	0.28
293.155	0.1461	696.204	0.279
293.155	0.4415	727.362	0.285
293.156	0	683.763	0.261
298.144	0.0433	682.574	0.275
298.144	0.0613	684.094	0.276
298.144	0.0993	687.453	0.277
298.144	0.3744	715.242	0.282
298.144	0.6083	743.448	0.289
298.144	0.8028	770.951	0.298
298.144	0.9038	787.17	0.303
298.144	0.9599	796.966	0.308
298.145	0.1461	691.775	0.279
298.145	0.2081	697.781	0.28
298.145	0.4415	722.866	0.284
298.145	0.5133	731.43	0.287
298.145	0.6958	755.276	0.293
298.146	0.0253	681.154	0.271
298.148	0.0998	687.493	0.277
298.15	0.2847	705.602	0.281
298.156	0	679.528	0.262
303.145	0.1461	687.293	0.279
303.145	0.2847	701.04	0.282
303.147	0.4415	718.302	0.285
303.148	0.5133	726.844	0.287
303.149	0.0253	676.824	0.271
303.149	0.0613	679.693	0.277
303.149	0.2081	693.255	0.28
303.149	0.6083	738.836	0.29
303.149	0.8028	766.386	0.299
303.149	0.9599	792.355	0.309
303.15	0.0998	683.038	0.278
303.15	0.9038	782.583	0.304
303.152	0.0993	682.997	0.278
303.153	0.3744	710.662	0.283
303.154	0.6958	750.695	0.294
303.155	0.0433	678.199	0.275
303.156	0	675.267	0.262
308.143	0.4415	713.661	0.286
308.144	0.1461	682.765	0.28
308.144	0.2081	688.68	0.281
308.144	0.6083	734.187	0.291
308.144	0.8028	761.75	0.3
308.145	0.0253	672.478	0.271
308.145	0.0613	675.262	0.277
308.145	0.0993	678.516	0.278
308.145	0.0998	678.555	0.278
308.145	0.5133	722.199	0.288
308.145	0.9038	777.935	0.304
308.145	0.9599	787.681	0.309
308.146	0.2847	696.437	0.283
308.147	0.0433	673.811	0.275
308.147	0.3744	706.035	0.284
308.147	0.6958	746.055	0.295
308.155	0	670.976	0.263
313.145	0.4415	708.938	0.287
313.146	0.0998	674.027	0.278
313.146	0.1461	678.183	0.28
313.148	0.0993	673.983	0.278
313.148	0.2081	684.053	0.282
313.148	0.6958	741.344	0.296
313.148	0.8028	757.021	0.3
313.148	0.9599	782.924	0.31
313.149	0.0253	668.105	0.271
313.149	0.2847	691.757	0.283
313.149	0.3744	701.344	0.284
313.149	0.5133	717.467	0.289
313.149	0.9038	773.202	0.305
313.15	0.0433	669.387	0.275
313.15	0.0613	670.796	0.277
313.15	0.6083	729.457	0.292
313.155	0	666.658	0.264
318.144	0.0993	669.422	0.278
318.144	0.2081	679.372	0.281
318.145	0.0253	663.71	0.271
318.145	0.0433	664.939	0.274
318.145	0.0613	666.304	0.277
318.145	0.0998	669.467	0.278
318.145	0.2847	687.028	0.283
318.145	0.5133	712.664	0.288
318.145	0.6083	724.644	0.29
318.145	0.8028	752.202	0.298
318.145	0.9038	768.373	0.304
318.145	0.9599	778.083	0.31
318.146	0.3744	696.574	0.284
318.146	0.6958	736.527	0.294
318.15	0.1461	673.558	0.28
318.15	0.4415	704.147	0.286
318.156	0	662.306	0.264

System: 2-methylbutan-2-ol + heptane; phases: Liquid
Property: Speed of sound, m/s (Liquid); method: Pulse-echo method
Temperature, K	Pressure, kPa	Mole fraction of 2-methylbutan-2-ol	Speed of sound, m/s	uncertainty
292.85	30390	0.3	1337.31	2.39
292.85	45590	0.3	1411.87	2.43
292.85	60790	0.3	1478.97	2.48
292.85	75990	0.3	1540.38	2.52
292.85	91180	0.3	1597.57	2.57
292.85	101320	0.3	1633.48	2.61
292.85	101320	0.9	1645.46	2.59
292.86	15200	0	1257.71	2.36
292.86	15200	0.3	1252.86	2.36
292.86	15200	0.9	1278.8	2.35
292.86	30390	0	1343.07	2.39
292.86	30390	0.1011	1338.43	2.39
292.86	30390	0.6998	1345.35	2.39
292.86	30390	0.9	1358.34	2.38
292.86	45590	0	1418.28	2.43
292.86	45590	0.0504	1415.06	2.43
292.86	45590	0.1011	1413.7	2.43
292.86	45590	0.4988	1413.39	2.43
292.86	45590	0.6998	1417.39	2.43
292.86	45590	0.9	1429.57	2.42
292.86	60790	0	1485.89	2.47
292.86	60790	0.0504	1482.69	2.48
292.86	60790	0.1011	1481.41	2.48
292.86	60790	0.4988	1479.7	2.47
292.86	60790	0.6998	1482.75	2.47
292.86	60790	0.9	1494.16	2.46
292.86	75990	0	1547.62	2.52
292.86	75990	0.0504	1544.48	2.52
292.86	75990	0.1011	1543.17	2.52
292.86	75990	0.4988	1540.45	2.52
292.86	75990	0.6998	1541.96	2.51
292.86	75990	0.9	1553.97	2.51
292.86	91180	0	1605.47	2.57
292.86	91180	0.0504	1602.29	2.57
292.86	91180	0.1011	1600.92	2.57
292.86	91180	0.4988	1596.92	2.57
292.86	91180	0.6998	1598.68	2.57
292.86	91180	0.9	1610.09	2.56
292.86	101320	0	1641.43	2.6
292.86	101320	0.0504	1638.34	2.61
292.86	101320	0.1011	1637.02	2.6
292.86	101320	0.4988	1632.71	2.61
292.86	101320	0.6998	1633.68	2.64
292.87	15200	0.0504	1254.23	2.36
292.87	15200	0.1011	1253.09	2.36
292.87	15200	0.4988	1256.74	2.36
292.87	15200	0.6998	1263.96	2.36
292.87	30390	0.0209	1341.07	2.39
292.87	30390	0.0504	1339.68	2.39
292.87	30390	0.4988	1339.8	2.39
292.87	45590	0.0209	1416.48	2.43
292.87	60790	0.0105	1485.14	2.48
292.87	60790	0.0209	1484.12	2.48
292.87	75990	0.0105	1546.97	2.52
292.87	75990	0.0209	1545.91	2.52
292.87	91180	0.0105	1604.8	2.57
292.87	91180	0.0209	1603.76	2.57
292.87	101320	0.0105	1640.83	2.6
292.87	101320	0.0209	1639.89	2.61
292.88	15200	0.0105	1256.81	2.36
292.88	15200	0.0209	1255.64	2.36
292.88	30390	0.0105	1342.27	2.39
292.88	45590	0.0105	1417.58	2.43
298.14	15200	0	1237.19	2.36
298.14	30390	0	1324.25	2.4
298.14	30390	0.9	1342.42	2.38
298.14	45590	0	1400.58	2.44
298.14	45590	0.9	1414.47	2.43
298.14	60790	0	1469.51	2.48
298.14	60790	0.9	1479.92	2.47
298.14	75990	0	1531.94	2.52
298.14	75990	0.9	1539.95	2.51
298.14	91180	0	1590.08	2.58
298.14	91180	0.9	1596.29	2.56
298.14	101320	0	1626.76	2.61
298.14	101320	0.9	1631.92	2.59
298.15	15200	0.1011	1232.56	2.36
298.15	15200	0.9	1261.56	2.35
298.15	30390	0.1011	1319.54	2.39
298.15	30390	0.4988	1321.45	2.39
298.15	30390	0.6998	1327.74	2.39
298.15	45590	0.1011	1395.73	2.44
298.15	45590	0.4988	1395.93	2.43
298.15	45590	0.6998	1400.93	2.43
298.15	60790	0.0504	1466.11	2.48
298.15	60790	0.1011	1464.71	2.48
298.15	60790	0.4988	1463.34	2.48
298.15	60790	0.6998	1467.38	2.47
298.15	75990	0.0504	1528.71	2.52
298.15	75990	0.1011	1527.32	2.52
298.15	75990	0.4988	1524.8	2.52
298.15	75990	0.6998	1527.96	2.51
298.15	91180	0.0209	1588.25	2.58
298.15	91180	0.0504	1586.68	2.58
298.15	91180	0.1011	1585.24	2.58
298.15	91180	0.4988	1581.88	2.57
298.15	91180	0.6998	1584.38	2.56
298.15	101320	0.0209	1625.13	2.61
298.15	101320	0.0504	1623.59	2.61
298.15	101320	0.1011	1622.24	2.61
298.15	101320	0.6998	1620.2	2.62
298.16	15200	0.0504	1233.69	2.36
298.16	15200	0.4988	1236.77	2.35
298.16	15200	0.6998	1244.92	2.35
298.16	30390	0.0105	1323.56	2.4
298.16	30390	0.0209	1322.34	2.39
298.16	30390	0.0504	1320.76	2.4
298.16	30390	0.3	1318.39	2.39
298.16	45590	0.0105	1399.85	2.44
298.16	45590	0.0209	1398.67	2.44
298.16	45590	0.0504	1397.14	2.44
298.16	45590	0.3	1393.89	2.44
298.16	60790	0.0209	1467.67	2.48
298.16	60790	0.3	1462.14	2.48
298.16	75990	0.0105	1531.31	2.52
298.16	75990	0.0209	1530.22	2.52
298.16	75990	0.3	1524.26	2.52
298.16	91180	0.0105	1589.25	2.58
298.16	91180	0.3	1581.91	2.57
298.16	101320	0.0105	1626.12	2.61
298.16	101320	0.3	1618.46	2.61
298.16	101320	0.4988	1617.99	2.61
298.17	15200	0.0105	1236.6	2.36
298.17	15200	0.0209	1235.26	2.36
298.17	15200	0.3	1232.37	2.35
298.17	60790	0.0105	1468.88	2.48
303.11	45590	0	1384.18	2.44
303.11	60790	0	1453.87	2.48
303.11	91180	0	1575.87	2.58
303.12	15200	0	1218.27	2.35
303.12	30390	0	1306.82	2.39
303.12	75990	0	1517.4	2.53
303.12	75990	0.9	1526.91	2.51
303.12	91180	0.9	1583.41	2.56
303.12	101320	0	1612.93	2.61
303.13	15200	0.3	1213.6	2.35
303.13	15200	0.9	1245	2.35
303.13	30390	0.3	1300.97	2.39
303.13	30390	0.9	1327.11	2.38
303.13	45590	0.3	1377.64	2.43
303.13	45590	0.4988	1380.07	2.43
303.13	45590	0.6998	1385.75	2.43
303.13	45590	0.9	1399.96	2.43
303.13	60790	0.3	1446.71	2.48
303.13	60790	0.6998	1452.91	2.47
303.13	60790	0.9	1466.32	2.47
303.13	75990	0.3	1509.83	2.52
303.13	75990	0.4988	1510.6	2.52
303.13	75990	0.6998	1514.55	2.51
303.13	91180	0.3	1567.58	2.57
303.13	91180	0.6998	1571.22	2.56
303.13	101320	0.3	1604.68	2.62
303.13	101320	0.4988	1604.59	2.61
303.13	101320	0.6998	1607.44	2.62
303.13	101320	0.9	1619.52	2.6
303.14	15200	0.0209	1216.51	2.35
303.14	15200	0.1011	1213.54	2.35
303.14	15200	0.4988	1218.45	2.35
303.14	15200	0.6998	1227.31	2.35
303.14	30390	0.0209	1305.1	2.39
303.14	30390	0.1011	1302	2.39
303.14	30390	0.4988	1304.5	2.39
303.14	30390	0.6998	1311.47	2.39
303.14	45590	0.0209	1382.45	2.44
303.14	45590	0.1011	1379.36	2.44
303.14	60790	0.0209	1452.15	2.48
303.14	60790	0.0504	1450.46	2.48
303.14	60790	0.1011	1448.99	2.48
303.14	60790	0.4988	1448.19	2.48
303.14	75990	0.0209	1515.8	2.53
303.14	75990	0.0504	1514.17	2.53
303.14	75990	0.1011	1512.71	2.53
303.14	91180	0.0105	1575.22	2.58
303.14	91180	0.0209	1574.15	2.58
303.14	91180	0.0504	1572.49	2.58
303.14	91180	0.1011	1570.93	2.58
303.14	91180	0.4988	1567.82	2.57
303.14	101320	0.0105	1612.31	2.61
303.14	101320	0.0209	1611.34	2.62
303.14	101320	0.0504	1609.7	2.62
303.14	101320	0.1011	1608.11	2.62
303.15	15200	0.0105	1217.71	2.36
303.15	15200	0.0504	1214.79	2.35
303.15	30390	0.0105	1306.4	2.4
303.15	30390	0.0504	1303.36	2.39
303.15	45590	0.0105	1383.61	2.44
303.15	45590	0.0504	1380.79	2.44
303.15	60790	0.0105	1453.17	2.48
303.15	75990	0.0105	1516.81	2.53
308.1	15200	0.9	1228.65	2.35
308.1	30390	0	1289.59	2.4
308.1	30390	0.9	1311.99	2.38
308.1	45590	0	1368.14	2.44
308.1	45590	0.9	1385.68	2.43
308.1	60790	0	1438.58	2.48
308.1	60790	0.4988	1433.51	2.48
308.1	60790	0.9	1452.59	2.47
308.1	75990	0	1502.93	2.53
308.1	75990	0.4988	1496.54	2.52
308.1	75990	0.9	1514.1	2.51
308.1	91180	0	1561.7	2.58
308.1	91180	0.4988	1554.36	2.57
308.1	91180	0.9	1570.77	2.56
308.1	101320	0.4988	1591.17	2.62
308.1	101320	0.9	1607.04	2.6
308.11	15200	0	1199.52	2.35
308.11	15200	0.4988	1200.38	2.35
308.11	30390	0.0504	1286.31	2.39
308.11	30390	0.4988	1287.83	2.39
308.11	45590	0.0504	1364.94	2.44
308.11	45590	0.4988	1364.56	2.43
308.11	60790	0.0504	1435.47	2.48
308.11	60790	0.3	1431.92	2.48
308.11	75990	0.0504	1499.74	2.53
308.11	75990	0.3	1495.55	2.52
308.11	91180	0.0504	1558.6	2.58
308.11	91180	0.1011	1557.1	2.58
308.11	91180	0.3	1554.01	2.57
308.11	101320	0	1599.4	2.62
308.11	101320	0.0504	1596.15	2.62
308.11	101320	0.1011	1594.52	2.62
308.11	101320	0.3	1591.13	2.62
308.11	101320	0.6998	1594.86	2.62
308.12	15200	0.0504	1196.07	2.35
308.12	15200	0.1011	1194.82	2.35
308.12	15200	0.3	1195.03	2.35
308.12	30390	0.0209	1288.05	2.39
308.12	30390	0.1011	1284.9	2.39
308.12	30390	0.3	1283.98	2.39
308.12	30390	0.6998	1295.56	2.39
308.12	45590	0.0209	1366.66	2.44
308.12	45590	0.1011	1363.5	2.44
308.12	45590	0.3	1361.92	2.43
308.12	45590	0.6998	1370.93	2.43
308.12	60790	0.0209	1437.16	2.48
308.12	60790	0.1011	1434.06	2.48
308.12	60790	0.6998	1438.93	2.47
308.12	75990	0.0209	1501.47	2.53
308.12	75990	0.1011	1498.24	2.53
308.12	75990	0.6998	1501.18	2.52
308.12	91180	0.0209	1560.3	2.58
308.12	91180	0.6998	1558.33	2.57
308.12	101320	0.0209	1597.93	2.62
308.13	15200	0.0209	1197.86	2.35
308.13	15200	0.6998	1209.9	2.35
308.13	91180	0.0105	1561.19	2.58
308.13	101320	0.0105	1598.78	2.62
308.14	15200	0.0105	1199.1	2.35
308.14	30390	0.0105	1289.1	2.4
308.14	45090	0.0105	1365.26	2.44
308.14	60790	0.0105	1438.09	2.49
308.14	75990	0.0105	1502.35	2.53
313.04	15200	0	1181.16	2.35
313.04	30390	0	1272.88	2.39
313.04	45590	0	1352.86	2.44
313.04	60790	0	1424.2	2.48
313.04	75990	0	1489.01	2.53
313.04	101320	0	1586.16	2.62
313.05	91180	0	1548.35	2.58
313.07	101320	0.9	1594.97	2.6
313.08	15200	0.9	1212.36	2.35
313.08	30390	0.0504	1269.57	2.39
313.08	30390	0.4988	1271.56	2.39
313.08	30390	0.6998	1280.08	2.39
313.08	30390	0.9	1297.06	2.38
313.08	45590	0.0504	1349.51	2.44
313.08	45590	0.4988	1349.52	2.43
313.08	45590	0.6998	1356.59	2.43
313.08	45590	0.9	1371.79	2.43
313.08	60790	0.0504	1421.04	2.48
313.08	60790	0.3	1417.37	2.48
313.08	60790	0.6998	1425.42	2.47
313.08	60790	0.9	1439.44	2.47
313.08	75990	0.0504	1485.68	2.53
313.08	75990	0.6998	1488.17	2.52
313.08	75990	0.9	1501.42	2.51
313.08	91180	0.0504	1545.11	2.58
313.08	91180	0.4988	1541.34	2.57
313.08	91180	0.6998	1545.64	2.57
313.08	91180	0.9	1558.48	2.56
313.08	101320	0.0504	1582.81	2.62
313.08	101320	0.4988	1578.56	2.62
313.08	101320	0.6998	1582.44	2.63
313.09	15200	0.0504	1177.84	2.35
313.09	15200	0.1011	1176.47	2.35
313.09	15200	0.3	1176.75	2.35
313.09	15200	0.4988	1182.42	2.35
313.09	15200	0.6998	1192.86	2.35
313.09	30390	0.1011	1268.14	2.39
313.09	30390	0.3	1267.44	2.39
313.09	45590	0.1011	1347.98	2.44
313.09	45590	0.3	1346.55	2.44
313.09	60790	0.1011	1419.38	2.48
313.09	60790	0.4988	1419.44	2.48
313.09	75990	0.1011	1484.18	2.53
313.09	75990	0.3	1481.64	2.52
313.09	75990	0.4988	1483.03	2.52
313.09	91180	0.1011	1543.55	2.58
313.09	91180	0.3	1540.66	2.58
313.09	101320	0.1011	1581.16	2.62
313.09	101320	0.3	1578.09	2.62
313.1	45590	0.0209	1351.34	2.44
313.1	60790	0.0209	1422.69	2.48
313.1	75990	0.0209	1487.43	2.53
313.1	91180	0.0209	1546.84	2.58
313.1	101320	0.0209	1584.49	2.62
313.11	15200	0.0209	1179.64	2.35
313.11	30390	0.0209	1271.37	2.39
313.11	75990	0.0105	1488.39	2.53
313.11	91180	0.0105	1547.81	2.58
313.11	101320	0.0105	1585.42	2.62
313.12	15200	0.0105	1180.68	2.35
313.12	30390	0.0105	1272.33	2.4
313.12	45590	0.0105	1352.29	2.44
313.12	60790	0.0105	1423.63	2.48
318.15	45590	0.0504	1333.86	2.44
318.15	60790	0.0504	1406.12	2.49
318.15	60790	0.4988	1404.8	2.48
318.15	101320	0.6998	1569.93	2.64
318.16	15200	0.0504	1159.23	2.35
318.16	15200	0.4988	1164.31	2.34
318.16	30390	0.0504	1252.82	2.4
318.16	30390	0.4988	1255.09	2.39
318.16	30390	0.6998	1264.09	2.39
318.16	45590	0.4988	1334.15	2.44
318.16	45590	0.6998	1341.71	2.43
318.16	60790	0.6998	1411.35	2.47
318.16	75990	0.0504	1471.73	2.53
318.16	75990	0.4988	1469.22	2.52
318.16	75990	0.6998	1474.81	2.52
318.16	91180	0.0504	1531.77	2.58
318.16	91180	0.4988	1528.23	2.57
318.16	91180	0.6998	1532.41	2.57
318.16	101320	0.0504	1569.54	2.62
318.16	101320	0.4988	1565.33	2.62
318.17	15200	0.6998	1175.44	2.34
318.17	45590	0.0209	1335.73	2.44
318.17	60790	0.0209	1407.94	2.49
318.17	75990	0.0209	1473.59	2.53
318.17	91180	0.0209	1533.59	2.58
318.17	101320	0.0209	1571.44	2.62
318.18	15200	0.0209	1161.02	2.35
318.18	15200	0.3	1158.6	2.34
318.18	30390	0.0209	1254.65	2.4
318.18	30390	0.3	1250.92	2.39
318.18	45590	0.3	1331.03	2.44
318.18	60790	0.3	1402.58	2.48
318.18	75990	0.3	1467.76	2.53
318.18	91180	0.3	1527.35	2.58
318.18	101320	0.3	1564.73	2.62
318.19	45590	0.0105	1336.55	2.45
318.19	60790	0.0105	1408.75	2.49
318.19	101320	0.0105	1572.09	2.62
318.2	15200	0.0105	1161.95	2.35
318.2	30390	0.0105	1255.56	2.4
318.2	75990	0.0105	1474.41	2.53
318.2	91180	0.0105	1534.33	2.58
318.24	15200	0.9	1195.53	2.35
318.24	30390	0.9	1281.71	2.39
318.25	15200	0	1161.94	2.35
318.25	30390	0	1255.56	2.39
318.25	45590	0	1336.69	2.44
318.25	60790	0	1408.84	2.49
318.25	75990	0	1474.55	2.53
318.25	91180	0	1534.54	2.58
318.25	101320	0	1572.62	2.62
318.26	45590	0.9	1357.51	2.43
318.26	60790	0.9	1426.01	2.48
318.26	75990	0.9	1488.47	2.52
318.26	91180	0.9	1545.91	2.56
318.26	101320	0.9	1582.53	2.6
318.27	45590	0.1011	1332	2.44
318.27	60790	0.1011	1404.18	2.49
318.27	75990	0.1011	1469.88	2.53
318.27	91180	0.1011	1529.94	2.58
318.27	101320	0.1011	1567.56	2.62
318.28	15200	0.1011	1157.54	2.35
318.28	30390	0.1011	1251	2.4
