Measured thermophysical data. Experimental determination and modeling of excess molar volumes, viscosities and refractive indices of the binary systems (pyridine + 1-propanol, + 1,2-propanediol, + 1,3-propanediol, and + glycerol). New UNIFAC-VISCO  parameters determination
Source: J. Chem. Thermodyn., 2013, 10.1016/j.jct.2012.06.031
Compound 1: pyridine, C5H5N, InChI=1S/C5H5N/c1-2-4-6-5-3-1/h1-5H, purity 99.8%
Compound 2: propan-1-ol, C3H8O, InChI=1S/C3H8O/c1-2-3-4/h4H,2-3H2,1H3, purity 99.8%
Compound 3: 1,2-propanediol, C3H8O2, InChI=1S/C3H8O2/c1-3(5)2-4/h3-5H,2H2,1H3, purity 99.5%
Compound 4: propan-1,3-diol, C3H8O2, InChI=1S/C3H8O2/c4-2-1-3-5/h4-5H,1-3H2, purity 98%
Compound 5: glycerol, C3H8O3, InChI=1S/C3H8O3/c4-1-3(6)2-5/h3-6H,1-2H2, purity 99.5%

System: pyridine; phases: Liquid
Fixed: Pressure, kPa = 101.325
Property: Refractive index (Na D-line) (Liquid); method: Standard Abbe refractometry
Temperature, K	Refractive index (Na D-line)	uncertainty
288.15	1.51184	0.00031
293.15	1.509	0.00031
298.15	1.50616	0.00031
303.15	1.50331	0.00031
308.15	1.50048	0.00031
313.15	1.49769	0.00031
318.15	1.49493	0.00031
323.15	1.49219	0.00031

System: pyridine; phases: Liquid
Fixed: Pressure, kPa = 101
Property: Viscosity, Pa*s (Liquid); method: Concentric cylinders viscometry
Temperature, K	Viscosity, Pa*s	uncertainty
288.15	0.0010304	8.9e-06
293.15	0.00095882	8.73e-06
298.15	0.00089434	8.59e-06
303.15	0.00083553	8.47e-06
308.15	0.00078373	8.36e-06
313.15	0.00073538	8.26e-06
318.15	0.00069124	8.17e-06
323.15	0.00065075	8.09e-06

System: pyridine; phases: Liquid
Fixed: Pressure, kPa = 101
Property: Mass density, kg/m3 (Liquid); method: Vibrating tube method
Temperature, K	Mass density, kg/m3	uncertainty
288.15	988.061	0.115
293.15	983.038	0.115
298.15	978.006	0.116
303.15	972.967	0.117
308.15	967.913	0.117
313.15	962.849	0.118
318.15	957.769	0.119
323.15	952.673	0.12

System: propan-1-ol; phases: Liquid
Fixed: Pressure, kPa = 101.325
Property: Refractive index (Na D-line) (Liquid); method: Standard Abbe refractometry
Temperature, K	Refractive index (Na D-line)	uncertainty
288.15	1.3878	0.00031
293.15	1.38576	0.00031
298.15	1.38369	0.00031
303.15	1.38162	0.00031
308.15	1.37918	0.00031
313.15	1.37695	0.00031
318.15	1.37469	0.00031
323.15	1.37231	0.00031

System: propan-1-ol; phases: Liquid
Fixed: Pressure, kPa = 101
Property: Viscosity, Pa*s (Liquid); method: Concentric cylinders viscometry
Temperature, K	Viscosity, Pa*s	uncertainty
288.15	0.0025139	1.27e-05
293.15	0.0022085	1.19e-05
298.15	0.0019503	1.12e-05
303.15	0.001727	1.06e-05
308.15	0.0015419	1.01e-05
313.15	0.0013783	9.7e-06
318.15	0.0012365	9.4e-06
323.15	0.0011241	9.1e-06

System: propan-1-ol; phases: Liquid
Fixed: Pressure, kPa = 101
Property: Mass density, kg/m3 (Liquid); method: Vibrating tube method
Temperature, K	Mass density, kg/m3	uncertainty
288.15	807.947	0.146
293.15	803.963	0.147
298.15	799.953	0.148
303.15	795.915	0.149
308.15	791.84	0.15
313.15	787.721	0.151
318.15	783.553	0.152
323.15	779.334	0.153

System: 1,2-propanediol; phases: Liquid
Fixed: Pressure, kPa = 101.325
Property: Refractive index (Na D-line) (Liquid); method: Standard Abbe refractometry
Temperature, K	Refractive index (Na D-line)	uncertainty
288.15	1.43411	0.00033
293.15	1.43247	0.00033
298.15	1.43081	0.00033
303.15	1.42915	0.00033
308.15	1.42751	0.00033
313.15	1.42581	0.00033
318.15	1.42407	0.00033
323.15	1.4223	0.00033

System: 1,2-propanediol; phases: Liquid
Fixed: Pressure, kPa = 101
Property: Viscosity, Pa*s (Liquid); method: Concentric cylinders viscometry
Temperature, K	Viscosity, Pa*s	uncertainty
288.15	0.081206	0.000603
293.15	0.058753	0.000248
298.15	0.043437	0.000196
303.15	0.032754	0.000152
308.15	0.025156	0.000116
313.15	0.019646	9.2e-05
318.15	0.015581	7.1e-05
323.15	0.012553	5.8e-05

System: 1,2-propanediol; phases: Liquid
Fixed: Pressure, kPa = 101
Property: Mass density, kg/m3 (Liquid); method: Vibrating tube method
Temperature, K	Mass density, kg/m3	uncertainty
288.15	1040.083	0.138
293.15	1036.458	0.137
298.15	1032.797	0.136
303.15	1029.09	0.135
308.15	1025.341	0.134
313.15	1021.555	0.133
318.15	1017.725	0.132
323.15	1013.856	0.131

System: propan-1,3-diol; phases: Liquid
Fixed: Pressure, kPa = 101.325
Property: Refractive index (Na D-line) (Liquid); method: Standard Abbe refractometry
Temperature, K	Refractive index (Na D-line)	uncertainty
288.15	1.44089	0.00051
293.15	1.43947	0.00051
298.15	1.43805	0.00051
303.15	1.43665	0.00051
308.15	1.43526	0.00051
313.15	1.43387	0.00051
318.15	1.43244	0.00051
323.15	1.43099	0.00051

System: propan-1,3-diol; phases: Liquid
Fixed: Pressure, kPa = 101
Property: Viscosity, Pa*s (Liquid); method: Concentric cylinders viscometry
Temperature, K	Viscosity, Pa*s	uncertainty
288.15	0.066527	0.000724
293.15	0.051913	0.00053
298.15	0.041041	0.000438
303.15	0.032843	0.00035
308.15	0.02658	0.000283
313.15	0.021737	0.000231
318.15	0.01795	0.000191
323.15	0.014958	0.00016

System: propan-1,3-diol; phases: Liquid
Fixed: Pressure, kPa = 101
Property: Mass density, kg/m3 (Liquid); method: Vibrating tube method
Temperature, K	Mass density, kg/m3	uncertainty
288.15	1056.119	0.953
293.15	1053.02	0.946
298.15	1049.909	0.94
303.15	1046.785	0.933
308.15	1043.643	0.927
313.15	1040.488	0.92
318.15	1037.307	0.914
323.15	1034.12	0.907

System: glycerol; phases: Liquid
Fixed: Pressure, kPa = 101.325
Property: Refractive index (Na D-line) (Liquid); method: Standard Abbe refractometry
Temperature, K	Refractive index (Na D-line)	uncertainty
288.15	1.47552	0.00033
293.15	1.47427	0.00033
298.15	1.47301	0.00033
303.15	1.47175	0.00033
308.15	1.47048	0.00033
313.15	1.4692	0.00033
318.15	1.46791	0.00033
323.15	1.46674	0.00033

System: glycerol; phases: Liquid
Fixed: Pressure, kPa = 101
Property: Viscosity, Pa*s (Liquid); method: Concentric cylinders viscometry
Temperature, K	Viscosity, Pa*s	uncertainty
288.15	2.2983	0.1188
293.15	1.4251	0.0646
298.15	0.91198	0.03591
303.15	0.60083	0.0203
308.15	0.40693	0.01163
313.15	0.28261	0.0067
318.15	0.20103	0.00386
323.15	0.14715	0.00223

System: glycerol; phases: Liquid
Fixed: Pressure, kPa = 101
Property: Mass density, kg/m3 (Liquid); method: Vibrating tube method
Temperature, K	Mass density, kg/m3	uncertainty
288.15	1264.081	0.22
293.15	1261.025	0.218
298.15	1257.943	0.217
303.15	1254.833	0.216
308.15	1251.682	0.215
313.15	1248.483	0.213
318.15	1245.237	0.212
323.15	1242.084	0.211

System: propan-1-ol + pyridine; phases: Liquid
Fixed: Pressure, kPa = 101
Property: Viscosity, Pa*s (Liquid); method: Concentric cylinders viscometry
Temperature, K	Mole fraction of pyridine	Viscosity, Pa*s	uncertainty
288.15	0	0.0025139	1.27e-05
288.15	0.1001	0.0020586	1.15e-05
288.15	0.1998	0.0017517	1.07e-05
288.15	0.2999	0.0015331	1.01e-05
288.15	0.3998	0.00138	9.7e-06
288.15	0.5	0.0012584	9.4e-06
288.15	0.5999	0.0011889	9.3e-06
288.15	0.7	0.0011266	9.1e-06
288.15	0.8	0.0010915	9e-06
288.15	0.8998	0.001065	9e-06
288.15	1	0.0010304	8.9e-06
293.15	0	0.0022085	1.19e-05
293.15	0.1001	0.0018392	1.09e-05
293.15	0.1998	0.001577	1.02e-05
293.15	0.2999	0.0013923	9.7e-06
293.15	0.3998	0.0012608	9.4e-06
293.15	0.5	0.001156	9.2e-06
293.15	0.5999	0.0010961	9e-06
293.15	0.7	0.0010427	8.9e-06
293.15	0.8	0.0010125	8.9e-06
293.15	0.8998	0.00098912	8.8e-06
293.15	1	0.00095882	8.73e-06
298.15	0	0.0019503	1.12e-05
298.15	0.1001	0.0016505	1.04e-05
298.15	0.1998	0.0014259	9.8e-06
298.15	0.2999	0.0012693	9.4e-06
298.15	0.3998	0.0011565	9.2e-06
298.15	0.5	0.0010656	9e-06
298.15	0.5999	0.0010138	8.9e-06
298.15	0.7	0.00096777	8.75e-06
298.15	0.8	0.00094198	8.7e-06
298.15	0.8998	0.00092121	8.65e-06
298.15	1	0.00089434	8.59e-06
303.15	0	0.001727	1.06e-05
303.15	0.1001	0.0014877	1e-05
303.15	0.1998	0.0012912	9.5e-06
303.15	0.2999	0.0011649	9.2e-06
303.15	0.3998	0.0010641	9e-06
303.15	0.5	0.00098651	8.8e-06
303.15	0.5999	0.00094137	8.7e-06
303.15	0.7	0.00090135	8.61e-06
303.15	0.8	0.00087902	8.56e-06
303.15	0.8998	0.00086079	8.52e-06
303.15	1	0.00083553	8.47e-06
308.15	0	0.0015419	1.01e-05
308.15	0.1001	0.001355	9.7e-06
308.15	0.1998	0.0011785	9.2e-06
308.15	0.2999	0.0010651	9e-06
308.15	0.3998	0.00098189	8.79e-06
308.15	0.5	0.00091488	8.64e-06
308.15	0.5999	0.00087532	8.55e-06
308.15	0.7	0.00084081	8.48e-06
308.15	0.8	0.00082221	8.44e-06
308.15	0.8998	0.0008059	8.4e-06
308.15	1	0.00078373	8.36e-06
313.15	0	0.0013783	9.7e-06
313.15	0.1001	0.0012051	9.3e-06
313.15	0.1998	0.0010763	9e-06
313.15	0.2999	0.0009804	8.8e-06
313.15	0.3998	0.00090817	8.63e-06
313.15	0.5	0.00085064	8.5e-06
313.15	0.5999	0.00081672	8.43e-06
313.15	0.7	0.00078595	8.36e-06
313.15	0.8	0.00077177	8.33e-06
313.15	0.8998	0.00075659	8.3e-06
313.15	1	0.00073538	8.26e-06
318.15	0	0.0012365	9.4e-06
318.15	0.1001	0.0011026	9.1e-06
318.15	0.1998	0.00098553	8.8e-06
318.15	0.2999	0.00090379	8.62e-06
318.15	0.3998	0.00084258	8.48e-06
318.15	0.5	0.00079265	8.38e-06
318.15	0.5999	0.0007629	8.32e-06
318.15	0.7	0.00073626	8.26e-06
318.15	0.8	0.00072442	8.24e-06
318.15	0.8998	0.00071105	8.21e-06
318.15	1	0.00069124	8.17e-06
323.15	0	0.0011241	9.1e-06
323.15	0.1001	0.0010094	8.9e-06
323.15	0.1998	0.00091163	8.63e-06
323.15	0.2999	0.00084403	8.49e-06
323.15	0.3998	0.00078746	8.37e-06
323.15	0.5	0.00074518	8.28e-06
323.15	0.5999	0.000719	8.23e-06
323.15	0.7	0.00069538	8.18e-06
323.15	0.8	0.00068134	8.15e-06
323.15	0.8998	0.00067407	8.14e-06
323.15	1	0.00065075	8.09e-06

System: propan-1-ol + pyridine; phases: Liquid
Fixed: Pressure, kPa = 101
Property: Refractive index (Na D-line) (Liquid); method: Standard Abbe refractometry
Temperature, K	Mole fraction of pyridine	Refractive index (Na D-line)	uncertainty
288.15	0	1.3878	0.00031
288.15	0.1001	1.40196	0.00031
288.15	0.1998	1.41533	0.00031
288.15	0.2999	1.42836	0.00031
288.15	0.3998	1.44094	0.00031
288.15	0.5	1.45341	0.00031
288.15	0.5999	1.46554	0.00031
288.15	0.7	1.47748	0.00031
288.15	0.8	1.48907	0.00031
288.15	0.8998	1.50064	0.00031
288.15	1	1.51184	0.00031
293.15	0	1.38576	0.00031
293.15	0.1001	1.39979	0.00031
293.15	0.1998	1.41307	0.00031
293.15	0.2999	1.42603	0.00031
293.15	0.3998	1.43854	0.00031
293.15	0.5	1.45095	0.00031
293.15	0.5999	1.46301	0.00031
293.15	0.7	1.47487	0.00031
293.15	0.8	1.4864	0.00031
293.15	0.8998	1.49788	0.00032
293.15	1	1.509	0.00031
298.15	0	1.38369	0.00031
298.15	0.1001	1.39757	0.00031
298.15	0.1998	1.41079	0.00031
298.15	0.2999	1.42367	0.00031
298.15	0.3998	1.43616	0.00031
298.15	0.5	1.44848	0.00031
298.15	0.5999	1.46047	0.00031
298.15	0.7	1.47228	0.00031
298.15	0.8	1.48375	0.00031
298.15	0.8998	1.49514	0.00031
298.15	1	1.50616	0.00031
303.15	0	1.38162	0.00031
303.15	0.1001	1.39535	0.00031
303.15	0.1998	1.40849	0.00031
303.15	0.2999	1.42136	0.00031
303.15	0.3998	1.43375	0.00031
303.15	0.5	1.44601	0.00031
303.15	0.5999	1.45795	0.00031
303.15	0.7	1.46968	0.00031
303.15	0.8	1.48107	0.00031
303.15	0.8998	1.49238	0.00031
303.15	1	1.50331	0.00031
308.15	0	1.37918	0.00031
308.15	0.1001	1.3931	0.00031
308.15	0.1998	1.40618	0.00031
308.15	0.2999	1.41898	0.00031
308.15	0.3998	1.43132	0.00031
308.15	0.5	1.44353	0.00031
308.15	0.5999	1.45541	0.00031
308.15	0.7	1.46708	0.00031
308.15	0.8	1.47839	0.00031
308.15	0.8998	1.48965	0.00032
308.15	1	1.50048	0.00031
313.15	0	1.37695	0.00031
313.15	0.1001	1.39068	0.00031
313.15	0.1998	1.40381	0.00031
313.15	0.2999	1.41659	0.00031
313.15	0.3998	1.42891	0.00031
313.15	0.5	1.44102	0.00031
313.15	0.5999	1.45287	0.00031
313.15	0.7	1.46445	0.00031
313.15	0.8	1.47573	0.00031
313.15	0.8998	1.48683	0.00031
313.15	1	1.49769	0.00031
318.15	0	1.37469	0.00031
318.15	0.1001	1.3884	0.00031
318.15	0.1998	1.40151	0.00031
318.15	0.2999	1.41425	0.00031
318.15	0.3998	1.42648	0.00031
318.15	0.5	1.43857	0.00031
318.15	0.5999	1.45038	0.00031
318.15	0.7	1.46187	0.00031
318.15	0.8	1.47309	0.00031
318.15	0.8998	1.48411	0.00031
318.15	1	1.49493	0.00031
323.15	0	1.37231	0.00031
323.15	0.1001	1.38622	0.00032
323.15	0.1998	1.39909	0.00031
323.15	0.2999	1.41179	0.00031
323.15	0.3998	1.42409	0.00031
323.15	0.5	1.43616	0.00031
323.15	0.5999	1.44788	0.00031
323.15	0.7	1.45942	0.00031
323.15	0.8	1.47055	0.00031
323.15	0.8998	1.48155	0.00031
323.15	1	1.49219	0.00031

System: propan-1-ol + pyridine; phases: Liquid
Fixed: Pressure, kPa = 101
Property: Mass density, kg/m3 (Liquid); method: Vibrating tube method
Temperature, K	Mole fraction of pyridine	Mass density, kg/m3	uncertainty
288.15	0	807.947	0.146
288.15	0.1001	829.179	0.147
288.15	0.1998	849.304	0.142
288.15	0.2999	868.538	0.138
288.15	0.3998	887.029	0.134
288.15	0.5	904.882	0.131
288.15	0.5999	922.323	0.128
288.15	0.7	939.461	0.125
288.15	0.8	956.178	0.123
288.15	0.8998	972.394	0.12
288.15	1	988.061	0.115
293.15	0	803.963	0.147
293.15	0.1001	825.041	0.148
293.15	0.1998	845.036	0.143
293.15	0.2999	864.154	0.139
293.15	0.3998	882.542	0.135
293.15	0.5	900.296	0.132
293.15	0.5999	917.643	0.129
293.15	0.7	934.697	0.126
293.15	0.8	951.331	0.124
293.15	0.8998	967.464	0.121
293.15	1	983.038	0.115
298.15	0	799.953	0.148
298.15	0.1001	820.881	0.149
298.15	0.1998	840.744	0.144
298.15	0.2999	859.747	0.14
298.15	0.3998	878.034	0.136
298.15	0.5	895.691	0.133
298.15	0.5999	912.947	0.13
298.15	0.7	929.913	0.127
298.15	0.8	946.465	0.124
298.15	0.8998	962.52	0.122
298.15	1	978.006	0.116
303.15	0	795.915	0.149
303.15	0.1001	816.69	0.15
303.15	0.1998	836.425	0.145
303.15	0.2999	855.316	0.141
303.15	0.3998	873.5	0.137
303.15	0.5	891.065	0.134
303.15	0.5999	908.231	0.131
303.15	0.7	925.114	0.128
303.15	0.8	941.586	0.125
303.15	0.8998	957.564	0.123
303.15	1	972.967	0.117
308.15	0	791.84	0.15
308.15	0.1001	812.466	0.151
308.15	0.1998	832.074	0.146
308.15	0.2999	850.857	0.142
308.15	0.3998	868.942	0.138
308.15	0.5	886.415	0.135
308.15	0.5999	903.494	0.131
308.15	0.7	920.29	0.129
308.15	0.8	936.687	0.126
308.15	0.8998	952.593	0.123
308.15	1	967.913	0.117
313.15	0	787.721	0.151
313.15	0.1001	808.203	0.152
313.15	0.1998	827.676	0.147
313.15	0.2999	846.364	0.143
313.15	0.3998	864.355	0.139
313.15	0.5	881.735	0.136
313.15	0.5999	898.73	0.132
313.15	0.7	915.449	0.129
313.15	0.8	931.765	0.127
313.15	0.8998	947.604	0.124
313.15	1	962.849	0.118
318.15	0	783.553	0.152
318.15	0.1001	803.899	0.153
318.15	0.1998	823.264	0.148
318.15	0.2999	841.834	0.144
318.15	0.3998	859.731	0.14
318.15	0.5	877.027	0.136
318.15	0.5999	893.938	0.133
318.15	0.7	910.581	0.13
318.15	0.8	926.83	0.128
318.15	0.8998	942.596	0.125
318.15	1	957.769	0.119
323.15	0	779.334	0.153
323.15	0.1001	799.541	0.154
323.15	0.1998	818.793	0.15
323.15	0.2999	837.265	0.145
323.15	0.3998	855.071	0.141
323.15	0.5	872.286	0.138
323.15	0.5999	889.121	0.134
323.15	0.7	905.688	0.131
323.15	0.8	921.867	0.129
323.15	0.8998	937.566	0.126
323.15	1	952.673	0.12

System: 1,2-propanediol + pyridine; phases: Liquid
Fixed: Pressure, kPa = 101
Property: Viscosity, Pa*s (Liquid); method: Concentric cylinders viscometry
Temperature, K	Mole fraction of pyridine	Viscosity, Pa*s	uncertainty
288.15	0	0.081206	0.000603
288.15	0.1	0.052731	0.000194
288.15	0.2	0.033004	0.000157
288.15	0.2999	0.020081	9.5e-05
288.15	0.4	0.012081	5.6e-05
288.15	0.4999	0.0073262	3.42e-05
288.15	0.6	0.0045468	2.17e-05
288.15	0.7001	0.0029999	1.51e-05
288.15	0.8	0.0019353	1.16e-05
288.15	0.9	0.0013911	9.9e-06
288.15	1	0.0010304	8.9e-06
293.15	0	0.058753	0.000248
293.15	0.1	0.038739	0.000184
293.15	0.2	0.024819	0.000115
293.15	0.2999	0.015553	7e-05
293.15	0.4	0.0096432	4.31e-05
293.15	0.4999	0.0060363	2.72e-05
293.15	0.6	0.0038574	1.8e-05
293.15	0.7001	0.0025884	1.34e-05
293.15	0.8	0.0017362	1.08e-05
293.15	0.9	0.0012738	9.5e-06
293.15	1	0.00095882	8.73e-06
298.15	0	0.043437	0.000204
298.15	0.1	0.029092	0.000136
298.15	0.2	0.01905	8.7e-05
298.15	0.2999	0.012146	5.5e-05
298.15	0.4	0.0078219	3.51e-05
298.15	0.4999	0.005021	2.3e-05
298.15	0.6	0.0033099	1.59e-05
298.15	0.7001	0.002292	1.25e-05
298.15	0.8	0.001567	1.03e-05
298.15	0.9	0.0011715	9.3e-06
298.15	1	0.00089434	8.59e-06
303.15	0	0.032754	0.000152
303.15	0.1	0.022278	0.000103
303.15	0.2	0.014898	6.8e-05
303.15	0.2999	0.0098097	4.39e-05
303.15	0.4	0.0063964	2.89e-05
303.15	0.4999	0.0042338	1.97e-05
303.15	0.6	0.0028656	1.44e-05
303.15	0.7001	0.0020082	1.16e-05
303.15	0.8	0.0014247	9.9e-06
303.15	0.9	0.0010818	9e-06
303.15	1	0.00083553	8.47e-06
308.15	0	0.025156	0.000116
308.15	0.1	0.017368	8e-05
308.15	0.2	0.011848	5.4e-05
308.15	0.2999	0.0079807	3.6e-05
308.15	0.4	0.0053632	2.45e-05
308.15	0.4999	0.0036375	1.72e-05
308.15	0.6	0.002514	1.33e-05
308.15	0.7001	0.0017953	1.1e-05
308.15	0.8	0.0013006	9.6e-06
308.15	0.9	0.0010019	8.9e-06
308.15	1	0.00078373	8.36e-06
313.15	0	0.019646	9e-05
313.15	0.1	0.013763	6.3e-05
313.15	0.2	0.0095671	4.33e-05
313.15	0.2999	0.006581	2.99e-05
313.15	0.4	0.0045233	2.1e-05
313.15	0.4999	0.0031374	1.54e-05
313.15	0.6	0.0022176	1.23e-05
313.15	0.7001	0.0016132	1.05e-05
313.15	0.8	0.0011927	9.3e-06
313.15	0.9	0.00093105	8.7e-06
313.15	1	0.00073538	8.26e-06
318.15	0	0.015581	7.1e-05
318.15	0.1	0.011068	5e-05
318.15	0.2	0.007833	3.56e-05
318.15	0.2999	0.0054945	2.52e-05
318.15	0.4	0.0038553	1.83e-05
318.15	0.4999	0.0027291	1.4e-05
318.15	0.6	0.0019724	1.16e-05
318.15	0.7001	0.001459	1.01e-05
318.15	0.8	0.0010982	9.1e-06
318.15	0.9	0.00086738	8.56e-06
318.15	1	0.00069124	8.17e-06
323.15	0	0.012553	5.8e-05
323.15	0.1	0.0090824	4.12e-05
323.15	0.2	0.0065508	2.97e-05
323.15	0.2999	0.0046782	2.16e-05
323.15	0.4	0.0033486	1.61e-05
323.15	0.4999	0.0024157	1.29e-05
323.15	0.6	0.0017856	1.1e-05
323.15	0.7001	0.0013408	9.7e-06
323.15	0.8	0.0010215	8.9e-06
323.15	0.9	0.00081775	8.44e-06
323.15	1	0.00065075	8.09e-06

System: 1,2-propanediol + pyridine; phases: Liquid
Fixed: Pressure, kPa = 101
Property: Refractive index (Na D-line) (Liquid); method: Standard Abbe refractometry
Temperature, K	Mole fraction of pyridine	Refractive index (Na D-line)	uncertainty
288.15	0	1.43411	0.00033
288.15	0.1	1.44356	0.00032
288.15	0.2	1.4522	0.00032
288.15	0.2999	1.46041	0.00032
288.15	0.4	1.46838	0.00032
288.15	0.4999	1.47609	0.00032
288.15	0.6	1.48375	0.00032
288.15	0.7001	1.49129	0.00032
288.15	0.8	1.49866	0.00032
288.15	0.9	1.50554	0.00031
288.15	1	1.51184	0.00031
293.15	0	1.43247	0.00033
293.15	0.1	1.4418	0.00033
293.15	0.2	1.4503	0.00032
293.15	0.2999	1.4584	0.00032
293.15	0.4	1.46629	0.00032
293.15	0.4999	1.47383	0.00032
293.15	0.6	1.4814	0.00032
293.15	0.7001	1.48884	0.00032
293.15	0.8	1.49609	0.00032
293.15	0.9	1.50288	0.00032
293.15	1	1.509	0.00031
298.15	0	1.43081	0.00033
298.15	0.1	1.43993	0.00033
298.15	0.2	1.44839	0.00032
298.15	0.2999	1.4564	0.00032
298.15	0.4	1.46417	0.00032
298.15	0.4999	1.47163	0.00032
298.15	0.6	1.47909	0.00032
298.15	0.7001	1.4864	0.00032
298.15	0.8	1.49345	0.00032
298.15	0.9	1.49993	0.00032
298.15	1	1.50616	0.00031
303.15	0	1.42915	0.00033
303.15	0.1	1.43816	0.00032
303.15	0.2	1.4465	0.00032
303.15	0.2999	1.45438	0.00032
303.15	0.4	1.46204	0.00032
303.15	0.4999	1.4694	0.00032
303.15	0.6	1.47676	0.00032
303.15	0.7001	1.48397	0.00032
303.15	0.8	1.49093	0.00032
303.15	0.9	1.49727	0.00032
303.15	1	1.50331	0.00031
308.15	0	1.42751	0.00033
308.15	0.1	1.43643	0.00032
308.15	0.2	1.44465	0.00032
308.15	0.2999	1.45244	0.00032
308.15	0.4	1.46	0.00032
308.15	0.4999	1.46728	0.00032
308.15	0.6	1.47448	0.00032
308.15	0.7001	1.48152	0.00032
308.15	0.8	1.48841	0.00032
308.15	0.9	1.49461	0.00032
308.15	1	1.50048	0.00031
313.15	0	1.42581	0.00033
313.15	0.1	1.43463	0.00032
313.15	0.2	1.44276	0.00032
313.15	0.2999	1.45051	0.00032
313.15	0.4	1.45802	0.00032
313.15	0.4999	1.46517	0.00032
313.15	0.6	1.47224	0.00032
313.15	0.7001	1.4791	0.00032
313.15	0.8	1.48589	0.00032
313.15	0.9	1.49195	0.00032
313.15	1	1.49769	0.00031
318.15	0	1.42407	0.00033
318.15	0.1	1.43286	0.00032
318.15	0.2	1.44082	0.00032
318.15	0.2999	1.44855	0.00032
318.15	0.4	1.45597	0.00032
318.15	0.4999	1.46296	0.00032
318.15	0.6	1.46991	0.00032
318.15	0.7001	1.47665	0.00032
318.15	0.8	1.48321	0.00032
318.15	0.9	1.4894	0.00031
318.15	1	1.49493	0.00031
323.15	0	1.4223	0.00033
323.15	0.1	1.43109	0.00033
323.15	0.2	1.439	0.00032
323.15	0.2999	1.44676	0.00032
323.15	0.4	1.45397	0.00032
323.15	0.4999	1.46088	0.00032
323.15	0.6	1.46777	0.00032
323.15	0.7001	1.47441	0.00032
323.15	0.8	1.48086	0.00032
323.15	0.9	1.4869	0.00032
323.15	1	1.49219	0.00031

System: 1,2-propanediol + pyridine; phases: Liquid
Fixed: Pressure, kPa = 101
Property: Mass density, kg/m3 (Liquid); method: Vibrating tube method
Temperature, K	Mole fraction of pyridine	Mass density, kg/m3	uncertainty
288.15	0	1040.083	0.138
288.15	0.1	1035.593	0.134
288.15	0.2	1030.941	0.13
288.15	0.2999	1026.326	0.126
288.15	0.4	1021.393	0.123
288.15	0.4999	1016.463	0.12
288.15	0.6	1011.23	0.118
288.15	0.7001	1005.603	0.116
288.15	0.8	999.698	0.115
288.15	0.9	994.093	0.115
288.15	1	988.061	0.115
293.15	0	1036.458	0.137
293.15	0.1	1031.777	0.133
293.15	0.2	1026.954	0.129
293.15	0.2999	1022.182	0.126
293.15	0.4	1017.115	0.122
293.15	0.4999	1012.062	0.12
293.15	0.6	1006.709	0.118
293.15	0.7001	1000.96	0.116
293.15	0.8	994.925	0.116
293.15	0.9	989.201	0.116
293.15	1	983.038	0.115
298.15	0	1032.797	0.136
298.15	0.1	1027.923	0.132
298.15	0.2	1022.929	0.128
298.15	0.2999	1018.015	0.125
298.15	0.4	1012.811	0.122
298.15	0.4999	1007.634	0.119
298.15	0.6	1002.163	0.117
298.15	0.7001	996.296	0.116
298.15	0.8	990.138	0.116
298.15	0.9	984.298	0.116
298.15	1	978.006	0.116
303.15	0	1029.09	0.135
303.15	0.1	1024.034	0.131
303.15	0.2	1018.876	0.127
303.15	0.2999	1013.813	0.124
303.15	0.4	1008.478	0.121
303.15	0.4999	1003.181	0.118
303.15	0.6	997.549	0.117
303.15	0.7001	991.612	0.117
303.15	0.8	985.331	0.117
303.15	0.9	979.376	0.117
303.15	1	972.967	0.117
308.15	0	1025.341	0.134
308.15	0.1	1020.103	0.13
308.15	0.2	1014.79	0.126
308.15	0.2999	1009.583	0.123
308.15	0.4	1004.116	0.12
308.15	0.4999	998.699	0.118
308.15	0.6	992.998	0.118
308.15	0.7001	986.903	0.118
308.15	0.8	980.506	0.118
308.15	0.9	974.443	0.118
308.15	1	967.913	0.117
313.15	0	1021.555	0.133
313.15	0.1	1016.139	0.129
313.15	0.2	1010.668	0.126
313.15	0.2999	1005.32	0.122
313.15	0.4	999.722	0.12
313.15	0.4999	994.186	0.119
313.15	0.6	988.375	0.119
313.15	0.7001	982.171	0.118
313.15	0.8	975.66	0.118
313.15	0.9	969.488	0.119
313.15	1	962.849	0.118
318.15	0	1017.725	0.132
318.15	0.1	1012.138	0.128
318.15	0.2	1006.513	0.125
318.15	0.2999	1001.024	0.121
318.15	0.4	995.298	0.12
318.15	0.4999	989.644	0.12
318.15	0.6	983.722	0.119
318.15	0.7001	977.41	0.119
318.15	0.8	970.792	0.119
318.15	0.9	964.514	0.119
318.15	1	957.769	0.119
323.15	0	1013.856	0.131
323.15	0.1	1008.095	0.128
323.15	0.2	1002.322	0.124
323.15	0.2999	996.693	0.122
323.15	0.4	990.839	0.121
323.15	0.4999	985.073	0.121
323.15	0.6	979.044	0.12
323.15	0.7001	972.625	0.12
323.15	0.8	965.9	0.12
323.15	0.9	959.522	0.12
323.15	1	952.673	0.12

System: pyridine + propan-1,3-diol; phases: Liquid
Fixed: Pressure, kPa = 101
Property: Viscosity, Pa*s (Liquid); method: Concentric cylinders viscometry
Temperature, K	Mole fraction of pyridine	Viscosity, Pa*s	uncertainty
288.15	0	0.066527	0.000724
288.15	0.0999	0.05057	0.00047
288.15	0.2	0.035444	0.00032
288.15	0.3	0.022998	0.000191
288.15	0.4001	0.014289	0.000108
288.15	0.5	0.0087081	6.02e-05
288.15	0.5999	0.0052073	3.33e-05
288.15	0.7	0.0032639	1.95e-05
288.15	0.7998	0.0021105	1.32e-05
288.15	0.8998	0.0014598	1.03e-05
288.15	1	0.0010304	8.9e-06
293.15	0	0.051913	0.00053
293.15	0.0999	0.039572	0.00039
293.15	0.2	0.02799	0.000253
293.15	0.3	0.018458	0.000152
293.15	0.4001	0.011683	8.8e-05
293.15	0.5	0.0072659	4.95e-05
293.15	0.5999	0.0044669	2.8e-05
293.15	0.7	0.0028689	1.73e-05
293.15	0.7998	0.0018966	1.22e-05
293.15	0.8998	0.0013355	9.9e-06
293.15	1	0.00095882	8.73e-06
298.15	0	0.041041	0.000438
298.15	0.0999	0.03139	0.000309
298.15	0.2	0.022357	0.000202
298.15	0.3	0.014911	0.000123
298.15	0.4001	0.0096174	7.22e-05
298.15	0.5	0.0061467	4.2e-05
298.15	0.5999	0.0038668	2.45e-05
298.15	0.7	0.00254	1.58e-05
298.15	0.7998	0.0017146	1.15e-05
298.15	0.8998	0.0012276	9.6e-06
298.15	1	0.00089434	8.59e-06
303.15	0	0.032843	0.00035
303.15	0.0999	0.025206	0.000248
303.15	0.2	0.01815	0.000164
303.15	0.3	0.012343	0.000102
303.15	0.4001	0.008079	6.07e-05
303.15	0.5	0.0052438	3.6e-05
303.15	0.5999	0.0033798	2.17e-05
303.15	0.7	0.002266	1.46e-05
303.15	0.7998	0.0015566	1.1e-05
303.15	0.8998	0.0011318	9.3e-06
303.15	1	0.00083553	8.47e-06
308.15	0	0.02658	0.000283
308.15	0.0999	0.020479	0.000201
308.15	0.2	0.014881	0.000134
308.15	0.3	0.010262	8.5e-05
308.15	0.4001	0.0068454	5.16e-05
308.15	0.5	0.0045493	3.15e-05
308.15	0.5999	0.0029761	1.95e-05
308.15	0.7	0.0020331	1.36e-05
308.15	0.7998	0.0014238	1.05e-05
308.15	0.8998	0.0010498	9.1e-06
308.15	1	0.00078373	8.36e-06
313.15	0	0.021737	0.000231
313.15	0.0999	0.016815	0.000165
313.15	0.2	0.012323	0.000111
313.15	0.3	0.0086155	7.12e-05
313.15	0.4001	0.0058315	4.41e-05
313.15	0.5	0.0039508	2.76e-05
313.15	0.5999	0.0026365	1.77e-05
313.15	0.7	0.001835	1.27e-05
313.15	0.7998	0.0013067	1.02e-05
313.15	0.8998	0.00097501	8.93e-06
313.15	1	0.00073538	8.26e-06
318.15	0	0.01795	0.000191
318.15	0.0999	0.013944	0.000137
318.15	0.2	0.010309	9.3e-05
318.15	0.3	0.0072987	6.05e-05
318.15	0.4001	0.0050332	3.83e-05
318.15	0.5	0.003455	2.44e-05
318.15	0.5999	0.0023499	1.62e-05
318.15	0.7	0.0016628	1.2e-05
318.15	0.7998	0.0012041	9.8e-06
318.15	0.8998	0.0009082	8.76e-06
318.15	1	0.00069124	8.17e-06
323.15	0	0.014958	0.00016
323.15	0.0999	0.011751	0.000116
323.15	0.2	0.0087793	7.94e-05
323.15	0.3	0.0062861	5.21e-05
323.15	0.4001	0.0044121	3.36e-05
323.15	0.5	0.0030776	2.19e-05
323.15	0.5999	0.0021392	1.51e-05
323.15	0.7	0.0015304	1.15e-05
323.15	0.7998	0.0011192	9.6e-06
323.15	0.8998	0.00085319	8.62e-06
323.15	1	0.00065075	8.09e-06

System: pyridine + propan-1,3-diol; phases: Liquid
Fixed: Pressure, kPa = 101
Property: Refractive index (Na D-line) (Liquid); method: Standard Abbe refractometry
Temperature, K	Mole fraction of pyridine	Refractive index (Na D-line)	uncertainty
288.15	0	1.44089	0.00051
288.15	0.0999	1.44922	0.00048
288.15	0.2	1.45763	0.00045
288.15	0.3	1.46592	0.00043
288.15	0.4001	1.47372	0.0004
288.15	0.5	1.4809	0.00038
288.15	0.5999	1.48773	0.00036
288.15	0.7	1.49409	0.00034
288.15	0.7998	1.49986	0.00033
288.15	0.8998	1.50582	0.00032
288.15	1	1.51184	0.00031
293.15	0	1.43947	0.00051
293.15	0.0999	1.44774	0.00048
293.15	0.2	1.45599	0.00045
293.15	0.3	1.46414	0.00043
293.15	0.4001	1.47185	0.0004
293.15	0.5	1.47889	0.00038
293.15	0.5999	1.48556	0.00036
293.15	0.7	1.4918	0.00034
293.15	0.7998	1.49743	0.00033
293.15	0.8998	1.50319	0.00032
293.15	1	1.509	0.00031
298.15	0	1.43805	0.00051
298.15	0.0999	1.44619	0.00048
298.15	0.2	1.45436	0.00045
298.15	0.3	1.46235	0.00043
298.15	0.4001	1.46995	0.0004
298.15	0.5	1.47685	0.00038
298.15	0.5999	1.4834	0.00036
298.15	0.7	1.4895	0.00034
298.15	0.7998	1.495	0.00033
298.15	0.8998	1.50057	0.00032
298.15	1	1.50616	0.00031
303.15	0	1.43665	0.00051
303.15	0.0999	1.44473	0.00048
303.15	0.2	1.45279	0.00045
303.15	0.3	1.46061	0.00043
303.15	0.4001	1.46805	0.0004
303.15	0.5	1.47482	0.00038
303.15	0.5999	1.48124	0.00036
303.15	0.7	1.4872	0.00034
303.15	0.7998	1.49257	0.00033
303.15	0.8998	1.49795	0.00032
303.15	1	1.50331	0.00031
308.15	0	1.43526	0.00051
308.15	0.0999	1.44328	0.00048
308.15	0.2	1.45118	0.00045
308.15	0.3	1.45892	0.00043
308.15	0.4001	1.46621	0.0004
308.15	0.5	1.4728	0.00038
308.15	0.5999	1.47907	0.00036
308.15	0.7	1.48491	0.00034
308.15	0.7998	1.49016	0.00033
308.15	0.8998	1.49536	0.00032
308.15	1	1.50048	0.00031
313.15	0	1.43387	0.00051
313.15	0.0999	1.44171	0.00048
313.15	0.2	1.44953	0.00045
313.15	0.3	1.45718	0.00043
313.15	0.4001	1.46432	0.0004
313.15	0.5	1.47092	0.00038
313.15	0.5999	1.47707	0.00036
313.15	0.7	1.48267	0.00034
313.15	0.7998	1.48778	0.00033
313.15	0.8998	1.49276	0.00032
313.15	1	1.49769	0.00031
318.15	0	1.43244	0.00051
318.15	0.0999	1.4402	0.00048
318.15	0.2	1.44788	0.00045
318.15	0.3	1.45542	0.00043
318.15	0.4001	1.4624	0.0004
318.15	0.5	1.4689	0.00038
318.15	0.5999	1.47491	0.00036
318.15	0.7	1.48045	0.00034
318.15	0.7998	1.4855	0.00033
318.15	0.8998	1.49023	0.00032
318.15	1	1.49493	0.00031
323.15	0	1.43099	0.00051
323.15	0.0999	1.43869	0.00048
323.15	0.2	1.44628	0.00045
323.15	0.3	1.45378	0.00043
323.15	0.4001	1.46051	0.0004
323.15	0.5	1.467	0.00038
323.15	0.5999	1.47312	0.00036
323.15	0.7	1.47837	0.00034
323.15	0.7998	1.4833	0.00033
323.15	0.8998	1.48788	0.00032
323.15	1	1.49219	0.00031

System: pyridine + propan-1,3-diol; phases: Liquid
Fixed: Pressure, kPa = 101
Property: Mass density, kg/m3 (Liquid); method: Vibrating tube method
Temperature, K	Mole fraction of pyridine	Mass density, kg/m3	uncertainty
288.15	0	1056.119	0.953
288.15	0.0999	1050.488	0.786
288.15	0.2	1044.96	0.637
288.15	0.3	1038.927	0.506
288.15	0.4001	1032.578	0.392
288.15	0.5	1025.965	0.295
288.15	0.5999	1018.966	0.221
288.15	0.7	1011.771	0.171
288.15	0.7998	1004.296	0.138
288.15	0.8998	996.608	0.121
288.15	1	988.061	0.115
293.15	0	1053.02	0.946
293.15	0.0999	1047.194	0.78
293.15	0.2	1041.477	0.632
293.15	0.3	1035.247	0.501
293.15	0.4001	1028.708	0.388
293.15	0.5	1021.912	0.292
293.15	0.5999	1014.727	0.218
293.15	0.7	1007.348	0.169
293.15	0.7998	999.687	0.137
293.15	0.8998	991.803	0.122
293.15	1	983.038	0.115
298.15	0	1049.909	0.94
298.15	0.0999	1043.891	0.774
298.15	0.2	1037.98	0.627
298.15	0.3	1031.554	0.497
298.15	0.4001	1024.823	0.384
298.15	0.5	1017.845	0.288
298.15	0.5999	1010.476	0.216
298.15	0.7	1002.913	0.167
298.15	0.7998	995.061	0.138
298.15	0.8998	986.987	0.123
298.15	1	978.006	0.116
303.15	0	1046.785	0.933
303.15	0.0999	1040.574	0.768
303.15	0.2	1034.468	0.621
303.15	0.3	1027.846	0.492
303.15	0.4001	1020.928	0.38
303.15	0.5	1013.763	0.285
303.15	0.5999	1006.211	0.214
303.15	0.7	998.466	0.166
303.15	0.7998	990.425	0.138
303.15	0.8998	982.158	0.124
303.15	1	972.967	0.117
308.15	0	1043.643	0.927
308.15	0.0999	1037.237	0.762
308.15	0.2	1030.94	0.616
308.15	0.3	1024.123	0.487
308.15	0.4001	1017.011	0.376
308.15	0.5	1009.664	0.281
308.15	0.5999	1001.927	0.211
308.15	0.7	994	0.167
308.15	0.7998	985.773	0.139
308.15	0.8998	977.312	0.125
308.15	1	967.913	0.117
313.15	0	1040.488	0.92
313.15	0.0999	1033.887	0.756
313.15	0.2	1027.394	0.611
313.15	0.3	1020.383	0.483
313.15	0.4001	1013.081	0.372
313.15	0.5	1005.548	0.278
313.15	0.5999	997.629	0.21
313.15	0.7	989.518	0.167
313.15	0.7998	981.102	0.14
313.15	0.8998	972.452	0.126
313.15	1	962.849	0.118
318.15	0	1037.307	0.914
318.15	0.0999	1030.514	0.75
318.15	0.2	1023.822	0.605
318.15	0.3	1016.615	0.478
318.15	0.4001	1009.126	0.368
318.15	0.5	1001.409	0.274
318.15	0.5999	993.305	0.21
318.15	0.7	985.015	0.168
318.15	0.7998	976.412	0.141
318.15	0.8998	967.572	0.126
318.15	1	957.769	0.119
323.15	0	1034.12	0.907
323.15	0.0999	1027.121	0.744
323.15	0.2	1020.236	0.6
323.15	0.3	1012.831	0.473
323.15	0.4001	1005.15	0.364
323.15	0.5	997.251	0.273
323.15	0.5999	988.961	0.211
323.15	0.7	980.49	0.169
323.15	0.7998	971.701	0.142
323.15	0.8998	962.672	0.128
323.15	1	952.673	0.12

System: glycerol + pyridine; phases: Liquid
Fixed: Pressure, kPa = 101
Property: Viscosity, Pa*s (Liquid); method: Concentric cylinders viscometry
Temperature, K	Mole fraction of pyridine	Viscosity, Pa*s	uncertainty
288.15	0	2.2983	0.1188
288.15	0.1	1.518	0.0701
288.15	0.2001	0.85301	0.03283
288.15	0.3001	0.43865	0.01302
288.15	0.4	0.20246	0.00396
288.15	0.4998	0.086637	0.000781
288.15	0.6001	0.029666	0.000202
288.15	0.6999	0.0078713	6.85e-05
288.15	0.8001	0.004241	2.06e-05
288.15	0.8999	0.0019439	1.27e-05
288.15	1	0.0010304	8.9e-06
293.15	0	1.4251	0.0646
293.15	0.1	0.9463	0.03774
293.15	0.2001	0.53976	0.01749
293.15	0.3001	0.28385	0.00677
293.15	0.4	0.13563	0.00192
293.15	0.4998	0.0605	0.000281
293.15	0.6001	0.022366	0.000109
293.15	0.6999	0.0069665	3.39e-05
293.15	0.8001	0.0036392	1.73e-05
293.15	0.8999	0.0017481	1.15e-05
293.15	1	0.00095882	8.73e-06
298.15	0	0.91198	0.03591
298.15	0.1	0.60894	0.0207
298.15	0.2001	0.35275	0.00943
298.15	0.3001	0.18975	0.00351
298.15	0.4	0.093824	0.000882
298.15	0.4998	0.043512	0.000209
298.15	0.6001	0.017247	8.2e-05
298.15	0.6999	0.0061107	2.9e-05
298.15	0.8001	0.0031553	1.57e-05
298.15	0.8999	0.0010078	9.2e-06
298.15	1	0.00089434	8.59e-06
303.15	0	0.60083	0.0203
303.15	0.1	0.40356	0.0115
303.15	0.2001	0.2373	0.00509
303.15	0.3001	0.13053	0.00177
303.15	0.4	0.066747	0.000358
303.15	0.4998	0.03221	0.00015
303.15	0.6001	0.013568	6.3e-05
303.15	0.6999	0.0052572	2.49e-05
303.15	0.8001	0.0027652	1.42e-05
303.15	0.8999	0.0014386	1.01e-05
303.15	1	0.00083553	8.47e-06
308.15	0	0.40693	0.01163
308.15	0.1	0.27549	0.00645
308.15	0.2001	0.16423	0.00272
308.15	0.3001	0.092289	0.000842
308.15	0.4	0.048719	0.000228
308.15	0.4998	0.024447	0.000112
308.15	0.6001	0.010866	5e-05
308.15	0.6999	0.0045319	2.15e-05
308.15	0.8001	0.0024408	1.31e-05
308.15	0.8999	0.0013162	9.7e-06
308.15	1	0.00078373	8.36e-06
313.15	0	0.28261	0.0067
313.15	0.1	0.19254	0.00359
313.15	0.2001	0.11647	0.00141
313.15	0.3001	0.066857	0.000354
313.15	0.4	0.036347	0.000167
313.15	0.4998	0.018902	8.5e-05
313.15	0.6001	0.0088413	4.01e-05
313.15	0.6999	0.0039501	1.88e-05
313.15	0.8001	0.0021718	1.22e-05
313.15	0.8999	0.0012087	9.4e-06
313.15	1	0.00073538	8.26e-06
318.15	0	0.20103	0.00386
318.15	0.1	0.1377	0.00196
318.15	0.2001	0.084414	0.000673
318.15	0.3001	0.049308	0.000226
318.15	0.4	0.02766	0.000124
318.15	0.4998	0.014885	6.6e-05
318.15	0.6001	0.007298	3.29e-05
318.15	0.6999	0.0034634	1.67e-05
318.15	0.8001	0.0019442	1.15e-05
318.15	0.8999	0.0011142	9.2e-06
318.15	1	0.00069124	8.17e-06
323.15	0	0.14715	0.00223
323.15	0.1	0.10138	0.00104
323.15	0.2001	0.063118	0.000287
323.15	0.3001	0.038059	0.000165
323.15	0.4	0.021583	9.1e-05
323.15	0.4998	0.012036	5e-05
323.15	0.6001	0.0061531	2.66e-05
323.15	0.6999	0.0030602	1.5e-05
323.15	0.8001	0.0017691	1.09e-05
323.15	0.8999	0.0010381	9e-06
323.15	1	0.00065075	8.09e-06

System: glycerol + pyridine; phases: Liquid
Fixed: Pressure, kPa = 101
Property: Refractive index (Na D-line) (Liquid); method: Standard Abbe refractometry
Temperature, K	Mole fraction of pyridine	Refractive index (Na D-line)	uncertainty
288.15	0	1.47552	0.00033
288.15	0.1	1.48103	0.00032
288.15	0.2001	1.48616	0.00032
288.15	0.3001	1.49108	0.00032
288.15	0.4	1.49581	0.00032
288.15	0.4998	1.49973	0.00032
288.15	0.6001	1.50321	0.00032
288.15	0.6999	1.50634	0.00032
288.15	0.8001	1.50874	0.00032
288.15	0.8999	1.51057	0.00031
288.15	1	1.51184	0.00031
293.15	0	1.47427	0.00033
293.15	0.1	1.47967	0.00032
293.15	0.2001	1.48469	0.00032
293.15	0.3001	1.48946	0.00032
293.15	0.4	1.49406	0.00032
293.15	0.4998	1.49786	0.00032
293.15	0.6001	1.50115	0.00032
293.15	0.6999	1.50412	0.00032
293.15	0.8001	1.50638	0.00032
293.15	0.8999	1.50796	0.00031
293.15	1	1.509	0.00031
298.15	0	1.47301	0.00033
298.15	0.1	1.47829	0.00032
298.15	0.2001	1.48318	0.00032
298.15	0.3001	1.48784	0.00032
298.15	0.4	1.49227	0.00032
298.15	0.4998	1.49597	0.00032
298.15	0.6001	1.49954	0.00032
298.15	0.6999	1.50189	0.00032
298.15	0.8001	1.504	0.00032
298.15	0.8999	1.50535	0.00031
298.15	1	1.50616	0.00031
303.15	0	1.47175	0.00033
303.15	0.1	1.4769	0.00032
303.15	0.2001	1.48167	0.00032
303.15	0.3001	1.48619	0.00032
303.15	0.4	1.49055	0.00032
303.15	0.4998	1.49411	0.00032
303.15	0.6001	1.49711	0.00032
303.15	0.6999	1.49967	0.00032
303.15	0.8001	1.50162	0.00032
303.15	0.8999	1.50275	0.00031
303.15	1	1.50331	0.00031
308.15	0	1.47048	0.00033
308.15	0.1	1.47553	0.00032
308.15	0.2001	1.48015	0.00032
308.15	0.3001	1.48454	0.00032
308.15	0.4	1.48882	0.00032
308.15	0.4998	1.49222	0.00032
308.15	0.6001	1.49515	0.00032
308.15	0.6999	1.49743	0.00032
308.15	0.8001	1.49927	0.00032
308.15	0.8999	1.50017	0.00031
308.15	1	1.50048	0.00031
313.15	0	1.4692	0.00033
313.15	0.1	1.47412	0.00032
313.15	0.2001	1.47863	0.00032
313.15	0.3001	1.48286	0.00032
313.15	0.4	1.48703	0.00032
313.15	0.4998	1.49024	0.00032
313.15	0.6001	1.49307	0.00032
313.15	0.6999	1.49542	0.00032
313.15	0.8001	1.49699	0.00032
313.15	0.8999	1.49777	0.00031
313.15	1	1.49769	0.00031
318.15	0	1.46791	0.00033
318.15	0.1	1.47272	0.00032
318.15	0.2001	1.47699	0.00032
318.15	0.3001	1.4812	0.00032
318.15	0.4	1.48522	0.00032
318.15	0.4998	1.48844	0.00032
318.15	0.6001	1.49119	0.00032
318.15	0.6999	1.49319	0.00032
318.15	0.8001	1.4947	0.00032
318.15	0.8999	1.49512	0.00031
318.15	1	1.49493	0.00031
323.15	0	1.46674	0.00033
323.15	0.1	1.47138	0.00032
323.15	0.2001	1.47548	0.00032
323.15	0.3001	1.47953	0.00032
323.15	0.4	1.48348	0.00032
323.15	0.4998	1.48658	0.00032
323.15	0.6001	1.48919	0.00032
323.15	0.6999	1.49101	0.00032
323.15	0.8001	1.4924	0.00032
323.15	0.8999	1.4926	0.00031
323.15	1	1.49219	0.00031

System: glycerol + pyridine; phases: Liquid
Fixed: Pressure, kPa = 101
Property: Mass density, kg/m3 (Liquid); method: Vibrating tube method
Temperature, K	Mole fraction of pyridine	Mass density, kg/m3	uncertainty
288.15	0	1264.081	0.22
288.15	0.1	1237.233	0.209
288.15	0.2001	1209.173	0.194
288.15	0.3001	1182.557	0.179
288.15	0.4	1156.912	0.166
288.15	0.4998	1130.252	0.156
288.15	0.6001	1103.351	0.147
288.15	0.6999	1075.513	0.14
288.15	0.8001	1047.037	0.134
288.15	0.8999	1017.997	0.13
288.15	1	988.061	0.115
293.15	0	1261.025	0.218
293.15	0.1	1233.995	0.208
293.15	0.2001	1205.751	0.192
293.15	0.3001	1178.915	0.178
293.15	0.4	1153.165	0.166
293.15	0.4998	1126.26	0.155
293.15	0.6001	1099.12	0.147
293.15	0.6999	1071.23	0.14
293.15	0.8001	1042.413	0.134
293.15	0.8999	1013.176	0.13
293.15	1	983.038	0.115
298.15	0	1257.943	0.217
298.15	0.1	1230.734	0.207
298.15	0.2001	1202.252	0.191
298.15	0.3001	1175.233	0.177
298.15	0.4	1149.357	0.165
298.15	0.4998	1122.234	0.155
298.15	0.6001	1094.863	0.146
298.15	0.6999	1066.63	0.139
298.15	0.8001	1037.604	0.133
298.15	0.8999	1008.341	0.129
298.15	1	978.006	0.116
303.15	0	1254.833	0.216
303.15	0.1	1227.445	0.206
303.15	0.2001	1198.744	0.19
303.15	0.3001	1171.524	0.175
303.15	0.4	1145.495	0.164
303.15	0.4998	1118.172	0.154
303.15	0.6001	1090.58	0.145
303.15	0.6999	1062.157	0.138
303.15	0.8001	1033.111	0.133
303.15	0.8999	1003.493	0.129
303.15	1	972.967	0.117
308.15	0	1251.682	0.215
308.15	0.1	1224.12	0.205
308.15	0.2001	1195.323	0.189
308.15	0.3001	1167.953	0.174
308.15	0.4	1141.603	0.163
308.15	0.4998	1114.073	0.153
308.15	0.6001	1086.27	0.144
308.15	0.6999	1057.659	0.138
308.15	0.8001	1028.43	0.132
308.15	0.8999	998.628	0.129
308.15	1	967.913	0.117
313.15	0	1248.483	0.213
313.15	0.1	1220.766	0.203
313.15	0.2001	1191.924	0.187
313.15	0.3001	1164.441	0.173
313.15	0.4	1137.671	0.162
313.15	0.4998	1109.946	0.152
313.15	0.6001	1081.933	0.144
313.15	0.6999	1053.139	0.137
313.15	0.8001	1023.728	0.132
313.15	0.8999	993.746	0.13
313.15	1	962.849	0.118
318.15	0	1245.237	0.212
318.15	0.1	1217.481	0.202
318.15	0.2001	1188.627	0.186
318.15	0.3001	1160.928	0.172
318.15	0.4	1133.704	0.161
318.15	0.4998	1105.786	0.151
318.15	0.6001	1077.572	0.143
318.15	0.6999	1048.592	0.136
318.15	0.8001	1019.004	0.131
318.15	0.8999	988.846	0.13
318.15	1	957.769	0.119
323.15	0	1242.084	0.211
323.15	0.1	1214.263	0.201
323.15	0.2001	1185.339	0.185
323.15	0.3001	1157.377	0.171
323.15	0.4	1129.706	0.161
323.15	0.4998	1101.586	0.151
323.15	0.6001	1073.014	0.143
323.15	0.6999	1044.023	0.136
323.15	0.8001	1014.261	0.131
323.15	0.8999	983.927	0.132
323.15	1	952.673	0.12
