Measured thermophysical data. Heat capacities of aqueous binary and ternary mixtures (with piperazine) of N-(2-aminoethyl)-piperazine and N,N,N'-trimethylethylenediamine at temperatures (303.2-353.2) K
Source: J. Chem. Thermodyn., 2016, 10.1016/j.jct.2016.08.006
Compound 1: piperazine, C4H10N2, InChI=1S/C4H10N2/c1-2-6-4-3-5-1/h5-6H,1-4H2, purity 99%
Compound 2: N-(.beta.-aminoethyl)piperazine), C6H15N3, InChI=1S/C6H15N3/c7-1-4-9-5-2-8-3-6-9/h8H,1-7H2, purity 99%
Compound 3: N,N,N'-trimethylethylenediamine, C5H14N2, InChI=1S/C5H14N2/c1-6-4-5-7(2)3/h6H,4-5H2,1-3H3, purity 98%
Compound 4: water, H2O, InChI=1S/H2O/h1H2
Compound 5: toluene, C7H8, InChI=1S/C7H8/c1-7-5-3-2-4-6-7/h2-6H,1H3, purity 99.98%

System: N-(.beta.-aminoethyl)piperazine); phases: Liquid
Fixed: Pressure, kPa = 101.3
Property: Molar heat capacity at constant pressure, J/K/mol (Liquid); method: Small sample (50 mg) DSC
Temperature, K	Molar heat capacity at constant pressure, J/K/mol	uncertainty
303.2	289.7	9.6
308.2	290.8	9.6
313.2	293.1	9.7
318.2	294.7	9.8
323.2	296.9	9.8
328.2	298.5	9.9
333.2	300.7	10
338.2	302.2	10
343.2	303.3	10.1
348.2	303.6	10.1
353.2	304.6	10.1

System: N,N,N'-trimethylethylenediamine; phases: Liquid
Fixed: Pressure, kPa = 101.3
Property: Molar heat capacity at constant pressure, J/K/mol (Liquid); method: Small sample (50 mg) DSC
Temperature, K	Molar heat capacity at constant pressure, J/K/mol	uncertainty
303.2	258.3	8.6
308.2	260	8.6
313.2	262.7	8.7
318.2	265.3	8.8
323.2	269.2	8.9
328.2	272.7	9
333.2	276	9.2
338.2	278.9	9.3
343.2	281.3	9.3
348.2	283.4	9.4
353.2	286.6	9.5

System: water; phases: Liquid
Fixed: Pressure, kPa = 101.3
Property: Molar heat capacity at constant pressure, J/K/mol (Liquid); method: Small sample (50 mg) DSC
Temperature, K	Molar heat capacity at constant pressure, J/K/mol	uncertainty
303.2	75.26	2.5
308.2	75.27	2.5
313.2	75.29	2.5
318.2	75.31	2.5
323.2	75.29	2.5
328.2	75.32	2.5
333.2	75.41	2.5
338.2	75.44	2.5
343.2	75.48	2.5
348.2	75.55	2.51
353.2	75.78	2.51

System: toluene; phases: Liquid
Fixed: Pressure, kPa = 101.3
Property: Molar heat capacity at constant pressure, J/K/mol (Liquid); method: Small sample (50 mg) DSC
Temperature, K	Molar heat capacity at constant pressure, J/K/mol	uncertainty
303.2	159.1	5.3
308.2	160.4	5.3
313.2	161.6	5.4
318.2	163	5.4
323.2	164.1	5.4
328.2	165.5	5.5
333.2	167	5.5
338.2	168.6	5.6
343.2	170.4	5.7
348.2	172.8	5.7
353.2	175.1	5.8

System: N-(.beta.-aminoethyl)piperazine) + water; phases: Liquid
Fixed: Pressure, kPa = 101.3
Property: Molar heat capacity at constant pressure, J/K/mol (Liquid); method: Small sample (50 mg) DSC
Temperature, K	Mole fraction of N-(.beta.-aminoethyl)piperazine)	Molar heat capacity at constant pressure, J/K/mol	uncertainty
303.2	0.1	109.7	4.5
308.2	0.1	110.2	4.5
313.2	0.1	110.7	4.6
318.2	0.1	111	4.6
323.2	0.1	111.4	4.7
328.2	0.1	111.4	4.7
333.2	0.1	111.6	4.8
338.2	0.1	111.8	4.8
343.2	0.1	112.4	4.8
348.2	0.1	112.6	4.9
353.2	0.1	112.9	4.9
303.2	0.3	157.3	5.7
308.2	0.3	158.5	5.7
313.2	0.3	160.3	5.8
318.2	0.3	162.1	5.9
323.2	0.3	164.3	6
328.2	0.3	165.7	6
333.2	0.3	167.3	6.1
338.2	0.3	168.7	6.1
343.2	0.3	170.1	6.2
348.2	0.3	171.4	6.2
353.2	0.3	173.1	6.3
303.2	0.5	202.1	7
308.2	0.5	203.2	7.1
313.2	0.5	204.8	7.1
318.2	0.5	206.3	7.2
323.2	0.5	208.5	7.2
328.2	0.5	210	7.3
333.2	0.5	211.8	7.3
338.2	0.5	213.6	7.4
343.2	0.5	215.2	7.5
348.2	0.5	216.3	7.5
353.2	0.5	217.6	7.5
303.2	0.7	242.8	8.3
308.2	0.7	244.3	8.3
313.2	0.7	246.3	8.4
318.2	0.7	248.1	8.5
323.2	0.7	250.6	8.5
328.2	0.7	252.5	8.6
333.2	0.7	253.5	8.6
338.2	0.7	254.5	8.7
343.2	0.7	255.9	8.7
348.2	0.7	256.2	8.7
353.2	0.7	257.3	8.7
303.2	0.9	278.3	9.4
308.2	0.9	279.8	9.4
313.2	0.9	281.6	9.5
318.2	0.9	283.1	9.5
323.2	0.9	285.2	9.6
328.2	0.9	287	9.7
333.2	0.9	289	9.7
338.2	0.9	290.9	9.8
343.2	0.9	292	9.8
348.2	0.9	292.5	9.8
353.2	0.9	293.7	9.9
303.2	1	289.7	9.6
308.2	1	290.8	9.6
313.2	1	293.1	9.7
318.2	1	294.7	9.8
323.2	1	296.9	9.8
328.2	1	298.5	9.9
333.2	1	300.7	10
338.2	1	302.2	10
343.2	1	303.3	10.1
348.2	1	303.6	10.1
353.2	1	304.6	10.1
303.2	0	75.26	2.5
308.2	0	75.27	2.5
313.2	0	75.29	2.5
318.2	0	75.31	2.5
323.2	0	75.29	2.5
328.2	0	75.32	2.5
333.2	0	75.41	2.5
338.2	0	75.44	2.5
343.2	0	75.48	2.5
348.2	0	75.55	2.51
353.2	0	75.78	2.51

System: N,N,N'-trimethylethylenediamine + water; phases: Liquid
Fixed: Pressure, kPa = 101.3
Property: Molar heat capacity at constant pressure, J/K/mol (Liquid); method: Small sample (50 mg) DSC
Temperature, K	Mole fraction of N,N,N'-trimethylethylenediamine	Molar heat capacity at constant pressure, J/K/mol	uncertainty
303.2	0.1	105.2	4.3
308.2	0.1	105.5	4.3
313.2	0.1	106.1	4.4
318.2	0.1	106.5	4.4
323.2	0.1	107.3	4.5
328.2	0.1	107.6	4.5
333.2	0.1	108.1	4.6
338.2	0.1	108.5	4.6
343.2	0.1	109	4.6
348.2	0.1	109.4	4.7
353.2	0.1	110.3	4.7
303.2	0.3	151	5.4
308.2	0.3	152.4	5.5
313.2	0.3	154	5.5
318.2	0.3	155.6	5.6
323.2	0.3	157.8	5.7
328.2	0.3	159.5	5.8
333.2	0.3	161.4	5.8
338.2	0.3	162.7	5.9
343.2	0.3	163.8	5.9
348.2	0.3	164.8	6
353.2	0.3	166.2	6
303.2	0.5	188.5	6.5
308.2	0.5	190.1	6.5
313.2	0.5	192.1	6.6
318.2	0.5	193.9	6.7
323.2	0.5	196.1	6.7
328.2	0.5	198.2	6.8
333.2	0.5	200.2	6.9
338.2	0.5	201.9	6.9
343.2	0.5	203.3	7
348.2	0.5	204.4	7
353.2	0.5	206.3	7.1
303.2	0.7	217.4	7.4
308.2	0.7	219.1	7.4
313.2	0.7	221.2	7.5
318.2	0.7	223.1	7.5
323.2	0.7	226	7.6
328.2	0.7	228.5	7.7
333.2	0.7	231	7.8
338.2	0.7	233.3	7.9
343.2	0.7	235.3	8
348.2	0.7	237.5	8
353.2	0.7	239.8	8.1
303.2	0.9	245.2	8.2
308.2	0.9	246.8	8.3
313.2	0.9	249.3	8.4
318.2	0.9	251.7	8.5
323.2	0.9	255.5	8.6
328.2	0.9	258.7	8.7
333.2	0.9	261.8	8.8
338.2	0.9	264.4	8.9
343.2	0.9	267.3	9
348.2	0.9	270.2	9.1
353.2	0.9	273.1	9.2
303.2	1	258.3	8.6
308.2	1	260	8.6
313.2	1	262.7	8.7
318.2	1	265.3	8.8
323.2	1	269.2	8.9
328.2	1	272.7	9
333.2	1	276	9.2
338.2	1	278.9	9.3
343.2	1	281.3	9.3
348.2	1	283.4	9.4
353.2	1	286.6	9.5
303.2	0	75.26	2.5
308.2	0	75.27	2.5
313.2	0	75.29	2.5
318.2	0	75.31	2.5
323.2	0	75.29	2.5
328.2	0	75.32	2.5
333.2	0	75.41	2.5
338.2	0	75.44	2.5
343.2	0	75.48	2.5
348.2	0	75.55	2.51
353.2	0	75.78	2.51

System: piperazine + N-(.beta.-aminoethyl)piperazine) + water; phases: Liquid
Fixed: Pressure, kPa = 101.3
Property: Molar heat capacity at constant pressure, J/K/mol (Liquid); method: Small sample (50 mg) DSC
Temperature, K	Mass fraction of N-(.beta.-aminoethyl)piperazine)	Mass fraction of piperazine	Molar heat capacity at constant pressure, J/K/mol	uncertainty
303.2	0.18	0.12	100.2	3.3
308.2	0.18	0.12	100.2	3.4
313.2	0.18	0.12	100.3	3.4
318.2	0.18	0.12	100.5	3.4
323.2	0.18	0.12	100.8	3.4
328.2	0.18	0.12	101	3.4
333.2	0.18	0.12	101.2	3.4
338.2	0.18	0.12	101.4	3.4
343.2	0.18	0.12	101.5	3.4
348.2	0.18	0.12	101.7	3.4
353.2	0.18	0.12	102	3.4
303.2	0.21	0.09	101.4	3.4
308.2	0.21	0.09	101.5	3.4
313.2	0.21	0.09	101.7	3.4
318.2	0.21	0.09	101.7	3.4
323.2	0.21	0.09	102	3.4
328.2	0.21	0.09	102	3.4
333.2	0.21	0.09	102.3	3.4
338.2	0.21	0.09	102.5	3.4
343.2	0.21	0.09	102.7	3.4
348.2	0.21	0.09	102.9	3.4
353.2	0.21	0.09	103.4	3.4
303.2	0.24	0.06	102.9	3.4
308.2	0.24	0.06	103	3.4
313.2	0.24	0.06	103.1	3.4
318.2	0.24	0.06	103.3	3.5
323.2	0.24	0.06	103.4	3.5
328.2	0.24	0.06	103.6	3.5
333.2	0.24	0.06	103.7	3.5
338.2	0.24	0.06	103.8	3.5
343.2	0.24	0.06	103.9	3.5
348.2	0.24	0.06	103.9	3.5
353.2	0.24	0.06	104.2	3.5
303.2	0.27	0.03	104.2	3.5
308.2	0.27	0.03	104.3	3.5
313.2	0.27	0.03	104.4	3.5
318.2	0.27	0.03	104.4	3.5
323.2	0.27	0.03	104.6	3.5
328.2	0.27	0.03	104.7	3.5
333.2	0.27	0.03	104.8	3.5
338.2	0.27	0.03	104.9	3.5
343.2	0.27	0.03	105.1	3.5
348.2	0.27	0.03	105.2	3.5
353.2	0.27	0.03	105.4	3.5

System: piperazine + N,N,N'-trimethylethylenediamine + water; phases: Liquid
Fixed: Pressure, kPa = 101.3
Property: Molar heat capacity at constant pressure, J/K/mol (Liquid); method: Small sample (50 mg) DSC
Temperature, K	Mass fraction of N,N,N'-trimethylethylenediamine	Mass fraction of piperazine	Molar heat capacity at constant pressure, J/K/mol	uncertainty
303.2	0.18	0.12	101.3	3.4
308.2	0.18	0.12	101.6	3.4
313.2	0.18	0.12	102.1	3.4
318.2	0.18	0.12	102.3	3.4
323.2	0.18	0.12	102.9	3.4
328.2	0.18	0.12	103.3	3.4
333.2	0.18	0.12	103.7	3.5
338.2	0.18	0.12	104.2	3.5
343.2	0.18	0.12	104.5	3.5
348.2	0.18	0.12	104.7	3.5
353.2	0.18	0.12	105.4	3.5
303.2	0.21	0.09	102.5	3.4
308.2	0.21	0.09	102.9	3.4
313.2	0.21	0.09	103.1	3.4
318.2	0.21	0.09	103.5	3.5
323.2	0.21	0.09	104	3.5
328.2	0.21	0.09	104.3	3.5
333.2	0.21	0.09	104.7	3.5
338.2	0.21	0.09	105.1	3.5
343.2	0.21	0.09	105.5	3.5
348.2	0.21	0.09	105.9	3.5
353.2	0.21	0.09	106.5	3.5
303.2	0.24	0.06	103.7	3.5
308.2	0.24	0.06	104.1	3.5
313.2	0.24	0.06	104.2	3.5
318.2	0.24	0.06	104.7	3.5
323.2	0.24	0.06	105	3.5
328.2	0.24	0.06	105.3	3.5
333.2	0.24	0.06	105.7	3.5
338.2	0.24	0.06	106.1	3.5
343.2	0.24	0.06	106.5	3.5
348.2	0.24	0.06	106.8	3.6
353.2	0.24	0.06	107.3	3.6
303.2	0.27	0.03	104.6	3.5
308.2	0.27	0.03	104.8	3.5
313.2	0.27	0.03	105.1	3.5
318.2	0.27	0.03	105.4	3.5
323.2	0.27	0.03	105.7	3.5
328.2	0.27	0.03	106.1	3.5
333.2	0.27	0.03	106.5	3.5
338.2	0.27	0.03	106.8	3.6
343.2	0.27	0.03	107.2	3.6
348.2	0.27	0.03	107.5	3.6
353.2	0.27	0.03	108	3.6
