Measured thermophysical data. Effect of the temperature on the physical properties of pure 1-propyl-3-methylimidazolium bis(trifluoromethylsulfonyl)imide and characterization of its binary mixtures with alcohols
Source: J. Chem. Thermodyn., 2012, 10.1016/j.jct.2011.08.028
Compound 1: methanol, CH4O, InChI=1S/CH4O/c1-2/h2H,1H3, purity 99.9%
Compound 2: ethanol, C2H6O, InChI=1S/C2H6O/c1-2-3/h3H,2H2,1H3, purity 99.9%
Compound 3: propan-1-ol, C3H8O, InChI=1S/C3H8O/c1-2-3-4/h4H,2-3H2,1H3, purity 99.9%
Compound 4: propan-2-ol, C3H8O, InChI=1S/C3H8O/c1-3(2)4/h3-4H,1-2H3, purity 99.8%
Compound 5: 1-methyl-3-propylimidazolium bis[(trifluoromethyl)sulfonyl]imide, C9H13F6N3O4S2, InChI=1S/C7H13N2.C2F6NO4S2/c1-3-4-9-6-5-8(2)7-9;3-1(4,5)14(10,11)9-15(12,13)2(6,7)8/h5-7H,3-4H2,1-2H3;/q+1;-1, purity 99%

System: methanol; phases: Liquid
Property: Refractive index (Na D-line) (Liquid); method: Standard Abbe refractometry
Temperature, K	Pressure, kPa	Refractive index (Na D-line)	uncertainty
298.15	101.325	1.32648	0.00068

System: methanol; phases: Liquid
Property: Speed of sound, m/s (Liquid); method: Sing-around technique in a fixed-path interferometer
Temperature, K	Pressure, kPa	Speed of sound, m/s	uncertainty
298.15	101	1103	2

System: methanol; phases: Liquid
Property: Mass density, kg/m3 (Liquid); method: Vibrating tube method
Temperature, K	Pressure, kPa	Mass density, kg/m3	uncertainty
298.15	101	786.59	0.12

System: ethanol; phases: Liquid
Property: Refractive index (Na D-line) (Liquid); method: Standard Abbe refractometry
Temperature, K	Pressure, kPa	Refractive index (Na D-line)	uncertainty
298.15	101.325	1.35929	0.00068

System: ethanol; phases: Liquid
Property: Speed of sound, m/s (Liquid); method: Sing-around technique in a fixed-path interferometer
Temperature, K	Pressure, kPa	Speed of sound, m/s	uncertainty
298.15	101	1144	2

System: ethanol; phases: Liquid
Property: Mass density, kg/m3 (Liquid); method: Vibrating tube method
Temperature, K	Pressure, kPa	Mass density, kg/m3	uncertainty
298.15	101	785.33	0.12

System: propan-1-ol; phases: Liquid
Property: Refractive index (Na D-line) (Liquid); method: Standard Abbe refractometry
Temperature, K	Pressure, kPa	Refractive index (Na D-line)	uncertainty
298.15	101.325	1.38307	0.00068

System: propan-1-ol; phases: Liquid
Property: Speed of sound, m/s (Liquid); method: Sing-around technique in a fixed-path interferometer
Temperature, K	Pressure, kPa	Speed of sound, m/s	uncertainty
298.15	101	1207	2

System: propan-1-ol; phases: Liquid
Property: Mass density, kg/m3 (Liquid); method: Vibrating tube method
Temperature, K	Pressure, kPa	Mass density, kg/m3	uncertainty
298.15	101	800.09	0.12

System: propan-2-ol; phases: Liquid
Property: Refractive index (Na D-line) (Liquid); method: Standard Abbe refractometry
Temperature, K	Pressure, kPa	Refractive index (Na D-line)	uncertainty
298.15	101.325	1.375	0.00068

System: propan-2-ol; phases: Liquid
Property: Speed of sound, m/s (Liquid); method: Sing-around technique in a fixed-path interferometer
Temperature, K	Pressure, kPa	Speed of sound, m/s	uncertainty
298.15	101	1139	2

System: propan-2-ol; phases: Liquid
Property: Mass density, kg/m3 (Liquid); method: Vibrating tube method
Temperature, K	Pressure, kPa	Mass density, kg/m3	uncertainty
298.15	101	780.98	0.13

System: 1-methyl-3-propylimidazolium bis[(trifluoromethyl)sulfonyl]imide; phases: Liquid
Fixed: Pressure, kPa = 101.325
Property: Viscosity, Pa*s (Liquid); method: Capillary tube (Ostwald; Ubbelohde) method
Temperature, K	Viscosity, Pa*s	uncertainty
298.15	0.0437	0.0006
303.15	0.03568	0.00054
308.15	0.02951	0.00049
313.15	0.02477	0.00046
318.15	0.02101	0.00044
323.15	0.01804	0.00043
328.15	0.01559	0.00042
333.15	0.01363	0.00042
338.15	0.01202	0.00041
343.15	0.01066	0.00041

System: 1-methyl-3-propylimidazolium bis[(trifluoromethyl)sulfonyl]imide; phases: Liquid
Fixed: Pressure, kPa = 101.325
Property: Refractive index (Na D-line) (Liquid); method: Standard Abbe refractometry
Temperature, K	Refractive index (Na D-line)	uncertainty
293.15	1.42669	0.00037
298.15	1.42525	0.00037
303.15	1.42378	0.00037
308.15	1.42224	0.00037
313.15	1.42076	0.00037
318.15	1.41926	0.00037
323.15	1.41776	0.00037
328.15	1.41625	0.00037
333.15	1.41479	0.00037
338.15	1.41334	0.00037
343.15	1.41185	0.00037

System: 1-methyl-3-propylimidazolium bis[(trifluoromethyl)sulfonyl]imide; phases: Liquid
Fixed: Pressure, kPa = 101.325
Property: Speed of sound, m/s (Liquid); method: Sing-around technique in a fixed-path interferometer
Temperature, K	Speed of sound, m/s	uncertainty
293.15	1243	2
298.15	1232	2
303.15	1221	2
308.15	1210	2
313.15	1199	2
318.15	1188	2
323.15	1178	2
328.15	1168	2
333.15	1157	2
338.15	1147	2
343.15	1137	2

System: 1-methyl-3-propylimidazolium bis[(trifluoromethyl)sulfonyl]imide; phases: Liquid
Fixed: Pressure, kPa = 101.325
Property: Mass density, kg/m3 (Liquid); method: Vibrating tube method
Temperature, K	Mass density, kg/m3	uncertainty
293.15	1479.39	0.65
298.15	1474.44	0.65
303.15	1469.5	0.65
308.15	1464.58	0.64
313.15	1459.67	0.64
318.15	1454.78	0.63
323.15	1449.91	0.63
328.15	1445.06	0.62
333.15	1440.23	0.62
338.15	1435.42	0.61
343.15	1430.62	0.61

System: methanol + 1-methyl-3-propylimidazolium bis[(trifluoromethyl)sulfonyl]imide; phases: Liquid
Fixed: Temperature, K = 298.15
Fixed: Pressure, kPa = 101
Property: Refractive index (Na D-line) (Liquid); method: Standard Abbe refractometry
Mole fraction of methanol	Refractive index (Na D-line)	uncertainty
0	1.42525	0.0007
0.099	1.4237	0.0007
0.2012	1.42185	0.00069
0.2973	1.41964	0.00069
0.4068	1.41652	0.00069
0.5067	1.41274	0.00068
0.601	1.40806	0.00068
0.6936	1.40193	0.00068
0.7948	1.39113	0.00068
0.9009	1.37097	0.00068
0.9499	1.35417	0.00068
1	1.32648	0.00068

System: methanol + 1-methyl-3-propylimidazolium bis[(trifluoromethyl)sulfonyl]imide; phases: Liquid
Fixed: Temperature, K = 298.15
Fixed: Pressure, kPa = 101
Property: Speed of sound, m/s (Liquid); method: Sing-around technique in a fixed-path interferometer
Mole fraction of methanol	Speed of sound, m/s	uncertainty
0	1232	2
0.099	1228	2
0.2012	1223	2
0.2973	1218	2
0.4068	1211	2
0.5067	1203	2
0.601	1192	2
0.6936	1179	2
0.7948	1159	2
0.9009	1129	2
0.9499	1115	2
1	1103	2

System: methanol + 1-methyl-3-propylimidazolium bis[(trifluoromethyl)sulfonyl]imide; phases: Liquid
Fixed: Temperature, K = 298.15
Fixed: Pressure, kPa = 101
Property: Mass density, kg/m3 (Liquid); method: Vibrating tube method
Mole fraction of methanol	Mass density, kg/m3	uncertainty
0	1474.44	0.65
0.099	1463.12	0.56
0.2012	1449.69	0.49
0.2973	1434.29	0.42
0.4068	1411.9	0.36
0.5067	1385.1	0.33
0.601	1351.31	0.3
0.6936	1305.17	0.28
0.7948	1228.8	0.26
0.9009	1085.51	0.18
0.9499	972.1	0.17
1	786.59	0.12

System: ethanol + 1-methyl-3-propylimidazolium bis[(trifluoromethyl)sulfonyl]imide; phases: Liquid
Fixed: Temperature, K = 298.15
Fixed: Pressure, kPa = 101
Property: Refractive index (Na D-line) (Liquid); method: Standard Abbe refractometry
Mole fraction of ethanol	Refractive index (Na D-line)	uncertainty
0	1.42525	0.0007
0.053	1.42443	0.0007
0.099	1.42378	0.0007
0.1914	1.42214	0.0007
0.2948	1.42008	0.00069
0.3909	1.41788	0.00069
0.4992	1.41421	0.00068
0.5912	1.41045	0.00068
0.6978	1.4045	0.00068
0.7938	1.39689	0.00068
0.895	1.38426	0.00068
0.9431	1.37524	0.00068
1	1.35929	0.00068

System: ethanol + 1-methyl-3-propylimidazolium bis[(trifluoromethyl)sulfonyl]imide; phases: Liquid
Fixed: Temperature, K = 298.15
Fixed: Pressure, kPa = 101
Property: Speed of sound, m/s (Liquid); method: Sing-around technique in a fixed-path interferometer
Mole fraction of ethanol	Speed of sound, m/s	uncertainty
0	1232	2
0.053	1230	2
0.099	1227	2
0.1914	1223	2
0.2948	1216	2
0.3909	1209	2
0.4992	1200	2
0.5912	1190	2
0.6978	1176	2
0.7938	1162	2
0.895	1146	2
0.9431	1142	2
1	1144	2

System: ethanol + 1-methyl-3-propylimidazolium bis[(trifluoromethyl)sulfonyl]imide; phases: Liquid
Fixed: Temperature, K = 298.15
Fixed: Pressure, kPa = 101
Property: Mass density, kg/m3 (Liquid); method: Vibrating tube method
Mole fraction of ethanol	Mass density, kg/m3	uncertainty
0	1474.44	0.65
0.053	1465.87	0.6
0.099	1458.19	0.56
0.1914	1441.04	0.49
0.2948	1418.06	0.42
0.3909	1391.82	0.37
0.4992	1354.59	0.34
0.5912	1313.64	0.32
0.6978	1249.77	0.28
0.7938	1167.28	0.26
0.895	1033.88	0.18
0.9431	940.65	0.16
1	785.33	0.12

System: propan-1-ol + 1-methyl-3-propylimidazolium bis[(trifluoromethyl)sulfonyl]imide; phases: Liquid
Fixed: Temperature, K = 298.15
Fixed: Pressure, kPa = 101
Property: Refractive index (Na D-line) (Liquid); method: Standard Abbe refractometry
Mole fraction of propan-1-ol	Refractive index (Na D-line)	uncertainty
0	1.42525	0.0007
0.0787	1.42424	0.0007
0.1022	1.42391	0.0007
0.247	1.42164	0.00069
0.39	1.41887	0.00069
0.442	1.41758	0.00069
0.4877	1.41661	0.00068
0.569	1.41422	0.00068
0.6455	1.41148	0.00068
0.703	1.40897	0.00068
0.75	1.40667	0.00068
0.8048	1.40345	0.00068
0.8492	1.40025	0.00068
1	1.38307	0.00068

System: propan-1-ol + 1-methyl-3-propylimidazolium bis[(trifluoromethyl)sulfonyl]imide; phases: Liquid
Fixed: Temperature, K = 298.15
Fixed: Pressure, kPa = 101
Property: Speed of sound, m/s (Liquid); method: Sing-around technique in a fixed-path interferometer
Mole fraction of propan-1-ol	Speed of sound, m/s	uncertainty
0	1232	2
0.0787	1228	2
0.1022	1227	2
0.247	1220	2
0.39	1212	2
0.442	1208	2
0.4877	1205	2
0.569	1198	2
0.6455	1191	2
0.703	1187	2
0.75	1183	2
0.8048	1179	2
0.8492	1178	2
1	1207	2

System: propan-1-ol + 1-methyl-3-propylimidazolium bis[(trifluoromethyl)sulfonyl]imide; phases: Liquid
Fixed: Temperature, K = 298.15
Fixed: Pressure, kPa = 101
Property: Mass density, kg/m3 (Liquid); method: Vibrating tube method
Mole fraction of propan-1-ol	Mass density, kg/m3	uncertainty
0	1474.44	0.65
0.0787	1457.82	0.57
0.1022	1452.69	0.55
0.247	1417.04	0.44
0.39	1372.22	0.36
0.442	1352.74	0.35
0.4877	1333.71	0.35
0.569	1294.62	0.32
0.6455	1250.12	0.29
0.703	1209.58	0.27
0.75	1170.92	0.26
0.8048	1117.65	0.23
0.8492	1066.16	0.27
1	800.09	0.12

System: propan-2-ol + 1-methyl-3-propylimidazolium bis[(trifluoromethyl)sulfonyl]imide; phases: Liquid
Fixed: Temperature, K = 298.15
Fixed: Pressure, kPa = 101
Property: Refractive index (Na D-line) (Liquid); method: Standard Abbe refractometry
Mole fraction of propan-2-ol	Refractive index (Na D-line)	uncertainty
0	1.42525	0.0007
0.0493	1.42452	0.0007
0.0921	1.42385	0.0007
0.291	1.42016	0.00069
0.4093	1.41732	0.00069
0.5071	1.41439	0.00069
0.6113	1.41043	0.00068
0.6964	1.40624	0.00068
0.803	1.39926	0.00068
0.9009	1.39013	0.00068
0.9503	1.38375	0.00068
1	1.375	0.00068

System: propan-2-ol + 1-methyl-3-propylimidazolium bis[(trifluoromethyl)sulfonyl]imide; phases: Liquid
Fixed: Temperature, K = 298.15
Fixed: Pressure, kPa = 101
Property: Speed of sound, m/s (Liquid); method: Sing-around technique in a fixed-path interferometer
Mole fraction of propan-2-ol	Speed of sound, m/s	uncertainty
0	1232	2
0.0493	1228	2
0.0921	1226	2
0.291	1212	2
0.4093	1202	2
0.5071	1191	2
0.6113	1178	2
0.6964	1166	2
0.803	1148	2
0.9009	1135	2
0.9503	1134	2
1	1139	2

System: propan-2-ol + 1-methyl-3-propylimidazolium bis[(trifluoromethyl)sulfonyl]imide; phases: Liquid
Fixed: Temperature, K = 298.15
Fixed: Pressure, kPa = 101
Property: Mass density, kg/m3 (Liquid); method: Vibrating tube method
Mole fraction of propan-2-ol	Mass density, kg/m3	uncertainty
0	1474.44	0.65
0.0493	1463.7	0.6
0.0921	1454.1	0.57
0.291	1401.23	0.43
0.4093	1360.46	0.37
0.5071	1318.46	0.37
0.6113	1262.2	0.32
0.6964	1203.91	0.3
0.803	1106.76	0.24
0.9009	979.02	0.16
0.9503	892.06	0.14
1	780.98	0.13
