Measured thermophysical data. Excess enthalpies and (vapour + liquid) equilibrium data for the binary mixtures of dimethylsulphoxide with ketones
Source: J. Chem. Thermodyn., 2007, 10.1016/j.jct.2007.04.004
Compound 1: dimethyl sulfoxide, C2H6OS, InChI=1S/C2H6OS/c1-4(2)3/h1-2H3
Compound 2: butanone, C4H8O, InChI=1S/C4H8O/c1-3-4(2)5/h3H2,1-2H3
Compound 3: 4-methylpentan-2-one, C6H12O, InChI=1S/C6H12O/c1-5(2)4-6(3)7/h5H,4H2,1-3H3
Compound 4: cyclohexanone, C6H10O, InChI=1S/C6H10O/c7-6-4-2-1-3-5-6/h1-5H2

System: dimethyl sulfoxide; phases: Liquid, Gas
Property: Normal boiling temperature, K (Liquid); method: Ebulliometric method (Recirculating still)
Normal boiling temperature, K	uncertainty
462.19	0.41

System: dimethyl sulfoxide; phases: Liquid
Property: Mass density, kg/m3 (Liquid); method: Pycnometric method
Temperature, K	Pressure, kPa	Mass density, kg/m3	uncertainty
298.15	101.325	1095.37	6.77

System: dimethyl sulfoxide; phases: Liquid, Gas
Property: Vapor or sublimation pressure, kPa (Liquid); method: EBULLIO:UFactor:8
Temperature, K	Vapor or sublimation pressure, kPa	uncertainty
461	95.3	5

System: butanone; phases: Liquid, Gas
Property: Normal boiling temperature, K (Liquid); method: Ebulliometric method (Recirculating still)
Normal boiling temperature, K	uncertainty
352.69	0.41

System: butanone; phases: Liquid
Property: Mass density, kg/m3 (Liquid); method: Pycnometric method
Temperature, K	Pressure, kPa	Mass density, kg/m3	uncertainty
298.15	101.325	799.71	3.68

System: butanone; phases: Liquid, Gas
Property: Vapor or sublimation pressure, kPa (Liquid); method: EBULLIO:UFactor:8
Temperature, K	Vapor or sublimation pressure, kPa	uncertainty
350.9	95.3	5

System: 4-methylpentan-2-one; phases: Liquid, Gas
Property: Normal boiling temperature, K (Liquid); method: Ebulliometric method (Recirculating still)
Normal boiling temperature, K	uncertainty
390.54	0.41

System: 4-methylpentan-2-one; phases: Liquid
Property: Mass density, kg/m3 (Liquid); method: Pycnometric method
Temperature, K	Pressure, kPa	Mass density, kg/m3	uncertainty
298.15	101.325	796.33	3.65

System: 4-methylpentan-2-one; phases: Liquid, Gas
Property: Vapor or sublimation pressure, kPa (Liquid); method: EBULLIO:UFactor:8
Temperature, K	Vapor or sublimation pressure, kPa	uncertainty
386.7	95.3	5

System: cyclohexanone; phases: Liquid, Gas
Property: Normal boiling temperature, K (Liquid); method: Ebulliometric method (Recirculating still)
Normal boiling temperature, K	uncertainty
428.84	0.41

System: cyclohexanone; phases: Liquid
Property: Mass density, kg/m3 (Liquid); method: Pycnometric method
Temperature, K	Pressure, kPa	Mass density, kg/m3	uncertainty
303.15	101.325	937.58	5.02

System: cyclohexanone; phases: Liquid, Gas
Property: Vapor or sublimation pressure, kPa (Liquid); method: EBULLIO:UFactor:8
Temperature, K	Vapor or sublimation pressure, kPa	uncertainty
426.3	95.3	5

System: dimethyl sulfoxide + butanone; phases: Liquid
Fixed: Temperature, K = 298.15
Fixed: Pressure, kPa = 101
Property: Excess molar enthalpy (molar enthalpy of mixing), kJ/mol (Liquid); method: CALVET:UFactor:4
Mole fraction of butanone	Excess molar enthalpy (molar enthalpy of mixing), kJ/mol	uncertainty
0.054	0.075	0.007
0.1094	0.1492	0.01
0.1725	0.2129	0.0125
0.2385	0.2599	0.0144
0.2956	0.305	0.0162
0.3507	0.3482	0.0179
0.4007	0.373	0.0189
0.4448	0.3918	0.0197
0.4881	0.3948	0.0198
0.5787	0.4043	0.0202
0.6433	0.3614	0.0185
0.7077	0.3083	0.0163
0.7797	0.2432	0.0137
0.856	0.1488	0.01
0.9297	0.0565	0.0063

System: dimethyl sulfoxide + butanone; phases: Liquid, Gas
Fixed: Pressure, kPa = 95.3
Property: Boiling temperature at pressure P, K (Liquid); method: EBULLIO:UFactor:8
Mole fraction of butanone	Boiling temperature at pressure P, K	uncertainty
0	461	0.9
0.0625	449.4	0.9
0.117	437.7	0.9
0.2362	413.3	0.9
0.4141	386.7	0.9
0.5912	370.3	0.9
0.6944	363.7	0.9
0.8413	356.5	0.9
0.9239	353.4	0.9
1	350.9	0.9

System: dimethyl sulfoxide + 4-methylpentan-2-one; phases: Liquid
Fixed: Temperature, K = 298.15
Fixed: Pressure, kPa = 101
Property: Excess molar enthalpy (molar enthalpy of mixing), kJ/mol (Liquid); method: CALVET:UFactor:4
Mole fraction of 4-methylpentan-2-one	Excess molar enthalpy (molar enthalpy of mixing), kJ/mol	uncertainty
0.0387	0.1315	0.0093
0.0839	0.2659	0.0146
0.1332	0.392	0.0197
0.1874	0.473	0.0229
0.2391	0.5483	0.0259
0.2901	0.5995	0.028
0.3377	0.6605	0.0304
0.3804	0.6978	0.0319
0.4029	0.7216	0.0329
0.4617	0.7118	0.0325
0.5304	0.6854	0.0314
0.6116	0.6036	0.0281
0.6917	0.4772	0.0231
0.7918	0.2874	0.0155
0.837	0.2255	0.013
0.9237	0.1069	0.0083

System: dimethyl sulfoxide + 4-methylpentan-2-one; phases: Liquid, Gas
Fixed: Pressure, kPa = 95.3
Property: Boiling temperature at pressure P, K (Liquid); method: EBULLIO:UFactor:8
Mole fraction of 4-methylpentan-2-one	Boiling temperature at pressure P, K	uncertainty
0	461	0.9
0.0865	444	0.9
0.1725	431.2	0.9
0.2799	419.2	0.9
0.3989	409.2	0.9
0.5772	398.4	0.9
0.6947	393.2	0.9
0.8725	388.2	0.9
0.9275	387.3	0.9
1	386.7	0.9

System: dimethyl sulfoxide + cyclohexanone; phases: Liquid
Fixed: Temperature, K = 298.15
Fixed: Pressure, kPa = 101
Property: Excess molar enthalpy (molar enthalpy of mixing), kJ/mol (Liquid); method: CALVET:UFactor:4
Mole fraction of cyclohexanone	Excess molar enthalpy (molar enthalpy of mixing), kJ/mol	uncertainty
0.0386	0.1043	0.0082
0.0873	0.237	0.0135
0.1405	0.2514	0.1
0.1917	0.4408	0.0216
0.2431	0.5052	0.0242
0.3037	0.5646	0.0266
0.3596	0.6344	0.0294
0.4115	0.6725	0.0309
0.5044	0.691	0.0316
0.5686	0.6617	0.0305
0.6399	0.6132	0.0285
0.7238	0.5252	0.025
0.8119	0.3819	0.0193
0.9101	0.2009	0.012

System: dimethyl sulfoxide + cyclohexanone; phases: Liquid, Gas
Fixed: Pressure, kPa = 95.3
Property: Boiling temperature at pressure P, K (Liquid); method: EBULLIO:UFactor:8
Mole fraction of cyclohexanone	Boiling temperature at pressure P, K	uncertainty
0	461	0.9
0.0932	453.1	0.9
0.1246	450.9	0.9
0.2315	444.8	0.9
0.3242	440.5	0.9
0.5782	432.8	0.9
0.7328	429.8	0.9
0.8456	428.1	0.9
0.9239	427.1	0.9
1	426.3	0.9
