Measured thermophysical data. (Solid + liquid) phase equilibria of (Ca(H2PO2)2 + CaCl2 + H2O) and (Ca(H2PO2)2 + NaH2PO2 + H2O) ternary systems at T = 323.15 K
Source: J. Chem. Thermodyn., 2016, 10.1016/j.jct.2015.09.006
Compound 1: water, H2O, InChI=1S/H2O/h1H2, purity 99%
Compound 2: calcium hypophosphite, CaH4O4P2, InChI=1S/Ca.2H3O2P/c;2*1-3-2/h;2*3H2,(H,1,2)/q+2;;/p-2, purity 99%
Compound 3: calcium chloride, CaCl2, InChI=1S/Ca.2ClH/h;2*1H/q+2;;/p-2
Compound 4: sodium phosphinate, H2NaO2P, InChI=1S/Na.H3O2P/c;1-3-2/h;3H2,(H,1,2)/q+1;/p-1, purity 99%

System: water + calcium hypophosphite + calcium chloride; phases: Liquid, Crystal
Fixed: Temperature, K = 323.15
Fixed: Pressure, kPa = 101.3
Property: Mass fraction of calcium chloride (Liquid); method: Titration method
Mass fraction of calcium hypophosphite	Mass fraction of calcium chloride	uncertainty
0.1326	0	
0.1049	0.0455	0.0029
0.0865	0.1288	0.0055
0.0789	0.2138	0.0088
0.0725	0.2774	0.0108
0.0658	0.3992	0.0143
0.0628	0.4807	0.0179
0.0613	0.5204	0.0107
0.0576	0.5612	0.0083

System: water + calcium hypophosphite + calcium chloride; phases: Liquid, Crystal of intercomponent compound 1
Fixed: Temperature, K = 323.15
Fixed: Pressure, kPa = 101.3
Property: Mass fraction of calcium chloride (Liquid); method: Titration method
Mass fraction of calcium hypophosphite	Mass fraction of calcium chloride	uncertainty
0.0576	0.5612	0.0054
0.0217	0.561	0.0054
0	0.566	0.0053

System: water + calcium hypophosphite + calcium chloride; phases: Liquid
Fixed: Pressure, kPa = 101.3
Fixed: Temperature, K = 323.15
Property: Mass density, kg/m3 (Liquid); method: Vibrating tube method
Mass fraction of calcium hypophosphite	Mass fraction of calcium chloride	Mass density, kg/m3	uncertainty
0.1326	0	1073.2	24
0.1049	0.0455	1116.9	24
0.0865	0.1288	1176.8	24
0.0789	0.2138	1250.4	24.1
0.0725	0.2774	1294.1	24.1
0.0658	0.3992	1364.9	24.4
0.0628	0.4807	1438.9	25
0.0613	0.5204	1524.7	27.1
0.0576	0.5612	1595.3	25.7
0.0217	0.561	1584.8	24.7
0	0.566	1575.9	24.6

System: water + calcium hypophosphite + calcium chloride; phases: Liquid, Crystal, Crystal of intercomponent compound 1
Property: Mass fraction of calcium hypophosphite (Liquid); method: Titration method
Pressure, kPa	Temperature, K	Mass fraction of calcium hypophosphite	uncertainty
101.3	323.15	0.0576	0.0006

System: water + calcium hypophosphite + calcium chloride; phases: Liquid, Crystal, Crystal of intercomponent compound 1
Property: Mass fraction of calcium chloride (Liquid); method: Titration method
Pressure, kPa	Temperature, K	Mass fraction of calcium chloride	uncertainty
101.3	323.15	0.5612	0.0054

System: sodium phosphinate + water + calcium hypophosphite; phases: Liquid, Crystal
Fixed: Temperature, K = 323.15
Fixed: Pressure, kPa = 101.3
Property: Mass fraction of sodium phosphinate (Liquid); method: Titration method
Mass fraction of calcium hypophosphite	Mass fraction of sodium phosphinate	uncertainty
0.1326	0	
0.0694	0.0796	0.0018
0.0367	0.1468	0.0026
0.0252	0.1967	0.0034

System: sodium phosphinate + water + calcium hypophosphite; phases: Liquid, Crystal of intercomponent compound 1
Fixed: Temperature, K = 323.15
Fixed: Pressure, kPa = 101.3
Property: Mass fraction of sodium phosphinate (Liquid); method: Titration method
Mass fraction of calcium hypophosphite	Mass fraction of sodium phosphinate	uncertainty
0.0252	0.1967	0.0032
0.0239	0.1993	0.0033
0.0075	0.2578	0.0042
0.0027	0.338	0.0058
0.0017	0.3994	0.0067
0.0014	0.4573	0.008
0.0012	0.4942	0.0087
0.0011	0.532	0.0091
0.0006	0.5782	0.0069

System: sodium phosphinate + water + calcium hypophosphite; phases: Liquid
Fixed: Pressure, kPa = 101.3
Fixed: Temperature, K = 323.15
Property: Mass density, kg/m3 (Liquid); method: Vibrating tube method
Mass fraction of calcium hypophosphite	Mass fraction of sodium phosphinate	Mass density, kg/m3	uncertainty
0.1326	0	1073.2	24
0.0694	0.0796	1088.9	24
0.0367	0.1468	1119.9	24
0.0252	0.1967	1144.2	24.1
0.0239	0.1993	1151.9	24.1
0.0075	0.2578	1175.3	24.2
0.0027	0.338	1225.2	24.5
0.0017	0.3994	1281.4	24.4
0.0014	0.4573	1324.8	33.6
0.0012	0.4942	1358.5	25.4
0.0011	0.532	1395.4	25.2
0.0006	0.5782	1436.2	25.5
0	0.5786	1415.2	25.5

System: sodium phosphinate + water + calcium hypophosphite; phases: Liquid, Crystal, Crystal of intercomponent compound 1
Property: Mass fraction of calcium hypophosphite (Liquid); method: Titration method
Pressure, kPa	Temperature, K	Mass fraction of calcium hypophosphite	uncertainty
101.3	323.15	0.0252	0.0003

System: sodium phosphinate + water + calcium hypophosphite; phases: Liquid, Crystal, Crystal of intercomponent compound 1
Property: Mass fraction of sodium phosphinate (Liquid); method: Titration method
Pressure, kPa	Temperature, K	Mass fraction of sodium phosphinate	uncertainty
101.3	323.15	0.1967	0.0032

System: sodium phosphinate + water + calcium hypophosphite; phases: Liquid, Crystal of intercomponent compound 2
Fixed: Temperature, K = 323.15
Fixed: Pressure, kPa = 101.3
Property: Mass fraction of sodium phosphinate (Liquid); method: Titration method
Mass fraction of calcium hypophosphite	Mass fraction of sodium phosphinate	uncertainty
0.0006	0.5782	0.0069
0	0.5786	0.0069

System: sodium phosphinate + water + calcium hypophosphite; phases: Liquid, Crystal of intercomponent compound 1, Crystal of intercomponent compound 2
Property: Mass fraction of calcium hypophosphite (Liquid); method: Titration method
Pressure, kPa	Temperature, K	Mass fraction of calcium hypophosphite	uncertainty
101.3	323.15	0.0006	0.0001

System: sodium phosphinate + water + calcium hypophosphite; phases: Liquid, Crystal of intercomponent compound 1, Crystal of intercomponent compound 2
Property: Mass fraction of sodium phosphinate (Liquid); method: Titration method
Pressure, kPa	Temperature, K	Mass fraction of sodium phosphinate	uncertainty
101.3	323.15	0.5782	0.0069

System: water + calcium hypophosphite; phases: Liquid, Crystal
Property: Mass fraction of calcium hypophosphite (Liquid); method: Titration method
Pressure, kPa	Temperature, K	Mass fraction of calcium hypophosphite	uncertainty
101.3	323.15	0.1326	0.0014

System: water + calcium hypophosphite; phases: Liquid
Property: Mass density, kg/m3 (Liquid); method: Vibrating tube method
Mass fraction of calcium hypophosphite	Pressure, kPa	Temperature, K	Mass density, kg/m3	uncertainty
0.1326	101.3	323.15	1073.2	24

System: water + calcium chloride; phases: Liquid, Crystal of intercomponent compound 1
Property: Mass fraction of calcium chloride (Liquid); method: Titration method
Pressure, kPa	Temperature, K	Mass fraction of calcium chloride	uncertainty
101.3	323.15	0.566	0.0053

System: water + calcium chloride; phases: Liquid
Property: Mass density, kg/m3 (Liquid); method: Vibrating tube method
Mass fraction of calcium chloride	Pressure, kPa	Temperature, K	Mass density, kg/m3	uncertainty
0.566	101.3	323.15	1575.9	24

System: sodium phosphinate + water; phases: Liquid
Property: Mass density, kg/m3 (Liquid); method: Vibrating tube method
Mass fraction of sodium phosphinate	Pressure, kPa	Temperature, K	Mass density, kg/m3	uncertainty
0.5786	101.3	323.15	1415.2	24

System: sodium phosphinate + water; phases: Liquid, Crystal of intercomponent compound 1
Property: Mass fraction of sodium phosphinate (Liquid); method: Titration method
Pressure, kPa	Temperature, K	Mass fraction of sodium phosphinate	uncertainty
101.3	323.15	0.5786	0.0069
