Measured thermophysical data. Volumetric properties of binary mixtures of N-ethylformamide with tetrahydrofuran, 2-butanone and ethylacetate from (293.15 to 313.15) K
Source: J. Chem. Thermodyn., 2012, 10.1016/j.jct.2012.02.033
Compound 1: N-ethylformamide, C3H7NO, InChI=1S/C3H7NO/c1-2-4-3-5/h3H,2H2,1H3,(H,4,5), purity 99%
Compound 2: tetrahydrofuran, C4H8O, InChI=1S/C4H8O/c1-2-4-5-3-1/h1-4H2, purity 99.5%
Compound 3: butanone, C4H8O, InChI=1S/C4H8O/c1-3-4(2)5/h3H2,1-2H3, purity 99.5%
Compound 4: ethyl acetate, C4H8O2, InChI=1S/C4H8O2/c1-3-6-4(2)5/h3H2,1-2H3, purity 99.5%

System: N-ethylformamide; phases: Liquid
Fixed: Pressure, kPa = 101.325
Property: Mass density, kg/m3 (Liquid); method: Vibrating tube method
Temperature, K	Mass density, kg/m3	uncertainty
293.15	951.59	0.24
298.15	947.48	0.24
303.15	943.29	0.24
308.15	939.04	0.24
313.15	934.78	0.24

System: tetrahydrofuran; phases: Liquid
Fixed: Pressure, kPa = 101.325
Property: Mass density, kg/m3 (Liquid); method: Vibrating tube method
Temperature, K	Mass density, kg/m3	uncertainty
293.15	888.73	0.14
298.15	883.24	0.15
303.15	877.6	0.15
308.15	872.02	0.15
313.15	866.23	0.15

System: butanone; phases: Liquid
Fixed: Pressure, kPa = 101.325
Property: Mass density, kg/m3 (Liquid); method: Vibrating tube method
Temperature, K	Mass density, kg/m3	uncertainty
293.15	808.64	0.16
298.15	803.24	0.17
303.15	797.88	0.17
308.15	792.45	0.17
313.15	786.94	0.17

System: ethyl acetate; phases: Liquid
Fixed: Pressure, kPa = 101.325
Property: Mass density, kg/m3 (Liquid); method: Vibrating tube method
Temperature, K	Mass density, kg/m3	uncertainty
293.15	900.26	0.15
298.15	894.14	0.15
303.15	887.85	0.15
308.15	881.52	0.15
313.15	875.14	0.16

System: tetrahydrofuran + N-ethylformamide; phases: Liquid
Fixed: Pressure, kPa = 101.3
Property: Mass density, kg/m3 (Liquid); method: Vibrating tube method
Mole fraction of N-ethylformamide	Temperature, K	Mass density, kg/m3	uncertainty
0.1142	293.15	896.3	0.15
0.1142	298.15	890.99	0.15
0.1142	303.15	885.68	0.16
0.1142	308.15	880.28	0.16
0.1142	313.15	874.84	0.16
0.2142	293.15	903.1	0.16
0.2142	298.15	897.92	0.16
0.2142	303.15	892.77	0.16
0.2142	308.15	887.57	0.16
0.2142	313.15	882.2	0.16
0.3179	293.15	910.05	0.16
0.3179	298.15	905.07	0.16
0.3179	303.15	900.1	0.17
0.3179	308.15	895.02	0.17
0.3179	313.15	889.89	0.17
0.4258	293.15	917.17	0.17
0.4258	298.15	912.38	0.17
0.4258	303.15	907.54	0.17
0.4258	308.15	902.62	0.18
0.4258	313.15	897.66	0.18
0.5219	293.15	923.35	0.18
0.5219	298.15	918.66	0.18
0.5219	303.15	913.98	0.18
0.5219	308.15	909.25	0.18
0.5219	313.15	904.45	0.18
0.6177	293.15	929.34	0.19
0.6177	298.15	924.77	0.19
0.6177	303.15	920.19	0.19
0.6177	308.15	915.53	0.19
0.6177	313.15	910.99	0.19
0.7146	293.15	935.26	0.2
0.7146	298.15	930.78	0.2
0.7146	303.15	926.31	0.2
0.7146	308.15	921.81	0.2
0.7146	313.15	917.2	0.2
0.8111	293.15	940.88	0.21
0.8111	298.15	936.53	0.21
0.8111	303.15	932.18	0.21
0.8111	308.15	927.84	0.21
0.8111	313.15	923.35	0.22
0.9121	293.15	946.8	0.23
0.9121	298.15	942.58	0.23
0.9121	303.15	938.31	0.23
0.9121	308.15	934.01	0.23
0.9121	313.15	929.64	0.23

System: butanone + N-ethylformamide; phases: Liquid
Fixed: Pressure, kPa = 101.3
Property: Mass density, kg/m3 (Liquid); method: Vibrating tube method
Mole fraction of N-ethylformamide	Temperature, K	Mass density, kg/m3	uncertainty
0.1242	293.15	826.16	0.18
0.1242	298.15	820.91	0.19
0.1242	303.15	815.8	0.19
0.1242	308.15	810.54	0.19
0.1242	313.15	805.22	0.19
0.2302	293.15	840.95	0.19
0.2302	298.15	836.01	0.19
0.2302	303.15	830.97	0.19
0.2302	308.15	825.9	0.19
0.2302	313.15	820.74	0.19
0.3384	293.15	856.12	0.19
0.3384	298.15	851.11	0.19
0.3384	303.15	846.25	0.19
0.3384	308.15	841.32	0.19
0.3384	313.15	836.31	0.2
0.4407	293.15	870.55	0.2
0.4407	298.15	865.71	0.2
0.4407	303.15	860.93	0.2
0.4407	308.15	856.14	0.2
0.4407	313.15	851.26	0.2
0.5398	293.15	884.78	0.2
0.5398	298.15	880.07	0.2
0.5398	303.15	875.4	0.2
0.5398	308.15	870.71	0.21
0.5398	313.15	865.95	0.21
0.6369	293.15	898.71	0.21
0.6369	298.15	894.02	0.21
0.6369	303.15	889.48	0.21
0.6369	308.15	884.87	0.21
0.6369	313.15	880.2	0.21
0.7317	293.15	912.21	0.22
0.7317	298.15	907.71	0.22
0.7317	303.15	903.31	0.22
0.7317	308.15	898.84	0.22
0.7317	313.15	894.3	0.22
0.8186	293.15	925	0.23
0.8186	298.15	920.61	0.23
0.8186	303.15	916.28	0.23
0.8186	308.15	911.88	0.23
0.8186	313.15	907.42	0.23
0.91	293.15	938.61	0.24
0.91	298.15	934.41	0.24
0.91	303.15	930.12	0.24
0.91	308.15	925.83	0.24
0.91	313.15	921.48	0.24

System: ethyl acetate + N-ethylformamide; phases: Liquid
Fixed: Pressure, kPa = 101.3
Property: Mass density, kg/m3 (Liquid); method: Vibrating tube method
Mole fraction of N-ethylformamide	Temperature, K	Mass density, kg/m3	uncertainty
0.1322	293.15	907.89	0.16
0.1322	298.15	901.99	0.16
0.1322	303.15	896.06	0.16
0.1322	308.15	890.09	0.16
0.1322	313.15	884.03	0.16
0.2514	293.15	914.13	0.16
0.2514	298.15	908.51	0.16
0.2514	303.15	902.84	0.16
0.2514	308.15	897.16	0.17
0.2514	313.15	891.14	0.17
0.3559	293.15	919.39	0.17
0.3559	298.15	914.06	0.17
0.3559	303.15	908.62	0.17
0.3559	308.15	903.23	0.17
0.3559	313.15	897.65	0.17
0.4653	293.15	924.91	0.17
0.4653	298.15	919.68	0.18
0.4653	303.15	914.51	0.18
0.4653	308.15	909.29	0.18
0.4653	313.15	903.98	0.18
0.564	293.15	929.7	0.18
0.564	298.15	924.66	0.18
0.564	303.15	919.65	0.19
0.564	308.15	914.62	0.19
0.564	313.15	909.53	0.19
0.671	293.15	935.01	0.2
0.671	298.15	930.12	0.2
0.671	303.15	925.33	0.2
0.671	308.15	920.5	0.2
0.671	313.15	915.67	0.2
0.7544	293.15	939.27	0.2
0.7544	298.15	934.56	0.21
0.7544	303.15	929.93	0.21
0.7544	308.15	925.29	0.21
0.7544	313.15	920.55	0.21
0.8376	293.15	943.3	0.22
0.8376	298.15	938.85	0.22
0.8376	303.15	934.35	0.22
0.8376	308.15	929.86	0.22
0.8376	313.15	925.31	0.22
0.9223	293.15	947.63	0.23
0.9223	298.15	943.28	0.23
0.9223	303.15	938.94	0.23
0.9223	308.15	934.56	0.23
0.9223	313.15	930.15	0.23
