Measured thermophysical data. The limiting partial molar volume and transfer partial molar volume of glycylglycine in aqueous sodium halide solutions at 298.15 K and 308.15 K
Source: J. Chem. Thermodyn., 2006, 10.1016/j.jct.2005.04.012
Compound 1: glycylglycine, C4H8N2O3, InChI=1S/C4H8N2O3/c5-1-3(7)6-2-4(8)9/h1-2,5H2,(H,6,7)(H,8,9)
Compound 2: potassium chloride, ClK, InChI=1S/ClH.K/h1H;/q;+1/p-1
Compound 3: sodium chloride, ClNa, InChI=1S/ClH.Na/h1H;/q;+1/p-1
Compound 4: water, H2O, InChI=1S/H2O/h1H2

System: glycylglycine + potassium chloride + water; phases: Liquid
Fixed: Temperature, K = 308.15
Property: Apparent molar volume, m3/mol (Liquid); method: Calculated with densities of this investigation
Solvent: Molality, mol/kg of potassium chloride	Molality, mol/kg of glycylglycine	Mass density, kg/m3	Apparent molar volume, m3/mol	uncertainty
0	0.0949	999.21	7.729e-05	6.6e-07
0	0.2052	1005.1	7.746e-05	3.1e-07
0	0.2997	1010.03	7.763e-05	2.2e-07
0	0.4062	1015.47	7.782e-05	1.6e-07
0	0.5069	1020.5	7.798e-05	1.3e-07
0.102	0.0944	1003.89	7.765e-05	6.7e-07
0.102	0.1877	1008.83	7.783e-05	3.4e-07
0.102	0.2977	1014.53	7.801e-05	2.2e-07
0.102	0.3837	1018.89	7.817e-05	1.7e-07
0.102	0.473	1023.33	7.832e-05	1.4e-07
0.4941	0.091	1021.07	7.867e-05	7e-07
0.4941	0.1929	1026.31	7.889e-05	3.4e-07
0.4941	0.284	1030.91	7.889e-05	2.3e-07
0.4941	0.3859	1035.94	7.915e-05	1.7e-07
0.4941	0.4836	1040.66	7.929e-05	1.4e-07
1.0204	0.0983	1043.67	7.969e-05	6.6e-07
1.0204	0.1975	1048.6	7.983e-05	3.3e-07
1.0204	0.2855	1052.89	7.995e-05	2.3e-07
1.0204	0.3942	1058.09	8.005e-05	1.7e-07
1.0204	0.4762	1061.93	8.013e-05	1.4e-07
2.0117	0.0835	1082.2	8.153e-05	7.9e-07
2.0117	0.1821	1086.76	8.168e-05	3.7e-07
2.0117	0.2747	1090.96	8.177e-05	2.5e-07
2.0117	0.3687	1095.12	8.19e-05	2e-07
2.0117	0.454	1098.83	8.197e-05	1.5e-07
2.7822	0.0875	1116.72	8.236e-05	7.7e-07
2.7822	0.178	1120.69	8.239e-05	3.8e-07
2.7822	0.2556	1124.04	8.241e-05	2.7e-07
2.7822	0.346	1127.87	8.246e-05	2e-07
2.7822	0.4419	1131.86	8.251e-05	1.6e-07

System: glycylglycine + potassium chloride + water; phases: Liquid
Fixed: Temperature, K = 298.15
Property: Apparent molar volume, m3/mol (Liquid); method: Calculated with densities of this investigation
Solvent: Molality, mol/kg of potassium chloride	Molality, mol/kg of glycylglycine	Mass density, kg/m3	Apparent molar volume, m3/mol	uncertainty
0	0.0949	1002.54	7.658e-05	6.5e-07
0	0.2052	1008.5	7.675e-05	3.3e-07
0	0.2997	1013.49	7.692e-05	2.1e-07
0	0.4062	1018.99	7.712e-05	1.6e-07
0	0.5069	1024.06	7.732e-05	1.3e-07
0.102	0.0944	1007.23	7.693e-05	6.6e-07
0.102	0.1877	1012.23	7.711e-05	3.4e-07
0.102	0.2977	1017.99	7.732e-05	2.2e-07
0.102	0.3837	1022.42	7.743e-05	1.7e-07
0.102	0.473	1026.9	7.762e-05	1.4e-07
0.4941	0.091	1024.69	7.794e-05	6.9e-07
0.4941	0.1929	1030	7.814e-05	3.3e-07
0.4941	0.284	1034.66	7.824e-05	2.3e-07
0.4941	0.3859	1039.76	7.839e-05	1.7e-07
0.4941	0.4836	1044.54	7.854e-05	1.4e-07
1.0204	0.0983	1047.6	7.929e-05	6.6e-07
1.0204	0.1975	1052.55	7.947e-05	3.3e-07
1.0204	0.2855	1056.85	7.963e-05	2.3e-07
1.0204	0.3942	1062.05	7.978e-05	1.7e-07
1.0204	0.4762	1065.9	7.987e-05	1.4e-07
2.0117	0.0835	1086.26	8.087e-05	7.9e-07
2.0117	0.1821	1090.89	8.096e-05	3.7e-07
2.0117	0.2747	1095.16	8.102e-05	2.5e-07
2.0117	0.3687	1099.41	8.108e-05	1.9e-07
2.0117	0.454	1103.18	8.117e-05	1.5e-07
2.7822	0.0875	1121.27	8.199e-05	7.6e-07
2.7822	0.178	1125.26	8.203e-05	3.8e-07
2.7822	0.2556	1128.62	8.206e-05	2.7e-07
2.7822	0.346	1132.46	8.213e-05	2e-07
2.7822	0.4419	1136.46	8.219e-05	1.6e-07

System: glycylglycine + potassium chloride + water; phases: Liquid
Fixed: Pressure, kPa = 101
Property: Mass density, kg/m3 (Liquid); method: Pycnometric method
Solvent: Molality, mol/kg of potassium chloride	Molality, mol/kg of glycylglycine	Temperature, K	Mass density, kg/m3	uncertainty
0	0.0949	298.15	1002.54	5.64
0	0.0949	308.15	999.21	5.62
0	0.2052	298.15	1008.5	5.7
0	0.2052	308.15	1005.1	5.69
0	0.2997	298.15	1013.49	5.76
0	0.2997	308.15	1010.03	5.74
0	0.4062	298.15	1018.99	5.82
0	0.4062	308.15	1015.47	5.8
0	0.5069	298.15	1024.06	5.88
0	0.5069	308.15	1020.5	5.86
0.102	0.0944	298.15	1007.23	5.69
0.102	0.0944	308.15	1003.89	5.68
0.102	0.1877	298.15	1012.23	5.74
0.102	0.1877	308.15	1008.83	5.73
0.102	0.2977	298.15	1017.99	5.81
0.102	0.2977	308.15	1014.53	5.79
0.102	0.3837	298.15	1022.42	5.86
0.102	0.3837	308.15	1018.89	5.84
0.102	0.473	298.15	1026.9	5.91
0.102	0.473	308.15	1023.33	5.89
0.4941	0.091	298.15	1024.69	5.88
0.4941	0.091	308.15	1021.07	5.87
0.4941	0.1929	298.15	1030	5.94
0.4941	0.1929	308.15	1026.31	5.93
0.4941	0.284	298.15	1034.66	6
0.4941	0.284	308.15	1030.91	5.98
0.4941	0.3859	298.15	1039.76	6.06
0.4941	0.3859	308.15	1035.94	6.04
0.4941	0.4836	298.15	1044.54	6.11
0.4941	0.4836	308.15	1040.66	6.09
1.0204	0.0983	298.15	1047.6	6.15
1.0204	0.0983	308.15	1043.67	6.12
1.0204	0.1975	298.15	1052.55	6.2
1.0204	0.1975	308.15	1048.6	6.18
1.0204	0.2855	298.15	1056.85	6.25
1.0204	0.2855	308.15	1052.89	6.23
1.0204	0.3942	298.15	1062.05	6.314
1.0204	0.3942	308.15	1058.09	6.29
1.0204	0.4762	298.15	1065.9	6.36
1.0204	0.4762	308.15	1061.93	6.34
2.0117	0.0835	298.15	1086.26	6.6
2.0117	0.0835	308.15	1082.2	6.58
2.0117	0.1821	298.15	1090.89	6.66
2.0117	0.1821	308.15	1086.76	6.63
2.0117	0.2747	298.15	1095.16	6.71
2.0117	0.2747	308.15	1090.96	6.68
2.0117	0.3687	298.15	1099.41	6.76
2.0117	0.3687	308.15	1095.12	6.73
2.0117	0.454	298.15	1103.18	6.8
2.0117	0.454	308.15	1098.83	6.78
2.7822	0.0875	298.15	1121.27	7.03
2.7822	0.0875	308.15	1116.72	6.99
2.7822	0.178	298.15	1125.26	7.08
2.7822	0.178	308.15	1120.69	7.04
2.7822	0.2556	298.15	1128.62	7.12
2.7822	0.2556	308.15	1124.04	7.08
2.7822	0.346	298.15	1132.46	7.16
2.7822	0.346	308.15	1127.87	7.13
2.7822	0.4419	298.15	1136.46	7.21
2.7822	0.4419	308.15	1131.86	7.18

System: glycylglycine + sodium chloride + water; phases: Liquid
Fixed: Temperature, K = 308.15
Property: Apparent molar volume, m3/mol (Liquid); method: Calculated with densities of this investigation
Solvent: Molality, mol/kg of sodium chloride	Molality, mol/kg of glycylglycine	Mass density, kg/m3	Apparent molar volume, m3/mol	uncertainty
0.1007	0.1056	1003.84	7.766e-05	6e-07
0.1007	0.1927	1008.44	7.786e-05	3.3e-07
0.1007	0.302	1014.09	7.807e-05	2.2e-07
0.1007	0.3966	1018.89	7.82e-05	2e-07
0.1007	0.4798	1022.99	7.841e-05	1.4e-07
0.4829	0.0998	1018.33	7.857e-05	6.4e-07
0.4829	0.191	1023.03	7.878e-05	3.4e-07
0.4829	0.288	1027.93	7.895e-05	2.3e-07
0.4829	0.3903	1032.99	7.911e-05	1.7e-07
0.4829	0.4735	1037	7.928e-05	1.4e-07
1.0088	0.0958	1037.76	7.969e-05	6.8e-07
1.0088	0.1825	1042.1	7.98e-05	4e-07
1.0088	0.2962	1047.67	7.993e-05	2.3e-07
1.0088	0.3964	1052.47	8.005e-05	1.7e-07
1.0088	0.4978	1057.2	8.021e-05	1.4e-07
2.0821	0.0945	1075.47	8.133e-05	7e-07
2.0821	0.1839	1079.64	8.15e-05	4e-07
2.0821	0.2769	1083.88	8.166e-05	2.5e-07
2.0821	0.3727	1088.17	8.177e-05	1.9e-07
2.0821	0.4682	1092.29	8.2e-05	1e-06
3.0536	0.0906	1106.87	8.248e-05	7.4e-07
3.0536	0.1778	1110.69	8.267e-05	3.8e-07
3.0536	0.2697	1114.64	8.279e-05	2.6e-07
3.0536	0.3648	1118.61	8.296e-05	1.9e-07
3.0536	0.4527	1122.2	8.309e-05	1.6e-07

System: glycylglycine + sodium chloride + water; phases: Liquid
Fixed: Temperature, K = 298.15
Property: Apparent molar volume, m3/mol (Liquid); method: Calculated with densities of this investigation
Solvent: Molality, mol/kg of sodium chloride	Molality, mol/kg of glycylglycine	Mass density, kg/m3	Apparent molar volume, m3/mol	uncertainty
0.1007	0.1056	1007.31	7.693e-05	5.9e-07
0.1007	0.1927	1011.97	7.705e-05	3.3e-07
0.1007	0.302	1017.69	7.729e-05	2.1e-07
0.1007	0.3966	1022.53	7.748e-05	1.6e-07
0.1007	0.4798	1026.72	7.76e-05	1e-07
0.4829	0.0998	1021.99	7.789e-05	6.3e-07
0.4829	0.191	1026.76	7.802e-05	3.4e-07
0.4829	0.288	1031.7	7.828e-05	2.3e-07
0.4829	0.3903	1036.8	7.848e-05	1.7e-07
0.4829	0.4735	1040.87	7.861e-05	1.4e-07
1.0088	0.0958	1041.75	7.908e-05	6.7e-07
1.0088	0.1825	1046.13	7.921e-05	3.6e-07
1.0088	0.2962	1051.75	7.936e-05	2.2e-07
1.0088	0.3964	1056.57	7.954e-05	1.7e-07
1.0088	0.4978	1061.37	7.965e-05	1.4e-07
2.0821	0.0945	1079.91	8.08e-05	7e-07
2.0821	0.1839	1084.12	8.095e-05	3.6e-07
2.0821	0.2769	1088.4	8.112e-05	2.4e-07
2.0821	0.3727	1092.7	8.13e-05	2e-07
2.0821	0.4682	1096.92	8.139e-05	1.5e-07
3.0536	0.0906	1111.9	8.209e-05	7.4e-07
3.0536	0.1778	1115.74	8.228e-05	3.8e-07
3.0536	0.2697	1119.69	8.246e-05	2.5e-07
3.0536	0.3648	1123.68	8.261e-05	1.9e-07
3.0536	0.4527	1127.28	8.275e-05	1.6e-07

System: glycylglycine + sodium chloride + water; phases: Liquid
Fixed: Pressure, kPa = 101
Property: Mass density, kg/m3 (Liquid); method: Pycnometric method
Solvent: Molality, mol/kg of sodium chloride	Molality, mol/kg of glycylglycine	Temperature, K	Mass density, kg/m3	uncertainty
0.1007	0.1056	298.15	1007.31	5.69
0.1007	0.1056	308.15	1003.84	5.67
0.1007	0.1927	298.15	1011.97	5.74
0.1007	0.1927	308.15	1008.44	5.73
0.1007	0.302	298.15	1017.69	5.81
0.1007	0.302	308.15	1014.09	5.79
0.1007	0.3966	298.15	1022.53	5.86
0.1007	0.3966	308.15	1018.89	5.84
0.1007	0.4798	298.15	1026.72	5.91
0.1007	0.4798	308.15	1022.99	5.89
0.4829	0.0998	298.15	1021.99	5.85
0.4829	0.0998	308.15	1018.33	5.84
0.4829	0.191	298.15	1026.76	5.91
0.4829	0.191	308.15	1023.03	5.89
0.4829	0.288	298.15	1031.7	5.96
0.4829	0.288	308.15	1027.93	5.94
0.4829	0.3903	298.15	1036.8	6.02
0.4829	0.3903	308.15	1032.99	6
0.4829	0.4735	298.15	1040.87	6.07
0.4829	0.4735	308.15	1037	6.05
1.0088	0.0958	298.15	1041.75	6.08
1.0088	0.0958	308.15	1037.76	6.06
1.0088	0.1825	298.15	1046.13	6.13
1.0088	0.1825	308.15	1042.1	6.11
1.0088	0.2962	298.15	1051.75	6.19
1.0088	0.2962	308.15	1047.67	6.17
1.0088	0.3964	298.15	1056.57	6.25
1.0088	0.3964	308.15	1052.47	6.23
1.0088	0.4978	298.15	1061.37	6.31
1.0088	0.4978	308.15	1057.2	6.28
2.0821	0.0945	298.15	1079.91	6.53
2.0821	0.0945	308.15	1075.47	6.5
2.0821	0.1839	298.15	1084.12	6.58
2.0821	0.1839	308.15	1079.64	6.55
2.0821	0.2769	298.15	1088.4	6.63
2.0821	0.2769	308.15	1083.88	6.6
2.0821	0.3727	298.15	1092.7	6.68
2.0821	0.3727	308.15	1088.17	6.65
2.0821	0.4682	298.15	1096.92	6.73
2.0821	0.4682	308.15	1092.29	6.7
3.0536	0.0906	298.15	1111.9	6.91
3.0536	0.0906	308.15	1106.87	6.87
3.0536	0.1778	298.15	1115.74	6.96
3.0536	0.1778	308.15	1110.69	6.92
3.0536	0.2697	298.15	1119.69	7.01
3.0536	0.2697	308.15	1114.64	6.97
3.0536	0.3648	298.15	1123.68	7.06
3.0536	0.3648	308.15	1118.61	7.02
3.0536	0.4527	298.15	1127.28	7.1
3.0536	0.4527	308.15	1122.2	7.06
