Measured thermophysical data. Thermodynamic investigation of silver-thallium tellurides by EMF method with solid electrolyte Ag4RbI5
Source: J. Chem. Thermodyn., 2019, 10.1016/j.jct.2018.08.012
Compound 1: thallium telluride (Tl2Te), TeTl2, InChI=1S/Te.2Tl/q-2;2*+1, purity 99.9%
Compound 2: silver(I) telluride, Ag2Te, InChI=1S/2Ag.Te/q2*+1;-2, purity 99.9%
Compound 3: rubidium silver iodide (Ag4RbI5), Ag4I5Rb, InChI=1S/4Ag.5HI.Rb/h;;;;5*1H;/q4*+1;;;;;;+1/p-5, purity 99.9%

System: thallium telluride (Tl2Te); phases: Crystal, Liquid, Air at 1 atmosphere
Property: Normal melting temperature, K (Crystal); method: DTA
Normal melting temperature, K	uncertainty
698	4

System: thallium telluride (Tl2Te); phases: Crystal
Property: Mass density, kg/m3 (Crystal); method: X-ray diffraction
Temperature, K	Pressure, kPa	Mass density, kg/m3	uncertainty
298	101.325	9085	2

System: silver(I) telluride; phases: Crystal 1, Liquid, Air at 1 atmosphere
Property: Normal melting temperature, K (Crystal 1); method: DTA
Normal melting temperature, K	uncertainty
1235	4

System: silver(I) telluride; phases: Crystal 2, Crystal 1, Air at 1 atmosphere
Property: Triple point temperature, K (Crystal 2); method: DSC
Triple point temperature, K	uncertainty
1075	4

System: silver(I) telluride; phases: Crystal 3, Crystal 2, Air at 1 atmosphere
Property: Triple point temperature, K (Crystal 3); method: DSC
Triple point temperature, K	uncertainty
418	4

System: silver(I) telluride; phases: Crystal 3
Property: Mass density, kg/m3 (Crystal 3); method: X-ray diffraction
Temperature, K	Pressure, kPa	Mass density, kg/m3	uncertainty
298	101.325	8321	2

System: rubidium silver iodide (Ag4RbI5); phases: Crystal
Property: Mass density, kg/m3 (Crystal); method: X-ray diffraction
Temperature, K	Pressure, kPa	Mass density, kg/m3	uncertainty
298	101.325	5389	2
