Measured thermophysical data. Phase diagrams of ionic liquids-based aqueous biphasic systems as a platform for extraction processes
Source: J. Chem. Thermodyn., 2014, 10.1016/j.jct.2013.10.024
Compound 1: tetraethylammonium chloride, C8H20ClN, InChI=1S/C8H20N.ClH/c1-5-9(6-2,7-3)8-4;/h5-8H2,1-4H3;1H/q+1;/p-1, purity 98%
Compound 2: tetrapropylammonium chloride, C12H28ClN, InChI=1S/C12H28N.ClH/c1-5-9-13(10-6-2,11-7-3)12-8-4;/h5-12H2,1-4H3;1H/q+1;/p-1, purity 98%
Compound 3: tetrapropylammonium bromide, C12H28BrN, InChI=1S/C12H28N.BrH/c1-5-9-13(10-6-2,11-7-3)12-8-4;/h5-12H2,1-4H3;1H/q+1;/p-1, purity 98%
Compound 4: tetrabutylammonium chloride, C16H36ClN, InChI=1S/C16H36N.ClH/c1-5-9-13-17(14-10-6-2,15-11-7-3)16-12-8-4;/h5-16H2,1-4H3;1H/q+1;/p-1, purity 97%
Compound 5: tetrabutylammonium bromide, C16H36BrN, InChI=1S/C16H36N.BrH/c1-5-9-13-17(14-10-6-2,15-11-7-3)16-12-8-4;/h5-16H2,1-4H3;1H/q+1;/p-1, purity 98%
Compound 6: cholinium salicylate, C12H19NO4, InChI=1S/C7H6O3.C5H14NO/c8-6-4-2-1-3-5(6)7(9)10;1-6(2,3)4-5-7/h1-4,8H,(H,9,10);7H,4-5H2,1-3H3/q;+1/p-1, purity 95%
Compound 7: benzyl(2-hydroxyethyl)dimethylammonium chloride, C11H18ClNO, InChI=1S/C11H18NO.ClH/c1-12(2,8-9-13)10-11-6-4-3-5-7-11;/h3-7,13H,8-10H2,1-2H3;1H/q+1;/p-1, purity 97%
Compound 8: tetrabutylphosphonium chloride, C16H36ClP, InChI=1S/C16H36P.ClH/c1-5-9-13-17(14-10-6-2,15-11-7-3)16-12-8-4;/h5-16H2,1-4H3;1H/q+1;/p-1, purity 96.8%
Compound 9: tetrabutylphosphonium bromide, C16H36BrP, InChI=1S/C16H36P.BrH/c1-5-9-13-17(14-10-6-2,15-11-7-3)16-12-8-4;/h5-16H2,1-4H3;1H/q+1;/p-1, purity 95.2%
Compound 10: tributylmethylphosphonium methyl sulfate, C14H33O4PS, InChI=1S/C13H30P.CH4O4S/c1-5-8-11-14(4,12-9-6-2)13-10-7-3;1-5-6(2,3)4/h5-13H2,1-4H3;1H3,(H,2,3,4)/q+1;/p-1, purity 98.6%
Compound 11: triisobutylmethylphosphonium p-toluenesulfonate, C20H37O3PS, InChI=1S/C13H30P.C7H8O3S/c1-11(2)8-14(7,9-12(3)4)10-13(5)6;1-6-2-4-7(5-3-6)11(8,9)10/h11-13H,8-10H2,1-7H3;2-5H,1H3,(H,8,9,10)/q+1;/p-1, purity 99%
Compound 12: water, H2O, InChI=1S/H2O/h1H2
Compound 13: potassium carbonate, CK2O3, InChI=1S/CH2O3.2K/c2-1(3)4;;/h(H2,2,3,4);;/q;2*+1/p-2, purity 99%

System: potassium carbonate + tetrapropylammonium bromide + water; phases: Liquid mixture 1, Liquid mixture 2
Fixed: Pressure, kPa = 101
Fixed: Temperature, K = 298
Property: Mass fraction of tetrapropylammonium bromide (Liquid mixture 1); method: Titration method
Mass fraction of potassium carbonate	Mass fraction of tetrapropylammonium bromide	uncertainty
0.0245	0.4759	0.019
0.0294	0.4381	0.0175
0.0349	0.4101	0.0164
0.0404	0.3906	0.0156
0.0448	0.372	0.0149
0.0545	0.3378	0.0135
0.0583	0.3261	0.013
0.0602	0.316	0.0126
0.0631	0.3087	0.0123
0.0654	0.3026	0.0121
0.0683	0.2963	0.0119
0.0711	0.2898	0.0116
0.0732	0.284	0.0114
0.0754	0.2782	0.0111
0.0782	0.2725	0.0109
0.0799	0.2662	0.0106
0.0815	0.2613	0.0105
0.0839	0.2578	0.0103
0.0856	0.2534	0.0101
0.0881	0.2482	0.0099
0.09	0.2436	0.0097
0.0914	0.2413	0.0097
0.0936	0.237	0.0095
0.0952	0.233	0.0093
0.0969	0.2291	0.0092
0.0983	0.2265	0.0091
0.1004	0.2237	0.0089
0.1009	0.2204	0.0088
0.1029	0.2175	0.0087
0.1042	0.2137	0.0085
0.106	0.2113	0.0085
0.1073	0.2079	0.0083
0.1094	0.2056	0.0082
0.1097	0.2027	0.0081
0.1115	0.2002	0.008
0.1125	0.1983	0.0079
0.1141	0.1961	0.0078
0.1149	0.1931	0.0077
0.1158	0.1913	0.0077
0.1172	0.1895	0.0076
0.1183	0.1866	0.0075
0.1199	0.1845	0.0074
0.1208	0.1819	0.0073
0.1216	0.1792	0.0072
0.1226	0.1773	0.0071
0.1243	0.1753	0.007
0.1254	0.1727	0.0069
0.1272	0.1708	0.0068
0.1281	0.1681	0.0067
0.1297	0.1661	0.0066
0.1312	0.1645	0.0066
0.1324	0.1621	0.0065
0.1335	0.1601	0.0064
0.1349	0.158	0.0063
0.136	0.1562	0.0062
0.1371	0.1543	0.0062
0.1378	0.1525	0.0061
0.1386	0.1512	0.006
0.1391	0.1493	0.006
0.1403	0.148	0.0059
0.1409	0.1462	0.0058
0.142	0.145	0.0058
0.1428	0.1437	0.0057
0.1433	0.1419	0.0057
0.1445	0.1406	0.0056
0.1459	0.1393	0.0056
0.1464	0.1374	0.0055
0.1475	0.136	0.0054
0.1487	0.1347	0.0054
0.1496	0.1334	0.0053
0.1502	0.1317	0.0053
0.1514	0.1306	0.0052
0.1514	0.1291	0.0052
0.1519	0.1281	0.0051
0.1529	0.1273	0.0051
0.1538	0.1262	0.005
0.1543	0.1248	0.005
0.1554	0.1237	0.0049
0.1558	0.1226	0.0049
0.1561	0.1212	0.0048
0.1571	0.1202	0.0048
0.158	0.1193	0.0048
0.1587	0.1183	0.0047
0.1589	0.1169	0.0047
0.1599	0.1159	0.0046
0.16	0.1148	0.0046
0.1607	0.1139	0.0046
0.1616	0.113	0.0045
0.1624	0.1122	0.0045
0.1633	0.1112	0.0044
0.1632	0.1103	0.0044
0.164	0.1094	0.0044
0.1644	0.1087	0.0043
0.1652	0.1079	0.0043
0.1652	0.1073	0.0043
0.1658	0.1064	0.0043
0.1666	0.1056	0.0042
0.1673	0.1049	0.0042
0.168	0.1041	0.0042
0.1688	0.1032	0.0041
0.169	0.102	0.0041
0.1696	0.1012	0.004
0.1702	0.1004	0.004
0.1707	0.0997	0.004
0.1713	0.099	0.004
0.1717	0.098	0.0039
0.1724	0.0974	0.0039
0.173	0.0968	0.0039
0.1732	0.096	0.0038
0.1738	0.0954	0.0038
0.1744	0.0949	0.0038

System: potassium carbonate + tetrapropylammonium bromide + water; phases: Liquid mixture 1, Liquid mixture 2
Property: Mass fraction of potassium carbonate (Liquid mixture 1); method: gravimetric, from binodal data
Property: Mass fraction of potassium carbonate (Liquid mixture 2); method: gravimetric, from binodal data
Property: Mass fraction of tetrapropylammonium bromide (Liquid mixture 2); method: gravimetric, from binodal data
Temperature, K	Mass fraction of tetrapropylammonium bromide	Pressure, kPa	Mass fraction of potassium carbonate	uncertainty	Mass fraction of potassium carbonate	uncertainty	Mass fraction of tetrapropylammonium bromide	uncertainty
298	0.3969	101	0.0386	0.0053	0.2529	0.0059	0.0226	

System: potassium carbonate + tetrabutylammonium bromide + water; phases: Liquid mixture 1, Liquid mixture 2
Fixed: Pressure, kPa = 101
Fixed: Temperature, K = 298
Property: Mass fraction of tetrabutylammonium bromide (Liquid mixture 1); method: Titration method
Mass fraction of potassium carbonate	Mass fraction of tetrabutylammonium bromide	uncertainty
0.0181	0.5748	0.017
0.0236	0.5228	0.0191
0.035	0.428	0.0171
0.0463	0.3467	0.0139
0.0505	0.329	0.0132
0.061	0.2903	0.0116
0.0642	0.2751	0.011
0.068	0.2648	0.0106
0.0714	0.2522	0.0101
0.0752	0.2414	0.0097
0.0783	0.2307	0.0092
0.0807	0.2226	0.0089
0.0827	0.2144	0.0086
0.0849	0.2085	0.0083
0.0871	0.2026	0.0081
0.0897	0.1971	0.0079
0.0917	0.1918	0.0077
0.0953	0.186	0.0074
0.0961	0.1788	0.0072
0.0994	0.1738	0.007
0.1011	0.168	0.0067
0.1029	0.164	0.0066
0.1044	0.16	0.0064
0.1071	0.1559	0.0062
0.108	0.1512	0.006
0.1094	0.1478	0.0059
0.1106	0.1447	0.0058
0.111	0.1413	0.0057
0.113	0.1383	0.0055
0.1141	0.1357	0.0054
0.1167	0.1328	0.0053
0.117	0.1293	0.0052
0.1177	0.1268	0.0051
0.1191	0.1243	0.005
0.1208	0.1221	0.0049
0.1213	0.1192	0.0048
0.1224	0.1169	0.0047
0.1233	0.1148	0.0046
0.1251	0.1128	0.0045
0.1254	0.1106	0.0044
0.1265	0.1087	0.0043
0.1276	0.1068	0.0043
0.1291	0.1052	0.0042
0.1294	0.1037	0.0041
0.1305	0.1019	0.0041
0.1317	0.1004	0.004
0.1328	0.0988	0.004
0.1333	0.0967	0.0039
0.1343	0.0953	0.0038
0.1355	0.0939	0.0038
0.1362	0.092	0.0037
0.1365	0.0907	0.0036
0.137	0.0894	0.0036
0.1378	0.0882	0.0035
0.1387	0.0871	0.0035
0.1394	0.0859	0.0034
0.1403	0.0847	0.0034
0.1412	0.0836	0.0033
0.1416	0.0822	0.0033
0.1426	0.0811	0.0032
0.143	0.08	0.0032
0.1438	0.0791	0.0032
0.1441	0.0782	0.0031
0.145	0.0773	0.0031
0.1453	0.0766	0.0031
0.1459	0.0757	0.003
0.146	0.0749	0.003
0.147	0.0743	0.003
0.1475	0.0734	0.0029
0.1482	0.0725	0.0029

System: potassium carbonate + tetrabutylammonium bromide + water; phases: Liquid mixture 1, Liquid mixture 2
Fixed: Temperature, K = 298
Fixed: Pressure, kPa = 101
Property: Mass fraction of potassium carbonate (Liquid mixture 1); method: gravimetric, from binodal data
Property: Mass fraction of tetrabutylammonium bromide (Liquid mixture 2); method: gravimetric, from binodal data
Property: Mass fraction of potassium carbonate (Liquid mixture 2); method: gravimetric, from binodal data
Mass fraction of tetrabutylammonium bromide	Mass fraction of potassium carbonate	uncertainty	Mass fraction of tetrabutylammonium bromide	uncertainty	Mass fraction of potassium carbonate	uncertainty
0.4681	0.029	0.0132	0.0323	0.0063	0.1826	
0.6162	0.0151	0.0132	0.0097	0.0062	0.2217	

System: tetraethylammonium chloride + potassium carbonate + water; phases: Liquid mixture 1, Liquid mixture 2
Fixed: Pressure, kPa = 101
Fixed: Temperature, K = 298
Property: Mass fraction of tetraethylammonium chloride (Liquid mixture 1); method: Titration method
Mass fraction of potassium carbonate	Mass fraction of tetraethylammonium chloride	uncertainty
0.0149	0.5759	0.017
0.0285	0.5149	0.0194
0.042	0.4352	0.0174
0.0535	0.3972	0.0159
0.0636	0.3644	0.0146
0.0733	0.3421	0.0137
0.0822	0.3289	0.0132
0.089	0.3119	0.0125
0.0967	0.3	0.012
0.1023	0.286	0.0114
0.1092	0.2767	0.0111
0.1152	0.2679	0.0107
0.1201	0.26	0.0104
0.1259	0.2519	0.0101
0.13	0.2419	0.0097
0.1362	0.2339	0.0094
0.1417	0.2281	0.0091
0.1458	0.2222	0.0089
0.1494	0.2169	0.0087
0.1534	0.2115	0.0085
0.1574	0.2062	0.0082
0.1611	0.2014	0.0081
0.1645	0.1966	0.0079
0.1678	0.192	0.0077
0.1711	0.1875	0.0075
0.1784	0.1808	0.0072
0.1814	0.1768	0.0071
0.1837	0.1731	0.0069
0.186	0.1696	0.0068
0.1923	0.1639	0.0066
0.1944	0.1614	0.0065
0.1964	0.1582	0.0063
0.2017	0.1535	0.0061
0.2036	0.1507	0.006
0.2056	0.1481	0.0059
0.2074	0.1455	0.0058
0.209	0.143	0.0057
0.2135	0.1391	0.0056
0.2151	0.1368	0.0055
0.2167	0.1344	0.0054
0.2204	0.1309	0.0052
0.2218	0.1288	0.0052
0.223	0.1268	0.0051
0.2266	0.1238	0.005
0.2278	0.1218	0.0049
0.2291	0.12	0.0048
0.2325	0.1174	0.0047
0.2336	0.1158	0.0046
0.2347	0.1141	0.0046
0.238	0.1116	0.0045
0.239	0.1101	0.0044
0.2398	0.1086	0.0043
0.2429	0.1063	0.0043
0.2437	0.105	0.0042
0.2445	0.1036	0.0041
0.247	0.1016	0.0041
0.2492	0.0997	0.004
0.25	0.0985	0.0039
0.2522	0.0967	0.0039
0.2527	0.0956	0.0038
0.2548	0.0939	0.0038
0.2568	0.0923	0.0037
0.2574	0.0913	0.0037
0.2594	0.0897	0.0036
0.2601	0.0888	0.0036
0.262	0.0873	0.0035
0.2623	0.0864	0.0035
0.2641	0.0849	0.0034
0.2659	0.0836	0.0033
0.2662	0.0828	0.0033
0.2681	0.0814	0.0033
0.2684	0.0806	0.0032
0.2715	0.0789	0.0032
0.2731	0.0777	0.0031
0.2734	0.077	0.0031
0.2749	0.0758	0.003

System: tetraethylammonium chloride + potassium carbonate + water; phases: Liquid mixture 1, Liquid mixture 2
Fixed: Temperature, K = 298
Fixed: Pressure, kPa = 101
Property: Mass fraction of potassium carbonate (Liquid mixture 1); method: gravimetric, from binodal data
Property: Mass fraction of tetraethylammonium chloride (Liquid mixture 2); method: gravimetric, from binodal data
Property: Mass fraction of potassium carbonate (Liquid mixture 2); method: gravimetric, from binodal data
Mass fraction of tetraethylammonium chloride	Mass fraction of potassium carbonate	uncertainty	Mass fraction of tetraethylammonium chloride	uncertainty	Mass fraction of potassium carbonate	uncertainty
0.5762	0.0153	0.013	0.0003	0.0002	0.5508	
0.5703	0.0161	0.013	0.0006	0.0002	0.5307	

System: potassium carbonate + tetrabutylammonium chloride + water; phases: Liquid mixture 1, Liquid mixture 2
Fixed: Pressure, kPa = 101
Fixed: Temperature, K = 298
Property: Mass fraction of tetrabutylammonium chloride (Liquid mixture 1); method: Titration method
Mass fraction of potassium carbonate	Mass fraction of tetrabutylammonium chloride	uncertainty
0.0433	0.3857	0.0154
0.0497	0.3562	0.0142
0.0544	0.3296	0.0132
0.0607	0.3113	0.0125
0.0688	0.289	0.0116
0.0735	0.2752	0.011
0.0776	0.2615	0.0105
0.0827	0.2519	0.0101
0.0867	0.2396	0.0096
0.0907	0.2313	0.0093
0.094	0.2216	0.0089
0.0985	0.2145	0.0086
0.1012	0.2055	0.0082
0.1051	0.1996	0.008
0.1073	0.1932	0.0077
0.1093	0.1886	0.0075
0.1121	0.1833	0.0073
0.1148	0.1791	0.0072
0.1165	0.1741	0.007
0.1193	0.1711	0.0068
0.1217	0.167	0.0067
0.1231	0.1628	0.0065
0.1248	0.1593	0.0064
0.1273	0.1566	0.0063
0.1283	0.1527	0.0061
0.1311	0.1501	0.006
0.1307	0.1481	0.0059
0.1315	0.1459	0.0058
0.1329	0.1442	0.0058
0.1347	0.1424	0.0057
0.1357	0.1401	0.0056
0.1372	0.1384	0.0055
0.1387	0.136	0.0054
0.1404	0.1334	0.0053
0.1419	0.1308	0.0052
0.1432	0.1285	0.0051
0.1441	0.1265	0.0051
0.1455	0.1243	0.005
0.1471	0.1222	0.0049
0.1469	0.1206	0.0048
0.1475	0.1197	0.0048
0.1481	0.1186	0.0047
0.1491	0.1175	0.0047
0.1494	0.1165	0.0047
0.1504	0.1155	0.0046
0.1508	0.1145	0.0046
0.1516	0.1136	0.0045
0.1529	0.1125	0.0045
0.1536	0.1108	0.0044
0.1543	0.1098	0.0044
0.1557	0.1087	0.0043
0.156	0.1075	0.0043
0.1565	0.1064	0.0043
0.1565	0.1054	0.0042
0.1577	0.1046	0.0042
0.1591	0.1034	0.0041
0.1598	0.1019	0.0041
0.161	0.1005	0.004
0.1605	0.0995	0.004
0.161	0.0989	0.004
0.1618	0.098	0.0039
0.1621	0.0973	0.0039
0.1633	0.0965	0.0039
0.1644	0.0955	0.0038
0.1642	0.0946	0.0038
0.1652	0.0937	0.0037
0.1663	0.0929	0.0037
0.1667	0.0916	0.0037
0.1679	0.0907	0.0036
0.1679	0.0896	0.0036
0.1692	0.0887	0.0035
0.1694	0.0876	0.0035
0.1707	0.0867	0.0035
0.1712	0.0855	0.0034
0.1721	0.0846	0.0034
0.173	0.0836	0.0033
0.1735	0.0824	0.0033
0.174	0.0815	0.0033
0.1749	0.0808	0.0032
0.1754	0.0799	0.0032
0.1761	0.079	0.0032
0.1763	0.078	0.0031
0.1773	0.0774	0.0031
0.1778	0.0765	0.0031
0.1782	0.0755	0.003
0.1793	0.0749	0.003
0.1794	0.0741	0.003
0.1795	0.0733	0.0029
0.18	0.0728	0.0029
0.1805	0.0723	0.0029
0.1811	0.0717	0.0029
0.1818	0.0711	0.0028
0.1824	0.0704	0.0028
0.1828	0.0696	0.0028
0.1834	0.0691	0.0028
0.1836	0.0683	0.0027
0.1845	0.0678	0.0027
0.1847	0.0673	0.0027
0.1852	0.0668	0.0027
0.1855	0.0662	0.0026
0.1859	0.0657	0.0026
0.1859	0.0654	0.0026
0.1865	0.065	0.0026
0.1869	0.0646	0.0026
0.187	0.0641	0.0026
0.1878	0.0636	0.0025
0.1877	0.0632	0.0025
0.188	0.0628	0.0025
0.1884	0.0624	0.0025
0.1884	0.0621	0.0025
0.1893	0.0616	0.0025
0.1894	0.0611	0.0024
0.1894	0.0608	0.0024
0.1902	0.0604	0.0024
0.1902	0.06	0.0024
0.1906	0.0595	0.0024
0.191	0.0592	0.0024
0.1915	0.0588	0.0024
0.1919	0.0585	0.0023
0.1919	0.058	0.0023
0.1923	0.0577	0.0023
0.1936	0.0571	0.0023
0.1938	0.0566	0.0023
0.1941	0.0563	0.0023
0.1947	0.0559	0.0022
0.1949	0.0554	0.0022

System: potassium carbonate + tetrabutylammonium chloride + water; phases: Liquid mixture 1, Liquid mixture 2
Fixed: Temperature, K = 298
Fixed: Pressure, kPa = 101
Property: Mass fraction of potassium carbonate (Liquid mixture 1); method: gravimetric, from binodal data
Property: Mass fraction of tetrabutylammonium chloride (Liquid mixture 2); method: gravimetric, from binodal data
Property: Mass fraction of potassium carbonate (Liquid mixture 2); method: gravimetric, from binodal data
Mass fraction of tetrabutylammonium chloride	Mass fraction of potassium carbonate	uncertainty	Mass fraction of tetrabutylammonium chloride	uncertainty	Mass fraction of potassium carbonate	uncertainty
0.5546	0.0155	0.013	0.0085	0.0085	0.2728	
0.4568	0.0281	0.013	0.0232	0.0086	0.2363	

System: potassium carbonate + water + tributylmethylphosphonium methyl sulfate; phases: Liquid mixture 1, Liquid mixture 2
Fixed: Pressure, kPa = 101
Fixed: Temperature, K = 298
Property: Mass fraction of tributylmethylphosphonium methyl sulfate (Liquid mixture 1); method: Titration method
Mass fraction of potassium carbonate	Mass fraction of tributylmethylphosphonium methyl sulfate	uncertainty
0.0177	0.5726	0.0171
0.098	0.2101	0.0084
0.1018	0.2021	0.0081
0.1055	0.1946	0.0078
0.1081	0.1861	0.0074
0.1104	0.1784	0.0071
0.1135	0.1729	0.0069
0.1155	0.1661	0.0066
0.1174	0.1598	0.0064
0.1204	0.1553	0.0062
0.1217	0.1498	0.006
0.1232	0.1447	0.0058
0.1251	0.1411	0.0056
0.1266	0.1367	0.0055
0.1294	0.133	0.0053
0.1307	0.1293	0.0052
0.1323	0.1264	0.0051
0.1331	0.1228	0.0049
0.1346	0.1201	0.0048
0.136	0.1175	0.0047
0.1365	0.1144	0.0046
0.138	0.1121	0.0045
0.1394	0.1098	0.0044
0.1402	0.1071	0.0043
0.1407	0.1045	0.0042
0.1421	0.1026	0.0041
0.1429	0.1005	0.004
0.1432	0.099	0.004
0.1443	0.0972	0.0039
0.1449	0.0957	0.0038
0.1449	0.0943	0.0038
0.1466	0.0932	0.0037
0.1476	0.0917	0.0037
0.1487	0.0902	0.0036
0.1488	0.0885	0.0035
0.1496	0.0872	0.0035
0.1507	0.0859	0.0034
0.1516	0.0847	0.0034
0.1525	0.0834	0.0033
0.1533	0.0821	0.0033
0.1542	0.0809	0.0032
0.1543	0.0794	0.0032
0.1554	0.0783	0.0031
0.1561	0.0772	0.0031
0.1568	0.0761	0.003
0.1575	0.0751	0.003
0.1582	0.0741	0.003
0.1588	0.0731	0.0029
0.1594	0.0722	0.0029
0.1601	0.0712	0.0028
0.161	0.0704	0.0028
0.1612	0.0693	0.0028
0.1619	0.0685	0.0027
0.1625	0.0677	0.0027
0.1633	0.0669	0.0027
0.1639	0.0661	0.0026
0.1641	0.0652	0.0026
0.1648	0.0645	0.0026
0.1651	0.0637	0.0025
0.1659	0.0629	0.0025
0.1665	0.0622	0.0025
0.1669	0.0615	0.0025
0.1675	0.0608	0.0024
0.1686	0.0603	0.0024
0.1692	0.0596	0.0024
0.1694	0.0588	0.0024
0.17	0.0583	0.0023

System: potassium carbonate + water + tributylmethylphosphonium methyl sulfate; phases: Liquid mixture 2, Liquid mixture 1
Fixed: Temperature, K = 298
Fixed: Pressure, kPa = 101
Property: Mass fraction of potassium carbonate (Liquid mixture 2); method: gravimetric, from binodal data
Property: Mass fraction of potassium carbonate (Liquid mixture 1); method: gravimetric, from binodal data
Property: Mass fraction of tributylmethylphosphonium methyl sulfate (Liquid mixture 1); method: gravimetric, from binodal data
Mass fraction of tributylmethylphosphonium methyl sulfate	Mass fraction of potassium carbonate	uncertainty	Mass fraction of potassium carbonate	uncertainty	Mass fraction of tributylmethylphosphonium methyl sulfate	uncertainty
0.0306	0.192	0.0045	0.024	0.0084	0.52	
0.0595	0.1675	0.0039	0.0314	0.0084	0.4704	

System: potassium carbonate + water + triisobutylmethylphosphonium p-toluenesulfonate; phases: Liquid mixture 1, Liquid mixture 2
Fixed: Pressure, kPa = 101
Fixed: Temperature, K = 298
Property: Mass fraction of triisobutylmethylphosphonium p-toluenesulfonate (Liquid mixture 1); method: Titration method
Mass fraction of potassium carbonate	Mass fraction of triisobutylmethylphosphonium p-toluenesulfonate	uncertainty
0.0329	0.5554	0.0178
0.0457	0.4606	0.0184
0.0557	0.4082	0.0163
0.0627	0.3525	0.0141
0.0679	0.3142	0.0126
0.0731	0.2869	0.0115
0.0777	0.2612	0.0104
0.0802	0.2393	0.0096
0.0837	0.2222	0.0089
0.0874	0.2086	0.0083
0.0898	0.195	0.0078
0.0924	0.1825	0.0073
0.0944	0.1727	0.0069
0.0964	0.1643	0.0066
0.098	0.1565	0.0063
0.0988	0.1491	0.006
0.1002	0.1434	0.0057
0.1014	0.1376	0.0055
0.1027	0.1324	0.0053
0.1041	0.1276	0.0051
0.1048	0.1232	0.0049
0.1061	0.1192	0.0048
0.1063	0.1158	0.0046
0.1074	0.1123	0.0045
0.108	0.109	0.0044
0.1092	0.1056	0.0042
0.1104	0.1028	0.0041
0.1116	0.1001	0.004
0.112	0.0969	0.0039
0.1129	0.0943	0.0038
0.1133	0.0916	0.0037
0.1139	0.0896	0.0036
0.1148	0.0875	0.0035
0.1154	0.0854	0.0034
0.1156	0.0835	0.0033
0.1163	0.0824	0.0033
0.117	0.0809	0.0032
0.1173	0.0791	0.0032
0.1179	0.0775	0.0031
0.1183	0.0759	0.003
0.1189	0.0744	0.003
0.1194	0.0729	0.0029
0.12	0.0717	0.0029
0.1201	0.0703	0.0028
0.12	0.0691	0.0028
0.1209	0.0682	0.0027
0.1215	0.0672	0.0027
0.1222	0.0662	0.0026
0.1224	0.0651	0.0026
0.1227	0.064	0.0026
0.1232	0.0631	0.0025
0.1238	0.0622	0.0025
0.1243	0.0614	0.0025
0.1249	0.0605	0.0024
0.1248	0.0596	0.0024

System: potassium carbonate + water + triisobutylmethylphosphonium p-toluenesulfonate; phases: Liquid mixture 1, Liquid mixture 2
Property: Mass fraction of potassium carbonate (Liquid mixture 1); method: gravimetric, from binodal data
Property: Mass fraction of potassium carbonate (Liquid mixture 2); method: gravimetric, from binodal data
Property: Mass fraction of triisobutylmethylphosphonium p-toluenesulfonate (Liquid mixture 2); method: gravimetric, from binodal data
Temperature, K	Mass fraction of triisobutylmethylphosphonium p-toluenesulfonate	Pressure, kPa	Mass fraction of potassium carbonate	uncertainty	Mass fraction of potassium carbonate	uncertainty	Mass fraction of triisobutylmethylphosphonium p-toluenesulfonate	uncertainty
298	0.5527	101	0.0335	0.006	0.15	0.0035	0.0162	

System: potassium carbonate + tetrabutylphosphonium chloride + water; phases: Liquid mixture 1, Liquid mixture 2
Fixed: Pressure, kPa = 101
Fixed: Temperature, K = 298
Property: Mass fraction of tetrabutylphosphonium chloride (Liquid mixture 1); method: Titration method
Mass fraction of potassium carbonate	Mass fraction of tetrabutylphosphonium chloride	uncertainty
0.0169	0.579	0.0168
0.0315	0.4708	0.0188
0.0404	0.42	0.0168
0.0484	0.3745	0.015
0.0559	0.3413	0.0137
0.0621	0.3144	0.0126
0.0681	0.2923	0.0117
0.0747	0.2755	0.011
0.0796	0.2602	0.0104
0.0848	0.247	0.0099
0.0861	0.2361	0.0094
0.0907	0.2276	0.0091
0.0959	0.2188	0.0088
0.0982	0.2098	0.0084
0.1023	0.2026	0.0081
0.1052	0.1945	0.0078
0.1073	0.1872	0.0075
0.1104	0.1817	0.0073
0.1126	0.1753	0.007
0.1155	0.1704	0.0068
0.1165	0.1646	0.0066
0.1187	0.1602	0.0064
0.1208	0.156	0.0062
0.123	0.1522	0.0061
0.1251	0.1481	0.0059
0.1271	0.1446	0.0058
0.1288	0.1413	0.0057
0.1305	0.1379	0.0055
0.1325	0.1345	0.0054
0.1342	0.1313	0.0053
0.1357	0.1283	0.0051
0.1371	0.1256	0.005
0.1387	0.1229	0.0049
0.1402	0.1204	0.0048
0.1413	0.1179	0.0047
0.1425	0.1156	0.0046
0.1437	0.1133	0.0045
0.1445	0.1112	0.0044
0.1457	0.1094	0.0044
0.1469	0.1075	0.0043
0.148	0.1057	0.0042
0.1486	0.1041	0.0042
0.15	0.1029	0.0041
0.1508	0.1013	0.0041
0.1519	0.0996	0.004
0.152	0.0982	0.0039
0.1533	0.0971	0.0039
0.1533	0.0956	0.0038
0.155	0.0946	0.0038
0.1558	0.0933	0.0037
0.1565	0.0918	0.0037
0.157	0.0907	0.0036
0.1575	0.0895	0.0036
0.1589	0.0885	0.0035
0.1594	0.0873	0.0035
0.1601	0.086	0.0034
0.1609	0.0848	0.0034
0.1617	0.084	0.0034
0.1621	0.0828	0.0033
0.1621	0.082	0.0033
0.1634	0.0812	0.0032
0.1636	0.0803	0.0032
0.1647	0.0795	0.0032
0.1647	0.0785	0.0031
0.1652	0.0779	0.0031
0.1664	0.0773	0.0031
0.167	0.0764	0.0031
0.1675	0.0754	0.003
0.1674	0.0746	0.003
0.1685	0.074	0.003
0.169	0.0731	0.0029
0.1687	0.0724	0.0029
0.1698	0.0717	0.0029
0.1703	0.0712	0.0028
0.1702	0.0705	0.0028
0.1705	0.0701	0.0028
0.1709	0.0696	0.0028
0.1719	0.069	0.0028
0.1721	0.0683	0.0027
0.173	0.0678	0.0027
0.1735	0.067	0.0027
0.174	0.0663	0.0027
0.1743	0.0655	0.0026
0.1746	0.0648	0.0026
0.1755	0.0643	0.0026
0.1759	0.0636	0.0025
0.1761	0.0629	0.0025
0.1762	0.0624	0.0025
0.177	0.0619	0.0025
0.1775	0.0613	0.0025
0.1778	0.0607	0.0024
0.1782	0.0601	0.0024
0.1788	0.0597	0.0024
0.1791	0.0591	0.0024
0.1793	0.0587	0.0023
0.1794	0.0584	0.0023
0.1801	0.058	0.0023
0.1803	0.0575	0.0023

System: potassium carbonate + tetrabutylphosphonium chloride + water; phases: Liquid mixture 2, Liquid mixture 1
Property: Mass fraction of potassium carbonate (Liquid mixture 2); method: gravimetric, from binodal data
Property: Mass fraction of potassium carbonate (Liquid mixture 1); method: gravimetric, from binodal data
Property: Mass fraction of tetrabutylphosphonium chloride (Liquid mixture 1); method: gravimetric, from binodal data
Temperature, K	Mass fraction of tetrabutylphosphonium chloride	Pressure, kPa	Mass fraction of potassium carbonate	uncertainty	Mass fraction of potassium carbonate	uncertainty	Mass fraction of tetrabutylphosphonium chloride	uncertainty
298	0.0463	101	0.1911	0.0044	0.0546	0.0038	0.3472	

System: potassium carbonate + tetrabutylphosphonium bromide + water; phases: Liquid mixture 1, Liquid mixture 2
Fixed: Pressure, kPa = 101
Fixed: Temperature, K = 298
Property: Mass fraction of tetrabutylphosphonium bromide (Liquid mixture 1); method: Titration method
Mass fraction of potassium carbonate	Mass fraction of tetrabutylphosphonium bromide	uncertainty
0.0434	0.3753	0.015
0.0559	0.315	0.0126
0.0627	0.2787	0.0111
0.0694	0.2478	0.0099
0.0746	0.2239	0.009
0.0787	0.2051	0.0082
0.0832	0.1888	0.0076
0.0862	0.1748	0.007
0.0888	0.1654	0.0066
0.0929	0.1569	0.0063
0.0945	0.1473	0.0059
0.0974	0.1403	0.0056
0.1002	0.1339	0.0054
0.101	0.1274	0.0051
0.1039	0.1225	0.0049
0.106	0.1177	0.0047
0.108	0.1132	0.0045
0.111	0.1052	0.0042
0.1127	0.1017	0.0041
0.1145	0.0983	0.0039
0.1159	0.095	0.0038
0.1172	0.0921	0.0037
0.1185	0.09	0.0036
0.1203	0.0881	0.0035
0.1212	0.0857	0.0034
0.1231	0.0838	0.0034
0.1242	0.0815	0.0033
0.1251	0.0794	0.0032
0.1268	0.0778	0.0031
0.1283	0.0762	0.003
0.1288	0.0743	0.003
0.13	0.0729	0.0029
0.1309	0.0711	0.0028
0.1322	0.0698	0.0028
0.1334	0.0684	0.0027
0.1339	0.0667	0.0027
0.1349	0.0656	0.0026
0.1363	0.0645	0.0026
0.1367	0.0631	0.0025
0.138	0.062	0.0025
0.1394	0.0609	0.0024
0.1398	0.0596	0.0024
0.1408	0.0586	0.0023
0.1418	0.0576	0.0023
0.1428	0.0568	0.0023

System: potassium carbonate + tetrabutylphosphonium bromide + water; phases: Liquid mixture 1, Liquid mixture 2
Property: Mass fraction of potassium carbonate (Liquid mixture 1); method: gravimetric, from binodal data
Property: Mass fraction of potassium carbonate (Liquid mixture 2); method: gravimetric, from binodal data
Property: Mass fraction of tetrabutylphosphonium bromide (Liquid mixture 2); method: gravimetric, from binodal data
Temperature, K	Mass fraction of tetrabutylphosphonium bromide	Pressure, kPa	Mass fraction of potassium carbonate	uncertainty	Mass fraction of potassium carbonate	uncertainty	Mass fraction of tetrabutylphosphonium bromide	uncertainty
298	0.4062	101	0.0409	0.0049	0.1084	0.0029	0.1152	

System: potassium carbonate + cholinium salicylate + water; phases: Liquid mixture 1, Liquid mixture 2
Fixed: Pressure, kPa = 101
Fixed: Temperature, K = 298
Property: Mass fraction of cholinium salicylate (Liquid mixture 1); method: Titration method
Mass fraction of potassium carbonate	Mass fraction of cholinium salicylate	uncertainty
0.0468	0.7044	0.0118
0.0635	0.6132	0.0155
0.0774	0.5573	0.0177
0.0845	0.5095	0.0196
0.0932	0.4862	0.0194
0.1001	0.4565	0.0183
0.1082	0.437	0.0175
0.114	0.4143	0.0166
0.1194	0.3994	0.016
0.126	0.3839	0.0154
0.1301	0.3743	0.015
0.1347	0.3636	0.0145
0.1452	0.3475	0.0139
0.1481	0.3321	0.0133
0.1513	0.3271	0.0131
0.155	0.318	0.0127
0.1584	0.3092	0.0124
0.1667	0.2959	0.0118
0.1695	0.2894	0.0116
0.1727	0.2822	0.0113
0.1758	0.2752	0.011
0.178	0.2698	0.0108
0.1801	0.2641	0.0106
0.1862	0.2556	0.0102
0.188	0.2497	0.01
0.1898	0.2451	0.0098
0.1925	0.2409	0.0096
0.1936	0.2365	0.0095
0.198	0.2298	0.0092
0.2	0.2254	0.009
0.2022	0.2208	0.0088
0.2046	0.2165	0.0087
0.2059	0.213	0.0085
0.2101	0.2072	0.0083
0.2108	0.203	0.0081
0.2123	0.1999	0.008
0.2136	0.197	0.0079
0.2146	0.194	0.0078
0.218	0.1898	0.0076
0.2194	0.1872	0.0075
0.2207	0.1841	0.0074
0.222	0.1813	0.0073
0.2233	0.1786	0.0071
0.2247	0.1759	0.007
0.2278	0.1723	0.0069
0.2287	0.17	0.0068
0.2293	0.1675	0.0067
0.2299	0.1652	0.0066
0.2321	0.1621	0.0065
0.2326	0.16	0.0064
0.2333	0.158	0.0063
0.2357	0.1548	0.0062
0.2368	0.1529	0.0061
0.2375	0.1515	0.0061
0.2382	0.1497	0.006
0.2389	0.1478	0.0059
0.2405	0.1458	0.0058
0.2411	0.1443	0.0058
0.2428	0.1422	0.0057
0.2434	0.1407	0.0056
0.245	0.1385	0.0055
0.2452	0.1372	0.0055
0.2469	0.1349	0.0054
0.2474	0.1335	0.0053
0.2482	0.132	0.0053
0.2497	0.1301	0.0052
0.2514	0.1277	0.0051
0.2518	0.1265	0.0051
0.2522	0.1251	0.005
0.2533	0.124	0.005
0.2537	0.1227	0.0049
0.2543	0.1217	0.0049
0.2556	0.1202	0.0048
0.256	0.1191	0.0048
0.2564	0.1179	0.0047
0.2578	0.1161	0.0046
0.258	0.1149	0.0046
0.2585	0.1139	0.0046
0.26	0.1125	0.0045
0.2601	0.1113	0.0045
0.2607	0.1104	0.0044
0.2619	0.1089	0.0044

System: potassium carbonate + cholinium salicylate + water; phases: Liquid mixture 2, Liquid mixture 1
Fixed: Temperature, K = 298
Fixed: Pressure, kPa = 101
Property: Mass fraction of potassium carbonate (Liquid mixture 2); method: gravimetric, from binodal data
Property: Mass fraction of potassium carbonate (Liquid mixture 1); method: gravimetric, from binodal data
Property: Mass fraction of cholinium salicylate (Liquid mixture 1); method: gravimetric, from binodal data
Mass fraction of cholinium salicylate	Mass fraction of potassium carbonate	uncertainty	Mass fraction of potassium carbonate	uncertainty	Mass fraction of cholinium salicylate	uncertainty
0.0346	0.3425	0.008	0.0444	0.0047	0.7074	
0.0486	0.3226	0.0075	0.0735	0.0049	0.5642	

System: potassium carbonate + benzyl(2-hydroxyethyl)dimethylammonium chloride + water; phases: Liquid mixture 1, Liquid mixture 2
Fixed: Pressure, kPa = 101
Fixed: Temperature, K = 298
Property: Mass fraction of benzyl(2-hydroxyethyl)dimethylammonium chloride (Liquid mixture 1); method: Titration method
Mass fraction of potassium carbonate	Mass fraction of benzyl(2-hydroxyethyl)dimethylammonium chloride	uncertainty
0.0352	0.7005	0.012
0.0504	0.5663	0.0173
0.0613	0.5085	0.0197
0.0719	0.4704	0.0188
0.0828	0.4425	0.0177
0.0912	0.418	0.0167
0.0994	0.3959	0.0158
0.1066	0.3741	0.015
0.1135	0.3602	0.0144
0.1212	0.3474	0.0139
0.1276	0.3325	0.0133
0.1336	0.3227	0.0129
0.1371	0.3074	0.0123
0.1422	0.2991	0.012
0.1467	0.2907	0.0116
0.1509	0.2823	0.0113
0.156	0.274	0.011
0.1605	0.2665	0.0107
0.164	0.2585	0.0103
0.1709	0.2461	0.0098
0.1735	0.239	0.0096
0.1773	0.2336	0.0093
0.1814	0.2272	0.0091
0.1839	0.2202	0.0088
0.1893	0.2122	0.0085
0.1921	0.2057	0.0082
0.1957	0.2	0.008
0.1985	0.1954	0.0078
0.2023	0.1897	0.0076
0.2039	0.1846	0.0074
0.2077	0.1796	0.0072
0.2117	0.1739	0.007
0.2154	0.1681	0.0067
0.2171	0.1638	0.0066
0.2209	0.1591	0.0064
0.2216	0.1563	0.0063
0.2227	0.1545	0.0062
0.2246	0.1522	0.0061
0.2262	0.1499	0.006
0.2299	0.1457	0.0058
0.2293	0.1427	0.0057
0.2299	0.1409	0.0056
0.2313	0.1391	0.0056
0.2337	0.1369	0.0055
0.2358	0.1343	0.0054
0.237	0.1324	0.0053
0.2385	0.1308	0.0052
0.2403	0.1284	0.0051
0.2428	0.1256	0.005
0.2436	0.1243	0.005
0.2441	0.1227	0.0049
0.2453	0.1215	0.0049
0.2463	0.1197	0.0048
0.2487	0.1175	0.0047
0.2503	0.1153	0.0046
0.2504	0.1143	0.0046
0.2522	0.1124	0.0045
0.253	0.1112	0.0044
0.2538	0.1102	0.0044
0.2546	0.1092	0.0044
0.2556	0.1083	0.0043
0.2563	0.1071	0.0043
0.2573	0.106	0.0042
0.2578	0.1049	0.0042
0.2595	0.1032	0.0041
0.2611	0.1013	0.0041
0.2625	0.0992	0.004
0.2638	0.0978	0.0039
0.2644	0.097	0.0039
0.2659	0.0955	0.0038
0.2666	0.0945	0.0038
0.2668	0.0937	0.0037
0.2687	0.0922	0.0037
0.2693	0.0913	0.0037
0.2698	0.0902	0.0036
0.2712	0.0891	0.0036
0.2717	0.0885	0.0035
0.2719	0.0877	0.0035
0.2723	0.0873	0.0035
0.2733	0.0863	0.0035
0.2738	0.0856	0.0034
0.275	0.0847	0.0034
0.2757	0.0834	0.0033
0.2769	0.0822	0.0033
0.2773	0.0816	0.0033
0.2777	0.0809	0.0032
0.2785	0.0804	0.0032
0.2789	0.0797	0.0032
0.2798	0.0791	0.0032
0.2803	0.0785	0.0031
0.281	0.0779	0.0031
0.2811	0.0774	0.0031
0.2818	0.0768	0.0031
0.2831	0.0758	0.003
0.2835	0.0753	0.003
0.2837	0.0746	0.003
0.2844	0.0741	0.003

System: potassium carbonate + benzyl(2-hydroxyethyl)dimethylammonium chloride + water; phases: Liquid mixture 1, Liquid mixture 2
Fixed: Temperature, K = 298
Fixed: Pressure, kPa = 101
Property: Mass fraction of potassium carbonate (Liquid mixture 1); method: gravimetric, from binodal data
Property: Mass fraction of benzyl(2-hydroxyethyl)dimethylammonium chloride (Liquid mixture 2); method: gravimetric, from binodal data
Property: Mass fraction of potassium carbonate (Liquid mixture 2); method: gravimetric, from binodal data
Mass fraction of benzyl(2-hydroxyethyl)dimethylammonium chloride	Mass fraction of potassium carbonate	uncertainty	Mass fraction of benzyl(2-hydroxyethyl)dimethylammonium chloride	uncertainty	Mass fraction of potassium carbonate	uncertainty
0.678	0.0331	0.006	0.0156	0.0128	0.382	
0.6265	0.0413	0.0061	0.0212	0.0128	0.3664	

System: potassium carbonate + tetrapropylammonium chloride + water; phases: Liquid mixture 1, Liquid mixture 2
Fixed: Temperature, K = 298
Fixed: Pressure, kPa = 101
Property: Mass fraction of tetrapropylammonium chloride (Liquid mixture 1); method: Titration method
Mass fraction of potassium carbonate	Mass fraction of tetrapropylammonium chloride	uncertainty
0.0645	0.3263	0.0131
0.0778	0.2968	0.0119
0.0866	0.2682	0.0107
0.0932	0.2531	0.0101
0.1032	0.2371	0.0095
0.1109	0.2226	0.0089
0.1185	0.2088	0.0084
0.1241	0.1975	0.0079
0.1308	0.19	0.0076
0.1354	0.1806	0.0072
0.1402	0.174	0.007
0.145	0.1682	0.0067
0.149	0.1617	0.0065
0.1531	0.1555	0.0062
0.1569	0.149	0.006
0.1613	0.1445	0.0058
0.1645	0.139	0.0056
0.1678	0.1342	0.0054
0.171	0.1307	0.0052
0.1747	0.1273	0.0051
0.1754	0.124	0.005
0.1776	0.1213	0.0049
0.1807	0.1187	0.0047
0.1819	0.1154	0.0046
0.1839	0.1132	0.0045
0.1858	0.1104	0.0044
0.1877	0.1081	0.0043
0.1886	0.1062	0.0042
0.1914	0.1036	0.0041
0.1921	0.1021	0.0041
0.1948	0.1001	0.004
0.1961	0.098	0.0039
0.197	0.0959	0.0038
0.1985	0.0942	0.0038
0.2002	0.0929	0.0037
0.2017	0.0911	0.0036
0.2021	0.0898	0.0036
0.204	0.0881	0.0035
0.2038	0.0872	0.0035
0.2055	0.0859	0.0034
0.207	0.0844	0.0034
0.2085	0.0833	0.0033
0.2094	0.0817	0.0033
0.2108	0.0805	0.0032
0.2125	0.0793	0.0032
0.2133	0.0778	0.0031
0.2147	0.0765	0.0031
0.216	0.0753	0.003
0.2175	0.0741	0.003
0.2176	0.0729	0.0029
0.2183	0.0721	0.0029
0.2189	0.0712	0.0028
0.2193	0.0704	0.0028
0.2202	0.0697	0.0028
0.2217	0.0689	0.0028
0.2226	0.068	0.0027
0.2234	0.0673	0.0027
0.2243	0.0666	0.0027
0.2255	0.0658	0.0026
0.2258	0.0648	0.0026
0.2268	0.0642	0.0026
0.2272	0.0634	0.0025
0.2281	0.0627	0.0025
0.2281	0.0622	0.0025
0.2287	0.0617	0.0025
0.23	0.0609	0.0024
0.2307	0.0603	0.0024
0.2314	0.0597	0.0024
0.2318	0.0591	0.0024
0.2325	0.0584	0.0023
0.2329	0.0578	0.0023
0.2334	0.057	0.0023
0.2343	0.0564	0.0023
0.2346	0.0559	0.0022
0.235	0.0553	0.0022
0.236	0.0547	0.0022
0.2366	0.0542	0.0022
0.2374	0.0536	0.0021
0.2379	0.053	0.0021
0.2387	0.0524	0.0021
0.2393	0.052	0.0021
0.2397	0.0515	0.0021
0.2406	0.051	0.002

System: potassium carbonate + tetrapropylammonium chloride + water; phases: Liquid mixture 1, Liquid mixture 2
Fixed: Temperature, K = 298
Fixed: Pressure, kPa = 101
Property: Mass fraction of potassium carbonate (Liquid mixture 1); method: gravimetric, from binodal data
Property: Mass fraction of tetrapropylammonium chloride (Liquid mixture 2); method: gravimetric, from binodal data
Property: Mass fraction of potassium carbonate (Liquid mixture 2); method: gravimetric, from binodal data
Mass fraction of tetrapropylammonium chloride	Mass fraction of potassium carbonate	uncertainty	Mass fraction of tetrapropylammonium chloride	uncertainty	Mass fraction of potassium carbonate	uncertainty
0.4695	0.0246	0.0082	0.0017	0.0017	0.3821	
0.3594	0.0518	0.0083	0.0132	0.0132	0.3099	
