Measured thermophysical data. Vaporization thermodynamics of the ZnO-SnO2 system
Source: J. Chem. Thermodyn., 2014, 10.1016/j.jct.2013.11.010
Compound 1: zinc(II) oxide, OZn, InChI=1S/O.Zn/q-2;+2, purity 98%
Compound 2: tin zinc oxide (SnZn2O4), O4SnZn2, InChI=1S/4O.Sn.2Zn/q4*-2;+4;2*+2, purity 97%
Compound 3: tin, Sn, InChI=1S/Sn
Compound 4: zinc, Zn, InChI=1S/Zn
Compound 5: oxygen, O2, InChI=1S/O2/c1-2
Compound 6: tin dioxide, O2Sn, InChI=1S/2O.Sn/q2*-2;+4, purity 98%

Reaction: -2 zinc(II) oxide + 1 tin zinc oxide (SnZn2O4) + -1 tin dioxide
Property: Molar Gibbs energy of reaction, kJ/mol
-20.3

Reaction: -1 tin + -2 zinc + 1 tin zinc oxide (SnZn2O4) + -2 oxygen
Property: Molar enthalpy of reaction, kJ/mol
-1296.2

Reaction: -1 zinc(II) oxide + 1 zinc + .5 oxygen
Property: Thermodynamic equilibrium constant
5.86e-08
8.12e-08
1.12e-07
1.54e-07
2.1e-07
2.86e-07
3.88e-07
5.23e-07
7.03e-07
9.41e-07
1.25e-06
