Measured thermophysical data. Enthalpy of sublimation/vaporization of trans-cyclohexyl-1,4-diamine and cis-cyclohexyl-1,2-diamine
Source: J. Chem. Thermodyn., 2007, 10.1016/j.jct.2007.06.015
Compound 1: cis-1,4-cyclohexanediamine, C6H14N2, InChI=1S/C6H14N2/c7-5-1-2-6(8)4-3-5/h5-6H,1-4,7-8H2/t5-,6+, purity 98%
Compound 2: trans-1,4-cyclohexanediamine, C6H14N2, InChI=1S/C6H14N2/c7-5-1-2-6(8)4-3-5/h5-6H,1-4,7-8H2/t5-,6-, purity 99%

System: cis-1,4-cyclohexanediamine; phases: Liquid, Gas
Property: Molar enthalpy of vaporization or sublimation, kJ/mol (Liquid); method: Static calorimetry
Temperature, K	Molar enthalpy of vaporization or sublimation, kJ/mol	uncertainty
298.15	62.2	1.9

System: trans-1,4-cyclohexanediamine; phases: Crystal, Liquid, Air at 1 atmosphere
Property: Molar enthalpy of transition or fusion, kJ/mol (Crystal); method: DSC
Molar enthalpy of transition or fusion, kJ/mol	uncertainty
27	0.7

System: trans-1,4-cyclohexanediamine; phases: Crystal, Liquid, Air at 1 atmosphere
Property: Normal melting temperature, K (Crystal); method: DTA
Normal melting temperature, K	uncertainty
342.1	0.5

System: trans-1,4-cyclohexanediamine; phases: Crystal, Gas
Property: Molar enthalpy of vaporization or sublimation, kJ/mol (Crystal); method: Static calorimetry
Temperature, K	Molar enthalpy of vaporization or sublimation, kJ/mol	uncertainty
298.15	105	1.6
