Measured thermophysical data. Phase equilibria and the thermodynamic properties of methyl and ethyl esters of carboxylic acids. 1. Methyl n-butanoate and ethyl propanoate
Source: J. Chem. Thermodyn., 2012, 10.1016/j.jct.2011.10.001
Compound 1: methyl butanoate, C5H10O2, InChI=1S/C5H10O2/c1-3-4-5(6)7-2/h3-4H2,1-2H3, purity 99%

System: methyl butanoate; phases: Crystal, Liquid, Gas
Property: Molar enthalpy of transition or fusion, kJ/mol (Crystal); method: Adiabatic calorimetry
Molar enthalpy of transition or fusion, kJ/mol	uncertainty
11.364	0.116

System: methyl butanoate; phases: Crystal, Liquid, Gas
Property: Triple point temperature, K (Crystal); method: fractional melting
Triple point temperature, K	uncertainty
190.1	0.1

System: methyl butanoate; phases: Liquid
Fixed: Pressure, kPa = 101.325
Property: Molar heat capacity at constant pressure, J/K/mol (Liquid); method: Vacuum adiabatic calorimetry
Temperature, K	Molar heat capacity at constant pressure, J/K/mol	uncertainty
190.09	184.556	0.385
200	185.188	0.385
210	185.828	0.386
220	186.51	0.387
230	187.516	0.388
240	188.78	0.389
250	190.21	0.39
260	191.682	0.392
270	193.162	0.393
280	194.683	0.395
290	196.513	0.397
298.15	198.084	0.398
300	198.442	0.398
310	200.387	0.4
320	202.432	0.402
330	204.677	0.405
340	207.213	0.407
350	210.032	0.41
360	213	0.413
370	215.802	0.416

System: methyl butanoate; phases: Crystal
Fixed: Pressure, kPa = 101.325
Property: Molar heat capacity at constant pressure, J/K/mol (Crystal); method: Vacuum adiabatic calorimetry
Temperature, K	Molar heat capacity at constant pressure, J/K/mol	uncertainty
5	0.356	0.016
10	2.828	0.035
15	7.893	0.067
20	14.363	0.094
25	21.25	0.109
30	28.144	0.1
35	34.59	0.112
40	40.284	0.123
45	45.568	0.133
50	50.769	0.143
55	55.941	0.153
60	60.867	0.163
65	65.141	0.171
70	68.485	0.177
75	71.362	0.183
80	74.104	0.189
85	76.9	0.194
90	79.808	0.28
95	82.749	0.283
100	85.29	0.285
110	90.461	0.291
120	95.309	0.295
130	99.167	0.299
140	103.648	0.304
150	108.138	0.308
160	112.62	0.313
170	117.109	0.317
180	121.591	0.322
190	126.081	0.326
190.09	126.122	0.326

System: methyl butanoate; phases: Crystal
Fixed: Pressure, kPa = 101.325
Property: Molar heat capacity at constant pressure, J/K/mol (Crystal); method: Vacuum adiabatic calorimetry
Temperature, K	Molar heat capacity at constant pressure, J/K/mol	uncertainty
7.61	1.24	0.0229
7.88	1.3814	0.0239
8.13	1.5137	0.0249
8.39	1.6567	0.0275
8.65	1.8054	0.0281
8.9	2.1076	0.0313
9.16	2.2068	0.0313
9.41	2.4659	0.0319
9.66	2.5492	0.0327
9.91	2.719	0.0343
10.22	2.8943	0.0365
10.6	3.3004	0.04
10.98	3.648	0.0425
11.35	4.0641	0.0446
11.73	4.3799	0.0467
12.13	4.7346	0.0489
12.5	5.1107	0.0513
12.86	5.563	0.0541
13.23	5.9072	0.056
13.6	6.2781	0.0577
13.96	6.6465	0.0605
14.33	7.0629	0.0627
14.68	7.551	0.0654
15.04	7.9198	0.0676
15.4	8.3179	0.0696
15.76	8.8246	0.0719
16.11	9.3325	0.0751
16.47	9.6521	0.0761
16.82	10.207	0.078
17.17	10.66	0.08
17.53	11.074	0.081
17.88	11.412	0.084
18.23	11.836	0.085
18.58	12.532	0.089
18.93	12.898	0.091
19.28	13.532	0.092
19.63	13.976	0.094
19.98	14.419	0.094
20.62	15.198	0.096
21.39	16.16	0.099
22.15	17.23	0.102
22.91	18.291	0.105
23.67	19.351	0.107
24.44	20.586	0.109
25.2	21.608	0.109
25.97	22.55	0.11
26.73	23.641	0.11
27.49	24.493	0.111
28.25	25.817	0.112
29.01	26.927	0.111
29.77	27.907	0.11
30.53	29.041	0.101
31.29	29.602	0.102
32.82	31.82	0.107
33.59	32.786	0.109
34.35	33.885	0.11
35.11	34.581	0.112
35.86	35.634	0.115
36.61	36.635	0.116
37.37	37.49	0.117
38.12	38.325	0.118
38.88	38.881	0.12
39.63	39.871	0.122
40.39	40.689	0.123
41.14	41.428	0.124
41.9	42.115	0.126
42.65	43.213	0.129
43.4	43.996	0.129
44.16	44.506	0.131
44.91	45.662	0.133
45.66	46.291	0.134
46.41	47.132	0.135
47.17	47.632	0.137
47.92	48.664	0.14
48.66	49.52	0.141
49.41	50.202	0.142
50.16	50.977	0.143
50.91	51.687	0.144
51.66	52.269	0.146
52.4	53.157	0.148
53.15	54.062	0.149
53.89	54.63	0.151
54.64	55.703	0.153
55.38	56.476	0.154
56.12	57.162	0.156
56.87	57.901	0.157
59.09	60.079	0.161
59.84	60.446	0.162
60.58	61.417	0.164
61.32	62.073	0.165
62.06	62.683	0.166
62.8	63.435	0.168
63.54	64.04	0.169
64.28	64.717	0.17
65.03	65.054	0.171
65.77	65.697	0.172
66.5	66.393	0.173
67.24	66.793	0.174
67.98	67.344	0.175
68.72	67.726	0.176
69.46	68.236	0.177
70.2	68.471	0.177
71.09	68.752	0.178
72.14	69.62	0.18
73.19	70.474	0.181
74.24	70.878	0.182
75.29	71.508	0.184
76.34	72.301	0.185
77.39	72.874	0.186
78.44	73.354	0.187
78.68	72.623	0.186
79.48	74.122	0.19
79.71	73.823	0.189
80.53	74.827	0.19
80.74	74.412	0.19
81.58	75.433	0.191
81.76	74.798	0.19
82.62	75.675	0.192
82.79	75.478	0.192
83.67	76.361	0.193
83.81	75.483	0.191
84.83	76.857	0.195
85.85	77.507	0.195
86.87	77.781	0.196
87.89	78.68	0.198
88.91	79.57	0.2
89.93	79.992	0.2
90.96	80.423	0.281
91.97	80.848	0.281
92.99	81.427	0.282
94.01	82.017	0.282
95.03	82.389	0.283
96.04	83.434	0.284
97.06	84.19	0.284
98.07	84.163	0.284
99.09	84.885	0.285
100.1	85.448	0.286
101.62	86.177	0.286
103.64	87.3	0.287
105.66	88.283	0.288
107.68	89.362	0.29
109.7	90.169	0.29
111.72	91.075	0.291
113.73	92.149	0.292
115.74	93.341	0.294
117.75	94.236	0.294
119.76	95.16	0.295
121.76	96.242	0.296
123.77	97.126	0.297
125.78	98.021	0.298
127.78	98.841	0.299
129.79	99.75	0.3
131.79	100.55	0.3
133.79	101.43	0.3
135.8	102.27	0.3
137.8	103.03	0.3
139.79	103.9	0.3
141.79	104.89	0.31
143.79	105.51	0.31
145.78	106.36	0.31
147.78	107.25	0.31
149.77	107.92	0.31
151.89	109.06	0.31
153.86	109.91	0.31
155.85	110.69	0.31
157.83	111.73	0.31
159.81	112.47	0.31
161.79	113.29	0.31
163.77	114.29	0.31
165.74	115.26	0.32
167.72	116.18	0.32
169.56	116.65	0.32
171.52	117.81	0.32
173.49	119.09	0.32
175.45	120.75	0.32
177.41	122.58	0.32
179.36	125.17	0.33
181.29	129.69	0.34
183.2	139.88	0.37
185.04	158.37	0.56
186.78	216.75	1.84
188.21	448.34	10.68
189.16	1561.8	100.3
189.7	8659.7	36.8
191.08	185.22	122.82

System: methyl butanoate; phases: Liquid
Fixed: Pressure, kPa = 101.325
Property: Molar heat capacity at constant pressure, J/K/mol (Liquid); method: Vacuum adiabatic calorimetry
Temperature, K	Molar heat capacity at constant pressure, J/K/mol	uncertainty
192.79	184.74	0.38
194.49	184.98	0.39
196.18	185.21	0.39
197.88	185.04	0.39
199.57	185.15	0.39
201.25	185.01	0.39
202.85	185.47	0.39
202.93	185.15	0.39
204.61	185.47	0.39
204.73	185.64	0.39
206.27	185.39	0.39
206.69	185.68	0.39
207.94	185.44	0.39
208.64	186	0.39
210.58	186.03	0.39
212.53	186	0.39
214.48	186.17	0.39
216.42	186.44	0.39
218.37	186.11	0.39
220.31	186.33	0.39
222.24	186.86	0.39
224.17	186.8	0.39
226.1	186.88	0.39
228.02	187.23	0.39
229.93	187.61	0.39
231.85	187.86	0.39
233.68	187.83	0.39
235.58	188.04	0.39
237.48	188.4	0.39
239.37	188.78	0.39
241.26	188.74	0.39
243.14	189.23	0.39
245.01	189.8	0.39
246.89	190.04	0.39
248.76	190.11	0.39
250.62	190.43	0.39
252.49	190.56	0.39
254.35	190.93	0.39
256.2	190.97	0.39
258.06	191.41	0.39
259.91	191.46	0.39
261.76	191.67	0.39
263.49	192.11	0.39
265.34	192.17	0.39
267.17	192.77	0.39
269.01	193.06	0.39
270.85	193.64	0.39
272.68	194.01	0.39
274.5	193.7	0.39
276.33	194.03	0.39
278.16	194.27	0.39
279.98	194.58	0.39
281.79	195.04	0.4
283.59	195.25	0.4
285.4	195.54	0.4
287.19	195.76	0.4
288.98	196.51	0.4
290.74	196.84	0.4
292.33	196.73	0.4
294.09	197.27	0.4
295.83	197.8	0.4
297.59	198	0.4
299.34	198.43	0.4
301.06	198.72	0.4
302.76	198.98	0.4
304.45	199.24	0.4
306.14	199.38	0.4
307.81	199.85	0.4
309.48	200.31	0.4
311.13	200.58	0.4
312.78	200.66	0.4
314.42	201.21	0.4
316.05	201.68	0.4
317.67	201.91	0.4
318.97	202.28	0.4
320.57	202.72	0.4
322.17	203.14	0.4
323.75	203.27	0.4
325.32	203.68	0.4
326.89	204.18	0.4
328.44	204.41	0.4
329.98	204.65	0.4
331.51	204.84	0.4
333.03	205.34	0.41
334.54	205.78	0.41
336.04	206.3	0.41
337.49	206.62	0.41
338.96	206.61	0.41
340.42	207.11	0.41
341.87	207.49	0.41
342.87	207.85	0.41
344.3	208.38	0.41
345.71	208.82	0.41
347.12	209.31	0.41
348.51	209.73	0.41
349.89	209.95	0.41
351.26	210.42	0.41
352.61	210.86	0.41
353.95	211.39	0.41
355.28	211.75	0.41
356.6	211.91	0.41
357.9	212.69	0.41
359.2	212.83	0.41
360.47	213.07	0.41
361.74	213.3	0.41
362.99	214.05	0.41
363.57	213.92	0.41
364.8	214.49	0.41
366.02	214.53	0.41
367.22	214.65	0.41
368.41	215.35	0.42
369.58	215.99	0.42
370.75	216.01	0.42
371.9	216.31	0.42

System: methyl butanoate; phases: Liquid, Gas
Property: Vapor or sublimation pressure, kPa (Liquid); method: Ebulliometric method (Recirculating still)
Temperature, K	Vapor or sublimation pressure, kPa	uncertainty
316.24	10.801	0.054
321.02	13.429	0.054
326.17	16.831	0.055
331.33	20.877	0.056
335.84	25.072	0.057
341.17	30.91	0.059
346.14	37.264	0.061
351.81	45.827	0.064
357.57	56.116	0.069
363.05	67.493	0.074
368.86	81.571	0.08
373.81	95.31	0.086
374.54	97.438	0.087
375.25	99.604	0.089

System: methyl butanoate; phases: Crystal
Fixed: Pressure, kPa = 101.325
Property: Molar entropy, J/K/mol (Crystal); method: Vacuum adiabatic calorimetry
Temperature, K	Molar entropy, J/K/mol	uncertainty
5	0.119	0.017
10	0.949	0.027
15	2.987	0.046
20	6.126	0.068
25	10.069	0.085
30	14.55	0.105
35	19.381	0.12
40	24.386	0.135
45	29.433	0.15
50	34.505	0.165
55	39.585	0.18
60	44.665	0.195
65	49.712	0.21
70	54.668	0.225
75	59.498	0.239
80	64.188	0.253
85	68.761	0.267
90	73.242	0.41
95	77.632	0.417
100	81.939	0.423
110	90.295	0.436
120	98.36	0.448
130	106.176	0.46
140	113.659	0.471
150	120.976	0.482
160	128.126	0.492
170	135.11	0.503
180	141.928	0.513
190	148.58	0.523
190.09	148.663	0.523

System: methyl butanoate; phases: Liquid
Fixed: Pressure, kPa = 101.325
Property: Molar entropy, J/K/mol (Liquid); method: Vacuum adiabatic calorimetry
Temperature, K	Molar entropy, J/K/mol	uncertainty
190.09	208.444	0.613
200	217.839	0.627
210	226.902	0.641
220	235.549	0.654
230	243.863	0.666
240	251.845	0.678
250	259.578	0.69
260	267.061	0.701
270	274.378	0.712
280	281.362	0.722
290	288.263	0.733
298.15	293.75	0.741
300	294.997	0.743
310	301.483	0.752
320	307.885	0.762
330	314.121	0.771
340	320.273	0.781
350	326.343	0.79
360	332.329	0.799
370	338.15	0.807
