Measured thermophysical data. Solubility of carbon dioxide, ethane, methane, oxygen, nitrogen, hydrogen, argon, and carbon monoxide in 1-butyl-3-methylimidazolium tetrafluoroborate between temperatures 283 K and 343 K and at pressures close to atmospheric
Source: J. Chem. Thermodyn., 2006, 10.1016/j.jct.2005.07.002
Compound 1: 1-butyl-3-methylimidazolium tetrafluoroborate, C8H15BF4N2, InChI=1S/C8H15N2.BF4/c1-3-4-5-10-7-6-9(2)8-10;2-1(3,4)5/h6-8H,3-5H2,1-2H3;/q+1;-1, purity 97%
Compound 2: carbon dioxide, CO2, InChI=1S/CO2/c2-1-3, purity 99.995%
Compound 3: ethane, C2H6, InChI=1S/C2H6/c1-2/h1-2H3, purity 99.5%
Compound 4: methane, CH4, InChI=1S/CH4/h1H4, purity 99.995%
Compound 5: oxygen, O2, InChI=1S/O2/c1-2, purity 99.999%
Compound 6: nitrogen, N2, InChI=1S/N2/c1-2, purity 99.98%
Compound 7: hydrogen, H2, InChI=1S/H2/h1H, purity 99.9997%
Compound 8: argon, Ar, InChI=1S/Ar, purity 99.9997%
Compound 9: carbon monoxide, CO, InChI=1S/CO/c1-2, purity 99.997%

System: ethane + 1-butyl-3-methylimidazolium tetrafluoroborate; phases: Liquid, Gas
Fixed: Mole fraction of ethane = 0
Property: Henry's Law constant (mole fraction scale), kPa of ethane (Liquid); method: isochoric saturation
Temperature, K	Henry's Law constant (mole fraction scale), kPa of ethane	uncertainty
283.02	25760	1590
292.98	28600	1760
303.4	31810	1960
303.43	31670	1950
313.28	35420	2180
315.76	36620	2260
323.22	39900	2460
323.26	39840	2460
333.08	44940	2770
333.14	45190	2790
343.07	50500	3110
343.22	50260	3100

System: methane + 1-butyl-3-methylimidazolium tetrafluoroborate; phases: Liquid, Gas
Fixed: Mole fraction of methane = 0
Property: Henry's Law constant (mole fraction scale), kPa of methane (Liquid); method: isochoric saturation
Temperature, K	Henry's Law constant (mole fraction scale), kPa of methane	uncertainty
283.05	79410	4900
292.95	84280	5200
303.38	97290	6000
303.38	94610	5830
303.4	97600	6020
313.27	111700	6900
313.29	111000	6800
323.19	131500	8100
323.2	131100	8100
333.06	166700	10300
333.15	164300	10100
343.04	221600	13700
343.09	216000	13300

System: oxygen + 1-butyl-3-methylimidazolium tetrafluoroborate; phases: Liquid, Gas
Fixed: Mole fraction of oxygen = 0
Property: Henry's Law constant (mole fraction scale), kPa of oxygen (Liquid); method: isochoric saturation
Temperature, K	Henry's Law constant (mole fraction scale), kPa of oxygen	uncertainty
283.25	150500	9300
293.18	155200	9600
303.4	162100	10000
303.4	160400	9900
303.4	162300	10000
313.32	165100	10200
313.32	165900	10200
323.16	172600	10600
323.23	171200	10600
323.24	171200	10600
333.15	173700	10700
333.28	175800	10800
343.1	182400	11200
343.3	185400	11400

System: nitrogen + 1-butyl-3-methylimidazolium tetrafluoroborate; phases: Liquid, Gas
Fixed: Mole fraction of nitrogen = 0
Property: Henry's Law constant (mole fraction scale), kPa of nitrogen (Liquid); method: isochoric saturation
Temperature, K	Henry's Law constant (mole fraction scale), kPa of nitrogen	uncertainty
283.2	157800	9700
293.21	164600	10100
303.38	178900	11000
303.38	177300	10900
303.4	178800	11000
313.27	198000	12200
313.31	200100	12300
323.24	224200	13800
323.25	227700	14000
333.21	261000	16200
333.28	266400	16500
343.14	306400	18900

System: hydrogen + 1-butyl-3-methylimidazolium tetrafluoroborate; phases: Liquid, Gas
Fixed: Mole fraction of hydrogen = 0
Property: Henry's Law constant (mole fraction scale), kPa of hydrogen (Liquid); method: isochoric saturation
Temperature, K	Henry's Law constant (mole fraction scale), kPa of hydrogen	uncertainty
278.2	199000	12300
283.29	194100	12000
285.25	194000	12000
288.3	193900	12000
290.37	194700	12000
293.36	197400	12200
298.34	203600	12600
303.33	214400	13200
303.41	214300	13200
313.25	239100	14700
313.3	241300	14900
323.22	280200	17300
323.24	278000	17100
333.17	343700	21200
343.06	431800	26600
343.11	431800	26600

System: argon + 1-butyl-3-methylimidazolium tetrafluoroborate; phases: Liquid, Gas
Fixed: Mole fraction of argon = 0
Property: Henry's Law constant (mole fraction scale), kPa of argon (Liquid); method: isochoric saturation
Temperature, K	Henry's Law constant (mole fraction scale), kPa of argon	uncertainty
283.01	134100	8300
293.47	140200	8600
303.37	151500	9300
313.29	169800	10500
323.17	198300	12200
323.33	196200	12100
333.11	226900	14000
342.96	267900	16500
343.02	270700	16700

System: carbon monoxide + 1-butyl-3-methylimidazolium tetrafluoroborate; phases: Liquid, Gas
Fixed: Mole fraction of carbon monoxide = 0
Property: Henry's Law constant (mole fraction scale), kPa of carbon monoxide (Liquid); method: isochoric saturation
Temperature, K	Henry's Law constant (mole fraction scale), kPa of carbon monoxide	uncertainty
283.18	171700	10600
293.16	172600	10600
303.39	174200	10700
303.39	173400	10700
313.27	174200	10700
313.28	172400	10600
323.2	176500	10900
333.09	175800	10800
343.04	177500	10900

System: carbon dioxide + 1-butyl-3-methylimidazolium tetrafluoroborate; phases: Liquid, Gas
Fixed: Mole fraction of carbon dioxide = 0
Property: Henry's Law constant (mole fraction scale), kPa of carbon dioxide (Liquid); method: isochoric saturation
Temperature, K	Henry's Law constant (mole fraction scale), kPa of carbon dioxide	uncertainty
303.38	6160	380
303.9	6250	385
303.93	6286	388
313.99	7506	463
323.19	8878	547
324.06	9056	558
324.18	9058	558
334.15	10480	650
342.96	12240	750
343.83	12580	780
344.27	12340	760
