Measured thermophysical data. The (p, rho, T, x) properties for (propane + n-butane + isobutane) ternary mixtures over the temperature range from (280 to 440) K at pressures from (1 to 200) MPa
Source: J. Chem. Thermodyn., 2008, 10.1016/j.jct.2007.12.001
Compound 1: propane, C3H8, InChI=1S/C3H8/c1-3-2/h3H2,1-2H3, purity 99.99%
Compound 2: 2-methylpropane, C4H10, InChI=1S/C4H10/c1-4(2)3/h4H,1-3H3, purity 99.99%
Compound 3: butane, C4H10, InChI=1S/C4H10/c1-3-4-2/h3-4H2,1-2H3, purity 99.97%

System: propane + 2-methylpropane + butane; phases: Liquid
Fixed: Mole fraction of propane = 0.3225
Fixed: Mole fraction of butane = 0.3252
Property: Mass density, kg/m3 (Liquid); method: Bellows volumetry
Pressure, kPa	Temperature, K	Mass density, kg/m3	uncertainty
1000	280	567.39	0.51
2000	280	569.16	0.51
3000	280	570.73	0.51
5000	280	573.8	0.52
10000	280	580.77	0.52
20000	280	593	0.54
30000	280	603.56	0.54
40000	280	612.34	0.55
50000	280	620.44	0.56
60000	280	627.84	0.57
70000	280	634.4	0.57
80000	280	640.8	0.58
90000	280	646.67	0.59
100000	280	652.05	0.59
120000	280	662.19	0.6
140000	280	671.28	0.61
160000	280	679.59	0.63
180000	280	687.47	0.63
200000	280	694.72	0.64
2000	300	544.46	0.49
10000	300	559.22	0.5
20000	300	573.72	0.52
30000	300	585.84	0.53
40000	300	596.01	0.54
3000	300	546.6	0.49
50000	300	605.07	0.55
60000	300	613.12	0.56
70000	300	620.56	0.56
80000	300	627.28	0.57
90000	300	633.55	0.57
1000	300	542.27	0.49
100000	300	639.51	0.58
5000	300	550.54	0.5
120000	300	650.17	0.59
140000	300	659.97	0.6
160000	300	668.77	0.62
180000	300	676.86	0.63
200000	300	684.47	0.64
10000	320	536.69	0.48
30000	320	568.16	0.51
1000	320	514.39	0.46
40000	320	579.84	0.52
50000	320	589.78	0.53
3000	320	520.27	0.47
60000	320	598.89	0.54
70000	320	606.86	0.55
2000	320	517.47	0.47
80000	320	614.32	0.56
90000	320	621.09	0.56
20000	320	554.17	0.5
100000	320	627.28	0.57
120000	320	638.88	0.58
5000	320	525.42	0.47
140000	320	648.98	0.59
160000	320	658.47	0.61
180000	320	666.93	0.62
200000	320	674.78	0.63
50000	340	574.92	0.52
60000	340	584.88	0.53
3000	340	490.6	0.44
70000	340	593.68	0.54
30000	340	550.43	0.5
10000	340	512.7	0.46
80000	340	601.53	0.55
90000	340	609.06	0.55
40000	340	563.68	0.51
20000	340	534.34	0.48
100000	340	615.71	0.56
120000	340	627.87	0.57
140000	340	638.72	0.58
5000	340	497.92	0.45
160000	340	648.41	0.6
180000	340	657.4	0.61
2000	340	486.34	0.44
200000	340	665.62	0.62
70000	360	580.32	0.53
3000	360	454.54	0.41
80000	360	588.97	0.54
30000	360	532.6	0.48
90000	360	596.82	0.54
40000	360	547.68	0.5
100000	360	604.13	0.55
20000	360	513.76	0.46
60000	360	570.91	0.52
120000	360	617.05	0.56
140000	360	628.55	0.57
160000	360	638.76	0.6
5000	360	466.01	0.42
10000	360	486.76	0.44
180000	360	648.24	0.61
50000	360	560.05	0.51
200000	360	656.87	0.62
70000	380	566.9	0.52
90000	380	584.49	0.53
30000	380	513.99	0.47
100000	380	592.07	0.54
50000	380	544.72	0.49
20000	380	491.74	0.44
40000	380	530.83	0.48
120000	380	605.89	0.55
60000	380	556.56	0.51
140000	380	617.82	0.56
160000	380	628.51	0.59
80000	380	576.09	0.52
180000	380	638.32	0.6
5000	380	426.17	0.38
10000	380	457.45	0.41
3000	380	402.75	0.36
200000	380	647.29	0.61
5000	400	368.32	0.33
90000	400	572.37	0.52
50000	400	529.68	0.48
120000	400	594.85	0.54
40000	400	514.39	0.47
20000	400	469.5	0.43
10000	400	424.88	0.39
140000	400	607.51	0.55
60000	400	542.49	0.49
160000	400	618.75	0.58
30000	400	495.54	0.45
80000	400	563.48	0.51
180000	400	628.87	0.59
70000	400	553.68	0.5
100000	400	580.52	0.53
200000	400	638.1	0.61
140000	420	598.13	0.55
20000	420	446.58	0.41
60000	420	529.2	0.48
70000	420	541.04	0.49
50000	420	515.25	0.47
160000	420	609.65	0.58
40000	420	498.49	0.45
80000	420	551.64	0.5
90000	420	561.06	0.51
180000	420	620.26	0.59
30000	420	476.99	0.43
10000	420	387.21	0.35
100000	420	569.53	0.52
120000	420	584.78	0.53
200000	420	629.91	0.6
140000	440	589.24	0.54
70000	440	529.21	0.48
40000	440	482.66	0.44
120000	440	575.48	0.53
180000	440	612.32	0.58
50000	440	501.32	0.46
80000	440	540.41	0.49
160000	440	601.29	0.57
90000	440	550.41	0.5
20000	440	422.95	0.38
100000	440	559.53	0.51
30000	440	458.65	0.42
60000	440	516.44	0.47
200000	440	622.09	0.59

System: propane + 2-methylpropane + butane; phases: Liquid
Fixed: Mole fraction of propane = 0.5895
Fixed: Mole fraction of butane = 0.208
Property: Mass density, kg/m3 (Liquid); method: Bellows volumetry
Pressure, kPa	Temperature, K	Mass density, kg/m3	uncertainty
1000	280	552.49	0.5
2000	280	554.31	0.5
2000	320	498.46	0.45
3000	280	556.08	0.5
3000	320	501.77	0.45
3000	360	424.65	0.38
5000	280	559.25	0.5
5000	320	507.67	0.46
5000	360	440.81	0.4
10000	280	566.89	0.51
10000	320	520.28	0.47
10000	360	466.37	0.42
10000	400	396.85	0.36
20000	280	579.86	0.52
20000	320	539.54	0.49
20000	360	496.99	0.45
20000	400	450.09	0.42
20000	440	400.9	0.37
30000	280	590.7	0.53
30000	320	554.37	0.5
30000	360	517.49	0.47
30000	400	478.84	0.44
30000	440	440.73	0.41
40000	280	600.15	0.54
40000	320	566.59	0.51
40000	360	533.45	0.49
40000	400	499.19	0.46
40000	440	466.59	0.43
50000	280	608.6	0.55
50000	320	577.21	0.52
50000	360	546.6	0.5
50000	400	515.42	0.47
50000	440	486.37	0.45
60000	280	616.16	0.56
60000	320	586.26	0.54
60000	360	557.91	0.52
60000	400	528.88	0.5
60000	440	502.31	0.49
70000	280	623.16	0.57
70000	320	594.78	0.55
70000	360	567.87	0.53
70000	400	540.44	0.51
70000	440	515.54	0.5
80000	280	629.45	0.58
80000	320	602.32	0.56
80000	360	576.7	0.54
80000	400	550.72	0.52
80000	440	527.18	0.51
90000	280	635.58	0.58
90000	320	609.27	0.56
90000	360	584.84	0.55
90000	400	559.98	0.53
90000	440	537.51	0.52
100000	280	641.29	0.59
100000	320	615.77	0.57
100000	360	592.24	0.55
100000	400	568.44	0.53
100000	440	546.85	0.52
120000	280	651.54	0.6
120000	320	627.54	0.58
120000	360	605.59	0.57
120000	400	583.25	0.55
120000	440	563.27	0.54
140000	280	661.01	0.61
140000	320	638.1	0.59
140000	360	617.27	0.58
140000	400	596.18	0.56
140000	440	577.46	0.55
160000	280	669.47	0.66
160000	320	647.48	0.65
160000	360	627.81	0.65
160000	400	607.49	0.65
160000	440	589.87	0.65
180000	280	677.29	0.67
180000	320	656.21	0.66
180000	360	637.25	0.66
180000	400	617.91	0.66
180000	440	600.92	0.66
200000	280	684.64	0.68
200000	320	664.28	0.7
200000	360	646.12	0.68
200000	400	627.18	0.7
200000	440	611.15	0.69

System: propane + 2-methylpropane + butane; phases: Liquid
Fixed: Mole fraction of propane = 0.2131
Fixed: Mole fraction of butane = 0.2111
Property: Mass density, kg/m3 (Liquid); method: Bellows volumetry
Pressure, kPa	Temperature, K	Mass density, kg/m3	uncertainty
2000	280	572.35	0.52
2000	320	521.29	0.47
2000	360	452.58	0.41
3000	280	573.88	0.52
3000	320	524.05	0.47
3000	360	459.67	0.41
5000	280	577.17	0.52
5000	320	529.22	0.48
5000	360	470.78	0.42
5000	400	378.64	0.34
10000	280	584.03	0.53
10000	320	540.29	0.49
10000	360	490.86	0.44
10000	400	430.45	0.39
20000	280	596.26	0.54
20000	320	557.96	0.5
20000	360	517.47	0.47
20000	400	473.83	0.43
20000	440	428.3	0.39
30000	280	606.58	0.55
30000	320	571.75	0.52
30000	360	536.29	0.48
30000	400	499.58	0.45
30000	440	463.34	0.42
40000	280	615.63	0.56
40000	320	583.27	0.53
40000	360	551.17	0.5
40000	400	518.39	0.47
40000	440	487.03	0.44
50000	280	623.58	0.56
50000	320	593.32	0.54
50000	360	563.59	0.51
50000	400	533.55	0.48
50000	440	505.42	0.46
60000	280	631.1	0.57
60000	320	602.2	0.55
60000	360	574.27	0.52
60000	400	546.44	0.5
60000	440	520.46	0.48
70000	280	637.74	0.58
70000	320	610.35	0.55
70000	360	583.92	0.53
70000	400	557.53	0.51
70000	440	533.19	0.49
80000	280	643.91	0.58
80000	320	617.71	0.56
80000	360	592.49	0.54
80000	400	567.19	0.52
80000	440	544.39	0.5
90000	280	649.92	0.59
90000	320	624.55	0.57
90000	360	600.52	0.55
90000	400	576.3	0.53
90000	440	554.46	0.51
100000	280	655.4	0.59
100000	320	630.75	0.57
100000	360	607.67	0.55
100000	400	584.24	0.53
100000	440	563.46	0.51
120000	280	665.47	0.6
120000	320	642.31	0.58
120000	360	620.45	0.56
120000	400	598.85	0.55
120000	440	579.24	0.53
140000	280	674.84	0.61
140000	320	652.58	0.59
140000	360	631.85	0.58
140000	400	611.61	0.56
140000	440	592.96	0.54
160000	280	683.13	0.63
160000	320	661.8	0.61
160000	360	642.17	0.6
160000	400	622.72	0.59
160000	440	605.25	0.58
180000	280	690.86	0.64
180000	320	670.34	0.62
180000	360	651.53	0.61
180000	400	632.77	0.6
180000	440	616.07	0.59
200000	280	698.11	0.65
200000	320	678.08	0.63
200000	360	660.14	0.62
200000	400	641.79	0.61
200000	440	625.88	0.6

System: propane + 2-methylpropane + butane; phases: Liquid
Fixed: Mole fraction of propane = 0.2134
Fixed: Mole fraction of butane = 0.5813
Property: Mass density, kg/m3 (Liquid); method: Bellows volumetry
Pressure, kPa	Temperature, K	Mass density, kg/m3	uncertainty
1000	280	578.35	0.52
1000	320	527.59	0.48
2000	280	579.88	0.52
2000	320	530.21	0.48
2000	360	466.25	0.42
3000	280	581.35	0.52
3000	320	532.89	0.48
3000	360	471.99	0.43
5000	280	584.21	0.53
5000	320	537.49	0.48
5000	360	481.65	0.43
5000	400	398.57	0.36
10000	280	590.91	0.53
10000	320	547.76	0.49
10000	360	499.71	0.45
10000	400	441.37	0.4
20000	280	602.47	0.54
20000	320	564.31	0.51
20000	360	524.63	0.47
20000	400	481.4	0.44
20000	440	436.22	0.4
30000	280	612.52	0.55
30000	320	577.51	0.52
30000	360	542.52	0.49
30000	400	505.91	0.46
30000	440	469.75	0.43
40000	280	621.12	0.56
40000	320	588.77	0.53
40000	360	556.86	0.5
40000	400	524.18	0.47
40000	440	492.76	0.45
50000	280	629.09	0.57
50000	320	598.51	0.54
50000	360	568.93	0.51
50000	400	538.87	0.49
50000	440	510.61	0.46
60000	280	636.23	0.58
60000	320	607.22	0.55
60000	360	579.37	0.53
60000	400	551.33	0.5
60000	440	525.32	0.48
70000	280	642.81	0.58
70000	320	615.06	0.56
70000	360	588.64	0.53
70000	400	562.26	0.51
70000	440	537.87	0.49
80000	280	648.96	0.59
80000	320	622.32	0.56
80000	360	597.12	0.54
80000	400	571.97	0.52
80000	440	548.88	0.5
90000	280	654.72	0.59
90000	320	628.91	0.57
90000	360	604.73	0.55
90000	400	580.71	0.53
90000	440	558.6	0.51
100000	280	660.03	0.6
100000	320	635.1	0.58
100000	360	611.9	0.56
100000	400	588.87	0.54
100000	440	567.58	0.52
120000	280	670.05	0.61
120000	320	646.69	0.59
120000	360	624.56	0.57
120000	400	603	0.55
120000	440	583.55	0.53
140000	280	678.92	0.62
140000	320	656.83	0.6
140000	360	635.95	0.58
140000	400	615.19	0.56
140000	440	597.07	0.55
160000	280	687.19	0.63
160000	320	666.06	0.62
160000	360	646.03	0.6
160000	400	626.42	0.59
160000	440	609.08	0.58
180000	280	694.84	0.64
180000	320	674.47	0.63
180000	360	655.33	0.61
180000	400	636.25	0.6
180000	440	619.93	0.59
200000	280	701.85	0.65
200000	320	681.95	0.64
200000	360	663.72	0.62
200000	400	645.41	0.62
200000	440	629.81	0.6
