Measured thermophysical data. Crystal structure and thermochemical properties of n-decylammonium  ethyl sulfate (C10H21NH3SO4C2H5)(s)
Source: J. Chem. Thermodyn., 2013, 10.1016/j.jct.2012.07.026
Compound 1: n-decylammonium ethyl sulfate, C12H29NO4S, InChI=1S/C10H23N.C2H6O4S/c1-2-3-4-5-6-7-8-9-10-11;1-2-6-7(3,4)5/h2-11H2,1H3;2H2,1H3,(H,3,4,5)
Compound 2: water, H2O, InChI=1S/H2O/h1H2, purity 99.8%

System: n-decylammonium ethyl sulfate + water; phases: Liquid, Crystal
Fixed: Temperature, K = 298.15
Property: Molar enthalpy of solution, kJ/mol (Liquid); method: ISOPERIBOL
Molality, mol/kg of n-decylammonium ethyl sulfate	Molar enthalpy of solution, kJ/mol	uncertainty
0.00108	19.99	0.155
0.00124	19.445	0.151
0.00144	19.037	0.147
0.0016	18.88	0.146
0.00177	18.798	0.146
0.00195	18.767	0.145
0.00213	18.743	0.145
0.0023	18.734	0.145
0.00248	18.719	0.145
0.00266	18.705	0.145
0.00283	18.694	0.145
0.00301	18.681	0.145
0.00321	18.671	0.145
0.00337	18.665	0.145
0.00354	18.656	0.145
