Measured thermophysical data. Aqueous biphasic systems involving alkylsulfate-based ionic liquids
Source: J. Chem. Thermodyn., 2011, 10.1016/j.jct.2011.04.024
Compound 1: water, H2O, InChI=1S/H2O/h1H2, purity 99.8%
Compound 2: tripotassium phosphate, K3O4P, InChI=1S/3K.H3O4P/c;;;1-5(2,3)4/h;;;(H3,1,2,3,4)/q3*+1;/p-3, purity 99%
Compound 3: 1-ethyl-3-methylimidazolium ethyl sulfate, C8H16N2O4S, InChI=1S/C6H11N2.C2H6O4S/c1-3-8-5-4-7(2)6-8;1-2-6-7(3,4)5/h4-6H,3H2,1-2H3;2H2,1H3,(H,3,4,5)/q+1;/p-1, purity 98%
Compound 4: potassium carbonate, CK2O3, InChI=1S/CH2O3.2K/c2-1(3)4;;/h(H2,2,3,4);;/q;2*+1/p-2, purity 99%
Compound 5: sodium carbonate, CNa2O3, InChI=1S/CH2O3.2Na/c2-1(3)4;;/h(H2,2,3,4);;/q;2*+1/p-2, purity 99%
Compound 6: ammonium sulfate, H8N2O4S, InChI=1S/2H3N.H2O4S/c;;1-5(2,3)4/h2*1H3;(H2,1,2,3,4), purity 99%
Compound 7: 3-ethyl-1-methyl-1H-imidazolium hexyl sulfate, C12H24N2O4S, InChI=1S/C6H11N2.C6H14O4S/c1-3-8-5-4-7(2)6-8;1-2-3-4-5-6-10-11(7,8)9/h4-6H,3H2,1-2H3;2-6H2,1H3,(H,7,8,9)/q+1;/p-1, purity 98%
Compound 8: 3-ethyl-1-methylimidazolium butyl sulfate, C10H20N2O4S, InChI=1S/C6H11N2.C4H10O4S/c1-3-8-5-4-7(2)6-8;1-2-3-4-8-9(5,6)7/h4-6H,3H2,1-2H3;2-4H2,1H3,(H,5,6,7)/q+1;/p-1, purity 98%
Compound 9: 1-ethyl-3-methylimidazolium octyl sulfate, C14H28N2O4S, InChI=1S/C8H18O4S.C6H11N2/c1-2-3-4-5-6-7-8-12-13(9,10)11;1-3-8-5-4-7(2)6-8/h2-8H2,1H3,(H,9,10,11);4-6H,3H2,1-2H3/q;+1/p-1, purity 98%

System: water + tripotassium phosphate + 1-ethyl-3-methylimidazolium ethyl sulfate; phases: Liquid mixture 1, Liquid mixture 2
Fixed: Pressure, kPa = 101
Fixed: Temperature, K = 298.15
Property: Mass fraction of 1-ethyl-3-methylimidazolium ethyl sulfate (Liquid mixture 1); method: Titration method
Mass fraction of tripotassium phosphate	Mass fraction of 1-ethyl-3-methylimidazolium ethyl sulfate	uncertainty
0.0538	0.482	0.0223
0.0754	0.4224	0.0202
0.0921	0.3861	0.0192
0.1181	0.3193	0.0179
0.1296	0.2984	0.0155
0.1392	0.2789	0.0156
0.1468	0.2637	0.014
0.1596	0.2439	0.0132
0.1696	0.2274	0.0147
0.1755	0.2153	0.0146
0.1793	0.205	0.0149
0.1841	0.1951	0.0148
0.1937	0.1776	0.012
0.213	0.1507	0.0117
0.2224	0.1335	0.0117
0.2324	0.1205	0.0108
0.2411	0.1077	0.0107
0.2494	0.0968	0.0097
0.2567	0.0891	0.0093
0.2639	0.0807	0.0091
0.2707	0.074	0.0085
0.2813	0.0642	0.0087
0.2889	0.0558	0.0083
0.2972	0.0497	0.0077
0.3075	0.0416	0.0077

System: water + tripotassium phosphate + 1-ethyl-3-methylimidazolium ethyl sulfate; phases: Liquid mixture 1, Liquid mixture 2
Fixed: Pressure, kPa = 101
Fixed: Temperature, K = 298.15
Property: Mass fraction of tripotassium phosphate (Liquid mixture 1); method: Phase equilibration
Property: Mass fraction of 1-ethyl-3-methylimidazolium ethyl sulfate (Liquid mixture 2); method: Phase equilibration
Property: Mass fraction of tripotassium phosphate (Liquid mixture 2); method: Phase equilibration
Mass fraction of 1-ethyl-3-methylimidazolium ethyl sulfate	Mass fraction of tripotassium phosphate	uncertainty	Mass fraction of 1-ethyl-3-methylimidazolium ethyl sulfate	uncertainty	Mass fraction of tripotassium phosphate	uncertainty
0.5556	0.035	0.006	0.043	0.0061	0.304	
0.6497	0.018	0.0061	0.0241	0.0067	0.335	
0.6937	0.0125	0.006	0.0118	0.006	0.3671	

System: potassium carbonate + water + 1-ethyl-3-methylimidazolium ethyl sulfate; phases: Liquid mixture 1, Liquid mixture 2
Fixed: Pressure, kPa = 101
Fixed: Temperature, K = 298.15
Property: Mass fraction of 1-ethyl-3-methylimidazolium ethyl sulfate (Liquid mixture 1); method: Titration method
Mass fraction of potassium carbonate	Mass fraction of 1-ethyl-3-methylimidazolium ethyl sulfate	uncertainty
0.0696	0.4339	0.0206
0.11	0.3297	0.0163
0.1576	0.2568	0.013
0.1804	0.225	0.0125
0.191	0.2064	0.0155
0.201	0.1801	0.0116
0.2234	0.1579	0.01
0.2356	0.1414	0.0108
0.247	0.1261	0.0103
0.2564	0.1152	0.0095
0.266	0.105	0.0095
0.2729	0.0968	0.0093
0.2773	0.0904	0.0093
0.2848	0.0844	0.0084
0.2898	0.0795	0.0083
0.2978	0.0724	0.0076
0.3153	0.0613	0.0075
0.3217	0.0555	0.0069
0.34	0.0478	0.0067
0.3502	0.0423	0.0068
0.364	0.036	0.0067

System: potassium carbonate + water + 1-ethyl-3-methylimidazolium ethyl sulfate; phases: Liquid mixture 1, Liquid mixture 2
Fixed: Pressure, kPa = 101
Fixed: Temperature, K = 298.15
Property: Mass fraction of potassium carbonate (Liquid mixture 1); method: Phase equilibration
Property: Mass fraction of 1-ethyl-3-methylimidazolium ethyl sulfate (Liquid mixture 2); method: Phase equilibration
Property: Mass fraction of potassium carbonate (Liquid mixture 2); method: Phase equilibration
Mass fraction of 1-ethyl-3-methylimidazolium ethyl sulfate	Mass fraction of potassium carbonate	uncertainty	Mass fraction of 1-ethyl-3-methylimidazolium ethyl sulfate	uncertainty	Mass fraction of potassium carbonate	uncertainty
0.4097	0.077	0.0062	0.0399	0.0061	0.3451	
0.5253	0.04	0.0062	0.0324	0.0067	0.3588	
0.6745	0.014	0.006	0.0235	0.006	0.3783	

System: sodium carbonate + water + 1-ethyl-3-methylimidazolium ethyl sulfate; phases: Liquid mixture 1, Liquid mixture 2
Fixed: Pressure, kPa = 101
Fixed: Temperature, K = 298.15
Property: Mass fraction of 1-ethyl-3-methylimidazolium ethyl sulfate (Liquid mixture 1); method: Titration method
Mass fraction of sodium carbonate	Mass fraction of 1-ethyl-3-methylimidazolium ethyl sulfate	uncertainty
0.0151	0.5112	0.0356
0.032	0.4134	0.0314
0.0511	0.3423	0.0256
0.0116	0.5266	0.0344
0.0304	0.429	0.0315
0.05	0.345	0.0257
0.0649	0.2873	0.0213
0.0796	0.2528	0.0155
0.0936	0.2282	0.0149
0.1067	0.1985	0.015
0.1139	0.1862	0.0132
0.1222	0.1713	0.013
0.1269	0.1636	0.0122
0.1329	0.1532	0.0117
0.1424	0.1408	0.0126
0.1487	0.1255	0.0124
0.1571	0.1154	0.0108
0.1655	0.1021	0.0135
0.1716	0.0866	0.0097
0.1824	0.0804	0.0081
0.1885	0.0721	0.0099
0.1951	0.0642	0.0095

System: sodium carbonate + water + 1-ethyl-3-methylimidazolium ethyl sulfate; phases: Liquid mixture 1, Liquid mixture 2
Property: Mass fraction of sodium carbonate (Liquid mixture 1); method: Phase equilibration
Property: Mass fraction of sodium carbonate (Liquid mixture 2); method: Phase equilibration
Property: Mass fraction of 1-ethyl-3-methylimidazolium ethyl sulfate (Liquid mixture 2); method: Phase equilibration
Pressure, kPa	Mass fraction of 1-ethyl-3-methylimidazolium ethyl sulfate	Temperature, K	Mass fraction of sodium carbonate	uncertainty	Mass fraction of sodium carbonate	uncertainty	Mass fraction of 1-ethyl-3-methylimidazolium ethyl sulfate	uncertainty
101	0.3955	298.15	0.0359	0.006	0.1997	0.0073	0.0489	

System: water + ammonium sulfate + 1-ethyl-3-methylimidazolium ethyl sulfate; phases: Liquid mixture 1, Liquid mixture 2
Fixed: Pressure, kPa = 101
Fixed: Temperature, K = 298.15
Property: Mass fraction of 1-ethyl-3-methylimidazolium ethyl sulfate (Liquid mixture 1); method: Titration method
Mass fraction of ammonium sulfate	Mass fraction of 1-ethyl-3-methylimidazolium ethyl sulfate	uncertainty
0.0584	0.4706	0.0269
0.08	0.3891	0.0202
0.0997	0.3624	0.0146
0.1333	0.3134	0.0136
0.1718	0.2616	0.0132
0.201	0.2102	0.0119
0.2234	0.1911	0.0108
0.2424	0.1602	0.0125
0.247	0.1511	0.0117
0.2499	0.147	0.0112
0.2722	0.1173	0.0097
0.2842	0.1085	0.008
0.293	0.1021	0.0075
0.3033	0.0972	0.0073
0.3104	0.0928	0.0076
0.3169	0.0883	0.0085
0.3345	0.0711	0.0083
0.3611	0.0487	0.008

System: water + ammonium sulfate + 1-ethyl-3-methylimidazolium ethyl sulfate; phases: Liquid mixture 2, Liquid mixture 1
Fixed: Pressure, kPa = 101
Fixed: Temperature, K = 298.15
Property: Mass fraction of ammonium sulfate (Liquid mixture 2); method: Phase equilibration
Property: Mass fraction of ammonium sulfate (Liquid mixture 1); method: Phase equilibration
Property: Mass fraction of 1-ethyl-3-methylimidazolium ethyl sulfate (Liquid mixture 1); method: Phase equilibration
Mass fraction of 1-ethyl-3-methylimidazolium ethyl sulfate	Mass fraction of ammonium sulfate	uncertainty	Mass fraction of ammonium sulfate	uncertainty	Mass fraction of 1-ethyl-3-methylimidazolium ethyl sulfate	uncertainty
0.0441	0.3698	0.0099	0.0275	0.006	0.5693	
0.0829	0.3158	0.009	0.0402	0.0061	0.5166	

System: water + tripotassium phosphate + 3-ethyl-1-methyl-1H-imidazolium hexyl sulfate; phases: Liquid mixture 1, Liquid mixture 2
Fixed: Pressure, kPa = 101
Fixed: Temperature, K = 298.15
Property: Mass fraction of 3-ethyl-1-methyl-1H-imidazolium hexyl sulfate (Liquid mixture 1); method: Titration method
Mass fraction of tripotassium phosphate	Mass fraction of 3-ethyl-1-methyl-1H-imidazolium hexyl sulfate	uncertainty
0.0417	0.4715	0.0311
0.0509	0.4295	0.0301
0.0588	0.3949	0.0272
0.064	0.3643	0.0275
0.0718	0.3452	0.022
0.0772	0.3289	0.0207
0.0814	0.3103	0.0227
0.0871	0.2966	0.0216
0.091	0.281	0.0219
0.0954	0.2715	0.019
0.0979	0.2565	0.0172
0.1092	0.2361	0.0171
0.1144	0.2148	0.0168
0.1251	0.1913	0.015
0.1353	0.1706	0.0146
0.1422	0.1558	0.0144
0.1475	0.1439	0.0144
0.155	0.1299	0.0133
0.1594	0.1202	0.0134
0.1646	0.1119	0.0122
0.1688	0.1034	0.0115
0.1753	0.0956	0.0112
0.1817	0.0839	0.0107
0.1899	0.0745	0.0097
0.196	0.0663	0.0093
0.2051	0.0571	0.0086
0.2102	0.0507	0.0087
0.2171	0.0452	0.0078
0.2217	0.0406	0.0081

System: water + tripotassium phosphate + 3-ethyl-1-methyl-1H-imidazolium hexyl sulfate; phases: Liquid mixture 1, Liquid mixture 2
Fixed: Pressure, kPa = 101
Fixed: Temperature, K = 298.15
Property: Mass fraction of tripotassium phosphate (Liquid mixture 1); method: Phase equilibration
Property: Mass fraction of 3-ethyl-1-methyl-1H-imidazolium hexyl sulfate (Liquid mixture 2); method: Phase equilibration
Property: Mass fraction of tripotassium phosphate (Liquid mixture 2); method: Phase equilibration
Mass fraction of 3-ethyl-1-methyl-1H-imidazolium hexyl sulfate	Mass fraction of tripotassium phosphate	uncertainty	Mass fraction of 3-ethyl-1-methyl-1H-imidazolium hexyl sulfate	uncertainty	Mass fraction of tripotassium phosphate	uncertainty
0.4908	0.0387	0.0061	0.0332	0.006	0.2286	
0.6925	0.0148	0.006	0.0017	0.0017	0.3225	
0.5761	0.0263	0.0061	0.0037	0.0037	0.3019	

System: potassium carbonate + water + 3-ethyl-1-methyl-1H-imidazolium hexyl sulfate; phases: Liquid mixture 1, Liquid mixture 2
Fixed: Pressure, kPa = 101
Fixed: Temperature, K = 298.15
Property: Mass fraction of 3-ethyl-1-methyl-1H-imidazolium hexyl sulfate (Liquid mixture 1); method: Titration method
Mass fraction of potassium carbonate	Mass fraction of 3-ethyl-1-methyl-1H-imidazolium hexyl sulfate	uncertainty
0.0234	0.6177	0.0334
0.0394	0.5349	0.0354
0.0524	0.4614	0.0323
0.063	0.4218	0.0226
0.0728	0.3997	0.0216
0.0808	0.3696	0.0255
0.0877	0.3438	0.0235
0.0931	0.3219	0.0236
0.1003	0.3026	0.0144
0.1122	0.2894	0.0149
0.1169	0.2729	0.0159
0.1221	0.2624	0.0194
0.1252	0.2491	0.0182
0.1333	0.23	0.017
0.139	0.2127	0.017
0.1455	0.2002	0.017
0.1543	0.1751	0.0173
0.1634	0.1542	0.0151
0.1717	0.1371	0.0134
0.1845	0.1142	0.0124
0.1931	0.1002	0.0118
0.2039	0.0825	0.0114
0.2124	0.0701	0.0105
0.2204	0.0595	0.0093
0.2281	0.052	0.0085
0.2341	0.046	0.0082
0.2383	0.0419	0.0081
0.2451	0.037	0.0075

System: potassium carbonate + water + 3-ethyl-1-methyl-1H-imidazolium hexyl sulfate; phases: Liquid mixture 1, Liquid mixture 2
Fixed: Pressure, kPa = 101
Fixed: Temperature, K = 298.15
Property: Mass fraction of potassium carbonate (Liquid mixture 1); method: Phase equilibration
Property: Mass fraction of potassium carbonate (Liquid mixture 2); method: Phase equilibration
Property: Mass fraction of 3-ethyl-1-methyl-1H-imidazolium hexyl sulfate (Liquid mixture 2); method: Phase equilibration
Mass fraction of 3-ethyl-1-methyl-1H-imidazolium hexyl sulfate	Mass fraction of potassium carbonate	uncertainty	Mass fraction of potassium carbonate	uncertainty	Mass fraction of 3-ethyl-1-methyl-1H-imidazolium hexyl sulfate	uncertainty
0.5206	0.0403	0.0062	0.2535	0.0117	0.0288	
0.3155	0.0991	0.0064	0.2265	0.0077	0.0539	
0.6225	0.0229	0.006	0.288	0.0086	0.0109	

System: sodium carbonate + water + 3-ethyl-1-methyl-1H-imidazolium hexyl sulfate; phases: Liquid mixture 1, Liquid mixture 2
Fixed: Pressure, kPa = 101
Fixed: Temperature, K = 298.15
Property: Mass fraction of 3-ethyl-1-methyl-1H-imidazolium hexyl sulfate (Liquid mixture 1); method: Titration method
Mass fraction of sodium carbonate	Mass fraction of 3-ethyl-1-methyl-1H-imidazolium hexyl sulfate	uncertainty
0.0071	0.6573	0.082
0.008	0.6326	0.0707
0.0145	0.5571	0.0561
0.0201	0.5165	0.0538
0.0245	0.4809	0.0449
0.0295	0.4483	0.0403
0.0341	0.4189	0.0378
0.0412	0.3829	0.0303
0.0465	0.3562	0.0303
0.055	0.3221	0.0263
0.061	0.2975	0.0262
0.0677	0.2715	0.0245
0.0745	0.2469	0.0218
0.0835	0.2193	0.0201
0.0893	0.2002	0.0201
0.0972	0.1781	0.019
0.1044	0.1567	0.0183
0.1118	0.1375	0.0176
0.12	0.115	0.0171
0.13	0.09	0.0114
0.156	0.0564	0.0099
0.1613	0.0489	0.0094
0.1685	0.0404	0.0086
0.1779	0.0319	0.0081
0.184	0.0264	0.007
0.1883	0.0201	0.007
0.2057	0.0149	0.0063

System: sodium carbonate + water + 3-ethyl-1-methyl-1H-imidazolium hexyl sulfate; phases: Liquid mixture 1, Liquid mixture 2
Fixed: Pressure, kPa = 101
Fixed: Temperature, K = 298.15
Property: Mass fraction of sodium carbonate (Liquid mixture 1); method: Phase equilibration
Property: Mass fraction of sodium carbonate (Liquid mixture 2); method: Phase equilibration
Property: Mass fraction of 3-ethyl-1-methyl-1H-imidazolium hexyl sulfate (Liquid mixture 2); method: Phase equilibration
Mass fraction of 3-ethyl-1-methyl-1H-imidazolium hexyl sulfate	Mass fraction of sodium carbonate	uncertainty	Mass fraction of sodium carbonate	uncertainty	Mass fraction of 3-ethyl-1-methyl-1H-imidazolium hexyl sulfate	uncertainty
0.3399	0.0503	0.0061	0.1693	0.007	0.0341	
0.5157	0.0192	0.006	0.1985	0.0073	0.0117	

System: water + ammonium sulfate + 3-ethyl-1-methyl-1H-imidazolium hexyl sulfate; phases: Liquid mixture 1, Liquid mixture 2
Fixed: Pressure, kPa = 101
Fixed: Temperature, K = 298.15
Property: Mass fraction of 3-ethyl-1-methyl-1H-imidazolium hexyl sulfate (Liquid mixture 1); method: Titration method
Mass fraction of ammonium sulfate	Mass fraction of 3-ethyl-1-methyl-1H-imidazolium hexyl sulfate	uncertainty
0.05	0.5517	0.032
0.0697	0.4574	0.0296
0.0788	0.4297	0.0239
0.0854	0.4056	0.0243
0.0909	0.3836	0.0241
0.1027	0.3473	0.021
0.1085	0.3306	0.0189
0.1144	0.3147	0.0174
0.1258	0.2946	0.0169
0.1302	0.2824	0.017
0.1338	0.2708	0.0175
0.1379	0.2599	0.0171
0.1458	0.2455	0.0156
0.1485	0.2375	0.0154
0.1513	0.2284	0.0153
0.1616	0.2107	0.0137
0.17	0.1947	0.0143
0.1764	0.1818	0.0147
0.1822	0.1703	0.0145
0.1921	0.1492	0.0137
0.2043	0.1274	0.0119
0.215	0.1128	0.0105
0.2241	0.1011	0.0102
0.2321	0.0907	0.0098
0.2467	0.0733	0.0092
0.2595	0.0604	0.0081
0.2704	0.0527	0.0076
0.2853	0.0414	0.0076

System: water + ammonium sulfate + 3-ethyl-1-methyl-1H-imidazolium hexyl sulfate; phases: Liquid mixture 1, Liquid mixture 2
Fixed: Pressure, kPa = 101
Fixed: Temperature, K = 298.15
Property: Mass fraction of ammonium sulfate (Liquid mixture 1); method: Phase equilibration
Property: Mass fraction of 3-ethyl-1-methyl-1H-imidazolium hexyl sulfate (Liquid mixture 2); method: Phase equilibration
Property: Mass fraction of ammonium sulfate (Liquid mixture 2); method: Phase equilibration
Mass fraction of 3-ethyl-1-methyl-1H-imidazolium hexyl sulfate	Mass fraction of ammonium sulfate	uncertainty	Mass fraction of 3-ethyl-1-methyl-1H-imidazolium hexyl sulfate	uncertainty	Mass fraction of ammonium sulfate	uncertainty
0.5982	0.0411	0.0062	0.0352	0.007	0.2897	
0.4621	0.0693	0.0062	0.0462	0.0061	0.275	
0.6853	0.0287	0.006	0.0174	0.006	0.3232	

System: water + tripotassium phosphate + 3-ethyl-1-methylimidazolium butyl sulfate; phases: Liquid mixture 1, Liquid mixture 2
Fixed: Pressure, kPa = 101
Fixed: Temperature, K = 298.15
Property: Mass fraction of 3-ethyl-1-methylimidazolium butyl sulfate (Liquid mixture 1); method: Titration method
Mass fraction of tripotassium phosphate	Mass fraction of 3-ethyl-1-methylimidazolium butyl sulfate	uncertainty
0.0646	0.3849	0.0225
0.081	0.3338	0.0195
0.1119	0.258	0.0162
0.1419	0.2002	0.0143
0.1682	0.1478	0.0135
0.1839	0.1208	0.0121
0.1941	0.105	0.0116
0.2026	0.0911	0.0105
0.2083	0.0833	0.0108
0.2141	0.0775	0.0094
0.2178	0.0708	0.0091
0.2285	0.0614	0.0083
0.2355	0.0545	0.0083
0.2437	0.0475	0.0081
0.2473	0.0424	0.0081
0.2565	0.0361	0.0073

System: water + tripotassium phosphate + 3-ethyl-1-methylimidazolium butyl sulfate; phases: Liquid mixture 1, Liquid mixture 2
Fixed: Pressure, kPa = 101
Fixed: Temperature, K = 298.15
Property: Mass fraction of tripotassium phosphate (Liquid mixture 1); method: Phase equilibration
Property: Mass fraction of 3-ethyl-1-methylimidazolium butyl sulfate (Liquid mixture 2); method: Phase equilibration
Property: Mass fraction of tripotassium phosphate (Liquid mixture 2); method: Phase equilibration
Mass fraction of 3-ethyl-1-methylimidazolium butyl sulfate	Mass fraction of tripotassium phosphate	uncertainty	Mass fraction of 3-ethyl-1-methylimidazolium butyl sulfate	uncertainty	Mass fraction of tripotassium phosphate	uncertainty
0.3391	0.0798	0.0062	0.0411	0.0061	0.2492	
0.535	0.028	0.0062	0.0217	0.0068	0.2782	
0.6648	0.0115	0.006	0.0091	0.006	0.3109	

System: potassium carbonate + water + 3-ethyl-1-methylimidazolium butyl sulfate; phases: Liquid mixture 1, Liquid mixture 2
Fixed: Pressure, kPa = 101
Fixed: Temperature, K = 298.15
Property: Mass fraction of 3-ethyl-1-methylimidazolium butyl sulfate (Liquid mixture 1); method: Titration method
Mass fraction of potassium carbonate	Mass fraction of 3-ethyl-1-methylimidazolium butyl sulfate	uncertainty
0.0967	0.3443	0.0185
0.115	0.3	0.0168
0.135	0.26	0.0158
0.143	0.24	0.0159
0.159	0.207	0.0149
0.1794	0.1652	0.0136
0.1974	0.1352	0.0119
0.2162	0.1069	0.0094
0.2436	0.0837	0.0086
0.2464	0.0784	0.0089
0.2522	0.0715	0.0108
0.2583	0.0623	0.0089
0.2675	0.0551	0.0082
0.2766	0.0457	0.0093
0.2818	0.04	0.0088
0.2839	0.0358	0.0102

System: potassium carbonate + water + 3-ethyl-1-methylimidazolium butyl sulfate; phases: Liquid mixture 1, Liquid mixture 2
Fixed: Pressure, kPa = 101
Fixed: Temperature, K = 298.15
Property: Mass fraction of potassium carbonate (Liquid mixture 1); method: Phase equilibration
Property: Mass fraction of 3-ethyl-1-methylimidazolium butyl sulfate (Liquid mixture 2); method: Phase equilibration
Property: Mass fraction of potassium carbonate (Liquid mixture 2); method: Phase equilibration
Mass fraction of 3-ethyl-1-methylimidazolium butyl sulfate	Mass fraction of potassium carbonate	uncertainty	Mass fraction of 3-ethyl-1-methylimidazolium butyl sulfate	uncertainty	Mass fraction of potassium carbonate	uncertainty
0.373	0.0871	0.0063	0.0349	0.006	0.292	
0.5819	0.0349	0.0062	0.0256	0.0066	0.3079	
0.6715	0.0223	0.006	0.0116	0.006	0.3436	

System: sodium carbonate + water + 3-ethyl-1-methylimidazolium butyl sulfate; phases: Liquid mixture 1, Liquid mixture 2
Fixed: Pressure, kPa = 101
Fixed: Temperature, K = 298.15
Property: Mass fraction of 3-ethyl-1-methylimidazolium butyl sulfate (Liquid mixture 1); method: Titration method
Mass fraction of sodium carbonate	Mass fraction of 3-ethyl-1-methylimidazolium butyl sulfate	uncertainty
0.0105	0.5339	0.0373
0.0259	0.4457	0.0378
0.04	0.3614	0.0253
0.0762	0.2503	0.0198
0.0908	0.2152	0.017
0.1	0.192	0.0173
0.1107	0.1646	0.0162
0.1154	0.1514	0.0163
0.1245	0.1334	0.0138
0.1345	0.1136	0.0136
0.1413	0.1004	0.0127
0.147	0.0908	0.0119
0.1517	0.0823	0.0108
0.1571	0.076	0.0105
0.1564	0.0773	0.0105
0.166	0.0643	0.0098
0.1746	0.0539	0.0089
0.1834	0.0458	0.0084
0.1933	0.0362	0.0084

System: sodium carbonate + water + 3-ethyl-1-methylimidazolium butyl sulfate; phases: Liquid mixture 2, Liquid mixture 1
Fixed: Temperature, K = 298.15
Fixed: Pressure, kPa = 101.3
Property: Mass fraction of sodium carbonate (Liquid mixture 2); method: Phase equilibration
Property: Mass fraction of sodium carbonate (Liquid mixture 1); method: Phase equilibration
Property: Mass fraction of 3-ethyl-1-methylimidazolium butyl sulfate (Liquid mixture 1); method: Phase equilibration
Mass fraction of 3-ethyl-1-methylimidazolium butyl sulfate	Mass fraction of sodium carbonate	uncertainty	Mass fraction of sodium carbonate	uncertainty	Mass fraction of 3-ethyl-1-methylimidazolium butyl sulfate	uncertainty
0.0327	0.1996	0.0073	0.0493	0.0061	0.3218	
0.028	0.2019	0.0074	0.0294	0.006	0.4065	

System: water + ammonium sulfate + 3-ethyl-1-methylimidazolium butyl sulfate; phases: Liquid mixture 1, Liquid mixture 2
Fixed: Pressure, kPa = 101
Fixed: Temperature, K = 298.15
Property: Mass fraction of 3-ethyl-1-methylimidazolium butyl sulfate (Liquid mixture 1); method: Titration method
Mass fraction of ammonium sulfate	Mass fraction of 3-ethyl-1-methylimidazolium butyl sulfate	uncertainty
0.0201	0.6483	0.0268
0.0559	0.5042	0.0278
0.073	0.4457	0.0233
0.0917	0.3928	0.0193
0.1069	0.3634	0.0189
0.1162	0.3312	0.0194
0.1272	0.3093	0.0162
0.136	0.2908	0.0146
0.1597	0.2515	0.0141
0.1715	0.2277	0.0147
0.1874	0.1973	0.014
0.2042	0.1656	0.0121
0.2228	0.1413	0.0112
0.2323	0.125	0.0111
0.2416	0.1144	0.0102
0.2506	0.1017	0.0098
0.2656	0.0851	0.0091
0.2823	0.0678	0.0085
0.2926	0.0597	0.0076
0.3026	0.0532	0.0074
0.3149	0.0446	0.0084
0.3219	0.0339	0.011

System: water + ammonium sulfate + 3-ethyl-1-methylimidazolium butyl sulfate; phases: Liquid mixture 1, Liquid mixture 2
Fixed: Pressure, kPa = 101
Fixed: Temperature, K = 298.15
Property: Mass fraction of ammonium sulfate (Liquid mixture 1); method: Phase equilibration
Property: Mass fraction of ammonium sulfate (Liquid mixture 2); method: Phase equilibration
Property: Mass fraction of 3-ethyl-1-methylimidazolium butyl sulfate (Liquid mixture 2); method: Phase equilibration
Mass fraction of 3-ethyl-1-methylimidazolium butyl sulfate	Mass fraction of ammonium sulfate	uncertainty	Mass fraction of ammonium sulfate	uncertainty	Mass fraction of 3-ethyl-1-methylimidazolium butyl sulfate	uncertainty
0.4259	0.0785	0.0067	0.356	0.0096	0.0342	
0.3109	0.1286	0.0066	0.3448	0.0095	0.0216	
0.4852	0.058	0.0061	0.36	0.0097	0.0156	

System: water + tripotassium phosphate + 1-ethyl-3-methylimidazolium octyl sulfate; phases: Liquid mixture 1, Liquid mixture 2
Fixed: Pressure, kPa = 101
Fixed: Temperature, K = 298.15
Property: Mass fraction of 1-ethyl-3-methylimidazolium octyl sulfate (Liquid mixture 1); method: Titration method
Mass fraction of tripotassium phosphate	Mass fraction of 1-ethyl-3-methylimidazolium octyl sulfate	uncertainty
0.0423	0.4682	0.0325
0.052	0.4212	0.0318
0.0592	0.387	0.0278
0.071	0.3418	0.0238
0.0768	0.3182	0.024
0.0835	0.3021	0.0208
0.0891	0.2884	0.0203
0.1	0.2498	0.0222
0.1071	0.228	0.0173
0.1127	0.2125	0.0176
0.1194	0.2011	0.0151
0.1264	0.1836	0.0175
0.1311	0.168	0.0168
0.1367	0.1563	0.0168
0.1438	0.1401	0.0148
0.1512	0.1249	0.0132
0.1573	0.1149	0.0124
0.1641	0.1026	0.0123
0.1696	0.0917	0.0123
0.1761	0.0825	0.0105
0.1838	0.0721	0.0097
0.1957	0.0585	0.0093
0.2029	0.05	0.0088
0.2112	0.0421	0.0081
0.2197	0.0351	0.0078
0.2249	0.0312	0.0077

System: water + tripotassium phosphate + 1-ethyl-3-methylimidazolium octyl sulfate; phases: Liquid mixture 1, Liquid mixture 2
Fixed: Pressure, kPa = 101
Fixed: Temperature, K = 298.15
Property: Mass fraction of tripotassium phosphate (Liquid mixture 1); method: Phase equilibration
Property: Mass fraction of 1-ethyl-3-methylimidazolium octyl sulfate (Liquid mixture 2); method: Phase equilibration
Property: Mass fraction of tripotassium phosphate (Liquid mixture 2); method: Phase equilibration
Mass fraction of 1-ethyl-3-methylimidazolium octyl sulfate	Mass fraction of tripotassium phosphate	uncertainty	Mass fraction of 1-ethyl-3-methylimidazolium octyl sulfate	uncertainty	Mass fraction of tripotassium phosphate	uncertainty
0.521	0.0325	0.0061	0.0237	0.0072	0.2308	
0.3676	0.0663	0.0062	0.046	0.0061	0.2045	
0.6259	0.0201	0.006	0.0097	0.006	0.26	

System: potassium carbonate + water + 1-ethyl-3-methylimidazolium octyl sulfate; phases: Liquid mixture 1, Liquid mixture 2
Fixed: Pressure, kPa = 101
Fixed: Temperature, K = 298.15
Property: Mass fraction of 1-ethyl-3-methylimidazolium octyl sulfate (Liquid mixture 1); method: Titration method
Mass fraction of potassium carbonate	Mass fraction of 1-ethyl-3-methylimidazolium octyl sulfate	uncertainty
0.0412	0.4797	0.0197
0.0586	0.4422	0.0219
0.068	0.4013	0.029
0.0766	0.3641	0.0229
0.0933	0.3169	0.0218
0.0975	0.2959	0.0215
0.1149	0.2437	0.0193
0.1321	0.198	0.0176
0.1449	0.1657	0.0157
0.156	0.1436	0.0137
0.1649	0.127	0.0136
0.1718	0.1129	0.0124
0.1778	0.1017	0.0125
0.1862	0.0899	0.0111
0.1957	0.0751	0.0109
0.2043	0.0633	0.0101
0.2112	0.0546	0.0094
0.2173	0.0481	0.009
0.2235	0.0412	0.0089
0.2295	0.0348	0.0089
0.2328	0.0314	0.0088

System: potassium carbonate + water + 1-ethyl-3-methylimidazolium octyl sulfate; phases: Liquid mixture 1, Liquid mixture 2
Fixed: Pressure, kPa = 101
Fixed: Temperature, K = 298.15
Property: Mass fraction of potassium carbonate (Liquid mixture 1); method: Phase equilibration
Property: Mass fraction of potassium carbonate (Liquid mixture 2); method: Phase equilibration
Property: Mass fraction of 1-ethyl-3-methylimidazolium octyl sulfate (Liquid mixture 2); method: Phase equilibration
Mass fraction of 1-ethyl-3-methylimidazolium octyl sulfate	Mass fraction of potassium carbonate	uncertainty	Mass fraction of potassium carbonate	uncertainty	Mass fraction of 1-ethyl-3-methylimidazolium octyl sulfate	uncertainty
0.3437	0.0867	0.0063	0.2305	0.0077	0.0308	
0.5112	0.0378	0.0061	0.2499	0.008	0.0173	

System: sodium carbonate + water + 1-ethyl-3-methylimidazolium octyl sulfate; phases: Liquid mixture 1, Liquid mixture 2
Fixed: Pressure, kPa = 101
Fixed: Temperature, K = 298.15
Property: Mass fraction of 1-ethyl-3-methylimidazolium octyl sulfate (Liquid mixture 1); method: Titration method
Mass fraction of sodium carbonate	Mass fraction of 1-ethyl-3-methylimidazolium octyl sulfate	uncertainty
0.0193	0.5281	0.0427
0.0297	0.4586	0.0415
0.0328	0.4529	0.0396
0.0375	0.41	0.037
0.0425	0.3842	0.0377
0.0462	0.3632	0.0308
0.0512	0.3441	0.0308
0.0553	0.3257	0.0262
0.0581	0.3098	0.0264
0.0651	0.2881	0.0236
0.073	0.2571	0.0251
0.0806	0.2279	0.024
0.0886	0.1989	0.0202
0.0937	0.1815	0.0204
0.102	0.1615	0.0198
0.1041	0.1442	0.0184
0.11	0.1316	0.0198
0.1175	0.1137	0.0156
0.1216	0.1035	0.0145
0.125	0.0965	0.0135
0.1303	0.0884	0.0127
0.1344	0.0804	0.0121
0.1385	0.0729	0.0117
0.144	0.0641	0.0114
0.1504	0.0553	0.0099
0.1556	0.0485	0.0097
0.1604	0.0429	0.0094
0.1646	0.0385	0.009
0.1676	0.0348	0.0091

System: sodium carbonate + water + 1-ethyl-3-methylimidazolium octyl sulfate; phases: Liquid mixture 1, Liquid mixture 2
Fixed: Pressure, kPa = 101
Fixed: Temperature, K = 298.15
Property: Mass fraction of sodium carbonate (Liquid mixture 1); method: Phase equilibration
Property: Mass fraction of sodium carbonate (Liquid mixture 2); method: Phase equilibration
Property: Mass fraction of 1-ethyl-3-methylimidazolium octyl sulfate (Liquid mixture 2); method: Phase equilibration
Mass fraction of 1-ethyl-3-methylimidazolium octyl sulfate	Mass fraction of sodium carbonate	uncertainty	Mass fraction of sodium carbonate	uncertainty	Mass fraction of 1-ethyl-3-methylimidazolium octyl sulfate	uncertainty
0.3671	0.0458	0.0061	0.1572	0.0069	0.0402	
0.4875	0.0264	0.0061	0.1797	0.0105	0.0175	
0.6014	0.0114	0.006	0.2021	0.0074	0.0069	

System: water + ammonium sulfate + 1-ethyl-3-methylimidazolium octyl sulfate; phases: Liquid mixture 1, Liquid mixture 2
Fixed: Pressure, kPa = 101
Fixed: Temperature, K = 298.15
Property: Mass fraction of 1-ethyl-3-methylimidazolium octyl sulfate (Liquid mixture 1); method: Titration method
Mass fraction of ammonium sulfate	Mass fraction of 1-ethyl-3-methylimidazolium octyl sulfate	uncertainty
0.0333	0.6174	0.0255
0.0466	0.568	0.0314
0.0564	0.5069	0.0321
0.0671	0.4712	0.0247
0.0834	0.4171	0.0263
0.0955	0.3629	0.0243
0.1075	0.3319	0.0216
0.1194	0.2894	0.0201
0.1317	0.2619	0.0166
0.1414	0.2396	0.0162
0.1503	0.2202	0.0162
0.1555	0.2011	0.0159
0.1689	0.1772	0.0136
0.1803	0.1552	0.0136
0.1914	0.1347	0.0134
0.1978	0.1218	0.0123
0.2062	0.1095	0.0111
0.2131	0.0994	0.0106
0.2176	0.0906	0.0107
0.2256	0.0825	0.0096
0.2314	0.0741	0.0093
0.2367	0.0679	0.0095
0.2436	0.0612	0.0086
0.2501	0.0546	0.0081
0.2555	0.0501	0.0081
0.2617	0.0455	0.0076
0.2669	0.0407	0.0076
0.2732	0.0368	0.0071

System: water + ammonium sulfate + 1-ethyl-3-methylimidazolium octyl sulfate; phases: Liquid mixture 1, Liquid mixture 2
Fixed: Pressure, kPa = 101
Fixed: Temperature, K = 298.15
Property: Mass fraction of ammonium sulfate (Liquid mixture 1); method: Phase equilibration
Property: Mass fraction of ammonium sulfate (Liquid mixture 2); method: Phase equilibration
Property: Mass fraction of 1-ethyl-3-methylimidazolium octyl sulfate (Liquid mixture 2); method: Phase equilibration
Mass fraction of 1-ethyl-3-methylimidazolium octyl sulfate	Mass fraction of ammonium sulfate	uncertainty	Mass fraction of ammonium sulfate	uncertainty	Mass fraction of 1-ethyl-3-methylimidazolium octyl sulfate	uncertainty
0.2959	0.1208	0.0065	0.2642	0.0082	0.039	
0.4413	0.0752	0.0062	0.2819	0.0085	0.0262	
