Measured thermophysical data. Solubility and preferential solvation of some n-alkyl-parabens in methanol + water mixtures at 298.15 K
Source: J. Chem. Thermodyn., 2017, 10.1016/j.jct.2017.01.005
Compound 1: methyl 4-hydroxybenzoate, C8H8O3, InChI=1S/C8H8O3/c1-11-8(10)6-2-4-7(9)5-3-6/h2-5,9H,1H3, purity 99%
Compound 2: ethyl 4-hydroxybenzoate, C9H10O3, InChI=1S/C9H10O3/c1-2-12-9(11)7-3-5-8(10)6-4-7/h3-6,10H,2H2,1H3, purity 99%
Compound 3: propyl 4-hydroxybenzoate, C10H12O3, InChI=1S/C10H12O3/c1-2-7-13-10(12)8-3-5-9(11)6-4-8/h3-6,11H,2,7H2,1H3, purity 99%
Compound 4: methanol, CH4O, InChI=1S/CH4O/c1-2/h2H,1H3, purity 99.8%
Compound 5: water, H2O, InChI=1S/H2O/h1H2

System: methyl 4-hydroxybenzoate; phases: Crystal, Liquid, Air at 1 atmosphere
Property: Normal melting temperature, K (Crystal); method: DTA
Normal melting temperature, K	uncertainty
398.9	1.1

System: methyl 4-hydroxybenzoate; phases: Crystal, Liquid, Air at 1 atmosphere
Property: Molar enthalpy of transition or fusion, kJ/mol (Crystal); method: DSC
Molar enthalpy of transition or fusion, kJ/mol	uncertainty
25.7	1.1

System: ethyl 4-hydroxybenzoate; phases: Crystal, Liquid, Air at 1 atmosphere
Property: Normal melting temperature, K (Crystal); method: DTA
Normal melting temperature, K	uncertainty
388.8	1.1

System: ethyl 4-hydroxybenzoate; phases: Crystal, Liquid, Air at 1 atmosphere
Property: Molar enthalpy of transition or fusion, kJ/mol (Crystal); method: DSC
Molar enthalpy of transition or fusion, kJ/mol	uncertainty
27.3	1.1

System: propyl 4-hydroxybenzoate; phases: Crystal, Liquid, Air at 1 atmosphere
Property: Normal melting temperature, K (Crystal); method: DTA
Normal melting temperature, K	uncertainty
369.4	1.1

System: propyl 4-hydroxybenzoate; phases: Crystal, Liquid, Air at 1 atmosphere
Property: Molar enthalpy of transition or fusion, kJ/mol (Crystal); method: DSC
Molar enthalpy of transition or fusion, kJ/mol	uncertainty
28.4	1.3

System: methanol + methyl 4-hydroxybenzoate + water; phases: Liquid, Crystal
Fixed: Temperature, K = 298.15
Fixed: Pressure, kPa = 73.9
Property: Mole fraction of methyl 4-hydroxybenzoate (Liquid); method: UV Spectrophotometry
Solvent: Mass fraction of methanol	Mole fraction of methyl 4-hydroxybenzoate	uncertainty
0	0.00024	1.4e-05
0.1	0.000395	2.4e-05
0.2	0.000741	4.5e-05
0.3	0.0019	0.00011
0.4	0.005	0.0003

System: methanol + methyl 4-hydroxybenzoate + water; phases: Liquid, Crystal
Fixed: Temperature, K = 298.15
Fixed: Pressure, kPa = 73.9
Property: Mole fraction of methyl 4-hydroxybenzoate (Liquid); method: Gravimetric
Solvent: Mass fraction of methanol	Mole fraction of methyl 4-hydroxybenzoate	uncertainty
0.5	0.0119	0.0007
0.6	0.0239	0.0014
0.7	0.0398	0.0024
0.8	0.06	0.0036
0.9	0.0869	0.0052
1	0.121	0.007

System: methanol + methyl 4-hydroxybenzoate + water; phases: Liquid
Fixed: Pressure, kPa = 73.9
Fixed: Temperature, K = 298.15
Property: Mass density, kg/m3 (Liquid); method: Vibrating tube method
Solvent: Mass fraction of methanol	Mole fraction of methyl 4-hydroxybenzoate	Mass density, kg/m3	uncertainty
0	0.00024	997.3	1.4
0.1	0.000395	980.5	1.5
0.2	0.000741	967.8	1.4
0.3	0.0019	951.7	1.4
0.4	0.005	940.5	1.5
0.5	0.0119	931.8	1.8
0.6	0.0239	930.9	2.1
0.7	0.0398	932.7	2.3
0.8	0.06	934.4	1.4
0.9	0.0869	931.1	1.5
1	0.121	925.7	1.5

System: methanol + ethyl 4-hydroxybenzoate + water; phases: Liquid, Crystal
Fixed: Temperature, K = 298.15
Fixed: Pressure, kPa = 73.9
Property: Mole fraction of ethyl 4-hydroxybenzoate (Liquid); method: UV Spectrophotometry
Solvent: Mass fraction of methanol	Mole fraction of ethyl 4-hydroxybenzoate	uncertainty
0	9.86e-05	5.9e-06
0.1	0.000181	1.1e-05
0.2	0.00035	2.1e-05
0.3	0.000821	5e-05
0.4	0.0026	0.00016

System: methanol + ethyl 4-hydroxybenzoate + water; phases: Liquid, Crystal
Fixed: Temperature, K = 298.15
Fixed: Pressure, kPa = 73.9
Property: Mole fraction of ethyl 4-hydroxybenzoate (Liquid); method: Gravimetric
Solvent: Mass fraction of methanol	Mole fraction of ethyl 4-hydroxybenzoate	uncertainty
0.5	0.00843	0.00051
0.6	0.0236	0.0014
0.7	0.0496	0.003
0.8	0.0768	0.0046
0.9	0.107	0.006
1	0.136	0.008

System: methanol + ethyl 4-hydroxybenzoate + water; phases: Liquid
Fixed: Pressure, kPa = 73.9
Fixed: Temperature, K = 298.15
Property: Mass density, kg/m3 (Liquid); method: Vibrating tube method
Solvent: Mass fraction of methanol	Mole fraction of ethyl 4-hydroxybenzoate	Mass density, kg/m3	uncertainty
0	9.86e-05	997.1	1.4
0.1	0.000181	981	1.4
0.2	0.00035	966.3	1.4
0.3	0.000821	951.2	1.4
0.4	0.0026	938.5	1.4
0.5	0.00843	926.2	1.5
0.6	0.0236	920.7	1.8
0.7	0.0496	924.5	2.7
0.8	0.0768	929.4	2.6
0.9	0.107	930.6	3.3
1	0.136	928	2.7

System: methanol + propyl 4-hydroxybenzoate + water; phases: Liquid, Crystal
Fixed: Temperature, K = 298.15
Fixed: Pressure, kPa = 73.9
Property: Mole fraction of propyl 4-hydroxybenzoate (Liquid); method: UV Spectrophotometry
Solvent: Mass fraction of methanol	Mole fraction of propyl 4-hydroxybenzoate	uncertainty
0	3.73e-05	2.2e-06
0.1	7.45e-05	4.5e-06
0.2	0.000167	1e-05
0.3	0.000461	2.8e-05
0.4	0.00163	0.0001

System: methanol + propyl 4-hydroxybenzoate + water; phases: Liquid, Crystal
Fixed: Temperature, K = 298.15
Fixed: Pressure, kPa = 73.9
Property: Mole fraction of propyl 4-hydroxybenzoate (Liquid); method: Gravimetric
Solvent: Mass fraction of methanol	Mole fraction of propyl 4-hydroxybenzoate	uncertainty
0.5	0.0058	0.00036
0.6	0.0202	0.0012
0.7	0.0541	0.0033
0.8	0.0941	0.0057
0.9	0.134	0.008
1	0.171	0.01

System: methanol + propyl 4-hydroxybenzoate + water; phases: Liquid
Fixed: Pressure, kPa = 73.9
Fixed: Temperature, K = 298.15
Property: Mass density, kg/m3 (Liquid); method: Vibrating tube method
Solvent: Mass fraction of methanol	Mole fraction of propyl 4-hydroxybenzoate	Mass density, kg/m3	uncertainty
0	3.73e-05	997.1	1.4
0.1	7.45e-05	977	1.6
0.2	0.000167	966.1	1.4
0.3	0.000461	952	1.4
0.4	0.00163	934.1	1.4
0.5	0.0058	922.2	1.5
0.6	0.0202	917.1	1.7
0.7	0.0541	925.5	2.7
0.8	0.0941	939.2	4.4
0.9	0.134	943.9	3.7
1	0.171	943.6	3

System: methyl 4-hydroxybenzoate + water; phases: Liquid, Crystal
Property: Mole fraction of methyl 4-hydroxybenzoate (Liquid); method: UV Spectrophotometry
Temperature, K	Pressure, kPa	Mole fraction of methyl 4-hydroxybenzoate	uncertainty
298.15	73.9	0.00024	1.4e-05

System: methyl 4-hydroxybenzoate + water; phases: Liquid
Property: Mass density, kg/m3 (Liquid); method: Vibrating tube method
Mole fraction of methyl 4-hydroxybenzoate	Pressure, kPa	Temperature, K	Mass density, kg/m3	uncertainty
0.00024	73.9	298.15	997.3	1.4

System: ethyl 4-hydroxybenzoate + water; phases: Liquid, Crystal
Property: Mole fraction of ethyl 4-hydroxybenzoate (Liquid); method: UV Spectrophotometry
Temperature, K	Pressure, kPa	Mole fraction of ethyl 4-hydroxybenzoate	uncertainty
298.15	73.9	9.86e-05	5.9e-06

System: ethyl 4-hydroxybenzoate + water; phases: Liquid
Property: Mass density, kg/m3 (Liquid); method: Vibrating tube method
Mole fraction of ethyl 4-hydroxybenzoate	Pressure, kPa	Temperature, K	Mass density, kg/m3	uncertainty
9.86e-05	73.9	298.15	997.1	1.4

System: propyl 4-hydroxybenzoate + water; phases: Liquid, Crystal
Property: Mole fraction of propyl 4-hydroxybenzoate (Liquid); method: UV Spectrophotometry
Temperature, K	Pressure, kPa	Mole fraction of propyl 4-hydroxybenzoate	uncertainty
298.15	73.9	3.73e-05	2.2e-06

System: propyl 4-hydroxybenzoate + water; phases: Liquid
Property: Mass density, kg/m3 (Liquid); method: Vibrating tube method
Mole fraction of propyl 4-hydroxybenzoate	Pressure, kPa	Temperature, K	Mass density, kg/m3	uncertainty
3.73e-05	73.9	298.15	997.1	1.4

System: methanol + methyl 4-hydroxybenzoate; phases: Liquid, Crystal
Property: Mole fraction of methyl 4-hydroxybenzoate (Liquid); method: Gravimetric
Temperature, K	Pressure, kPa	Mole fraction of methyl 4-hydroxybenzoate	uncertainty
298.15	73.9	0.121	0.007

System: methanol + methyl 4-hydroxybenzoate; phases: Liquid
Property: Mass density, kg/m3 (Liquid); method: Vibrating tube method
Mole fraction of methyl 4-hydroxybenzoate	Pressure, kPa	Temperature, K	Mass density, kg/m3	uncertainty
0.121	73.9	298.15	925.7	1.5

System: methanol + ethyl 4-hydroxybenzoate; phases: Liquid, Crystal
Property: Mole fraction of ethyl 4-hydroxybenzoate (Liquid); method: Gravimetric
Temperature, K	Pressure, kPa	Mole fraction of ethyl 4-hydroxybenzoate	uncertainty
298.15	73.9	0.136	0.008

System: methanol + ethyl 4-hydroxybenzoate; phases: Liquid
Property: Mass density, kg/m3 (Liquid); method: Vibrating tube method
Mole fraction of ethyl 4-hydroxybenzoate	Pressure, kPa	Temperature, K	Mass density, kg/m3	uncertainty
0.136	73.9	298.15	928	2.7

System: methanol + propyl 4-hydroxybenzoate; phases: Liquid, Crystal
Property: Mole fraction of propyl 4-hydroxybenzoate (Liquid); method: Gravimetric
Temperature, K	Pressure, kPa	Mole fraction of propyl 4-hydroxybenzoate	uncertainty
298.15	73.9	0.171	0.01

System: methanol + propyl 4-hydroxybenzoate; phases: Liquid
Property: Mass density, kg/m3 (Liquid); method: Vibrating tube method
Mole fraction of propyl 4-hydroxybenzoate	Pressure, kPa	Temperature, K	Mass density, kg/m3	uncertainty
0.171	73.9	298.15	943.6	3
