Measured thermophysical data. Isobaric vapour-liquid equilibrium of (tert-butanol + water) system with biological buffer TRIS at 101.3 kPa
Source: J. Chem. Thermodyn., 2016, 10.1016/j.jct.2016.03.013
Compound 1: 2-amino-2-(hydroxymethyl)-1,3-propanediol, C4H11NO3, InChI=1S/C4H11NO3/c5-4(1-6,2-7)3-8/h6-8H,1-3,5H2, purity 99.9%
Compound 2: 2-methylpropan-2-ol, C4H10O, InChI=1S/C4H10O/c1-4(2,3)5/h5H,1-3H3, purity 99.5%
Compound 3: water, H2O, InChI=1S/H2O/h1H2, purity 99.9%

System: 2-methylpropan-2-ol; phases: Liquid, Gas
Property: Vapor or sublimation pressure, kPa (Liquid); method: Ebulliometric method (Recirculating still)
Temperature, K	Vapor or sublimation pressure, kPa	uncertainty
355.8	101.3	3.1

System: water; phases: Liquid, Gas
Property: Vapor or sublimation pressure, kPa (Liquid); method: Ebulliometric method (Recirculating still)
Temperature, K	Vapor or sublimation pressure, kPa	uncertainty
373.2	101.3	3.1

System: 2-methylpropan-2-ol + water; phases: Liquid, Gas
Fixed: Pressure, kPa = 101.3
Property: Boiling temperature at pressure P, K (Liquid); method: Ebulliometric method (Recirculating still)
Mole fraction of 2-methylpropan-2-ol	Boiling temperature at pressure P, K	uncertainty
0	373.2	0.6
0.012	361.7	0.7
0.026	356	0.7
0.043	354.5	0.6
0.063	353.8	0.6
0.113	353.8	0.6
0.204	353.6	0.6
0.294	353.6	0.6
0.362	353.5	0.6
0.486	353	0.6
0.521	352.8	0.6
0.552	352.7	0.6
0.661	352.6	0.6
0.72	352.7	0.6
0.776	352.9	0.6
0.824	353.2	0.7
0.857	353.5	0.7
1	355.8	0.6

System: 2-methylpropan-2-ol + water; phases: Gas, Liquid
Fixed: Pressure, kPa = 101.3
Property: Mole fraction of 2-methylpropan-2-ol (Gas); method: Chromatography
Mole fraction of 2-methylpropan-2-ol	Mole fraction of 2-methylpropan-2-ol	uncertainty
0	0	
0.012	0.36	0.017
0.026	0.479	0.02
0.043	0.53	0.022
0.063	0.535	0.022
0.113	0.543	0.022
0.204	0.543	0.022
0.294	0.545	0.022
0.362	0.56	0.023
0.486	0.586	0.024
0.521	0.599	0.026
0.552	0.614	0.026
0.661	0.658	0.03
0.72	0.702	0.034
0.776	0.733	0.037
0.824	0.775	0.043
0.857	0.807	0.046
1	1	

System: 2-methylpropan-2-ol + 2-amino-2-(hydroxymethyl)-1,3-propanediol + water; phases: Liquid, Gas
Fixed: Pressure, kPa = 101.3
Property: Mole fraction of water (Liquid); method: Chromatography
Property: Mole fraction of water (Gas); method: Chromatography
Property: Mole fraction of 2-methylpropan-2-ol (Gas); method: Chromatography
Temperature, K	Mole fraction of 2-methylpropan-2-ol	Mole fraction of water	uncertainty	Mole fraction of water	uncertainty	Mole fraction of 2-methylpropan-2-ol	uncertainty
353.9	0.078	0.912	0.036	0.445	0.018	0.555	
353.8	0.193	0.795	0.032	0.434	0.018	0.566	
353.7	0.291	0.694	0.028	0.434	0.018	0.566	
353.5	0.391	0.592	0.024	0.42	0.017	0.58	
353.2	0.473	0.508	0.021	0.412	0.017	0.588	
353.1	0.552	0.427	0.017	0.382	0.016	0.618	
353.1	0.596	0.382	0.016	0.356	0.015	0.644	
353.1	0.622	0.355	0.014	0.339	0.014	0.661	
353.1	0.638	0.339	0.014	0.33	0.014	0.67	
353.2	0.695	0.281	0.011	0.292	0.012	0.708	
353.1	0.728	0.247	0.01	0.272	0.011	0.728	
353.2	0.757	0.217	0.009	0.248	0.01	0.752	
353.5	0.792	0.181	0.007	0.213	0.009	0.787	
354.2	0.853	0.119	0.005	0.158	0.006	0.842	
354.1	0.143	0.834	0.033	0.444	0.018	0.556	
353.8	0.245	0.726	0.029	0.429	0.018	0.571	
353.6	0.338	0.629	0.025	0.417	0.017	0.583	
353.6	0.436	0.526	0.021	0.405	0.017	0.595	
353.6	0.57	0.385	0.016	0.332	0.014	0.668	
353.6	0.608	0.345	0.014	0.291	0.012	0.709	
353.6	0.654	0.297	0.012	0.275	0.011	0.725	
353.6	0.702	0.246	0.01	0.253	0.01	0.747	
353.9	0.787	0.157	0.006	0.182	0.007	0.818	
354.5	0.826	0.116	0.005	0.154	0.006	0.846	
354.7	0.065	0.892	0.036	0.438	0.018	0.562	
354.4	0.162	0.784	0.031	0.423	0.017	0.577	
354.2	0.296	0.635	0.026	0.406	0.017	0.594	
354.1	0.375	0.548	0.022	0.386	0.016	0.614	
354.1	0.447	0.467	0.019	0.355	0.015	0.645	
353.9	0.541	0.363	0.015	0.305	0.012	0.695	
353.8	0.575	0.324	0.013	0.279	0.011	0.721	
354.2	0.681	0.207	0.008	0.216	0.009	0.784	
