Measured thermophysical data. Isobaric vapor-liquid equilibria for the 1-propanol + water + 1-ethyl-3-methylimidazolium dicyanamide system at 100 kPa
Source: J. Chem. Thermodyn., 2017, 10.1016/j.jct.2017.06.005
Compound 1: propan-1-ol, C3H8O, InChI=1S/C3H8O/c1-2-3-4/h4H,2-3H2,1H3, purity 99.5%
Compound 2: water, H2O, InChI=1S/H2O/h1H2, purity 99.8%
Compound 3: 1-ethyl-3-methylimidazolium dicyanamide, C8H11N5, InChI=1S/C6H11N2.C2N3/c1-3-8-5-4-7(2)6-8;3-1-5-2-4/h4-6H,3H2,1-2H3;/q+1;-1, purity 98%

System: propan-1-ol; phases: Liquid, Gas
Property: Vapor or sublimation pressure, kPa (Liquid); method: Ebulliometric method (Recirculating still)
Temperature, K	Vapor or sublimation pressure, kPa	uncertainty
369.8	100	2

System: propan-1-ol + 1-ethyl-3-methylimidazolium dicyanamide; phases: Liquid, Gas
Fixed: Pressure, kPa = 100
Property: Boiling temperature at pressure P, K (Liquid); method: Ebulliometric method (Recirculating still)
Mole fraction of 1-ethyl-3-methylimidazolium dicyanamide	Boiling temperature at pressure P, K	uncertainty
0	369.8	0.4
0.013	370.2	0.4
0.026	370.5	0.4
0.039	370.8	0.4
0.052	371.1	0.4
0.065	371.6	0.4
0.079	371.9	0.4
0.106	372.5	0.4
0.121	373.2	0.4
0.136	373.7	0.4
0.154	374.4	0.4
0.171	375.2	0.4
0.184	375.7	0.4
0.198	376.3	0.4
0.207	376.6	0.4
0.222	377.4	0.4
0.237	378.2	0.4
0.258	379.2	0.4
0.28	380.2	0.4
0.295	381	0.4
0.309	381.8	0.4
0.319	382.4	0.4
0.343	383.5	0.4
0.367	384.9	0.4
0.381	385.6	0.4
0.382	385.5	0.4
0.386	385.9	0.5
0.058	371.3	0.4
0.121	373.2	0.4
0.222	377.4	0.4
0.309	381.8	0.4

System: propan-1-ol + water + 1-ethyl-3-methylimidazolium dicyanamide; phases: Liquid, Gas
Fixed: Pressure, kPa = 100
Property: Mole fraction of water (Liquid); method: Chromatography
Property: Mole fraction of water (Gas); method: Chromatography
Property: Mole fraction of propan-1-ol (Gas); method: Chromatography
Temperature, K	Mole fraction of propan-1-ol	Mole fraction of water	uncertainty	Mole fraction of water	uncertainty	Mole fraction of propan-1-ol	uncertainty
374.5	0	0.947	0.002	1		0	
372.6	0.007	0.94	0.002	0.935	0.002	0.065	
370	0.022	0.926	0.002	0.852	0.002	0.148	
367.2	0.047	0.9	0.002	0.76	0.003	0.24	
364.9	0.086	0.861	0.002	0.675	0.004	0.325	
363.6	0.122	0.825	0.002	0.642	0.004	0.358	
363	0.166	0.78	0.003	0.618	0.004	0.382	
362.5	0.219	0.727	0.003	0.596	0.004	0.404	
362.4	0.277	0.668	0.003	0.576	0.004	0.424	
362.3	0.325	0.62	0.003	0.559	0.004	0.441	
362.5	0.4	0.545	0.004	0.532	0.005	0.468	
362.7	0.471	0.472	0.004	0.501	0.005	0.499	
363.1	0.551	0.391	0.003	0.463	0.005	0.537	
363.9	0.628	0.314	0.003	0.414	0.004	0.586	
364.9	0.698	0.244	0.003	0.358	0.004	0.642	
366	0.76	0.182	0.002	0.294	0.003	0.706	
367.4	0.819	0.123	0.002	0.22	0.003	0.78	
368.7	0.869	0.073	0.002	0.146	0.002	0.854	
371.3	0.942	0		0		1	
377.1	0	0.887	0.002	1		0	
375.5	0.009	0.882	0.002	0.942	0.002	0.058	
373	0.027	0.863	0.002	0.863	0.002	0.137	
370	0.061	0.83	0.002	0.754	0.003	0.246	
367.7	0.103	0.787	0.003	0.678	0.004	0.322	
366.1	0.152	0.737	0.003	0.628	0.004	0.372	
365.5	0.199	0.691	0.003	0.587	0.004	0.413	
365.2	0.267	0.62	0.003	0.553	0.004	0.447	
365.1	0.331	0.554	0.004	0.517	0.005	0.483	
365.4	0.397	0.487	0.004	0.48	0.005	0.52	
365.7	0.466	0.417	0.004	0.443	0.004	0.557	
366.4	0.528	0.354	0.003	0.401	0.004	0.599	
367.1	0.594	0.287	0.003	0.352	0.004	0.648	
368	0.663	0.217	0.003	0.297	0.003	0.703	
369.1	0.711	0.17	0.002	0.245	0.003	0.755	
369.8	0.758	0.124	0.002	0.194	0.003	0.806	
370.8	0.8	0.083	0.002	0.139	0.002	0.861	
371.9	0.834	0.05	0.002	0.086	0.002	0.914	
373.2	0.879	0		0		1	
384.7	0	0.77	0.003	1		0	
382.8	0.008	0.768	0.003	0.94	0.002	0.06	
381.2	0.026	0.744	0.003	0.881	0.002	0.119	
379.2	0.053	0.714	0.003	0.788	0.003	0.212	
376.7	0.091	0.676	0.003	0.689	0.003	0.311	
374.7	0.143	0.621	0.004	0.616	0.004	0.384	
373.4	0.194	0.572	0.004	0.548	0.005	0.452	
372.3	0.25	0.519	0.004	0.496	0.005	0.504	
371.9	0.306	0.466	0.004	0.451	0.004	0.549	
371.7	0.362	0.415	0.004	0.411	0.004	0.589	
371.8	0.416	0.361	0.003	0.367	0.004	0.633	
372.4	0.481	0.291	0.003	0.327	0.004	0.673	
373	0.532	0.24	0.003	0.283	0.003	0.717	
373.6	0.575	0.202	0.003	0.243	0.003	0.757	
374.2	0.616	0.165	0.002	0.204	0.003	0.796	
374.7	0.654	0.125	0.002	0.163	0.002	0.837	
375.4	0.698	0.084	0.002	0.113	0.002	0.887	
376	0.735	0.053	0.002	0.07	0.002	0.93	
377.4	0.778	0		0		1	
391.8	0	0.686	0.003	1		0	
390.4	0.006	0.689	0.003	0.967	0.002	0.033	
388.1	0.022	0.674	0.003	0.895	0.002	0.105	
385.3	0.048	0.648	0.003	0.806	0.003	0.194	
383.3	0.082	0.612	0.004	0.707	0.003	0.293	
381.3	0.123	0.572	0.004	0.624	0.004	0.376	
380.2	0.166	0.527	0.004	0.552	0.004	0.448	
379.3	0.211	0.482	0.004	0.495	0.005	0.505	
378.8	0.255	0.436	0.004	0.445	0.004	0.555	
378.4	0.307	0.381	0.004	0.398	0.004	0.602	
378.2	0.353	0.336	0.003	0.354	0.004	0.646	
378.2	0.402	0.292	0.003	0.308	0.003	0.692	
378.2	0.446	0.247	0.003	0.271	0.003	0.729	
378.4	0.493	0.203	0.003	0.226	0.003	0.774	
378.7	0.543	0.157	0.002	0.185	0.003	0.815	
379.3	0.581	0.119	0.002	0.139	0.002	0.861	
379.9	0.626	0.076	0.002	0.095	0.002	0.905	
380.4	0.663	0.044	0.002	0.054	0.002	0.946	
381.8	0.691	0		0		1	

System: water + 1-ethyl-3-methylimidazolium dicyanamide; phases: Liquid, Gas
Fixed: Pressure, kPa = 100
Property: Boiling temperature at pressure P, K (Liquid); method: Ebulliometric method (Recirculating still)
Mole fraction of water	Boiling temperature at pressure P, K	uncertainty
0.947	374.5	0.6
0.887	377.1	0.6
0.77	384.7	0.6
0.686	391.8	0.6
