Measured thermophysical data. Acoustic, volumetric and spectral studies of binary liquid mixtures of aliphatic dialkylamine and 2-alkanols at different temperatures
Source: J. Chem. Thermodyn., 2019, 10.1016/j.jct.2018.12.012
Compound 1: dibutylamine, C8H19N, InChI=1S/C8H19N/c1-3-5-7-9-8-6-4-2/h9H,3-8H2,1-2H3, purity 99%
Compound 2: diisopropylamine, C6H15N, InChI=1S/C6H15N/c1-5(2)7-6(3)4/h5-7H,1-4H3, purity 99%
Compound 3: butan-2-ol, C4H10O, InChI=1S/C4H10O/c1-3-4(2)5/h4-5H,3H2,1-2H3, purity 99.5%
Compound 4: pentan-2-ol, C5H12O, InChI=1S/C5H12O/c1-3-4-5(2)6/h5-6H,3-4H2,1-2H3, purity 98%

System: dibutylamine; phases: Liquid
Fixed: Pressure, kPa = 100
Property: Mass density, kg/m3 (Liquid); method: Vibrating tube method
Temperature, K	Mass density, kg/m3	uncertainty
293.15	759.579	1.417
298.15	755.48	1.417
303.15	751.374	1.417
308.15	747.268	1.417

System: dibutylamine; phases: Liquid
Fixed: Pressure, kPa = 100
Fixed: Frequency, MHz = 3
Property: Speed of sound, m/s (Liquid); method: Single path-length method
Temperature, K	Speed of sound, m/s	uncertainty
293.15	1260.13	6.28
298.15	1240.11	6.28
303.15	1220.26	6.28
308.15	1200.6	6.28

System: diisopropylamine; phases: Liquid
Fixed: Pressure, kPa = 100
Property: Mass density, kg/m3 (Liquid); method: Vibrating tube method
Temperature, K	Mass density, kg/m3	uncertainty
293.15	717.305	1.418
298.15	712.441	1.418
303.15	707.55	1.418
308.15	702.661	1.418

System: diisopropylamine; phases: Liquid
Fixed: Pressure, kPa = 100
Fixed: Frequency, MHz = 3
Property: Speed of sound, m/s (Liquid); method: Single path-length method
Temperature, K	Speed of sound, m/s	uncertainty
293.15	1116.39	6.28
298.15	1093.84	6.28
303.15	1071.09	6.28
308.15	1043.54	6.28

System: butan-2-ol; phases: Liquid
Fixed: Pressure, kPa = 100
Property: Mass density, kg/m3 (Liquid); method: Vibrating tube method
Temperature, K	Mass density, kg/m3	uncertainty
293.15	806.952	1.406
298.15	802.847	1.406
303.15	798.651	1.406
308.15	794.363	1.406

System: butan-2-ol; phases: Liquid
Fixed: Pressure, kPa = 100
Fixed: Frequency, MHz = 3
Property: Speed of sound, m/s (Liquid); method: Single path-length method
Temperature, K	Speed of sound, m/s	uncertainty
293.15	1229.88	6.22
298.15	1212.11	6.22
303.15	1194.12	6.22
308.15	1176.02	6.22

System: pentan-2-ol; phases: Liquid
Fixed: Pressure, kPa = 100
Property: Mass density, kg/m3 (Liquid); method: Vibrating tube method
Temperature, K	Mass density, kg/m3	uncertainty
293.15	809.399	1.515
298.15	805.37	1.514
303.15	801.27	1.512
308.15	797.08	1.511

System: pentan-2-ol; phases: Liquid
Fixed: Pressure, kPa = 100
Fixed: Frequency, MHz = 3
Property: Speed of sound, m/s (Liquid); method: Single path-length method
Temperature, K	Speed of sound, m/s	uncertainty
293.15	1250.32	6.52
298.15	1232.41	6.52
303.15	1214.13	6.52
308.15	1195.73	6.52

System: dibutylamine + butan-2-ol; phases: Liquid
Fixed: Pressure, kPa = 100
Property: Mass density, kg/m3 (Liquid); method: Vibrating tube method
Temperature, K	Mole fraction of dibutylamine	Mass density, kg/m3	uncertainty
293.15	0	806.952	1.406
293.15	0.0995	802.339	1.407
293.15	0.2027	796.429	1.408
293.15	0.3027	791.522	1.409
293.15	0.3993	786.764	1.41
293.15	0.4995	781.846	1.411
293.15	0.6007	776.991	1.412
293.15	0.7	772.61	1.413
293.15	0.8002	768.643	1.414
293.15	0.8989	764.755	1.416
293.15	1	759.579	1.417
298.15	0	802.847	1.406
298.15	0.0995	798.045	1.408
298.15	0.2027	792.197	1.408
298.15	0.3027	787.26	1.409
298.15	0.3993	782.487	1.41
298.15	0.4995	777.578	1.411
298.15	0.6007	772.741	1.412
298.15	0.7	768.394	1.413
298.15	0.8002	764.449	1.415
298.15	0.8989	760.595	1.416
298.15	1	755.48	1.417
303.15	0	798.651	1.406
303.15	0.0995	793.785	1.408
303.15	0.2027	787.914	1.409
303.15	0.3027	782.952	1.409
303.15	0.3993	778.177	1.41
303.15	0.4995	773.281	1.411
303.15	0.6007	768.441	1.412
303.15	0.7	764.156	1.413
303.15	0.8002	760.24	1.415
303.15	0.8989	756.428	1.416
303.15	1	751.374	1.417
308.15	0	794.363	1.406
308.15	0.0995	789.452	1.408
308.15	0.2027	783.574	1.409
308.15	0.3027	778.597	1.409
308.15	0.3993	773.83	1.41
308.15	0.4995	768.951	1.411
308.15	0.6007	764.17	1.412
308.15	0.7	759.896	1.413
308.15	0.8002	756.011	1.415
308.15	0.8989	752.248	1.416
308.15	1	747.268	1.417

System: dibutylamine + butan-2-ol; phases: Liquid
Fixed: Pressure, kPa = 100
Fixed: Frequency, MHz = 3
Property: Speed of sound, m/s (Liquid); method: Single path-length method
Temperature, K	Mole fraction of dibutylamine	Speed of sound, m/s	uncertainty
293.15	0	1229.88	6.22
293.15	0.0995	1242.26	6.23
293.15	0.2027	1249.93	6.23
293.15	0.3027	1254.55	6.23
293.15	0.3993	1257.8	6.24
293.15	0.4995	1260.57	6.25
293.15	0.6007	1261.02	6.25
293.15	0.7	1261.89	6.26
293.15	0.8002	1263.56	6.27
293.15	0.8989	1264.11	6.27
293.15	1	1260.13	6.28
298.15	0	1212.11	6.22
298.15	0.0995	1223.65	6.23
298.15	0.2027	1231.03	6.23
298.15	0.3027	1235.34	6.23
298.15	0.3993	1238.76	6.24
298.15	0.4995	1241.11	6.25
298.15	0.6007	1241.44	6.25
298.15	0.7	1242.72	6.26
298.15	0.8002	1243.71	6.27
298.15	0.8989	1244.44	6.27
298.15	1	1240.11	6.28
303.15	0	1194.12	6.22
303.15	0.0995	1205.03	6.23
303.15	0.2027	1211.92	6.23
303.15	0.3027	1216.18	6.23
303.15	0.3993	1219.43	6.24
303.15	0.4995	1221.7	6.25
303.15	0.6007	1221.92	6.25
303.15	0.7	1223.11	6.26
303.15	0.8002	1223.97	6.27
303.15	0.8989	1224.58	6.27
303.15	1	1220.26	6.28
308.15	0	1176.02	6.22
308.15	0.0995	1186.67	6.23
308.15	0.2027	1193.56	6.23
308.15	0.3027	1197.14	6.23
308.15	0.3993	1200.14	6.24
308.15	0.4995	1202.62	6.25
308.15	0.6007	1202.57	6.25
308.15	0.7	1203.94	6.26
308.15	0.8002	1204.43	6.27
308.15	0.8989	1204.82	6.27
308.15	1	1200.6	6.28

System: dibutylamine + pentan-2-ol; phases: Liquid
Fixed: Pressure, kPa = 100
Property: Mass density, kg/m3 (Liquid); method: Vibrating tube method
Temperature, K	Mole fraction of dibutylamine	Mass density, kg/m3	uncertainty
293.15	0	809.399	1.515
293.15	0.1007	804.553	1.497
293.15	0.1998	799.644	1.481
293.15	0.3001	794.588	1.467
293.15	0.4	789.453	1.456
293.15	0.5004	784.348	1.446
293.15	0.6	779.579	1.438
293.15	0.7004	774.754	1.431
293.15	0.7993	770.026	1.426
293.15	0.9004	765.576	1.421
293.15	1	759.579	1.417
298.15	0	805.37	1.514
298.15	0.1007	800.484	1.496
298.15	0.1998	795.528	1.48
298.15	0.3001	790.443	1.467
298.15	0.4	785.286	1.455
298.15	0.5004	780.174	1.446
298.15	0.6	775.399	1.438
298.15	0.7004	770.581	1.431
298.15	0.7993	765.866	1.426
298.15	0.9004	761.434	1.421
298.15	1	755.48	1.417
303.15	0	801.27	1.512
303.15	0.1007	796.354	1.495
303.15	0.1998	791.368	1.479
303.15	0.3001	786.26	1.466
303.15	0.4	781.088	1.455
303.15	0.5004	775.972	1.445
303.15	0.6	771.197	1.437
303.15	0.7004	766.391	1.431
303.15	0.7993	761.694	1.426
303.15	0.9004	757.282	1.421
303.15	1	751.374	1.417
308.15	0	797.08	1.511
308.15	0.1007	792.163	1.494
308.15	0.1998	787.153	1.479
308.15	0.3001	782.034	1.465
308.15	0.4	776.854	1.454
308.15	0.5004	771.739	1.445
308.15	0.6	766.971	1.437
308.15	0.7004	762.183	1.431
308.15	0.7993	757.505	1.426
308.15	0.9004	753.116	1.422
308.15	1	747.268	1.417

System: dibutylamine + pentan-2-ol; phases: Liquid
Fixed: Pressure, kPa = 100
Fixed: Frequency, MHz = 3
Property: Speed of sound, m/s (Liquid); method: Single path-length method
Temperature, K	Mole fraction of dibutylamine	Speed of sound, m/s	uncertainty
293.15	0	1250.32	6.52
293.15	0.1007	1257.49	6.49
293.15	0.1998	1261.59	6.46
293.15	0.3001	1264.11	6.43
293.15	0.4	1265.05	6.4
293.15	0.5004	1265.66	6.38
293.15	0.6	1266.03	6.36
293.15	0.7004	1266.24	6.34
293.15	0.7993	1265.78	6.32
293.15	0.9004	1265.77	6.3
293.15	1	1260.13	6.28
298.15	0	1232.41	6.52
298.15	0.1007	1238.81	6.49
298.15	0.1998	1243.03	6.46
298.15	0.3001	1245.1	6.43
298.15	0.4	1246.26	6.4
298.15	0.5004	1246.48	6.38
298.15	0.6	1246.98	6.36
298.15	0.7004	1246.7	6.34
298.15	0.7993	1246.37	6.32
298.15	0.9004	1245.83	6.3
298.15	1	1240.11	6.28
303.15	0	1214.13	6.52
303.15	0.1007	1220.16	6.49
303.15	0.1998	1224.22	6.46
303.15	0.3001	1226.19	6.43
303.15	0.4	1227.25	6.4
303.15	0.5004	1227.36	6.38
303.15	0.6	1227.73	6.36
303.15	0.7004	1227.26	6.34
303.15	0.7993	1227.76	6.32
303.15	0.9004	1226.05	6.3
303.15	1	1220.26	6.28
308.15	0	1195.73	6.52
308.15	0.1007	1201.83	6.49
308.15	0.1998	1205.42	6.46
308.15	0.3001	1207.62	6.43
308.15	0.4	1208.26	6.4
308.15	0.5004	1208.38	6.38
308.15	0.6	1208.48	6.36
308.15	0.7004	1208.18	6.34
308.15	0.7993	1207.22	6.32
308.15	0.9004	1206.66	6.3
308.15	1	1200.6	6.28

System: diisopropylamine + butan-2-ol; phases: Liquid
Fixed: Pressure, kPa = 100
Property: Mass density, kg/m3 (Liquid); method: Vibrating tube method
Temperature, K	Mole fraction of diisopropylamine	Mass density, kg/m3	uncertainty
293.15	0	806.952	1.406
293.15	0.1005	799.801	1.409
293.15	0.1994	792.039	1.41
293.15	0.3003	783.508	1.411
293.15	0.3999	774.58	1.413
293.15	0.5	764.776	1.414
293.15	0.5961	755.456	1.415
293.15	0.6964	745.553	1.416
293.15	0.7997	736.007	1.418
293.15	0.8967	726.62	1.419
293.15	1	717.305	1.418
298.15	0	802.847	1.406
298.15	0.1005	795.472	1.409
298.15	0.1994	787.516	1.41
298.15	0.3003	778.829	1.411
298.15	0.3999	769.813	1.413
298.15	0.5	759.954	1.414
298.15	0.5961	750.604	1.415
298.15	0.6964	740.705	1.416
298.15	0.7997	731.125	1.418
298.15	0.8967	721.759	1.419
298.15	1	712.441	1.418
303.15	0	798.651	1.406
303.15	0.1005	791.07	1.409
303.15	0.1994	782.932	1.41
303.15	0.3003	774.115	1.411
303.15	0.3999	765.003	1.413
303.15	0.5	755.099	1.414
303.15	0.5961	745.72	1.415
303.15	0.6964	735.88	1.417
303.15	0.7997	726.228	1.418
303.15	0.8967	716.873	1.419
303.15	1	707.55	1.418
308.15	0	794.363	1.406
308.15	0.1005	786.592	1.409
308.15	0.1994	778.279	1.41
308.15	0.3003	769.331	1.412
308.15	0.3999	760.146	1.413
308.15	0.5	750.197	1.414
308.15	0.5961	740.801	1.415
308.15	0.6964	731.103	1.417
308.15	0.7997	721.299	1.418
308.15	0.8967	711.96	1.419
308.15	1	702.661	1.418

System: diisopropylamine + butan-2-ol; phases: Liquid
Fixed: Pressure, kPa = 100
Fixed: Frequency, MHz = 3
Property: Speed of sound, m/s (Liquid); method: Single path-length method
Temperature, K	Mole fraction of diisopropylamine	Speed of sound, m/s	uncertainty
293.15	0	1229.88	6.22
293.15	0.1005	1230.78	6.22
293.15	0.1994	1226.18	6.23
293.15	0.3003	1217.27	6.24
293.15	0.3999	1205.57	6.24
293.15	0.5	1190.95	6.25
293.15	0.5961	1176.58	6.25
293.15	0.6964	1160.65	6.26
293.15	0.7997	1145.23	6.27
293.15	0.8967	1129.71	6.27
293.15	1	1116.39	6.28
298.15	0	1212.11	6.22
298.15	0.1005	1211.67	6.22
298.15	0.1994	1205.69	6.23
298.15	0.3003	1196.15	6.24
298.15	0.3999	1183.84	6.24
298.15	0.5	1169.23	6.25
298.15	0.5961	1154.31	6.25
298.15	0.6964	1138.98	6.26
298.15	0.7997	1122.65	6.27
298.15	0.8967	1107.04	6.27
298.15	1	1093.84	6.28
303.15	0	1194.12	6.22
303.15	0.1005	1192.3	6.23
303.15	0.1994	1185.29	6.23
303.15	0.3003	1175.56	6.24
303.15	0.3999	1162.28	6.24
303.15	0.5	1147.36	6.25
303.15	0.5961	1132.18	6.25
303.15	0.6964	1116.33	6.26
303.15	0.7997	1100.26	6.27
303.15	0.8967	1084.48	6.27
303.15	1	1071.09	6.28
308.15	0	1176.02	6.22
308.15	0.1005	1173.36	6.23
308.15	0.1994	1165.02	6.23
308.15	0.3003	1154	6.24
308.15	0.3999	1141.14	6.24
308.15	0.5	1125.6	6.25
308.15	0.5961	1110.42	6.25
308.15	0.6964	1094.19	6.26
308.15	0.7997	1078.32	6.27
308.15	0.8967	1062.55	6.28
308.15	1	1043.54	6.28

System: diisopropylamine + pentan-2-ol; phases: Liquid
Fixed: Pressure, kPa = 100
Property: Mass density, kg/m3 (Liquid); method: Vibrating tube method
Temperature, K	Mole fraction of diisopropylamine	Mass density, kg/m3	uncertainty
293.15	0	809.399	1.515
293.15	0.0998	803.093	1.497
293.15	0.2001	795.724	1.481
293.15	0.3	787.848	1.468
293.15	0.4001	778.463	1.457
293.15	0.5006	768.901	1.447
293.15	0.6001	758.906	1.44
293.15	0.678	751.419	1.435
293.15	0.7975	738.446	1.429
293.15	0.8993	728.166	1.425
293.15	1	717.305	1.418
298.15	0	805.37	1.514
298.15	0.0998	798.887	1.496
298.15	0.2001	791.357	1.48
298.15	0.3	783.455	1.467
298.15	0.4001	773.871	1.456
298.15	0.5006	764.237	1.447
298.15	0.6001	754.192	1.439
298.15	0.678	746.673	1.435
298.15	0.7975	733.65	1.429
298.15	0.8993	723.262	1.425
298.15	1	712.441	1.418
303.15	0	801.27	1.512
303.15	0.0998	794.621	1.495
303.15	0.2001	786.936	1.48
303.15	0.3	778.721	1.467
303.15	0.4001	769.242	1.456
303.15	0.5006	759.54	1.447
303.15	0.6001	749.437	1.439
303.15	0.678	741.893	1.435
303.15	0.7975	728.827	1.429
303.15	0.8993	718.39	1.425
303.15	1	707.55	1.418
308.15	0	797.08	1.511
308.15	0.0998	790.277	1.494
308.15	0.2001	782.457	1.479
308.15	0.3	774.03	1.466
308.15	0.4001	764.565	1.455
308.15	0.5006	754.802	1.446
308.15	0.6001	744.665	1.439
308.15	0.678	737.079	1.435
308.15	0.7975	723.973	1.429
308.15	0.8993	713.692	1.425
308.15	1	702.661	1.418

System: diisopropylamine + pentan-2-ol; phases: Liquid
Fixed: Pressure, kPa = 100
Fixed: Frequency, MHz = 3
Property: Speed of sound, m/s (Liquid); method: Single path-length method
Temperature, K	Mole fraction of diisopropylamine	Speed of sound, m/s	uncertainty
293.15	0	1250.32	6.52
293.15	0.0998	1248.11	6.49
293.15	0.2001	1241.08	6.46
293.15	0.3	1230.04	6.43
293.15	0.4001	1216.75	6.41
293.15	0.5006	1201.79	6.38
293.15	0.6001	1185.2	6.36
293.15	0.678	1172.81	6.34
293.15	0.7975	1152.6	6.32
293.15	0.8993	1132.75	6.3
293.15	1	1116.39	6.28
298.15	0	1232.41	6.52
298.15	0.0998	1228.96	6.49
298.15	0.2001	1220.87	6.46
298.15	0.3	1209.51	6.43
298.15	0.4001	1196.29	6.41
298.15	0.5006	1180.24	6.38
298.15	0.6001	1163.97	6.36
298.15	0.678	1150.95	6.34
298.15	0.7975	1130.25	6.32
298.15	0.8993	1110.2	6.3
298.15	1	1093.84	6.28
303.15	0	1214.13	6.52
303.15	0.0998	1209.93	6.49
303.15	0.2001	1200.77	6.46
303.15	0.3	1189.26	6.43
303.15	0.4001	1175.26	6.41
303.15	0.5006	1158.87	6.38
303.15	0.6001	1142.13	6.36
303.15	0.678	1129.14	6.34
303.15	0.7975	1108.12	6.32
303.15	0.8993	1087.75	6.3
303.15	1	1071.09	6.28
308.15	0	1195.73	6.52
308.15	0.0998	1190.28	6.49
308.15	0.2001	1181.54	6.46
308.15	0.3	1168.78	6.43
308.15	0.4001	1154.33	6.41
308.15	0.5006	1137.76	6.38
308.15	0.6001	1120.88	6.36
308.15	0.678	1107.44	6.34
308.15	0.7975	1086.24	6.32
308.15	0.8993	1063.82	6.3
308.15	1	1043.54	6.28
