Measured thermophysical data. Measurement, correlation and dissolution thermodynamics of biological active chalcone in organic solvents at different temperatures
Source: J. Chem. Thermodyn., 2014, 10.1016/j.jct.2014.03.026
Compound 1: (E)-2-[(4-chlorophenyl)methylene]-3,4-dihydro-1(2H)-naphthalenone, C17H13ClO, InChI=1S/C17H13ClO/c18-15-9-5-12(6-10-15)11-14-8-7-13-3-1-2-4-16(13)17(14)19/h1-6,9-11H,7-8H2/b14-11+
Compound 2: methanol, CH4O, InChI=1S/CH4O/c1-2/h2H,1H3
Compound 3: ethanol, C2H6O, InChI=1S/C2H6O/c1-2-3/h3H,2H2,1H3
Compound 4: propan-1-ol, C3H8O, InChI=1S/C3H8O/c1-2-3-4/h4H,2-3H2,1H3
Compound 5: butan-1-ol, C4H10O, InChI=1S/C4H10O/c1-2-3-4-5/h5H,2-4H2,1H3
Compound 6: acetone, C3H6O, InChI=1S/C3H6O/c1-3(2)4/h1-2H3
Compound 7: tetrahydrofuran, C4H8O, InChI=1S/C4H8O/c1-2-4-5-3-1/h1-4H2
Compound 8: ethyl acetate, C4H8O2, InChI=1S/C4H8O2/c1-3-6-4(2)5/h3H2,1-2H3
Compound 9: trichloromethane, CHCl3, InChI=1S/CHCl3/c2-1(3)4/h1H

System: (E)-2-[(4-chlorophenyl)methylene]-3,4-dihydro-1(2H)-naphthalenone; phases: Crystal, Liquid, Air at 1 atmosphere
Property: Normal melting temperature, K (Crystal); method: DTA
Normal melting temperature, K	uncertainty
409.57	2.03

System: (E)-2-[(4-chlorophenyl)methylene]-3,4-dihydro-1(2H)-naphthalenone; phases: Crystal, Liquid, Air at 1 atmosphere
Property: Molar enthalpy of transition or fusion, kJ/mol (Crystal); method: DSC
Molar enthalpy of transition or fusion, kJ/mol	uncertainty
30.6548546854	1.0131393194

System: methanol + (E)-2-[(4-chlorophenyl)methylene]-3,4-dihydro-1(2H)-naphthalenone; phases: Liquid, Crystal
Fixed: Pressure, kPa = 100
Property: Mole fraction of (E)-2-[(4-chlorophenyl)methylene]-3,4-dihydro-1(2H)-naphthalenone (Liquid); method: gravimetric method
Temperature, K	Mole fraction of (E)-2-[(4-chlorophenyl)methylene]-3,4-dihydro-1(2H)-naphthalenone	uncertainty
293.15	0.0004	0.0001
298.15	0.0005	0.0001
303.15	0.0005	0.0001
308.15	0.0007	0.0001
313.15	0.0008	0.0001
318.15	0.001	0.0001
323.15	0.0012	0.0001

System: ethanol + (E)-2-[(4-chlorophenyl)methylene]-3,4-dihydro-1(2H)-naphthalenone; phases: Liquid, Crystal
Fixed: Pressure, kPa = 100
Property: Mole fraction of (E)-2-[(4-chlorophenyl)methylene]-3,4-dihydro-1(2H)-naphthalenone (Liquid); method: gravimetric method
Temperature, K	Mole fraction of (E)-2-[(4-chlorophenyl)methylene]-3,4-dihydro-1(2H)-naphthalenone	uncertainty
293.15	0.001	0.0001
298.15	0.0011	0.0001
303.15	0.0013	0.0001
308.15	0.0017	0.0001
313.15	0.0021	0.0001
318.15	0.0025	0.0001
323.15	0.0029	0.0001

System: propan-1-ol + (E)-2-[(4-chlorophenyl)methylene]-3,4-dihydro-1(2H)-naphthalenone; phases: Liquid, Crystal
Fixed: Pressure, kPa = 100
Property: Mole fraction of (E)-2-[(4-chlorophenyl)methylene]-3,4-dihydro-1(2H)-naphthalenone (Liquid); method: gravimetric method
Temperature, K	Mole fraction of (E)-2-[(4-chlorophenyl)methylene]-3,4-dihydro-1(2H)-naphthalenone	uncertainty
293.15	0.0013	0.0001
298.15	0.0014	0.0001
303.15	0.0016	0.0001
308.15	0.0019	0.0001
313.15	0.0022	0.0001
318.15	0.0025	0.0001
323.15	0.0029	0.0001

System: butan-1-ol + (E)-2-[(4-chlorophenyl)methylene]-3,4-dihydro-1(2H)-naphthalenone; phases: Liquid, Crystal
Fixed: Pressure, kPa = 100
Property: Mole fraction of (E)-2-[(4-chlorophenyl)methylene]-3,4-dihydro-1(2H)-naphthalenone (Liquid); method: gravimetric method
Temperature, K	Mole fraction of (E)-2-[(4-chlorophenyl)methylene]-3,4-dihydro-1(2H)-naphthalenone	uncertainty
293.15	0.0019	0.0001
298.15	0.0023	0.0001
303.15	0.0027	0.0001
308.15	0.0032	0.0001
313.15	0.0036	0.0001
318.15	0.0045	0.0001
323.15	0.0053	0.0001

System: acetone + (E)-2-[(4-chlorophenyl)methylene]-3,4-dihydro-1(2H)-naphthalenone; phases: Liquid, Crystal
Fixed: Pressure, kPa = 100
Property: Mole fraction of (E)-2-[(4-chlorophenyl)methylene]-3,4-dihydro-1(2H)-naphthalenone (Liquid); method: gravimetric method
Temperature, K	Mole fraction of (E)-2-[(4-chlorophenyl)methylene]-3,4-dihydro-1(2H)-naphthalenone	uncertainty
293.15	0.0091	0.0002
298.15	0.0103	0.0002
303.15	0.0115	0.0002
308.15	0.0129	0.0003
313.15	0.0144	0.0003
318.15	0.0157	0.0003
323.15	0.0171	0.0004

System: tetrahydrofuran + (E)-2-[(4-chlorophenyl)methylene]-3,4-dihydro-1(2H)-naphthalenone; phases: Liquid, Crystal
Fixed: Pressure, kPa = 100
Property: Mole fraction of (E)-2-[(4-chlorophenyl)methylene]-3,4-dihydro-1(2H)-naphthalenone (Liquid); method: gravimetric method
Temperature, K	Mole fraction of (E)-2-[(4-chlorophenyl)methylene]-3,4-dihydro-1(2H)-naphthalenone	uncertainty
293.15	0.0379	0.0008
298.15	0.0392	0.0008
303.15	0.0404	0.0008
308.15	0.0414	0.0009
313.15	0.0424	0.0009
318.15	0.0436	0.0009
323.15	0.0448	0.0009

System: trichloromethane + (E)-2-[(4-chlorophenyl)methylene]-3,4-dihydro-1(2H)-naphthalenone; phases: Liquid, Crystal
Fixed: Pressure, kPa = 100
Property: Mole fraction of (E)-2-[(4-chlorophenyl)methylene]-3,4-dihydro-1(2H)-naphthalenone (Liquid); method: gravimetric method
Temperature, K	Mole fraction of (E)-2-[(4-chlorophenyl)methylene]-3,4-dihydro-1(2H)-naphthalenone	uncertainty
293.15	0.0504	0.0011
298.15	0.0551	0.0012
303.15	0.0597	0.0013
308.15	0.0647	0.0014
313.15	0.0697	0.0015
318.15	0.0746	0.0016
323.15	0.0796	0.0017

System: ethyl acetate + (E)-2-[(4-chlorophenyl)methylene]-3,4-dihydro-1(2H)-naphthalenone; phases: Liquid, Crystal
Fixed: Pressure, kPa = 100
Property: Mole fraction of (E)-2-[(4-chlorophenyl)methylene]-3,4-dihydro-1(2H)-naphthalenone (Liquid); method: gravimetric method
Temperature, K	Mole fraction of (E)-2-[(4-chlorophenyl)methylene]-3,4-dihydro-1(2H)-naphthalenone	uncertainty
293.15	0.0121	0.0003
298.15	0.0126	0.0003
303.15	0.0132	0.0003
308.15	0.0137	0.0003
313.15	0.0142	0.0003
318.15	0.0148	0.0003
323.15	0.0154	0.0003
