Measured thermophysical data. Thermodynamic study of phase transitions in methyl esters of ortho-, meta-, and para-aminobenzoic acids
Source: J. Chem. Thermodyn., 2012, 10.1016/j.jct.2012.04.006
Compound 1: methyl 4-aminobenzoate, C8H9NO2, InChI=1S/C8H9NO2/c1-11-8(10)6-2-4-7(9)5-3-6/h2-5H,9H2,1H3, purity 99.6%
Compound 2: methyl 3-aminobenzoate, C8H9NO2, InChI=1S/C8H9NO2/c1-11-8(10)6-3-2-4-7(9)5-6/h2-5H,9H2,1H3, purity 98%
Compound 3: methyl 2-aminobenzoate, C8H9NO2, InChI=1S/C8H9NO2/c1-11-8(10)6-4-2-3-5-7(6)9/h2-5H,9H2,1H3, purity 99.9%

System: methyl 4-aminobenzoate; phases: Crystal, Liquid, Air at 1 atmosphere
Property: Molar enthalpy of transition or fusion, kJ/mol (Crystal); method: DSC
Molar enthalpy of transition or fusion, kJ/mol	uncertainty
24.9	1

System: methyl 4-aminobenzoate; phases: Crystal, Liquid, Air at 1 atmosphere
Property: Normal melting temperature, K (Crystal); method: DTA
Normal melting temperature, K	uncertainty
384.18	0.56

System: methyl 4-aminobenzoate; phases: Crystal, Gas
Property: Vapor or sublimation pressure, kPa (Crystal); method: Calculated from knudsen effusion weight loss
Temperature, K	Vapor or sublimation pressure, kPa	uncertainty
319.1	0.000103	2e-05
321.17	0.000132	2.1e-05
325.11	0.000212	2.1e-05
327.16	0.000271	2.2e-05
329.17	0.000336	2.3e-05
331.11	0.000427	2.5e-05
333.15	0.000538	2.8e-05
335.16	0.000661	3.1e-05
337.11	0.000833	3.6e-05
339.15	0.001034	8.1e-05
341.17	0.001266	0.000103

System: methyl 4-aminobenzoate; phases: Crystal, Gas
Property: Vapor or sublimation pressure, kPa (Crystal); method: Closed cell (Static) method
Temperature, K	Vapor or sublimation pressure, kPa	uncertainty
332.89	0.00055	0.00012
334.88	0.00068	0.00012
336.87	0.00086	0.00012
338.97	0.00108	0.00012
340.85	0.00132	0.00013
342.84	0.00165	0.00013
344.81	0.00203	0.00014
346.8	0.00247	0.00015
348.79	0.00304	0.00017
350.78	0.00373	0.00019
352.76	0.00451	0.00021
354.74	0.00551	0.00025
358.71	0.00801	0.00034
360.71	0.00966	0.0004
360.71	0.00967	0.0004
362.69	0.01167	0.00047
364.68	0.01416	0.00054
366.66	0.01675	0.00058
368.65	0.0199	0.00062
370.62	0.02384	0.00068
372.61	0.02801	0.00075
374.59	0.03333	0.00083
376.56	0.03925	0.00092
378.54	0.04645	0.00103
380.5	0.055	0.00116

System: methyl 4-aminobenzoate; phases: Liquid, Gas
Property: Vapor or sublimation pressure, kPa (Liquid); method: Closed cell (Static) method
Temperature, K	Vapor or sublimation pressure, kPa	uncertainty
360.71	0.01484	0.00055
362.71	0.01708	0.00058
364.69	0.01965	0.00062
366.68	0.0226	0.00066
368.66	0.02585	0.00071
370.62	0.02972	0.00077
372.62	0.03402	0.00084
374.6	0.03864	0.00091
376.44	0.04369	0.00099
378.52	0.04972	0.00108
380.5	0.05642	0.00119
382.51	0.06389	0.0013
384.48	0.07201	0.00143
386.47	0.0814	0.00157
388.44	0.09208	0.00174
390.42	0.1032	0.0019
392.39	0.1155	0.0021
394.41	0.1295	0.0023
396.36	0.1449	0.0021
398.31	0.163	0.0023
400.31	0.182	0.0024
402.32	0.202	0.0026
404.28	0.2263	0.0028
406.29	0.2498	0.003
408.22	0.2792	0.0032
410.22	0.3093	0.0035
412.18	0.3433	0.0038
414.17	0.3787	0.0041
416.14	0.4199	0.0044
418.12	0.4622	0.0048
420.09	0.5099	0.0052
422.06	0.5601	0.0057
424.02	0.6167	0.0061
426.02	0.677	0.0067
428.01	0.7471	0.0073

System: methyl 3-aminobenzoate; phases: Crystal, Liquid, Air at 1 atmosphere
Property: Molar enthalpy of transition or fusion, kJ/mol (Crystal); method: DSC
Molar enthalpy of transition or fusion, kJ/mol	uncertainty
17.8	0.4

System: methyl 3-aminobenzoate; phases: Crystal, Liquid, Air at 1 atmosphere
Property: Normal melting temperature, K (Crystal); method: DTA
Normal melting temperature, K	uncertainty
325.28	0.4

System: methyl 3-aminobenzoate; phases: Liquid, Gas
Property: Vapor or sublimation pressure, kPa (Liquid); method: Closed cell (Static) method
Temperature, K	Vapor or sublimation pressure, kPa	uncertainty
312	0.65	0.02
313.5	0.75	0.02
314.99	0.85	0.02
316.48	0.97	0.02
317.96	1.12	0.02
319.46	1.29	0.02
320.96	1.46	0.02
322.45	1.67	0.02
323.94	1.89	0.02
325.43	2.15	0.02
326.91	2.44	0.02
328.9	2.9	0.02
330.91	3.46	0.02
332.87	4.05	0.03
334.87	4.81	0.03
336.85	5.64	0.03
338.87	6.66	0.04
340.81	7.71	0.04
342.84	9.08	0.05
344.8	10.5	0.06
346.81	12.36	0.07
348.78	14.21	0.08
350.78	16.65	0.09
352.74	19.16	0.11
354.75	22.09	0.12
356.71	25.43	0.14
358.71	29.23	0.16
360.7	33.49	0.18
362.68	38.25	0.21
364.65	43.75	0.24
366.65	49.87	0.27
368.63	56.52	0.31
370.62	64.95	0.35
372.58	72.63	0.39
374.57	82.23	0.44
376.55	92.81	0.5

System: methyl 3-aminobenzoate; phases: Crystal, Gas
Property: Vapor or sublimation pressure, kPa (Crystal); method: Closed cell (Static) method
Temperature, K	Vapor or sublimation pressure, kPa	uncertainty
308.94	0.00035	0.00011
310.45	0.00041	0.00011
311.91	0.00049	0.00011
313.43	0.00058	0.00011
314.91	0.0007	0.00011
316.41	0.00082	0.00011
317.91	0.00097	0.00011
319.37	0.00114	0.00012
320.97	0.00137	0.00012
322.45	0.0016	0.00013
323.94	0.00189	0.00013

System: methyl 2-aminobenzoate; phases: Crystal, Liquid, Air at 1 atmosphere
Property: Molar enthalpy of transition or fusion, kJ/mol (Crystal); method: DSC
Molar enthalpy of transition or fusion, kJ/mol	uncertainty
17.9	0.4

System: methyl 2-aminobenzoate; phases: Crystal, Liquid, Air at 1 atmosphere
Property: Normal melting temperature, K (Crystal); method: DTA
Normal melting temperature, K	uncertainty
294.1	0.39

System: methyl 2-aminobenzoate; phases: Liquid, Gas
Property: Vapor or sublimation pressure, kPa (Liquid); method: Closed cell (Static) method
Temperature, K	Vapor or sublimation pressure, kPa	uncertainty
282.39	0.00043	0.0001
284.37	0.00053	0.0001
286.37	0.00066	0.0001
288.37	0.00079	0.0001
290.34	0.00097	0.00011
292.33	0.00117	0.00011
294.3	0.00141	0.00011
296.27	0.00169	0.00012
298.28	0.002	0.00013
300.26	0.00238	0.00014
302.21	0.00287	0.00015
304.21	0.00343	0.00017
306.24	0.00409	0.00019
308.16	0.00477	0.00021
310.16	0.00568	0.00025
312.16	0.00667	0.00028
314.17	0.00796	0.00033
316.15	0.00938	0.00038
318.1	0.01082	0.00044
320.1	0.01273	0.00051
322.14	0.01494	0.00054
324.03	0.01728	0.00058
326.09	0.02019	0.00063
328.05	0.02341	0.00067
330.03	0.02713	0.00073
332.02	0.03127	0.0008
333.99	0.03605	0.00087
335.94	0.04133	0.00095
337.95	0.04755	0.00105
339.89	0.05425	0.00115
341.91	0.06222	0.00127
343.82	0.07048	0.0014
345.87	0.08046	0.00156
347.76	0.09095	0.00172
349.82	0.1035	0.0019
351.76	0.1166	0.0021
353.75	0.1325	0.002
355.69	0.1489	0.0022
357.7	0.1681	0.0023
359.64	0.1884	0.0025
361.66	0.2121	0.0027
363.56	0.2372	0.0029
365.6	0.266	0.0031
367.51	0.2963	0.0034
369.54	0.3312	0.0037
