Measured thermophysical data. Measurement and correlation of the vapor-liquid equilibrium for methanol + acetonitrile + imidazolium-based ionic liquids at 101.3 kPa
Source: J. Chem. Thermodyn., 2016, 10.1016/j.jct.2016.05.011
Compound 1: methanol, CH4O, InChI=1S/CH4O/c1-2/h2H,1H3, purity 99.5%
Compound 2: acetonitrile, C2H3N, InChI=1S/C2H3N/c1-2-3/h1H3, purity 99.8%
Compound 3: 1-ethyl-3-methylimidazolium tetrafluoroborate, C6H11BF4N2, InChI=1S/C6H11N2.BF4/c1-3-8-5-4-7(2)6-8;2-1(3,4)5/h4-6H,3H2,1-2H3;/q+1;-1, purity 98%
Compound 4: 1-methyl-3-octylimidazolium tetrafluoroborate, C12H23BF4N2, InChI=1S/C12H23N2.BF4/c1-3-4-5-6-7-8-9-14-11-10-13(2)12-14;2-1(3,4)5/h10-12H,3-9H2,1-2H3;/q+1;-1, purity 97%

System: methanol; phases: Liquid
Property: Mass density, kg/m3 (Liquid); method: Vibrating tube method
Temperature, K	Pressure, kPa	Mass density, kg/m3	uncertainty
293.15	101.325	791.1	1

System: methanol; phases: Liquid
Property: Refractive index (Na D-line) (Liquid); method: Standard Abbe refractometry
Temperature, K	Pressure, kPa	Refractive index (Na D-line)	uncertainty
293.15	101.325	1.3283	0.0004

System: methanol; phases: Liquid, Gas
Property: Normal boiling temperature, K (Liquid); method: Ebulliometric method (Recirculating still)
Normal boiling temperature, K	uncertainty
337.56	0.3

System: acetonitrile; phases: Liquid
Property: Mass density, kg/m3 (Liquid); method: Vibrating tube method
Temperature, K	Pressure, kPa	Mass density, kg/m3	uncertainty
293.15	101.325	782.1	1

System: acetonitrile; phases: Liquid
Property: Refractive index (Na D-line) (Liquid); method: Standard Abbe refractometry
Temperature, K	Pressure, kPa	Refractive index (Na D-line)	uncertainty
293.15	101.325	1.3439	0.0004

System: acetonitrile; phases: Liquid, Gas
Property: Normal boiling temperature, K (Liquid); method: Ebulliometric method (Recirculating still)
Normal boiling temperature, K	uncertainty
354.59	0.3

System: methanol + acetonitrile; phases: Liquid, Gas
Fixed: Pressure, kPa = 101.3
Property: Boiling temperature at pressure P, K (Liquid); method: Ebulliometric method (Recirculating still)
Mole fraction of methanol	Boiling temperature at pressure P, K	uncertainty
0	354.59	0.31
0.042	351.02	0.42
0.089	348.19	0.37
0.184	344.04	0.34
0.284	341.32	0.32
0.394	339.57	0.32
0.498	338.4	0.32
0.595	337.59	0.31
0.697	337.09	0.31
0.752	336.59	0.31
0.8	336.57	0.31
0.849	336.64	0.31
0.901	337.11	0.31
0.949	337.42	0.31
1	337.56	0.31

System: methanol + acetonitrile; phases: Gas, Liquid
Fixed: Pressure, kPa = 101.3
Property: Mole fraction of methanol (Gas); method: Chromatography
Mole fraction of methanol	Mole fraction of methanol	uncertainty
0	0	
0.042	0.129	0.013
0.089	0.266	0.009
0.184	0.405	0.007
0.284	0.509	0.007
0.394	0.58	0.006
0.498	0.631	0.006
0.595	0.688	0.005
0.697	0.739	0.005
0.752	0.772	0.005
0.8	0.802	0.005
0.849	0.838	0.005
0.901	0.882	0.006
0.949	0.932	0.006
1	1	

System: methanol + acetonitrile + 1-ethyl-3-methylimidazolium tetrafluoroborate; phases: Liquid, Gas
Fixed: Pressure, kPa = 101.3
Property: Mole fraction of 1-ethyl-3-methylimidazolium tetrafluoroborate (Liquid); method: Gravimetric method
Property: Mole fraction of 1-ethyl-3-methylimidazolium tetrafluoroborate (Gas); method: Gravimetric method
Property: Mole fraction of methanol (Gas); method: Gravimetric method
Temperature, K	Mole fraction of methanol	Mole fraction of 1-ethyl-3-methylimidazolium tetrafluoroborate	uncertainty	Mole fraction of 1-ethyl-3-methylimidazolium tetrafluoroborate	uncertainty	Mole fraction of methanol	uncertainty
348.61	0.093	0.014	0.004	0		0.26	
344.65	0.184	0.014	0.004	0		0.412	
341.76	0.284	0.012	0.004	0		0.503	
339.85	0.384	0.012	0.004	0		0.57	
338.58	0.484	0.014	0.004	0		0.64	
338.1	0.536	0.015	0.004	0		0.669	
337.66	0.59	0.012	0.004	0		0.69	
337.09	0.69	0.013	0.004	0		0.753	
336.7	0.791	0.013	0.004	0		0.813	
337.62	0.891	0.013	0.004	0		0.89	
353.04	0.073	0.1	0.004	0		0.233	
348.86	0.159	0.1	0.004	0		0.395	
345.52	0.257	0.1	0.004	0		0.504	
342.83	0.347	0.1	0.004	0		0.602	
341.44	0.441	0.1	0.004	0		0.664	
341.05	0.49	0.101	0.004	0		0.696	
340.04	0.533	0.101	0.004	0		0.727	
339.74	0.629	0.1	0.004	0		0.789	
339.35	0.72	0.1	0.004	0		0.851	
339.31	0.811	0.1	0.004	0		0.92	
358.09	0.07	0.197	0.004	0		0.226	
354.28	0.131	0.198	0.004	0		0.365	
350.47	0.207	0.197	0.004	0		0.49	
347.73	0.299	0.197	0.004	0		0.585	
346.06	0.384	0.2	0.004	0		0.672	
344.82	0.435	0.2	0.004	0		0.719	
344.15	0.469	0.2	0.004	0		0.743	
343.25	0.554	0.2	0.004	0		0.808	
342.27	0.647	0.2	0.004	0		0.871	
342.18	0.721	0.198	0.004	0		0.928	

System: methanol + acetonitrile + 1-methyl-3-octylimidazolium tetrafluoroborate; phases: Liquid, Gas
Fixed: Pressure, kPa = 101.3
Property: Mole fraction of 1-methyl-3-octylimidazolium tetrafluoroborate (Liquid); method: Gravimetric method
Property: Mole fraction of 1-methyl-3-octylimidazolium tetrafluoroborate (Gas); method: Gravimetric method
Property: Mole fraction of methanol (Gas); method: Gravimetric method
Temperature, K	Mole fraction of methanol	Mole fraction of 1-methyl-3-octylimidazolium tetrafluoroborate	uncertainty	Mole fraction of 1-methyl-3-octylimidazolium tetrafluoroborate	uncertainty	Mole fraction of methanol	uncertainty
350.49	0.093	0.052	0.004	0		0.251	
346.34	0.188	0.052	0.004	0		0.393	
342.84	0.287	0.052	0.004	0		0.522	
340.2	0.373	0.052	0.004	0		0.589	
339.89	0.467	0.052	0.004	0		0.66	
339.35	0.514	0.053	0.004	0		0.684	
339.17	0.568	0.052	0.004	0		0.718	
338.65	0.665	0.053	0.004	0		0.774	
338.26	0.762	0.052	0.004	0		0.835	
338.3	0.856	0.053	0.004	0		0.906	
353.87	0.081	0.1	0.004	0		0.236	
349.66	0.175	0.1	0.004	0		0.401	
346.55	0.264	0.1	0.004	0		0.512	
344.23	0.353	0.1	0.004	0		0.601	
342.56	0.444	0.1	0.004	0		0.668	
342.04	0.49	0.1	0.004	0		0.702	
341.27	0.537	0.1	0.004	0		0.729	
340.45	0.63	0.1	0.004	0		0.79	
340.21	0.722	0.1	0.004	0		0.855	
340.19	0.811	0.1	0.004	0		0.921	
360.73	0.082	0.197	0.004	0		0.237	
357.56	0.148	0.198	0.004	0		0.363	
354.9	0.219	0.197	0.004	0		0.491	
350.45	0.335	0.197	0.004	0		0.624	
349.34	0.374	0.2	0.004	0		0.657	
348.05	0.425	0.2	0.004	0		0.71	
347.18	0.464	0.2	0.004	0		0.74	
346.16	0.555	0.2	0.004	0		0.805	
345.15	0.634	0.2	0.004	0		0.865	
344.6	0.728	0.198	0.004	0		0.937	
