Measured thermophysical data. Solubility and physic-chemical properties of NaH2PO4 in phosphoric acid, sodium chloride and their mixture solutions at T = (298.15 and 313.15) K
Source: J. Chem. Thermodyn., 2015, 10.1016/j.jct.2015.06.038
Compound 1: water, H2O, InChI=1S/H2O/h1H2, purity 99%
Compound 2: sodium dihydrogen phosphate, H2NaO4P, InChI=1S/Na.H3O4P/c;1-5(2,3)4/h;(H3,1,2,3,4)/q+1;/p-1, purity 99%
Compound 3: sodium chloride, ClNa, InChI=1S/ClH.Na/h1H;/q;+1/p-1, purity 99.5%
Compound 4: phosphoric acid, H3O4P, InChI=1S/H3O4P/c1-5(2,3)4/h(H3,1,2,3,4), purity 95%

System: sodium dihydrogen phosphate + phosphoric acid + water; phases: Liquid, Crystal of intercomponent compound 1
Fixed: Pressure, kPa = 88.5
Property: Ratio of amount of solute to mass of solution, mol/kg of sodium dihydrogen phosphate (Liquid); method: gravimetric method
Temperature, K	Ratio of amount of solute to mass of solution, mol/kg of phosphoric acid	Ratio of amount of solute to mass of solution, mol/kg of sodium dihydrogen phosphate	uncertainty
298.15	0.27	4.07	0.26
298.15	0.54	3.66	0.23
298.15	1.21	3.4	0.23
298.15	1.69	3.18	0.25
298.15	1.9	3.07	0.22
298.15	2.1	3.05	0.2
298.15	2.4	2.97	0.32
298.15	2.5	2.8	0.33
298.15	2.79	2.72	0.22
313.15	0.18	4.65	0.28
313.15	0.38	4.41	0.27
313.15	0.78	4.35	0.27
313.15	1.21	4.12	0.3
313.15	1.43	3.86	0.27
313.15	1.87	3.78	0.23
313.15	2.27	3.74	0.26
313.15	2.38	3.6	0.36
313.15	2.66	3.49	0.3

System: sodium dihydrogen phosphate + phosphoric acid + water; phases: Liquid
Fixed: Pressure, kPa = 88.5
Property: Refractive index (Na D-line) (Liquid); method: Standard Abbe refractometry
Temperature, K	Ratio of amount of solute to mass of solution, mol/kg of sodium dihydrogen phosphate	Ratio of amount of solute to mass of solution, mol/kg of phosphoric acid	Refractive index (Na D-line)	uncertainty
298.15	4.07	0.27	1.397	0.003
298.15	3.66	0.54	1.397	0.003
298.15	3.4	1.21	1.401	0.003
298.15	3.18	1.69	1.404	0.003
298.15	3.07	1.9	1.406	0.003
298.15	3.05	2.1	1.413	0.003
298.15	2.97	2.4	1.415	0.003
298.15	2.8	2.5	1.417	0.003
298.15	2.72	2.79	1.419	0.003
313.15	4.65	0.18	1.411	0.003
313.15	4.41	0.38	1.412	0.003
313.15	4.35	0.78	1.414	0.003
313.15	4.12	1.21	1.414	0.003
313.15	3.86	1.43	1.416	0.003
313.15	3.78	1.87	1.417	0.003
313.15	3.74	2.27	1.42	0.003
313.15	3.6	2.38	1.424	0.003
313.15	3.49	2.66	1.425	0.003

System: sodium dihydrogen phosphate + phosphoric acid + water; phases: Liquid
Fixed: Pressure, kPa = 88.5
Property: Viscosity, Pa*s (Liquid); method: Capillary tube (Ostwald; Ubbelohde) method
Temperature, K	Ratio of amount of solute to mass of solution, mol/kg of sodium dihydrogen phosphate	Ratio of amount of solute to mass of solution, mol/kg of phosphoric acid	Viscosity, Pa*s	uncertainty
298.15	4.07	0.27	0.01239	0.00199
298.15	3.66	0.54	0.01277	0.00205
298.15	3.4	1.21	0.0154	0.00247
298.15	3.18	1.69	0.01943	0.00312
298.15	3.07	1.9	0.02432	0.00391
298.15	3.05	2.1	0.02949	0.00474
298.15	2.97	2.4	0.03908	0.00628
298.15	2.8	2.5	0.05475	0.0088
298.15	2.72	2.79	0.0574	0.00923
313.15	4.65	0.18	0.02533	0.00407
313.15	4.41	0.38	0.02621	0.00421
313.15	4.35	0.78	0.02706	0.00435
313.15	4.12	1.21	0.02832	0.00455
313.15	3.86	1.43	0.03088	0.00496
313.15	3.78	1.87	0.03761	0.00604
313.15	3.74	2.27	0.04346	0.00698
313.15	3.6	2.38	0.0509	0.00818
313.15	3.49	2.66	0.05277	0.00848

System: sodium dihydrogen phosphate + phosphoric acid + water; phases: Liquid
Fixed: Pressure, kPa = 88.5
Property: Mass density, kg/m3 (Liquid); method: Pycnometric method
Temperature, K	Ratio of amount of solute to mass of solution, mol/kg of sodium dihydrogen phosphate	Ratio of amount of solute to mass of solution, mol/kg of phosphoric acid	Mass density, kg/m3	uncertainty
298.15	4.07	0.27	1437	15
298.15	3.66	0.54	1439	15
298.15	3.4	1.21	1462	15
298.15	3.18	1.69	1492	15
298.15	3.07	1.9	1507	15
298.15	3.05	2.1	1563	16
298.15	2.97	2.4	1582	16
298.15	2.8	2.5	1612	16
298.15	2.72	2.79	1621	17
313.15	4.65	0.18	1572	16
313.15	4.41	0.38	1577	16
313.15	4.35	0.78	1578	16
313.15	4.12	1.21	1602	16
313.15	3.86	1.43	1608	16
313.15	3.78	1.87	1609	16
313.15	3.74	2.27	1629	17
313.15	3.6	2.38	1648	17
313.15	3.49	2.66	1665	17

System: sodium dihydrogen phosphate + sodium chloride + water; phases: Liquid, Crystal of intercomponent compound 1
Fixed: Pressure, kPa = 88.5
Property: Ratio of amount of solute to mass of solution, mol/kg of sodium dihydrogen phosphate (Liquid); method: gravimetric method
Temperature, K	Ratio of amount of solute to mass of solution, mol/kg of sodium chloride	Ratio of amount of solute to mass of solution, mol/kg of sodium dihydrogen phosphate	uncertainty
298.15	0.2	3.81	0.23
298.15	0.45	3.61	0.22
298.15	0.74	3.43	0.21
298.15	0.9	3.29	0.21
298.15	1.42	2.95	0.2
298.15	1.85	2.74	0.21
298.15	2.03	2.53	0.2
298.15	2.4	2.33	0.22
313.15	0.12	4.8	0.29
313.15	0.27	4.59	0.28
313.15	0.39	4.4	0.27
313.15	0.58	4.26	0.36
313.15	0.62	4.09	0.27
313.15	0.71	4.01	0.24
313.15	0.91	3.99	0.25
313.15	1.18	3.69	0.26

System: sodium dihydrogen phosphate + sodium chloride + water; phases: Liquid
Fixed: Pressure, kPa = 88.5
Property: Refractive index (Na D-line) (Liquid); method: Standard Abbe refractometry
Temperature, K	Ratio of amount of solute to mass of solution, mol/kg of sodium dihydrogen phosphate	Ratio of amount of solute to mass of solution, mol/kg of sodium chloride	Refractive index (Na D-line)	uncertainty
298.15	3.81	0.2	1.398	0.003
298.15	3.61	0.45	1.396	0.003
298.15	3.43	0.74	1.395	0.003
298.15	3.29	0.9	1.395	0.003
298.15	2.95	1.42	1.393	0.003
298.15	2.74	1.85	1.393	0.003
298.15	2.53	2.03	1.393	0.003
298.15	2.33	2.4	1.392	0.003
313.15	4.8	0.12	1.412	0.003
313.15	4.59	0.27	1.41	0.003
313.15	4.4	0.39	1.41	0.003
313.15	4.26	0.58	1.41	0.003
313.15	4.09	0.62	1.408	0.003
313.15	4.01	0.71	1.408	0.003
313.15	3.99	0.91	1.408	0.003
313.15	3.69	1.18	1.407	0.003

System: sodium dihydrogen phosphate + sodium chloride + water; phases: Liquid
Fixed: Pressure, kPa = 88.5
Property: Viscosity, Pa*s (Liquid); method: Capillary tube (Ostwald; Ubbelohde) method
Temperature, K	Ratio of amount of solute to mass of solution, mol/kg of sodium dihydrogen phosphate	Ratio of amount of solute to mass of solution, mol/kg of sodium chloride	Viscosity, Pa*s	uncertainty
298.15	3.81	0.2	0.01419	0.00227
298.15	3.61	0.45	0.01096	0.00176
298.15	3.43	0.74	0.0097	0.00155
298.15	3.29	0.9	0.00909	0.00146
298.15	2.95	1.42	0.00708	0.00113
298.15	2.74	1.85	0.00664	0.00106
298.15	2.53	2.03	0.00621	0.00099
298.15	2.33	2.4	0.00547	0.00088
313.15	4.8	0.12	0.02472	0.00396
313.15	4.59	0.27	0.0226	0.00362
313.15	4.4	0.39	0.02123	0.0034
313.15	4.26	0.58	0.01727	0.00277
313.15	4.09	0.62	0.01679	0.00269
313.15	4.01	0.71	0.01389	0.00222
313.15	3.99	0.91	0.01325	0.00212
313.15	3.69	1.18	0.0123	0.00197

System: sodium dihydrogen phosphate + sodium chloride + water; phases: Liquid
Fixed: Pressure, kPa = 88.5
Property: Mass density, kg/m3 (Liquid); method: Pycnometric method
Temperature, K	Ratio of amount of solute to mass of solution, mol/kg of sodium dihydrogen phosphate	Ratio of amount of solute to mass of solution, mol/kg of sodium chloride	Mass density, kg/m3	uncertainty
298.15	3.81	0.2	1427	14
298.15	3.61	0.45	1412	14
298.15	3.43	0.74	1402	14
298.15	3.29	0.9	1391	14
298.15	2.95	1.42	1369	14
298.15	2.74	1.85	1355	14
298.15	2.53	2.03	1352	14
298.15	2.33	2.4	1341	13
313.15	4.8	0.12	1551	16
313.15	4.59	0.27	1543	15
313.15	4.4	0.39	1530	15
313.15	4.26	0.58	1513	15
313.15	4.09	0.62	1504	15
313.15	4.01	0.71	1494	15
313.15	3.99	0.91	1482	15
313.15	3.69	1.18	1467	15
