Measured thermophysical data. Density and speed of sound measurements of hexadecane
Source: J. Chem. Thermodyn., 2010, 10.1016/j.jct.2010.01.003
Compound 1: hexadecane, C16H34, InChI=1S/C16H34/c1-3-5-7-9-11-13-15-16-14-12-10-8-6-4-2/h3-16H2,1-2H3

System: hexadecane; phases: Liquid
Fixed: Pressure, kPa = 83
Property: Speed of sound, m/s (Liquid); method: Single path-length method
Temperature, K	Speed of sound, m/s	uncertainty
290.65	1367.2	5.6
291.15	1365.3	5.6
291.65	1363.4	5.5
292.15	1361.5	5.5
292.65	1359.6	5.5
293.15	1357.7	5.5
298.15	1338.8	5.4
303.15	1320.2	5.4
308.15	1301.7	5.3
313.15	1283.4	5.2
318.15	1265.3	5.2
323.15	1247.4	5.1
328.15	1229.8	5
333.15	1212.3	5
338.15	1194.9	4.9
343.15	1177.9	4.8

System: hexadecane; phases: Liquid
Fixed: Pressure, kPa = 83
Property: Mass density, kg/m3 (Liquid); method: Vibrating tube method
Temperature, K	Mass density, kg/m3	uncertainty
290.65	775	0.7
291.15	774.7	0.7
291.65	774.4	0.7
292.15	774	0.7
292.65	773.6	0.7
293.15	773.3	0.7
298.15	769.8	0.7
303.15	766.4	0.7
308.15	762.9	0.7
313.15	759.4	0.6
318.15	756	0.6
323.15	752.5	0.6
328.15	749.1	0.6
333.15	745.6	0.6
338.15	742.2	0.6
343.15	738.7	0.6

System: hexadecane; phases: Liquid
Property: Mass density, kg/m3 (Liquid); method: Vibrating tube method
Temperature, K	Pressure, kPa	Mass density, kg/m3	uncertainty
310	1110	761.74	1.64
310	2710	762.85	1.64
310	5870	765.01	1.64
310	10770	768.25	1.65
310	15700	771.38	1.66
310	20650	774.41	1.66
310	25600	777.3	1.67
310	34700	782.46	1.69
310	36730	783.55	1.69
330	1130	748.39	1.64
330	2730	749.66	1.64
330	5890	752.03	1.64
330	10790	755.61	1.65
330	15740	759.04	1.66
330	20680	762.35	1.67
330	25980	765.74	1.68
330	36160	771.9	1.7
330	38240	773.11	1.7
330	45960	777.44	1.72
350	1020	734.55	1.64
350	2630	735.94	1.64
350	5790	738.58	1.64
350	10710	742.54	1.65
350	15650	746.27	1.66
350	20600	749.88	1.67
350	25560	753.33	1.68
350	36140	760.24	1.7
350	40130	762.7	1.71
370	1030	720.83	1.64
370	2620	722.35	1.64
370	5780	725.3	1.64
370	10710	729.65	1.65
370	15660	733.76	1.66
370	20610	737.69	1.67
370	25580	741.44	1.68
370	34010	747.41	1.7
370	41340	752.26	1.72
390	1040	706.5	1.64
390	2630	708.23	1.64
390	5790	711.5	1.64
390	10690	716.31	1.65
390	15650	720.83	1.66
390	20600	725.12	1.67
390	25550	729.18	1.69
390	35160	736.52	1.71
390	39900	739.91	1.72
390	44320	742.94	1.74
390	46900	744.61	1.74
410	1080	692.52	1.64
410	2680	694.47	1.64
410	5830	698.12	1.65
410	10750	703.47	1.66
410	15700	708.47	1.67
410	20630	713.12	1.68
410	25570	717.52	1.69
410	30420	721.61	1.7
410	37220	726.98	1.72
410	44820	732.63	1.74
410	50700	736.75	1.76
430	970	677.73	1.64
430	2590	679.9	1.64
430	5770	684.04	1.65
430	10650	689.93	1.66
430	15590	695.44	1.67
430	20560	700.57	1.68
430	25530	705.37	1.69
430	30420	709.84	1.71
430	39590	717.56	1.74
430	44320	721.28	1.75
430	48490	724.39	1.76
450	960	662.64	1.64
450	2560	665.22	1.64
450	5750	669.98	1.65
450	10620	676.53	1.66
450	15590	682.65	1.67
450	20560	688.27	1.68
450	25530	693.48	1.7
450	30800	698.66	1.71
450	39150	706.2	1.74
450	43400	709.8	1.76
450	45310	711.32	1.76
470	1070	648.42	1.64
470	2660	651.24	1.64
470	5770	656.4	1.65
470	10730	663.85	1.66
470	15690	670.57	1.67
470	20640	676.69	1.69
470	25530	682.28	1.7
470	30470	687.53	1.72
470	38870	695.7	1.75
470	42790	699.27	1.76
470	47790	703.6	1.78
