Measured thermophysical data. Density and viscosity of pyridinium-based ionic liquids and their binary mixtures with water at several temperatures
Source: J. Chem. Thermodyn., 2009, 10.1016/j.jct.2008.09.001
Compound 1: 1-butylpyridinium tetrafluoroborate, C9H14BF4N, InChI=1S/C9H14N.BF4/c1-2-3-7-10-8-5-4-6-9-10;2-1(3,4)5/h4-6,8-9H,2-3,7H2,1H3;/q+1;-1
Compound 2: 1-octylpyridinium tetrafluoroborate, C13H22BF4N, InChI=1S/C13H22N.BF4/c1-2-3-4-5-6-8-11-14-12-9-7-10-13-14;2-1(3,4)5/h7,9-10,12-13H,2-6,8,11H2,1H3;/q+1;-1
Compound 3: water, H2O, InChI=1S/H2O/h1H2

System: 1-butylpyridinium tetrafluoroborate; phases: Liquid
Fixed: Pressure, kPa = 101.3
Property: Viscosity, Pa*s (Liquid); method: Falling or rolling sphere viscometry
Temperature, K	Viscosity, Pa*s	uncertainty
283.15	0.46449	0.03721
288.15	0.31348	0.02144
293.15	0.22306	0.01289
298.15	0.16326	0.00793
303.15	0.12299	0.00502
308.15	0.09421	0.00327
313.15	0.07029	0.00214
318.15	0.05581	0.00161
323.15	0.04512	0.00137
328.15	0.03712	0.00117
333.15	0.03086	0.00103
338.15	0.02601	0.00092
343.15	0.02217	0.00085
348.15	0.01845	0.00078
353.15	0.01584	0.00074

System: 1-butylpyridinium tetrafluoroborate; phases: Liquid
Fixed: Pressure, kPa = 101.3
Property: Mass density, kg/m3 (Liquid); method: Vibrating tube method
Temperature, K	Mass density, kg/m3	uncertainty
283.15	1224	8.2
288.15	1220.4	8.1
293.15	1216.9	8.1
298.15	1213.4	8
303.15	1210	8
308.15	1206.6	7.9
313.15	1203.2	7.9
318.15	1199.8	7.8
323.15	1196.4	7.8
328.15	1193	7.7
333.15	1189.6	7.7
338.15	1186.3	7.7
343.15	1182.9	7.6
348.15	1179.4	7.6
353.15	1176	7.5

System: 1-octylpyridinium tetrafluoroborate; phases: Liquid
Fixed: Pressure, kPa = 101.3
Property: Viscosity, Pa*s (Liquid); method: Falling or rolling sphere viscometry
Temperature, K	Viscosity, Pa*s	uncertainty
283.15	0.64014	0.05771
288.15	0.44651	0.03532
293.15	0.31966	0.02191
298.15	0.2335	0.01376
303.15	0.17185	0.00856
308.15	0.13477	0.00577
313.15	0.10574	0.0039
318.15	0.08156	0.00259
323.15	0.06489	0.00189
328.15	0.05352	0.00152
333.15	0.04528	0.00136
338.15	0.0381	0.00119
343.15	0.03238	0.00105
348.15	0.02777	0.00095
353.15	0.02405	0.00088

System: 1-octylpyridinium tetrafluoroborate; phases: Liquid
Fixed: Pressure, kPa = 101.3
Property: Mass density, kg/m3 (Liquid); method: Vibrating tube method
Temperature, K	Mass density, kg/m3	uncertainty
283.15	1123.4	6.8
288.15	1119.8	6.8
293.15	1116.2	6.8
298.15	1112.7	6.7
303.15	1109.2	6.7
308.15	1105.7	6.6
313.15	1102.2	6.6
318.15	1098.8	6.5
323.15	1095.4	6.5
328.15	1091.9	6.5
333.15	1088.5	6.4
338.15	1085.1	6.4
343.15	1081.6	6.3
348.15	1078.2	6.3
353.15	1074.9	6.3

System: water + 1-butylpyridinium tetrafluoroborate; phases: Liquid
Fixed: Pressure, kPa = 101.3
Property: Viscosity, Pa*s (Liquid); method: Falling or rolling sphere viscometry
Mole fraction of water	Temperature, K	Viscosity, Pa*s	uncertainty
0	283.15	0.46449	0.03721
0	288.15	0.31348	0.02144
0	293.15	0.22306	0.01289
0	298.15	0.16326	0.00793
0	303.15	0.12299	0.00502
0	308.15	0.09421	0.00327
0	313.15	0.07029	0.00214
0	318.15	0.05581	0.00161
0	323.15	0.04512	0.00137
0	328.15	0.03712	0.00117
0	333.15	0.03086	0.00103
0	338.15	0.02601	0.00092
0	343.15	0.02217	0.00085
0	348.15	0.01845	0.00077
0	353.15	0.01584	0.00074
0.11	283.15	0.21064	0.0122
0.11	288.15	0.15377	0.00701
0.11	293.15	0.11556	0.00436
0.11	298.15	0.0881	0.00276
0.11	303.15	0.06711	0.00186
0.11	308.15	0.05343	0.00142
0.11	313.15	0.04319	0.00123
0.11	318.15	0.03547	0.00106
0.11	323.15	0.02949	0.00094
0.11	328.15	0.02488	0.00085
0.11	333.15	0.02118	0.00079
0.11	338.15	0.01821	0.00074
0.11	343.15	0.01589	0.00071
0.263	283.15	0.08404	0.00288
0.263	288.15	0.06023	0.00151
0.263	293.15	0.04741	0.0012
0.263	298.15	0.03811	0.00102
0.263	303.15	0.03112	0.0009
0.263	308.15	0.02587	0.00081
0.263	313.15	0.02169	0.00075
0.263	318.15	0.01848	0.00071
0.263	323.15	0.01587	0.00068
0.263	328.15	0.01377	0.00066
0.263	333.15	0.01204	0.00065
0.263	338.15	0.01057	0.00064
0.263	343.15	0.00935	0.00063
0.391	283.15	0.04491	0.00104
0.391	288.15	0.03582	0.00091
0.391	293.15	0.02905	0.00081
0.391	298.15	0.02397	0.00075
0.391	303.15	0.02001	0.0007
0.391	308.15	0.01693	0.00067
0.391	313.15	0.01451	0.00065
0.391	318.15	0.01253	0.00064
0.391	323.15	0.01093	0.00063
0.391	328.15	0.00958	0.00062
0.391	333.15	0.0086	0.00062
0.391	338.15	0.00771	0.00062
0.391	343.15	0.00691	0.00061
0.414	283.15	0.04127	0.00097
0.414	288.15	0.03298	0.00086
0.414	293.15	0.02681	0.00078
0.414	298.15	0.02221	0.00072
0.414	303.15	0.01863	0.00069
0.414	308.15	0.01581	0.00066
0.414	313.15	0.01358	0.00065
0.414	318.15	0.01177	0.00063
0.414	323.15	0.01022	0.00063
0.414	328.15	0.00906	0.00062
0.414	333.15	0.00799	0.00062
0.414	338.15	0.00717	0.00061
0.414	343.15	0.00637	0.00061
0.549	283.15	0.02277	0.00072
0.549	288.15	0.01849	0.00067
0.549	293.15	0.01537	0.00065
0.549	298.15	0.01299	0.00063
0.549	303.15	0.0111	0.00062
0.549	308.15	0.00961	0.00062
0.549	313.15	0.00832	0.00061
0.549	318.15	0.00741	0.00061
0.549	323.15	0.00657	0.00061
0.549	328.15	0.00586	0.00061
0.549	333.15	0.00519	0.0006
0.549	338.15	0.00468	0.0006
0.549	343.15	0.00424	0.0006
0.637	283.15	0.01585	0.00064
0.637	288.15	0.01301	0.00063
0.637	293.15	0.01082	0.00062
0.637	298.15	0.00916	0.00061
0.637	303.15	0.008	0.00061
0.637	308.15	0.00701	0.00061
0.637	313.15	0.00613	0.00061
0.637	318.15	0.00543	0.0006
0.637	323.15	0.00478	0.0006
0.637	328.15	0.00429	0.0006
0.637	333.15	0.00387	0.0006
0.637	338.15	0.00352	0.0006
0.637	343.15	0.00322	0.0006
0.724	283.15	0.01078	0.00061
0.724	288.15	0.01072	0.00061
0.724	293.15	0.00761	0.00061
0.724	298.15	0.00655	0.00061
0.724	303.15	0.00565	0.0006
0.724	308.15	0.00492	0.0006
0.724	313.15	0.00434	0.0006
0.724	318.15	0.00385	0.0006
0.724	323.15	0.00346	0.0006
0.724	328.15	0.00311	0.0006
0.724	333.15	0.00282	0.0006
0.724	338.15	0.00258	0.0006
0.724	343.15	0.00237	0.0006
0.856	283.15	0.00553	0.0006
0.856	288.15	0.00458	0.0006
0.856	293.15	0.00388	0.0006
0.856	298.15	0.00336	0.0006
0.856	303.15	0.00294	0.0006
0.856	308.15	0.0026	0.0006
0.856	313.15	0.00232	0.0006
0.856	318.15	0.00209	0.0006
0.856	323.15	0.0019	0.0006
0.856	328.15	0.00174	0.0006
0.856	333.15	0.00161	0.0006
0.856	338.15	0.0015	0.0006
0.856	343.15	0.0014	0.0006

System: water + 1-butylpyridinium tetrafluoroborate; phases: Liquid
Fixed: Pressure, kPa = 101.3
Property: Mass density, kg/m3 (Liquid); method: Vibrating tube method
Mole fraction of water	Temperature, K	Mass density, kg/m3	uncertainty
0	283.15	1224	8.2
0	288.15	1220.4	8.1
0	293.15	1216.9	8.1
0	298.15	1213.4	8
0	303.15	1210	8
0	308.15	1206.6	7.9
0	313.15	1203.2	7.9
0	318.15	1199.8	7.8
0	323.15	1196.4	7.8
0	328.15	1193	7.7
0	333.15	1189.6	7.7
0	338.15	1186.3	7.7
0	343.15	1182.9	7.6
0	348.15	1179.4	7.6
0	353.15	1176	7.5
0.11	283.15	1219.6	6.4
0.11	288.15	1216	6.4
0.11	293.15	1212.7	6.3
0.11	298.15	1209.2	6.3
0.11	303.15	1205.8	6.3
0.11	308.15	1202.4	6.2
0.11	313.15	1198.9	6.2
0.11	318.15	1195.5	6.1
0.11	323.15	1192.1	6.1
0.11	328.15	1188.7	6.1
0.11	333.15	1185.3	6
0.11	338.15	1181.9	6
0.11	343.15	1178.5	6
0.263	283.15	1213.1	4.3
0.263	288.15	1209.5	4.3
0.263	293.15	1206	4.3
0.263	298.15	1202.5	4.3
0.263	303.15	1199	4.2
0.263	308.15	1195.5	4.2
0.263	313.15	1192	4.2
0.263	318.15	1188.5	4.2
0.263	323.15	1185.2	4.1
0.263	328.15	1181.6	4.1
0.263	333.15	1178.3	4.1
0.263	338.15	1174.8	4.1
0.263	343.15	1171.4	4
0.391	283.15	1206.2	3
0.391	288.15	1202.7	2.9
0.391	293.15	1199.1	2.9
0.391	298.15	1195.5	2.9
0.391	303.15	1192	2.9
0.391	308.15	1188.4	2.9
0.391	313.15	1185	2.9
0.391	318.15	1181.4	2.8
0.391	323.15	1177.9	2.8
0.391	328.15	1174.3	2.8
0.391	333.15	1171	2.8
0.391	338.15	1167.5	2.8
0.391	343.15	1164.1	2.8
0.414	283.15	1204.7	2.7
0.414	288.15	1201.3	2.7
0.414	293.15	1197.6	2.7
0.414	298.15	1194.1	2.7
0.414	303.15	1190.5	2.7
0.414	308.15	1186.9	2.7
0.414	313.15	1183.4	2.6
0.414	318.15	1179.9	2.6
0.414	323.15	1176.4	2.6
0.414	328.15	1172.9	2.6
0.414	333.15	1169.3	2.6
0.414	338.15	1165.9	2.6
0.414	343.15	1162.4	2.5
0.549	283.15	1194.4	1.7
0.549	288.15	1190.8	1.6
0.549	293.15	1187.1	1.6
0.549	298.15	1183.5	1.6
0.549	303.15	1179.9	1.6
0.549	308.15	1176.3	1.6
0.549	313.15	1172.7	1.6
0.549	318.15	1169.2	1.6
0.549	323.15	1165.4	1.6
0.549	328.15	1161.8	1.6
0.549	333.15	1194.4	1.7
0.549	338.15	1154.7	1.6
0.549	343.15	1151.2	1.5
0.637	283.15	1184.9	1.1
0.637	288.15	1181.3	1.1
0.637	293.15	1177.6	1.1
0.637	298.15	1173.9	1.1
0.637	303.15	1170.3	1.1
0.637	308.15	1166.6	1.1
0.637	313.15	1162.9	1.1
0.637	318.15	1159.3	1.1
0.637	323.15	1155.6	1
0.637	328.15	1152	1
0.637	333.15	1148.3	1
0.637	338.15	1144.7	1
0.637	343.15	1141.1	1
0.724	283.15	1171.7	0.7
0.724	288.15	1168	0.7
0.724	293.15	1164.2	0.7
0.724	298.15	1160.6	0.7
0.724	303.15	1156.8	0.7
0.724	308.15	1153.1	0.7
0.724	313.15	1149.6	0.7
0.724	318.15	1145.9	0.6
0.724	323.15	1142	0.6
0.724	328.15	1138.3	0.6
0.724	333.15	1134.4	0.6
0.724	338.15	1130.9	0.6
0.724	343.15	1127.1	0.6
0.856	283.15	1135.8	0.3
0.856	288.15	1132.4	0.3
0.856	293.15	1128.9	0.3
0.856	298.15	1125.4	0.3
0.856	303.15	1121.9	0.3
0.856	308.15	1118.3	0.2
0.856	313.15	1114.7	0.2
0.856	318.15	1111	0.2
0.856	323.15	1107.3	0.2
0.856	328.15	1103.6	0.2
0.856	333.15	1099.9	0.2
0.856	338.15	1096.1	0.2
0.856	343.15	1092.3	0.2

System: water + 1-octylpyridinium tetrafluoroborate; phases: Liquid
Fixed: Pressure, kPa = 101.3
Property: Viscosity, Pa*s (Liquid); method: Falling or rolling sphere viscometry
Mole fraction of water	Temperature, K	Viscosity, Pa*s	uncertainty
0	283.15	0.64014	0.05545
0	288.15	0.44651	0.03351
0	293.15	0.31966	0.0204
0	298.15	0.2335	0.01246
0	303.15	0.17185	0.00741
0	308.15	0.13477	0.00469
0	313.15	0.10574	0.00287
0	318.15	0.08156	0.00159
0	323.15	0.06489	0.00097
0	328.15	0.05352	0.00073
0	333.15	0.04528	0.00075
0	338.15	0.0381	0.00071
0	343.15	0.03238	0.00067
0	348.15	0.02777	0.00065
0	353.15	0.02405	0.00064
0.1	283.15	0.4038	0.02889
0.1	288.15	0.28886	0.01747
0.1	293.15	0.21316	0.01072
0.1	298.15	0.15912	0.00646
0.1	303.15	0.12248	0.0039
0.1	308.15	0.09616	0.00235
0.1	313.15	0.0715	0.00126
0.1	318.15	0.05741	0.00082
0.1	323.15	0.04673	0.00078
0.1	328.15	0.03844	0.00072
0.1	333.15	0.0321	0.00068
0.1	338.15	0.02706	0.00066
0.1	343.15	0.02306	0.00064
0.1	348.15	0.01983	0.00062
0.184	283.15	0.26138	0.01511
0.184	288.15	0.19263	0.00904
0.184	293.15	0.14561	0.00548
0.184	298.15	0.11229	0.00328
0.184	303.15	0.086	0.0018
0.184	308.15	0.06834	0.00109
0.184	313.15	0.05493	0.00078
0.184	318.15	0.04498	0.00077
0.184	323.15	0.03706	0.00071
0.184	328.15	0.03098	0.00067
0.184	333.15	0.02618	0.00065
0.184	338.15	0.02238	0.00064
0.184	343.15	0.01925	0.00063
0.184	348.15	0.01671	0.00062
0.324	283.15	0.16138	0.00681
0.324	288.15	0.12131	0.00386
0.324	293.15	0.09411	0.00223
0.324	298.15	0.07196	0.00124
0.324	303.15	0.05788	0.00082
0.324	308.15	0.04709	0.00079
0.324	313.15	0.03875	0.00072
0.324	318.15	0.03219	0.00068
0.324	323.15	0.02726	0.00066
0.324	328.15	0.02323	0.00064
0.324	333.15	0.01992	0.00063
0.324	338.15	0.01732	0.00062
0.324	343.15	0.01505	0.00062
0.324	348.15	0.01313	0.00061
0.477	283.15	0.11644	0.00338
0.477	288.15	0.08903	0.00197
0.477	293.15	0.06994	0.00116
0.477	298.15	0.05507	0.00081
0.477	303.15	0.04437	0.00078
0.477	308.15	0.03611	0.00071
0.477	313.15	0.03019	0.00067
0.477	318.15	0.02523	0.00065
0.477	323.15	0.02139	0.00064
0.477	328.15	0.01815	0.00062
0.477	333.15	0.01584	0.00062
0.477	338.15	0.01344	0.00061
0.477	343.15	0.01158	0.00061
0.477	348.15	0.01005	0.00061
0.562	283.15	0.06383	0.00157
0.562	288.15	0.04984	0.00085
0.562	293.15	0.0396	0.00076
0.562	298.15	0.03177	0.00069
0.562	303.15	0.02647	0.00066
0.562	308.15	0.02222	0.00064
0.562	313.15	0.01943	0.00063
0.562	318.15	0.01688	0.00062
0.562	323.15	0.01454	0.00062
0.562	328.15	0.01205	0.00061
0.562	333.15	0.01061	0.00061
0.562	338.15	0.00851	0.00061
0.562	343.15	0.00815	0.0006
0.562	348.15	0.00717	0.0006
0.67	283.15	0.06555	0.00089
0.67	288.15	0.05065	0.00078
0.67	293.15	0.04042	0.00076
0.67	298.15	0.03269	0.0007
0.67	303.15	0.02682	0.00066
0.67	308.15	0.02227	0.00064
0.67	313.15	0.01867	0.00063
0.67	318.15	0.01598	0.00062
0.67	323.15	0.01365	0.00061
0.67	328.15	0.01188	0.00061
0.67	333.15	0.01038	0.00061
0.67	338.15	0.00923	0.00061
0.67	343.15	0.00799	0.0006
0.67	348.15	0.00719	0.00061
0.758	283.15	0.0518	0.00091
0.758	288.15	0.0378	0.0008
0.758	293.15	0.02874	0.0007
0.758	298.15	0.02324	0.00065
0.758	303.15	0.01917	0.00063
0.758	308.15	0.01597	0.00062
0.758	313.15	0.01356	0.00061
0.758	318.15	0.01152	0.00061
0.758	323.15	0.00995	0.00061
0.758	328.15	0.00861	0.0006
0.758	333.15	0.00763	0.0006
0.758	338.15	0.00675	0.0006
0.758	343.15	0.00599	0.0006
0.758	348.15	0.00529	0.0006
0.783	283.15	0.05427	0.00088
0.783	288.15	0.03863	0.00083
0.783	293.15	0.02921	0.00071
0.783	298.15	0.02273	0.00066
0.783	303.15	0.01809	0.00063
0.783	308.15	0.01511	0.00062
0.783	313.15	0.01278	0.00061
0.783	318.15	0.01108	0.00061
0.783	323.15	0.00939	0.00061
0.783	328.15	0.0082	0.0006
0.783	333.15	0.00717	0.0006
0.783	338.15	0.00631	0.0006
0.783	343.15	0.00558	0.0006
0.783	348.15	0.00497	0.0006

System: water + 1-octylpyridinium tetrafluoroborate; phases: Liquid
Fixed: Pressure, kPa = 101.3
Property: Mass density, kg/m3 (Liquid); method: Vibrating tube method
Mole fraction of water	Temperature, K	Mass density, kg/m3	uncertainty
0	283.15	1123.4	6.8
0	288.15	1119.8	6.8
0	293.15	1116.2	6.8
0	298.15	1112.7	6.7
0	303.15	1109.2	6.7
0	308.15	1105.7	6.6
0	313.15	1102.2	6.6
0	318.15	1098.8	6.5
0	323.15	1095.4	6.5
0	328.15	1091.9	6.5
0	333.15	1088.5	6.4
0	338.15	1085.1	6.4
0	343.15	1081.6	6.3
0	348.15	1078.2	6.3
0	353.15	1074.9	6.3
0.1	283.15	1122.2	5.5
0.1	288.15	1118.6	5.5
0.1	293.15	1115.1	5.4
0.1	298.15	1111.5	5.4
0.1	303.15	1107.9	5.4
0.1	308.15	1104.4	5.3
0.1	313.15	1100.9	5.3
0.1	318.15	1097.4	5.3
0.1	323.15	1094	5.2
0.1	328.15	1090.5	5.2
0.1	333.15	1087	5.2
0.1	338.15	1083.5	5.1
0.1	343.15	1080.1	5.1
0.1	348.15	1076.7	5.1
0.184	283.15	1120.5	4.5
0.184	288.15	1117	4.5
0.184	293.15	1113.4	4.5
0.184	298.15	1109.9	4.4
0.184	303.15	1106.3	4.4
0.184	308.15	1102.9	4.4
0.184	313.15	1099.4	4.3
0.184	318.15	1095.9	4.3
0.184	323.15	1092.4	4.3
0.184	328.15	1088.9	4.3
0.184	333.15	1085.4	4.2
0.184	338.15	1082	4.2
0.184	343.15	1078.5	4.2
0.184	348.15	1075.1	4.1
0.324	283.15	1117.2	3.1
0.324	288.15	1113.6	3.1
0.324	293.15	1110.1	3.1
0.324	298.15	1106.7	3
0.324	303.15	1103.2	3
0.324	308.15	1099.8	3
0.324	313.15	1096.1	3
0.324	318.15	1092.6	3
0.324	323.15	1089.2	2.9
0.324	328.15	1085.7	2.9
0.324	333.15	1082.2	2.9
0.324	338.15	1078.8	2.9
0.324	343.15	1075.3	2.9
0.324	348.15	1071.9	2.8
0.477	283.15	1113.1	1.9
0.477	288.15	1109.5	1.9
0.477	293.15	1106	1.8
0.477	298.15	1102.5	1.8
0.477	303.15	1099	1.8
0.477	308.15	1095.5	1.8
0.477	313.15	1091.8	1.8
0.477	318.15	1088.1	1.8
0.477	323.15	1084.7	1.8
0.477	328.15	1081.3	1.8
0.477	333.15	1077.6	1.7
0.477	338.15	1074.1	1.7
0.477	343.15	1061.4	1.7
0.477	348.15	1054.3	1.7
0.562	283.15	1110.3	1.3
0.562	288.15	1106.8	1.3
0.562	293.15	1103.1	1.3
0.562	298.15	1099.6	1.3
0.562	303.15	1096.2	1.3
0.562	308.15	1092.4	1.3
0.562	313.15	1088.8	1.3
0.562	318.15	1085.1	1.3
0.562	323.15	1081.7	1.3
0.562	328.15	1078.3	1.3
0.562	333.15	1074.3	1.2
0.562	338.15	1070.8	1.2
0.562	343.15	1067.4	1.2
0.562	348.15	1064.2	1.2
0.67	283.15	1105.5	0.8
0.67	288.15	1102.1	0.8
0.67	293.15	1098.4	0.8
0.67	298.15	1094.6	0.8
0.67	303.15	1091.3	0.8
0.67	308.15	1087.6	0.8
0.67	313.15	1083.9	0.8
0.67	318.15	1080.5	0.8
0.67	323.15	1077.1	0.7
0.67	328.15	1073.5	0.7
0.67	333.15	1069.3	0.7
0.67	338.15	1065.8	0.7
0.67	343.15	1062.3	0.7
0.67	348.15	1058.8	0.7
0.758	283.15	1099.1	0.5
0.758	288.15	1095.9	0.5
0.758	293.15	1092.4	0.5
0.758	298.15	1088.5	0.5
0.758	303.15	1085	0.5
0.758	308.15	1081.6	0.5
0.758	313.15	1077.8	0.4
0.758	318.15	1075	0.4
0.758	323.15	1071.3	0.4
0.758	328.15	1067.4	0.4
0.758	333.15	1063.6	0.4
0.758	338.15	1060	0.4
0.758	343.15	1056.4	0.4
0.758	348.15	1052.8	0.4
0.783	283.15	1096.6	0.4
0.783	288.15	1093.6	0.4
0.783	293.15	1089.9	0.4
0.783	298.15	1086	0.4
0.783	303.15	1082.4	0.4
0.783	308.15	1079.2	0.4
0.783	313.15	1075.6	0.4
0.783	318.15	1072.8	0.4
0.783	323.15	1069.3	0.4
0.783	328.15	1065.2	0.4
0.783	333.15	1061.3	0.4
0.783	338.15	1057.8	0.4
0.783	343.15	1054.1	0.4
0.783	348.15	1050.3	0.4
