Measured thermophysical data. Physical properties of the ternary system (ethanol + water + 1-butyl-3-methylimidazolium methylsulphate) and its binary mixtures at several temperatures
Source: J. Chem. Thermodyn., 2008, 10.1016/j.jct.2008.03.013
Compound 1: water, H2O, InChI=1S/H2O/h1H2
Compound 2: ethanol, C2H6O, InChI=1S/C2H6O/c1-2-3/h3H,2H2,1H3
Compound 3: 1-butyl-3-methylimidazolium methyl sulfate, C9H18N2O4S, InChI=1S/C8H15N2.CH4O4S/c1-3-4-5-10-7-6-9(2)8-10;1-5-6(2,3)4/h6-8H,3-5H2,1-2H3;1H3,(H,2,3,4)/q+1;/p-1

System: water; phases: Liquid
Property: Refractive index (Na D-line) (Liquid); method: Standard Abbe refractometry
Temperature, K	Pressure, kPa	Refractive index (Na D-line)	uncertainty
298.15	101.325	1.33251	0.00068

System: water; phases: Liquid
Fixed: Pressure, kPa = 100
Property: Viscosity, Pa*s (Liquid); method: CAPTUB::UFactor:8
Temperature, K	Viscosity, Pa*s	uncertainty
298.15	0.00089	0.000402
313.15	0.000653	0.000401
328.15	0.000504	0.000401

System: water; phases: Liquid
Fixed: Pressure, kPa = 100
Property: Mass density, kg/m3 (Liquid); method: VIBTUB::UFactor:2
Temperature, K	Mass density, kg/m3	uncertainty
298.15	997.2	0.1
313.15	992.21	0.08
328.15	985.69	0.09

System: ethanol; phases: Liquid
Property: Refractive index (Na D-line) (Liquid); method: Standard Abbe refractometry
Temperature, K	Pressure, kPa	Refractive index (Na D-line)	uncertainty
298.15	101.325	1.36023	0.00068

System: ethanol; phases: Liquid
Fixed: Pressure, kPa = 100
Property: Viscosity, Pa*s (Liquid); method: CAPTUB::UFactor:8
Temperature, K	Viscosity, Pa*s	uncertainty
298.15	0.001082	0.000403
313.15	0.000827	0.000402
328.15	0.000641	0.000401

System: ethanol; phases: Liquid
Fixed: Pressure, kPa = 100
Property: Mass density, kg/m3 (Liquid); method: VIBTUB::UFactor:2
Temperature, K	Mass density, kg/m3	uncertainty
298.15	785.46	0.24
313.15	772	0.25
328.15	758.55	0.26

System: 1-butyl-3-methylimidazolium methyl sulfate; phases: Liquid
Property: Refractive index (Na D-line) (Liquid); method: Standard Abbe refractometry
Temperature, K	Pressure, kPa	Refractive index (Na D-line)	uncertainty
298.15	101.325	1.47792	0.00121

System: 1-butyl-3-methylimidazolium methyl sulfate; phases: Liquid
Fixed: Pressure, kPa = 100
Property: Viscosity, Pa*s (Liquid); method: CAPTUB:UFactor:8
Temperature, K	Viscosity, Pa*s	uncertainty
298.15	0.1823	0.0324
313.15	0.0848	0.0066
313.15	0.0847	0.0066
328.15	0.04535	0.00193

System: 1-butyl-3-methylimidazolium methyl sulfate; phases: Liquid
Fixed: Pressure, kPa = 100
Property: Mass density, kg/m3 (Liquid); method: VIBTUB:UFactor:2
Temperature, K	Mass density, kg/m3	uncertainty
298.15	1213.43	5.18
313.15	1203.48	5.09
328.15	1193.59	5

System: water + 1-butyl-3-methylimidazolium methyl sulfate; phases: Liquid
Fixed: Temperature, K = 298.15
Fixed: Pressure, kPa = 100
Property: Refractive index (Na D-line) (Liquid); method: Standard Abbe refractometry
Mole fraction of water	Refractive index (Na D-line)	uncertainty
0	1.47792	0.00121
0.0325	1.47746	0.00118
0.1703	1.47584	0.00107
0.2989	1.47341	0.00098
0.4104	1.47032	0.0009
0.4774	1.46814	0.00086
0.5886	1.463	0.0008
0.6859	1.45603	0.00075
0.7856	1.44395	0.00071
0.8899	1.41842	0.00069
0.9466	1.38937	0.00068
1	1.33251	0.00068

System: water + 1-butyl-3-methylimidazolium methyl sulfate; phases: Liquid
Fixed: Pressure, kPa = 100
Property: Viscosity, Pa*s (Liquid); method: CAPTUB:UFactor:8
Temperature, K	Mole fraction of water	Viscosity, Pa*s	uncertainty
298.15	0	0.1823	0.0324
298.15	0.0325	0.177	0.0308
298.15	0.1703	0.137	0.0191
298.15	0.2989	0.0954	0.0087
298.15	0.4104	0.0655	0.0027
298.15	0.4774	0.0502	0.00085
298.15	0.5886	0.03193	0.00112
298.15	0.6859	0.02028	0.00078
298.15	0.7856	0.01142	0.00056
298.15	0.8899	0.005071	0.000448
298.15	0.9466	0.002597	0.000414
298.15	1	0.00089	0.000402
313.15	0	0.0848	0.0066
313.15	0.0325	0.0828	0.0062
313.15	0.1703	0.0689	0.0034
313.15	0.2989	0.0515	0.00109
313.15	0.4104	0.03577	0.00132
313.15	0.4774	0.02755	0.00102
313.15	0.5886	0.0184	0.00074
313.15	0.6859	0.01203	0.00058
313.15	0.7856	0.007027	0.000478
313.15	0.8899	0.003296	0.000422
313.15	0.9466	0.001763	0.000407
313.15	1	0.000653	0.000401
328.15	0	0.04535	0.00193
328.15	0.0325	0.0448	0.00188
328.15	0.1703	0.04109	0.00163
328.15	0.2989	0.03385	0.00129
328.15	0.4104	0.02352	0.00091
328.15	0.4774	0.01825	0.00075
328.15	0.5886	0.01198	0.00058
328.15	0.6859	0.007862	0.000495
328.15	0.7856	0.004738	0.000444
328.15	0.8899	0.002306	0.000412
328.15	0.9466	0.001281	0.000404
328.15	1	0.000504	0.000401

System: water + 1-butyl-3-methylimidazolium methyl sulfate; phases: Liquid
Fixed: Pressure, kPa = 100
Property: Mass density, kg/m3 (Liquid); method: VIBTUB:UFactor:2
Temperature, K	Mole fraction of water	Mass density, kg/m3	uncertainty
298.15	0	1213.43	5.18
298.15	0.0325	1212.91	4.85
298.15	0.1703	1211.05	3.61
298.15	0.2989	1208.33	2.63
298.15	0.4104	1204.62	1.92
298.15	0.4774	1201.72	1.56
298.15	0.5886	1194.68	1.05
298.15	0.6859	1185.23	0.7
298.15	0.7856	1168.21	0.43
298.15	0.8899	1130.52	0.24
298.15	0.9466	1085.81	0.17
298.15	1	997.2	0.1
313.15	0	1203.48	5.09
313.15	0.0325	1202.96	4.77
313.15	0.1703	1201.02	3.55
313.15	0.2989	1198.3	2.58
313.15	0.4104	1194.57	1.88
313.15	0.4774	1191.55	1.52
313.15	0.5886	1184.43	1.02
313.15	0.6859	1174.8	0.68
313.15	0.7856	1157.61	0.42
313.15	0.8899	1120.17	0.23
313.15	0.9466	1076.83	0.16
313.15	1	992.21	0.08
328.15	0	1193.59	5
328.15	0.0325	1193.03	4.69
328.15	0.1703	1190.99	3.48
328.15	0.2989	1188.25	2.54
328.15	0.4104	1184.54	1.85
328.15	0.4774	1181.33	1.49
328.15	0.5886	1174.25	1
328.15	0.6859	1164.26	0.67
328.15	0.7856	1146.83	0.41
328.15	0.8899	1109.5	0.23
328.15	0.9466	1067.17	0.17
328.15	1	985.69	0.09

System: ethanol + 1-butyl-3-methylimidazolium methyl sulfate; phases: Liquid
Fixed: Temperature, K = 298.15
Fixed: Pressure, kPa = 100
Property: Refractive index (Na D-line) (Liquid); method: Standard Abbe refractometry
Mole fraction of ethanol	Refractive index (Na D-line)	uncertainty
0	1.47792	0.00121
0.0651	1.4759	0.00116
0.0922	1.475	0.00113
0.2011	1.4711	0.00105
0.3091	1.46633	0.00098
0.402	1.46114	0.00091
0.491	1.45512	0.00086
0.5788	1.4478	0.00081
0.7142	1.43243	0.00075
0.807	1.41714	0.00071
0.895	1.39734	0.00069
0.9445	1.38212	0.00068
1	1.36023	0.00068

System: ethanol + 1-butyl-3-methylimidazolium methyl sulfate; phases: Liquid
Fixed: Pressure, kPa = 100
Property: Viscosity, Pa*s (Liquid); method: CAPTUB:UFactor:8
Temperature, K	Mole fraction of ethanol	Viscosity, Pa*s	uncertainty
298.15	0	0.1823	0.0324
298.15	0.0651	0.1567	0.0247
298.15	0.0922	0.1319	0.0178
298.15	0.2011	0.0886	0.0072
298.15	0.3091	0.05632	0.00142
298.15	0.402	0.03785	0.00139
298.15	0.491	0.02504	0.00094
298.15	0.5788	0.01622	0.00068
298.15	0.7142	0.007427	0.000486
298.15	0.807	0.004349	0.000437
298.15	0.895	0.002465	0.000413
298.15	0.9445	0.001733	0.000407
298.15	1	0.001082	0.000403
313.15	0	0.0847	0.0066
313.15	0.0651	0.0749	0.0046
313.15	0.0922	0.0641	0.0027
313.15	0.2011	0.04628	0.00181
313.15	0.3091	0.03164	0.00121
313.15	0.402	0.02235	0.00088
313.15	0.491	0.01562	0.00068
313.15	0.5788	0.01058	0.00055
313.15	0.7142	0.005271	0.000452
313.15	0.807	0.003197	0.000421
313.15	0.895	0.001863	0.000408
313.15	0.9445	0.001319	0.000404
313.15	1	0.000827	0.000402
328.15	0	0.04535	0.00193
328.15	0.0651	0.04076	0.0017
328.15	0.0922	0.0359	0.00148
328.15	0.2011	0.02716	0.0011
328.15	0.3091	0.01989	0.00083
328.15	0.402	0.01441	0.00066
328.15	0.491	0.01053	0.00056
328.15	0.5788	0.007263	0.000487
328.15	0.7142	0.004019	0.000433
328.15	0.807	0.002503	0.000413
328.15	0.895	0.001432	0.000405
328.15	0.9445	0.001033	0.000403
328.15	1	0.000641	0.000401

System: ethanol + 1-butyl-3-methylimidazolium methyl sulfate; phases: Liquid
Fixed: Pressure, kPa = 100
Property: Mass density, kg/m3 (Liquid); method: VIBTUB:UFactor:2
Temperature, K	Mole fraction of ethanol	Mass density, kg/m3	uncertainty
298.15	0	1213.43	5.18
298.15	0.0651	1205.77	4.5
298.15	0.0922	1202.49	4.24
298.15	0.2011	1187.41	3.26
298.15	0.3091	1169.23	2.43
298.15	0.402	1150.09	1.83
298.15	0.491	1127.58	1.34
298.15	0.5788	1100.78	0.94
298.15	0.7142	1043.7	0.48
298.15	0.807	989.09	0.27
298.15	0.895	917.29	0.21
298.15	0.9445	863.52	0.21
298.15	1	785.46	0.24
313.15	0	1203.48	5.09
313.15	0.0651	1195.71	4.42
313.15	0.0922	1192.4	4.16
313.15	0.2011	1177.24	3.2
313.15	0.3091	1158.88	2.39
313.15	0.402	1139.56	1.79
313.15	0.491	1117.04	1.31
313.15	0.5788	1089.92	0.92
313.15	0.7142	1032.43	0.46
313.15	0.807	977.5	0.28
313.15	0.895	905.22	0.22
313.15	0.9445	851.11	0.22
313.15	1	772	0.25
328.15	0	1193.59	5
328.15	0.0651	1185.73	4.35
328.15	0.0922	1182.4	4.09
328.15	0.2011	1167.12	3.14
328.15	0.3091	1148.61	2.34
328.15	0.402	1129.14	1.75
328.15	0.491	1106.55	1.28
328.15	0.5788	1079.14	0.9
328.15	0.7142	1021.2	0.45
328.15	0.807	965.92	0.29
328.15	0.895	893.02	0.23
328.15	0.9445	838.48	0.23
328.15	1	758.55	0.26

System: ethanol + water + 1-butyl-3-methylimidazolium methyl sulfate; phases: Liquid
Fixed: Temperature, K = 298.15
Fixed: Pressure, kPa = 100
Property: Viscosity, Pa*s (Liquid); method: CAPTUB:UFactor:8
Mole fraction of ethanol	Mole fraction of water	Viscosity, Pa*s	uncertainty
0.0475	0.9409	0.001689	0.000406
0.0555	0.9174	0.00219	0.00041
0.0661	0.8839	0.002956	0.000418
0.0844	0.9044	0.002011	0.000409
0.0894	0.819	0.004506	0.00044
0.0971	0.3675	0.04676	0.00189
0.0971	0.5483	0.02191	0.00087
0.1145	0.7501	0.006379	0.000468
0.1282	0.1706	0.0781	0.00539
0.1379	0.8159	0.003131	0.00042
0.1833	0.7345	0.004234	0.000435
0.1968	0.3269	0.03291	0.00128
0.1994	0.4862	0.01617	0.00069
0.2136	0.7443	0.00311	0.00042
0.2255	0.6561	0.005345	0.000454
0.2286	0.7619	0.002502	0.000413
0.2592	0.7195	0.002678	0.000415
0.2777	0.6496	0.003816	0.000429
0.2969	0.2862	0.0228	0.0009
0.2971	0.6652	0.002962	0.000418
0.2976	0.4266	0.01207	0.00059
0.309	0.1352	0.04144	0.00166
0.3319	0.566	0.004504	0.000441
0.3461	0.6352	0.002518	0.000414
0.3752	0.5619	0.003359	0.000423
0.3912	0.5762	0.002678	0.000415
0.399	0.2446	0.01554	0.00068
0.3991	0.3649	0.008886	0.000514
0.4085	0.1157	0.02731	0.00107
0.4361	0.4777	0.003613	0.000427
0.4416	0.5424	0.002324	0.000412
0.4749	0.4723	0.002883	0.000418
0.4771	0.5165	0.002101	0.00041
0.4992	0.2038	0.010584	0.000552
0.5417	0.3883	0.003081	0.00042
0.5749	0.3823	0.002466	0.000413
0.5975	0.381	0.002076	0.00041
0.5979	0.2442	0.004848	0.000446
0.5993	0.1631	0.007095	0.000481
0.6769	0.3138	0.001739	0.000407
0.6966	0.1235	0.004782	0.000445
0.6989	0.1829	0.003465	0.000425
0.731	0.2279	0.002109	0.00041
0.7977	0.0823	0.003089	0.00042
0.8227	0.1502	0.001705	0.000407
0.825	0.17	0.00142	0.000405

System: ethanol + water + 1-butyl-3-methylimidazolium methyl sulfate; phases: Liquid
Fixed: Pressure, kPa = 100
Fixed: Temperature, K = 298.15
Property: Refractive index (Na D-line) (Liquid); method: Standard Abbe refractometry
Mole fraction of ethanol	Mole fraction of water	Refractive index (Na D-line)	uncertainty
0.0475	0.9409	1.35525	0.00068
0.0555	0.9174	1.37206	0.00068
0.0661	0.8839	1.38998	0.00069
0.0844	0.9044	1.35878	0.00068
0.0894	0.819	1.41128	0.00069
0.0971	0.3675	1.46632	0.00087
0.0971	0.5483	1.45656	0.00077
0.1145	0.7501	1.42498	0.0007
0.1282	0.1706	1.47059	0.00098
0.1379	0.8159	1.38927	0.00069
0.1833	0.7345	1.40658	0.0007
0.1968	0.3269	1.46116	0.00084
0.1994	0.4862	1.45015	0.00075
0.2136	0.7443	1.38752	0.00069
0.2255	0.6561	1.41779	0.00069
0.2286	0.7619	1.36577	0.00069
0.2592	0.7195	1.37513	0.0007
0.2777	0.6496	1.40138	0.0007
0.2969	0.2862	1.45511	0.0008
0.2971	0.6652	1.38502	0.0007
0.2976	0.4266	1.44324	0.00074
0.309	0.1352	1.46183	0.00088
0.3319	0.566	1.41044	0.00069
0.3461	0.6352	1.37415	0.00071
0.3752	0.5619	1.39582	0.00071
0.3912	0.5762	1.38185	0.00071
0.399	0.2446	1.44801	0.00077
0.3991	0.3649	1.43537	0.00073
0.4085	0.1157	1.45547	0.00084
0.4361	0.4777	1.40296	0.00074
0.4416	0.5424	1.3726	0.00074
0.4749	0.4723	1.39008	0.00075
0.4771	0.5165	1.36681	0.00076
0.4992	0.2038	1.43961	0.00075
0.5417	0.3883	1.39537	0.0007
0.5749	0.3823	1.38459	0.00071
0.5975	0.381	1.37453	0.00071
0.5979	0.2442	1.41668	0.00071
0.5993	0.1631	1.4296	0.00073
0.6769	0.3138	1.36776	0.0007
0.6966	0.1235	1.41799	0.00071
0.6989	0.1829	1.40526	0.0007
0.731	0.2279	1.38111	0.00069
0.7977	0.0823	1.40306	0.0007
0.8227	0.1502	1.37409	0.00068
0.825	0.17	1.3644	0.00068

System: ethanol + water + 1-butyl-3-methylimidazolium methyl sulfate; phases: Liquid
Fixed: Temperature, K = 298.15
Fixed: Pressure, kPa = 100
Property: Mass density, kg/m3 (Liquid); method: VIBTUB:UFactor:2
Mole fraction of ethanol	Mole fraction of water	Mass density, kg/m3	uncertainty
0.0475	0.9409	1005.75	0.18
0.0555	0.9174	1030.64	0.22
0.0661	0.8839	1058.76	0.25
0.0844	0.9044	993.14	0.22
0.0894	0.819	1088.93	0.21
0.0971	0.3675	1186.96	1.59
0.0971	0.5483	1169.62	0.81
0.1145	0.7501	1107.42	0.28
0.1282	0.1706	1191.97	2.58
0.1379	0.8159	1029.61	0.25
0.1833	0.7345	1051.17	0.39
0.1968	0.3269	1166.28	1.27
0.1994	0.4862	1142.28	0.66
0.2136	0.7443	999.68	0.4
0.2255	0.6561	1065.53	0.25
0.2286	0.7619	944.33	0.42
0.2592	0.7195	956.33	0.53
0.2777	0.6496	1014.43	0.46
0.2969	0.2862	1142.44	0.99
0.2971	0.6652	968.91	0.51
0.2976	0.4266	1113.42	0.58
0.309	0.1352	1158.11	1.63
0.3319	0.566	1025.44	0.31
0.3461	0.6352	927.4	0.67
0.3752	0.5619	978.24	0.62
0.3912	0.5762	936.71	0.63
0.399	0.2446	1114.35	0.75
0.3991	0.3649	1080.6	0.53
0.4085	0.1157	1134.26	1.21
0.4361	0.4777	986.44	0.82
0.4416	0.5424	899.64	0.89
0.4749	0.4723	943.18	0.94
0.4771	0.5165	875.59	1.09
0.4992	0.2038	1082.19	0.6
0.5417	0.3883	948.01	0.61
0.5749	0.3823	909.95	0.71
0.5975	0.381	876.81	0.73
0.5979	0.2442	1005.19	0.46
0.5993	0.1631	1044.01	0.47
0.6769	0.3138	844.17	0.6
0.6966	0.1235	999.87	0.29
0.6989	0.1829	959.62	0.38
0.731	0.2279	879.85	0.38
0.7977	0.0823	944.17	0.29
0.8227	0.1502	847.86	0.34
0.825	0.17	814.68	0.41
