Measured thermophysical data. Chemical calibration of Isothermal Titration Calorimeters: An evaluation of the  dilution of propan-1-ol into water as a test reaction using different calorimeters,  concentrations, and temperatures
Source: J. Chem. Thermodyn., 2012, 10.1016/j.jct.2011.12.018
Compound 1: propan-1-ol, C3H8O, InChI=1S/C3H8O/c1-2-3-4/h4H,2-3H2,1H3, purity 99.9%
Compound 2: water, H2O, InChI=1S/H2O/h1H2, purity 99.9%

System: propan-1-ol + water; phases: Liquid
Fixed: Pressure, kPa = 101
Fixed: Final mass fraction of solute = 0
Property: Molar enthalpy of dilution, kJ/mol (Liquid); method: Calvet calorimetry
Temperature, K	Initial mass fraction of solute	Molar enthalpy of dilution, kJ/mol	uncertainty
298.15	0.02	-0.206	0.01
298.15	0.05	-0.604	0.021
298.15	0.1	-1.548	0.02
298.15	0.02	-0.185	0.005
298.15	0.05	-0.604	0.006
298.15	0.1	-1.531	0.018
298.15	0.02	-0.201	0.002
298.15	0.05	-0.642	0.01
298.15	0.1	-1.534	0.028
298.15	0.02	-0.192	0.002
298.15	0.05	-0.618	0.006
298.15	0.1	-1.562	0.029
298.15	0.02	-0.201	0.003
298.15	0.05	-0.603	0.005
298.15	0.1	-1.565	0.013
298.15	0.02	-0.202	0.003
298.15	0.05	-0.601	0.005
298.15	0.1	-1.564	0.013
308.15	0.1	-1.482	0.018
308.15	0.1	-1.489	0.015
308.15	0.1	-1.475	0.021
308.15	0.1	-1.513	0.031
