Measured thermophysical data. A combined experimental and computational thermodynamic study of fluorene-9-methanol and fluorene-9-carboxylic acid
Source: J. Chem. Thermodyn., 2013, 10.1016/j.jct.2013.03.005
Compound 1: carbon dioxide, CO2, InChI=1S/CO2/c2-1-3
Compound 2: water, H2O, InChI=1S/H2O/h1H2
Compound 3: oxygen, O2, InChI=1S/O2/c1-2
Compound 4: 9-fluorenemethanol, C14H12O, InChI=1S/C14H12O/c15-9-14-12-7-3-1-5-10(12)11-6-2-4-8-13(11)14/h1-8,14-15H,9H2, purity 99.3%
Compound 5: 9H-fluorene-9-carboxylic acid, C14H10O2, InChI=1S/C14H10O2/c15-14(16)13-11-7-3-1-5-9(11)10-6-2-4-8-12(10)13/h1-8,13H,(H,15,16), purity 98.6%

System: 9-fluorenemethanol; phases: Crystal
Property: Mass density, kg/m3 (Crystal); method: mass/volume ratio of a pellet
Temperature, K	Pressure, kPa	Mass density, kg/m3	uncertainty
298.15	101.325	1084	108

System: 9-fluorenemethanol; phases: Crystal, Liquid, Air at 1 atmosphere
Property: Molar enthalpy of transition or fusion, kJ/mol (Crystal); method: DSC
Molar enthalpy of transition or fusion, kJ/mol	uncertainty
27.91	0.62

System: 9-fluorenemethanol; phases: Crystal, Liquid, Air at 1 atmosphere
Property: Normal melting temperature, K (Crystal); method: DTA
Normal melting temperature, K	uncertainty
377.07	0.41

System: 9-fluorenemethanol; phases: Liquid, Gas
Property: Vapor or sublimation pressure, kPa (Liquid); method: Closed cell (Static) method
Temperature, K	Vapor or sublimation pressure, kPa	uncertainty
362.69	0.00242	0.00016
364.67	0.00285	0.00017
366.66	0.00333	0.00018
368.63	0.00391	0.0002
370.62	0.00456	0.00022
372.6	0.00529	0.00024
374.57	0.00615	0.00027
376.56	0.00711	0.00031
378.53	0.00817	0.00034
380.52	0.00947	0.00039
382.5	0.01089	0.00044
384.49	0.01253	0.00051
386.47	0.0143	0.00054
388.43	0.01639	0.00057
390.43	0.0188	0.00061
392.39	0.02137	0.00065
394.37	0.02432	0.00069
396.35	0.02764	0.00074
398.32	0.03131	0.0008
400.3	0.03556	0.00086

System: 9-fluorenemethanol; phases: Crystal, Gas
Property: Vapor or sublimation pressure, kPa (Crystal); method: Calculated from knudsen effusion weight loss
Temperature, K	Vapor or sublimation pressure, kPa	uncertainty
337.18	9.2e-05	2e-05
339.17	0.000117	2e-05
341.1	0.00015	2.1e-05
343.17	0.000197	2.1e-05
345.21	0.000243	2.2e-05
347.13	0.000302	2.3e-05
349.16	0.00039	2.4e-05
351.22	0.000488	2.6e-05
353.14	0.000607	2.9e-05
355.17	0.000772	3.4e-05
357.16	0.00095	3.9e-05
359.1	0.00118	9.5e-05
337.18	9.2e-05	2e-05
339.17	0.000119	2e-05
341.1	0.00015	2.1e-05
343.17	0.00019	2.1e-05
345.21	0.000247	2.2e-05
347.13	0.000306	2.3e-05
349.16	0.00038	2.4e-05
351.22	0.000493	2.7e-05
353.14	0.000611	2.9e-05
355.17	0.000748	3.3e-05
357.16	0.000955	3.9e-05
359.1	0.001184	9.5e-05
337.18	9e-05	2e-05
339.17	0.000115	2e-05
341.1	0.000147	2.1e-05
343.17	0.000187	2.1e-05
345.21	0.000239	2.2e-05
347.13	0.000303	2.3e-05
349.16	0.000381	2.4e-05
351.22	0.000476	2.6e-05
353.14	0.000602	2.9e-05
355.17	0.000739	3.3e-05
357.16	0.000923	3.8e-05
359.1	0.001169	9.4e-05

System: 9H-fluorene-9-carboxylic acid; phases: Crystal
Property: Mass density, kg/m3 (Crystal); method: mass/volume ratio of a pellet
Temperature, K	Pressure, kPa	Mass density, kg/m3	uncertainty
298.15	101.325	1164	116

System: 9H-fluorene-9-carboxylic acid; phases: Crystal, Liquid, Air at 1 atmosphere
Property: Molar enthalpy of transition or fusion, kJ/mol (Crystal); method: DSC
Molar enthalpy of transition or fusion, kJ/mol	uncertainty
30.24	0.73

System: 9H-fluorene-9-carboxylic acid; phases: Crystal, Liquid, Air at 1 atmosphere
Property: Normal melting temperature, K (Crystal); method: DTA
Normal melting temperature, K	uncertainty
503.83	0.56

System: 9H-fluorene-9-carboxylic acid; phases: Crystal, Gas
Property: Molar enthalpy of vaporization or sublimation, kJ/mol (Crystal); method: Static calorimetry
Temperature, K	Molar enthalpy of vaporization or sublimation, kJ/mol	uncertainty
298.15	127.2	2.1

System: 9H-fluorene-9-carboxylic acid; phases: Crystal, Gas
Property: Vapor or sublimation pressure, kPa (Crystal); method: Calculated from knudsen effusion weight loss
Temperature, K	Vapor or sublimation pressure, kPa	uncertainty
384.16	0.000139	2.1e-05
386.13	0.000171	2.1e-05
388.15	0.000211	2.1e-05
392.14	0.000307	2.3e-05
394.15	0.000378	2.4e-05
396.15	0.000474	2.6e-05
398.15	0.000558	2.8e-05
400.13	0.000689	3.2e-05
402.14	0.000811	3.5e-05
404.15	0.000994	4e-05
406.16	0.001182	9.5e-05

Reaction: -1 9-fluorenemethanol + 14 carbon dioxide + 6 water + -16.5 oxygen
Property: Specific internal energy of reaction at constant volume, J/g
-36221.7

Reaction: -1 9H-fluorene-9-carboxylic acid + 14 carbon dioxide + 5 water + -15.5 oxygen
Property: Specific internal energy of reaction at constant volume, J/g
-31546.9
