Measured thermophysical data. PVTx and thermal-pressure coefficient measurements of the binary CO2 + n-decane mixtures in the critical and retrograde regions
Source: J. Chem. Thermodyn., 2018, 10.1016/j.jct.2018.05.015
Compound 1: decane, C10H22, InChI=1S/C10H22/c1-3-5-7-9-10-8-6-4-2/h3-10H2,1-2H3, purity 99%
Compound 2: carbon dioxide, CO2, InChI=1S/CO2/c2-1-3, purity 99.99%

System: decane + carbon dioxide; phases: Fluid (supercritical or subcritical phases)
Property: Mass density, kg/m3 (Fluid (supercritical or subcritical phases)); method: Constant-volume piezometry
Mole fraction of decane	Temperature, K	Pressure, kPa	Mass density, kg/m3	uncertainty
0.095	301.32	5030	658.76	1.32
0.095	307.51	6130	658.76	1.32
0.095	310.94	6820	658.76	1.32
0.095	316.42	7720	658.76	1.32
0.095	318.01	8060	658.76	1.32
0.095	319.26	8320	658.76	1.32
0.095	320.41	8480	658.76	1.32
0.095	322.74	8910	658.76	1.32
0.095	329.71	10150	658.76	1.32
0.095	335.35	11030	658.76	1.32
0.095	336.85	11300	658.76	1.32
0.095	338.42	11550	658.76	1.32
0.095	338.89	11620	658.76	1.32
0.095	339.38	11720	658.76	1.32
0.095	339.38	11690	658.76	1.32
0.095	339.57	11750	658.76	1.32
0.095	339.76	11780	658.76	1.32
0.095	339.76	11780	658.76	1.32
0.095	339.96	11650	658.76	1.32
0.095	340.18	11870	658.76	1.32
0.095	340.68	11780	658.76	1.32
0.095	340.91	11860	658.76	1.32
0.095	341.19	12130	658.76	1.32
0.095	347.2	13960	658.76	1.33
0.095	360.25	18400	658.76	1.33
0.095	372.03	21400	658.76	1.33
0.095	300.11	4600	622.67	1.25
0.095	306.05	5910	622.67	1.25
0.095	307.83	6240	622.67	1.25
0.095	324.92	9230	622.67	1.25
0.095	327.98	9620	622.67	1.25
0.095	334.03	10740	622.67	1.25
0.095	338.33	11380	622.67	1.25
0.095	343.72	12310	622.67	1.25
0.095	346.44	12750	622.67	1.25
0.095	349.76	13180	622.67	1.25
0.095	351.06	13300	622.67	1.25
0.095	351.15	13530	622.67	1.25
0.095	351.7	13420	622.67	1.25
0.095	352.09	13550	622.67	1.25
0.095	352.09	13550	622.67	1.25
0.095	352.21	13500	622.67	1.25
0.095	352.32	13710	622.67	1.25
0.095	362.59	16560	622.67	1.25
0.095	379.4	20900	622.67	1.26
0.095	392.29	23640	622.67	1.26
0.095	306.09	5630	574.05	1.15
0.095	314.01	7080	574.05	1.15
0.095	316.18	7590	574.05	1.15
0.095	327.68	9280	574.05	1.15
0.095	338.26	11230	574.05	1.15
0.095	351.97	13280	574.05	1.15
0.095	360.56	14560	574.05	1.16
0.095	362.56	14740	574.05	1.16
0.095	363.19	14870	574.05	1.16
0.095	364.35	15020	574.05	1.16
0.095	365.34	15190	574.05	1.16
0.095	366.13	15250	574.05	1.16
0.095	366.92	15380	574.05	1.16
0.095	367.7	15500	574.05	1.16
0.095	368.53	15570	574.05	1.16
0.095	368.81	15760	574.05	1.16
0.095	368.94	15800	574.05	1.16
0.095	369.85	15920	574.05	1.16
0.095	383.55	19220	574.05	1.16
0.095	401.86	22890	574.05	1.16
0.095	396.43	21660	574.05	1.16
0.095	410.04	24070	574.05	1.17
0.095	306.07	5900	534.76	2.67
0.095	309.5	6580	534.76	2.67
0.095	309.28	6610	534.76	2.67
0.095	312.61	7030	534.76	2.67
0.095	325.19	8920	534.76	2.68
0.095	340.42	11170	534.76	2.68
0.095	349.92	12580	534.76	2.68
0.095	356.59	13490	534.76	2.68
0.095	370.44	15380	534.76	2.68
0.095	380.34	16650	534.76	2.68
0.095	381.71	16790	534.76	2.68
0.095	382.06	16860	534.76	2.68
0.095	382.47	16890	534.76	2.68
0.095	382.62	16850	534.76	2.68
0.095	383.25	16880	534.76	2.68
0.095	383.36	16860	534.76	2.68
0.095	383.69	17040	534.76	2.68
0.095	384.5	17200	534.76	2.68
0.095	386.41	17540	534.76	2.68
0.095	399.88	20490	534.76	2.68
0.095	405.63	21710	534.76	2.68
0.095	439.22	27980	534.76	2.68
0.095	440.93	28340	534.76	2.68
0.095	297.58	4590	509.42	2.55
0.095	298.71	4800	509.42	2.55
0.095	303.81	5470	509.42	2.55
0.095	313.14	6960	509.42	2.55
0.095	316.64	7140	509.42	2.55
0.095	332.27	9550	509.42	2.55
0.095	348.73	11780	509.42	2.55
0.095	365.63	14050	509.42	2.55
0.095	380.96	16080	509.42	2.55
0.095	388.08	16890	509.42	2.55
0.095	389.58	17130	509.42	2.55
0.095	390.03	17120	509.42	2.55
0.095	391.66	17380	509.42	2.55
0.095	391.96	17330	509.42	2.55
0.095	392.79	17430	509.42	2.55
0.095	393.01	17370	509.42	2.55
0.095	393.11	17430	509.42	2.55
0.095	394.79	17800	509.42	2.55
0.095	403.54	19570	509.42	2.55
0.095	408.85	20710	509.42	2.55
0.095	415.54	21800	509.42	2.55
0.095	422.11	23050	509.42	2.55
0.095	431.11	24660	509.42	2.55
0.095	436.93	25670	509.42	2.55
0.095	451.12	28290	509.42	2.56
0.095	304.77	5230	497.96	2.49
0.095	307.34	5860	497.96	2.49
0.095	307.66	5910	497.96	2.49
0.095	314.21	6980	497.96	2.49
0.095	328.63	9000	497.96	2.49
0.095	347.41	11580	497.96	2.49
0.095	358.03	12790	497.96	2.49
0.095	372.91	14650	497.96	2.49
0.095	388.36	16470	497.96	2.49
0.095	389.41	16740	497.96	2.49
0.095	391.65	17180	497.96	2.49
0.095	393.4	17240	497.96	2.49
0.095	395.36	17450	497.96	2.49
0.095	395.8	17390	497.96	2.49
0.095	396.44	17540	497.96	2.49
0.095	397.34	17510	497.96	2.49
0.095	397.34	17510	497.96	2.49
0.095	397.45	17440	497.96	2.49
0.095	397.45	17370	497.96	2.49
0.095	397.73	17480	497.96	2.49
0.095	397.9	17450	497.96	2.49
0.095	398.96	17700	497.96	2.49
0.095	409.49	19720	497.96	2.49
0.095	421.11	21580	497.96	2.5
0.095	437.13	24500	497.96	2.5
0.095	440.75	24870	497.96	2.5
0.095	454.97	27360	497.96	2.5
0.095	459.28	28180	497.96	2.5
0.095	440.75	24870	497.96	2.5
0.095	454.97	27360	497.96	2.5
0.095	459.28	28180	497.96	2.5
0.095	324.21	8210	477.53	2.39
0.095	338.57	10100	477.53	2.39
0.095	353.18	11670	477.53	2.39
0.095	384.06	15250	477.53	2.39
0.095	397.33	16420	477.53	2.39
0.095	399.28	16700	477.53	2.39
0.095	401.23	17180	477.53	2.39
0.095	402.97	17130	477.53	2.39
0.095	404.12	17770	477.53	2.39
0.095	404.12	17580	477.53	2.39
0.095	404.76	17730	477.53	2.39
0.095	404.87	17650	477.53	2.39
0.095	405.84	17770	477.53	2.39
0.095	414.79	19300	477.53	2.39
0.095	427.55	21510	477.53	2.39
0.095	441.33	23830	477.53	2.39
0.095	457.92	26530	477.53	2.4
0.095	469.51	28080	477.53	2.4
0.095	307	5600	398.26	1.99
0.095	316.65	6840	398.26	1.99
0.095	332.35	8620	398.26	1.99
0.095	348.5	10310	398.26	1.99
0.095	363.67	11820	398.26	1.99
0.095	376.93	13370	398.26	1.99
0.095	392.95	14580	398.26	1.99
0.095	406.07	15750	398.26	1.99
0.095	415.74	16470	398.26	1.99
0.095	417.85	16620	398.26	2
0.095	420.07	16790	398.26	2
0.095	422.21	17010	398.26	2
0.095	426.38	17340	398.26	2
0.095	429.7	17590	398.26	2
0.095	430.76	17720	398.26	2
0.095	431.6	17780	398.26	2
0.095	432.55	17850	398.26	2
0.095	433.99	17940	398.26	2
0.095	434.09	17980	398.26	2
0.095	434.3	18000	398.26	2
0.095	435.69	18220	398.26	2
0.095	447.51	19680	398.26	2
0.095	462.02	21500	398.26	2
0.095	475.65	22830	398.26	2
0.095	489.39	24940	398.26	2
0.095	499.62	26130	398.26	2
0.095	514.11	27650	398.26	2
0.095	316.55	6650	374.67	1.87
0.095	334.54	8120	374.67	1.87
0.095	348.08	9840	374.67	1.87
0.095	363.81	11290	374.67	1.88
0.095	378.19	12590	374.67	1.88
0.095	390.93	13720	374.67	1.88
0.095	421.03	16180	374.67	1.88
0.095	432.89	16950	374.67	1.88
0.095	434.79	17130	374.67	1.88
0.095	436.71	17210	374.67	1.88
0.095	438.87	17480	374.67	1.88
0.095	441.23	17670	374.67	1.88
0.095	442.46	17730	374.67	1.88
0.095	442.56	17530	374.67	1.88
0.095	442.66	17690	374.67	1.88
0.095	442.66	17430	374.67	1.88
0.095	442.86	17470	374.67	1.88
0.095	442.86	17710	374.67	1.88
0.095	443.23	17810	374.67	1.88
0.095	444.08	17610	374.67	1.88
0.095	455.67	19240	374.67	1.88
0.095	467.42	20330	374.67	1.88
0.095	476.3	21550	374.67	1.88
0.095	484.92	22440	374.67	1.88
0.095	493.71	23420	374.67	1.88
0.095	504.97	24670	374.67	1.88
0.095	516.32	25990	374.67	1.88
0.095	531.21	27700	374.67	1.88
0.095	337.87	8480	349.36	1.75
0.095	352.09	9750	349.36	1.75
0.095	369.63	11250	349.36	1.75
0.095	391.16	12970	349.36	1.75
0.095	407.73	14240	349.36	1.75
0.095	424.15	15470	349.36	1.75
0.095	439	16540	349.36	1.75
0.095	448.56	17210	349.36	1.75
0.095	450.73	17320	349.36	1.75
0.095	450.73	17320	349.36	1.75
0.095	468.19	19230	349.36	1.75
0.095	492.06	21830	349.36	1.75
0.095	512.37	23810	349.36	1.75
0.095	529.8	25600	349.36	1.76
0.095	335.49	7750	320.17	1.6
0.095	348.96	9170	320.17	1.6
0.095	364.23	10330	320.17	1.6
0.095	383.31	11690	320.17	1.6
0.095	397.73	12720	320.17	1.6
0.095	412.15	13730	320.17	1.6
0.095	426.85	14560	320.17	1.6
0.095	433.81	15150	320.17	1.6
0.095	449.75	15790	320.17	1.6
0.095	450.33	15890	320.17	1.6
0.095	452.73	16050	320.17	1.6
0.095	455.34	16240	320.17	1.6
0.095	457.52	16410	320.17	1.6
0.095	458.86	16540	320.17	1.6
0.095	459.38	16550	320.17	1.6
0.095	459.9	16640	320.17	1.6
0.095	460.1	16640	320.17	1.6
0.095	460.1	16640	320.17	1.6
0.095	460.19	16690	320.17	1.6
0.095	460.29	16840	320.17	1.6
0.095	475.08	18040	320.17	1.61
0.095	492.11	19760	320.17	1.61
0.095	506.29	21020	320.17	1.61
0.095	521.19	22280	320.17	1.61
0.095	523.08	22450	320.17	1.61
0.095	536.71	23660	320.17	1.61
0.095	549.09	24640	320.17	1.61
0.095	560.29	25640	320.17	1.61
0.095	329.2	6940	281.41	1.41
0.095	349.87	8400	281.41	1.41
0.095	373.87	9950	281.41	1.41
0.095	393.36	11100	281.41	1.41
0.095	415.81	12290	281.41	1.41
0.095	432.25	13430	281.41	1.41
0.095	454.57	14570	281.41	1.41
0.095	460.7	15000	281.41	1.41
0.095	462.42	15130	281.41	1.41
0.095	464.74	15290	281.41	1.41
0.095	466.54	15420	281.41	1.41
0.095	468.11	15510	281.41	1.41
0.095	469.69	15550	281.41	1.41
0.095	471.11	15550	281.41	1.41
0.095	471.3	15680	281.41	1.41
0.095	471.5	15690	281.41	1.41
0.095	472.08	15740	281.41	1.41
0.095	483.98	16480	281.41	1.41
0.095	490.53	16950	281.41	1.41
0.095	514.23	18500	281.41	1.41
0.095	522.08	18990	281.41	1.41
0.095	537.27	19930	281.41	1.41
0.095	549.49	20810	281.41	1.41
0.095	559.35	21540	281.41	1.41
0.095	560.83	21600	281.41	1.41
0.095	332.77	6260	241.03	1.21
0.095	357.05	7550	241.03	1.21
0.095	382.91	8870	241.03	1.21
0.095	403.25	9850	241.03	1.21
0.095	425.52	10980	241.03	1.21
0.095	438.7	11640	241.03	1.21
0.095	457.9	12560	241.03	1.21
0.095	470.4	13070	241.03	1.21
0.095	476.98	13420	241.03	1.21
0.095	477.63	13340	241.03	1.21
0.095	479.21	13620	241.03	1.21
0.095	479.27	13400	241.03	1.21
0.095	481	13620	241.03	1.21
0.095	482.73	13720	241.03	1.21
0.095	494.37	14300	241.03	1.21
0.095	511.33	15300	241.03	1.21
0.095	529.27	16400	241.03	1.21
0.095	558.8	17980	241.03	1.21
0.095	567.48	18520	241.03	1.21
0.095	311.64	4320	201.76	1.01
0.095	336.38	5490	201.76	1.01
0.095	363.37	6700	201.76	1.01
0.095	382.91	7520	201.76	1.01
0.095	406.42	8500	201.76	1.01
0.095	423.04	9250	201.76	1.01
0.095	429.45	9430	201.76	1.01
0.095	442.51	9990	201.76	1.01
0.095	453.52	10380	201.76	1.01
0.095	472.85	11150	201.76	1.01
0.095	481.79	11450	201.76	1.01
0.095	483.14	11400	201.76	1.01
0.095	484.02	11540	201.76	1.01
0.095	484.79	11490	201.76	1.01
0.095	486	11600	201.76	1.01
0.095	486.39	11620	201.76	1.01
0.095	487.96	11700	201.76	1.01
0.095	504.34	12450	201.76	1.01
0.095	560.01	14800	201.76	1.01
0.095	331.1	4830	176.71	0.88
0.095	355.76	5820	176.71	0.88
0.095	382.2	6740	176.71	0.88
0.095	404.47	7530	176.71	0.88
0.095	428.22	8380	176.71	0.88
0.095	451.71	9220	176.71	0.89
0.095	474.51	10020	176.71	0.89
0.095	486.18	10340	176.71	0.89
0.095	486.63	10370	176.71	0.89
0.095	488.1	10400	176.71	0.89
0.095	488.1	10400	176.71	0.89
0.095	488.2	10330	176.71	0.89
0.095	489.17	10370	176.71	0.89
0.095	494.34	10590	176.71	0.89
0.095	512.61	11240	176.71	0.89
0.095	542.83	12440	176.71	0.89
0.095	560.25	13140	176.71	0.89
0.095	319.38	3880	155.01	0.78
0.095	347.44	4770	155.01	0.78
0.095	373.4	5600	155.01	0.78
0.095	396.38	6300	155.01	0.78
0.095	421.35	7060	155.01	0.78
0.095	444.32	7750	155.01	0.78
0.095	464.28	8370	155.01	0.78
0.095	483.47	8980	155.01	0.78
0.095	484.95	8900	155.01	0.78
0.095	487.05	8980	155.01	0.78
0.095	487.05	8980	155.01	0.78
0.095	486.96	8990	155.01	0.78
0.095	487.15	9100	155.01	0.78
0.095	498.82	9380	155.01	0.78
0.095	512.44	9850	155.01	0.78
0.095	518.2	10020	155.01	0.78
0.095	532.62	10490	155.01	0.78
0.095	549.71	11110	155.01	0.78
0.095	292.31	3210	131.48	0.66
0.095	325.05	3510	131.48	0.66
0.095	349.92	4140	131.48	0.66
0.095	377.16	4830	131.48	0.66
0.095	380.29	4940	131.48	0.66
0.095	425.34	6050	131.48	0.66
0.095	450.06	6720	131.48	0.66
0.095	474.09	7220	131.48	0.66
0.095	478.37	7290	131.48	0.66
0.095	480.52	7370	131.48	0.66
0.095	481.83	7370	131.48	0.66
0.095	481.83	7370	131.48	0.66
0.095	484.31	7340	131.48	0.66
0.095	493.82	7450	131.48	0.66
0.095	513.18	7840	131.48	0.66
0.095	532.69	8300	131.48	0.66
0.095	553.68	8960	131.48	0.66
0.095	324.03	2700	110.76	0.55
0.095	353.71	3240	110.76	0.55
0.095	398.6	4090	110.76	0.55
0.095	424.02	4560	110.76	0.55
0.095	445.49	5120	110.76	0.55
0.095	467.92	5590	110.76	0.55
0.095	471.97	5670	110.76	0.55
0.095	472.36	5650	110.76	0.55
0.095	473.44	5720	110.76	0.55
0.095	473.85	5690	110.76	0.55
0.095	475.2	5730	110.76	0.55
0.095	475.39	5760	110.76	0.55
0.095	475.49	5770	110.76	0.55
0.095	476.78	5800	110.76	0.55
0.095	477.37	5750	110.76	0.55
0.095	478.77	5890	110.76	0.55
0.095	498.69	6100	110.76	0.55
0.095	520.08	6560	110.76	0.56
0.095	535.88	7230	110.76	0.56
0.095	295.83	1020	87.03	0.44
0.095	318.58	1310	87.03	0.44
0.095	343.69	1790	87.03	0.44
0.095	366.99	2150	87.03	0.44
0.095	390.77	2540	87.03	0.44
0.095	412.9	2950	87.03	0.44
0.095	435.86	3470	87.03	0.44
0.095	446.91	3610	87.03	0.44
0.095	448.8	3500	87.03	0.44
0.095	450.61	3570	87.03	0.44
0.095	452.48	3840	87.03	0.44
0.095	455.06	3710	87.03	0.44
0.095	457.74	3830	87.03	0.44
0.095	459.7	3830	87.03	0.44
0.095	461.12	3940	87.03	0.44
0.095	463.06	3990	87.03	0.44
0.095	464.93	4040	87.03	0.44
0.095	466.87	3980	87.03	0.44
0.095	469.21	4030	87.03	0.44
0.095	493.4	4350	87.03	0.44
0.095	514.79	4790	87.03	0.44
0.095	534.18	5110	87.03	0.44
0.095	551.4	5490	87.03	0.44
0.178	319.68	6860	467.95	0.94
0.178	349.78	9700	467.95	0.94
0.178	374.81	12140	467.95	0.94
0.178	407.54	15100	467.95	0.95
0.178	416.01	15560	467.95	0.95
0.178	418.01	15740	467.95	0.95
0.178	429.92	16640	467.95	0.95
0.178	444.08	17740	467.95	0.95
0.178	446.91	18160	467.95	0.95
0.178	447.32	18030	467.95	0.95
0.178	451.73	18530	467.95	0.95
0.178	462.47	20090	467.95	0.95
0.178	473.64	21750	467.95	0.95
0.178	377.71	11260	418.1	0.84
0.178	416.22	14290	418.1	0.85
0.178	437.59	15850	418.1	0.85
0.178	439.53	15980	418.1	0.85
0.178	446.91	16530	418.1	0.85
0.178	449.73	16710	418.1	0.85
0.178	452.73	16920	418.1	0.85
0.178	457.72	17150	418.1	0.85
0.178	459.9	17320	418.1	0.85
0.178	462.07	17500	418.1	0.85
0.178	464.19	17720	418.1	0.85
0.178	464.64	17740	418.1	0.85
0.178	465.13	17830	418.1	0.85
0.178	466.02	17790	418.1	0.85
0.178	467.98	17950	418.1	0.85
0.178	469.35	18100	418.1	0.85
0.178	475.59	18970	418.1	0.85
0.178	478.49	19170	418.1	0.85
0.178	488.18	20180	418.1	0.85
0.178	494.33	20920	418.1	0.85
0.178	375.57	10370	383.46	1.92
0.178	378.16	10560	383.46	1.92
0.178	416.35	13240	383.46	1.92
0.178	438.6	14690	383.46	1.92
0.178	449.47	15410	383.46	1.92
0.178	450.93	15260	383.46	1.92
0.178	451.65	15570	383.46	1.92
0.178	462.61	16270	383.46	1.92
0.178	465.03	16420	383.46	1.92
0.178	471.63	16690	383.46	1.92
0.178	475.59	16890	383.46	1.92
0.178	476.09	17040	383.46	1.92
0.178	477.06	17060	383.46	1.92
0.178	477.52	16840	383.46	1.92
0.178	478.3	17080	383.46	1.92
0.178	484.75	17580	383.46	1.92
0.178	492.51	18370	383.46	1.92
0.178	494.58	18580	383.46	1.92
0.178	499.49	19110	383.46	1.92
0.178	379.27	9380	347.14	1.74
0.178	381.04	9480	347.14	1.74
0.178	393.4	10030	347.14	1.74
0.178	405.62	10820	347.14	1.74
0.178	408.11	10920	347.14	1.74
0.178	428.72	12180	347.14	1.74
0.178	429.77	12230	347.14	1.74
0.178	445.41	13290	347.14	1.74
0.178	447.71	13440	347.14	1.74
0.178	463.42	14440	347.14	1.74
0.178	476.4	15250	347.14	1.74
0.178	478.49	15380	347.14	1.74
0.178	482.41	15640	347.14	1.74
0.178	484.66	15780	347.14	1.74
0.178	486.1	15870	347.14	1.74
0.178	487.3	15940	347.14	1.74
0.178	488.07	15960	347.14	1.74
0.178	488.42	15970	347.14	1.74
0.178	490.01	16130	347.14	1.74
0.178	490.45	16150	347.14	1.74
0.178	492.56	16420	347.14	1.74
0.178	493.3	16170	347.14	1.74
0.178	494.58	16290	347.14	1.74
0.178	494.77	16590	347.14	1.74
0.178	502.3	16980	347.14	1.74
0.178	504.19	17140	347.14	1.74
0.178	511.4	18090	347.14	1.74
0.178	513.33	18250	347.14	1.74
0.178	529.56	19730	347.14	1.74
0.178	531.58	19890	347.14	1.74
0.178	398.93	10130	317.78	1.59
0.178	401.33	10290	317.78	1.59
0.178	423.7	11540	317.78	1.59
0.178	425.88	11670	317.78	1.59
0.178	446.81	12810	317.78	1.59
0.178	448.67	12910	317.78	1.59
0.178	468.39	13970	317.78	1.59
0.178	470.13	14070	317.78	1.59
0.178	486	14870	317.78	1.59
0.178	487.91	14960	317.78	1.59
0.178	488.68	15010	317.78	1.59
0.178	490.58	15100	317.78	1.59
0.178	493.48	15250	317.78	1.59
0.178	495.71	15350	317.78	1.59
0.178	496.09	15380	317.78	1.59
0.178	496.3	15230	317.78	1.59
0.178	497.07	15410	317.78	1.59
0.178	499.96	15640	317.78	1.59
0.178	501.94	15780	317.78	1.59
0.178	516.54	16850	317.78	1.59
0.178	518.7	17000	317.78	1.59
0.178	542.78	18910	317.78	1.6
0.178	545.46	19120	317.78	1.6
0.178	397.69	9380	290.77	1.46
0.178	400.47	9530	290.77	1.46
0.178	446.16	11720	290.77	1.46
0.178	447.71	11790	290.77	1.46
0.178	492.53	13850	290.77	1.46
0.178	494.77	13960	290.77	1.46
0.178	499.17	14150	290.77	1.46
0.178	501.38	14230	290.77	1.46
0.178	502.84	14030	290.77	1.46
0.178	504.57	14320	290.77	1.46
0.178	504.83	14390	290.77	1.46
0.178	507.93	14570	290.77	1.46
0.178	521.92	15620	290.77	1.46
0.178	542.98	16960	290.77	1.46
0.178	544.89	17080	290.77	1.46
0.178	348.29	3730	167.9	0.84
0.178	351.4	3820	167.9	0.84
0.178	407.54	5170	167.9	0.84
0.178	409.03	5210	167.9	0.84
0.178	455.41	6770	167.9	0.84
0.178	493.06	7790	167.9	0.84
0.178	495.33	7760	167.9	0.84
0.178	505.69	8100	167.9	0.84
0.178	507.75	8130	167.9	0.84
0.178	511.46	8330	167.9	0.84
0.178	514.82	8370	167.9	0.84
0.178	515	8370	167.9	0.84
0.178	517.78	8460	167.9	0.84
0.178	518.86	8270	167.9	0.84
0.178	520.36	8550	167.9	0.84
0.178	520.8	8420	167.9	0.84
0.178	521.83	8350	167.9	0.84
0.178	522.2	8530	167.9	0.84
0.178	523.85	8410	167.9	0.84
0.178	524.4	8440	167.9	0.84
0.178	528.55	8220	167.9	0.84
0.178	530.98	8580	167.9	0.84
0.178	552.49	9460	167.9	0.84
0.178	554.77	9520	167.9	0.84
0.178	355.62	2700	120.43	0.6
0.178	358.99	2760	120.43	0.6
0.178	404.19	3560	120.43	0.6
0.178	407.17	3620	120.43	0.6
0.178	446.46	4350	120.43	0.6
0.178	448.92	4400	120.43	0.6
0.178	479.54	4960	120.43	0.6
0.178	498.73	5320	120.43	0.6
0.178	501.34	5450	120.43	0.6
0.178	501.94	5420	120.43	0.6
0.178	503.82	5510	120.43	0.6
0.178	519.44	5780	120.43	0.6
0.178	520.36	5820	120.43	0.6
0.178	525.23	5660	120.43	0.6
0.178	530.07	5730	120.43	0.6
0.178	531.95	5770	120.43	0.6
0.178	534.44	5800	120.43	0.6
0.178	545.84	6090	120.43	0.6
0.178	335.06	1200	85.2	0.43
0.178	338.02	1250	85.2	0.43
0.178	338.56	1240	85.2	0.43
0.178	341.15	1290	85.2	0.43
0.178	455.45	2860	85.2	0.43
0.178	458.11	2910	85.2	0.43
0.178	495.64	3520	85.2	0.43
0.178	498.36	3580	85.2	0.43
0.178	500.74	3580	85.2	0.43
0.178	506.25	3740	85.2	0.43
0.178	506.44	3810	85.2	0.43
0.178	508.9	3920	85.2	0.43
0.178	509.25	3880	85.2	0.43
0.178	515	3980	85.2	0.43
0.178	515.59	3890	85.2	0.43
0.178	515.74	4110	85.2	0.43
0.178	517.78	3930	85.2	0.43
0.178	523.12	4370	85.2	0.43
0.178	526.05	4440	85.2	0.43
0.178	534.11	4610	85.2	0.43
0.178	536.98	4660	85.2	0.43
0.178	545.17	4800	85.2	0.43
0.178	547.79	4830	85.2	0.43
0.178	555.63	4940	85.2	0.43
0.178	557.44	4950	85.2	0.43
0.263	370.89	9040	520.58	1.05
0.263	384.18	10760	520.58	1.05
0.263	397.67	12220	520.58	1.05
0.263	401.55	12500	520.58	1.05
0.263	414.03	14100	520.58	1.05
0.263	428.62	15600	520.58	1.05
0.263	441.85	16890	520.58	1.06
0.263	442.53	16840	520.58	1.06
0.263	444.75	17170	520.58	1.06
0.263	446.86	17460	520.58	1.06
0.263	449.99	17670	520.58	1.06
0.263	451.48	17720	520.58	1.06
0.263	452.53	17950	520.58	1.06
0.263	453.04	18090	520.58	1.06
0.263	453.5	18480	520.58	1.06
0.263	455.8	18760	520.58	1.06
0.263	467.14	21390	520.58	1.06
0.263	484.92	25220	520.58	1.07
0.263	370.31	6800	466.92	0.94
0.263	394.2	9500	466.92	0.94
0.263	418.21	12020	466.92	0.94
0.263	442.18	14420	466.92	0.95
0.263	443.88	14560	466.92	0.95
0.263	460.86	16180	466.92	0.95
0.263	470.07	17020	466.92	0.95
0.263	471.69	17150	466.92	0.95
0.263	473.45	17250	466.92	0.95
0.263	474.61	17350	466.92	0.95
0.263	475	17340	466.92	0.95
0.263	475.1	17390	466.92	0.95
0.263	475.58	17510	466.92	0.95
0.263	476.36	17620	466.92	0.95
0.263	476.94	17700	466.92	0.95
0.263	477.52	17840	466.92	0.95
0.263	478.49	17990	466.92	0.95
0.263	478.55	17990	466.92	0.95
0.263	479.65	18220	466.92	0.95
0.263	480.27	18320	466.92	0.95
0.263	493.17	21250	466.92	0.95
0.263	513	25060	466.92	0.96
0.263	514.63	25390	466.92	0.96
0.263	361.27	4280	409.79	0.82
0.263	361.96	4330	409.79	0.82
0.263	364.32	4470	409.79	0.82
0.263	475.34	15390	409.79	0.83
0.263	476.94	15520	409.79	0.83
0.263	484.31	15970	409.79	0.83
0.263	485.27	16170	409.79	0.83
0.263	487.91	16320	409.79	0.83
0.263	488.27	16430	409.79	0.83
0.263	488.68	16450	409.79	0.83
0.263	489.44	16500	409.79	0.83
0.263	490.87	16580	409.79	0.83
0.263	490.97	16640	409.79	0.84
0.263	491.35	16710	409.79	0.84
0.263	491.76	16680	409.79	0.84
0.263	492.3	16750	409.79	0.84
0.263	493.24	16910	409.79	0.84
0.263	495.8	17200	409.79	0.84
0.263	496.28	17290	409.79	0.84
0.263	497.42	17450	409.79	0.84
0.263	475.28	13900	372.84	0.76
0.263	486.31	14740	372.84	0.76
0.263	494.01	15300	372.84	0.76
0.263	498.86	15650	372.84	0.76
0.263	499.28	15670	372.84	0.76
0.263	500.12	15740	372.84	0.76
0.263	501.19	15820	372.84	0.76
0.263	502.71	16060	372.84	0.76
0.263	502.79	16120	372.84	0.76
0.263	505.96	16450	372.84	0.76
0.263	509.26	16950	372.84	0.76
0.263	519.45	18220	372.84	0.76
0.263	521.28	18430	372.84	0.76
0.263	474.65	13360	358.89	0.73
0.263	482.81	14030	358.89	0.73
0.263	494.08	14970	358.89	0.73
0.263	501.38	15490	358.89	0.73
0.263	503.44	15630	358.89	0.73
0.263	503.82	15570	358.89	0.73
0.263	504.74	15730	358.89	0.73
0.263	505.32	15700	358.89	0.73
0.263	505.41	15720	358.89	0.73
0.263	506.25	15810	358.89	0.73
0.263	506.63	15820	358.89	0.73
0.263	506.75	15850	358.89	0.73
0.263	508.87	16150	358.89	0.73
0.263	509.26	16170	358.89	0.73
0.263	509.8	16240	358.89	0.73
0.263	510.45	16320	358.89	0.73
0.263	512.81	16600	358.89	0.73
0.263	513.33	16670	358.89	0.73
0.263	514.44	16840	358.89	0.73
0.263	524.72	18340	358.89	0.73
0.263	525.32	18410	358.89	0.73
0.263	526.6	18590	358.89	0.74
0.263	536.2	19630	358.89	0.74
0.263	536.8	19720	358.89	0.74
0.263	537.88	19800	358.89	0.74
0.263	484.56	13130	344.7	10.34
0.263	493.9	13980	344.7	10.34
0.263	503.3	14710	344.7	10.34
0.263	505.5	14890	344.7	10.34
0.263	507.81	15060	344.7	10.34
0.263	508.68	15130	344.7	10.34
0.263	509.71	15220	344.7	10.34
0.263	510.54	15280	344.7	10.34
0.263	531.68	17950	344.7	10.34
0.263	541.14	18950	344.7	10.34
0.263	542.94	19200	344.7	10.34
0.263	552.81	20370	344.7	10.34
0.263	506.5	14110	328.91	1.65
0.263	507	14150	328.91	1.65
0.263	508.12	14250	328.91	1.65
0.263	512.61	14640	328.91	1.65
0.263	513.15	14680	328.91	1.65
0.263	514.26	14770	328.91	1.65
0.263	514.44	14790	328.91	1.65
0.263	515.93	14990	328.91	1.65
0.263	517.37	15010	328.91	1.65
0.263	520.92	15560	328.91	1.65
0.263	530.45	16770	328.91	1.65
0.263	538.79	17810	328.91	1.65
0.263	549.52	19020	328.91	1.65
0.263	559.6	20080	328.91	1.65
0.263	493.82	12190	312.6	1.57
0.263	503.44	13000	312.6	1.57
0.263	513.02	13800	312.6	1.57
0.263	514.63	13870	312.6	1.57
0.263	515.96	14010	312.6	1.57
0.263	518.6	14170	312.6	1.57
0.263	519.07	14270	312.6	1.57
0.263	519.34	14250	312.6	1.57
0.263	519.44	14240	312.6	1.57
0.263	520.02	14260	312.6	1.57
0.263	520.54	14210	312.6	1.57
0.263	520.57	14290	312.6	1.57
0.263	521.28	14330	312.6	1.57
0.263	521.88	14400	312.6	1.57
0.263	530.84	15500	312.6	1.57
0.263	540.47	16680	312.6	1.57
0.263	549.17	17590	312.6	1.57
0.263	558.87	18600	312.6	1.57
0.263	567.38	19450	312.6	1.57
0.263	493.57	11010	298.7	1.5
0.263	504.89	11930	298.7	1.5
0.263	505.88	12000	298.7	1.5
0.263	506.44	12040	298.7	1.5
0.263	512.59	12490	298.7	1.5
0.263	521.62	13110	298.7	1.5
0.263	522.2	13170	298.7	1.5
0.263	523.96	13350	298.7	1.5
0.263	524.4	13310	298.7	1.5
0.263	524.77	13380	298.7	1.5
0.263	525.32	13440	298.7	1.5
0.263	525.69	13400	298.7	1.5
0.263	525.87	13440	298.7	1.5
0.263	545.82	15650	298.7	1.5
0.263	547.53	15820	298.7	1.5
0.263	556.73	16840	298.7	1.5
0.263	568.03	17850	298.7	1.5

System: decane + carbon dioxide; phases: Liquid, Gas
Property: Mass density, kg/m3 (Liquid); method: Derived from PVT data
Mole fraction of decane	Temperature, K	Mass density, kg/m3	uncertainty
0.095	339.76	658.76	3.97
0.095	352.09	622.67	3.75
0.095	368.53	574.05	3.46
0.178	447.32	467.95	2.82
0.263	452.53	520.58	3.14
0.263	475.1	466.92	2.82
0.263	490.87	409.79	2.47
0.263	501.19	372.84	2.25
0.263	505.32	358.89	2.16

System: decane + carbon dioxide; phases: Gas, Liquid
Property: Mass density, kg/m3 (Gas); method: Derived from PVT data
Mole fraction of decane	Temperature, K	Mass density, kg/m3	uncertainty
0.095	383.36	534.76	5.35
0.095	393.01	509.42	5.09
0.095	397.34	497.96	4.98
0.095	404.12	477.53	4.78
0.095	425.1	427.9	4.28
0.095	433.99	398.26	3.98
0.095	442.46	374.67	3.75
0.095	450.73	349.36	3.49
0.095	460.1	320.17	3.2
0.095	471.11	281.41	2.81
0.095	481	241.03	2.41
0.095	486	201.76	2.02
0.095	488.1	176.71	1.77
0.095	487.05	155.01	1.55
0.095	481.83	131.48	1.31
0.095	475.49	110.76	1.11
0.095	463.06	87.03	0.87
0.178	465.13	418.1	4.18
0.178	477.06	383.46	3.83
0.178	488.42	347.14	3.47
0.178	497.07	317.78	3.18
0.178	504.83	290.77	2.91
0.178	522.2	167.9	1.68
0.178	519.44	120.43	1.2
0.178	515	85.2	0.85
0.263	514.45	328.91	3.29
0.263	519.34	312.6	3.13
0.263	525.69	298.7	2.99

System: decane + carbon dioxide; phases: Liquid, Gas
Property: Vapor or sublimation pressure, kPa (Liquid); method: Derived from PVT data
Mole fraction of decane	Temperature, K	Vapor or sublimation pressure, kPa	uncertainty
0.095	339.76	11760	960
0.095	352.09	13550	1100
0.095	368.53	15570	1270
0.178	447.32	18030	1470
0.263	452.53	17950	1460
0.263	475.1	17390	1420
0.263	490.87	16580	1350
0.263	501.19	15880	1290
0.263	505.32	15700	1280

System: decane + carbon dioxide; phases: Gas, Liquid
Property: Vapor or sublimation pressure, kPa (Gas); method: Derived from PVT data
Mole fraction of decane	Temperature, K	Vapor or sublimation pressure, kPa	uncertainty
0.095	383.36	16860	1370
0.095	393.01	17370	1410
0.095	397.34	17510	1430
0.095	404.12	17770	1450
0.095	425.1	18100	1470
0.095	433.99	17940	1460
0.095	442.46	17730	1440
0.095	450.73	17320	1410
0.095	460.1	16640	1350
0.095	471.11	15550	1270
0.095	481	13620	1110
0.095	486	11600	940
0.095	488.1	10400	850
0.095	487.05	8980	731
0.095	481.83	7370	600
0.095	475.49	5770	470
0.095	463.06	3990	325
0.178	465.13	17730	1440
0.178	477.06	17060	1390
0.178	488.42	15970	1300
0.178	497.07	15410	1250
0.178	504.83	14390	1170
0.178	522.2	8530	690
0.178	519.44	5780	470
0.178	515	3980	320
0.263	514.45	14770	1200
0.263	519.34	14250	1160
0.263	525.69	13400	1090

System: decane + carbon dioxide; phases: Liquid, Gas
Property: Critical temperature, K (Liquid); method: Derived from PVT data
Mole fraction of decane	Critical temperature, K	uncertainty
0.095	377.5	0.51
0.178	460.15	0.51
0.263	509.71	0.5

System: decane + carbon dioxide; phases: Liquid, Gas
Property: Critical pressure, kPa (Liquid); method: Derived from PVT data
Mole fraction of decane	Critical pressure, kPa	uncertainty
0.095	16250	160
0.178	17830	180
0.263	15220	150

System: decane + carbon dioxide; phases: Liquid, Gas
Property: Critical density, kg/m3 (Liquid); method: Derived from PVT data
Mole fraction of decane	Critical density, kg/m3	uncertainty
0.095	551	20.25
0.178	425.7	15.64
0.263	344.7	12.67
