Measured thermophysical data. Measurements of isothermal vapor-liquid equilibrium for 2,3,3,3-tetrafluoroprop-1-ene + 1,1,1,2-tetrafluoroethane + propane system at temperatures from 283.15 to 323.15 K
Source: J. Chem. Thermodyn., 2019, 10.1016/j.jct.2018.10.028
Compound 1: 2,3,3,3-tetrafluoro-1-propene, C3H2F4, InChI=1S/C3H2F4/c1-2(4)3(5,6)7/h1H2, purity 99.9%
Compound 2: 1,1,1,2-tetrafluoroethane, C2H2F4, InChI=1S/C2H2F4/c3-1-2(4,5)6/h1H2, purity 99.95%
Compound 3: propane, C3H8, InChI=1S/C3H8/c1-3-2/h3H2,1-2H3, purity 99.9%

System: 2,3,3,3-tetrafluoro-1-propene + 1,1,1,2-tetrafluoroethane + propane; phases: Liquid, Gas
Property: Mole fraction of 1,1,1,2-tetrafluoroethane (Liquid); method: Chromatography
Property: Mole fraction of 1,1,1,2-tetrafluoroethane (Gas); method: Chromatography
Property: Mole fraction of 2,3,3,3-tetrafluoro-1-propene (Gas); method: Chromatography
Temperature, K	Pressure, kPa	Mole fraction of 2,3,3,3-tetrafluoro-1-propene	Mole fraction of 1,1,1,2-tetrafluoroethane	uncertainty	Mole fraction of 1,1,1,2-tetrafluoroethane	uncertainty	Mole fraction of 2,3,3,3-tetrafluoro-1-propene	uncertainty
283.15	636.33	0.333	0.1508	0.0041	0.1452	0.0042	0.2811	
283.15	660.08	0.2583	0.2066	0.0043	0.1923	0.0043	0.219	
283.15	661.33	0.2518	0.1056	0.0041	0.1098	0.0041	0.216	
283.15	662.54	0.2561	0.193	0.0042	0.1814	0.0043	0.2167	
283.15	684.87	0.1881	0.1663	0.0042	0.164	0.0042	0.1596	
283.15	707.88	0.1321	0.2204	0.0043	0.2079	0.0044	0.1116	
283.15	728.61	0.0827	0.2575	0.0044	0.2366	0.0045	0.0698	
283.15	750.56	0.0389	0.3019	0.0045	0.2679	0.0046	0.0329	
293.15	787.72	0.5153	0.0658	0.004	0.0707	0.004	0.4179	
293.15	815.64	0.4287	0.1278	0.0041	0.1306	0.0042	0.3419	
293.15	844.07	0.3471	0.1862	0.0042	0.1821	0.0043	0.2737	
293.15	865.17	0.2811	0.2828	0.0045	0.2572	0.0046	0.2228	
293.15	894.22	0.2049	0.3359	0.0047	0.2945	0.0047	0.1629	
293.15	897.99	0.2009	0.3143	0.0046	0.2798	0.0047	0.1582	
293.15	900.85	0.197	0.2936	0.0045	0.2661	0.0046	0.1541	
293.15	930.48	0.1255	0.3227	0.0046	0.2886	0.0047	0.0977	
303.15	1122.15	0.2811	0.2828	0.0045	0.2654	0.0046	0.2264	
303.15	1127.33	0.2754	0.2616	0.0044	0.2495	0.0045	0.2206	
303.15	1133.78	0.2647	0.2219	0.0043	0.2201	0.0044	0.2115	
303.15	1135.39	0.2501	0.1677	0.0042	0.1792	0.0043	0.2028	
303.15	1153.51	0.2091	0.3583	0.0047	0.32	0.0048	0.1708	
303.15	1184.52	0.1383	0.4327	0.005	0.37	0.0051	0.1161	
303.15	1206.88	0.1211	0.2841	0.0045	0.2758	0.0046	0.0961	
303.15	1215.2	0.0686	0.5058	0.0053	0.4173	0.0053	0.06	
313.15	1384.38	0.3618	0.2265	0.0043	0.2273	0.0044	0.2962	
313.15	1431.49	0.2811	0.2828	0.0045	0.2728	0.0046	0.2297	
313.15	1484.23	0.2009	0.3143	0.0046	0.298	0.0047	0.1636	
313.15	1488.2	0.197	0.2936	0.0045	0.2838	0.0047	0.1599	
313.15	1492.05	0.1897	0.2544	0.0044	0.2571	0.0046	0.1539	
313.15	1522.99	0.1112	0.1988	0.0042	0.2295	0.0044	0.0934	
313.15	1533.98	0.1169	0.2482	0.0044	0.2623	0.0046	0.0955	
313.15	1537.02	0.1211	0.2841	0.0045	0.2849	0.0047	0.0981	
323.15	1645.56	0.5153	0.0658	0.004	0.077	0.0041	0.44	
323.15	1722.35	0.2883	0.0258	0.004	0.0371	0.004	0.2741	
323.15	1760.5	0.3271	0.1316	0.0041	0.1509	0.0042	0.2771	
323.15	1814.95	0.2501	0.1677	0.0042	0.1901	0.0043	0.2111	
323.15	1868.23	0.1797	0.2008	0.0042	0.2258	0.0044	0.1514	
323.15	1871.26	0.1829	0.218	0.0043	0.2384	0.0045	0.1528	
323.15	1900.38	0.1383	0.4327	0.005	0.3902	0.0052	0.1187	
323.15	1920.11	0.1149	0.2312	0.0043	0.2585	0.0046	0.0966	
