Measured thermophysical data. Isobaric (vapour + liquid) equilibria of binary systems containing butyl acetate for the separation of methoxy aromatic compounds (anisole and guaiacol) from biomass fast pyrolysis oil
Source: J. Chem. Thermodyn., 2015, 10.1016/j.jct.2015.04.003
Compound 1: butyl ethanoate, C6H12O2, InChI=1S/C6H12O2/c1-3-4-5-8-6(2)7/h3-5H2,1-2H3, purity 99.5%
Compound 2: anisole, C7H8O, InChI=1S/C7H8O/c1-8-7-5-3-2-4-6-7/h2-6H,1H3, purity 99%
Compound 3: 2-methoxyphenol, C7H8O2, InChI=1S/C7H8O2/c1-9-7-5-3-2-4-6(7)8/h2-5,8H,1H3, purity 99%

System: butyl ethanoate; phases: Liquid, Gas
Property: Boiling temperature at pressure P, K (Liquid); method: Ebulliometric method (Recirculating still)
Pressure, kPa	Boiling temperature at pressure P, K	uncertainty
101.33	399.07	0.05

System: anisole; phases: Liquid, Gas
Property: Boiling temperature at pressure P, K (Liquid); method: Ebulliometric method (Recirculating still)
Pressure, kPa	Boiling temperature at pressure P, K	uncertainty
101.33	426.69	0.05

System: 2-methoxyphenol; phases: Liquid, Gas
Property: Boiling temperature at pressure P, K (Liquid); method: Ebulliometric method (Recirculating still)
Pressure, kPa	Boiling temperature at pressure P, K	uncertainty
101.33	478.25	0.05

System: anisole + butyl ethanoate; phases: Gas, Liquid
Fixed: Pressure, kPa = 101.33
Property: Mole fraction of butyl ethanoate (Gas); method: Chromatography
Mole fraction of butyl ethanoate	Mole fraction of butyl ethanoate	uncertainty
0.979	0.988	0.005
0.952	0.973	0.005
0.912	0.95	0.005
0.847	0.913	0.005
0.777	0.872	0.005
0.689	0.818	0.005
0.637	0.784	0.005
0.59	0.751	0.005
0.553	0.725	0.006
0.52	0.698	0.006
0.485	0.67	0.006
0.443	0.635	0.006
0.394	0.59	0.007
0.302	0.495	0.007
0.251	0.434	0.007
0.217	0.39	0.008
0.125	0.253	0.008
0.107	0.222	0.009
0.053	0.12	0.009
0.037	0.087	0.01
0.025	0.059	0.01
0.01	0.023	0.01

System: anisole + butyl ethanoate; phases: Liquid, Gas
Fixed: Pressure, kPa = 101.33
Property: Boiling temperature at pressure P, K (Liquid); method: Ebulliometric method (Recirculating still)
Mole fraction of butyl ethanoate	Boiling temperature at pressure P, K	uncertainty
0.979	399.31	0.11
0.952	399.76	0.11
0.912	400.43	0.11
0.847	401.61	0.12
0.777	403.01	0.12
0.689	404.84	0.12
0.637	405.94	0.12
0.59	406.98	0.12
0.553	407.76	0.13
0.52	408.6	0.13
0.485	409.47	0.14
0.443	410.54	0.14
0.394	411.89	0.15
0.302	414.58	0.15
0.251	416.23	0.16
0.217	417.42	0.17
0.125	420.86	0.2
0.107	421.64	0.2
0.053	424.07	0.2
0.037	424.88	0.23
0.025	425.56	0.24
0.01	426.41	0.24

System: 2-methoxyphenol + butyl ethanoate; phases: Gas, Liquid
Fixed: Pressure, kPa = 101.33
Property: Mole fraction of butyl ethanoate (Gas); method: Chromatography
Mole fraction of butyl ethanoate	Mole fraction of butyl ethanoate	uncertainty
0.933	0.992	0.004
0.848	0.981	0.004
0.795	0.973	0.004
0.768	0.969	0.004
0.687	0.956	0.004
0.653	0.949	0.004
0.6	0.937	0.004
0.502	0.91	0.004
0.475	0.904	0.004
0.422	0.882	0.005
0.378	0.861	0.005
0.342	0.838	0.005
0.282	0.792	0.005
0.257	0.769	0.007
0.181	0.669	0.008
0.15	0.611	0.01
0.113	0.519	0.013
0.071	0.384	0.018
0.02	0.133	0.02

System: 2-methoxyphenol + butyl ethanoate; phases: Liquid, Gas
Fixed: Pressure, kPa = 101.33
Property: Boiling temperature at pressure P, K (Liquid); method: Ebulliometric method (Recirculating still)
Mole fraction of butyl ethanoate	Boiling temperature at pressure P, K	uncertainty
0.933	401.21	0.16
0.848	404.09	0.17
0.795	406.01	0.17
0.768	406.85	0.16
0.687	409.58	0.17
0.653	411.06	0.2
0.6	413.35	0.2
0.502	417.91	0.2
0.475	418.88	0.23
0.422	422.12	0.26
0.378	424.9	0.3
0.342	427.92	0.36
0.282	433.17	0.37
0.257	435.56	0.46
0.181	444.41	0.5
0.15	448.72	0.61
0.113	454.7	0.69
0.071	462.21	0.81
0.02	473.47	0.89
