Measured thermophysical data. Thermodynamic properties of alkyl 1H-indole carboxylate derivatives: A combined experimental and computational study
Source: J. Chem. Thermodyn., 2016, 10.1016/j.jct.2016.01.006
Compound 1: carbon dioxide, CO2, InChI=1S/CO2/c2-1-3
Compound 2: nitrogen, N2, InChI=1S/N2/c1-2
Compound 3: water, H2O, InChI=1S/H2O/h1H2
Compound 4: oxygen, O2, InChI=1S/O2/c1-2
Compound 5: methyl 1H-indole-3-carboxylate, C10H9NO2, InChI=1S/C10H9NO2/c1-13-10(12)8-6-11-9-5-3-2-4-7(8)9/h2-6,11H,1H3, purity 99.4%
Compound 6: ethyl 1H-indole-2-carboxylate, C11H11NO2, InChI=1S/C11H11NO2/c1-2-14-11(13)10-7-8-5-3-4-6-9(8)12-10/h3-7,12H,2H2,1H3, purity 99.6%

System: methyl 1H-indole-3-carboxylate; phases: Crystal, Gas
Property: Vapor or sublimation pressure, kPa (Crystal); method: Calculated from knudsen effusion weight loss
Temperature, K	Vapor or sublimation pressure, kPa	uncertainty
375.09	0.00096	7.8e-05
373.09	0.000822	7.6e-05
371.16	0.000707	7.4e-05
369.1	0.000514	7.2e-05
367.12	0.000452	7.2e-05
365.16	0.000371	7.1e-05
363.1	0.000284	7.1e-05
361.11	0.000234	7e-05
359.16	0.000189	7e-05
357.1	0.000148	7e-05
355.12	0.00013	7e-05
353.17	0.000108	7e-05
375.09	0.000992	7.8e-05
373.09	0.000799	7.6e-05
371.16	0.000637	7.4e-05
369.1	0.000528	7.2e-05
367.12	0.000439	7.2e-05
365.16	0.000351	7.1e-05
363.1	0.000283	7.1e-05
361.11	0.000232	7e-05
359.16	0.000179	7e-05
357.1	0.000154	7e-05
355.12	0.000127	7e-05
353.17	9.8e-05	7e-05
375.09	0.000977	7.8e-05
373.09	0.000792	7.5e-05
371.16	0.000644	7.4e-05
369.1	0.000531	7.2e-05
367.12	0.000427	7.2e-05
365.16	0.000347	7.1e-05
363.1	0.000285	7.1e-05
361.11	0.000226	7e-05
359.16	0.000181	7e-05
357.1	0.000153	7e-05
355.12	0.000122	7e-05
353.17	9.7e-05	7e-05

System: ethyl 1H-indole-2-carboxylate; phases: Crystal, Gas
Property: Vapor or sublimation pressure, kPa (Crystal); method: Calculated from knudsen effusion weight loss
Temperature, K	Vapor or sublimation pressure, kPa	uncertainty
348.11	0.000988	7.8e-05
346.18	0.000835	7.6e-05
344.16	0.000659	7.4e-05
342.12	0.000504	7.2e-05
340.21	0.00041	7.1e-05
338.18	0.000322	7.1e-05
336.12	0.000248	7.1e-05
334.22	0.000203	7e-05
332.18	0.000157	7e-05
330.12	0.000126	7e-05
328.21	0.000101	7e-05
326.18	7.9e-05	7e-05
348.11	0.000995	7.8e-05
346.18	0.000808	7.6e-05
344.16	0.000627	7.3e-05
342.12	0.000501	7.2e-05
340.21	0.000399	7.1e-05
338.18	0.000312	7.1e-05
336.12	0.000256	7.1e-05
334.22	0.000202	7e-05
332.18	0.000155	7e-05
330.12	0.000123	7e-05
328.21	9.8e-05	7e-05
326.18	7.4e-05	7e-05
348.11	0.000981	7.8e-05
346.18	0.000768	7.5e-05
344.16	0.000614	7.3e-05
342.12	0.000503	7.2e-05
340.21	0.000394	7.1e-05
338.18	0.000312	7.1e-05
336.12	0.000249	7.1e-05
334.22	0.000196	7e-05
332.18	0.000154	7e-05
330.12	0.000122	7e-05
328.21	9.1e-05	7e-05
326.18	7.4e-05	7e-05

Reaction: -1 methyl 1H-indole-3-carboxylate + 10 carbon dioxide + .5 nitrogen + 4.5 water + -11.25 oxygen
Property: Specific internal energy of reaction at constant volume, J/g
-27941.45

Reaction: -1 ethyl 1H-indole-2-carboxylate + 11 carbon dioxide + .5 nitrogen + 5.5 water + -12.75 oxygen
Property: Specific internal energy of reaction at constant volume, J/g
-29337.58
