Measured thermophysical data. Viscosity measurements of ortho-xylene, meta-xylene, para-xylene and ethylbenzene
Source: J. Chem. Thermodyn., 2016, 10.1016/j.jct.2015.11.027
Compound 1: 1,2-dimethylbenzene, C8H10, InChI=1S/C8H10/c1-7-5-3-4-6-8(7)2/h3-6H,1-2H3, purity 99%
Compound 2: 1,3-dimethylbenzene, C8H10, InChI=1S/C8H10/c1-7-4-3-5-8(2)6-7/h3-6H,1-2H3, purity 99%
Compound 3: 1,4-dimethylbenzene, C8H10, InChI=1S/C8H10/c1-7-3-5-8(2)6-4-7/h3-6H,1-2H3, purity 99%
Compound 4: ethylbenzene, C8H10, InChI=1S/C8H10/c1-2-8-6-4-3-5-7-8/h3-7H,2H2,1H3, purity 99.8%

System: 1,2-dimethylbenzene; phases: Liquid
Property: Viscosity, Pa*s (Liquid); method: Vibrating wire viscometry
Temperature, K	Pressure, kPa	Viscosity, Pa*s	uncertainty
273.48	100	0.0011017	2.39e-05
273.48	1000	0.0011126	2.42e-05
273.48	5000	0.0011545	2.5e-05
273.48	10000	0.0012091	2.62e-05
273.48	15000	0.0012642	2.73e-05
273.48	20000	0.0013191	2.84e-05
273.48	25000	0.0013777	2.97e-05
273.48	30000	0.0014359	3.09e-05
283.22	100	0.0009464	2.07e-05
283.22	1000	0.0009529	2.1e-05
283.22	5000	0.0009859	2.15e-05
283.21	10000	0.001031	2.25e-05
283.21	15000	0.0010749	2.34e-05
283.21	20000	0.0011209	2.43e-05
283.21	25000	0.0011687	2.53e-05
283.21	30000	0.0012159	2.63e-05
293.04	100	0.0008196	1.81e-05
293.04	1000	0.0008252	1.83e-05
293.04	5000	0.0008535	1.88e-05
293.04	10000	0.0008901	1.95e-05
293.05	15000	0.0009269	2.03e-05
293.05	20000	0.0009685	2.12e-05
293.05	25000	0.0010062	2.19e-05
293.06	30000	0.0010477	2.28e-05
302.87	100	0.0007178	1.6e-05
302.87	1000	0.0007228	1.62e-05
302.88	5000	0.0007489	1.66e-05
302.88	10000	0.0007794	1.73e-05
302.88	15000	0.0008128	1.8e-05
302.87	20000	0.0008457	1.86e-05
302.87	25000	0.000879	1.93e-05
302.87	30000	0.0009126	2e-05
312.66	100	0.0006371	1.44e-05
312.67	1000	0.0006414	1.45e-05
312.67	5000	0.0006635	1.49e-05
312.66	10000	0.0006901	1.54e-05
312.67	15000	0.0007185	1.6e-05
312.66	20000	0.0007486	1.66e-05
312.66	25000	0.0007781	1.72e-05
312.66	30000	0.0008077	1.79e-05
321.85	100	0.0005744	1.31e-05
321.85	1000	0.0005794	1.32e-05
321.86	5000	0.0005991	1.36e-05
321.85	10000	0.0006241	1.41e-05
321.85	15000	0.0006489	1.46e-05
321.86	20000	0.0006748	1.51e-05
321.86	25000	0.0006987	1.56e-05
321.85	30000	0.0007248	1.62e-05
332.47	100	0.000515	1.19e-05
332.47	1000	0.0005176	1.2e-05
332.48	5000	0.0005347	1.23e-05
332.48	10000	0.0005575	1.28e-05
332.48	15000	0.0005798	1.32e-05
332.48	20000	0.0006029	1.37e-05
332.48	25000	0.0006273	1.42e-05
332.48	30000	0.0006504	1.46e-05
343.06	100	0.0004586	1.08e-05
343.07	1000	0.0004624	1.09e-05
343.07	5000	0.0004782	1.12e-05
343.07	10000	0.000499	1.16e-05
343.08	15000	0.0005195	1.2e-05
343.09	20000	0.0005401	1.24e-05
343.08	25000	0.0005603	1.28e-05
343.08	30000	0.0005817	1.32e-05
353.04	100	0.0004177	1e-05
353.04	1000	0.0004196	1e-05
353.03	5000	0.0004342	1.03e-05
353.02	10000	0.0004549	1.07e-05
353.02	15000	0.0004725	1.11e-05
353.02	20000	0.0004922	1.14e-05
353.02	25000	0.0005113	1.18e-05
353.01	30000	0.0005312	1.22e-05
362.85	100	0.0003838	9.3e-06
362.85	1000	0.0003862	9.4e-06
362.85	5000	0.0004001	9.6e-06
362.85	10000	0.0004169	1e-05
362.86	15000	0.000434	1.03e-05
362.86	20000	0.0004506	1.06e-05
362.87	25000	0.000469	1.1e-05
362.87	30000	0.0004842	1.13e-05
372.83	100	0.0003528	8.7e-06
372.84	1000	0.0003556	8.8e-06
372.84	5000	0.0003683	9e-06
372.85	10000	0.0003831	9.3e-06
372.86	15000	0.0004015	9.7e-06
372.86	20000	0.0004156	9.9e-06
372.85	25000	0.0004324	1.03e-05
372.86	30000	0.0004477	1.06e-05

System: 1,3-dimethylbenzene; phases: Liquid
Property: Viscosity, Pa*s (Liquid); method: Vibrating wire viscometry
Temperature, K	Pressure, kPa	Viscosity, Pa*s	uncertainty
273.56	100	0.0007948	1.76e-05
273.55	1000	0.0008029	1.78e-05
273.55	5000	0.0008274	1.83e-05
273.54	10000	0.0008601	1.89e-05
273.55	15000	0.0008952	1.97e-05
273.55	20000	0.0009293	2.04e-05
273.54	25000	0.0009681	2.12e-05
273.54	30000	0.0010079	2.2e-05
283.24	100	0.0007	1.56e-05
283.25	1000	0.000707	1.59e-05
283.25	5000	0.0007291	1.62e-05
283.24	10000	0.0007574	1.68e-05
283.25	15000	0.0007883	1.75e-05
283.25	20000	0.0008196	1.81e-05
283.25	25000	0.000853	1.88e-05
283.25	30000	0.0008858	1.95e-05
293.07	100	0.0006215	1.4e-05
293.06	1000	0.0006255	1.42e-05
293.07	5000	0.000644	1.45e-05
293.07	10000	0.0006692	1.5e-05
293.07	15000	0.0006957	1.56e-05
293.06	20000	0.0007224	1.61e-05
293.06	25000	0.0007497	1.67e-05
293.07	30000	0.0007757	1.72e-05
302.9	100	0.0005542	1.27e-05
302.9	1000	0.0005571	1.28e-05
302.88	5000	0.0005751	1.31e-05
302.9	10000	0.000598	1.36e-05
302.89	15000	0.0006204	1.4e-05
302.9	20000	0.000645	1.45e-05
302.88	25000	0.0006673	1.5e-05
302.87	30000	0.0006903	1.55e-05
313.3	100	0.0004952	1.15e-05
313.29	1000	0.0004982	1.16e-05
313.3	5000	0.0005142	1.19e-05
313.3	10000	0.0005341	1.23e-05
313.31	15000	0.0005548	1.27e-05
313.31	20000	0.0005757	1.31e-05
313.31	25000	0.0005968	1.35e-05
313.31	30000	0.000618	1.4e-05
323.01	100	0.0004499	1.06e-05
323.01	1000	0.0004531	1.07e-05
323.01	5000	0.000467	1.09e-05
323	10000	0.0004847	1.13e-05
323.02	15000	0.0005032	1.17e-05
323.02	20000	0.000522	1.2e-05
323.02	25000	0.0005411	1.24e-05
323.02	30000	0.0005599	1.28e-05
333.1	100	0.0004087	9.8e-06
333.11	1000	0.000411	9.9e-06
333.11	5000	0.0004237	1.01e-05
333.11	10000	0.0004414	1.04e-05
333.11	15000	0.0004585	1.08e-05
333.11	20000	0.0004756	1.11e-05
333.12	25000	0.0004931	1.15e-05
333.12	30000	0.0005101	1.18e-05
342.98	100	0.0003731	9.1e-06
342.98	1000	0.0003761	9.2e-06
342.98	5000	0.0003882	9.4e-06
342.98	10000	0.0004036	9.7e-06
342.98	15000	0.0004205	1e-05
342.97	20000	0.0004363	1.03e-05
342.97	25000	0.0004516	1.06e-05
342.97	30000	0.0004678	1.1e-05
352.89	100	0.0003436	8.5e-06
352.89	1000	0.000346	8.6e-06
352.89	5000	0.0003581	8.8e-06
352.89	10000	0.0003728	9.1e-06
352.89	15000	0.0003867	9.4e-06
352.88	20000	0.0004014	9.7e-06
352.88	25000	0.0004162	9.9e-06
352.88	30000	0.000431	1.02e-05
362.69	100	0.0003175	8e-06
362.7	1000	0.00032	8.1e-06
362.7	5000	0.0003307	8.3e-06
362.7	10000	0.0003452	8.6e-06
362.71	15000	0.0003587	8.8e-06
362.71	20000	0.0003726	9.1e-06
362.71	25000	0.0003859	9.3e-06
362.71	30000	0.0003995	9.6e-06
372.5	100	0.0002936	7.6e-06
372.5	1000	0.0002964	7.6e-06
372.51	5000	0.000307	7.8e-06
372.51	10000	0.0003199	8.1e-06
372.51	15000	0.0003331	8.3e-06
372.51	20000	0.0003463	8.6e-06
372.51	25000	0.0003587	8.8e-06
372.51	30000	0.0003715	9.1e-06

System: 1,4-dimethylbenzene; phases: Liquid
Property: Viscosity, Pa*s (Liquid); method: Vibrating wire viscometry
Temperature, K	Pressure, kPa	Viscosity, Pa*s	uncertainty
293.04	100	0.0006444	1.45e-05
293.04	1000	0.0006494	1.46e-05
293.04	5000	0.000672	1.51e-05
293.04	10000	0.0006997	1.56e-05
293.03	15000	0.0007277	1.62e-05
293.03	20000	0.0007569	1.68e-05
293.03	25000	0.0007883	1.75e-05
293.03	30000	0.0008186	1.81e-05
302.86	100	0.0005762	1.31e-05
302.86	1000	0.0005804	1.32e-05
302.87	5000	0.0005995	1.36e-05
302.87	10000	0.0006244	1.41e-05
302.88	15000	0.0006499	1.46e-05
302.88	20000	0.0006747	1.51e-05
302.88	25000	0.0007023	1.57e-05
302.89	30000	0.0007274	1.62e-05
312.76	100	0.000515	1.19e-05
312.76	1000	0.0005186	1.2e-05
312.77	5000	0.0005356	1.23e-05
312.77	10000	0.0005575	1.28e-05
312.76	15000	0.0005806	1.32e-05
312.76	20000	0.0006027	1.37e-05
312.76	25000	0.0006263	1.41e-05
312.76	30000	0.0006494	1.46e-05
322.62	100	0.0004653	1.09e-05
322.63	1000	0.0004689	1.1e-05
322.64	5000	0.0004833	1.13e-05
322.64	10000	0.0005038	1.17e-05
322.64	15000	0.000524	1.21e-05
322.64	20000	0.0005442	1.25e-05
322.64	25000	0.0005653	1.29e-05
322.65	30000	0.0005861	1.33e-05
332.58	100	0.0004206	1e-05
332.58	1000	0.0004237	1.01e-05
332.58	5000	0.0004383	1.04e-05
332.58	10000	0.0004564	1.07e-05
332.58	15000	0.0004745	1.11e-05
332.58	20000	0.000493	1.15e-05
332.58	25000	0.0005109	1.18e-05
332.57	30000	0.0005304	1.22e-05
342.27	100	0.0003815	9.3e-06
342.27	1000	0.0003842	9.3e-06
342.28	5000	0.0003977	9.6e-06
342.28	10000	0.0004144	9.9e-06
342.29	15000	0.0004314	1.02e-05
342.28	20000	0.0004482	1.06e-05
342.29	25000	0.0004649	1.09e-05
342.29	30000	0.0004833	1.13e-05
352.21	100	0.0003483	8.6e-06
352.21	1000	0.0003507	8.7e-06
352.2	5000	0.0003634	8.9e-06
352.2	10000	0.0003791	9.2e-06
352.2	15000	0.0003945	9.5e-06
352.2	20000	0.0004111	9.8e-06
352.2	25000	0.0004263	1.01e-05
352.2	30000	0.0004423	1.05e-05
362.73	100	0.0003194	8.1e-06
362.74	1000	0.0003217	8.1e-06
362.75	5000	0.0003331	8.3e-06
362.76	10000	0.0003467	8.6e-06
362.76	15000	0.0003616	8.9e-06
362.77	20000	0.0003756	9.2e-06
362.81	25000	0.0003915	9.5e-06
362.82	30000	0.000405	9.7e-06
372.71	100	0.0002936	7.6e-06
372.71	1000	0.000296	7.6e-06
372.71	5000	0.0003061	7.8e-06
372.7	10000	0.0003203	8.1e-06
372.7	15000	0.0003341	8.4e-06
372.69	20000	0.000348	8.6e-06
372.69	25000	0.0003614	8.9e-06
372.69	30000	0.0003752	9.1e-06

System: ethylbenzene; phases: Liquid
Property: Viscosity, Pa*s (Liquid); method: Vibrating wire viscometry
Temperature, K	Pressure, kPa	Viscosity, Pa*s	uncertainty
253.23	100	0.0012005	2.53e-05
253.22	1000	0.0012109	2.55e-05
253.21	5000	0.0012585	2.65e-05
253.22	10000	0.0013112	2.75e-05
253.24	15000	0.0013678	2.87e-05
253.23	20000	0.0014227	2.98e-05
253.23	25000	0.0014793	3.09e-05
253.24	30000	0.0015353	3.21e-05
253.22	35000	0.0015933	3.32e-05
263.22	100	0.0010207	2.17e-05
263.22	1000	0.001028	2.2e-05
263.21	5000	0.0010633	2.25e-05
263.2	10000	0.0011101	2.35e-05
263.2	15000	0.0011601	2.45e-05
263.21	20000	0.0012071	2.54e-05
263.21	25000	0.0012568	2.64e-05
263.22	30000	0.0013044	2.74e-05
263.21	35000	0.0013502	2.83e-05
273.21	100	0.0008832	1.89e-05
273.17	1000	0.0008919	1.92e-05
273.15	5000	0.0009249	1.98e-05
273.18	10000	0.0009635	2.05e-05
273.19	15000	0.0010026	2.13e-05
273.15	20000	0.0010421	2.21e-05
273.16	25000	0.0010818	2.29e-05
273.15	30000	0.0011232	2.37e-05
273.15	35000	0.0011632	2.45e-05
283.16	100	0.0007737	1.67e-05
283.13	1000	0.0007784	1.69e-05
283.16	5000	0.0008028	1.73e-05
283.14	10000	0.0008372	1.8e-05
283.17	15000	0.0008678	1.86e-05
283.15	20000	0.0009017	1.93e-05
283.17	25000	0.0009314	1.99e-05
283.16	30000	0.0009641	2.05e-05
283.16	35000	0.0009964	2.12e-05
293.26	100	0.0006786	1.48e-05
293.2	1000	0.0006832	1.5e-05
293.18	5000	0.0007056	1.54e-05
293.24	10000	0.0007327	1.59e-05
293.23	15000	0.0007607	1.65e-05
293.24	20000	0.0007871	1.7e-05
293.22	25000	0.0008173	1.76e-05
293.24	30000	0.0008447	1.81e-05
293.26	35000	0.0008724	1.87e-05
303.15	100	0.0006033	1.33e-05
303.17	1000	0.0006074	1.35e-05
303.18	5000	0.0006268	1.38e-05
303.2	10000	0.0006499	1.43e-05
303.19	15000	0.0006744	1.48e-05
303.17	20000	0.0006989	1.52e-05
303.18	25000	0.0007235	1.57e-05
303.19	30000	0.0007502	1.63e-05
303.18	35000	0.0007739	1.67e-05
313.12	100	0.0005386	1.21e-05
313.12	1000	0.0005427	1.22e-05
313.11	5000	0.0005596	1.25e-05
313.1	10000	0.0005812	1.29e-05
313.12	15000	0.0006039	1.34e-05
313.09	20000	0.0006261	1.38e-05
313.1	25000	0.000649	1.43e-05
313.08	30000	0.0006722	1.47e-05
313.1	35000	0.000694	1.51e-05
322.97	100	0.0004865	1.11e-05
322.98	1000	0.0004895	1.12e-05
322.98	5000	0.0005042	1.14e-05
322.98	10000	0.0005245	1.18e-05
322.98	15000	0.000544	1.22e-05
322.97	20000	0.0005648	1.26e-05
322.98	25000	0.0005856	1.3e-05
322.98	30000	0.000606	1.34e-05
322.98	35000	0.0006259	1.38e-05
332.91	100	0.0004422	1.02e-05
332.92	1000	0.0004448	1.03e-05
332.91	5000	0.0004595	1.06e-05
332.92	10000	0.000478	1.09e-05
332.92	15000	0.0004961	1.13e-05
332.92	20000	0.0005149	1.16e-05
332.92	25000	0.0005331	1.2e-05
332.92	30000	0.0005516	1.23e-05
332.92	35000	0.0005706	1.27e-05
342.81	100	0.0004022	9.5e-06
342.8	1000	0.0004049	9.5e-06
342.81	5000	0.0004186	9.8e-06
342.8	10000	0.0004356	1.01e-05
342.8	15000	0.0004524	1.04e-05
342.8	20000	0.0004691	1.07e-05
342.8	25000	0.0004869	1.11e-05
342.8	30000	0.0005045	1.14e-05
342.8	35000	0.0005223	1.18e-05
352.73	100	0.0003693	8.8e-06
352.73	1000	0.000372	8.9e-06
352.72	5000	0.0003851	9.1e-06
352.73	10000	0.0004003	9.4e-06
352.73	15000	0.0004164	9.7e-06
352.72	20000	0.0004335	1.01e-05
352.73	25000	0.0004495	1.04e-05
352.73	30000	0.0004654	1.07e-05
352.72	35000	0.0004807	1.1e-05
362.66	100	0.000339	8.3e-06
362.66	1000	0.0003418	8.3e-06
362.66	5000	0.0003538	8.6e-06
362.67	10000	0.0003685	8.8e-06
362.66	15000	0.0003838	9.1e-06
362.66	20000	0.0003986	9.4e-06
362.66	25000	0.0004137	9.7e-06
362.66	30000	0.0004289	1e-05
362.67	35000	0.0004429	1.02e-05
372.61	100	0.0003127	7.8e-06
372.6	1000	0.0003155	7.9e-06
372.59	5000	0.0003272	8.1e-06
372.59	10000	0.000341	8.3e-06
372.59	15000	0.0003541	8.6e-06
372.59	20000	0.0003688	8.8e-06
372.59	25000	0.0003822	9.1e-06
372.59	30000	0.0003967	9.4e-06
372.59	35000	0.0004108	9.6e-06
