Measured thermophysical data. Influence of temperature and alkyl chain length on physicochemical properties of trihexyl- and trioctylammonium based protic ionic liquids
Source: J. Chem. Thermodyn., 2019, 10.1016/j.jct.2019.02.015
Compound 1: trihexylammonium butanoate, C22H47NO2, InChI=1S/C18H39N.C4H8O2/c1-4-7-10-13-16-19(17-14-11-8-5-2)18-15-12-9-6-3;1-2-3-4(5)6/h4-18H2,1-3H3;2-3H2,1H3,(H,5,6)
Compound 2: trihexylammonium hexanoate, C24H51NO2, InChI=1S/C18H39N.C6H12O2/c1-4-7-10-13-16-19(17-14-11-8-5-2)18-15-12-9-6-3;1-2-3-4-5-6(7)8/h4-18H2,1-3H3;2-5H2,1H3,(H,7,8)
Compound 3: trihexylammonium octanoate, C26H55NO2, InChI=1S/C18H39N.C8H16O2/c1-4-7-10-13-16-19(17-14-11-8-5-2)18-15-12-9-6-3;1-2-3-4-5-6-7-8(9)10/h4-18H2,1-3H3;2-7H2,1H3,(H,9,10)
Compound 4: trioctylammonium butanoate, C28H59NO2, InChI=1S/C24H51N.C4H8O2/c1-4-7-10-13-16-19-22-25(23-20-17-14-11-8-5-2)24-21-18-15-12-9-6-3;1-2-3-4(5)6/h4-24H2,1-3H3;2-3H2,1H3,(H,5,6)
Compound 5: trioctylammonium hexanoate, C30H63NO2, InChI=1S/C24H51N.C6H12O2/c1-4-7-10-13-16-19-22-25(23-20-17-14-11-8-5-2)24-21-18-15-12-9-6-3;1-2-3-4-5-6(7)8/h4-24H2,1-3H3;2-5H2,1H3,(H,7,8)
Compound 6: trioctylammonium octanoate, C32H67NO2, InChI=1S/C24H51N.C8H16O2/c1-4-7-10-13-16-19-22-25(23-20-17-14-11-8-5-2)24-21-18-15-12-9-6-3;1-2-3-4-5-6-7-8(9)10/h4-24H2,1-3H3;2-7H2,1H3,(H,9,10)
Compound 7: water, H2O, InChI=1S/H2O/h1H2, purity 99.8%

System: trihexylammonium butanoate; phases: Liquid
Fixed: Pressure, kPa = 101.325
Property: Mass density, kg/m3 (Liquid); method: Vibrating tube method
Temperature, K	Mass density, kg/m3	uncertainty
293.15	848.02	4.12
298.15	844.32	4.1
303.15	840.63	4.07
308.15	836.93	4.05
313.15	833.22	4.02
318.15	829.5	4
323.15	825.78	3.97
328.15	822.04	3.95
333.15	818.3	3.92
338.15	814.54	3.9
343.15	810.76	3.87

System: trihexylammonium butanoate; phases: Liquid
Fixed: Pressure, kPa = 101.325
Property: Viscosity, Pa*s (Liquid); method: Falling or rolling sphere viscometry
Temperature, K	Viscosity, Pa*s	uncertainty
293.15	0.01326	0.00203
298.15	0.01091	0.00202
303.15	0.00909	0.00201
308.15	0.00766	0.00201
313.15	0.00652	0.00201
318.15	0.0056	0.00201
323.15	0.00485	0.002
328.15	0.00424	0.002
333.15	0.00373	0.002
338.15	0.0033	0.002
343.15	0.00294	0.002

System: trihexylammonium butanoate; phases: Liquid
Fixed: Pressure, kPa = 101.325
Property: Speed of sound, m/s (Liquid); method: Single path-length method
Temperature, K	Speed of sound, m/s	uncertainty
293.15	1345	5.4
298.15	1326.7	5.4
303.15	1308.6	5.4
308.15	1290.7	5.4
313.15	1273	5.4
318.15	1255.5	5.4
323.15	1238.1	5.4
328.15	1221	5.4
333.15	1204	5.4
338.15	1187.3	5.4
343.15	1171.3	5.4

System: trihexylammonium butanoate; phases: Liquid
Fixed: Pressure, kPa = 101.325
Property: Refractive index (Na D-line) (Liquid); method: Standard Abbe refractometry
Temperature, K	Refractive index (Na D-line)	uncertainty
293.15	1.4419	0.0014
298.15	1.44	0.0014
303.15	1.438	0.0014
308.15	1.4361	0.0014
313.15	1.4342	0.0014
318.15	1.4322	0.0014
323.15	1.4302	0.0014
328.15	1.4282	0.0014
333.15	1.4262	0.0014
338.15	1.4241	0.0014
343.15	1.4221	0.0014

System: trihexylammonium butanoate; phases: Liquid
Property: Viscosity, Pa*s (Liquid); method: Cone and plate viscometry
Temperature, K	Pressure, kPa	Viscosity, Pa*s	uncertainty
298.15	101.325	0.01152	0.00401

System: trihexylammonium hexanoate; phases: Liquid
Fixed: Pressure, kPa = 101.325
Property: Mass density, kg/m3 (Liquid); method: Vibrating tube method
Temperature, K	Mass density, kg/m3	uncertainty
293.15	849.82	4.14
298.15	846.21	4.11
303.15	842.59	4.09
308.15	838.96	4.06
313.15	835.33	4.04
318.15	831.69	4.01
323.15	828.04	3.99
328.15	824.38	3.96
333.15	820.72	3.94
338.15	817.03	3.91
343.15	813.33	3.89

System: trihexylammonium hexanoate; phases: Liquid
Fixed: Pressure, kPa = 101.325
Property: Viscosity, Pa*s (Liquid); method: Falling or rolling sphere viscometry
Temperature, K	Viscosity, Pa*s	uncertainty
293.15	0.01386	0.00203
298.15	0.01144	0.00202
303.15	0.00955	0.00202
308.15	0.00805	0.00201
313.15	0.00686	0.00201
318.15	0.0059	0.00201
323.15	0.00511	0.002
328.15	0.00448	0.002
333.15	0.00395	0.002
338.15	0.0035	0.002
343.15	0.00312	0.002

System: trihexylammonium hexanoate; phases: Liquid
Fixed: Pressure, kPa = 101.325
Property: Speed of sound, m/s (Liquid); method: Single path-length method
Temperature, K	Speed of sound, m/s	uncertainty
293.15	1353.3	5.4
298.15	1335.7	5.4
303.15	1317.8	5.4
308.15	1300.1	5.4
313.15	1282.2	5.4
318.15	1264.9	5.4
323.15	1247.7	5.4
328.15	1230.6	5.4
333.15	1213.7	5.4
338.15	1196.9	5.4
343.15	1180.3	5.4

System: trihexylammonium hexanoate; phases: Liquid
Fixed: Pressure, kPa = 101.325
Property: Refractive index (Na D-line) (Liquid); method: Standard Abbe refractometry
Temperature, K	Refractive index (Na D-line)	uncertainty
293.15	1.4432	0.0014
298.15	1.4412	0.0014
303.15	1.4395	0.0014
308.15	1.4375	0.0014
313.15	1.4355	0.0014
318.15	1.4336	0.0014
323.15	1.4315	0.0014
328.15	1.4297	0.0014
333.15	1.4278	0.0014
338.15	1.4258	0.0014
343.15	1.4238	0.0014

System: trihexylammonium hexanoate; phases: Liquid
Property: Viscosity, Pa*s (Liquid); method: Cone and plate viscometry
Temperature, K	Pressure, kPa	Viscosity, Pa*s	uncertainty
298.15	101.325	0.01253	0.00401

System: trihexylammonium octanoate; phases: Liquid
Fixed: Pressure, kPa = 101.325
Property: Mass density, kg/m3 (Liquid); method: Vibrating tube method
Temperature, K	Mass density, kg/m3	uncertainty
293.15	851.2	4.14
298.15	847.63	4.12
303.15	844.06	4.1
308.15	840.48	4.07
313.15	836.9	4.05
318.15	833.31	4.02
323.15	829.72	4
328.15	826.11	3.97
333.15	822.5	3.95
338.15	818.87	3.93
343.15	815.25	3.9

System: trihexylammonium octanoate; phases: Liquid
Fixed: Pressure, kPa = 101.325
Property: Viscosity, Pa*s (Liquid); method: Falling or rolling sphere viscometry
Temperature, K	Viscosity, Pa*s	uncertainty
293.15	0.01702	0.00205
298.15	0.01393	0.00203
303.15	0.01155	0.00202
308.15	0.00968	0.00202
313.15	0.00821	0.00201
318.15	0.00702	0.00201
323.15	0.00606	0.00201
328.15	0.00527	0.002
333.15	0.00462	0.002
338.15	0.0041	0.002
343.15	0.00365	0.002

System: trihexylammonium octanoate; phases: Liquid
Fixed: Pressure, kPa = 101.325
Property: Speed of sound, m/s (Liquid); method: Single path-length method
Temperature, K	Speed of sound, m/s	uncertainty
293.15	1365.7	5.4
298.15	1347.7	5.4
303.15	1329.8	5.4
308.15	1312.2	5.4
313.15	1294.7	5.4
318.15	1277.4	5.4
323.15	1260.2	5.4
328.15	1243.2	5.4
333.15	1226.5	5.4
338.15	1209.9	5.4
343.15	1194	5.4

System: trihexylammonium octanoate; phases: Liquid
Fixed: Pressure, kPa = 101.325
Property: Refractive index (Na D-line) (Liquid); method: Standard Abbe refractometry
Temperature, K	Refractive index (Na D-line)	uncertainty
293.15	1.4459	0.0014
298.15	1.4441	0.0014
303.15	1.4419	0.0014
308.15	1.4399	0.0014
313.15	1.4381	0.0014
318.15	1.4359	0.0014
323.15	1.4341	0.0014
328.15	1.4322	0.0014
333.15	1.4299	0.0014
338.15	1.4278	0.0014
343.15	1.4258	0.0014

System: trihexylammonium octanoate; phases: Liquid
Property: Viscosity, Pa*s (Liquid); method: Cone and plate viscometry
Temperature, K	Pressure, kPa	Viscosity, Pa*s	uncertainty
298.15	101.325	0.0159	0.00402

System: trioctylammonium butanoate; phases: Liquid
Fixed: Pressure, kPa = 101.325
Property: Mass density, kg/m3 (Liquid); method: Vibrating tube method
Temperature, K	Mass density, kg/m3	uncertainty
293.15	845.71	4.11
298.15	842.19	4.08
303.15	838.68	4.06
308.15	835.16	4.03
313.15	831.64	4.01
318.15	828.12	3.99
323.15	824.59	3.96
328.15	821.05	3.94
333.15	817.51	3.92
338.15	813.96	3.89
343.15	810.41	3.87

System: trioctylammonium butanoate; phases: Liquid
Fixed: Pressure, kPa = 101.325
Property: Viscosity, Pa*s (Liquid); method: Falling or rolling sphere viscometry
Temperature, K	Viscosity, Pa*s	uncertainty
293.15	0.01782	0.00205
298.15	0.01455	0.00204
303.15	0.01206	0.00202
308.15	0.01009	0.00202
313.15	0.00855	0.00201
318.15	0.0073	0.00201
323.15	0.0063	0.00201
328.15	0.00549	0.00201
333.15	0.00482	0.002
338.15	0.00428	0.002
343.15	0.00382	0.002

System: trioctylammonium butanoate; phases: Liquid
Fixed: Pressure, kPa = 101.325
Property: Speed of sound, m/s (Liquid); method: Single path-length method
Temperature, K	Speed of sound, m/s	uncertainty
293.15	1377.6	5.4
298.15	1359.6	5.4
303.15	1341.8	5.4
308.15	1324.2	5.4
313.15	1306.8	5.4
318.15	1289.6	5.4
323.15	1272.5	5.4
328.15	1255.6	5.4
333.15	1239	5.4
338.15	1222.5	5.4
343.15	1206.8	5.4

System: trioctylammonium butanoate; phases: Liquid
Fixed: Pressure, kPa = 101.325
Property: Refractive index (Na D-line) (Liquid); method: Standard Abbe refractometry
Temperature, K	Refractive index (Na D-line)	uncertainty
293.15	1.4474	0.0014
298.15	1.4456	0.0014
303.15	1.4437	0.0014
308.15	1.4417	0.0014
313.15	1.4395	0.0014
318.15	1.4376	0.0014
323.15	1.4356	0.0014
328.15	1.4339	0.0014
333.15	1.4319	0.0014
338.15	1.43	0.0014
343.15	1.428	0.0014

System: trioctylammonium butanoate; phases: Liquid
Property: Viscosity, Pa*s (Liquid); method: Cone and plate viscometry
Temperature, K	Pressure, kPa	Viscosity, Pa*s	uncertainty
298.15	101.325	0.01603	0.00402

System: trioctylammonium hexanoate; phases: Liquid
Fixed: Pressure, kPa = 101.325
Property: Mass density, kg/m3 (Liquid); method: Vibrating tube method
Temperature, K	Mass density, kg/m3	uncertainty
293.15	848.02	4.12
298.15	844.54	4.1
303.15	841.06	4.07
308.15	837.58	4.05
313.15	834.1	4.03
318.15	830.61	4
323.15	827.12	3.98
328.15	823.62	3.96
333.15	820.12	3.93
338.15	816.62	3.91
343.15	813.12	3.89

System: trioctylammonium hexanoate; phases: Liquid
Fixed: Pressure, kPa = 101.325
Property: Viscosity, Pa*s (Liquid); method: Falling or rolling sphere viscometry
Temperature, K	Viscosity, Pa*s	uncertainty
293.15	0.02058	0.00207
298.15	0.01672	0.00205
303.15	0.01376	0.00203
308.15	0.01147	0.00202
313.15	0.00964	0.00202
318.15	0.00819	0.00201
323.15	0.00704	0.00201
328.15	0.00609	0.00201
333.15	0.00532	0.002
338.15	0.00467	0.002
343.15	0.00414	0.002

System: trioctylammonium hexanoate; phases: Liquid
Fixed: Pressure, kPa = 101.325
Property: Speed of sound, m/s (Liquid); method: Single path-length method
Temperature, K	Speed of sound, m/s	uncertainty
293.15	1384	5.4
298.15	1366.2	5.4
303.15	1348.5	5.4
308.15	1331	5.4
313.15	1313.8	5.4
318.15	1296.6	5.4
323.15	1279.7	5.4
328.15	1262.9	5.4
333.15	1246.4	5.4
338.15	1230.1	5.4
343.15	1214.5	5.4

System: trioctylammonium hexanoate; phases: Liquid
Fixed: Pressure, kPa = 101.325
Property: Refractive index (Na D-line) (Liquid); method: Standard Abbe refractometry
Temperature, K	Refractive index (Na D-line)	uncertainty
293.15	1.4489	0.0014
298.15	1.4469	0.0014
303.15	1.4451	0.0014
308.15	1.4432	0.0014
313.15	1.4413	0.0014
318.15	1.4394	0.0014
323.15	1.4375	0.0014
328.15	1.4353	0.0014
333.15	1.4336	0.0014
338.15	1.4316	0.0014
343.15	1.4294	0.0014

System: trioctylammonium hexanoate; phases: Liquid
Property: Viscosity, Pa*s (Liquid); method: Cone and plate viscometry
Temperature, K	Pressure, kPa	Viscosity, Pa*s	uncertainty
298.15	101.325	0.02059	0.00404

System: trioctylammonium octanoate; phases: Liquid
Fixed: Pressure, kPa = 101.325
Property: Mass density, kg/m3 (Liquid); method: Vibrating tube method
Temperature, K	Mass density, kg/m3	uncertainty
293.15	849.68	4.13
298.15	846.22	4.11
303.15	842.77	4.09
308.15	839.31	4.06
313.15	835.85	4.04
318.15	832.38	4.02
323.15	828.91	3.99
328.15	825.44	3.97
333.15	821.95	3.95
338.15	818.47	3.92
343.15	815.03	3.9

System: trioctylammonium octanoate; phases: Liquid
Fixed: Pressure, kPa = 101.325
Property: Viscosity, Pa*s (Liquid); method: Falling or rolling sphere viscometry
Temperature, K	Viscosity, Pa*s	uncertainty
293.15	0.02502	0.0021
298.15	0.0203	0.00207
303.15	0.01663	0.00205
308.15	0.01385	0.00203
313.15	0.0116	0.00202
318.15	0.00984	0.00202
323.15	0.00838	0.00201
328.15	0.00726	0.00201
333.15	0.00633	0.00201
338.15	0.00554	0.00201
343.15	0.00492	0.002

System: trioctylammonium octanoate; phases: Liquid
Fixed: Pressure, kPa = 101.325
Property: Speed of sound, m/s (Liquid); method: Single path-length method
Temperature, K	Speed of sound, m/s	uncertainty
293.15	1393.14	5.39
298.15	1375.28	5.39
303.15	1357.63	5.39
308.15	1340.1	5.4
313.15	1322.8	5.4
318.15	1305.7	5.4
323.15	1288.8	5.4
328.15	1272	5.4
333.15	1255.5	5.4
338.15	1239.2	5.4
343.15	1223.7	5.4

System: trioctylammonium octanoate; phases: Liquid
Fixed: Pressure, kPa = 101.325
Property: Refractive index (Na D-line) (Liquid); method: Standard Abbe refractometry
Temperature, K	Refractive index (Na D-line)	uncertainty
293.15	1.4505	0.0014
298.15	1.4484	0.0014
303.15	1.4464	0.0014
308.15	1.4447	0.0014
313.15	1.4426	0.0014
318.15	1.4406	0.0014
323.15	1.4389	0.0014
328.15	1.4369	0.0014
333.15	1.4348	0.0014
338.15	1.4329	0.0014
343.15	1.4309	0.0014

System: trioctylammonium octanoate; phases: Liquid
Property: Viscosity, Pa*s (Liquid); method: Cone and plate viscometry
Temperature, K	Pressure, kPa	Viscosity, Pa*s	uncertainty
298.15	101.325	0.02507	0.00408

System: trioctylammonium hexanoate + water; phases: Liquid
Fixed: Pressure, kPa = 100
Fixed: Temperature, K = 298.15
Property: Mass density, kg/m3 (Liquid); method: Vibrating tube method
Mass fraction of water	Mass density, kg/m3	uncertainty
0.00078	844.54	2.09
0.001285	844.88	2.09
0.002315	845.44	2.09
0.003128	845.81	2.09

System: trioctylammonium hexanoate + water; phases: Liquid
Fixed: Pressure, kPa = 100
Fixed: Temperature, K = 298.15
Fixed: Frequency, MHz = 3
Property: Speed of sound, m/s (Liquid); method: Single path-length method
Mass fraction of water	Speed of sound, m/s	uncertainty
0.00078	1366.2	2.8
0.001285	1366.9	2.8
0.002315	1367.8	2.8
0.003128	1368.8	2.8

System: trioctylammonium hexanoate + water; phases: Liquid
Fixed: Pressure, kPa = 100
Fixed: Temperature, K = 298.15
Property: Viscosity, Pa*s (Liquid); method: Falling or rolling sphere viscometry
Mass fraction of water	Viscosity, Pa*s	uncertainty
0.00078	0.01672	0.00201
0.001285	0.01589	0.00201
0.002315	0.01449	0.00201
0.003128	0.01368	0.00201

System: trioctylammonium hexanoate + water; phases: Liquid
Fixed: Pressure, kPa = 100
Fixed: Temperature, K = 298.15
Property: Refractive index (Na D-line) (Liquid); method: Standard Abbe refractometry
Mass fraction of water	Refractive index (Na D-line)	uncertainty
0.00078	1.4469	0.0011
0.001301	1.4465	0.0011
0.002627	1.4458	0.0011
0.003049	1.4455	0.0011
