Measured thermophysical data. Thermophysical properties of binary mixtures of 1-butyl-1-methylpyrrolidinium trifluoromethanesulfonate ionic liquid with alcohols at several temperatures
Source: J. Chem. Thermodyn., 2018, 10.1016/j.jct.2017.12.009
Compound 1: 1-butyl-1-methylpyrrolidinium trifluoromethanesulfonate, C10H20F3NO3S, InChI=1S/C9H20N.CHF3O3S/c1-3-4-7-10(2)8-5-6-9-10;2-1(3,4)8(5,6)7/h3-9H2,1-2H3;(H,5,6,7)/q+1;/p-1, purity 99%
Compound 2: methanol, CH4O, InChI=1S/CH4O/c1-2/h2H,1H3, purity 99.8%
Compound 3: ethanol, C2H6O, InChI=1S/C2H6O/c1-2-3/h3H,2H2,1H3, purity 99.9%
Compound 4: propan-1-ol, C3H8O, InChI=1S/C3H8O/c1-2-3-4/h4H,2-3H2,1H3, purity 99.5%
Compound 5: propan-2-ol, C3H8O, InChI=1S/C3H8O/c1-3(2)4/h3-4H,1-2H3, purity 99.8%

System: 1-butyl-1-methylpyrrolidinium trifluoromethanesulfonate; phases: Liquid
Fixed: Pressure, kPa = 101.325
Property: Mass density, kg/m3 (Liquid); method: Vibrating tube method
Temperature, K	Mass density, kg/m3	uncertainty
278.15	1267.1	0.6
288.15	1259.6	0.6
298.15	1252.1	0.6
308.15	1245	0.6
318.15	1237.8	0.6
328.15	1230.7	0.6
338.15	1223.7	0.6

System: 1-butyl-1-methylpyrrolidinium trifluoromethanesulfonate; phases: Liquid
Fixed: Pressure, kPa = 101.325
Property: Speed of sound, m/s (Liquid); method: Single path-length method
Temperature, K	Speed of sound, m/s	uncertainty
278.15	1513	2
288.15	1486	2
298.15	1461	2
308.15	1438	2
318.15	1415	2
328.15	1393	2
338.15	1371	2

System: 1-butyl-1-methylpyrrolidinium trifluoromethanesulfonate; phases: Liquid
Fixed: Pressure, kPa = 101.325
Property: Refractive index (Na D-line) (Liquid); method: Standard Abbe refractometry
Temperature, K	Refractive index (Na D-line)	uncertainty
288.15	1.4355	0.0005
298.15	1.4328	0.0005
308.15	1.4301	0.0005
318.15	1.4274	0.0005
328.15	1.4247	0.0005
338.15	1.4221	0.0005
288.15	1.4353	0.0005
298.15	1.4327	0.0005
308.15	1.43	0.0005
318.15	1.4275	0.0005
328.15	1.4248	0.0005
338.15	1.4222	0.0005

System: methanol; phases: Liquid
Fixed: Pressure, kPa = 101.325
Property: Mass density, kg/m3 (Liquid); method: Vibrating tube method
Temperature, K	Mass density, kg/m3	uncertainty
278.15	805.1	0.4
288.15	795.7	0.4
298.15	786.3	0.4
308.15	776.9	0.4
318.15	767.4	0.4

System: methanol; phases: Liquid
Fixed: Pressure, kPa = 101.325
Property: Speed of sound, m/s (Liquid); method: Single path-length method
Temperature, K	Speed of sound, m/s	uncertainty
278.15	1169	2
288.15	1135	2
298.15	1102	2
308.15	1069	2
318.15	1038	2

System: methanol; phases: Liquid
Fixed: Pressure, kPa = 101.325
Property: Refractive index (Na D-line) (Liquid); method: Standard Abbe refractometry
Temperature, K	Refractive index (Na D-line)	uncertainty
288.15	1.3308	0.0005
298.15	1.3265	0.0005
308.15	1.3223	0.0005
318.15	1.318	0.0005

System: ethanol; phases: Liquid
Fixed: Pressure, kPa = 101.325
Property: Mass density, kg/m3 (Liquid); method: Vibrating tube method
Temperature, K	Mass density, kg/m3	uncertainty
278.15	802.1	0.4
288.15	793.7	0.4
298.15	785.1	0.4
308.15	776.4	0.4
318.15	767.6	0.4
328.15	758.6	0.4

System: ethanol; phases: Liquid
Fixed: Pressure, kPa = 101.325
Property: Speed of sound, m/s (Liquid); method: Single path-length method
Temperature, K	Speed of sound, m/s	uncertainty
278.15	1213	2
288.15	1177	2
298.15	1143	2
308.15	1109	2
318.15	1076	2
328.15	1043	2

System: ethanol; phases: Liquid
Fixed: Pressure, kPa = 101.325
Property: Refractive index (Na D-line) (Liquid); method: Standard Abbe refractometry
Temperature, K	Refractive index (Na D-line)	uncertainty
288.15	1.3638	0.0005
298.15	1.3594	0.0005
308.15	1.3551	0.0005
318.15	1.3508	0.0005
328.15	1.3465	0.0005

System: propan-1-ol; phases: Liquid
Fixed: Pressure, kPa = 101.325
Property: Mass density, kg/m3 (Liquid); method: Vibrating tube method
Temperature, K	Mass density, kg/m3	uncertainty
278.15	815.6	0.4
288.15	807.7	0.4
298.15	799.7	0.4
308.15	791.6	0.4
318.15	783.3	0.4
328.15	774.9	0.4
338.15	766.2	0.4

System: propan-1-ol; phases: Liquid
Fixed: Pressure, kPa = 101.325
Property: Speed of sound, m/s (Liquid); method: Single path-length method
Temperature, K	Speed of sound, m/s	uncertainty
278.15	1275	2
288.15	1240	2
298.15	1205	2
308.15	1171	2
318.15	1138	2
328.15	1104	2
338.15	1071	2

System: propan-1-ol; phases: Liquid
Fixed: Pressure, kPa = 101.325
Property: Refractive index (Na D-line) (Liquid); method: Standard Abbe refractometry
Temperature, K	Refractive index (Na D-line)	uncertainty
288.15	1.3874	0.0005
298.15	1.3832	0.0005
308.15	1.379	0.0005
318.15	1.3746	0.0005
328.15	1.3702	0.0005
338.15	1.3657	0.0005

System: propan-2-ol; phases: Liquid
Fixed: Pressure, kPa = 101.325
Property: Mass density, kg/m3 (Liquid); method: Vibrating tube method
Temperature, K	Mass density, kg/m3	uncertainty
278.15	797.5	0.4
288.15	789.4	0.4
298.15	781	0.4
308.15	772.4	0.4
318.15	763.4	0.4
328.15	754.1	0.4

System: propan-2-ol; phases: Liquid
Fixed: Pressure, kPa = 101.325
Property: Speed of sound, m/s (Liquid); method: Single path-length method
Temperature, K	Speed of sound, m/s	uncertainty
278.15	1208	2
288.15	1173	2
298.15	1138	2
308.15	1103	2
318.15	1068	2
328.15	1033	2

System: propan-2-ol; phases: Liquid
Fixed: Pressure, kPa = 101.325
Property: Refractive index (Na D-line) (Liquid); method: Standard Abbe refractometry
Temperature, K	Refractive index (Na D-line)	uncertainty
288.15	1.3794	0.0005
298.15	1.375	0.0005
308.15	1.3706	0.0005
318.15	1.366	0.0005
328.15	1.3612	0.0005
338.15	1.3562	0.0005

System: 1-butyl-1-methylpyrrolidinium trifluoromethanesulfonate + methanol; phases: Liquid
Fixed: Pressure, kPa = 101
Property: Mass density, kg/m3 (Liquid); method: Vibrating tube method
Temperature, K	Mole fraction of 1-butyl-1-methylpyrrolidinium trifluoromethanesulfonate	Mass density, kg/m3	uncertainty
278.15	0	805.1	0.4
278.15	0.0501	918.3	1
278.15	0.1004	992.5	0.8
278.15	0.1503	1045	0.6
278.15	0.2002	1084.2	0.5
278.15	0.3002	1138.8	0.5
278.15	0.3996	1175.4	0.5
278.15	0.4998	1201.5	0.5
278.15	0.6006	1221.3	0.5
278.15	0.7015	1236.3	0.5
278.15	0.8013	1248.6	0.5
278.15	0.8427	1253	0.5
278.15	0.9008	1258.5	0.5
278.15	0.9514	1262.9	0.6
278.15	1	1267.1	0.6
288.15	0	795.7	0.4
288.15	0.0501	909.3	1
288.15	0.1004	983.8	0.8
288.15	0.1503	1036.5	0.6
288.15	0.2002	1075.9	0.5
288.15	0.3002	1130.8	0.5
288.15	0.3996	1167.5	0.5
288.15	0.4998	1193.8	0.5
288.15	0.6006	1213.6	0.5
288.15	0.7015	1228.8	0.5
288.15	0.8013	1241.2	0.5
288.15	0.8427	1245.6	0.5
288.15	0.9008	1251	0.5
288.15	0.9514	1255.3	0.6
288.15	1	1259.6	0.6
298.15	0	786.3	0.4
298.15	0.0501	900.3	1
298.15	0.1004	975.2	0.8
298.15	0.1503	1028.1	0.6
298.15	0.2002	1067.6	0.5
298.15	0.3002	1122.8	0.5
298.15	0.3996	1159.7	0.5
298.15	0.4998	1186.1	0.5
298.15	0.6006	1206.1	0.5
298.15	0.7015	1221.4	0.5
298.15	0.8013	1233.8	0.5
298.15	0.8427	1238.2	0.5
298.15	0.9008	1243.7	0.5
298.15	0.9514	1248	0.6
298.15	1	1252.1	0.6
308.15	0	776.9	0.4
308.15	0.0501	891.4	1
308.15	0.1004	966.6	0.8
308.15	0.1503	1019.7	0.6
308.15	0.2002	1059.4	0.5
308.15	0.3002	1114.8	0.5
308.15	0.3996	1151.9	0.5
308.15	0.4998	1178.5	0.5
308.15	0.6006	1198.5	0.5
308.15	0.7015	1213.9	0.5
308.15	0.8013	1226.5	0.5
308.15	0.8427	1230.9	0.5
308.15	0.9008	1236.4	0.5
308.15	0.9514	1240.8	0.5
308.15	1	1245	0.6
318.15	0	767.4	0.4
318.15	0.0501	882.4	1
318.15	0.1004	957.9	0.8
318.15	0.1503	1011.3	0.6
318.15	0.2002	1051.2	0.5
318.15	0.3002	1106.9	0.5
318.15	0.3996	1144.2	0.5
318.15	0.4998	1170.9	0.5
318.15	0.6006	1191	0.5
318.15	0.7015	1206.6	0.5
318.15	0.8013	1219.2	0.5
318.15	0.8427	1223.6	0.5
318.15	0.9008	1229.2	0.5
318.15	0.9514	1233.6	0.5
318.15	1	1237.8	0.6

System: 1-butyl-1-methylpyrrolidinium trifluoromethanesulfonate + methanol; phases: Liquid
Fixed: Pressure, kPa = 101
Fixed: Frequency, MHz = 3
Property: Speed of sound, m/s (Liquid); method: Single path-length method
Temperature, K	Mole fraction of 1-butyl-1-methylpyrrolidinium trifluoromethanesulfonate	Speed of sound, m/s	uncertainty
278.15	0	1169	2
278.15	0.0501	1228	2
278.15	0.1004	1274	2
278.15	0.1503	1311	2
278.15	0.2002	1342	2
278.15	0.3002	1389	2
278.15	0.3996	1421	2
278.15	0.4998	1445	2
278.15	0.6006	1463	2
278.15	0.7015	1478	2
278.15	0.8013	1490	2
278.15	0.8427	1495	2
278.15	0.9008	1501	2
278.15	0.9514	1506	2
278.15	1	1513	2
288.15	0	1135	2
288.15	0.0501	1198	2
288.15	0.1004	1246	2
288.15	0.1503	1284	2
288.15	0.2002	1316	2
288.15	0.3002	1363	2
288.15	0.3996	1396	2
288.15	0.4998	1420	2
288.15	0.6006	1439	2
288.15	0.7015	1453	2
288.15	0.8013	1465	2
288.15	0.8427	1470	2
288.15	0.9008	1476	2
288.15	0.9514	1480	2
288.15	1	1486	2
298.15	0	1102	2
298.15	0.0501	1168	2
298.15	0.1004	1218	2
298.15	0.1503	1257	2
298.15	0.2002	1290	2
298.15	0.3002	1338	2
298.15	0.3996	1371	2
298.15	0.4998	1396	2
298.15	0.6006	1415	2
298.15	0.7015	1429	2
298.15	0.8013	1442	2
298.15	0.8427	1446	2
298.15	0.9008	1452	2
298.15	0.9514	1456	2
298.15	1	1461	2
308.15	0	1069	2
308.15	0.0501	1138	2
308.15	0.1004	1190	2
308.15	0.1503	1231	2
308.15	0.2002	1264	2
308.15	0.3002	1313	2
308.15	0.3996	1347	2
308.15	0.4998	1372	2
308.15	0.6006	1391	2
308.15	0.7015	1406	2
308.15	0.8013	1418	2
308.15	0.8427	1423	2
308.15	0.9008	1429	2
308.15	0.9514	1433	2
308.15	1	1438	2
318.15	0	1038	2
318.15	0.0501	1110	2
318.15	0.1004	1163	2
318.15	0.1503	1205	2
318.15	0.2002	1239	2
318.15	0.3002	1289	2
318.15	0.3996	1324	2
318.15	0.4998	1349	2
318.15	0.6006	1368	2
318.15	0.7015	1383	2
318.15	0.8013	1396	2
318.15	0.8427	1400	2
318.15	0.9008	1406	2
318.15	0.9514	1411	2
318.15	1	1415	2

System: 1-butyl-1-methylpyrrolidinium trifluoromethanesulfonate + methanol; phases: Liquid
Fixed: Pressure, kPa = 101
Property: Refractive index (Na D-line) (Liquid); method: Standard Abbe refractometry
Temperature, K	Mole fraction of 1-butyl-1-methylpyrrolidinium trifluoromethanesulfonate	Refractive index (Na D-line)	uncertainty
288.15	0	1.3308	0.0005
288.15	0.0139	1.3396	0.0006
288.15	0.0299	1.3482	0.0006
288.15	0.0501	1.3574	0.0005
288.15	0.0693	1.3647	0.0005
288.15	0.1001	1.3744	0.0005
288.15	0.15	1.3863	0.0005
288.15	0.2002	1.3952	0.0005
288.15	0.2975	1.4071	0.0005
288.15	0.3978	1.4153	0.0005
288.15	0.5057	1.4214	0.0005
288.15	0.5988	1.4254	0.0005
288.15	0.7046	1.4289	0.0005
288.15	0.8005	1.4315	0.0005
288.15	0.8507	1.4326	0.0005
288.15	0.897	1.4336	0.0005
288.15	0.9521	1.4347	0.0005
288.15	1	1.4355	0.0005
298.15	0	1.3265	0.0005
298.15	0.0139	1.3354	0.0006
298.15	0.0299	1.3441	0.0006
298.15	0.0501	1.3534	0.0005
298.15	0.0693	1.3609	0.0005
298.15	0.1001	1.3707	0.0005
298.15	0.15	1.3828	0.0005
298.15	0.2002	1.3918	0.0005
298.15	0.2975	1.4039	0.0005
298.15	0.3978	1.4122	0.0005
298.15	0.5057	1.4185	0.0005
298.15	0.5988	1.4225	0.0005
298.15	0.7046	1.4261	0.0005
298.15	0.8005	1.4287	0.0005
298.15	0.8507	1.4299	0.0005
298.15	0.897	1.4309	0.0005
298.15	0.9521	1.4319	0.0005
298.15	1	1.4328	0.0005
308.15	0	1.3223	0.0005
308.15	0.0139	1.3315	0.0006
308.15	0.0299	1.3406	0.0006
308.15	0.0501	1.3501	0.0005
308.15	0.0693	1.3577	0.0005
308.15	0.1001	1.3676	0.0005
308.15	0.15	1.3796	0.0005
308.15	0.2002	1.3886	0.0005
308.15	0.2975	1.4008	0.0005
308.15	0.3978	1.4091	0.0005
308.15	0.5057	1.4155	0.0005
308.15	0.5988	1.4196	0.0005
308.15	0.7046	1.4233	0.0005
308.15	0.8005	1.4259	0.0005
308.15	0.8507	1.4271	0.0005
308.15	0.897	1.4282	0.0005
308.15	0.9521	1.4293	0.0005
308.15	1	1.4301	0.0005
318.15	0	1.318	0.0005
318.15	0.0139	1.3278	0.0006
318.15	0.0299	1.3372	0.0006
318.15	0.0501	1.347	0.0005
318.15	0.0693	1.3548	0.0005
318.15	0.1001	1.3648	0.0005
318.15	0.15	1.3769	0.0005
318.15	0.2002	1.3858	0.0005
318.15	0.2975	1.3979	0.0005
318.15	0.3978	1.4062	0.0005
318.15	0.5057	1.4126	0.0005
318.15	0.5988	1.4167	0.0005
318.15	0.7046	1.4204	0.0005
318.15	0.8005	1.4231	0.0005
318.15	0.8507	1.4244	0.0005
318.15	0.897	1.4254	0.0005
318.15	0.9521	1.4265	0.0005
318.15	1	1.4274	0.0005

System: 1-butyl-1-methylpyrrolidinium trifluoromethanesulfonate + ethanol; phases: Liquid
Fixed: Pressure, kPa = 101
Property: Mass density, kg/m3 (Liquid); method: Vibrating tube method
Temperature, K	Mole fraction of 1-butyl-1-methylpyrrolidinium trifluoromethanesulfonate	Mass density, kg/m3	uncertainty
278.15	0	802.1	0.4
278.15	0.0502	886.5	0.8
278.15	0.1001	949.4	0.7
278.15	0.1512	1000.3	0.6
278.15	0.1999	1039.1	0.5
278.15	0.3003	1099.8	0.5
278.15	0.3997	1143.2	0.5
278.15	0.5007	1176.6	0.5
278.15	0.6009	1202.4	0.5
278.15	0.7979	1239.9	0.5
278.15	0.8502	1247.9	0.5
278.15	0.9027	1255.2	0.5
278.15	0.9506	1261.3	0.6
278.15	1	1267.1	0.6
288.15	0	793.7	0.4
288.15	0.0502	878.1	0.8
288.15	0.1001	941.1	0.7
288.15	0.1512	992.2	0.6
288.15	0.1999	1031	0.5
288.15	0.3003	1091.8	0.5
288.15	0.3997	1135.4	0.5
288.15	0.5007	1168.9	0.5
288.15	0.6009	1194.9	0.5
288.15	0.7979	1232.5	0.5
288.15	0.8502	1240.4	0.5
288.15	0.9027	1247.6	0.5
288.15	0.9506	1253.8	0.6
288.15	1	1259.6	0.6
298.15	0	785.1	0.4
298.15	0.0502	869.7	0.8
298.15	0.1001	932.8	0.7
298.15	0.1512	984	0.6
298.15	0.1999	1023	0.5
298.15	0.3003	1083.9	0.5
298.15	0.3997	1127.6	0.5
298.15	0.5007	1161.2	0.5
298.15	0.6009	1187.3	0.5
298.15	0.7979	1225.1	0.5
298.15	0.8502	1233.1	0.5
298.15	0.9027	1240.3	0.5
298.15	0.9506	1246.4	0.6
298.15	1	1252.1	0.6
308.15	0	776.4	0.4
308.15	0.0502	861.3	0.8
308.15	0.1001	924.5	0.7
308.15	0.1512	975.8	0.6
308.15	0.1999	1014.9	0.5
308.15	0.3003	1076	0.5
308.15	0.3997	1119.9	0.5
308.15	0.5007	1153.6	0.5
308.15	0.6009	1179.8	0.5
308.15	0.7979	1217.8	0.5
308.15	0.8502	1225.8	0.5
308.15	0.9027	1233	0.5
308.15	0.9506	1239.2	0.5
308.15	1	1245	0.6
318.15	0	767.6	0.4
318.15	0.0502	852.7	0.8
318.15	0.1001	916.1	0.7
318.15	0.1512	967.6	0.6
318.15	0.1999	1006.8	0.5
318.15	0.3003	1068.2	0.5
318.15	0.3997	1112.1	0.5
318.15	0.5007	1146.1	0.5
318.15	0.6009	1172.4	0.5
318.15	0.7979	1210.5	0.5
318.15	0.8502	1218.5	0.5
318.15	0.9027	1225.8	0.5
318.15	0.9506	1232	0.5
318.15	1	1237.8	0.6
328.15	0	758.6	0.4
328.15	0.0502	844.1	0.9
328.15	0.1001	907.7	0.7
328.15	0.1512	959.3	0.6
328.15	0.1999	998.7	0.5
328.15	0.3003	1060.3	0.5
328.15	0.3997	1104.5	0.5
328.15	0.5007	1138.5	0.5
328.15	0.6009	1165	0.5
328.15	0.7979	1203.2	0.5
328.15	0.8502	1211.3	0.5
328.15	0.9027	1218.6	0.5
328.15	0.9506	1224.8	0.5
328.15	1	1230.7	0.6

System: 1-butyl-1-methylpyrrolidinium trifluoromethanesulfonate + ethanol; phases: Liquid
Fixed: Pressure, kPa = 101
Fixed: Frequency, MHz = 3
Property: Speed of sound, m/s (Liquid); method: Single path-length method
Temperature, K	Mole fraction of 1-butyl-1-methylpyrrolidinium trifluoromethanesulfonate	Speed of sound, m/s	uncertainty
278.15	0	1213	2
278.15	0.0502	1244	2
278.15	0.1001	1273	2
278.15	0.1512	1299	2
278.15	0.1999	1323	2
278.15	0.3003	1365	2
278.15	0.3997	1399	2
278.15	0.5007	1427	2
278.15	0.6009	1449	2
278.15	0.7979	1485	2
278.15	0.8502	1491	2
278.15	0.9027	1499	2
278.15	0.9506	1506	2
278.15	1	1513	2
288.15	0	1177	2
288.15	0.0502	1211	2
288.15	0.1001	1242	2
288.15	0.1512	1270	2
288.15	0.1999	1295	2
288.15	0.3003	1338	2
288.15	0.3997	1373	2
288.15	0.5007	1402	2
288.15	0.6009	1423	2
288.15	0.7979	1459	2
288.15	0.8502	1466	2
288.15	0.9027	1473	2
288.15	0.9506	1480	2
288.15	1	1486	2
298.15	0	1143	2
298.15	0.0502	1180	2
298.15	0.1001	1212	2
298.15	0.1512	1242	2
298.15	0.1999	1267	2
298.15	0.3003	1312	2
298.15	0.3997	1348	2
298.15	0.5007	1376	2
298.15	0.6009	1399	2
298.15	0.7979	1425	2
298.15	0.8502	1442	2
298.15	0.9027	1449	2
298.15	0.9506	1455	2
298.15	1	1461	2
308.15	0	1109	2
308.15	0.0502	1148	2
308.15	0.1001	1183	2
308.15	0.1512	1214	2
308.15	0.1999	1240	2
308.15	0.3003	1286	2
308.15	0.3997	1323	2
308.15	0.5007	1352	2
308.15	0.6009	1375	2
308.15	0.7979	1411	2
308.15	0.8502	1418	2
308.15	0.9027	1426	2
308.15	0.9506	1432	2
308.15	1	1438	2
318.15	0	1076	2
318.15	0.0502	1118	2
318.15	0.1001	1154	2
318.15	0.1512	1186	2
318.15	0.1999	1214	2
318.15	0.3003	1261	2
318.15	0.3997	1298	2
318.15	0.5007	1328	2
318.15	0.6009	1351	2
318.15	0.7979	1388	2
318.15	0.8502	1395	2
318.15	0.9027	1403	2
318.15	0.9506	1409	2
318.15	1	1415	2
328.15	0	1043	2
328.15	0.0502	1088	2
328.15	0.1001	1126	2
328.15	0.1512	1159	2
328.15	0.1999	1188	2
328.15	0.3003	1236	2
328.15	0.3997	1274	2
328.15	0.5007	1304	2
328.15	0.6009	1328	2
328.15	0.7979	1365	2
328.15	0.8502	1373	2
328.15	0.9027	1381	2
328.15	0.9506	1387	2
328.15	1	1393	2

System: 1-butyl-1-methylpyrrolidinium trifluoromethanesulfonate + ethanol; phases: Liquid
Fixed: Pressure, kPa = 101
Property: Refractive index (Na D-line) (Liquid); method: Standard Abbe refractometry
Temperature, K	Mole fraction of 1-butyl-1-methylpyrrolidinium trifluoromethanesulfonate	Refractive index (Na D-line)	uncertainty
288.15	0	1.3638	0.0005
288.15	0.02	1.3702	0.0005
288.15	0.0497	1.3776	0.0005
288.15	0.066	1.3812	0.0005
288.15	0.1001	1.3877	0.0005
288.15	0.1499	1.3954	0.0005
288.15	0.1993	1.4015	0.0005
288.15	0.3003	1.4108	0.0005
288.15	0.401	1.4174	0.0005
288.15	0.4998	1.4222	0.0005
288.15	0.5979	1.426	0.0005
288.15	0.7035	1.4292	0.0005
288.15	0.798	1.4315	0.0005
288.15	0.8488	1.4326	0.0005
288.15	0.8997	1.4336	0.0005
288.15	0.9477	1.4345	0.0005
288.15	1	1.4353	0.0005
298.15	0	1.3594	0.0005
298.15	0.02	1.3657	0.0005
298.15	0.0497	1.3736	0.0005
298.15	0.066	1.3773	0.0005
298.15	0.1001	1.3841	0.0005
298.15	0.1499	1.392	0.0005
298.15	0.1993	1.3982	0.0005
298.15	0.3003	1.4076	0.0005
298.15	0.401	1.4142	0.0005
298.15	0.4998	1.4191	0.0005
298.15	0.5979	1.4229	0.0005
298.15	0.7035	1.4262	0.0005
298.15	0.798	1.4286	0.0005
298.15	0.8488	1.4298	0.0005
298.15	0.8997	1.4308	0.0005
298.15	0.9477	1.4318	0.0005
298.15	1	1.4327	0.0005
308.15	0	1.3551	0.0005
308.15	0.02	1.3617	0.0005
308.15	0.0497	1.3699	0.0005
308.15	0.066	1.3737	0.0005
308.15	0.1001	1.3807	0.0005
308.15	0.1499	1.3887	0.0005
308.15	0.1993	1.395	0.0005
308.15	0.3003	1.4045	0.0005
308.15	0.401	1.4112	0.0005
308.15	0.4998	1.4162	0.0005
308.15	0.5979	1.4201	0.0005
308.15	0.7035	1.4234	0.0005
308.15	0.798	1.4259	0.0005
308.15	0.8488	1.427	0.0005
308.15	0.8997	1.4281	0.0005
308.15	0.9477	1.4291	0.0005
308.15	1	1.43	0.0005
318.15	0	1.3508	0.0005
318.15	0.02	1.3578	0.0005
318.15	0.0497	1.3665	0.0005
318.15	0.066	1.3704	0.0005
318.15	0.1001	1.3775	0.0005
318.15	0.1499	1.3857	0.0005
318.15	0.1993	1.392	0.0005
318.15	0.3003	1.4014	0.0005
318.15	0.401	1.4081	0.0005
318.15	0.4998	1.4132	0.0005
318.15	0.5979	1.4171	0.0005
318.15	0.7035	1.4205	0.0005
318.15	0.798	1.4231	0.0005
318.15	0.8488	1.4243	0.0005
318.15	0.8997	1.4254	0.0005
318.15	0.9477	1.4264	0.0005
318.15	1	1.4274	0.0005
328.15	0	1.3465	0.0005
328.15	0.02	1.354	0.0005
328.15	0.0497	1.363	0.0005
328.15	0.066	1.3671	0.0005
328.15	0.1001	1.3744	0.0005
328.15	0.1499	1.3827	0.0005
328.15	0.1993	1.389	0.0005
328.15	0.3003	1.3985	0.0005
328.15	0.401	1.4052	0.0005
328.15	0.4998	1.4102	0.0005
328.15	0.5979	1.4142	0.0005
328.15	0.7035	1.4177	0.0005
328.15	0.798	1.4203	0.0005
328.15	0.8488	1.4215	0.0005
328.15	0.8997	1.4227	0.0005
328.15	0.9477	1.4237	0.0005
328.15	1	1.4247	0.0005

System: 1-butyl-1-methylpyrrolidinium trifluoromethanesulfonate + propan-1-ol; phases: Liquid
Fixed: Pressure, kPa = 101
Property: Mass density, kg/m3 (Liquid); method: Vibrating tube method
Temperature, K	Mole fraction of 1-butyl-1-methylpyrrolidinium trifluoromethanesulfonate	Mass density, kg/m3	uncertainty
278.15	0	815.6	0.4
278.15	0.0498	880.4	0.7
278.15	0.1003	934	0.6
278.15	0.1501	977.9	0.6
278.15	0.1998	1015.2	0.5
278.15	0.3004	1075.8	0.5
278.15	0.4013	1122.3	0.5
278.15	0.5002	1158.6	0.5
278.15	0.5991	1188	0.5
278.15	0.7006	1213.1	0.5
278.15	0.8	1233.8	0.5
278.15	0.8511	1243.2	0.5
278.15	0.8992	1251.6	0.6
278.15	0.9496	1259.7	0.6
278.15	1	1267.1	0.6
288.15	0	807.7	0.4
288.15	0.0498	872.5	0.7
288.15	0.1003	926	0.6
288.15	0.1501	970	0.6
288.15	0.1998	1007.3	0.5
288.15	0.3004	1067.9	0.5
288.15	0.4013	1114.6	0.5
288.15	0.5002	1150.9	0.5
288.15	0.5991	1180.4	0.5
288.15	0.7006	1205.6	0.5
288.15	0.8	1226.4	0.5
288.15	0.8511	1235.7	0.5
288.15	0.8992	1244.1	0.6
288.15	0.9496	1252.2	0.6
288.15	1	1259.6	0.6
298.15	0	799.7	0.4
298.15	0.0498	864.6	0.7
298.15	0.1003	918.1	0.6
298.15	0.1501	962.1	0.6
298.15	0.1998	999.4	0.5
298.15	0.3004	1060.2	0.5
298.15	0.4013	1106.9	0.5
298.15	0.5002	1143.3	0.5
298.15	0.5991	1172.9	0.5
298.15	0.7006	1198.2	0.5
298.15	0.8	1219	0.5
298.15	0.8511	1228.4	0.5
298.15	0.8992	1236.8	0.5
298.15	0.9496	1244.8	0.6
298.15	1	1252.1	0.6
308.15	0	791.6	0.4
308.15	0.0498	856.5	0.7
308.15	0.1003	910.1	0.6
308.15	0.1501	954.2	0.6
308.15	0.1998	991.5	0.5
308.15	0.3004	1052.4	0.5
308.15	0.4013	1099.2	0.5
308.15	0.5002	1135.8	0.5
308.15	0.5991	1165.4	0.5
308.15	0.7006	1190.8	0.5
308.15	0.8	1211.7	0.5
308.15	0.8511	1221.1	0.5
308.15	0.8992	1229.5	0.5
308.15	0.9496	1237.6	0.6
308.15	1	1245	0.6
318.15	0	783.3	0.4
318.15	0.0498	848.4	0.7
318.15	0.1003	902.1	0.6
318.15	0.1501	946.2	0.6
318.15	0.1998	983.6	0.5
318.15	0.3004	1044.7	0.5
318.15	0.4013	1091.6	0.5
318.15	0.5002	1128.3	0.5
318.15	0.5991	1158	0.5
318.15	0.7006	1183.4	0.5
318.15	0.8	1204.4	0.5
318.15	0.8511	1213.9	0.5
318.15	0.8992	1222.3	0.5
318.15	0.9496	1230.4	0.6
318.15	1	1237.8	0.6
328.15	0	774.9	0.4
328.15	0.0498	840.1	0.7
328.15	0.1003	893.9	0.6
328.15	0.1501	938.1	0.6
328.15	0.1998	975.7	0.5
328.15	0.3004	1036.9	0.5
328.15	0.4013	1084	0.5
328.15	0.5002	1120.8	0.5
328.15	0.5991	1150.6	0.5
328.15	0.7006	1176.1	0.5
328.15	0.8	1197.1	0.5
328.15	0.8511	1206.6	0.5
328.15	0.8992	1215.1	0.5
328.15	0.9496	1223.2	0.5
328.15	1	1230.7	0.6
338.15	0	766.2	0.4
338.15	0.0498	831.7	0.7
338.15	0.1003	885.7	0.6
338.15	0.1501	930	0.6
338.15	0.1998	967.7	0.5
338.15	0.3004	1029.1	0.5
338.15	0.4013	1076.4	0.5
338.15	0.5002	1113.3	0.5
338.15	0.5991	1143.3	0.5
338.15	0.7006	1168.9	0.5
338.15	0.8	1189.9	0.5
338.15	0.8511	1199.5	0.5
338.15	0.8992	1208	0.5
338.15	0.9496	1216.1	0.5
338.15	1	1223.7	0.6

System: 1-butyl-1-methylpyrrolidinium trifluoromethanesulfonate + propan-1-ol; phases: Liquid
Fixed: Pressure, kPa = 101
Fixed: Frequency, MHz = 3
Property: Speed of sound, m/s (Liquid); method: Single path-length method
Temperature, K	Mole fraction of 1-butyl-1-methylpyrrolidinium trifluoromethanesulfonate	Speed of sound, m/s	uncertainty
278.15	0	1275	2
278.15	0.0498	1290	2
278.15	0.1003	1304	2
278.15	0.1501	1320	2
278.15	0.1998	1335	2
278.15	0.3004	1367	2
278.15	0.4013	1396	2
278.15	0.5002	1421	2
278.15	0.5991	1443	2
278.15	0.7006	1462	2
278.15	0.8	1479	2
278.15	0.8511	1488	2
278.15	0.8992	1499	2
278.15	0.9496	1504	2
278.15	1	1513	2
288.15	0	1240	2
288.15	0.0498	1256	2
288.15	0.1003	1273	2
288.15	0.1501	1290	2
288.15	0.1998	1306	2
288.15	0.3004	1340	2
288.15	0.4013	1369	2
288.15	0.5002	1395	2
288.15	0.5991	1418	2
288.15	0.7006	1437	2
288.15	0.8	1454	2
288.15	0.8511	1462	2
288.15	0.8992	1472	2
288.15	0.9496	1478	2
288.15	1	1486	2
298.15	0	1205	2
298.15	0.0498	1224	2
298.15	0.1003	1242	2
298.15	0.1501	1261	2
298.15	0.1998	1278	2
298.15	0.3004	1313	2
298.15	0.4013	1343	2
298.15	0.5002	1370	2
298.15	0.5991	1393	2
298.15	0.7006	1413	2
298.15	0.8	1430	2
298.15	0.8511	1438	2
298.15	0.8992	1447	2
298.15	0.9496	1454	2
298.15	1	1461	2
308.15	0	1171	2
308.15	0.0498	1192	2
308.15	0.1003	1212	2
308.15	0.1501	1232	2
308.15	0.1998	1250	2
308.15	0.3004	1286	2
308.15	0.4013	1318	2
308.15	0.5002	1345	2
308.15	0.5991	1369	2
308.15	0.7006	1389	2
308.15	0.8	1407	2
308.15	0.8511	1415	2
308.15	0.8992	1423	2
308.15	0.9496	1430	2
308.15	1	1438	2
318.15	0	1138	2
318.15	0.0498	1161	2
318.15	0.1003	1182	2
318.15	0.1501	1204	2
318.15	0.1998	1223	2
318.15	0.3004	1260	2
318.15	0.4013	1293	2
318.15	0.5002	1321	2
318.15	0.5991	1345	2
318.15	0.7006	1366	2
318.15	0.8	1384	2
318.15	0.8511	1392	2
318.15	0.8992	1400	2
318.15	0.9496	1408	2
318.15	1	1415	2
328.15	0	1104	2
328.15	0.0498	1130	2
328.15	0.1003	1153	2
328.15	0.1501	1175	2
328.15	0.1998	1196	2
328.15	0.3004	1235	2
328.15	0.4013	1269	2
328.15	0.5002	1297	2
328.15	0.5991	1322	2
328.15	0.7006	1343	2
328.15	0.8	1361	2
328.15	0.8511	1370	2
328.15	0.8992	1378	2
328.15	0.9496	1385	2
328.15	1	1393	2
338.15	0	1071	2
338.15	0.0498	1099	2
338.15	0.1003	1124	2
338.15	0.1501	1147	2
338.15	0.1998	1169	2
338.15	0.3004	1210	2
338.15	0.4013	1244	2
338.15	0.5002	1274	2
338.15	0.5991	1299	2
338.15	0.7006	1321	2
338.15	0.8	1339	2
338.15	0.8511	1348	2
338.15	0.8992	1356	2
338.15	0.9496	1364	2
338.15	1	1371	2

System: 1-butyl-1-methylpyrrolidinium trifluoromethanesulfonate + propan-1-ol; phases: Liquid
Fixed: Pressure, kPa = 101
Property: Refractive index (Na D-line) (Liquid); method: Standard Abbe refractometry
Temperature, K	Mole fraction of 1-butyl-1-methylpyrrolidinium trifluoromethanesulfonate	Refractive index (Na D-line)	uncertainty
288.15	0	1.3874	0.0005
288.15	0.0254	1.3913	0.0005
288.15	0.0494	1.3947	0.0005
288.15	0.1004	1.4007	0.0005
288.15	0.15	1.4054	0.0005
288.15	0.2	1.4095	0.0005
288.15	0.3002	1.4158	0.0005
288.15	0.4003	1.4206	0.0005
288.15	0.5001	1.4244	0.0005
288.15	0.6005	1.4275	0.0005
288.15	0.6996	1.43	0.0005
288.15	0.7985	1.4321	0.0005
288.15	0.8472	1.433	0.0005
288.15	0.899	1.4339	0.0005
288.15	0.9496	1.4347	0.0005
288.15	1	1.4355	0.0005
298.15	0	1.3832	0.0005
298.15	0.0254	1.3873	0.0005
298.15	0.0494	1.3908	0.0005
298.15	0.1004	1.397	0.0005
298.15	0.15	1.4019	0.0005
298.15	0.2	1.406	0.0005
298.15	0.3002	1.4126	0.0005
298.15	0.4003	1.4175	0.0005
298.15	0.5001	1.4215	0.0005
298.15	0.6005	1.4246	0.0005
298.15	0.6996	1.4271	0.0005
298.15	0.7985	1.4293	0.0005
298.15	0.8472	1.4302	0.0005
298.15	0.899	1.4311	0.0005
298.15	0.9496	1.432	0.0005
298.15	1	1.4328	0.0005
308.15	0	1.379	0.0005
308.15	0.0254	1.3834	0.0005
308.15	0.0494	1.387	0.0005
308.15	0.1004	1.3935	0.0005
308.15	0.15	1.3986	0.0005
308.15	0.2	1.4028	0.0005
308.15	0.3002	1.4095	0.0005
308.15	0.4003	1.4145	0.0005
308.15	0.5001	1.4184	0.0005
308.15	0.6005	1.4216	0.0005
308.15	0.6996	1.4243	0.0005
308.15	0.7985	1.4265	0.0005
308.15	0.8472	1.4275	0.0005
308.15	0.899	1.4284	0.0005
308.15	0.9496	1.4293	0.0005
308.15	1	1.4301	0.0005
318.15	0	1.3746	0.0005
318.15	0.0254	1.3794	0.0005
318.15	0.0494	1.3834	0.0005
318.15	0.1004	1.3903	0.0005
318.15	0.15	1.3955	0.0005
318.15	0.2	1.3999	0.0005
318.15	0.3002	1.4066	0.0005
318.15	0.4003	1.4116	0.0005
318.15	0.5001	1.4155	0.0005
318.15	0.6005	1.4188	0.0005
318.15	0.6996	1.4214	0.0005
318.15	0.7985	1.4237	0.0005
318.15	0.8472	1.4247	0.0005
318.15	0.899	1.4257	0.0005
318.15	0.9496	1.4266	0.0005
318.15	1	1.4275	0.0005
328.15	0	1.3702	0.0005
328.15	0.0254	1.3756	0.0005
328.15	0.0494	1.3799	0.0005
328.15	0.1004	1.3873	0.0005
328.15	0.15	1.3928	0.0005
328.15	0.2	1.3972	0.0005
328.15	0.3002	1.4039	0.0005
328.15	0.4003	1.4088	0.0005
328.15	0.5001	1.4127	0.0005
328.15	0.6005	1.4159	0.0005
328.15	0.6996	1.4186	0.0005
328.15	0.7985	1.4209	0.0005
328.15	0.8472	1.4219	0.0005
328.15	0.899	1.423	0.0005
328.15	0.9496	1.4239	0.0005
328.15	1	1.4248	0.0005
338.15	0	1.3657	0.0005
338.15	0.0254	1.3718	0.0005
338.15	0.0494	1.3766	0.0005
338.15	0.1004	1.3845	0.0005
338.15	0.15	1.3901	0.0005
338.15	0.2	1.3946	0.0005
338.15	0.3002	1.4012	0.0005
338.15	0.4003	1.406	0.0005
338.15	0.5001	1.4099	0.0005
338.15	0.6005	1.4131	0.0005
338.15	0.6996	1.4158	0.0005
338.15	0.7985	1.4182	0.0005
338.15	0.8472	1.4192	0.0005
338.15	0.899	1.4203	0.0005
338.15	0.9496	1.4213	0.0005
338.15	1	1.4222	0.0005

System: 1-butyl-1-methylpyrrolidinium trifluoromethanesulfonate + propan-2-ol; phases: Liquid
Fixed: Pressure, kPa = 101
Property: Mass density, kg/m3 (Liquid); method: Vibrating tube method
Temperature, K	Mole fraction of 1-butyl-1-methylpyrrolidinium trifluoromethanesulfonate	Mass density, kg/m3	uncertainty
278.15	0	797.5	0.4
278.15	0.0506	865.1	0.7
278.15	0.1019	921	0.6
278.15	0.1505	965.2	0.6
278.15	0.2002	1004	0.5
278.15	0.3002	1066.6	0.5
278.15	0.3997	1114.7	0.5
278.15	0.4996	1153	0.5
278.15	0.6001	1184.3	0.5
278.15	0.6999	1210.1	0.5
278.15	0.8015	1232.3	0.5
278.15	0.8501	1241.8	0.5
278.15	0.8993	1250.7	0.5
278.15	0.9482	1258.9	0.6
278.15	1	1267.1	0.6
288.15	0	789.4	0.4
288.15	0.0506	857	0.7
288.15	0.1019	912.9	0.6
288.15	0.1505	957.2	0.6
288.15	0.2002	996.1	0.5
288.15	0.3002	1058.7	0.5
288.15	0.3997	1106.9	0.5
288.15	0.4996	1145.3	0.5
288.15	0.6001	1176.8	0.5
288.15	0.6999	1202.6	0.5
288.15	0.8015	1224.9	0.5
288.15	0.8501	1234.2	0.5
288.15	0.8993	1243.1	0.5
288.15	0.9482	1251.3	0.6
288.15	1	1259.6	0.6
298.15	0	781	0.4
298.15	0.0506	848.8	0.7
298.15	0.1019	904.8	0.6
298.15	0.1505	949.1	0.6
298.15	0.2002	988	0.5
298.15	0.3002	1050.9	0.5
298.15	0.3997	1099.2	0.5
298.15	0.4996	1137.7	0.5
298.15	0.6001	1169.2	0.5
298.15	0.6999	1195.2	0.5
298.15	0.8015	1217.5	0.5
298.15	0.8501	1226.9	0.5
298.15	0.8993	1235.8	0.5
298.15	0.9482	1244	0.6
298.15	1	1252.1	0.6
308.15	0	772.4	0.4
308.15	0.0506	840.4	0.7
308.15	0.1019	896.6	0.7
308.15	0.1505	941	0.6
308.15	0.2002	980	0.5
308.15	0.3002	1043	0.5
308.15	0.3997	1091.4	0.5
308.15	0.4996	1130.1	0.5
308.15	0.6001	1161.7	0.5
308.15	0.6999	1187.8	0.5
308.15	0.8015	1210.2	0.5
308.15	0.8501	1219.6	0.5
308.15	0.8993	1228.6	0.5
308.15	0.9482	1236.8	0.6
308.15	1	1245	0.6
318.15	0	763.4	0.4
318.15	0.0506	831.8	0.7
318.15	0.1019	888.1	0.7
318.15	0.1505	932.7	0.6
318.15	0.2002	971.9	0.5
318.15	0.3002	1035.1	0.5
318.15	0.3997	1083.7	0.5
318.15	0.4996	1122.5	0.5
318.15	0.6001	1154.3	0.5
318.15	0.6999	1180.4	0.5
318.15	0.8015	1202.9	0.5
318.15	0.8501	1212.4	0.5
318.15	0.8993	1221.3	0.5
318.15	0.9482	1229.6	0.5
318.15	1	1237.8	0.6
328.15	0	754.1	0.4
328.15	0.0506	822.9	0.7
328.15	0.1019	879.5	0.7
328.15	0.1505	924.4	0.6
328.15	0.2002	963.7	0.5
328.15	0.3002	1027.2	0.5
328.15	0.3997	1076	0.5
328.15	0.4996	1115	0.5
328.15	0.6001	1146.8	0.5
328.15	0.6999	1173	0.5
328.15	0.8015	1195.6	0.5
328.15	0.8501	1205.2	0.5
328.15	0.8993	1214.1	0.5
328.15	0.9482	1222.4	0.5
328.15	1	1230.7	0.6

System: 1-butyl-1-methylpyrrolidinium trifluoromethanesulfonate + propan-2-ol; phases: Liquid
Fixed: Pressure, kPa = 101
Fixed: Frequency, MHz = 3
Property: Speed of sound, m/s (Liquid); method: Single path-length method
Temperature, K	Mole fraction of 1-butyl-1-methylpyrrolidinium trifluoromethanesulfonate	Speed of sound, m/s	uncertainty
278.15	0	1208	2
278.15	0.0506	1230	2
278.15	0.1019	1253	2
278.15	0.1505	1275	2
278.15	0.2002	1297	2
278.15	0.3002	1338	2
278.15	0.3997	1374	2
278.15	0.4996	1404	2
278.15	0.6001	1431	2
278.15	0.6999	1454	2
278.15	0.8015	1475	2
278.15	0.8501	1487	2
278.15	0.8993	1493	2
278.15	0.9482	1502	2
278.15	1	1513	2
288.15	0	1173	2
288.15	0.0506	1197	2
288.15	0.1019	1222	2
288.15	0.1505	1245	2
288.15	0.2002	1268	2
288.15	0.3002	1311	2
288.15	0.3997	1347	2
288.15	0.4996	1378	2
288.15	0.6001	1406	2
288.15	0.6999	1429	2
288.15	0.8015	1450	2
288.15	0.8501	1461	2
288.15	0.8993	1468	2
288.15	0.9482	1476	2
288.15	1	1486	2
298.15	0	1138	2
298.15	0.0506	1165	2
298.15	0.1019	1191	2
298.15	0.1505	1215	2
298.15	0.2002	1240	2
298.15	0.3002	1284	2
298.15	0.3997	1321	2
298.15	0.4996	1353	2
298.15	0.6001	1381	2
298.15	0.6999	1405	2
298.15	0.8015	1426	2
298.15	0.8501	1436	2
298.15	0.8993	1444	2
298.15	0.9482	1452	2
298.15	1	1461	2
308.15	0	1103	2
308.15	0.0506	1133	2
308.15	0.1019	1161	2
308.15	0.1505	1186	2
308.15	0.2002	1212	2
308.15	0.3002	1257	2
308.15	0.3997	1296	2
308.15	0.4996	1328	2
308.15	0.6001	1357	2
308.15	0.6999	1381	2
308.15	0.8015	1402	2
308.15	0.8501	1412	2
308.15	0.8993	1420	2
308.15	0.9482	1429	2
308.15	1	1438	2
318.15	0	1068	2
318.15	0.0506	1100	2
318.15	0.1019	1130	2
318.15	0.1505	1157	2
318.15	0.2002	1184	2
318.15	0.3002	1231	2
318.15	0.3997	1270	2
318.15	0.4996	1304	2
318.15	0.6001	1333	2
318.15	0.6999	1358	2
318.15	0.8015	1380	2
318.15	0.8501	1389	2
318.15	0.8993	1398	2
318.15	0.9482	1406	2
318.15	1	1415	2
328.15	0	1033	2
328.15	0.0506	1068	2
328.15	0.1019	1100	2
328.15	0.1505	1129	2
328.15	0.2002	1156	2
328.15	0.3002	1205	2
328.15	0.3997	1246	2
328.15	0.4996	1280	2
328.15	0.6001	1310	2
328.15	0.6999	1335	2
328.15	0.8015	1357	2
328.15	0.8501	1367	2
328.15	0.8993	1376	2
328.15	0.9482	1385	2
328.15	1	1393	2

System: 1-butyl-1-methylpyrrolidinium trifluoromethanesulfonate + propan-2-ol; phases: Liquid
Fixed: Pressure, kPa = 101
Property: Refractive index (Na D-line) (Liquid); method: Standard Abbe refractometry
Temperature, K	Mole fraction of 1-butyl-1-methylpyrrolidinium trifluoromethanesulfonate	Refractive index (Na D-line)	uncertainty
288.15	0	1.3794	0.0005
288.15	0.0261	1.3841	0.0005
288.15	0.0502	1.388	0.0005
288.15	0.1	1.3949	0.0005
288.15	0.1499	1.4006	0.0005
288.15	0.2003	1.4053	0.0005
288.15	0.3001	1.4128	0.0005
288.15	0.3997	1.4184	0.0005
288.15	0.4991	1.4228	0.0005
288.15	0.6003	1.4263	0.0005
288.15	0.7012	1.4292	0.0005
288.15	0.7991	1.4316	0.0005
288.15	0.8475	1.4327	0.0005
288.15	0.8986	1.4337	0.0005
288.15	0.948	1.4346	0.0005
288.15	1	1.4355	0.0005
298.15	0	1.375	0.0005
298.15	0.0261	1.38	0.0005
298.15	0.0502	1.384	0.0005
298.15	0.1	1.3912	0.0005
298.15	0.1499	1.397	0.0005
298.15	0.2003	1.4019	0.0005
298.15	0.3001	1.4095	0.0005
298.15	0.3997	1.4153	0.0005
298.15	0.4991	1.4197	0.0005
298.15	0.6003	1.4234	0.0005
298.15	0.7012	1.4264	0.0005
298.15	0.7991	1.4288	0.0005
298.15	0.8475	1.4299	0.0005
298.15	0.8986	1.4309	0.0005
298.15	0.948	1.4319	0.0005
298.15	1	1.4328	0.0005
308.15	0	1.3706	0.0005
308.15	0.0261	1.3758	0.0005
308.15	0.0502	1.3801	0.0005
308.15	0.1	1.3875	0.0005
308.15	0.1499	1.3935	0.0005
308.15	0.2003	1.3986	0.0005
308.15	0.3001	1.4064	0.0005
308.15	0.3997	1.4122	0.0005
308.15	0.4991	1.4168	0.0005
308.15	0.6003	1.4205	0.0005
308.15	0.7012	1.4236	0.0005
308.15	0.7991	1.4261	0.0005
308.15	0.8475	1.4272	0.0005
308.15	0.8986	1.4282	0.0005
308.15	0.948	1.4292	0.0005
308.15	1	1.4301	0.0005
318.15	0	1.366	0.0005
318.15	0.0261	1.3717	0.0005
318.15	0.0502	1.3762	0.0005
318.15	0.1	1.384	0.0005
318.15	0.1499	1.3903	0.0005
318.15	0.2003	1.3955	0.0005
318.15	0.3001	1.4034	0.0005
318.15	0.3997	1.4093	0.0005
318.15	0.4991	1.4139	0.0005
318.15	0.6003	1.4176	0.0005
318.15	0.7012	1.4207	0.0005
318.15	0.7991	1.4233	0.0005
318.15	0.8475	1.4244	0.0005
318.15	0.8986	1.4255	0.0005
318.15	0.948	1.4265	0.0005
318.15	1	1.4274	0.0005
328.15	0	1.3612	0.0005
328.15	0.0261	1.3674	0.0005
328.15	0.0502	1.3723	0.0005
328.15	0.1	1.3806	0.0005
328.15	0.1499	1.3871	0.0005
328.15	0.2003	1.3924	0.0005
328.15	0.3001	1.4005	0.0005
328.15	0.3997	1.4065	0.0005
328.15	0.4991	1.4111	0.0005
328.15	0.6003	1.4149	0.0005
328.15	0.7012	1.418	0.0005
328.15	0.7991	1.4205	0.0005
328.15	0.8475	1.4216	0.0005
328.15	0.8986	1.4228	0.0005
328.15	0.948	1.4238	0.0005
328.15	1	1.4247	0.0005
338.15	0	1.3562	0.0005
338.15	0.0261	1.3631	0.0005
338.15	0.0502	1.3683	0.0005
338.15	0.1	1.377	0.0005
338.15	0.1499	1.3838	0.0005
338.15	0.2003	1.3893	0.0005
338.15	0.3001	1.3975	0.0005
338.15	0.3997	1.4035	0.0005
338.15	0.4991	1.4082	0.0005
338.15	0.6003	1.412	0.0005
338.15	0.7012	1.4152	0.0005
338.15	0.7991	1.4178	0.0005
338.15	0.8475	1.4189	0.0005
338.15	0.8986	1.4201	0.0005
338.15	0.948	1.4211	0.0005
338.15	1	1.4221	0.0005
