Measured thermophysical data. Measurements of isothermal (vapor + liquid) phase equilibrium for {trifluoroiodomethane (R13I1) + 1,1-difluoroethane (R152a)} from T = (258.150 to 283.150) K
Source: J. Chem. Thermodyn., 2015, 10.1016/j.jct.2015.04.011
Compound 1: trifluoroiodomethane, CF3I, InChI=1S/CF3I/c2-1(3,4)5, purity 99%
Compound 2: 1,1-difluoroethane, C2H4F2, InChI=1S/C2H4F2/c1-2(3)4/h2H,1H3, purity 99.9%

System: trifluoroiodomethane; phases: Liquid, Gas
Property: Vapor or sublimation pressure, kPa (Liquid); method: Closed cell (Static) method
Temperature, K	Vapor or sublimation pressure, kPa	uncertainty
258.15	133	1.1
263.15	160.4	1.2
273.15	228.4	1.3
283.15	316.5	1.5

System: 1,1-difluoroethane; phases: Liquid, Gas
Property: Vapor or sublimation pressure, kPa (Liquid); method: Closed cell (Static) method
Temperature, K	Vapor or sublimation pressure, kPa	uncertainty
258.15	148.9	1
263.15	181.7	1
273.15	264.1	1.1
283.15	372.8	1.1

System: 1,1-difluoroethane + trifluoroiodomethane; phases: Liquid, Gas
Property: Vapor or sublimation pressure, kPa (Liquid); method: Closed cell (Static) method
Mole fraction of trifluoroiodomethane	Temperature, K	Vapor or sublimation pressure, kPa	uncertainty
0	258.15	148.9	1.1
0.254	258.15	164.5	1.2
0.343	258.15	166.1	1.1
0.376	258.15	166.3	1.1
0.453	258.15	165.9	1.1
0.604	258.15	162.9	1.2
0.762	258.15	155.4	1.3
0.925	258.15	142	1.4
1	258.15	133	1.1
0	263.15	181.7	1.1
0.253	263.15	199.7	1.4
0.343	263.15	201.5	1.2
0.375	263.15	201.6	1.2
0.453	263.15	201.1	1.2
0.606	263.15	197.1	1.3
0.757	263.15	187.7	1.4
0.924	263.15	171.5	1.6
1	263.15	160.4	1.2
0	273.15	264.1	1.3
0.252	273.15	287.3	1.6
0.343	273.15	289.2	1.4
0.376	273.15	289.3	1.4
0.453	273.15	288.1	1.4
0.606	273.15	281.7	1.5
0.758	273.15	267.4	1.8
0.926	273.15	244.1	1.9
1	273.15	228.4	1.3
0	283.15	372.8	1.5
0.253	283.15	401.8	1.8
0.344	283.15	403.7	1.6
0.376	283.15	403.3	1.6
0.452	283.15	401.2	1.7
0.605	283.15	391.5	1.9
0.76	283.15	370.3	2.3
0.926	283.15	337.8	2.7
1	283.15	316.5	1.5

System: 1,1-difluoroethane + trifluoroiodomethane; phases: Gas, Liquid
Property: Mole fraction of trifluoroiodomethane (Gas); method: Chromatography
Mole fraction of trifluoroiodomethane	Temperature, K	Mole fraction of trifluoroiodomethane	uncertainty
0	258.15	0	
0.254	258.15	0.288	0.015
0.343	258.15	0.355	0.013
0.376	258.15	0.378	0.013
0.453	258.15	0.433	0.013
0.604	258.15	0.54	0.013
0.762	258.15	0.67	0.015
0.925	258.15	0.865	0.017
1	258.15	1	
0	263.15	0	
0.253	263.15	0.285	0.015
0.343	263.15	0.352	0.013
0.375	263.15	0.375	0.013
0.453	263.15	0.43	0.013
0.606	263.15	0.539	0.013
0.757	263.15	0.67	0.015
0.924	263.15	0.864	0.017
1	263.15	1	
0	273.15	0	
0.252	273.15	0.279	0.015
0.343	273.15	0.346	0.013
0.376	273.15	0.37	0.013
0.453	273.15	0.426	0.013
0.606	273.15	0.536	0.014
0.758	273.15	0.672	0.015
0.926	273.15	0.867	0.017
1	273.15	1	
0	283.15	0	
0.253	283.15	0.273	0.014
0.344	283.15	0.341	0.013
0.376	283.15	0.366	0.013
0.452	283.15	0.423	0.013
0.605	283.15	0.535	0.014
0.76	283.15	0.667	0.015
0.926	283.15	0.87	0.017
1	283.15	1	
