Measured thermophysical data. Phase equilibria study of the binary systems (ionic liquid + thiophene):  Desulphurization process
Source: J. Chem. Thermodyn., 2009, 10.1016/j.jct.2009.06.003
Compound 1: thiophene, C4H4S, InChI=1S/C4H4S/c1-2-4-5-3-1/h1-4H
Compound 2: N-butyl-4-methylpyridinium tosylate, C17H23NO3S, InChI=1S/C10H16N.C7H8O3S/c1-3-4-7-11-8-5-10(2)6-9-11;1-6-2-4-7(5-3-6)11(8,9)10/h5-6,8-9H,3-4,7H2,1-2H3;2-5H,1H3,(H,8,9,10)/q+1;/p-1, purity 98%
Compound 3: 1-butyl-3-methylimidazolium thiocyanate, C9H15N3S, InChI=1S/C8H15N2.CHNS/c1-3-4-5-10-7-6-9(2)8-10;2-1-3/h6-8H,3-5H2,1-2H3;3H/q+1;/p-1
Compound 4: 1-butyl-4-methylpyridinium bis((trifluoromethyl)sulfonyl)amide, C12H16F6N2O4S2, InChI=1S/C10H16N.C2F6NO4S2/c1-3-4-7-11-8-5-10(2)6-9-11;3-1(4,5)14(10,11)9-15(12,13)2(6,7)8/h5-6,8-9H,3-4,7H2,1-2H3;/q+1;-1, purity 98%
Compound 5: triethylsulfonium bis((trifluoromethyl)sulfonyl)imide, C8H15F6NO4S3, InChI=1S/C6H15S.C2F6NO4S2/c1-4-7(5-2)6-3;3-1(4,5)14(10,11)9-15(12,13)2(6,7)8/h4-6H2,1-3H3;/q+1;-1
Compound 6: 1-ethyl-3-methylimidazolium thiocyanate, C7H11N3S, InChI=1S/C6H11N2.CHNS/c1-3-8-5-4-7(2)6-8;2-1-3/h4-6H,3H2,1-2H3;3H/q+1;/p-1
Compound 7: 2,4,6-trimethylpyridinium 4-methylbenzenesulfonate, C15H19NO3S, InChI=1S/C8H11N.C7H8O3S/c1-6-4-7(2)9-8(3)5-6;1-6-2-4-7(5-3-6)11(8,9)10/h4-5H,1-3H3;2-5H,1H3,(H,8,9,10)
Compound 8: 1-butyl-3-methylpyridinium 4-methylbenzenesulfonate, C17H23NO3S, InChI=1S/C10H16N.C7H8O3S/c1-3-4-7-11-8-5-6-10(2)9-11;1-6-2-4-7(5-3-6)11(8,9)10/h5-6,8-9H,3-4,7H2,1-2H3;2-5H,1H3,(H,8,9,10)/q+1;/p-1, purity 98%
Compound 9: 1-hexyl-3-methylpyridinium 4-methylbenzenesulfonate, C19H27NO3S, InChI=1S/C12H20N.C7H8O3S/c1-3-4-5-6-9-13-10-7-8-12(2)11-13;1-6-2-4-7(5-3-6)11(8,9)10/h7-8,10-11H,3-6,9H2,1-2H3;2-5H,1H3,(H,8,9,10)/q+1;/p-1, purity 98%
Compound 10: 1,4-dimethylpyridinium 4-methylbenzenesulfonate, C14H17NO3S, InChI=1S/C7H10N.C7H8O3S/c1-7-3-5-8(2)6-4-7;1-6-2-4-7(5-3-6)11(8,9)10/h3-6H,1-2H3;2-5H,1H3,(H,8,9,10)/q+1;/p-1, purity 98%
Compound 11: 1-hexyl-3-methylimidazolium thiocyanate, C11H19N3S, InChI=1S/C10H19N2.CHNS/c1-3-4-5-6-7-12-9-8-11(2)10-12;2-1-3/h8-10H,3-7H2,1-2H3;3H/q+1;/p-1

System: 1-butyl-4-methylpyridinium bis((trifluoromethyl)sulfonyl)amide; phases: Crystal, Liquid, Air at 1 atmosphere
Property: Normal melting temperature, K (Crystal); method: DTA
Normal melting temperature, K	uncertainty
291.4	0.5

System: 1-butyl-4-methylpyridinium bis((trifluoromethyl)sulfonyl)amide; phases: Crystal, Liquid, Gas
Property: Molar enthalpy of transition or fusion, kJ/mol (Crystal); method: DSC
Molar enthalpy of transition or fusion, kJ/mol	uncertainty
21.94	0.66

System: 1-butyl-4-methylpyridinium bis((trifluoromethyl)sulfonyl)amide; phases: Glass, Liquid, Air at 1 atmosphere
Property: Triple point temperature, K (Glass); method: DTA
Triple point temperature, K	uncertainty
195.9	2

System: triethylsulfonium bis((trifluoromethyl)sulfonyl)imide; phases: Crystal 1, Liquid, Air at 1 atmosphere
Property: Normal melting temperature, K (Crystal 1); method: DTA
Normal melting temperature, K	uncertainty
262.8	0.5

System: triethylsulfonium bis((trifluoromethyl)sulfonyl)imide; phases: Crystal 1, Liquid, Gas
Property: Molar enthalpy of transition or fusion, kJ/mol (Crystal 1); method: DSC
Molar enthalpy of transition or fusion, kJ/mol	uncertainty
6.98	0.28

System: triethylsulfonium bis((trifluoromethyl)sulfonyl)imide; phases: Glass, Liquid, Air at 1 atmosphere
Property: Triple point temperature, K (Glass); method: DTA
Triple point temperature, K	uncertainty
199.3	2

System: triethylsulfonium bis((trifluoromethyl)sulfonyl)imide; phases: Crystal 2, Crystal 1, Air at 1 atmosphere
Property: Triple point temperature, K (Crystal 2); method: DTA
Triple point temperature, K	uncertainty
241.1	2

System: triethylsulfonium bis((trifluoromethyl)sulfonyl)imide; phases: Crystal 2, Crystal 1, Gas
Property: Molar enthalpy of transition or fusion, kJ/mol (Crystal 2); method: DSC
Molar enthalpy of transition or fusion, kJ/mol	uncertainty
9.41	0.34

System: 1-ethyl-3-methylimidazolium thiocyanate; phases: Glass, Liquid, Air at 1 atmosphere
Property: Triple point temperature, K (Glass); method: DTA
Triple point temperature, K	uncertainty
175.6	2

System: 2,4,6-trimethylpyridinium 4-methylbenzenesulfonate; phases: Crystal, Liquid, Air at 1 atmosphere
Property: Normal melting temperature, K (Crystal); method: DTA
Normal melting temperature, K	uncertainty
403.7	0.5

System: 2,4,6-trimethylpyridinium 4-methylbenzenesulfonate; phases: Crystal, Liquid, Gas
Property: Molar enthalpy of transition or fusion, kJ/mol (Crystal); method: DSC
Molar enthalpy of transition or fusion, kJ/mol	uncertainty
22.88	0.68

System: 2,4,6-trimethylpyridinium 4-methylbenzenesulfonate; phases: Glass, Liquid, Air at 1 atmosphere
Property: Triple point temperature, K (Glass); method: DTA
Triple point temperature, K	uncertainty
265.3	2

System: 1-butyl-3-methylpyridinium 4-methylbenzenesulfonate; phases: Crystal, Liquid, Air at 1 atmosphere
Property: Normal melting temperature, K (Crystal); method: DTA
Normal melting temperature, K	uncertainty
323.7	0.5

System: 1-butyl-3-methylpyridinium 4-methylbenzenesulfonate; phases: Crystal, Liquid, Gas
Property: Molar enthalpy of transition or fusion, kJ/mol (Crystal); method: DSC
Molar enthalpy of transition or fusion, kJ/mol	uncertainty
1.533	0.171

System: 1-butyl-3-methylpyridinium 4-methylbenzenesulfonate; phases: Glass, Liquid, Air at 1 atmosphere
Property: Triple point temperature, K (Glass); method: DTA
Triple point temperature, K	uncertainty
220.1	2

System: 1-hexyl-3-methylpyridinium 4-methylbenzenesulfonate; phases: Crystal, Liquid, Air at 1 atmosphere
Property: Normal melting temperature, K (Crystal); method: DTA
Normal melting temperature, K	uncertainty
329.3	0.5

System: 1-hexyl-3-methylpyridinium 4-methylbenzenesulfonate; phases: Crystal, Liquid, Gas
Property: Molar enthalpy of transition or fusion, kJ/mol (Crystal); method: DSC
Molar enthalpy of transition or fusion, kJ/mol	uncertainty
10.094	0.366

System: 1-hexyl-3-methylpyridinium 4-methylbenzenesulfonate; phases: Glass, Liquid, Air at 1 atmosphere
Property: Triple point temperature, K (Glass); method: DTA
Triple point temperature, K	uncertainty
234	2

System: 1,4-dimethylpyridinium 4-methylbenzenesulfonate; phases: Crystal, Liquid, Air at 1 atmosphere
Property: Normal melting temperature, K (Crystal); method: DTA
Normal melting temperature, K	uncertainty
424.8	0.5

System: 1,4-dimethylpyridinium 4-methylbenzenesulfonate; phases: Crystal, Liquid, Gas
Property: Molar enthalpy of transition or fusion, kJ/mol (Crystal); method: DSC
Molar enthalpy of transition or fusion, kJ/mol	uncertainty
30.89	0.88

System: 1-hexyl-3-methylimidazolium thiocyanate; phases: Glass, Liquid, Air at 1 atmosphere
Property: Triple point temperature, K (Glass); method: DTA
Triple point temperature, K	uncertainty
189.9	2

System: thiophene + N-butyl-4-methylpyridinium tosylate; phases: Liquid, Crystal
Fixed: Pressure, kPa = 101.3
Property: Solid-liquid equilibrium temperature, K (Liquid); method: VISOBS
Mole fraction of N-butyl-4-methylpyridinium tosylate	Solid-liquid equilibrium temperature, K	uncertainty
1	324.8	2
0.998	323.5	2.1
0.9693	322.3	2
0.9428	320.9	2
0.9061	318.9	2
0.8584	315.9	2
0.8384	314.7	2
0.8046	313.5	2
0.7834	312.2	2
0.7652	311.2	2
0.7298	309.3	2
0.6976	307.5	2
0.6645	305.2	2
0.6339	303.3	2
0.5839	299.5	2
0.5606	297.5	2
0.5143	293.4	2
0.4793	289.9	2
0.4471	286.9	2
0.4219	284.8	2
0.3778	281.7	2
0.3429	279.8	2
0.3082	277.1	2
0.2786	274.9	2
0.2521	272.6	2

System: thiophene + 1-butyl-3-methylpyridinium 4-methylbenzenesulfonate; phases: Liquid, Crystal
Fixed: Pressure, kPa = 101.3
Property: Solid-liquid equilibrium temperature, K (Liquid); method: VISOBS
Mole fraction of 1-butyl-3-methylpyridinium 4-methylbenzenesulfonate	Solid-liquid equilibrium temperature, K	uncertainty
1	323.7	2
0.9797	322.9	2
0.9323	319.7	2
0.8925	317.9	2
0.8583	316.6	2
0.8271	315.3	2
0.7951	313.6	2
0.7393	309.8	2
0.6893	306.3	2
0.647	303.2	2
0.6105	300.1	2
0.5754	298.5	2
0.5433	295.5	2
0.4813	292.4	2

System: thiophene + 1-butyl-3-methylpyridinium 4-methylbenzenesulfonate; phases: Liquid mixture 1, Liquid mixture 2
Fixed: Pressure, kPa = 101.3
Property: Liquid-liquid equilibrium temperature, K (Liquid mixture 1); method: VISOBS
Mole fraction of 1-butyl-3-methylpyridinium 4-methylbenzenesulfonate	Liquid-liquid equilibrium temperature, K	uncertainty
0.1729	285.8	5
0.1705	296.8	5.2
0.1687	306	5
0.167	313	4
0.1654	317.3	3.5
0.1637	322.6	3.4
0.1622	326	3.2
0.1607	330.2	3.7
0.1595	334.5	3.6
0.158	338.4	3.2
0.1567	341.5	3.3
0.1555	345	3.7
0.1543	348.9	3.4
0.1531	351.7	3.5
0.152	355.5	4

System: thiophene + 1-hexyl-3-methylpyridinium 4-methylbenzenesulfonate; phases: Liquid, Crystal
Fixed: Pressure, kPa = 101.3
Property: Solid-liquid equilibrium temperature, K (Liquid); method: VISOBS
Mole fraction of 1-hexyl-3-methylpyridinium 4-methylbenzenesulfonate	Solid-liquid equilibrium temperature, K	uncertainty
1	329.3	2
0.9175	327.1	2
0.8534	325.3	2
0.8066	324.3	2
0.7578	322.5	2
0.7125	320.6	2
0.6759	318.8	2
0.6145	316	2
0.5608	312.4	2
0.5173	310.7	2
0.4787	309	2
0.4455	307.1	2
0.4173	304.9	2
0.3949	303	2
0.3753	301.2	2
0.3408	297.6	2
0.3117	293.2	2
0.2757	288	2
0.2462	280.4	2
0.2177	273.6	2
0.1874	268.4	2

System: thiophene + 1-hexyl-3-methylpyridinium 4-methylbenzenesulfonate; phases: Liquid mixture 1, Liquid mixture 2
Fixed: Pressure, kPa = 101.3
Property: Liquid-liquid equilibrium temperature, K (Liquid mixture 1); method: VISOBS
Mole fraction of 1-hexyl-3-methylpyridinium 4-methylbenzenesulfonate	Liquid-liquid equilibrium temperature, K	uncertainty
0.0431	294.6	2.2
0.0423	295.8	2.1
0.0404	297	2
0.0354	298.7	2
0.0302	300.2	2
0.0254	301	2
0.0218	301.3	2
0.0189	301.7	2
0.0167	301.5	2
0.015	300.6	2.1
0.0132	299.4	2.2
0.0114	297.6	2.4
0.01	295.2	2.6
0.0088	293.5	2.5

System: thiophene + 1-butyl-4-methylpyridinium bis((trifluoromethyl)sulfonyl)amide; phases: Liquid mixture 1, Liquid mixture 2
Fixed: Pressure, kPa = 101.3
Property: Liquid-liquid equilibrium temperature, K (Liquid mixture 1); method: VISOBS
Mole fraction of thiophene	Liquid-liquid equilibrium temperature, K	uncertainty
0.1427	269	4.1
0.1402	278	4.1
0.1375	287.6	3.9
0.134	298.5	3.3
0.1295	308.9	3.1
0.126	317.7	3
0.1227	323.6	3
0.1201	330.6	3.4
0.1177	337.1	3.2
0.1154	342.4	2.8
0.1122	348.3	3
0.1097	355.4	3.5
0.1068	364.1	2.7
0.1029	367.6	2.2
0.001	345.5	2
0.0009	333.3	2
0.0007	321.2	2
0.0007	320.4	2
0.0006	319.9	2
0.0006	314	2
0.0005	309.3	2
0.0004	299.2	2
0.0003	293.1	2
0.0003	290.2	2
0.0003	282.8	2
0.0002	277.3	2

System: thiophene + 1,4-dimethylpyridinium 4-methylbenzenesulfonate; phases: Crystal, Liquid mixture 1, Liquid mixture 2, Air at 1 atmosphere
Property: Quadruple (quintuple) point temperature, K (Crystal); method: visual
Quadruple (quintuple) point temperature, K	uncertainty
377.8	2

System: thiophene + 1,4-dimethylpyridinium 4-methylbenzenesulfonate; phases: Liquid, Crystal
Fixed: Pressure, kPa = 101.3
Property: Solid-liquid equilibrium temperature, K (Liquid); method: VISOBS
Mole fraction of 1,4-dimethylpyridinium 4-methylbenzenesulfonate	Solid-liquid equilibrium temperature, K	uncertainty
1	424.8	2
0.6218	410.7	2
0.5639	407.8	2
0.5262	404.9	2
0.4877	402.4	2
0.4566	399.1	2
0.4097	394	2
0.3746	389.3	2
0.3374	385.6	2
0.2871	381.5	2
0.2596	379.1	2
0.2472	378.4	2

System: thiophene + 1,4-dimethylpyridinium 4-methylbenzenesulfonate; phases: Liquid mixture 1, Liquid mixture 2
Fixed: Pressure, kPa = 101.3
Property: Liquid-liquid equilibrium temperature, K (Liquid mixture 1); method: VISOBS
Mole fraction of 1,4-dimethylpyridinium 4-methylbenzenesulfonate	Liquid-liquid equilibrium temperature, K	uncertainty
0.2419	389.5	4.7
0.2393	400.6	4.6
0.2364	412.3	4.4
0.2341	421	4.3

System: thiophene + 2,4,6-trimethylpyridinium 4-methylbenzenesulfonate; phases: Crystal, Liquid mixture 1, Liquid mixture 2, Air at 1 atmosphere
Property: Quadruple (quintuple) point temperature, K (Crystal); method: visual
Quadruple (quintuple) point temperature, K	uncertainty
297.7	2

System: thiophene + 2,4,6-trimethylpyridinium 4-methylbenzenesulfonate; phases: Liquid, Crystal
Fixed: Pressure, kPa = 101.3
Property: Solid-liquid equilibrium temperature, K (Liquid); method: VISOBS
Mole fraction of 2,4,6-trimethylpyridinium 4-methylbenzenesulfonate	Solid-liquid equilibrium temperature, K	uncertainty
1	403.7	2
0.5056	347.3	2
0.3545	317.2	2
0.301	310	2
0.2505	305.8	2
0.193	301.9	2
0.1554	299.1	2
0.1379	298.2	2
0.1256	298	2
0.0042	297.4	2.7
0.0029	295.1	2.7
0.0024	293.9	2.8
0.0021	293.4	2.8
0.0018	293.2	2.7

System: thiophene + 2,4,6-trimethylpyridinium 4-methylbenzenesulfonate; phases: Liquid mixture 1, Liquid mixture 2
Fixed: Pressure, kPa = 101.3
Property: Liquid-liquid equilibrium temperature, K (Liquid mixture 1); method: VISOBS
Mole fraction of 2,4,6-trimethylpyridinium 4-methylbenzenesulfonate	Liquid-liquid equilibrium temperature, K	uncertainty
0.0767	299.8	2
0.064	303.5	2
0.0591	306.3	2
0.052	308.1	2
0.0411	311	2.1
0.0386	312.1	2
0.0349	313.5	2
0.0344	313.5	2
0.0315	314.6	2
0.0277	314.8	2
0.0263	314.6	2
0.0246	314.4	2
0.0341	314.2	2
0.0229	314	2
0.0212	313.9	2
0.0201	313.4	2
0.0196	313.4	2
0.0168	312.4	2
0.0145	311.7	2.1
0.014	311.3	2.1
0.009	307.1	2.2

System: thiophene + 1-ethyl-3-methylimidazolium thiocyanate; phases: Liquid mixture 1, Liquid mixture 2
Fixed: Pressure, kPa = 101.3
Property: Liquid-liquid equilibrium temperature, K (Liquid mixture 1); method: VISOBS
Mole fraction of 1-ethyl-3-methylimidazolium thiocyanate	Liquid-liquid equilibrium temperature, K	uncertainty
0.3795	355.3	2.2
0.375	351.1	2.2
0.3708	347.8	2.2
0.3665	344.2	2.2
0.3629	341.6	2.2
0.3601	338	2.1
0.3525	334.3	2.1
0.3479	330.2	2.2
0.3429	326	2.2
0.3376	321.2	2.2
0.3323	317.6	2.2
0.3246	309.9	2.2
0.321	306.7	2.2
0.3171	303.9	2.2
0.3147	301.5	2.2
0.3094	296.8	2.2
0.3031	291.1	2.1
0.2967	287.1	2.2
0.2942	283.6	2.2
0.2881	279.1	2.2
0.2878	278.2	2.2
0.2812	271.6	2.3
0.2757	265.8	2.2
0.2663	257.8	2.2
0.2585	251.6	2.1
0.2462	242.9	2.1
0.2388	236.6	2.2

System: thiophene + 1-butyl-3-methylimidazolium thiocyanate; phases: Liquid mixture 1, Liquid mixture 2
Fixed: Pressure, kPa = 101.3
Property: Liquid-liquid equilibrium temperature, K (Liquid mixture 1); method: VISOBS
Mole fraction of 1-butyl-3-methylimidazolium thiocyanate	Liquid-liquid equilibrium temperature, K	uncertainty
0.2542	354	2.9
0.252	349.4	3.3
0.2493	341.2	3.9
0.247	332.9	3.3
0.2437	326.2	2.7
0.2404	320.5	3
0.2389	315.3	2.9
0.2356	310.3	2.6
0.2317	303.3	2.6
0.23	301.5	2.3
0.2281	299.4	2.3
0.225	295.8	2.5
0.2233	291.6	3
0.2211	287.2	3.1
0.2191	281.5	3.3
0.2152	271.9	2.4
0.2145	274.6	2.4
0.2048	262.6	2.5
0.1981	249.8	2.7
0.1947	244.7	3.4
0.1921	233	4.9
0.00053	341.1	2
0.00036	319.9	2
0.00034	313.3	2
0.00033	308.1	2
0.00031	303.3	2
0.00031	285.3	2
0.00033	283.9	2
0.00034	282.5	2
0.00036	281.4	2

System: thiophene + 1-hexyl-3-methylimidazolium thiocyanate; phases: Liquid mixture 1, Liquid mixture 2
Fixed: Pressure, kPa = 101.3
Property: Liquid-liquid equilibrium temperature, K (Liquid mixture 1); method: VISOBS
Mole fraction of 1-hexyl-3-methylimidazolium thiocyanate	Liquid-liquid equilibrium temperature, K	uncertainty
0.164	364.7	2.5
0.1625	362.5	3.5
0.1607	355.4	3.2
0.1585	352.4	2.6
0.1553	346.5	3.2
0.1456	320.6	3.8
0.1453	333.4	3.4
0.1426	303.8	10.9
0.1413	290.8	8.1
0.1395	279.1	7.1
0.1376	265.8	6.1
0.1367	253.3	6.2
0.1341	247.8	2.9

System: thiophene + triethylsulfonium bis((trifluoromethyl)sulfonyl)imide; phases: Liquid mixture 1, Liquid mixture 2
Fixed: Pressure, kPa = 101.3
Property: Liquid-liquid equilibrium temperature, K (Liquid mixture 1); method: VISOBS
Mole fraction of triethylsulfonium bis((trifluoromethyl)sulfonyl)imide	Liquid-liquid equilibrium temperature, K	uncertainty
0.1999	251.8	5.8
0.1959	273.7	4.7
0.1921	284.8	4
0.191	291.4	5.4
0.1901	297.2	5.5
0.188	305.7	4.8
0.1863	313.8	6.2
0.186	312.8	6.8
0.185	323.4	7.8
0.1837	333.4	7.1
0.1824	341.2	6.6
0.1812	349	5.9
0.1796	356.7	5.2
