Measured thermophysical data. Osmotic properties of binary mixtures 1-butyl-1-methylpyrrolidinium dicyanamide and 1-methyl-3-octylimidazolium chloride with water: Effect of aggregation of ions
Source: J. Chem. Thermodyn., 2015, 10.1016/j.jct.2014.10.008
Compound 1: 1-butyl-1-methylpyrrolidinium dicyanamide, C11H20N4, InChI=1S/C9H20N.C2N3/c1-3-4-7-10(2)8-5-6-9-10;3-1-5-2-4/h3-9H2,1-2H3;/q+1;-1, purity 98%
Compound 2: 1-methyl-3-octylimidazolium chloride, C12H23ClN2, InChI=1S/C12H23N2.ClH/c1-3-4-5-6-7-8-9-14-11-10-13(2)12-14;/h10-12H,3-9H2,1-2H3;1H/q+1;/p-1, purity 97%
Compound 3: water, H2O, InChI=1S/H2O/h1H2

System: water + 1-butyl-1-methylpyrrolidinium dicyanamide; phases: Liquid
Fixed: Pressure, kPa = 101
Property: Osmotic coefficient (Liquid); method: Vapor pressure osmometer - Knauer K-7000
Temperature, K	Molality, mol/kg of 1-butyl-1-methylpyrrolidinium dicyanamide	Osmotic coefficient	uncertainty
313.15	0.0272	0.915	0.014
313.15	0.0491	0.849	0.015
313.15	0.0864	0.734	0.016
313.15	0.1088	0.697	0.016
313.15	0.1499	0.68	0.017
313.15	0.1968	0.627	0.018
313.15	0.3968	0.503	0.021
313.15	0.5057	0.471	0.022
313.15	0.7825	0.433	0.023
313.15	0.9665	0.416	0.024
313.15	1.4738	0.373	0.025
323.15	0.0272	0.982	0.015
323.15	0.0512	0.879	0.013
323.15	0.0928	0.855	0.013
323.15	0.112	0.846	0.013
323.15	0.1499	0.81	0.014
323.15	0.1968	0.747	0.015
323.15	0.2912	0.673	0.017
323.15	0.3968	0.656	0.017
323.15	0.5057	0.608	0.018
323.15	0.7825	0.538	0.02
323.15	0.9665	0.48	0.022
323.15	1.4882	0.405	0.024
328.15	0.024	1.0519	0.0135
328.15	0.0896	0.8592	0.0139
328.15	0.1248	0.8152	0.0138
328.15	0.2032	0.7467	0.0151
328.15	0.2913	0.6824	0.0165
328.15	0.4017	0.6417	0.0175
328.15	0.5041	0.5852	0.019
328.15	0.7825	0.5591	0.0197
328.15	0.973	0.498	0.0214
328.15	1.4962	0.4237	0.0236

System: water + 1-methyl-3-octylimidazolium chloride; phases: Liquid
Fixed: Pressure, kPa = 101
Property: Osmotic coefficient (Liquid); method: Vapor pressure osmometer - Knauer K-7000
Temperature, K	Molality, mol/kg of 1-methyl-3-octylimidazolium chloride	Osmotic coefficient	uncertainty
313.15	0.0346	1.046	0.013
313.15	0.0491	1.003	0.016
313.15	0.0809	0.816	0.015
313.15	0.1329	0.727	0.016
313.15	0.182	0.681	0.017
313.15	0.2455	0.617	0.018
313.15	0.2917	0.555	0.02
313.15	0.3582	0.531	0.02
313.15	0.4679	0.48	0.022
313.15	0.5228	0.45	0.023
313.15	0.6037	0.424	0.024
313.15	0.7323	0.383	0.025
313.15	0.8825	0.343	0.026
313.15	1.0717	0.317	0.027
313.15	1.3563	0.289	0.028
313.15	1.7708	0.266	0.029
323.15	0.0419	1.101	0.014
323.15	0.052	1.056	0.014
323.15	0.0858	0.946	0.013
323.15	0.1118	0.918	0.013
323.15	0.182	0.726	0.016
323.15	0.2455	0.675	0.017
323.15	0.2917	0.633	0.018
323.15	0.3582	0.587	0.019
323.15	0.4679	0.54	0.02
323.15	0.5228	0.498	0.021
323.15	0.6037	0.464	0.022
323.15	0.7323	0.424	0.024
323.15	0.8825	0.384	0.025
323.15	1.0717	0.345	0.026
323.15	1.3563	0.31	0.027
323.15	1.7708	0.3	0.028
328.15	0.0361	1.136	0.013
328.15	0.0506	1.117	0.013
328.15	0.0852	1.08	0.012
328.15	0.1329	1.068	0.012
328.15	0.1791	1.016	0.012
328.15	0.2484	0.962	0.012
328.15	0.2947	0.957	0.012
328.15	0.3568	0.929	0.012
328.15	0.468	0.906	0.012
328.15	0.5243	0.875	0.013
328.15	0.6052	0.844	0.013
328.15	0.7352	0.753	0.015
328.15	0.8826	0.689	0.016
328.15	1.0718	0.624	0.018
328.15	1.3592	0.556	0.02
328.15	1.7738	0.479	0.022
