Measured thermophysical data. Thermodynamic investigation of Na2U2O7 using Knudsen effusion mass spectrometry and high temperature X-ray diffraction
Source: J. Chem. Thermodyn., 2015, 10.1016/j.jct.2015.06.026
Compound 1: sodium, Na, InChI=1S/Na
Compound 2: uranium, U, InChI=1S/U
Compound 3: oxygen, O2, InChI=1S/O2/c1-2
Compound 4: uranium dioxide, O2U, InChI=1S/2O.U/q2*-2;+4, purity 99.8%
Compound 5: sodium uranate (NaUO3), NaO3U, InChI=1S/Na.3O.U/q+1;;;-1;, purity 99.5%
Compound 6: sodium uranate (Na2U2O7), Na2O7U2, InChI=1S/2Na.7O.2U/q2*+1;;;;;;2*-1;;, purity 97%

System: sodium uranate (Na2U2O7); phases: Crystal 3
Fixed: Pressure, kPa = 90
Property: Mass density, kg/m3 (Crystal 3); method: X-ray diffraction
Temperature, K	Mass density, kg/m3	uncertainty
303	6570	82
373	6544	82
473	6512	81
573	6471	80

System: sodium uranate (Na2U2O7); phases: Crystal 2
Fixed: Pressure, kPa = 90
Property: Mass density, kg/m3 (Crystal 2); method: X-ray diffraction
Temperature, K	Mass density, kg/m3	uncertainty
748	6382	78
823	6357	77
923	6324	76
1023	6292	76
1123	6258	75
1223	6226	74

System: sodium uranate (Na2U2O7); phases: Crystal 1
Property: Mass density, kg/m3 (Crystal 1); method: X-ray diffraction
Temperature, K	Pressure, kPa	Mass density, kg/m3	uncertainty
1323	90	6202	306

Reaction: 1 uranium dioxide + 1 sodium + -3 sodium uranate (NaUO3) + 1 sodium uranate (Na2U2O7)
Property: Thermodynamic equilibrium constant
2.484e-06
2.804e-06
3.13e-06
3.535e-06
3.978e-06
4.508e-06
5.131e-06
5.851e-06
6.618e-06
7.463e-06
8.447e-06
9.614e-06
1.094e-05
1.248e-05
1.42e-05
1.606e-05
1.826e-05
2.057e-05
2.336e-05
2.618e-05
2.905e-05
3.248e-05
3.649e-05
4.079e-05
4.529e-05
5.173e-05
5.748e-05
6.17e-05
6.735e-05
7.458e-05
8.226e-05
9.104e-05

Reaction: -2 sodium + -2 uranium + 1 sodium uranate (Na2U2O7) + -3.5 oxygen
Property: Molar enthalpy of reaction, kJ/mol
-3396.2

Reaction: -2 sodium + -2 uranium + 1 sodium uranate (Na2U2O7) + -3.5 oxygen
Property: Molar Gibbs energy of reaction, kJ/mol
-2383.4
-2375.5
-2367.6
-2359.7
-2351.8
-2343.9
-2336.1
-2328.2
-2320.3
-2312.4
-2304.5
-2296.6
-2288.7
-2280.8
-2273
-2265.1
-2257.2
-2249.3
-2241.4
-2233.5
