Measured thermophysical data. Volumetric and viscometric properties of binary liquid mixtures as potential solvents for flue gas desulfurization processes
Source: J. Chem. Thermodyn., 2017, 10.1016/j.jct.2017.01.018
Compound 1: 2,5,8,11,14-pentaoxapentadecane, C10H22O5, InChI=1S/C10H22O5/c1-11-3-5-13-7-9-15-10-8-14-6-4-12-2/h3-10H2,1-2H3, purity 99%
Compound 2: N-methylpyrrolidone, C5H9NO, InChI=1S/C5H9NO/c1-6-4-2-3-5(6)7/h2-4H2,1H3, purity 99%

System: 2,5,8,11,14-pentaoxapentadecane; phases: Liquid
Fixed: Pressure, kPa = 101.325
Property: Mass density, kg/m3 (Liquid); method: Vibrating tube method
Temperature, K	Mass density, kg/m3	uncertainty
288.15	1015.63	0.83
293.15	1011	0.83
298.15	1006.36	0.83
303.15	1001.73	0.83
308.15	997.1	0.83
313.15	992.48	0.83
318.15	987.86	0.83
323.15	983.23	0.83
328.15	978.61	0.83
333.15	973.99	0.83

System: 2,5,8,11,14-pentaoxapentadecane; phases: Liquid
Fixed: Pressure, kPa = 101.325
Property: Viscosity, Pa*s (Liquid); method: Concentric cylinders viscometry
Temperature, K	Viscosity, Pa*s	uncertainty
288.15	0.0043415	4.75e-05
293.15	0.0038338	4.21e-05
298.15	0.0033801	3.72e-05
303.15	0.0030042	3.32e-05
308.15	0.0026913	2.99e-05
313.15	0.0024258	2.71e-05
318.15	0.0021994	2.47e-05
323.15	0.0020063	2.26e-05
328.15	0.0018382	2.09e-05
333.15	0.0016914	1.93e-05

System: N-methylpyrrolidone; phases: Liquid
Fixed: Pressure, kPa = 101.325
Property: Mass density, kg/m3 (Liquid); method: Vibrating tube method
Temperature, K	Mass density, kg/m3	uncertainty
288.15	1037.3	0.83
293.15	1032.84	0.83
298.15	1028.38	0.83
303.15	1023.93	0.83
308.15	1019.46	0.83
313.15	1015	0.83
318.15	1010.53	0.83
323.15	1006.06	0.83

System: N-methylpyrrolidone; phases: Liquid
Fixed: Pressure, kPa = 101.325
Property: Viscosity, Pa*s (Liquid); method: Concentric cylinders viscometry
Temperature, K	Viscosity, Pa*s	uncertainty
288.15	0.0019896	2.25e-05
293.15	0.0018232	2.07e-05
298.15	0.0016795	1.92e-05
303.15	0.0015546	1.79e-05
308.15	0.0014443	1.67e-05
313.15	0.0013464	1.57e-05
318.15	0.0012593	1.48e-05
323.15	0.0011816	1.4e-05
