Measured thermophysical data. Experimental solubility evaluation and thermodynamic analysis of quinocetone in aqueous co-solvent solutions of ethanol, isopropanol, dimethyl sulfoxide and N,N-dimethylformamide
Source: J. Chem. Thermodyn., 2019, 10.1016/j.jct.2018.11.021
Compound 1: Quinocetone, C18H14N2O3, InChI=1S/C18H14N2O3/c1-13-18(17(21)12-11-14-7-3-2-4-8-14)20(23)16-10-6-5-9-15(16)19(13)22/h2-12H,1H3, purity 97%
Compound 2: ethanol, C2H6O, InChI=1S/C2H6O/c1-2-3/h3H,2H2,1H3, purity 99.6%
Compound 3: propan-2-ol, C3H8O, InChI=1S/C3H8O/c1-3(2)4/h3-4H,1-2H3, purity 99.6%
Compound 4: dimethyl sulfoxide, C2H6OS, InChI=1S/C2H6OS/c1-4(2)3/h1-2H3, purity 99.8%
Compound 5: dimethylformamide, C3H7NO, InChI=1S/C3H7NO/c1-4(2)3-5/h3H,1-2H3, purity 99.7%
Compound 6: water, H2O, InChI=1S/H2O/h1H2

System: Quinocetone + ethanol + water; phases: Liquid, Crystal
Fixed: Pressure, kPa = 101.2
Property: Mole fraction of Quinocetone (Liquid); method: Chromatography
Solvent: Mass fraction of ethanol	Temperature, K	Mole fraction of Quinocetone	uncertainty
0	283.15	2.487e-06	1.89e-07
0	288.15	2.928e-06	2.23e-07
0	293.15	3.395e-06	2.58e-07
0	298.15	3.954e-06	3.01e-07
0	303.15	4.621e-06	3.51e-07
0	308.15	5.322e-06	4.05e-07
0	313.15	6.121e-06	4.65e-07
0	318.15	6.997e-06	5.32e-07
0	323.15	7.965e-06	6.06e-07
0	328.15	9.03e-06	6.87e-07
0.1	283.15	1.254e-05	9.5e-07
0.1	288.15	1.454e-05	1.11e-06
0.1	293.15	1.66e-05	1.26e-06
0.1	298.15	1.909e-05	1.45e-06
0.1	303.15	2.199e-05	1.67e-06
0.1	308.15	2.503e-05	1.9e-06
0.1	313.15	2.842e-05	2.16e-06
0.1	318.15	3.21e-05	2.44e-06
0.1	323.15	3.613e-05	2.75e-06
0.1	328.15	4.048e-05	3.08e-06
0.1988	283.15	3.016e-05	2.29e-06
0.1988	288.15	3.486e-05	2.65e-06
0.1988	293.15	3.969e-05	3.02e-06
0.1988	298.15	4.562e-05	3.47e-06
0.1988	303.15	5.238e-05	3.98e-06
0.1988	308.15	5.957e-05	4.53e-06
0.1988	313.15	6.752e-05	5.13e-06
0.1988	318.15	7.613e-05	5.79e-06
0.1988	323.15	8.557e-05	6.51e-06
0.1988	328.15	9.57e-05	7.28e-06
0.3001	283.15	4.624e-05	3.52e-06
0.3001	288.15	5.373e-05	4.09e-06
0.3001	293.15	6.146e-05	4.67e-06
0.3001	298.15	7.116e-05	5.41e-06
0.3001	303.15	8.204e-05	6.24e-06
0.3001	308.15	9.39e-05	7.14e-06
0.3001	313.15	0.0001069	8.1e-06
0.3001	318.15	0.0001212	9.2e-06
0.3001	323.15	0.0001369	1.04e-05
0.3001	328.15	0.0001538	1.17e-05
0.3998	283.15	5.459e-05	4.15e-06
0.3998	288.15	6.406e-05	4.87e-06
0.3998	293.15	7.394e-05	5.62e-06
0.3998	298.15	8.655e-05	6.58e-06
0.3998	303.15	0.0001006	7.6e-06
0.3998	308.15	0.0001163	8.8e-06
0.3998	313.15	0.0001336	1.02e-05
0.3998	318.15	0.0001527	1.16e-05
0.3998	323.15	0.000174	1.32e-05
0.3998	328.15	0.000197	1.5e-05
0.4975	283.15	5.85e-05	4.45e-06
0.4975	288.15	6.94e-05	5.28e-06
0.4975	293.15	8.095e-05	6.16e-06
0.4975	298.15	9.593e-05	7.29e-06
0.4975	303.15	0.0001125	8.6e-06
0.4975	308.15	0.0001316	1e-05
0.4975	313.15	0.0001527	1.16e-05
0.4975	318.15	0.0001762	1.34e-05
0.4975	323.15	0.0002028	1.54e-05
0.4975	328.15	0.0002315	1.76e-05
0.6	283.15	6.318e-05	4.8e-06
0.6	288.15	7.582e-05	5.77e-06
0.6	293.15	8.94e-05	6.8e-06
0.6	298.15	0.0001073	8.2e-06
0.6	303.15	0.0001272	9.7e-06
0.6	308.15	0.0001505	1.14e-05
0.6	313.15	0.0001763	1.34e-05
0.6	318.15	0.0002056	1.56e-05
0.6	323.15	0.000239	1.82e-05
0.6	328.15	0.0002753	2.09e-05
0.7006	283.15	7.075e-05	5.38e-06
0.7006	288.15	7.92e-05	6.02e-06
0.7006	293.15	0.0001	7.6e-06
0.7006	298.15	0.0001191	9.1e-06
0.7006	303.15	0.0001431	1.09e-05
0.7006	308.15	0.0001725	1.31e-05
0.7006	313.15	0.0002026	1.54e-05
0.7006	318.15	0.0002403	1.83e-05
0.7006	323.15	0.0002836	2.16e-05
0.7006	328.15	0.0003286	2.5e-05
0.7998	283.15	7.833e-05	5.96e-06
0.7998	288.15	9.197e-05	6.99e-06
0.7998	293.15	0.0001128	8.6e-06
0.7998	298.15	0.0001421	1.08e-05
0.7998	303.15	0.0001737	1.32e-05
0.7998	308.15	0.0002083	1.58e-05
0.7998	313.15	0.000248	1.89e-05
0.7998	318.15	0.0002977	2.26e-05
0.7998	323.15	0.0003581	2.72e-05
0.7998	328.15	0.0004166	3.17e-05
0.9022	283.15	8.863e-05	6.74e-06
0.9022	288.15	0.0001099	8.4e-06
0.9022	293.15	0.0001358	1.03e-05
0.9022	298.15	0.0001702	1.29e-05
0.9022	303.15	0.0002069	1.57e-05
0.9022	308.15	0.0002517	1.91e-05
0.9022	313.15	0.0003091	2.35e-05
0.9022	318.15	0.000372	2.83e-05
0.9022	323.15	0.0004471	3.4e-05
0.9022	328.15	0.0005298	4.03e-05
1	283.15	9.806e-05	7.46e-06
1	288.15	0.0001228	9.3e-06
1	293.15	0.0001507	1.15e-05
1	298.15	0.0001898	1.44e-05
1	303.15	0.0002331	1.77e-05
1	308.15	0.0002883	2.19e-05
1	313.15	0.0003508	2.67e-05
1	318.15	0.0004247	3.23e-05
1	323.15	0.0005125	3.9e-05
1	328.15	0.0006108	4.64e-05

System: Quinocetone + propan-2-ol + water; phases: Liquid, Crystal
Fixed: Pressure, kPa = 101.2
Property: Mole fraction of Quinocetone (Liquid); method: Chromatography
Solvent: Mass fraction of propan-2-ol	Temperature, K	Mole fraction of Quinocetone	uncertainty
0	283.15	2.487e-06	1.89e-07
0	288.15	2.928e-06	2.23e-07
0	293.15	3.395e-06	2.58e-07
0	298.15	3.954e-06	3.01e-07
0	303.15	4.621e-06	3.51e-07
0	308.15	5.322e-06	4.05e-07
0	313.15	6.121e-06	4.65e-07
0	318.15	6.997e-06	5.32e-07
0	323.15	7.965e-06	6.06e-07
0	328.15	9.03e-06	6.87e-07
0.1	283.15	9.58e-06	7.28e-07
0.1	288.15	1.118e-05	8.5e-07
0.1	293.15	1.287e-05	9.8e-07
0.1	298.15	1.488e-05	1.13e-06
0.1	303.15	1.728e-05	1.31e-06
0.1	308.15	1.98e-05	1.51e-06
0.1	313.15	2.264e-05	1.72e-06
0.1	318.15	2.576e-05	1.96e-06
0.1	323.15	2.916e-05	2.22e-06
0.1	328.15	3.29e-05	2.5e-06
0.2013	283.15	2.095e-05	1.59e-06
0.2013	288.15	2.447e-05	1.86e-06
0.2013	293.15	2.825e-05	2.15e-06
0.2013	298.15	3.275e-05	2.49e-06
0.2013	303.15	3.81e-05	2.9e-06
0.2013	308.15	4.385e-05	3.33e-06
0.2013	313.15	5.025e-05	3.82e-06
0.2013	318.15	5.738e-05	4.36e-06
0.2013	323.15	6.512e-05	4.95e-06
0.2013	328.15	7.37e-05	5.6e-06
0.3003	283.15	3.142e-05	2.39e-06
0.3003	288.15	3.697e-05	2.81e-06
0.3003	293.15	4.304e-05	3.27e-06
0.3003	298.15	5.031e-05	3.83e-06
0.3003	303.15	5.898e-05	4.48e-06
0.3003	308.15	6.854e-05	5.21e-06
0.3003	313.15	7.913e-05	6.02e-06
0.3003	318.15	9.114e-05	6.93e-06
0.3003	323.15	0.0001042	7.9e-06
0.3003	328.15	0.0001189	9e-06
0.3979	283.15	3.873e-05	2.95e-06
0.3979	288.15	4.604e-05	3.5e-06
0.3979	293.15	5.423e-05	4.12e-06
0.3979	298.15	6.41e-05	4.87e-06
0.3979	303.15	7.596e-05	5.78e-06
0.3979	308.15	8.936e-05	6.8e-06
0.3979	313.15	0.0001042	7.9e-06
0.3979	318.15	0.0001214	9.2e-06
0.3979	323.15	0.0001402	1.07e-05
0.3979	328.15	0.0001615	1.23e-05
0.5005	283.15	4.452e-05	3.39e-06
0.5005	288.15	5.359e-05	4.08e-06
0.5005	293.15	6.399e-05	4.87e-06
0.5005	298.15	7.662e-05	5.83e-06
0.5005	303.15	9.193e-05	6.99e-06
0.5005	308.15	0.0001097	8.3e-06
0.5005	313.15	0.0001295	9.8e-06
0.5005	318.15	0.0001528	1.16e-05
0.5005	323.15	0.0001785	1.36e-05
0.5005	328.15	0.000208	1.58e-05
0.6	283.15	5.084e-05	3.87e-06
0.6	288.15	6.194e-05	4.71e-06
0.6	293.15	7.495e-05	5.7e-06
0.6	298.15	9.089e-05	6.91e-06
0.6	303.15	0.0001104	8.4e-06
0.6	308.15	0.0001335	1.02e-05
0.6	313.15	0.0001595	1.21e-05
0.6	318.15	0.0001905	1.45e-05
0.6	323.15	0.000225	1.71e-05
0.6	328.15	0.0002654	2.02e-05
0.7005	283.15	5.988e-05	4.55e-06
0.7005	288.15	7.382e-05	5.61e-06
0.7005	293.15	9.047e-05	6.88e-06
0.7005	298.15	0.0001082	8.2e-06
0.7005	303.15	0.0001337	1.02e-05
0.7005	308.15	0.0001647	1.25e-05
0.7005	313.15	0.0001939	1.47e-05
0.7005	318.15	0.0002362	1.8e-05
0.7005	323.15	0.0002809	2.14e-05
0.7005	328.15	0.0003344	2.54e-05
0.8021	283.15	6.401e-05	4.87e-06
0.8021	288.15	7.391e-05	5.62e-06
0.8021	293.15	9.833e-05	7.48e-06
0.8021	298.15	0.0001293	9.8e-06
0.8021	303.15	0.0001642	1.25e-05
0.8021	308.15	0.0002009	1.53e-05
0.8021	313.15	0.0002491	1.89e-05
0.8021	318.15	0.0002998	2.28e-05
0.8021	323.15	0.0003659	2.78e-05
0.8021	328.15	0.0004396	3.34e-05
0.9005	283.15	7.222e-05	5.49e-06
0.9005	288.15	9.307e-05	7.08e-06
0.9005	293.15	0.0001202	9.1e-06
0.9005	298.15	0.0001539	1.17e-05
0.9005	303.15	0.0001943	1.48e-05
0.9005	308.15	0.0002447	1.86e-05
0.9005	313.15	0.0003038	2.31e-05
0.9005	318.15	0.0003775	2.87e-05
0.9005	323.15	0.0004653	3.54e-05
0.9005	328.15	0.0005613	4.27e-05
1	283.15	8.139e-05	6.19e-06
1	288.15	0.0001042	7.9e-06
1	293.15	0.0001331	1.01e-05
1	298.15	0.00017	1.29e-05
1	303.15	0.000217	1.65e-05
1	308.15	0.0002776	2.11e-05
1	313.15	0.0003478	2.65e-05
1	318.15	0.0004374	3.33e-05
1	323.15	0.0005409	4.11e-05
1	328.15	0.0006684	5.08e-05

System: Quinocetone + dimethyl sulfoxide + water; phases: Liquid, Crystal
Fixed: Pressure, kPa = 101.2
Property: Mole fraction of Quinocetone (Liquid); method: Chromatography
Solvent: Mass fraction of dimethyl sulfoxide	Temperature, K	Mole fraction of Quinocetone	uncertainty
0	293.15	3.395e-06	2.58e-07
0	298.15	3.954e-06	3.01e-07
0	303.15	4.621e-06	3.51e-07
0	308.15	5.322e-06	4.05e-07
0	313.15	6.121e-06	4.65e-07
0	318.15	6.997e-06	5.32e-07
0	323.15	7.965e-06	6.06e-07
0	328.15	9.03e-06	6.87e-07
0.1013	293.15	0.0001415	1.09e-05
0.1013	298.15	0.0001617	1.23e-05
0.1013	303.15	0.0001819	1.38e-05
0.1013	308.15	0.0002072	1.58e-05
0.1013	313.15	0.0002325	1.77e-05
0.1013	318.15	0.0002577	1.96e-05
0.1013	323.15	0.000283	2.15e-05
0.1013	328.15	0.0003133	2.4e-05
0.2002	293.15	0.001051	8e-05
0.2002	298.15	0.001147	8.7e-05
0.2002	303.15	0.001238	9.4e-05
0.2002	308.15	0.001289	9.8e-05
0.2002	313.15	0.00141	0.000107
0.2002	318.15	0.001536	0.000117
0.2002	323.15	0.001663	0.000126
0.2002	328.15	0.001733	0.000132
0.3021	293.15	0.002426	0.000184
0.3021	298.15	0.002542	0.000193
0.3021	303.15	0.002764	0.00021
0.3021	308.15	0.002981	0.000227
0.3021	313.15	0.003209	0.000244
0.3021	318.15	0.003451	0.000262
0.3021	323.15	0.003694	0.000281
0.3021	328.15	0.003886	0.000295
0.3996	293.15	0.002798	0.000213
0.3996	298.15	0.00299	0.000227
0.3996	303.15	0.003222	0.000245
0.3996	308.15	0.003503	0.000266
0.3996	313.15	0.003825	0.000291
0.3996	318.15	0.004172	0.000317
0.3996	323.15	0.004529	0.000344
0.3996	328.15	0.004924	0.000374
0.5015	293.15	0.002811	0.000214
0.5015	298.15	0.003083	0.000234
0.5015	303.15	0.003414	0.00026
0.5015	308.15	0.003724	0.000283
0.5015	313.15	0.004021	0.000306
0.5015	318.15	0.004333	0.000329
0.5015	323.15	0.004653	0.000354
0.5015	328.15	0.005	0.00038
0.6012	293.15	0.002949	0.000224
0.6012	298.15	0.003176	0.000241
0.6012	303.15	0.003449	0.000262
0.6012	308.15	0.003767	0.000286
0.6012	313.15	0.004152	0.000316
0.6012	318.15	0.004571	0.000348
0.6012	323.15	0.005006	0.000381
0.6012	328.15	0.005494	0.000418
0.7003	293.15	0.003522	0.000268
0.7003	298.15	0.00383	0.000291
0.7003	303.15	0.004225	0.000321
0.7003	308.15	0.004659	0.000354
0.7003	313.15	0.005074	0.000386
0.7003	318.15	0.005746	0.000437
0.7003	323.15	0.006372	0.000484
0.7003	328.15	0.007085	0.000539
0.7899	293.15	0.004947	0.000376
0.7899	298.15	0.005503	0.000418
0.7899	303.15	0.006054	0.00046
0.7899	308.15	0.006878	0.000523
0.7899	313.15	0.007772	0.000591
0.7899	318.15	0.008621	0.000655
0.7899	323.15	0.009515	0.000723
0.7899	328.15	0.01061	0.00081
0.8959	293.15	0.006539	0.000497
0.8959	298.15	0.007332	0.000557
0.8959	303.15	0.008277	0.000629
0.8959	308.15	0.009354	0.000711
0.8959	313.15	0.01051	0.0008
0.8959	318.15	0.01195	0.00091
0.8959	323.15	0.01366	0.00104
0.8959	328.15	0.01547	0.00118
1	293.15	0.007222	0.000549
1	298.15	0.008075	0.000614
1	303.15	0.009133	0.000694
1	308.15	0.01035	0.00079
1	313.15	0.0117	0.00089
1	318.15	0.01323	0.00101
1	323.15	0.01485	0.00113
1	328.15	0.01674	0.00127

System: Quinocetone + dimethylformamide + water; phases: Liquid, Crystal
Fixed: Pressure, kPa = 101.2
Property: Mole fraction of Quinocetone (Liquid); method: Chromatography
Solvent: Mass fraction of dimethylformamide	Temperature, K	Mole fraction of Quinocetone	uncertainty
0	283.15	2.487e-06	1.89e-07
0	288.15	2.928e-06	2.23e-07
0	293.15	3.395e-06	2.58e-07
0	298.15	3.954e-06	3.01e-07
0	303.15	4.621e-06	3.51e-07
0	308.15	5.322e-06	4.05e-07
0	313.15	6.121e-06	4.65e-07
0	318.15	6.997e-06	5.32e-07
0	323.15	7.965e-06	6.06e-07
0	328.15	9.03e-06	6.87e-07
0.0999	283.15	8.3e-05	6.38e-06
0.0999	288.15	9.31e-05	7.08e-06
0.0999	293.15	0.0001032	7.8e-06
0.0999	298.15	0.0001148	8.7e-06
0.0999	303.15	0.0001282	9.7e-06
0.0999	308.15	0.0001415	1.08e-05
0.0999	313.15	0.0001562	1.19e-05
0.0999	318.15	0.0001717	1.31e-05
0.0999	323.15	0.0001881	1.43e-05
0.0999	328.15	0.0002057	1.58e-05
0.2005	283.15	0.0005346	4.06e-05
0.2005	288.15	0.0005875	4.47e-05
0.2005	293.15	0.0006401	4.87e-05
0.2005	298.15	0.0006983	5.31e-05
0.2005	303.15	0.0007651	5.82e-05
0.2005	308.15	0.0008294	6.31e-05
0.2005	313.15	0.0009006	6.85e-05
0.2005	318.15	0.0009742	7.41e-05
0.2005	323.15	0.001051	8e-05
0.2005	328.15	0.001134	8.6e-05
0.2996	283.15	0.00122	9.3e-05
0.2996	288.15	0.001338	0.000102
0.2996	293.15	0.001457	0.000111
0.2996	298.15	0.001586	0.000121
0.2996	303.15	0.001732	0.000132
0.2996	308.15	0.001873	0.000142
0.2996	313.15	0.002031	0.000154
0.2996	318.15	0.002194	0.000167
0.2996	323.15	0.002362	0.00018
0.2996	328.15	0.002548	0.000194
0.4012	283.15	0.001609	0.000122
0.4012	288.15	0.001777	0.000135
0.4012	293.15	0.001955	0.000149
0.4012	298.15	0.00214	0.000163
0.4012	303.15	0.00235	0.000179
0.4012	308.15	0.002559	0.000195
0.4012	313.15	0.002793	0.000212
0.4012	318.15	0.003037	0.000231
0.4012	323.15	0.003291	0.00025
0.4012	328.15	0.003577	0.000272
0.5011	283.15	0.001769	0.000135
0.5011	288.15	0.001974	0.00015
0.5011	293.15	0.002198	0.000167
0.5011	298.15	0.002429	0.000185
0.5011	303.15	0.00269	0.000205
0.5011	308.15	0.002954	0.000225
0.5011	313.15	0.003254	0.000247
0.5011	318.15	0.003572	0.000272
0.5011	323.15	0.003904	0.000297
0.5011	328.15	0.004285	0.000326
0.5989	283.15	0.002027	0.000154
0.5989	288.15	0.002284	0.000174
0.5989	293.15	0.002571	0.000195
0.5989	298.15	0.002866	0.000218
0.5989	303.15	0.003197	0.000243
0.5989	308.15	0.00354	0.000269
0.5989	313.15	0.003932	0.000299
0.5989	318.15	0.004352	0.000331
0.5989	323.15	0.004795	0.000365
0.5989	328.15	0.00531	0.000404
0.7021	283.15	0.002639	0.000201
0.7021	288.15	0.003004	0.000228
0.7021	293.15	0.003425	0.00026
0.7021	298.15	0.003852	0.000293
0.7021	303.15	0.004329	0.000329
0.7021	308.15	0.004834	0.000368
0.7021	313.15	0.00534	0.000406
0.7021	318.15	0.005969	0.000454
0.7021	323.15	0.006631	0.000504
0.7021	328.15	0.007417	0.000564
0.8002	283.15	0.003836	0.000292
0.8002	288.15	0.004379	0.000333
0.8002	293.15	0.005017	0.000381
0.8002	298.15	0.005655	0.00043
0.8002	303.15	0.006369	0.000484
0.8002	308.15	0.007133	0.000542
0.8002	313.15	0.008019	0.00061
0.8002	318.15	0.008984	0.000683
0.8002	323.15	0.01001	0.00076
0.8002	328.15	0.01124	0.00085
0.8979	283.15	0.004761	0.000362
0.8979	288.15	0.005474	0.000416
0.8979	293.15	0.006474	0.000492
0.8979	298.15	0.00744	0.000566
0.8979	303.15	0.00854	0.000649
0.8979	308.15	0.009708	0.000738
0.8979	313.15	0.01102	0.00084
0.8979	318.15	0.01233	0.00094
0.8979	323.15	0.01394	0.00106
0.8979	328.15	0.01595	0.00121
1	283.15	0.005495	0.000418
1	288.15	0.006386	0.000486
1	293.15	0.007477	0.000569
1	298.15	0.008562	0.000651
1	303.15	0.009776	0.000743
1	308.15	0.01112	0.00085
1	313.15	0.0127	0.00097
1	318.15	0.01446	0.0011
1	323.15	0.01635	0.00124
1	328.15	0.01867	0.00142

System: Quinocetone + water; phases: Liquid, Crystal
Fixed: Pressure, kPa = 101.2
Property: Mole fraction of Quinocetone (Liquid); method: Chromatography
Temperature, K	Mole fraction of Quinocetone	uncertainty
283.15	2.487e-06	1.89e-07
288.15	2.928e-06	2.23e-07
293.15	3.395e-06	2.58e-07
298.15	3.954e-06	3.01e-07
303.15	4.621e-06	3.51e-07
308.15	5.322e-06	4.05e-07
313.15	6.121e-06	4.65e-07
318.15	6.997e-06	5.32e-07
323.15	7.965e-06	6.06e-07
328.15	9.03e-06	6.87e-07

System: Quinocetone + ethanol; phases: Liquid, Crystal
Fixed: Pressure, kPa = 101.2
Property: Mole fraction of Quinocetone (Liquid); method: Chromatography
Temperature, K	Mole fraction of Quinocetone	uncertainty
283.15	9.806e-05	7.46e-06
288.15	0.0001228	9.3e-06
293.15	0.0001507	1.15e-05
298.15	0.0001898	1.44e-05
303.15	0.0002331	1.77e-05
308.15	0.0002883	2.19e-05
313.15	0.0003508	2.67e-05
318.15	0.0004247	3.23e-05
323.15	0.0005125	3.9e-05
328.15	0.0006108	4.64e-05

System: Quinocetone + propan-2-ol; phases: Liquid, Crystal
Fixed: Pressure, kPa = 101.2
Property: Mole fraction of Quinocetone (Liquid); method: Chromatography
Temperature, K	Mole fraction of Quinocetone	uncertainty
283.15	8.139e-05	6.19e-06
288.15	0.0001042	7.9e-06
293.15	0.0001331	1.01e-05
298.15	0.00017	1.29e-05
303.15	0.000217	1.65e-05
308.15	0.0002776	2.11e-05
313.15	0.0003478	2.65e-05
318.15	0.0004374	3.33e-05
323.15	0.0005409	4.11e-05
328.15	0.0006684	5.08e-05

System: Quinocetone + dimethyl sulfoxide; phases: Liquid, Crystal
Fixed: Pressure, kPa = 101.2
Property: Mole fraction of Quinocetone (Liquid); method: Chromatography
Temperature, K	Mole fraction of Quinocetone	uncertainty
293.15	0.007222	0.000549
298.15	0.008075	0.000614
303.15	0.009133	0.000694
308.15	0.01035	0.00079
313.15	0.0117	0.00089
318.15	0.01323	0.00101
323.15	0.01485	0.00113
328.15	0.01674	0.00127

System: Quinocetone + dimethylformamide; phases: Liquid, Crystal
Fixed: Pressure, kPa = 101.2
Property: Mole fraction of Quinocetone (Liquid); method: Chromatography
Temperature, K	Mole fraction of Quinocetone	uncertainty
283.15	0.005495	0.000418
288.15	0.006386	0.000486
293.15	0.007477	0.000569
298.15	0.008562	0.000651
303.15	0.009776	0.000743
308.15	0.01112	0.00085
313.15	0.0127	0.00097
318.15	0.01446	0.0011
323.15	0.01635	0.00124
328.15	0.01867	0.00142
