Measured thermophysical data. Experimental measurements and thermodynamic modelling of aqueous solubilities, octanol-water partition coefficients and vapor pressures of dimethyl phthalate and butyl benzyl phthalate
Source: J. Chem. Thermodyn., 2019, 10.1016/j.jct.2018.11.015
Compound 1: dimethyl 1,2-benzenedicarboxylate, C10H10O4, InChI=1S/C10H10O4/c1-13-9(11)7-5-3-4-6-8(7)10(12)14-2/h3-6H,1-2H3, purity 99%
Compound 2: benzyl butyl 1,2-benzenedioate, C19H20O4, InChI=1S/C19H20O4/c1-2-3-13-22-18(20)16-11-7-8-12-17(16)19(21)23-14-15-9-5-4-6-10-15/h4-12H,2-3,13-14H2,1H3, purity 98%
Compound 3: octan-1-ol, C8H18O, InChI=1S/C8H18O/c1-2-3-4-5-6-7-8-9/h9H,2-8H2,1H3, purity 99.9%
Compound 4: water, H2O, InChI=1S/H2O/h1H2, purity 99.9%

System: dimethyl 1,2-benzenedicarboxylate; phases: Liquid, Gas
Property: Vapor or sublimation pressure, kPa (Liquid); method: Transpiration method
Temperature, K	Vapor or sublimation pressure, kPa	uncertainty
313.15	0.00141	0.00023
333.15	0.00789	0.00067
353.15	0.0332	0.0022
373.15	0.122	0.007
393.15	0.391	0.024
423.15	1.668	0.09

System: dimethyl 1,2-benzenedicarboxylate; phases: Liquid, Gas
Property: Vapor or sublimation pressure, kPa (Liquid); method: Closed cell (Static) method
Temperature, K	Vapor or sublimation pressure, kPa	uncertainty
350.9	0.0297	0.0019
361.52	0.0589	0.0037
371.6	0.1104	0.0069
381.69	0.1986	0.0122
391.77	0.3453	0.021
401.71	0.5751	0.0349
411.72	0.9413	0.0385
421.57	1.491	0.06

System: benzyl butyl 1,2-benzenedioate; phases: Liquid, Gas
Property: Vapor or sublimation pressure, kPa (Liquid); method: Transpiration method
Temperature, K	Vapor or sublimation pressure, kPa	uncertainty
343.15	1.4e-05	2e-06
353.15	5.6e-05	9e-06
373.15	0.00039	5e-05
393.15	0.0022	0.00031
423.15	0.0238	0.0034

System: dimethyl 1,2-benzenedicarboxylate + water; phases: Liquid mixture 1, Liquid mixture 2
Fixed: Pressure, kPa = 100
Property: Mole fraction of dimethyl 1,2-benzenedicarboxylate (Liquid mixture 1); method: Chromatography
Temperature, K	Mole fraction of dimethyl 1,2-benzenedicarboxylate	uncertainty
298.15	0.000402	1.7e-05
303.15	0.000435	2.4e-05
308.15	0.000469	2.1e-05
313.15	0.000497	2.5e-05
318.15	0.000516	2.1e-05
323.15	0.000547	2.3e-05
328.15	0.000573	2.2e-05

System: benzyl butyl 1,2-benzenedioate + water; phases: Liquid mixture 1, Liquid mixture 2
Fixed: Pressure, kPa = 100
Property: Mole fraction of benzyl butyl 1,2-benzenedioate (Liquid mixture 1); method: Chromatography
Temperature, K	Mole fraction of benzyl butyl 1,2-benzenedioate	uncertainty
298.15	1.3e-07	1.7e-08
303.15	1.54e-07	2e-08
310.15	1.89e-07	2.8e-08
315.15	2.1e-07	2.7e-08
320.15	2.35e-07	3e-08
328.15	2.8e-07	3.7e-08

System: dimethyl 1,2-benzenedicarboxylate + octan-1-ol + water; phases: Liquid, Liquid
Property: Mass concentration, kg/m3 of dimethyl 1,2-benzenedicarboxylate (Liquid); method: Chromatography
Ratio of mass of solute to volume of solution, kg/m3 of dimethyl 1,2-benzenedicarboxylate	Temperature, K	Pressure, kPa	Mass concentration, kg/m3 of dimethyl 1,2-benzenedicarboxylate	uncertainty
0.0247	298.15	100	0.83	0.036

System: benzyl butyl 1,2-benzenedioate + octan-1-ol + water; phases: Liquid, Liquid
Property: Mass concentration, kg/m3 of benzyl butyl 1,2-benzenedioate (Liquid); method: Chromatography
Ratio of mass of solute to volume of solution, kg/m3 of benzyl butyl 1,2-benzenedioate	Temperature, K	Pressure, kPa	Mass concentration, kg/m3 of benzyl butyl 1,2-benzenedioate	uncertainty
7.1e-05	298.15	100	2.685	0.09
