Measured thermophysical data. Solubility of Dihydroxylammonium 5,5'-Bistetrazole-1,1'-diolate in (formic acid, water) and their binary solvents from 298.15 K to 333.15 K at 101.1 kPa
Source: J. Chem. Thermodyn., 2019, 10.1016/j.jct.2018.07.030
Compound 1: hydroxylammonium 1H,1'H-[5,5'-bitetrazole]-1,1'-bis(olate), C2H8N10O4, InChI=1S/C2N8O2.2H4NO/c11-9-1(3-5-7-9)2-4-6-8-10(2)12;2*1-2/h;2*2H,1H3/q-2;2*+1
Compound 2: formic acid, CH2O2, InChI=1S/CH2O2/c2-1-3/h1H,(H,2,3)
Compound 3: water, H2O, InChI=1S/H2O/h1H2

System: hydroxylammonium 1H,1'H-[5,5'-bitetrazole]-1,1'-bis(olate) + formic acid + water; phases: Liquid, Crystal
Fixed: Pressure, kPa = 101.1
Property: Mole fraction of hydroxylammonium 1H,1'H-[5,5'-bitetrazole]-1,1'-bis(olate) (Liquid); method: Titration method
Temperature, K	Solvent: Mass fraction of water	Mole fraction of hydroxylammonium 1H,1'H-[5,5'-bitetrazole]-1,1'-bis(olate)	uncertainty
298.15	0	0.001447	0.000145
303.15	0	0.001611	0.000161
308.15	0	0.001796	0.00018
313.15	0	0.00201	0.000201
318.15	0	0.002249	0.000225
323.15	0	0.002544	0.000255
328.15	0	0.002868	0.000287
333.15	0	0.00325	0.000325
298.15	0.2901	0.0008862	8.89e-05
303.15	0.2901	0.001075	0.000108
308.15	0.2901	0.001259	0.000126
313.15	0.2901	0.001415	0.000142
318.15	0.2901	0.001614	0.000162
323.15	0.2901	0.001824	0.000183
328.15	0.2901	0.002056	0.000206
333.15	0.2901	0.002345	0.000235
298.15	0.4497	0.0007087	7.11e-05
303.15	0.4497	0.0008517	8.55e-05
308.15	0.4497	0.001006	0.000101
313.15	0.4497	0.001175	0.000118
318.15	0.4497	0.00135	0.000135
323.15	0.4497	0.001539	0.000154
328.15	0.4497	0.001749	0.000175
333.15	0.4497	0.001967	0.000197
298.15	0.6204	0.0005778	5.8e-05
303.15	0.6204	0.0006682	6.7e-05
308.15	0.6204	0.0007814	7.84e-05
313.15	0.6204	0.0008996	9.03e-05
318.15	0.6204	0.001059	0.000106
323.15	0.6204	0.001252	0.000126
328.15	0.6204	0.001466	0.000147
333.15	0.6204	0.001705	0.000171
298.15	0.7103	0.0004676	4.7e-05
303.15	0.7103	0.0005675	5.69e-05
308.15	0.7103	0.0006491	6.51e-05
313.15	0.7103	0.0007294	7.31e-05
318.15	0.7103	0.0008285	8.31e-05
323.15	0.7103	0.000945	9.48e-05
328.15	0.7103	0.001058	0.000106
333.15	0.7103	0.001178	0.000119
298.15	0.7658	0.0004193	4.23e-05
303.15	0.7658	0.0005127	5.15e-05
308.15	0.7658	0.0006018	6.03e-05
313.15	0.7658	0.0006858	6.87e-05
318.15	0.7658	0.0007775	7.79e-05
323.15	0.7658	0.0008717	8.74e-05
328.15	0.7658	0.001014	0.000102
333.15	0.7658	0.001123	0.000112
298.15	0.8034	0.0003356	3.4e-05
303.15	0.8034	0.0004283	4.31e-05
308.15	0.8034	0.0005268	5.29e-05
313.15	0.8034	0.0006355	6.37e-05
318.15	0.8034	0.0007413	7.43e-05
323.15	0.8034	0.0008219	8.23e-05
328.15	0.8034	0.0009642	9.66e-05
333.15	0.8034	0.001078	0.000108
298.15	1	7.959e-05	8.51e-06
303.15	1	0.0001551	1.58e-05
308.15	1	0.0002396	2.42e-05
313.15	1	0.0003174	3.19e-05
318.15	1	0.0004035	4.05e-05
323.15	1	0.0004893	4.91e-05
328.15	1	0.0005798	5.81e-05
333.15	1	0.0006648	6.66e-05

System: hydroxylammonium 1H,1'H-[5,5'-bitetrazole]-1,1'-bis(olate) + formic acid; phases: Liquid, Crystal
Fixed: Pressure, kPa = 101.1
Property: Mole fraction of hydroxylammonium 1H,1'H-[5,5'-bitetrazole]-1,1'-bis(olate) (Liquid); method: Titration method
Temperature, K	Mole fraction of hydroxylammonium 1H,1'H-[5,5'-bitetrazole]-1,1'-bis(olate)	uncertainty
298.15	0.001447	0.000145
303.15	0.001611	0.000161
308.15	0.001796	0.00018
313.15	0.00201	0.000201
318.15	0.002249	0.000225
323.15	0.002544	0.000255
328.15	0.002868	0.000287
333.15	0.00325	0.000325

System: hydroxylammonium 1H,1'H-[5,5'-bitetrazole]-1,1'-bis(olate) + formic acid; phases: Liquid, Crystal
Fixed: Pressure, kPa = 101.1
Property: Mole fraction of hydroxylammonium 1H,1'H-[5,5'-bitetrazole]-1,1'-bis(olate) (Liquid); method: gravimetric method
Temperature, K	Mole fraction of hydroxylammonium 1H,1'H-[5,5'-bitetrazole]-1,1'-bis(olate)	uncertainty
303.15	0.001644	0.000165
318.15	0.002309	0.000231

System: hydroxylammonium 1H,1'H-[5,5'-bitetrazole]-1,1'-bis(olate) + water; phases: Liquid, Crystal
Fixed: Pressure, kPa = 101.1
Property: Mole fraction of hydroxylammonium 1H,1'H-[5,5'-bitetrazole]-1,1'-bis(olate) (Liquid); method: Titration method
Temperature, K	Mole fraction of hydroxylammonium 1H,1'H-[5,5'-bitetrazole]-1,1'-bis(olate)	uncertainty
298.15	7.959e-05	8.51e-06
303.15	0.0001551	1.58e-05
308.15	0.0002396	2.42e-05
313.15	0.0003174	3.19e-05
318.15	0.0004035	4.05e-05
323.15	0.0004893	4.91e-05
328.15	0.0005798	5.81e-05
333.15	0.0006648	6.66e-05

System: hydroxylammonium 1H,1'H-[5,5'-bitetrazole]-1,1'-bis(olate) + water; phases: Liquid, Crystal
Fixed: Pressure, kPa = 101.1
Property: Mole fraction of hydroxylammonium 1H,1'H-[5,5'-bitetrazole]-1,1'-bis(olate) (Liquid); method: gravimetric method
Temperature, K	Mole fraction of hydroxylammonium 1H,1'H-[5,5'-bitetrazole]-1,1'-bis(olate)	uncertainty
308.15	0.0002532	2.56e-05
318.15	0.0004232	4.25e-05
