Measured thermophysical data. Volumetric properties of (cyclohexanone + a xylene) at temperature between (293.15 and 353.15) K
Source: J. Chem. Thermodyn., 2004, 10.1016/j.jct.2004.03.013
Compound 1: cyclohexanone, C6H10O, InChI=1S/C6H10O/c7-6-4-2-1-3-5-6/h1-5H2
Compound 2: 1,2-dimethylbenzene, C8H10, InChI=1S/C8H10/c1-7-5-3-4-6-8(7)2/h3-6H,1-2H3
Compound 3: 1,3-dimethylbenzene, C8H10, InChI=1S/C8H10/c1-7-4-3-5-8(2)6-7/h3-6H,1-2H3
Compound 4: 1,4-dimethylbenzene, C8H10, InChI=1S/C8H10/c1-7-3-5-8(2)6-4-7/h3-6H,1-2H3

System: cyclohexanone; phases: Liquid
Property: Refractive index (Na D-line) (Liquid); method: Standard Abbe refractometry
Temperature, K	Pressure, kPa	Refractive index (Na D-line)	uncertainty
293.1	101.325	1.4507	0.0007

System: cyclohexanone; phases: Liquid
Property: Mass density, kg/m3 (Liquid); method: VIBTUB:UFactor:4
Temperature, K	Pressure, kPa	Mass density, kg/m3	uncertainty
298.15	101.325	941.7	0.24

System: 1,2-dimethylbenzene; phases: Liquid
Property: Refractive index (Na D-line) (Liquid); method: Standard Abbe refractometry
Temperature, K	Pressure, kPa	Refractive index (Na D-line)	uncertainty
293.1	101.325	1.5057	0.0008

System: 1,2-dimethylbenzene; phases: Liquid
Property: Mass density, kg/m3 (Liquid); method: VIBTUB:UFactor:4
Temperature, K	Pressure, kPa	Mass density, kg/m3	uncertainty
298.15	101.325	875.73	0.35

System: 1,3-dimethylbenzene; phases: Liquid
Property: Refractive index (Na D-line) (Liquid); method: Standard Abbe refractometry
Temperature, K	Pressure, kPa	Refractive index (Na D-line)	uncertainty
293.1	101.325	1.4973	0.0008

System: 1,3-dimethylbenzene; phases: Liquid
Property: Mass density, kg/m3 (Liquid); method: VIBTUB:UFactor:4
Temperature, K	Pressure, kPa	Mass density, kg/m3	uncertainty
298.15	101.325	859.83	0.94

System: 1,4-dimethylbenzene; phases: Liquid
Property: Refractive index (Na D-line) (Liquid); method: Standard Abbe refractometry
Temperature, K	Pressure, kPa	Refractive index (Na D-line)	uncertainty
293.1	101.325	1.49577	0.00075

System: 1,4-dimethylbenzene; phases: Liquid
Property: Mass density, kg/m3 (Liquid); method: VIBTUB:UFactor:4
Temperature, K	Pressure, kPa	Mass density, kg/m3	uncertainty
298.15	101.325	856.58	0.56

System: 1,2-dimethylbenzene + cyclohexanone; phases: Liquid
Fixed: Pressure, kPa = 101.3
Property: Excess molar volume, m3/mol (Liquid); method: Calculated with densities of this investigation
Temperature, K	Mole fraction of 1,2-dimethylbenzene	Excess molar volume, m3/mol	uncertainty
293.15	0.0895	1.45e-08	7.8e-09
293.15	0.1138	1.94e-08	7.8e-09
293.15	0.1814	2.5e-08	7.8e-09
293.15	0.2678	3.13e-08	7.8e-09
293.15	0.3547	3.18e-08	7.8e-09
293.15	0.4146	2.75e-08	7.8e-09
293.15	0.4701	2.54e-08	7.8e-09
293.15	0.5364	1.85e-08	7.8e-09
293.15	0.609	8.3e-09	7.8e-09
293.15	0.6453	6.5e-09	7.8e-09
293.15	0.7047	-2.1e-09	7.8e-09
293.15	0.7646	-7.6e-09	7.8e-09
293.15	0.8368	-9.2e-09	7.8e-09
293.15	0.9157	-1.05e-08	7.8e-09
303.15	0.0901	1.54e-08	7.8e-09
303.15	0.1453	2.44e-08	7.8e-09
303.15	0.1925	2.95e-08	7.8e-09
303.15	0.2755	3.45e-08	7.8e-09
303.15	0.3427	3.68e-08	7.8e-09
303.15	0.4146	3.28e-08	7.8e-09
303.15	0.4638	3.04e-08	7.8e-09
303.15	0.5152	2.35e-08	7.8e-09
303.15	0.6129	1.38e-08	7.8e-09
303.15	0.7063	3.6e-09	7.8e-09
303.15	0.8254	-5.1e-09	7.8e-09
303.15	0.9167	-5.8e-09	7.8e-09
313.15	0.0905	1.54e-08	7.8e-09
313.15	0.1488	2.49e-08	7.8e-09
313.15	0.2171	3.52e-08	7.8e-09
313.15	0.2845	3.63e-08	7.8e-09
313.15	0.3677	3.81e-08	7.8e-09
313.15	0.4233	3.65e-08	7.8e-09
313.15	0.4771	3.25e-08	7.8e-09
313.15	0.5463	2.65e-08	7.8e-09
313.15	0.5927	2.18e-08	7.8e-09
313.15	0.6572	1.5e-08	7.8e-09
313.15	0.7389	6.1e-09	7.8e-09
313.15	0.8524	-1.8e-09	7.8e-09
313.15	0.9376	-2.9e-09	7.8e-09
323.15	0.0899	1.54e-08	7.8e-09
323.15	0.1477	2.49e-08	7.8e-09
323.15	0.2035	3.2e-08	7.8e-09
323.15	0.2755	3.73e-08	7.8e-09
323.15	0.3604	4.08e-08	7.8e-09
323.15	0.4122	3.95e-08	7.8e-09
323.15	0.4646	3.74e-08	7.8e-09
323.15	0.5298	3.28e-08	7.8e-09
323.15	0.5932	2.73e-08	7.8e-09
323.15	0.6633	2.05e-08	7.8e-09
323.15	0.7101	1.47e-08	7.8e-09
323.15	0.7833	7.6e-09	7.8e-09
323.15	0.8471	2e-09	7.8e-09
323.15	0.9233	4e-10	7.7e-09
333.15	0.0783	1.37e-08	7.8e-09
333.15	0.1634	2.72e-08	7.8e-09
333.15	0.2697	3.95e-08	7.8e-09
333.15	0.3174	4.23e-08	7.8e-09
333.15	0.3558	4.43e-08	7.8e-09
333.15	0.4122	4.45e-08	7.8e-09
333.15	0.4789	4.25e-08	7.8e-09
333.15	0.5145	4.15e-08	7.8e-09
333.15	0.5809	3.5e-08	7.8e-09
333.15	0.6314	3.05e-08	7.8e-09
333.15	0.7032	2.21e-08	7.8e-09
333.15	0.7852	1.36e-08	7.8e-09
333.15	0.842	9.1e-09	7.8e-09
333.15	0.9363	2.5e-09	7.8e-09
343.15	0.0933	1.71e-08	7.8e-09
343.15	0.1255	2.32e-08	7.8e-09
343.15	0.1932	3.5e-08	7.8e-09
343.15	0.2768	4.33e-08	7.8e-09
343.15	0.3447	4.81e-08	7.9e-09
343.15	0.4026	5.08e-08	7.9e-09
343.15	0.4688	4.94e-08	7.9e-09
343.15	0.5363	4.85e-08	7.9e-09
343.15	0.6089	4.03e-08	7.8e-09
343.15	0.6845	3.25e-08	7.8e-09
343.15	0.7534	2.51e-08	7.8e-09
343.15	0.8232	1.71e-08	7.8e-09
343.15	0.9035	9.2e-09	7.8e-09
353.15	0.0847	1.65e-08	7.8e-09
353.15	0.1534	2.94e-08	7.8e-09
353.15	0.2177	4.05e-08	7.8e-09
353.15	0.2877	4.83e-08	7.9e-09
353.15	0.3662	5.38e-08	7.9e-09
353.15	0.4129	5.45e-08	7.9e-09
353.15	0.4678	5.42e-08	7.9e-09
353.15	0.5237	5.25e-08	7.9e-09
353.15	0.5989	4.63e-08	7.9e-09
353.15	0.6388	4.26e-08	7.8e-09
353.15	0.7024	3.6e-08	7.8e-09
353.15	0.7833	2.53e-08	7.8e-09
353.15	0.8573	1.7e-08	7.8e-09
353.15	0.9255	9.3e-09	7.8e-09

System: 1,3-dimethylbenzene + cyclohexanone; phases: Liquid
Fixed: Pressure, kPa = 101.3
Property: Excess molar volume, m3/mol (Liquid); method: Calculated with densities of this investigation
Temperature, K	Mole fraction of 1,3-dimethylbenzene	Excess molar volume, m3/mol	uncertainty
293.15	0.0745	2.75e-08	7.8e-09
293.15	0.1286	3.94e-08	7.8e-09
293.15	0.1834	4.52e-08	7.9e-09
293.15	0.2578	4.63e-08	7.9e-09
293.15	0.3385	3.81e-08	7.8e-09
293.15	0.4159	2.57e-08	7.8e-09
293.15	0.4689	1.34e-08	7.8e-09
293.15	0.5098	5.5e-09	7.8e-09
293.15	0.5899	-1.55e-08	7.8e-09
293.15	0.6488	-2.38e-08	7.8e-09
293.15	0.7146	-3.52e-08	7.8e-09
293.15	0.7647	-3.76e-08	7.8e-09
293.15	0.8345	-3.92e-08	7.8e-09
293.15	0.9203	-2.05e-08	7.8e-09
303.15	0.0834	3.15e-08	7.8e-09
303.15	0.1779	4.77e-08	7.9e-09
303.15	0.2483	4.95e-08	7.9e-09
303.15	0.311	4.59e-08	7.9e-09
303.15	0.3945	3.38e-08	7.8e-09
303.15	0.4655	1.82e-08	7.8e-09
303.15	0.5398	3e-09	7.8e-09
303.15	0.6034	-1.01e-08	7.8e-09
303.15	0.6732	-2.14e-08	7.8e-09
303.15	0.7408	-2.75e-08	7.8e-09
303.15	0.8254	-2.91e-08	7.8e-09
303.15	0.8723	-2.58e-08	7.8e-09
303.15	0.9367	-1.58e-08	7.8e-09
313.15	0.0985	3.45e-08	7.8e-09
313.15	0.1248	3.94e-08	7.8e-09
313.15	0.1978	5.05e-08	7.9e-09
313.15	0.2898	5.13e-08	7.9e-09
313.15	0.3579	4.38e-08	7.8e-09
313.15	0.4075	3.65e-08	7.8e-09
313.15	0.4672	2.54e-08	7.8e-09
313.15	0.5371	1.05e-08	7.8e-09
313.15	0.5912	3e-10	7.7e-09
313.15	0.6578	-1.05e-08	7.8e-09
313.15	0.7043	-1.71e-08	7.8e-09
313.15	0.7836	-2.19e-08	7.8e-09
313.15	0.8548	-1.92e-08	7.8e-09
313.15	0.9329	-1.27e-08	7.8e-09
323.15	0.0923	3.45e-08	7.8e-09
323.15	0.1482	4.49e-08	7.9e-09
323.15	0.2045	5.2e-08	7.9e-09
323.15	0.2787	5.31e-08	7.9e-09
323.15	0.3678	4.68e-08	7.9e-09
323.15	0.4133	3.95e-08	7.8e-09
323.15	0.4687	3.04e-08	7.8e-09
323.15	0.5178	2.15e-08	7.8e-09
323.15	0.5923	7.5e-09	7.8e-09
323.15	0.6444	-1.6e-09	7.7e-09
323.15	0.7123	-1.11e-08	7.8e-09
323.15	0.8036	-1.76e-08	7.8e-09
323.15	0.8847	-1.42e-08	7.8e-09
323.15	0.9457	-9.5e-09	7.8e-09
333.15	0.0798	2.95e-08	7.8e-09
333.15	0.1563	4.74e-08	7.9e-09
333.15	0.2104	5.5e-08	7.9e-09
333.15	0.2846	5.53e-08	7.9e-09
333.15	0.3567	5.18e-08	7.9e-09
333.15	0.4028	4.75e-08	7.9e-09
333.15	0.4657	3.54e-08	7.8e-09
333.15	0.5234	2.85e-08	7.8e-09
333.15	0.609	1.13e-08	7.8e-09
333.15	0.6872	1.5e-09	7.7e-09
333.15	0.7522	-6.8e-09	7.8e-09
333.15	0.8234	-1.06e-08	7.8e-09
333.15	0.9102	-9.2e-09	7.8e-09
343.15	0.0892	3.25e-08	7.8e-09
343.15	0.1478	4.84e-08	7.9e-09
343.15	0.2043	5.5e-08	7.9e-09
343.15	0.2846	6.1e-08	7.9e-09
343.15	0.3638	5.68e-08	7.9e-09
343.15	0.4137	5.05e-08	7.9e-09
343.15	0.4878	4.04e-08	7.8e-09
343.15	0.5379	3.25e-08	7.8e-09
343.15	0.6092	2.08e-08	7.8e-09
343.15	0.6628	1.25e-08	7.8e-09
343.15	0.7043	6.1e-09	7.8e-09
343.15	0.7752	-8e-10	7.7e-09
343.15	0.8532	-5.2e-09	7.8e-09
343.15	0.9207	-4e-09	7.8e-09
353.15	0.0921	3.48e-08	7.8e-09
353.15	0.1628	5.34e-08	7.9e-09
353.15	0.2138	6.09e-08	7.9e-09
353.15	0.2873	6.53e-08	7.9e-09
353.15	0.3561	6.45e-08	7.9e-09
353.15	0.4254	5.7e-08	7.9e-09
353.15	0.4741	5.14e-08	7.9e-09
353.15	0.5298	4.2e-08	7.8e-09
353.15	0.6049	2.83e-08	7.8e-09
353.15	0.6673	1.95e-08	7.8e-09
353.15	0.7236	1.21e-08	7.8e-09
353.15	0.7923	4.6e-09	7.8e-09
353.15	0.8576	1.2e-09	7.7e-09
353.15	0.9347	5e-10	7.7e-09

System: 1,4-dimethylbenzene + cyclohexanone; phases: Liquid
Fixed: Pressure, kPa = 101.3
Property: Excess molar volume, m3/mol (Liquid); method: Calculated with densities of this investigation
Temperature, K	Mole fraction of 1,4-dimethylbenzene	Excess molar volume, m3/mol	uncertainty
293.15	0.0924	1.95e-08	7.8e-09
293.15	0.1647	2.83e-08	7.8e-09
293.15	0.2258	2.59e-08	7.8e-09
293.15	0.2845	2.41e-08	7.8e-09
293.15	0.3589	1.21e-08	7.8e-09
293.15	0.4237	-5e-10	7.7e-09
293.15	0.4957	-1.62e-08	7.8e-09
293.15	0.5528	-2.84e-08	7.8e-09
293.15	0.6124	-3.92e-08	7.8e-09
293.15	0.6822	-4.59e-08	7.9e-09
293.15	0.7244	-4.88e-08	7.9e-09
293.15	0.7932	-4.89e-08	7.9e-09
293.15	0.8624	-4.12e-08	7.8e-09
293.15	0.9487	-1.83e-08	7.8e-09
303.15	0.0631	1.54e-08	7.8e-09
303.15	0.1258	2.44e-08	7.8e-09
303.15	0.1842	2.95e-08	7.8e-09
303.15	0.2771	2.45e-08	7.8e-09
303.15	0.3583	1.68e-08	7.8e-09
303.15	0.4257	2.8e-09	7.8e-09
303.15	0.4839	-9.1e-09	7.8e-09
303.15	0.5589	-2.35e-08	7.8e-09
303.15	0.6357	-3.83e-08	7.8e-09
303.15	0.6841	-4.01e-08	7.8e-09
303.15	0.7523	-4.51e-08	7.9e-09
303.15	0.8032	-4.26e-08	7.8e-09
303.15	0.8813	-3.16e-08	7.8e-09
303.15	0.9534	-1.48e-08	7.8e-09
313.15	0.0793	1.85e-08	7.8e-09
313.15	0.1423	2.84e-08	7.8e-09
313.15	0.2189	3.05e-08	7.8e-09
313.15	0.2738	2.93e-08	7.8e-09
313.15	0.3687	1.83e-08	7.8e-09
313.15	0.4234	7.5e-09	7.8e-09
313.15	0.4871	-4e-09	7.8e-09
313.15	0.5311	-1.21e-08	7.8e-09
313.15	0.6032	-2.45e-08	7.8e-09
313.15	0.6834	-3.31e-08	7.8e-09
313.15	0.7598	-3.67e-08	7.8e-09
313.15	0.8388	-3.31e-08	7.8e-09
313.15	0.9158	-2.22e-08	7.8e-09
323.15	0.0683	1.65e-08	7.8e-09
323.15	0.1387	2.84e-08	7.8e-09
323.15	0.1944	3.13e-08	7.8e-09
323.15	0.2843	3.01e-08	7.8e-09
323.15	0.3623	2.08e-08	7.8e-09
323.15	0.4134	1.35e-08	7.8e-09
323.15	0.4732	2.9e-09	7.8e-09
323.15	0.5248	-5.9e-09	7.8e-09
323.15	0.6082	-2.01e-08	7.8e-09
323.15	0.6723	-2.82e-08	7.8e-09
323.15	0.7384	-3.11e-08	7.8e-09
323.15	0.8531	-2.76e-08	7.8e-09
323.15	0.9489	-1.19e-08	7.8e-09
333.15	0.0902	2.05e-08	7.8e-09
333.15	0.1423	2.94e-08	7.8e-09
333.15	0.2148	3.25e-08	7.8e-09
333.15	0.2843	3.13e-08	7.8e-09
333.15	0.3765	2.32e-08	7.8e-09
333.15	0.4234	1.75e-08	7.8e-09
333.15	0.4938	5.4e-09	7.8e-09
333.15	0.5421	-1.9e-09	7.8e-09
333.15	0.6133	-1.34e-08	7.8e-09
333.15	0.6455	-1.73e-08	7.8e-09
333.15	0.7249	-2.31e-08	7.8e-09
333.15	0.7832	-2.56e-08	7.8e-09
333.15	0.8634	-2.09e-08	7.8e-09
333.15	0.9457	-1.05e-08	7.8e-09
343.15	0.0743	1.75e-08	7.8e-09
343.15	0.1423	2.83e-08	7.8e-09
343.15	0.2145	3.5e-08	7.8e-09
343.15	0.2843	3.31e-08	7.8e-09
343.15	0.3578	2.83e-08	7.8e-09
343.15	0.4287	2.05e-08	7.8e-09
343.15	0.4927	1.04e-08	7.8e-09
343.15	0.5427	2.5e-09	7.8e-09
343.15	0.6056	-6.3e-09	7.8e-09
343.15	0.6532	-1.15e-08	7.8e-09
343.15	0.7244	-1.71e-08	7.8e-09
343.15	0.7835	-1.76e-08	7.8e-09
343.15	0.8623	-1.62e-08	7.8e-09
343.15	0.9308	-1.02e-08	7.8e-09
353.15	0.0642	1.65e-08	7.8e-09
353.15	0.1393	2.94e-08	7.8e-09
353.15	0.2248	3.75e-08	7.8e-09
353.15	0.2678	3.95e-08	7.8e-09
353.15	0.3408	3.48e-08	7.8e-09
353.15	0.4149	2.75e-08	7.8e-09
353.15	0.4723	2.04e-08	7.8e-09
353.15	0.5234	1.35e-08	7.8e-09
353.15	0.6044	3.1e-09	7.8e-09
353.15	0.6428	-2.5e-09	7.8e-09
353.15	0.7234	-9.2e-09	7.8e-09
353.15	0.8022	-1.26e-08	7.8e-09
353.15	0.8723	-9.2e-09	7.8e-09
353.15	0.9457	-5.7e-09	7.8e-09
