Measured thermophysical data. Liquid-liquid equilibrium study for ternary systems of water + propargyl alcohol + solvents at 308.2 K: Measurement and thermodynamic modelling
Source: J. Chem. Thermodyn., 2019, 10.1016/j.jct.2019.03.033
Compound 1: 2-propyn-1-ol, C3H4O, InChI=1S/C3H4O/c1-2-3-4/h1,4H,3H2, purity 99%
Compound 2: ethyl acetate, C4H8O2, InChI=1S/C4H8O2/c1-3-6-4(2)5/h3H2,1-2H3, purity 99%
Compound 3: 4-methyl-2-pentanol, C6H14O, InChI=1S/C6H14O/c1-5(2)4-6(3)7/h5-7H,4H2,1-3H3, purity 99%
Compound 4: 2-methoxy-2-methylpropane, C5H12O, InChI=1S/C5H12O/c1-5(2,3)6-4/h1-4H3, purity 99%
Compound 5: trichloromethane, CHCl3, InChI=1S/CHCl3/c2-1(3)4/h1H, purity 99%
Compound 6: water, H2O, InChI=1S/H2O/h1H2

System: water + 2-propyn-1-ol + ethyl acetate; phases: Liquid mixture 2, Liquid mixture 1
Fixed: Temperature, K = 308.2
Fixed: Pressure, kPa = 101.3
Property: Mass fraction of water (Liquid mixture 2); method: Chromatography
Property: Mass fraction of ethyl acetate (Liquid mixture 1); method: Chromatography
Property: Mass fraction of water (Liquid mixture 1); method: Chromatography
Mass fraction of ethyl acetate	Mass fraction of water	uncertainty	Mass fraction of ethyl acetate	uncertainty	Mass fraction of water	uncertainty
0.9666	0.0334	0.0075	0.07	0.0076	0.93	
0.7467	0.103	0.0077	0.0895	0.0076	0.8192	
0.6991	0.1208	0.0079	0.1046	0.0075	0.783	
0.6499	0.1444	0.008	0.102	0.0074	0.7669	
0.5971	0.1696	0.0082	0.1133	0.0077	0.734	
0.5449	0.1978	0.0086	0.1242	0.008	0.705	
0.3855	0.3422	0.0106	0.1964	0.0085	0.5784	
0.486	0.2391	0.0099	0.1503	0.0084	0.6543	
0.9156	0.0492	0.0075	0.0806	0.0074	0.8979	
0.8665	0.0611	0.0075	0.0831	0.0073	0.8721	
0.8094	0.0794	0.0076	0.0856	0.0073	0.8468	

System: water + 2-propyn-1-ol + 2-methoxy-2-methylpropane; phases: Liquid mixture 2, Liquid mixture 1
Fixed: Temperature, K = 308.2
Fixed: Pressure, kPa = 101.3
Property: Mass fraction of water (Liquid mixture 2); method: Chromatography
Property: Mass fraction of 2-methoxy-2-methylpropane (Liquid mixture 1); method: Chromatography
Property: Mass fraction of water (Liquid mixture 1); method: Chromatography
Mass fraction of 2-methoxy-2-methylpropane	Mass fraction of water	uncertainty	Mass fraction of 2-methoxy-2-methylpropane	uncertainty	Mass fraction of water	uncertainty
0.9856	0.0144	0.0073	0.0367	0.0073	0.9633	
0.6003	0.1035	0.0075	0.0535	0.0076	0.7297	
0.5617	0.1133	0.0075	0.063	0.0078	0.7068	
0.9552	0.0197	0.0073	0.0342	0.0073	0.9415	
0.9152	0.0262	0.0073	0.0303	0.0072	0.9158	
0.8707	0.0321	0.0073	0.0335	0.0072	0.8855	
0.8138	0.0451	0.0074	0.0351	0.0072	0.8535	
0.7721	0.0528	0.0074	0.0378	0.0073	0.828	
0.7215	0.067	0.0075	0.0409	0.0073	0.8051	
0.6794	0.0801	0.0075	0.0452	0.0073	0.7761	
0.6378	0.0915	0.0075	0.0471	0.0073	0.756	

System: water + 2-propyn-1-ol + 4-methyl-2-pentanol; phases: Liquid mixture 2, Liquid mixture 1
Fixed: Temperature, K = 308.2
Fixed: Pressure, kPa = 101.3
Property: Mass fraction of water (Liquid mixture 2); method: Chromatography
Property: Mass fraction of 4-methyl-2-pentanol (Liquid mixture 1); method: Chromatography
Property: Mass fraction of water (Liquid mixture 1); method: Chromatography
Mass fraction of 4-methyl-2-pentanol	Mass fraction of water	uncertainty	Mass fraction of 4-methyl-2-pentanol	uncertainty	Mass fraction of water	uncertainty
0.9385	0.0615	0.0073	0.0156	0.0073	0.9844	
0.5702	0.1635	0.0077	0.0418	0.0072	0.7026	
0.9019	0.0676	0.0073	0.0217	0.0073	0.9445	
0.8693	0.0741	0.0074	0.0275	0.0072	0.9094	
0.8284	0.0822	0.0074	0.0273	0.0072	0.8776	
0.7942	0.089	0.0074	0.0269	0.0073	0.8553	
0.7532	0.0986	0.0077	0.0353	0.0072	0.8163	
0.6755	0.1329	0.0078	0.0325	0.0072	0.7763	
0.6404	0.1409	0.0075	0.0347	0.0073	0.7508	
0.6098	0.1506	0.0076	0.0398	0.0073	0.7267	

System: water + 2-propyn-1-ol + trichloromethane; phases: Liquid mixture 2, Liquid mixture 1
Fixed: Temperature, K = 308.2
Fixed: Pressure, kPa = 101.3
Property: Mass fraction of water (Liquid mixture 2); method: Chromatography
Property: Mass fraction of trichloromethane (Liquid mixture 1); method: Chromatography
Property: Mass fraction of water (Liquid mixture 1); method: Chromatography
Mass fraction of trichloromethane	Mass fraction of water	uncertainty	Mass fraction of trichloromethane	uncertainty	Mass fraction of water	uncertainty
0.999	0.001	0.001	0.0051	0.0051	0.9949	
0.9246	0.0079	0.0072	0.0446	0.0074	0.6174	
0.9094	0.0094	0.0072	0.0565	0.0075	0.5763	
0.9937	0.002	0.002	0.01	0.0072	0.94	
0.988	0.0024	0.0024	0.0118	0.0072	0.8916	
0.981	0.003	0.003	0.0162	0.0072	0.8357	
0.9728	0.0037	0.0037	0.0239	0.0072	0.7873	
0.9636	0.0041	0.0041	0.0215	0.0073	0.7508	
0.9464	0.0059	0.0059	0.0359	0.0073	0.6823	
0.9348	0.0069	0.0069	0.041	0.0073	0.644	

System: water + ethyl acetate; phases: Liquid mixture 2, Liquid mixture 1
Property: Mass fraction of water (Liquid mixture 2); method: Chromatography
Temperature, K	Pressure, kPa	Mass fraction of water	uncertainty
308.2	101.3	0.0334	0.0072

System: water + ethyl acetate; phases: Liquid mixture 1, Liquid mixture 2
Property: Mass fraction of ethyl acetate (Liquid mixture 1); method: Chromatography
Temperature, K	Pressure, kPa	Mass fraction of ethyl acetate	uncertainty
308.2	101.3	0.07	0.0072

System: water + 2-methoxy-2-methylpropane; phases: Liquid mixture 2, Liquid mixture 1
Property: Mass fraction of water (Liquid mixture 2); method: Chromatography
Temperature, K	Pressure, kPa	Mass fraction of water	uncertainty
308.2	101.3	0.0144	0.0072

System: water + 2-methoxy-2-methylpropane; phases: Liquid mixture 1, Liquid mixture 2
Property: Mass fraction of 2-methoxy-2-methylpropane (Liquid mixture 1); method: Chromatography
Temperature, K	Pressure, kPa	Mass fraction of 2-methoxy-2-methylpropane	uncertainty
308.2	101.3	0.0367	0.0072

System: water + 4-methyl-2-pentanol; phases: Liquid mixture 2, Liquid mixture 1
Property: Mass fraction of water (Liquid mixture 2); method: Chromatography
Temperature, K	Pressure, kPa	Mass fraction of water	uncertainty
308.2	101.3	0.0615	0.0072

System: water + 4-methyl-2-pentanol; phases: Liquid mixture 1, Liquid mixture 2
Property: Mass fraction of 4-methyl-2-pentanol (Liquid mixture 1); method: Chromatography
Temperature, K	Pressure, kPa	Mass fraction of 4-methyl-2-pentanol	uncertainty
308.2	101.3	0.0156	0.0072

System: water + trichloromethane; phases: Liquid mixture 2, Liquid mixture 1
Property: Mass fraction of water (Liquid mixture 2); method: Chromatography
Temperature, K	Pressure, kPa	Mass fraction of water	uncertainty
308.2	101.3	0.001	0.001

System: water + trichloromethane; phases: Liquid mixture 1, Liquid mixture 2
Property: Mass fraction of trichloromethane (Liquid mixture 1); method: Chromatography
Temperature, K	Pressure, kPa	Mass fraction of trichloromethane	uncertainty
308.2	101.3	0.0051	0.0051
