Measured thermophysical data. Thermochemical properties of sesquiterpenes in natural products by correlation gas chromatography: Application to bergamotene oil
Source: J. Chem. Thermodyn., 2018, 10.1016/j.jct.2018.06.017
Compound 1: [1R-(1R*,4E,9S*)]-4,11,11-trimethyl-8-methylene-bicyclo[7.2.0]-4-undecene, C15H24, InChI=1S/C15H24/c1-11-6-5-7-12(2)13-10-15(3,4)14(13)9-8-11/h6,13-14H,2,5,7-10H2,1,3-4H3/b11-6+/t13-,14-/m1/s1
Compound 2: (-)-exo-.alpha.-bergamotene, C15H24, InChI=1S/C15H24/c1-11(2)6-5-9-15(4)13-8-7-12(3)14(15)10-13/h6-7,13-14H,5,8-10H2,1-4H3/t13-,14-,15+/m0/s1
Compound 3: (E,E,E)-2,6,6,9-tetramethyl-1,4,8-cycloundecatriene, C15H24, InChI=1S/C15H24/c1-13-7-5-8-14(2)10-12-15(3,4)11-6-9-13/h6-7,10-11H,5,8-9,12H2,1-4H3/b11-6+,13-7+,14-10+
Compound 4: (Z)-caryophyllene, C15H24, InChI=1S/C15H24/c1-11-6-5-7-12(2)13-10-15(3,4)14(13)9-8-11/h6,13-14H,2,5,7-10H2,1,3-4H3/b11-6-/t13-,14-/m1/s1

System: [1R-(1R*,4E,9S*)]-4,11,11-trimethyl-8-methylene-bicyclo[7.2.0]-4-undecene; phases: Liquid, Gas
Property: Molar enthalpy of vaporization or sublimation, kJ/mol (Liquid); method: Correlation gas chromatography
Temperature, K	Molar enthalpy of vaporization or sublimation, kJ/mol	uncertainty
298.15	65.9	4.4

System: [1R-(1R*,4E,9S*)]-4,11,11-trimethyl-8-methylene-bicyclo[7.2.0]-4-undecene; phases: Liquid, Gas
Property: Vapor or sublimation pressure, kPa (Liquid); method: Gas chromatography
Temperature, K	Vapor or sublimation pressure, kPa	uncertainty
298.15	0.0029	0.0003
310	0.0077	0.0008
320	0.016	0.002
330	0.034	0.003
340	0.065	0.007
350	0.121	0.012
360	0.215	0.022
370	0.371	0.037
380	0.618	0.062
390	1.001	0.1
400	1.576	0.158
410	2.421	0.242
420	3.634	0.364
430	5.341	0.535
440	7.695	0.77
450	10.888	1.09
460	15.148	1.517
528.9	101.325	10.145

System: (-)-exo-.alpha.-bergamotene; phases: Liquid, Gas
Property: Molar enthalpy of vaporization or sublimation, kJ/mol (Liquid); method: Correlation gas chromatography
Temperature, K	Molar enthalpy of vaporization or sublimation, kJ/mol	uncertainty
298.15	69.5	4.3

System: (-)-exo-.alpha.-bergamotene; phases: Liquid, Gas
Property: Vapor or sublimation pressure, kPa (Liquid); method: Gas chromatography
Temperature, K	Vapor or sublimation pressure, kPa	uncertainty
298.15	0.0019	0.0002
310	0.0052	0.0005
320	0.012	0.001
330	0.025	0.003
340	0.05	0.005
350	0.096	0.01
360	0.177	0.018
370	0.314	0.031
380	0.539	0.054
390	0.896	0.09
400	1.45	0.145
410	2.283	0.229
420	3.509	0.351
430	5.275	0.528
440	7.765	0.777
450	11.215	1.123
460	15.911	1.593
522.4	101.325	10.145

System: (E,E,E)-2,6,6,9-tetramethyl-1,4,8-cycloundecatriene; phases: Liquid, Gas
Property: Molar enthalpy of vaporization or sublimation, kJ/mol (Liquid); method: Correlation gas chromatography
Temperature, K	Molar enthalpy of vaporization or sublimation, kJ/mol	uncertainty
298.15	67.5	4.4

System: (E,E,E)-2,6,6,9-tetramethyl-1,4,8-cycloundecatriene; phases: Liquid, Gas
Property: Vapor or sublimation pressure, kPa (Liquid); method: Gas chromatography
Temperature, K	Vapor or sublimation pressure, kPa	uncertainty
298.15	0.002	0.0002
310	0.0054	0.0005
320	0.012	0.001
330	0.024	0.002
340	0.048	0.005
350	0.091	0.009
360	0.164	0.016
370	0.287	0.029
380	0.484	0.048
390	0.794	0.08
400	1.265	0.127
410	1.966	0.197
420	2.982	0.299
430	4.428	0.443
440	6.443	0.645
450	9.202	0.921
460	12.917	1.293

System: (Z)-caryophyllene; phases: Liquid, Gas
Property: Molar enthalpy of vaporization or sublimation, kJ/mol (Liquid); method: Correlation gas chromatography
Temperature, K	Molar enthalpy of vaporization or sublimation, kJ/mol	uncertainty
298.15	66	4.2

System: (Z)-caryophyllene; phases: Liquid, Gas
Property: Vapor or sublimation pressure, kPa (Liquid); method: Gas chromatography
Temperature, K	Vapor or sublimation pressure, kPa	uncertainty
298.15	0.0032	0.0003
310	0.0084	0.0008
320	0.018	0.002
330	0.037	0.004
340	0.071	0.007
350	0.132	0.013
360	0.236	0.024
370	0.405	0.041
380	0.675	0.068
390	1.092	0.109
400	1.719	0.172
410	2.638	0.264
420	3.957	0.396
430	5.811	0.582
440	8.368	0.838
450	11.833	1.185
460	16.453	1.647
