Measured thermophysical data. Temperature and sodium chloride effects on the solubility of anthracene in water
Source: J. Chem. Thermodyn., 2010, 10.1016/j.jct.2010.06.006
Compound 1: anthracene, C14H10, InChI=1S/C14H10/c1-2-6-12-10-14-8-4-3-7-13(14)9-11(12)5-1/h1-10H, purity 99%
Compound 2: sodium chloride, ClNa, InChI=1S/ClH.Na/h1H;/q;+1/p-1, purity 99%
Compound 3: water, H2O, InChI=1S/H2O/h1H2, purity 99.9%

System: anthracene + water; phases: Liquid, Crystal
Fixed: Pressure, kPa = 101
Property: Mole fraction of anthracene (Liquid); method: Chromatography
Temperature, K	Mole fraction of anthracene	uncertainty
278.11	1.318e-09	7e-11
288.13	2.381e-09	9.3e-11
293.38	3.329e-09	1.32e-10
298.24	4.513e-09	1.63e-10
303.14	6.143e-09	2.2e-10
308.25	8.65e-09	3e-10
313.35	1.163e-08	4.4e-10
318.26	1.558e-08	6.5e-10
323.19	2.076e-08	1.09e-09
333.34	3.925e-08	1.75e-09

System: anthracene + sodium chloride + water; phases: Liquid, Crystal
Fixed: Pressure, kPa = 101
Property: Mole fraction of anthracene (Liquid); method: Chromatography
Solvent: Molality, mol/kg of sodium chloride	Temperature, K	Mole fraction of anthracene	uncertainty
0.1006	278.12	1.308e-09	1.04e-10
0.1006	283.09	1.675e-09	9.4e-11
0.1006	288.18	2.361e-09	1.08e-10
0.1006	293.33	3.218e-09	1.66e-10
0.1006	298.2	4.352e-09	1.37e-10
0.1006	303.15	5.862e-09	1.78e-10
0.1006	308.31	7.8e-09	4.6e-10
0.1006	313.34	1.067e-08	4.6e-10
0.1006	318.26	1.449e-08	6.6e-10
0.1006	323.23	1.896e-08	1.28e-09
0.1006	328.35	2.596e-08	1.6e-09
0.5056	278.13	1.123e-09	4.4e-11
0.5056	283.04	1.421e-09	5.8e-11
0.5056	288.13	1.902e-09	1.04e-10
0.5056	293.35	2.476e-09	1e-10
0.5056	298.21	3.384e-09	1.01e-10
0.5056	303.16	4.58e-09	1.47e-10
0.5056	308.17	6.4e-09	4.2e-10
0.5056	313.34	8.83e-09	3.4e-10
0.5056	318.31	1.169e-08	5e-10
0.5056	323.22	1.515e-08	9e-10
0.5056	328.37	1.976e-08	1.1e-09
0.5056	333.32	2.66e-08	2e-09
0.6082	278.1	1.124e-09	4.6e-11
0.6082	283.08	1.423e-09	5.6e-11
0.6082	288.17	1.82e-09	9.6e-11
0.6082	293.35	2.377e-09	1.76e-10
0.6082	298.2	3.202e-09	9.1e-11
0.6082	303.14	4.414e-09	1.53e-10
0.6082	308.28	5.903e-09	1.9e-10
0.6082	313.34	8.08e-09	3.2e-10
0.6082	318.26	1.102e-08	4.6e-10
0.6082	323.23	1.412e-08	3.1e-10
0.6082	328.35	1.84e-08	1.14e-09
0.6082	333.3	2.55e-08	2.2e-09
