Measured thermophysical data. Study of thermodynamic and transport properties of binary liquid mixtures of n-decane with hexan-2-ol, heptan-2-ol and octan-2-ol at T = 298.15 K. Experimental results and application of the Prigogine-Flory-Patterson theory
Source: J. Chem. Thermodyn., 2013, 10.1016/j.jct.2013.05.014
Compound 1: decane, C10H22, InChI=1S/C10H22/c1-3-5-7-9-10-8-6-4-2/h3-10H2,1-2H3, purity 99.2%
Compound 2: 2-hexanol, C6H14O, InChI=1S/C6H14O/c1-3-4-5-6(2)7/h6-7H,3-5H2,1-2H3, purity 99.3%
Compound 3: 2-heptanol, C7H16O, InChI=1S/C7H16O/c1-3-4-5-6-7(2)8/h7-8H,3-6H2,1-2H3, purity 99.1%
Compound 4: 2-octanol, C8H18O, InChI=1S/C8H18O/c1-3-4-5-6-7-8(2)9/h8-9H,3-7H2,1-2H3, purity 99.4%

System: decane; phases: Liquid
Property: Mass density, kg/m3 (Liquid); method: Pycnometric method
Pressure, kPa	Temperature, K	Mass density, kg/m3	uncertainty
101	298.15	726.35	1.01

System: decane; phases: Liquid
Property: Viscosity, Pa*s (Liquid); method: Capillary tube (Ostwald; Ubbelohde) method
Pressure, kPa	Temperature, K	Viscosity, Pa*s	uncertainty
101	298.15	0.000845	3.2e-05

System: 2-hexanol; phases: Liquid
Property: Mass density, kg/m3 (Liquid); method: Pycnometric method
Pressure, kPa	Temperature, K	Mass density, kg/m3	uncertainty
101	298.15	810.84	1.02

System: 2-hexanol; phases: Liquid
Property: Viscosity, Pa*s (Liquid); method: Capillary tube (Ostwald; Ubbelohde) method
Pressure, kPa	Temperature, K	Viscosity, Pa*s	uncertainty
101	298.15	0.004105	8.5e-05

System: 2-heptanol; phases: Liquid
Property: Mass density, kg/m3 (Liquid); method: Pycnometric method
Pressure, kPa	Temperature, K	Mass density, kg/m3	uncertainty
101	298.15	813.74	1.02

System: 2-heptanol; phases: Liquid
Property: Viscosity, Pa*s (Liquid); method: Capillary tube (Ostwald; Ubbelohde) method
Pressure, kPa	Temperature, K	Viscosity, Pa*s	uncertainty
101	298.15	0.00508	0.000106

System: 2-octanol; phases: Liquid
Property: Mass density, kg/m3 (Liquid); method: Pycnometric method
Pressure, kPa	Temperature, K	Mass density, kg/m3	uncertainty
101	298.15	817.05	1.02

System: 2-octanol; phases: Liquid
Property: Viscosity, Pa*s (Liquid); method: Capillary tube (Ostwald; Ubbelohde) method
Pressure, kPa	Temperature, K	Viscosity, Pa*s	uncertainty
101	298.15	0.006429	0.000133

System: decane + 2-hexanol; phases: Liquid
Fixed: Pressure, kPa = 101
Fixed: Temperature, K = 298.15
Property: Mass density, kg/m3 (Liquid); method: Pycnometric method
Mole fraction of decane	Mass density, kg/m3	uncertainty
0	810.84	1.02
0.0555	802.94	1.02
0.0999	797.23	1.02
0.1554	790.5	1.02
0.1998	785.43	1.02
0.2556	779.42	1.02
0.2999	774.91	1.02
0.3555	769.55	1.02
0.3998	765.52	1.02
0.4554	760.72	1.02
0.4998	757.1	1.02
0.5554	752.79	1.02
0.5997	749.54	1.02
0.6555	745.66	1.02
0.6999	742.72	1.02
0.7555	739.25	1.01
0.7998	736.62	1.01
0.8555	733.48	1.01
0.8999	731.11	1.01
0.9555	728.29	1.01
1	726.35	1.01

System: decane + 2-hexanol; phases: Liquid
Fixed: Pressure, kPa = 101
Fixed: Temperature, K = 298.15
Property: Viscosity, Pa*s (Liquid); method: Capillary tube (Ostwald; Ubbelohde) method
Mole fraction of decane	Viscosity, Pa*s	uncertainty
0	0.004105	8.5e-05
0.0555	0.003569	7.4e-05
0.0999	0.00317	6.6e-05
0.1554	0.002725	5.7e-05
0.1998	0.00241	5e-05
0.2556	0.002062	4.3e-05
0.2999	0.001821	3.8e-05
0.3555	0.001561	3.3e-05
0.3998	0.001384	3.3e-05
0.4554	0.001198	3.3e-05
0.4998	0.001076	3.2e-05
0.5554	0.000952	3.2e-05
0.5997	0.000875	3.2e-05
0.6555	0.000802	3.2e-05
0.6999	0.00076	3.2e-05
0.7555	0.000725	3.2e-05
0.7998	0.000708	3.2e-05
0.8555	0.000699	3.2e-05
0.8999	0.000698	3.2e-05
0.9555	0.000703	3.2e-05
1	0.000845	3.2e-05

System: decane + 2-heptanol; phases: Liquid
Fixed: Pressure, kPa = 101
Fixed: Temperature, K = 298.15
Property: Mass density, kg/m3 (Liquid); method: Pycnometric method
Mole fraction of decane	Mass density, kg/m3	uncertainty
0	813.74	1.02
0.0552	806.87	1.02
0.0999	801.55	1.02
0.1555	795.15	1.02
0.1999	790.26	1.02
0.2554	784.36	1.02
0.2999	779.83	1.02
0.3554	774.4	1.02
0.3998	770.24	1.02
0.4555	765.23	1.02
0.4998	761.41	1.02
0.5555	756.8	1.02
0.5999	753.27	1.02
0.6554	749.04	1.02
0.6999	745.79	1.02
0.7553	741.87	1.02
0.8	738.84	1.02
0.8555	735.2	1.02
0.8998	732.39	1.02
0.9553	728.98	1.01
1	726.35	1.01

System: decane + 2-heptanol; phases: Liquid
Fixed: Pressure, kPa = 101
Fixed: Temperature, K = 298.15
Property: Viscosity, Pa*s (Liquid); method: Capillary tube (Ostwald; Ubbelohde) method
Mole fraction of decane	Viscosity, Pa*s	uncertainty
0	0.00508	0.000106
0.0552	0.00425	8.9e-05
0.0999	0.003732	7.8e-05
0.1555	0.003152	6.6e-05
0.1999	0.00274	5.7e-05
0.2554	0.002283	4.8e-05
0.2999	0.001962	4.1e-05
0.3554	0.001614	3.4e-05
0.3998	0.001375	3.3e-05
0.4555	0.001122	3.3e-05
0.4998	0.000954	3.2e-05
0.5555	0.000782	3.2e-05
0.5999	0.000673	3.2e-05
0.6554	0.00057	3.2e-05
0.6999	0.00051	3.2e-05
0.7553	0.000461	3.2e-05
0.8	0.00044	3.2e-05
0.8555	0.000432	3.2e-05
0.8998	0.000438	3.2e-05
0.9553	0.000457	3.2e-05
1	0.000845	3.2e-05

System: 2-octanol + decane; phases: Liquid
Fixed: Pressure, kPa = 101
Fixed: Temperature, K = 298.15
Property: Mass density, kg/m3 (Liquid); method: Pycnometric method
Mole fraction of decane	Mass density, kg/m3	uncertainty
0	817.05	1.02
0.0554	810.77	1.02
0.0998	805.83	1.02
0.1554	799.74	1.02
0.1999	794.99	1.02
0.2554	789.2	1.02
0.2999	784.67	1.02
0.3555	779.16	1.02
0.3998	774.9	1.02
0.4554	769.69	1.02
0.4999	765.64	1.02
0.5555	760.74	1.02
0.5998	756.94	1.02
0.6555	752.3	1.02
0.7	748.7	1.02
0.7554	744.32	1.02
0.7998	740.91	1.02
0.8554	736.74	1.02
0.8999	733.47	1.01
0.9554	729.48	1.01
1	726.35	1.01

System: 2-octanol + decane; phases: Liquid
Fixed: Pressure, kPa = 101
Fixed: Temperature, K = 298.15
Property: Viscosity, Pa*s (Liquid); method: Capillary tube (Ostwald; Ubbelohde) method
Mole fraction of decane	Viscosity, Pa*s	uncertainty
0	0.006429	0.000133
0.0554	0.005222	0.000108
0.0998	0.004638	9.6e-05
0.1554	0.003972	8.2e-05
0.1999	0.003491	7.2e-05
0.2554	0.002951	6.1e-05
0.2999	0.002564	5.3e-05
0.3555	0.002136	4.4e-05
0.3998	0.001836	3.8e-05
0.4554	0.001509	3.3e-05
0.4999	0.001284	3.3e-05
0.5555	0.001046	3.2e-05
0.5998	0.000889	3.2e-05
0.6555	0.00073	3.2e-05
0.7	0.00063	3.2e-05
0.7554	0.000538	3.2e-05
0.7998	0.000487	3.2e-05
0.8554	0.00045	3.2e-05
0.8999	0.000438	3.2e-05
0.9554	0.000445	3.2e-05
1	0.000845	3.2e-05
