Measured thermophysical data. Densities and viscosities of, and NH3 solubilities in deep eutectic solvents composed of ethylamine hydrochloride and acetamide
Source: J. Chem. Thermodyn., 2019, 10.1016/j.jct.2019.105883
Compound 1: ammonia, H3N, InChI=1S/H3N/h1H3, purity 99.99%
Compound 2: ethylammonium chloride, C2H8ClN, InChI=1S/C2H7N.ClH/c1-2-3;/h2-3H2,1H3;1H, purity 98%
Compound 3: ethanamide, C2H5NO, InChI=1S/C2H5NO/c1-2(3)4/h1H3,(H2,3,4), purity 98%

System: ethylammonium chloride + ethanamide; phases: Liquid
Fixed: Pressure, kPa = 101.3
Property: Mass density, kg/m3 (Liquid); method: Vibrating tube method
Temperature, K	Mole fraction of ethylammonium chloride	Mass density, kg/m3	uncertainty
313.2	0.5	1043.8	4.1
323.2	0.5	1037.9	4.1
333.2	0.5	1032	4.1
343.2	0.5	1026.2	4.1
353.2	0.5	1020.4	4.1
313.2	0.337	1042.8	4.1
323.2	0.337	1036.4	4.1
333.2	0.337	1030	4.1
343.2	0.337	1023.7	4.1
353.2	0.337	1017.3	4.1
313.2	0.252	1041	4.1
323.2	0.252	1034.3	4.1
333.2	0.252	1027.6	4.1
343.2	0.252	1020.9	4.1
353.2	0.252	1014.2	4.1

System: ethylammonium chloride + ethanamide; phases: Liquid
Fixed: Pressure, kPa = 101.3
Property: Viscosity, Pa*s (Liquid); method: Concentric cylinders viscometry
Temperature, K	Mole fraction of ethylammonium chloride	Viscosity, Pa*s	uncertainty
313.2	0.5	0.0715	0.0019
323.2	0.5	0.0484	0.0014
333.2	0.5	0.0358	0.001
343.2	0.5	0.0282	0.0008
353.2	0.5	0.0235	0.0006
313.2	0.337	0.058	0.002
323.2	0.337	0.0392	0.0012
333.2	0.337	0.0291	0.0009
343.2	0.337	0.0233	0.0006
353.2	0.337	0.0186	0.0006
313.2	0.252	0.0326	0.0025
323.2	0.252	0.0278	0.0013
333.2	0.252	0.0219	0.0008
343.2	0.252	0.0184	0.0006
353.2	0.252	0.0152	0.0005

System: ammonia + ethylammonium chloride + ethanamide; phases: Liquid, Gas
Property: Molality, mol/kg of ammonia (Liquid); method: Volumetric Method
Temperature, K	Pressure, kPa of ammonia	Solvent: Mole fraction of ethylammonium chloride	Molality, mol/kg of ammonia	uncertainty
313.2	16.9	0.5	1	0.49
313.2	53.7	0.5	2.48	0.49
313.2	96.4	0.5	3.83	0.49
313.2	152.3	0.5	5.66	0.49
313.2	205.9	0.5	7.17	0.49
313.2	242.5	0.5	8.29	0.49
313.2	291.6	0.5	9.59	0.49
323.2	10.8	0.5	0.48	0.43
323.2	59.5	0.5	1.98	0.43
323.2	107.1	0.5	3.1	0.42
323.2	150.7	0.5	4.05	0.43
323.2	201.4	0.5	5.12	0.43
323.2	248.7	0.5	6.15	0.43
323.2	299.5	0.5	7.34	0.43
333.2	12	0.5	0.36	0.36
333.2	52	0.5	1.33	0.46
333.2	104	0.5	2.31	0.46
333.2	155.8	0.5	3.16	0.46
333.2	198.6	0.5	3.79	0.46
333.2	250.9	0.5	4.55	0.46
333.2	301.1	0.5	5.32	0.47
343.2	15.7	0.5	0.35	0.35
343.2	51.3	0.5	0.93	0.44
343.2	99.7	0.5	1.64	0.44
343.2	148.6	0.5	2.36	0.44
343.2	199.7	0.5	2.96	0.44
343.2	249.3	0.5	3.5	0.44
343.2	302.6	0.5	4.06	0.44
353.2	21.5	0.5	0.34	0.34
353.2	52.2	0.5	0.73	0.42
353.2	103.3	0.5	1.3	0.42
353.2	150.9	0.5	1.76	0.42
353.2	198.4	0.5	2.16	0.42
353.2	252.4	0.5	2.66	0.42
353.2	300.8	0.5	3.1	0.42
313.2	13.3	0.337	0.65	0.49
313.2	63.9	0.337	2.47	0.49
313.2	99.5	0.337	3.6	0.49
313.2	153.9	0.337	5.11	0.49
313.2	201.8	0.337	6.46	0.49
313.2	249.9	0.337	7.88	0.49
313.2	305.8	0.337	9.35	0.49
323.2	8.7	0.337	0.34	0.35
323.2	50.3	0.337	1.46	0.46
323.2	104.8	0.337	2.79	0.46
323.2	157.8	0.337	3.92	0.46
323.2	199.7	0.337	4.75	0.47
323.2	258.3	0.337	5.88	0.47
323.2	305.6	0.337	6.8	0.47
333.2	15.7	0.337	0.4	0.4
333.2	47.8	0.337	1.1	0.44
333.2	100.8	0.337	2.05	0.44
333.2	154.9	0.337	2.95	0.44
333.2	202.6	0.337	3.72	0.44
333.2	251.6	0.337	4.41	0.44
333.2	301.7	0.337	5.1	0.44
343.2	31	0.337	0.46	0.44
343.2	51.2	0.337	0.81	0.44
343.2	99.9	0.337	1.43	0.44
343.2	149.7	0.337	2.15	0.44
343.2	201.9	0.337	2.68	0.44
343.2	251.4	0.337	3.35	0.44
343.2	301.8	0.337	3.97	0.44
353.2	13.4	0.337	0.2	0.2
353.2	51.3	0.337	0.63	0.42
353.2	100.1	0.337	1.14	0.42
353.2	149.6	0.337	1.66	0.42
353.2	202.7	0.337	2.09	0.42
353.2	249.8	0.337	2.44	0.42
353.2	301	0.337	2.94	0.42
313.2	10.9	0.252	0.4	0.41
313.2	24.2	0.252	0.82	0.49
313.2	64.4	0.252	1.92	0.49
313.2	136.8	0.252	3.97	0.49
313.2	206.4	0.252	5.73	0.49
313.2	253.7	0.252	6.83	0.5
313.2	296.9	0.252	7.85	0.5
323.2	15.6	0.252	0.41	0.41
323.2	50.6	0.252	1.21	0.46
323.2	97.3	0.252	2.21	0.46
323.2	153.5	0.252	3.35	0.47
323.2	204.1	0.252	4.33	0.47
323.2	249.5	0.252	5.18	0.47
323.2	302.8	0.252	6.19	0.47
333.2	33.3	0.252	0.68	0.46
333.2	60.4	0.252	1.13	0.46
333.2	101.8	0.252	1.78	0.46
333.2	149	0.252	2.5	0.46
333.2	200.9	0.252	3.25	0.46
333.2	251.9	0.252	3.97	0.46
333.2	300.3	0.252	4.64	0.46
343.2	27.5	0.252	0.45	0.42
343.2	52.1	0.252	0.77	0.42
343.2	100.8	0.252	1.38	0.42
343.2	149	0.252	2.02	0.42
343.2	202.2	0.252	2.62	0.42
343.2	251.5	0.252	3.15	0.42
343.2	299.8	0.252	3.68	0.42
353.2	24.1	0.252	0.3	0.3
353.2	52.4	0.252	0.59	0.42
353.2	100.2	0.252	1.03	0.42
353.2	150.6	0.252	1.5	0.42
353.2	201.7	0.252	1.95	0.42
353.2	251.4	0.252	2.37	0.42
353.2	299.9	0.252	2.78	0.42
