Measured thermophysical data. Fusion and solid-to-solid transitions of a homologous series of alkane-a,w-dinitriles
Source: J. Chem. Thermodyn., 2007, 10.1016/j.jct.2007.03.005
Compound 1: propanedinitrile, C3H2N2, InChI=1S/C3H2N2/c4-2-1-3-5/h1H2
Compound 2: butanedinitrile, C4H4N2, InChI=1S/C4H4N2/c5-3-1-2-4-6/h1-2H2
Compound 3: pentanedinitrile, C5H6N2, InChI=1S/C5H6N2/c6-4-2-1-3-5-7/h1-3H2
Compound 4: hexanedinitrile, C6H8N2, InChI=1S/C6H8N2/c7-5-3-1-2-4-6-8/h1-4H2
Compound 5: heptanedinitrile, C7H10N2, InChI=1S/C7H10N2/c8-6-4-2-1-3-5-7-9/h1-5H2
Compound 6: octanedinitrile, C8H12N2, InChI=1S/C8H12N2/c9-7-5-3-1-2-4-6-8-10/h1-6H2
Compound 7: nonanedinitrile, C9H14N2, InChI=1S/C9H14N2/c10-8-6-4-2-1-3-5-7-9-11/h1-7H2
Compound 8: decanedinitrile, C10H16N2, InChI=1S/C10H16N2/c11-9-7-5-3-1-2-4-6-8-10-12/h1-8H2
Compound 9: undecanodinitrile, C11H18N2, InChI=1S/C11H18N2/c12-10-8-6-4-2-1-3-5-7-9-11-13/h1-9H2
Compound 10: dodecanedinitrile, C12H20N2, InChI=1S/C12H20N2/c13-11-9-7-5-3-1-2-4-6-8-10-12-14/h1-10H2
Compound 11: tetradecanedinitrile, C14H24N2, InChI=1S/C14H24N2/c15-13-11-9-7-5-3-1-2-4-6-8-10-12-14-16/h1-12H2

System: propanedinitrile; phases: Crystal 1, Liquid, Air at 1 atmosphere
Property: Molar enthalpy of transition or fusion, kJ/mol (Crystal 1); method: DSC
Molar enthalpy of transition or fusion, kJ/mol	uncertainty
10.7	0.46

System: propanedinitrile; phases: Crystal 4, Crystal 3, Air at 1 atmosphere
Property: Molar enthalpy of transition or fusion, kJ/mol (Crystal 4); method: DSC
Molar enthalpy of transition or fusion, kJ/mol	uncertainty
0.43	0.12

System: propanedinitrile; phases: Crystal 4, Crystal 3, Air at 1 atmosphere
Property: Triple point temperature, K (Crystal 4); method: DTA
Triple point temperature, K	uncertainty
260.9	1.6

System: propanedinitrile; phases: Crystal 3, Crystal 2, Air at 1 atmosphere
Property: Triple point temperature, K (Crystal 3); method: DTA
Triple point temperature, K	uncertainty
294.24	1.12

System: propanedinitrile; phases: Crystal 2, Crystal 1, Air at 1 atmosphere
Property: Triple point temperature, K (Crystal 2); method: DTA
Triple point temperature, K	uncertainty
303.64	2.15

System: propanedinitrile; phases: Crystal 1, Liquid, Air at 1 atmosphere
Property: Normal melting temperature, K (Crystal 1); method: DTA
Normal melting temperature, K	uncertainty
305.04	0.55

System: butanedinitrile; phases: Crystal 1, Liquid, Air at 1 atmosphere
Property: Molar enthalpy of transition or fusion, kJ/mol (Crystal 1); method: DSC
Molar enthalpy of transition or fusion, kJ/mol	uncertainty
3.75	0.46

System: butanedinitrile; phases: Crystal 2, Crystal 1, Air at 1 atmosphere
Property: Molar enthalpy of transition or fusion, kJ/mol (Crystal 2); method: DSC
Molar enthalpy of transition or fusion, kJ/mol	uncertainty
6.09	0.34

System: butanedinitrile; phases: Crystal 2, Crystal 1, Air at 1 atmosphere
Property: Triple point temperature, K (Crystal 2); method: DTA
Triple point temperature, K	uncertainty
233.59	0.53

System: butanedinitrile; phases: Crystal 1, Liquid, Air at 1 atmosphere
Property: Normal melting temperature, K (Crystal 1); method: DTA
Normal melting temperature, K	uncertainty
330.26	1.35

System: pentanedinitrile; phases: Crystal, Liquid, Air at 1 atmosphere
Property: Molar enthalpy of transition or fusion, kJ/mol (Crystal); method: DSC
Molar enthalpy of transition or fusion, kJ/mol	uncertainty
12.03	0.79

System: pentanedinitrile; phases: Crystal, Liquid, Air at 1 atmosphere
Property: Normal melting temperature, K (Crystal); method: DTA
Normal melting temperature, K	uncertainty
242.05	0.5

System: hexanedinitrile; phases: Crystal 1, Liquid, Air at 1 atmosphere
Property: Molar enthalpy of transition or fusion, kJ/mol (Crystal 1); method: DSC
Molar enthalpy of transition or fusion, kJ/mol	uncertainty
18.03	0.64

System: hexanedinitrile; phases: Crystal 2, Crystal 1, Air at 1 atmosphere
Property: Triple point temperature, K (Crystal 2); method: DTA
Triple point temperature, K	uncertainty
270.25	1.93

System: hexanedinitrile; phases: Crystal 1, Liquid, Air at 1 atmosphere
Property: Normal melting temperature, K (Crystal 1); method: DTA
Normal melting temperature, K	uncertainty
275.04	0.49

System: heptanedinitrile; phases: Crystal 1, Liquid, Air at 1 atmosphere
Property: Molar enthalpy of transition or fusion, kJ/mol (Crystal 1); method: DSC
Molar enthalpy of transition or fusion, kJ/mol	uncertainty
15.02	1.68

System: heptanedinitrile; phases: Crystal 2, Crystal 1, Air at 1 atmosphere
Property: Triple point temperature, K (Crystal 2); method: DTA
Triple point temperature, K	uncertainty
236.72	1.76

System: heptanedinitrile; phases: Crystal 1, Liquid, Air at 1 atmosphere
Property: Normal melting temperature, K (Crystal 1); method: DTA
Normal melting temperature, K	uncertainty
241.7	0.39

System: octanedinitrile; phases: Crystal 1, Liquid, Air at 1 atmosphere
Property: Molar enthalpy of transition or fusion, kJ/mol (Crystal 1); method: DSC
Molar enthalpy of transition or fusion, kJ/mol	uncertainty
21.97	0.62

System: octanedinitrile; phases: Crystal 2, Crystal 1, Air at 1 atmosphere
Property: Triple point temperature, K (Crystal 2); method: DTA
Triple point temperature, K	uncertainty
265.82	2.54

System: octanedinitrile; phases: Crystal 1, Liquid, Air at 1 atmosphere
Property: Normal melting temperature, K (Crystal 1); method: DTA
Normal melting temperature, K	uncertainty
268.93	1.08

System: nonanedinitrile; phases: Crystal, Liquid, Air at 1 atmosphere
Property: Molar enthalpy of transition or fusion, kJ/mol (Crystal); method: DSC
Molar enthalpy of transition or fusion, kJ/mol	uncertainty
18.68	1.12

System: nonanedinitrile; phases: Crystal, Liquid, Air at 1 atmosphere
Property: Normal melting temperature, K (Crystal); method: DTA
Normal melting temperature, K	uncertainty
251.14	0.55

System: decanedinitrile; phases: Crystal 1, Liquid, Air at 1 atmosphere
Property: Molar enthalpy of transition or fusion, kJ/mol (Crystal 1); method: DSC
Molar enthalpy of transition or fusion, kJ/mol	uncertainty
28.17	0.64

System: decanedinitrile; phases: Crystal 2, Crystal 1, Air at 1 atmosphere
Property: Triple point temperature, K (Crystal 2); method: DTA
Triple point temperature, K	uncertainty
278.02	1.95

System: decanedinitrile; phases: Crystal 1, Liquid, Air at 1 atmosphere
Property: Normal melting temperature, K (Crystal 1); method: DTA
Normal melting temperature, K	uncertainty
281.18	0.46

System: undecanodinitrile; phases: Crystal, Liquid, Air at 1 atmosphere
Property: Molar enthalpy of transition or fusion, kJ/mol (Crystal); method: DSC
Molar enthalpy of transition or fusion, kJ/mol	uncertainty
26.01	1.69

System: undecanodinitrile; phases: Crystal, Liquid, Air at 1 atmosphere
Property: Normal melting temperature, K (Crystal); method: DTA
Normal melting temperature, K	uncertainty
266.14	0.73

System: dodecanedinitrile; phases: Crystal, Liquid, Air at 1 atmosphere
Property: Molar enthalpy of transition or fusion, kJ/mol (Crystal); method: DSC
Molar enthalpy of transition or fusion, kJ/mol	uncertainty
34.33	1.1

System: dodecanedinitrile; phases: Crystal, Liquid, Air at 1 atmosphere
Property: Normal melting temperature, K (Crystal); method: DTA
Normal melting temperature, K	uncertainty
294.23	0.48

System: tetradecanedinitrile; phases: Crystal 1, Liquid, Air at 1 atmosphere
Property: Molar enthalpy of transition or fusion, kJ/mol (Crystal 1); method: DSC
Molar enthalpy of transition or fusion, kJ/mol	uncertainty
40.17	0.95

System: tetradecanedinitrile; phases: Crystal 2, Crystal 1, Air at 1 atmosphere
Property: Molar enthalpy of transition or fusion, kJ/mol (Crystal 2); method: DSC
Molar enthalpy of transition or fusion, kJ/mol	uncertainty
1.77	0.31

System: tetradecanedinitrile; phases: Crystal 2, Crystal 1, Air at 1 atmosphere
Property: Triple point temperature, K (Crystal 2); method: DTA
Triple point temperature, K	uncertainty
261.05	0.56

System: tetradecanedinitrile; phases: Crystal 1, Liquid, Air at 1 atmosphere
Property: Normal melting temperature, K (Crystal 1); method: DTA
Normal melting temperature, K	uncertainty
309.55	0.8
