Measured thermophysical data. Volumetric properties of tripeptides with non-polar side-chains: Partial molar  volumes at T = (288.15 to 313.15) K and partial molar expansions at T = 298.15 K  of some peptides of sequence gly X gly in aqueous solution
Source: J. Chem. Thermodyn., 2009, 10.1016/j.jct.2009.05.011
Compound 1: glycylalanylglycine, C7H13N3O4, InChI=1S/C7H13N3O4/c1-4(10-5(11)2-8)7(14)9-3-6(12)13/h4H,2-3,8H2,1H3,(H,9,14)(H,10,11)(H,12,13)
Compound 2: glycyl-L-valylglycine, C9H17N3O4, InChI=1S/C9H17N3O4/c1-5(2)8(12-6(13)3-10)9(16)11-4-7(14)15/h5,8H,3-4,10H2,1-2H3,(H,11,16)(H,12,13)(H,14,15)/t8-/m0/s1
Compound 3: glycyl-L-leucylglycine, C10H19N3O4, InChI=1S/C10H19N3O4/c1-6(2)3-7(13-8(14)4-11)10(17)12-5-9(15)16/h6-7H,3-5,11H2,1-2H3,(H,12,17)(H,13,14)(H,15,16)/t7-/m0/s1
Compound 4: glycyl-L-isoleucylglycine, C10H19N3O4, InChI=1S/C10H19N3O4/c1-3-6(2)9(13-7(14)4-11)10(17)12-5-8(15)16/h6,9H,3-5,11H2,1-2H3,(H,12,17)(H,13,14)(H,15,16)/t6-,9-/m0/s1
Compound 5: glycyl-L-phenylalanylglycine, C13H17N3O4, InChI=1S/C13H17N3O4/c14-7-11(17)16-10(13(20)15-8-12(18)19)6-9-4-2-1-3-5-9/h1-5,10H,6-8,14H2,(H,15,20)(H,16,17)(H,18,19)/t10-/m0/s1
Compound 6: glycyl-L-methionylglycine, C9H17N3O4S, InChI=1S/C9H17N3O4S/c1-17-3-2-6(12-7(13)4-10)9(16)11-5-8(14)15/h6H,2-5,10H2,1H3,(H,11,16)(H,12,13)(H,14,15)/t6-/m0/s1
Compound 7: glycyl-L-prolylglycine, C9H15N3O4, InChI=1S/C9H15N3O4/c10-4-7(13)12-3-1-2-6(12)9(16)11-5-8(14)15/h6H,1-5,10H2,(H,11,16)(H,14,15)/t6-/m0/s1
Compound 8: water, H2O, InChI=1S/H2O/h1H2, purity 99.8%

System: water + glycylalanylglycine; phases: Liquid
Fixed: Pressure, kPa = 101
Property: Mass density, kg/m3 (Liquid); method: Vibrating tube method
Temperature, K	Molality, mol/kg of glycylalanylglycine	Mass density, kg/m3	uncertainty
288.15	0.10134	1006.572	0.093
288.15	0.0796	1004.988	0.092
288.15	0.07302	1004.508	0.093
288.15	0.05691	1003.318	0.092
288.15	0.04998	1002.814	0.091
288.15	0.03948	1002.039	0.091
288.15	0.0302	1001.349	0.091
288.15	0.02018	1000.603	0.091
303.15	0.09939	1002.802	0.093
303.15	0.08978	1002.121	0.091
303.15	0.07952	1001.396	0.09
303.15	0.06994	1000.715	0.086
303.15	0.05998	999.995	0.093
303.15	0.04967	999.257	0.09
303.15	0.03981	998.547	0.092
303.15	0.03115	997.917	0.136
313.15	0.08978	998.616	0.09
313.15	0.07952	997.897	0.09
313.15	0.06994	997.225	0.09
313.15	0.0603	996.541	0.091
313.15	0.04967	995.784	0.091
313.15	0.03981	995.083	0.091
313.15	0.03115	994.461	0.091

System: water + glycyl-L-valylglycine; phases: Liquid
Fixed: Pressure, kPa = 101
Property: Mass density, kg/m3 (Liquid); method: Vibrating tube method
Temperature, K	Molality, mol/kg of glycyl-L-valylglycine	Mass density, kg/m3	uncertainty
288.15	0.08031	1004.856	0.089
288.15	0.07369	1004.388	0.089
288.15	0.06152	1003.526	0.089
288.15	0.05581	1003.111	0.089
288.15	0.05168	1002.823	0.088
288.15	0.04662	1002.465	0.089
288.15	0.03769	1001.825	0.089
288.15	0.02808	1001.134	0.089
288.15	0.01862	1000.448	0.089
303.15	0.09397	1002.139	0.087
303.15	0.08365	1001.427	0.093
303.15	0.07464	1000.82	0.087
303.15	0.06481	1000.144	0.091
303.15	0.05567	999.521	0.086
303.15	0.04619	998.869	0.104
303.15	0.0373	998.253	0.086
303.15	0.02786	997.6	0.13
313.15	0.09182	998.467	0.085
313.15	0.08323	997.9	0.086
313.15	0.0741	997.273	0.087
313.15	0.06483	996.652	0.087
313.15	0.05558	996.017	0.087
313.15	0.03709	994.764	0.087
313.15	0.02584	993.998	0.088
313.15	0.02103	993.668	0.088

System: glycyl-L-leucylglycine + water; phases: Liquid
Fixed: Pressure, kPa = 101
Property: Mass density, kg/m3 (Liquid); method: Vibrating tube method
Temperature, K	Molality, mol/kg of glycyl-L-leucylglycine	Mass density, kg/m3	uncertainty
288.15	0.10084	1005.925	0.086
288.15	0.09106	1005.269	0.085
288.15	0.08092	1004.604	0.085
288.15	0.07034	1003.897	0.086
288.15	0.06015	1003.201	0.086
288.15	0.05063	1002.567	0.085
288.15	0.04107	1001.911	0.086
288.15	0.03052	1001.197	0.085
298.15	0.09698	1003.496	0.073
298.15	0.08576	1002.768	0.084
298.15	0.07265	1001.901	0.087
298.15	0.0606	1001.106	0.085
298.15	0.04637	1000.163	0.082
298.15	0.03198	999.201	0.083
298.15	0.01963	998.372	0.085
303.15	0.09709	1002.029	0.073
303.15	0.08729	1001.402	0.085
303.15	0.07699	1000.729	0.087
303.15	0.06905	1000.215	0.081
303.15	0.05715	999.436	0.083
303.15	0.04881	998.896	0.085
303.15	0.03847	998.204	0.084
303.15	0.01876	996.907	0.09
313.15	0.10047	998.668	0.082
313.15	0.0869	997.826	0.083
313.15	0.07763	997.232	0.083
313.15	0.06755	996.608	0.084
313.15	0.04912	995.406	0.085
313.15	0.02873	994.105	0.085
313.15	0.01926	993.479	0.086

System: water + glycyl-L-isoleucylglycine; phases: Liquid
Fixed: Pressure, kPa = 101
Property: Mass density, kg/m3 (Liquid); method: Vibrating tube method
Temperature, K	Molality, mol/kg of glycyl-L-isoleucylglycine	Mass density, kg/m3	uncertainty
288.15	0.10118	1006.018	0.087
288.15	0.08916	1005.206	0.086
288.15	0.07955	1004.56	0.086
288.15	0.06935	1003.868	0.086
288.15	0.05715	1003.044	0.086
288.15	0.04918	1002.499	0.087
288.15	0.03948	1001.828	0.086
288.15	0.0284	1001.068	0.086
303.15	0.09989	1002.231	0.083
303.15	0.07945	1000.909	0.086
303.15	0.06849	1000.206	0.097
303.15	0.05907	999.58	0.084
303.15	0.04827	998.872	0.085
303.15	0.04344	998.561	0.092
303.15	0.0328	997.846	0.09
303.15	0.01893	996.925	0.086
313.15	0.07966	997.418	0.084
313.15	0.05971	996.132	0.084
313.15	0.05061	995.543	0.085
313.15	0.04028	994.873	0.085
313.15	0.02969	994.182	0.086

System: water + glycyl-L-phenylalanylglycine; phases: Liquid
Fixed: Pressure, kPa = 101
Property: Mass density, kg/m3 (Liquid); method: Vibrating tube method
Temperature, K	Molality, mol/kg of glycyl-L-phenylalanylglycine	Mass density, kg/m3	uncertainty
288.15	0.0251	1001.305	0.103
288.15	0.02318	1001.134	0.101
288.15	0.02035	1000.893	0.102
288.15	0.01783	1000.665	0.102
288.15	0.01398	1000.334	0.102
288.15	0.01159	1000.117	0.102
288.15	0.008946	999.888	0.101
288.15	0.005986	999.628	0.102
303.15	0.02447	997.735	0.155
303.15	0.02246	997.559	0.056
303.15	0.01958	997.317	0.082
303.15	0.01814	997.19	0.106
303.15	0.01556	996.971	0.15
303.15	0.01353	996.804	0.084
303.15	0.01148	996.632	0.088
303.15	0.00896	996.415	0.269
313.15	0.02522	994.324	0.103
313.15	0.02333	994.159	0.1
313.15	0.02033	993.916	0.1
313.15	0.01761	993.683	0.101
313.15	0.01556	993.516	0.099
313.15	0.01353	993.351	0.099
313.15	0.01149	993.182	0.1
313.15	0.00896	992.969	0.101
313.15	0.004093	992.563	0.1

System: water + glycyl-L-methionylglycine; phases: Liquid
Fixed: Pressure, kPa = 101
Property: Mass density, kg/m3 (Liquid); method: Vibrating tube method
Temperature, K	Molality, mol/kg of glycyl-L-methionylglycine	Mass density, kg/m3	uncertainty
288.15	0.0913	1007.18	0.106
288.15	0.07978	1006.176	0.105
288.15	0.07183	1005.483	0.105
288.15	0.06017	1004.459	0.105
288.15	0.05024	1003.583	0.104
288.15	0.04038	1002.711	0.104
288.15	0.03005	1001.792	0.104
288.15	0.02481	1001.327	0.103
288.15	0.02065	1000.956	0.104
303.15	0.10121	1004.27	0.102
303.15	0.08988	1003.321	0.113
303.15	0.07911	1002.43	0.099
303.15	0.06988	1001.654	0.097
303.15	0.05998	1000.82	0.096
303.15	0.03988	999.096	0.106
303.15	0.03024	998.275	0.142
313.15	0.08051	999.015	0.101
313.15	0.07039	998.173	0.101
313.15	0.061	997.393	0.101
313.15	0.05041	996.504	0.101
313.15	0.04003	995.629	0.101
313.15	0.03002	994.787	0.102
313.15	0.0199	993.923	0.102

System: glycyl-L-prolylglycine + water; phases: Liquid
Fixed: Pressure, kPa = 101
Property: Mass density, kg/m3 (Liquid); method: Vibrating tube method
Temperature, K	Molality, mol/kg of glycyl-L-prolylglycine	Mass density, kg/m3	uncertainty
288.15	0.05375	1003.692	0.1
288.15	0.04775	1003.187	0.101
288.15	0.04486	1002.929	0.1
288.15	0.04017	1002.539	0.1
288.15	0.0347	1002.067	0.1
288.15	0.02989	1001.662	0.1
288.15	0.0252	1001.26	0.1
288.15	0.02017	1000.829	0.1
303.15	0.05219	1000.008	0.053
303.15	0.04731	999.598	0.096
303.15	0.04242	999.195	0.105
303.15	0.03677	998.728	0.11
303.15	0.03212	998.333	0.109
303.15	0.02697	997.912	0.109
303.15	0.02292	997.573	0.099
313.15	0.05169	996.482	0.1
313.15	0.04731	996.116	0.098
313.15	0.04242	995.724	0.098
313.15	0.03715	995.286	0.099
313.15	0.03212	994.873	0.099
313.15	0.02757	994.502	0.098
