Measured thermophysical data. Solvation behaviour of biologically active compounds in aqueous solutions of antibacterial drug amoxicillin at different temperatures
Source: J. Chem. Thermodyn., 2014, 10.1016/j.jct.2014.03.015
Compound 1: 2-aminoacetic acid, C2H5NO2, InChI=1S/C2H5NO2/c3-1-2(4)5/h1,3H2,(H,4,5), purity 99%
Compound 2: (S)-2-aminopropanoic acid, C3H7NO2, InChI=1S/C3H7NO2/c1-2(4)3(5)6/h2H,4H2,1H3,(H,5,6)/t2-/m0/s1, purity 99%
Compound 3: L-valine, C5H11NO2, InChI=1S/C5H11NO2/c1-3(2)4(6)5(7)8/h3-4H,6H2,1-2H3,(H,7,8)/t4-/m0/s1, purity 99%
Compound 4: L-leucine, C6H13NO2, InChI=1S/C6H13NO2/c1-4(2)3-5(7)6(8)9/h4-5H,3,7H2,1-2H3,(H,8,9)/t5-/m0/s1, purity 99%
Compound 5: amoxicillin, C16H19N3O5S, InChI=1S/C16H19N3O5S/c1-16(2)11(15(23)24)19-13(22)10(14(19)25-16)18-12(21)9(17)7-3-5-8(20)6-4-7/h3-6,9-11,14,20H,17H2,1-2H3,(H,18,21)(H,23,24)/t9-,10-,11+,14-/m1/s1, purity 99%
Compound 6: water, H2O, InChI=1S/H2O/h1H2

System: water; phases: Liquid
Fixed: Pressure, kPa = 100
Property: Mass density, kg/m3 (Liquid); method: Vibrating tube method
Temperature, K	Mass density, kg/m3	uncertainty
305.15	995.09	0.161
310.15	993.403	0.161
315.15	991.51	0.161

System: water; phases: Liquid
Fixed: Pressure, kPa = 100
Fixed: Frequency, MHz = 3
Property: Speed of sound, m/s (Liquid); method: Sing-around technique in a fixed-path interferometer
Temperature, K	Speed of sound, m/s	uncertainty
305.15	1513.52	1.41
310.15	1523.65	1.42
315.15	1532.24	1.42

System: 2-aminoacetic acid + water + amoxicillin; phases: Liquid
Fixed: Pressure, kPa = 100
Property: Mass density, kg/m3 (Liquid); method: Vibrating tube method
Temperature, K	Solvent: Molality, mol/kg of amoxicillin	Molality, mol/kg of 2-aminoacetic acid	Mass density, kg/m3	uncertainty
305.15	0	0	995.09	0.161
305.15	0	0.00201	995.155	0.161
305.15	0	0.0038	995.212	0.161
305.15	0	0.0061	995.285	0.161
305.15	0	0.00792	995.341	0.161
305.15	0	0.00994	995.403	0.161
305.15	0	0.01199	995.465	0.161
305.15	0	0.01396	995.523	0.161
305.15	0	0.01594	995.58	0.161
305.15	0	0.017	995.61	0.161
305.15	0	0.01986	995.692	0.161
310.15	0	0	993.403	0.161
310.15	0	0.00201	993.467	0.161
310.15	0	0.0038	993.524	0.161
310.15	0	0.0061	993.595	0.161
310.15	0	0.00792	993.651	0.161
310.15	0	0.00994	993.712	0.161
310.15	0	0.01199	993.772	0.161
310.15	0	0.01396	993.829	0.161
310.15	0	0.01594	993.886	0.161
310.15	0	0.017	993.915	0.161
310.15	0	0.01986	993.995	0.161
315.15	0	0	991.51	0.161
315.15	0	0.00201	991.574	0.161
315.15	0	0.0038	991.629	0.161
315.15	0	0.0061	991.7	0.161
315.15	0	0.00792	991.755	0.161
315.15	0	0.00994	991.815	0.161
315.15	0	0.01199	991.875	0.161
315.15	0	0.01396	991.931	0.161
315.15	0	0.01594	991.987	0.161
315.15	0	0.017	992.016	0.161
315.15	0	0.01986	992.095	0.161
305.15	0.0005	0	995.178	0.161
305.15	0.0005	0.002	995.238	0.161
305.15	0.0005	0.00401	995.298	0.161
305.15	0.0005	0.00595	995.354	0.161
305.15	0.0005	0.00798	995.412	0.161
305.15	0.0005	0.00997	995.468	0.161
305.15	0.0005	0.01183	995.52	0.161
305.15	0.0005	0.01387	995.575	0.161
305.15	0.0005	0.01595	995.631	0.161
305.15	0.0005	0.01796	995.684	0.161
305.15	0.0005	0.01974	995.729	0.161
310.15	0.0005	0	993.478	0.161
310.15	0.0005	0.002	993.537	0.161
310.15	0.0005	0.00401	993.595	0.161
310.15	0.0005	0.00595	993.651	0.161
310.15	0.0005	0.00798	993.707	0.161
310.15	0.0005	0.00997	993.762	0.161
310.15	0.0005	0.01183	993.813	0.161
310.15	0.0005	0.01387	993.867	0.161
310.15	0.0005	0.01595	993.921	0.161
310.15	0.0005	0.01796	993.973	0.161
310.15	0.0005	0.01974	994.017	0.161
315.15	0.0005	0	991.583	0.161
315.15	0.0005	0.002	991.641	0.161
315.15	0.0005	0.00401	991.699	0.161
315.15	0.0005	0.00595	991.754	0.161
315.15	0.0005	0.00798	991.81	0.161
315.15	0.0005	0.00997	991.864	0.161
315.15	0.0005	0.01183	991.914	0.161
315.15	0.0005	0.01387	991.967	0.161
315.15	0.0005	0.01595	992.021	0.161
315.15	0.0005	0.01796	992.072	0.161
315.15	0.0005	0.01974	992.116	0.161
305.15	0.002	0	995.354	0.161
305.15	0.002	0.00201	995.409	0.161
305.15	0.002	0.00396	995.462	0.161
305.15	0.002	0.00592	995.514	0.161
305.15	0.002	0.00795	995.567	0.161
305.15	0.002	0.01004	995.621	0.161
305.15	0.002	0.01217	995.675	0.161
305.15	0.002	0.01411	995.723	0.161
305.15	0.002	0.01681	995.788	0.161
305.15	0.002	0.01791	995.815	0.161
305.15	0.002	0.01983	995.86	0.161
310.15	0.002	0	993.654	0.161
310.15	0.002	0.00201	993.708	0.161
310.15	0.002	0.00396	993.76	0.161
310.15	0.002	0.00592	993.811	0.161
310.15	0.002	0.00795	993.863	0.161
310.15	0.002	0.01004	993.915	0.161
310.15	0.002	0.01217	993.968	0.161
310.15	0.002	0.01411	994.015	0.161
310.15	0.002	0.01681	994.079	0.161
310.15	0.002	0.01791	994.104	0.161
310.15	0.002	0.01983	994.149	0.161
315.15	0.002	0	991.765	0.161
315.15	0.002	0.00201	991.819	0.161
315.15	0.002	0.00396	991.87	0.161
315.15	0.002	0.00592	991.92	0.161
315.15	0.002	0.00795	991.971	0.161
315.15	0.002	0.01004	992.023	0.161
315.15	0.002	0.01217	992.075	0.161
315.15	0.002	0.01411	992.121	0.161
315.15	0.002	0.01681	992.185	0.161
315.15	0.002	0.01791	992.21	0.161
315.15	0.002	0.01983	992.254	0.161
305.15	0.004	0	995.574	0.161
305.15	0.004	0.00217	995.628	0.161
305.15	0.004	0.00437	995.683	0.161
305.15	0.004	0.00589	995.719	0.161
305.15	0.004	0.00796	995.769	0.161
305.15	0.004	0.00983	995.812	0.161
305.15	0.004	0.0121	995.864	0.161
305.15	0.004	0.01398	995.906	0.161
305.15	0.004	0.01602	995.95	0.161
305.15	0.004	0.01764	995.984	0.161
305.15	0.004	0.01897	996.012	0.161
310.15	0.004	0	993.864	0.161
310.15	0.004	0.00217	993.917	0.161
310.15	0.004	0.00437	993.971	0.161
310.15	0.004	0.00589	994.006	0.161
310.15	0.004	0.00796	994.054	0.161
310.15	0.004	0.00983	994.097	0.161
310.15	0.004	0.0121	994.147	0.161
310.15	0.004	0.01398	994.188	0.161
310.15	0.004	0.01602	994.232	0.161
310.15	0.004	0.01764	994.265	0.161
310.15	0.004	0.01897	994.291	0.161
315.15	0.004	0	992.027	0.161
315.15	0.004	0.00217	992.079	0.161
315.15	0.004	0.00437	992.131	0.161
315.15	0.004	0.00589	992.167	0.161
315.15	0.004	0.00796	992.214	0.161
315.15	0.004	0.00983	992.255	0.161
315.15	0.004	0.0121	992.305	0.161
315.15	0.004	0.01398	992.345	0.161
315.15	0.004	0.01602	992.388	0.161
315.15	0.004	0.01764	992.42	0.161
315.15	0.004	0.01897	992.447	0.161

System: 2-aminoacetic acid + water + amoxicillin; phases: Liquid
Fixed: Pressure, kPa = 100
Fixed: Frequency, MHz = 3
Property: Speed of sound, m/s (Liquid); method: Sing-around technique in a fixed-path interferometer
Temperature, K	Solvent: Molality, mol/kg of amoxicillin	Molality, mol/kg of 2-aminoacetic acid	Speed of sound, m/s	uncertainty
305.15	0	0	1513.52	1.41
305.15	0	0.00201	1513.64	1.41
305.15	0	0.0038	1513.77	1.41
305.15	0	0.0061	1513.86	1.41
305.15	0	0.00792	1514.03	1.41
305.15	0	0.00994	1514.23	1.41
305.15	0	0.01199	1514.4	1.41
305.15	0	0.01396	1514.52	1.41
305.15	0	0.01594	1514.61	1.41
305.15	0	0.017	1514.86	1.41
305.15	0	0.01986	1515.11	1.41
310.15	0	0	1523.65	1.42
310.15	0	0.00201	1523.71	1.42
310.15	0	0.0038	1523.85	1.42
310.15	0	0.0061	1524.01	1.42
310.15	0	0.00792	1524.12	1.42
310.15	0	0.00994	1524.28	1.42
310.15	0	0.01199	1524.39	1.42
310.15	0	0.01396	1524.48	1.42
310.15	0	0.01594	1524.65	1.42
310.15	0	0.017	1524.79	1.42
310.15	0	0.01986	1524.95	1.42
315.15	0	0	1532.24	1.42
315.15	0	0.00201	1532.37	1.42
315.15	0	0.0038	1532.5	1.42
315.15	0	0.0061	1532.61	1.42
315.15	0	0.00792	1532.73	1.42
315.15	0	0.00994	1532.81	1.42
315.15	0	0.01199	1532.9	1.42
315.15	0	0.01396	1532.98	1.42
315.15	0	0.01594	1533.06	1.42
315.15	0	0.017	1533.15	1.42
315.15	0	0.01986	1533.28	1.42
305.15	0.0005	0	1513.72	1.41
305.15	0.0005	0.002	1513.79	1.41
305.15	0.0005	0.00401	1514.18	1.41
305.15	0.0005	0.00595	1514.21	1.41
305.15	0.0005	0.00798	1514.28	1.41
305.15	0.0005	0.00997	1514.36	1.41
305.15	0.0005	0.01183	1514.47	1.41
305.15	0.0005	0.01387	1514.56	1.41
305.15	0.0005	0.01595	1514.64	1.41
305.15	0.0005	0.01796	1514.89	1.41
305.15	0.0005	0.01974	1515.34	1.41
310.15	0.0005	0	1523.76	1.41
310.15	0.0005	0.002	1523.75	1.41
310.15	0.0005	0.00401	1523.91	1.41
310.15	0.0005	0.00595	1524.05	1.41
310.15	0.0005	0.00798	1524.21	1.41
310.15	0.0005	0.00997	1524.38	1.42
310.15	0.0005	0.01183	1524.42	1.42
310.15	0.0005	0.01387	1524.69	1.42
310.15	0.0005	0.01595	1524.82	1.42
310.15	0.0005	0.01796	1524.99	1.42
310.15	0.0005	0.01974	1525.09	1.42
315.15	0.0005	0	1532.43	1.42
315.15	0.0005	0.002	1532.44	1.42
315.15	0.0005	0.00401	1532.57	1.42
315.15	0.0005	0.00595	1532.65	1.42
315.15	0.0005	0.00798	1532.82	1.42
315.15	0.0005	0.00997	1532.95	1.42
315.15	0.0005	0.01183	1533.08	1.42
315.15	0.0005	0.01387	1533.14	1.42
315.15	0.0005	0.01595	1533.35	1.42
315.15	0.0005	0.01796	1533.52	1.42
315.15	0.0005	0.01974	1533.69	1.42
305.15	0.002	0	1514.12	1.41
305.15	0.002	0.00201	1513.91	1.41
305.15	0.002	0.00396	1514.21	1.41
305.15	0.002	0.00592	1514.42	1.41
305.15	0.002	0.00795	1514.57	1.41
305.15	0.002	0.01004	1514.65	1.41
305.15	0.002	0.01217	1514.71	1.41
305.15	0.002	0.01411	1514.79	1.41
305.15	0.002	0.01681	1514.87	1.41
305.15	0.002	0.01791	1514.93	1.41
305.15	0.002	0.01983	1515.4	1.4
310.15	0.002	0	1524.06	1.41
310.15	0.002	0.00201	1524.12	1.41
310.15	0.002	0.00396	1524.24	1.41
310.15	0.002	0.00592	1524.36	1.41
310.15	0.002	0.00795	1524.51	1.41
310.15	0.002	0.01004	1524.67	1.42
310.15	0.002	0.01217	1524.8	1.42
310.15	0.002	0.01411	1524.85	1.42
310.15	0.002	0.01681	1525.05	1.42
310.15	0.002	0.01791	1525.12	1.42
310.15	0.002	0.01983	1525.21	1.42
315.15	0.002	0	1532.52	1.42
315.15	0.002	0.00201	1532.64	1.42
315.15	0.002	0.00396	1532.73	1.42
315.15	0.002	0.00592	1532.88	1.42
315.15	0.002	0.00795	1533.01	1.42
315.15	0.002	0.01004	1533.06	1.42
315.15	0.002	0.01217	1533.21	1.42
315.15	0.002	0.01411	1533.39	1.42
315.15	0.002	0.01681	1533.56	1.42
315.15	0.002	0.01791	1533.67	1.42
315.15	0.002	0.01983	1533.72	1.42
305.15	0.004	0	1513.97	1.41
305.15	0.004	0.00217	1514.29	1.41
305.15	0.004	0.00437	1514.36	1.41
305.15	0.004	0.00589	1514.47	1.41
305.15	0.004	0.00796	1514.65	1.41
305.15	0.004	0.00983	1514.74	1.41
305.15	0.004	0.0121	1514.82	1.41
305.15	0.004	0.01398	1514.93	1.41
305.15	0.004	0.01602	1515.03	1.41
305.15	0.004	0.01764	1515.36	1.41
305.15	0.004	0.01897	1515.42	1.41
310.15	0.004	0	1524.01	1.41
310.15	0.004	0.00217	1524.19	1.41
310.15	0.004	0.00437	1524.27	1.41
310.15	0.004	0.00589	1524.4	1.41
310.15	0.004	0.00796	1524.6	1.41
310.15	0.004	0.00983	1524.75	1.42
310.15	0.004	0.0121	1524.95	1.42
310.15	0.004	0.01398	1525.01	1.42
310.15	0.004	0.01602	1525.15	1.42
310.15	0.004	0.01764	1525.36	1.42
310.15	0.004	0.01897	1525.43	1.42
315.15	0.004	0	1532.41	1.42
315.15	0.004	0.00217	1532.7	1.42
315.15	0.004	0.00437	1532.91	1.42
315.15	0.004	0.00589	1533.08	1.42
315.15	0.004	0.00796	1533.15	1.42
315.15	0.004	0.00983	1533.23	1.42
315.15	0.004	0.0121	1533.43	1.42
315.15	0.004	0.01398	1533.57	1.42
315.15	0.004	0.01602	1533.62	1.42
315.15	0.004	0.01764	1533.75	1.42
315.15	0.004	0.01897	1533.85	1.42

System: (S)-2-aminopropanoic acid + water + amoxicillin; phases: Liquid
Fixed: Pressure, kPa = 100
Property: Mass density, kg/m3 (Liquid); method: Vibrating tube method
Temperature, K	Solvent: Molality, mol/kg of amoxicillin	Molality, mol/kg of (S)-2-aminopropanoic acid	Mass density, kg/m3	uncertainty
305.15	0	0	995.09	0.161
305.15	0	0.00202	995.147	0.161
305.15	0	0.00402	995.203	0.161
305.15	0	0.00605	995.258	0.161
305.15	0	0.00801	995.311	0.161
305.15	0	0.00992	995.362	0.161
305.15	0	0.01194	995.415	0.161
305.15	0	0.01402	995.469	0.161
305.15	0	0.01595	995.519	0.161
305.15	0	0.01801	995.571	0.161
305.15	0	0.02	995.62	0.161
310.15	0	0	993.403	0.161
310.15	0	0.00202	993.459	0.161
310.15	0	0.00402	993.514	0.161
310.15	0	0.00605	993.569	0.161
310.15	0	0.00801	993.622	0.161
310.15	0	0.00992	993.672	0.161
310.15	0	0.01194	993.725	0.161
310.15	0	0.01402	993.778	0.161
310.15	0	0.01595	993.827	0.161
310.15	0	0.01801	993.878	0.161
310.15	0	0.02	993.927	0.161
315.15	0	0	991.51	0.161
315.15	0	0.00202	991.566	0.161
315.15	0	0.00402	991.62	0.161
315.15	0	0.00605	991.675	0.161
315.15	0	0.00801	991.727	0.161
315.15	0	0.00992	991.777	0.161
315.15	0	0.01194	991.829	0.161
315.15	0	0.01402	991.881	0.161
315.15	0	0.01595	991.93	0.161
315.15	0	0.01801	991.98	0.161
315.15	0	0.02	992.029	0.161
305.15	0.0005	0	995.178	0.161
305.15	0.0005	0.00201	995.231	0.161
305.15	0.0005	0.00402	995.283	0.161
305.15	0.0005	0.00624	995.339	0.161
305.15	0.0005	0.00793	995.382	0.161
305.15	0.0005	0.01008	995.435	0.161
305.15	0.0005	0.01224	995.488	0.161
305.15	0.0005	0.01385	995.526	0.161
305.15	0.0005	0.01576	995.571	0.161
305.15	0.0005	0.01789	995.621	0.161
305.15	0.0005	0.01969	995.662	0.161
310.15	0.0005	0	993.478	0.161
310.15	0.0005	0.00201	993.53	0.161
310.15	0.0005	0.00402	993.581	0.161
310.15	0.0005	0.00624	993.637	0.161
310.15	0.0005	0.00793	993.679	0.161
310.15	0.0005	0.01008	993.731	0.161
310.15	0.0005	0.01224	993.783	0.161
310.15	0.0005	0.01385	993.821	0.161
310.15	0.0005	0.01576	993.865	0.161
310.15	0.0005	0.01789	993.914	0.161
310.15	0.0005	0.01969	993.954	0.161
315.15	0.0005	0	991.583	0.161
315.15	0.0005	0.00201	991.635	0.161
315.15	0.0005	0.00402	991.685	0.161
315.15	0.0005	0.00624	991.741	0.161
315.15	0.0005	0.00793	991.782	0.161
315.15	0.0005	0.01008	991.834	0.161
315.15	0.0005	0.01224	991.885	0.161
315.15	0.0005	0.01385	991.923	0.161
315.15	0.0005	0.01576	991.967	0.161
315.15	0.0005	0.01789	992.015	0.161
315.15	0.0005	0.01969	992.055	0.161
305.15	0.002	0	995.354	0.161
305.15	0.002	0.00202	995.403	0.161
305.15	0.002	0.00395	995.449	0.161
305.15	0.002	0.00601	995.497	0.161
305.15	0.002	0.00804	995.544	0.161
305.15	0.002	0.00993	995.587	0.161
305.15	0.002	0.01199	995.633	0.161
305.15	0.002	0.01399	995.677	0.161
305.15	0.002	0.01604	995.722	0.161
305.15	0.002	0.01802	995.764	0.161
305.15	0.002	0.02001	995.805	0.161
310.15	0.002	0	993.654	0.161
310.15	0.002	0.00202	993.702	0.161
310.15	0.002	0.00395	993.747	0.161
310.15	0.002	0.00601	993.795	0.161
310.15	0.002	0.00804	993.841	0.161
310.15	0.002	0.00993	993.884	0.161
310.15	0.002	0.01199	993.929	0.161
310.15	0.002	0.01399	993.972	0.161
310.15	0.002	0.01604	994.016	0.161
310.15	0.002	0.01802	994.057	0.161
310.15	0.002	0.02001	994.098	0.161
315.15	0.002	0	991.765	0.161
315.15	0.002	0.00202	991.813	0.161
315.15	0.002	0.00395	991.858	0.161
315.15	0.002	0.00601	991.905	0.161
315.15	0.002	0.00804	991.95	0.161
315.15	0.002	0.00993	991.992	0.161
315.15	0.002	0.01199	992.037	0.161
315.15	0.002	0.01399	992.08	0.161
315.15	0.002	0.01604	992.123	0.161
315.15	0.002	0.01802	992.164	0.161
315.15	0.002	0.02001	992.204	0.161
305.15	0.004	0	995.574	0.161
305.15	0.004	0.00191	995.616	0.161
305.15	0.004	0.0041	995.664	0.161
305.15	0.004	0.00604	995.706	0.161
305.15	0.004	0.00798	995.747	0.161
305.15	0.004	0.00991	995.786	0.161
305.15	0.004	0.01195	995.828	0.161
305.15	0.004	0.01396	995.868	0.161
305.15	0.004	0.01599	995.907	0.161
305.15	0.004	0.01898	995.965	0.161
305.15	0.004	0.02013	995.986	0.161
310.15	0.004	0	993.864	0.161
310.15	0.004	0.00191	993.906	0.161
310.15	0.004	0.0041	993.953	0.161
310.15	0.004	0.00604	993.994	0.161
310.15	0.004	0.00798	994.034	0.161
310.15	0.004	0.00991	994.073	0.161
310.15	0.004	0.01195	994.114	0.161
310.15	0.004	0.01396	994.154	0.161
310.15	0.004	0.01599	994.193	0.161
310.15	0.004	0.01898	994.249	0.161
310.15	0.004	0.02013	994.27	0.161
315.15	0.004	0	992.027	0.161
315.15	0.004	0.00191	992.068	0.161
315.15	0.004	0.0041	992.115	0.161
315.15	0.004	0.00604	992.155	0.161
315.15	0.004	0.00798	992.195	0.161
315.15	0.004	0.00991	992.234	0.161
315.15	0.004	0.01195	992.274	0.161
315.15	0.004	0.01396	992.313	0.161
315.15	0.004	0.01599	992.351	0.161
315.15	0.004	0.01898	992.407	0.161
315.15	0.004	0.02013	992.428	0.161

System: (S)-2-aminopropanoic acid + water + amoxicillin; phases: Liquid
Fixed: Pressure, kPa = 100
Fixed: Frequency, MHz = 3
Property: Speed of sound, m/s (Liquid); method: Sing-around technique in a fixed-path interferometer
Temperature, K	Solvent: Molality, mol/kg of amoxicillin	Molality, mol/kg of (S)-2-aminopropanoic acid	Speed of sound, m/s	uncertainty
305.15	0	0	1513.52	1.41
305.15	0	0.00202	1513.72	1.41
305.15	0	0.00402	1513.81	1.41
305.15	0	0.00605	1514.04	1.41
305.15	0	0.00801	1514.23	1.41
305.15	0	0.00992	1514.36	1.41
305.15	0	0.01194	1514.51	1.41
305.15	0	0.01402	1514.64	1.41
305.15	0	0.01595	1514.78	1.41
305.15	0	0.01801	1514.89	1.41
305.15	0	0.02	1514.99	1.41
310.15	0	0	1523.65	1.42
310.15	0	0.00202	1523.75	1.42
310.15	0	0.00402	1523.95	1.42
310.15	0	0.00605	1524.04	1.42
310.15	0	0.00801	1524.21	1.42
310.15	0	0.00992	1524.32	1.42
310.15	0	0.01194	1524.41	1.42
310.15	0	0.01402	1524.5	1.42
310.15	0	0.01595	1524.77	1.42
310.15	0	0.01801	1524.89	1.42
310.15	0	0.02	1525.01	1.42
315.15	0	0	1532.24	1.42
315.15	0	0.00202	1532.48	1.42
315.15	0	0.00402	1532.54	1.42
315.15	0	0.00605	1532.63	1.42
315.15	0	0.00801	1532.78	1.42
315.15	0	0.00992	1532.94	1.42
315.15	0	0.01194	1533.15	1.42
315.15	0	0.01402	1533.32	1.42
315.15	0	0.01595	1533.42	1.42
315.15	0	0.01801	1533.52	1.42
315.15	0	0.02	1533.59	1.42
305.15	0.0005	0	1513.72	1.41
305.15	0.0005	0.00201	1513.89	1.41
305.15	0.0005	0.00402	1513.92	1.41
305.15	0.0005	0.00624	1514.15	1.41
305.15	0.0005	0.00793	1514.49	1.41
305.15	0.0005	0.01008	1514.85	1.41
305.15	0.0005	0.01224	1515.05	1.41
305.15	0.0005	0.01385	1515.09	1.41
305.15	0.0005	0.01576	1515.19	1.41
305.15	0.0005	0.01789	1515.31	1.41
305.15	0.0005	0.01969	1515.63	1.41
310.15	0.0005	0	1523.76	1.41
310.15	0.0005	0.00201	1523.82	1.41
310.15	0.0005	0.00402	1523.97	1.41
310.15	0.0005	0.00624	1524.16	1.41
310.15	0.0005	0.00793	1524.35	1.41
310.15	0.0005	0.01008	1524.42	1.41
310.15	0.0005	0.01224	1524.53	1.41
310.15	0.0005	0.01385	1524.86	1.42
310.15	0.0005	0.01576	1524.85	1.42
310.15	0.0005	0.01789	1525.08	1.42
310.15	0.0005	0.01969	1525.14	1.42
315.15	0.0005	0	1532.43	1.42
315.15	0.0005	0.00201	1532.53	1.42
315.15	0.0005	0.00402	1532.62	1.42
315.15	0.0005	0.00624	1532.78	1.42
315.15	0.0005	0.00793	1532.91	1.42
315.15	0.0005	0.01008	1533.02	1.42
315.15	0.0005	0.01224	1533.24	1.42
315.15	0.0005	0.01385	1533.36	1.42
315.15	0.0005	0.01576	1533.63	1.42
315.15	0.0005	0.01789	1533.75	1.42
315.15	0.0005	0.01969	1533.86	1.42
305.15	0.002	0	1514.12	1.41
305.15	0.002	0.00202	1514.21	1.41
305.15	0.002	0.00395	1514.33	1.41
305.15	0.002	0.00601	1514.5	1.41
305.15	0.002	0.00804	1514.75	1.41
305.15	0.002	0.00993	1514.91	1.41
305.15	0.002	0.01199	1515.04	1.41
305.15	0.002	0.01399	1515.23	1.41
305.15	0.002	0.01604	1515.49	1.41
305.15	0.002	0.01802	1515.65	1.41
305.15	0.002	0.02001	1515.72	1.41
310.15	0.002	0	1524.06	1.41
310.15	0.002	0.00202	1524.16	1.41
310.15	0.002	0.00395	1524.25	1.41
310.15	0.002	0.00601	1524.41	1.41
310.15	0.002	0.00804	1524.54	1.41
310.15	0.002	0.00993	1524.69	1.42
310.15	0.002	0.01199	1524.85	1.42
310.15	0.002	0.01399	1524.91	1.42
310.15	0.002	0.01604	1525.11	1.42
310.15	0.002	0.01802	1525.19	1.42
310.15	0.002	0.02001	1525.25	1.42
315.15	0.002	0	1532.52	1.42
315.15	0.002	0.00202	1532.75	1.42
315.15	0.002	0.00395	1532.96	1.42
315.15	0.002	0.00601	1533.03	1.42
315.15	0.002	0.00804	1533.13	1.42
315.15	0.002	0.00993	1533.25	1.42
315.15	0.002	0.01199	1533.42	1.42
315.15	0.002	0.01399	1533.64	1.42
315.15	0.002	0.01604	1533.71	1.42
315.15	0.002	0.01802	1533.77	1.42
315.15	0.002	0.02001	1533.9	1.42
305.15	0.004	0	1513.97	1.41
305.15	0.004	0.00191	1514.32	1.41
305.15	0.004	0.0041	1514.5	1.41
305.15	0.004	0.00604	1514.55	1.41
305.15	0.004	0.00798	1514.76	1.41
305.15	0.004	0.00991	1514.99	1.41
305.15	0.004	0.01195	1515.06	1.41
305.15	0.004	0.01396	1515.39	1.41
305.15	0.004	0.01599	1515.51	1.41
305.15	0.004	0.01898	1515.74	1.41
305.15	0.004	0.02013	1515.83	1.41
310.15	0.004	0	1524.01	1.42
310.15	0.004	0.00191	1524.23	1.41
310.15	0.004	0.0041	1524.33	1.41
310.15	0.004	0.00604	1524.44	1.41
310.15	0.004	0.00798	1524.66	1.42
310.15	0.004	0.00991	1524.81	1.42
310.15	0.004	0.01195	1524.96	1.42
310.15	0.004	0.01396	1525.08	1.42
310.15	0.004	0.01599	1525.28	1.42
310.15	0.004	0.01898	1525.39	1.42
310.15	0.004	0.02013	1525.45	1.42
315.15	0.004	0	1532.41	1.42
315.15	0.004	0.00191	1532.78	1.42
315.15	0.004	0.0041	1533.02	1.42
315.15	0.004	0.00604	1533.2	1.42
315.15	0.004	0.00798	1533.26	1.42
315.15	0.004	0.00991	1533.37	1.42
315.15	0.004	0.01195	1533.45	1.42
315.15	0.004	0.01396	1533.59	1.42
315.15	0.004	0.01599	1533.65	1.42
315.15	0.004	0.01898	1533.79	1.42
315.15	0.004	0.02013	1534.01	1.42

System: L-valine + water + amoxicillin; phases: Liquid
Fixed: Pressure, kPa = 100
Property: Mass density, kg/m3 (Liquid); method: Vibrating tube method
Temperature, K	Solvent: Molality, mol/kg of amoxicillin	Molality, mol/kg of L-valine	Mass density, kg/m3	uncertainty
305.15	0	0	995.09	0.161
305.15	0	0.00199	995.139	0.161
305.15	0	0.00397	995.187	0.161
305.15	0	0.00597	995.235	0.161
305.15	0	0.00791	995.281	0.161
305.15	0	0.01001	995.331	0.161
305.15	0	0.01198	995.376	0.161
305.15	0	0.01412	995.425	0.161
305.15	0	0.01598	995.467	0.161
305.15	0	0.01801	995.512	0.161
305.15	0	0.02004	995.557	0.161
310.15	0	0	993.403	0.161
310.15	0	0.00199	993.452	0.161
310.15	0	0.00397	993.5	0.161
310.15	0	0.00597	993.547	0.161
310.15	0	0.00791	993.593	0.161
310.15	0	0.01001	993.642	0.161
310.15	0	0.01198	993.688	0.161
310.15	0	0.01412	993.737	0.161
310.15	0	0.01598	993.778	0.161
310.15	0	0.01801	993.823	0.161
310.15	0	0.02004	993.867	0.161
315.15	0	0	991.51	0.161
315.15	0	0.00199	991.558	0.161
315.15	0	0.00397	991.606	0.161
315.15	0	0.00597	991.654	0.161
315.15	0	0.00791	991.699	0.161
315.15	0	0.01001	991.748	0.161
315.15	0	0.01198	991.793	0.161
315.15	0	0.01412	991.841	0.161
315.15	0	0.01598	991.883	0.161
315.15	0	0.01801	991.928	0.161
315.15	0	0.02004	991.972	0.161
305.15	0.0005	0	995.178	0.161
305.15	0.0005	0.00201	995.224	0.161
305.15	0.0005	0.0037	995.262	0.161
305.15	0.0005	0.00584	995.31	0.161
305.15	0.0005	0.00794	995.356	0.161
305.15	0.0005	0.01002	995.401	0.161
305.15	0.0005	0.01182	995.44	0.161
305.15	0.0005	0.01394	995.485	0.161
305.15	0.0005	0.01594	995.526	0.161
305.15	0.0005	0.01784	995.565	0.161
305.15	0.0005	0.01999	995.609	0.161
310.15	0.0005	0	993.478	0.161
310.15	0.0005	0.00201	993.524	0.161
310.15	0.0005	0.0037	993.562	0.161
310.15	0.0005	0.00584	993.609	0.161
310.15	0.0005	0.00794	993.655	0.161
310.15	0.0005	0.01002	993.7	0.161
310.15	0.0005	0.01182	993.738	0.161
310.15	0.0005	0.01394	993.783	0.161
310.15	0.0005	0.01594	993.824	0.161
310.15	0.0005	0.01784	993.863	0.161
310.15	0.0005	0.01999	993.906	0.161
315.15	0.0005	0	991.583	0.161
315.15	0.0005	0.00201	991.629	0.161
315.15	0.0005	0.0037	991.666	0.161
315.15	0.0005	0.00584	991.714	0.161
315.15	0.0005	0.00794	991.759	0.161
315.15	0.0005	0.01002	991.804	0.161
315.15	0.0005	0.01182	991.842	0.161
315.15	0.0005	0.01394	991.887	0.161
315.15	0.0005	0.01594	991.928	0.161
315.15	0.0005	0.01784	991.966	0.161
315.15	0.0005	0.01999	992.009	0.161
305.15	0.002	0	995.354	0.161
305.15	0.002	0.00199	995.396	0.161
305.15	0.002	0.00393	995.436	0.161
305.15	0.002	0.00604	995.479	0.161
305.15	0.002	0.00817	995.522	0.161
305.15	0.002	0.0101	995.559	0.161
305.15	0.002	0.01189	995.593	0.161
305.15	0.002	0.01418	995.637	0.161
305.15	0.002	0.01599	995.67	0.161
305.15	0.002	0.01816	995.709	0.161
305.15	0.002	0.0201	995.744	0.161
310.15	0.002	0	993.654	0.161
310.15	0.002	0.00199	993.696	0.161
310.15	0.002	0.00393	993.736	0.161
310.15	0.002	0.00604	993.779	0.161
310.15	0.002	0.00817	993.821	0.161
310.15	0.002	0.0101	993.859	0.161
310.15	0.002	0.01189	993.893	0.161
310.15	0.002	0.01418	993.935	0.161
310.15	0.002	0.01599	993.969	0.161
310.15	0.002	0.01816	994.008	0.161
310.15	0.002	0.0201	994.042	0.161
315.15	0.002	0	991.765	0.161
315.15	0.002	0.00199	991.807	0.161
315.15	0.002	0.00393	991.847	0.161
315.15	0.002	0.00604	991.889	0.161
315.15	0.002	0.00817	991.931	0.161
315.15	0.002	0.0101	991.969	0.161
315.15	0.002	0.01189	992.003	0.161
315.15	0.002	0.01418	992.045	0.161
315.15	0.002	0.01599	992.078	0.161
315.15	0.002	0.01816	992.117	0.161
315.15	0.002	0.0201	992.151	0.161
305.15	0.004	0	995.574	0.161
305.15	0.004	0.00198	995.612	0.161
305.15	0.004	0.00406	995.65	0.161
305.15	0.004	0.00609	995.687	0.161
305.15	0.004	0.00812	995.723	0.161
305.15	0.004	0.01002	995.756	0.161
305.15	0.004	0.01205	995.791	0.161
305.15	0.004	0.01401	995.823	0.161
305.15	0.004	0.01604	995.855	0.161
305.15	0.004	0.01802	995.886	0.161
305.15	0.004	0.02005	995.917	0.161
310.15	0.004	0	993.864	0.161
310.15	0.004	0.00198	993.901	0.161
310.15	0.004	0.00406	993.94	0.161
310.15	0.004	0.00609	993.977	0.161
310.15	0.004	0.00812	994.013	0.161
310.15	0.004	0.01002	994.045	0.161
310.15	0.004	0.01205	994.08	0.161
310.15	0.004	0.01401	994.112	0.161
310.15	0.004	0.01604	994.145	0.161
310.15	0.004	0.01802	994.176	0.161
310.15	0.004	0.02005	994.207	0.161
315.15	0.004	0	992.027	0.161
315.15	0.004	0.00198	992.064	0.161
315.15	0.004	0.00406	992.103	0.161
315.15	0.004	0.00609	992.139	0.161
315.15	0.004	0.00812	992.175	0.161
315.15	0.004	0.01002	992.208	0.161
315.15	0.004	0.01205	992.242	0.161
315.15	0.004	0.01401	992.274	0.161
315.15	0.004	0.01604	992.307	0.161
315.15	0.004	0.01802	992.338	0.161
315.15	0.004	0.02005	992.369	0.161

System: L-valine + water + amoxicillin; phases: Liquid
Fixed: Pressure, kPa = 100
Fixed: Frequency, MHz = 3
Property: Speed of sound, m/s (Liquid); method: Sing-around technique in a fixed-path interferometer
Temperature, K	Solvent: Molality, mol/kg of amoxicillin	Molality, mol/kg of L-valine	Speed of sound, m/s	uncertainty
305.15	0	0	1513.52	1.41
305.15	0	0.00199	1513.8	1.41
305.15	0	0.00397	1513.91	1.41
305.15	0	0.00597	1514.22	1.41
305.15	0	0.00791	1514.27	1.41
305.15	0	0.01001	1514.39	1.41
305.15	0	0.01198	1514.55	1.41
305.15	0	0.01412	1514.68	1.41
305.15	0	0.01598	1514.81	1.41
305.15	0	0.01801	1514.98	1.41
305.15	0	0.02004	1515.48	1.41
310.15	0	0	1523.65	1.42
310.15	0	0.00199	1523.83	1.42
310.15	0	0.00397	1523.98	1.42
310.15	0	0.00597	1524.15	1.42
310.15	0	0.00791	1524.24	1.42
310.15	0	0.01001	1524.45	1.42
310.15	0	0.01198	1524.58	1.42
310.15	0	0.01412	1524.75	1.42
310.15	0	0.01598	1524.87	1.42
310.15	0	0.01801	1525.07	1.42
310.15	0	0.02004	1525.24	1.42
315.15	0	0	1532.24	1.42
315.15	0	0.00199	1532.54	1.42
315.15	0	0.00397	1532.69	1.42
315.15	0	0.00597	1532.75	1.42
315.15	0	0.00791	1533.01	1.42
315.15	0	0.01001	1533.24	1.42
315.15	0	0.01198	1533.47	1.42
315.15	0	0.01412	1533.56	1.42
315.15	0	0.01598	1533.68	1.42
315.15	0	0.01801	1533.72	1.42
315.15	0	0.02004	1533.83	1.42
305.15	0.0005	0	1513.72	1.41
305.15	0.0005	0.00201	1514.01	1.41
305.15	0.0005	0.0037	1514.08	1.41
305.15	0.0005	0.00584	1514.22	1.41
305.15	0.0005	0.00794	1514.55	1.41
305.15	0.0005	0.01002	1514.61	1.41
305.15	0.0005	0.01182	1514.72	1.41
305.15	0.0005	0.01394	1515.09	1.41
305.15	0.0005	0.01594	1515.28	1.41
305.15	0.0005	0.01784	1515.39	1.41
305.15	0.0005	0.01999	1515.69	1.41
310.15	0.0005	0	1523.76	1.41
310.15	0.0005	0.00201	1523.85	1.41
310.15	0.0005	0.0037	1523.99	1.41
310.15	0.0005	0.00584	1524.17	1.41
310.15	0.0005	0.00794	1524.44	1.41
310.15	0.0005	0.01002	1524.56	1.42
310.15	0.0005	0.01182	1524.64	1.42
310.15	0.0005	0.01394	1524.88	1.42
310.15	0.0005	0.01594	1524.98	1.42
310.15	0.0005	0.01784	1525.15	1.42
310.15	0.0005	0.01999	1525.32	1.42
315.15	0.0005	0	1532.43	1.42
315.15	0.0005	0.00201	1532.62	1.42
315.15	0.0005	0.0037	1532.71	1.42
315.15	0.0005	0.00584	1532.87	1.42
315.15	0.0005	0.00794	1533.15	1.42
315.15	0.0005	0.01002	1533.32	1.42
315.15	0.0005	0.01182	1533.51	1.42
315.15	0.0005	0.01394	1533.57	1.42
315.15	0.0005	0.01594	1533.98	1.42
315.15	0.0005	0.01784	1534.19	1.42
315.15	0.0005	0.01999	1534.25	1.42
305.15	0.002	0	1514.12	1.41
305.15	0.002	0.00199	1514.26	1.41
305.15	0.002	0.00393	1514.36	1.41
305.15	0.002	0.00604	1514.56	1.41
305.15	0.002	0.00817	1514.76	1.41
305.15	0.002	0.0101	1514.95	1.41
305.15	0.002	0.01189	1515.05	1.41
305.15	0.002	0.01418	1515.26	1.41
305.15	0.002	0.01599	1515.52	1.41
305.15	0.002	0.01816	1515.72	1.41
305.15	0.002	0.0201	1515.84	1.41
310.15	0.002	0	1524.06	1.41
310.15	0.002	0.00199	1524.19	1.41
310.15	0.002	0.00393	1524.26	1.41
310.15	0.002	0.00604	1524.43	1.41
310.15	0.002	0.00817	1524.59	1.41
310.15	0.002	0.0101	1524.71	1.42
310.15	0.002	0.01189	1524.95	1.42
310.15	0.002	0.01418	1525.2	1.42
310.15	0.002	0.01599	1525.24	1.42
310.15	0.002	0.01816	1525.47	1.42
310.15	0.002	0.0201	1525.68	1.42
315.15	0.002	0	1532.52	1.42
315.15	0.002	0.00199	1532.78	1.42
315.15	0.002	0.00393	1532.97	1.42
315.15	0.002	0.00604	1533.04	1.42
315.15	0.002	0.00817	1533.19	1.42
315.15	0.002	0.0101	1533.48	1.42
315.15	0.002	0.01189	1533.57	1.42
315.15	0.002	0.01418	1533.72	1.42
315.15	0.002	0.01599	1533.99	1.42
315.15	0.002	0.01816	1534.2	1.42
315.15	0.002	0.0201	1534.26	1.42
305.15	0.004	0	1513.97	1.41
305.15	0.004	0.00198	1514.39	1.41
305.15	0.004	0.00406	1514.56	1.41
305.15	0.004	0.00609	1514.64	1.41
305.15	0.004	0.00812	1514.83	1.41
305.15	0.004	0.01002	1515.01	1.41
305.15	0.004	0.01205	1515.19	1.41
305.15	0.004	0.01401	1515.42	1.41
305.15	0.004	0.01604	1515.56	1.41
305.15	0.004	0.01802	1515.78	1.41
305.15	0.004	0.02005	1515.85	1.41
310.15	0.004	0	1524.01	1.42
310.15	0.004	0.00198	1524.29	1.41
310.15	0.004	0.00406	1524.42	1.41
310.15	0.004	0.00609	1524.52	1.41
310.15	0.004	0.00812	1524.61	1.41
310.15	0.004	0.01002	1524.82	1.42
310.15	0.004	0.01205	1525.07	1.42
310.15	0.004	0.01401	1525.15	1.42
310.15	0.004	0.01604	1525.34	1.42
310.15	0.004	0.01802	1525.56	1.42
310.15	0.004	0.02005	1525.67	1.42
315.15	0.004	0	1532.41	1.42
315.15	0.004	0.00198	1532.96	1.42
315.15	0.004	0.00406	1533.05	1.42
315.15	0.004	0.00609	1533.24	1.42
315.15	0.004	0.00812	1533.47	1.42
315.15	0.004	0.01002	1533.59	1.42
315.15	0.004	0.01205	1533.7	1.42
315.15	0.004	0.01401	1533.78	1.42
315.15	0.004	0.01604	1534.02	1.42
315.15	0.004	0.01802	1534.24	1.42
315.15	0.004	0.02005	1534.32	1.42

System: L-leucine + water + amoxicillin; phases: Liquid
Fixed: Pressure, kPa = 100
Property: Mass density, kg/m3 (Liquid); method: Vibrating tube method
Temperature, K	Solvent: Molality, mol/kg of amoxicillin	Molality, mol/kg of L-leucine	Mass density, kg/m3	uncertainty
305.15	0	0	995.09	0.161
305.15	0	0.00198	995.137	0.161
305.15	0	0.00398	995.184	0.161
305.15	0	0.00599	995.231	0.161
305.15	0	0.00792	995.275	0.161
305.15	0	0.00992	995.32	0.161
305.15	0	0.01198	995.366	0.161
305.15	0	0.01396	995.41	0.161
305.15	0	0.01601	995.455	0.161
305.15	0	0.01791	995.496	0.161
305.15	0	0.02014	995.544	0.161
310.15	0	0	993.403	0.161
310.15	0	0.00198	993.45	0.161
310.15	0	0.00398	993.496	0.161
310.15	0	0.00599	993.543	0.161
310.15	0	0.00792	993.587	0.161
310.15	0	0.00992	993.632	0.161
310.15	0	0.01198	993.678	0.161
310.15	0	0.01396	993.721	0.161
310.15	0	0.01601	993.765	0.161
310.15	0	0.01791	993.805	0.161
310.15	0	0.02014	993.853	0.161
315.15	0	0	991.51	0.161
315.15	0	0.00198	991.556	0.161
315.15	0	0.00398	991.603	0.161
315.15	0	0.00599	991.649	0.161
315.15	0	0.00792	991.692	0.161
315.15	0	0.00992	991.737	0.161
315.15	0	0.01198	991.782	0.161
315.15	0	0.01396	991.825	0.161
315.15	0	0.01601	991.869	0.161
315.15	0	0.01791	991.91	0.161
315.15	0	0.02014	991.956	0.161
305.15	0.0005	0	995.178	0.161
305.15	0.0005	0.002	995.22	0.161
305.15	0.0005	0.00401	995.262	0.161
305.15	0.0005	0.00595	995.301	0.161
305.15	0.0005	0.00797	995.342	0.161
305.15	0.0005	0.00996	995.382	0.161
305.15	0.0005	0.01183	995.419	0.161
305.15	0.0005	0.01387	995.459	0.161
305.15	0.0005	0.01595	995.499	0.161
305.15	0.0005	0.01769	995.531	0.161
305.15	0.0005	0.01974	995.57	0.161
310.15	0.0005	0	993.478	0.161
310.15	0.0005	0.002	993.519	0.161
310.15	0.0005	0.00401	993.561	0.161
310.15	0.0005	0.00595	993.6	0.161
310.15	0.0005	0.00797	993.64	0.161
310.15	0.0005	0.00996	993.679	0.161
310.15	0.0005	0.01183	993.716	0.161
310.15	0.0005	0.01387	993.755	0.161
310.15	0.0005	0.01595	993.794	0.161
310.15	0.0005	0.01769	993.826	0.161
310.15	0.0005	0.01974	993.864	0.161
315.15	0.0005	0	991.583	0.161
315.15	0.0005	0.002	991.624	0.161
315.15	0.0005	0.00401	991.665	0.161
315.15	0.0005	0.00595	991.704	0.161
315.15	0.0005	0.00797	991.744	0.161
315.15	0.0005	0.00996	991.782	0.161
315.15	0.0005	0.01183	991.818	0.161
315.15	0.0005	0.01387	991.857	0.161
315.15	0.0005	0.01595	991.896	0.161
315.15	0.0005	0.01769	991.928	0.161
315.15	0.0005	0.01974	991.966	0.161
305.15	0.002	0	995.354	0.161
305.15	0.002	0.00199	995.393	0.161
305.15	0.002	0.00393	995.43	0.161
305.15	0.002	0.00596	995.469	0.161
305.15	0.002	0.00799	995.507	0.161
305.15	0.002	0.00996	995.543	0.161
305.15	0.002	0.01196	995.58	0.161
305.15	0.002	0.014	995.616	0.161
305.15	0.002	0.01605	995.652	0.161
305.15	0.002	0.018	995.686	0.161
305.15	0.002	0.01997	995.72	0.161
310.15	0.002	0	993.654	0.161
310.15	0.002	0.00199	993.692	0.161
310.15	0.002	0.00393	993.729	0.161
310.15	0.002	0.00596	993.767	0.161
310.15	0.002	0.00799	993.805	0.161
310.15	0.002	0.00996	993.84	0.161
310.15	0.002	0.01196	993.876	0.161
310.15	0.002	0.014	993.912	0.161
310.15	0.002	0.01605	993.948	0.161
310.15	0.002	0.018	993.981	0.161
310.15	0.002	0.01997	994.014	0.161
315.15	0.002	0	991.765	0.161
315.15	0.002	0.00199	991.803	0.161
315.15	0.002	0.00393	991.839	0.161
315.15	0.002	0.00596	991.876	0.161
315.15	0.002	0.00799	991.913	0.161
315.15	0.002	0.00996	991.948	0.161
315.15	0.002	0.01196	991.983	0.161
315.15	0.002	0.014	992.018	0.161
315.15	0.002	0.01605	992.053	0.161
315.15	0.002	0.018	992.085	0.161
315.15	0.002	0.01997	992.118	0.161
305.15	0.004	0	995.574	0.161
305.15	0.004	0.00199	995.608	0.161
305.15	0.004	0.00401	995.642	0.161
305.15	0.004	0.00602	995.675	0.161
305.15	0.004	0.00796	995.707	0.161
305.15	0.004	0.00984	995.737	0.161
305.15	0.004	0.01155	995.764	0.161
305.15	0.004	0.01401	995.802	0.161
305.15	0.004	0.01602	995.833	0.161
305.15	0.004	0.01801	995.862	0.161
305.15	0.004	0.01996	995.891	0.161
310.15	0.004	0	993.864	0.161
310.15	0.004	0.00199	993.897	0.161
310.15	0.004	0.00401	993.931	0.161
310.15	0.004	0.00602	993.963	0.161
310.15	0.004	0.00796	993.994	0.161
310.15	0.004	0.00984	994.023	0.161
310.15	0.004	0.01155	994.05	0.161
310.15	0.004	0.01401	994.087	0.161
310.15	0.004	0.01602	994.117	0.161
310.15	0.004	0.01801	994.146	0.161
310.15	0.004	0.01996	994.173	0.161
315.15	0.004	0	992.027	0.161
315.15	0.004	0.00199	992.06	0.161
315.15	0.004	0.00401	992.092	0.161
315.15	0.004	0.00602	992.124	0.161
315.15	0.004	0.00796	992.154	0.161
315.15	0.004	0.00984	992.183	0.161
315.15	0.004	0.01155	992.208	0.161
315.15	0.004	0.01401	992.244	0.161
315.15	0.004	0.01602	992.273	0.161
315.15	0.004	0.01801	992.302	0.161
315.15	0.004	0.01996	992.329	0.161

System: L-leucine + water + amoxicillin; phases: Liquid
Fixed: Pressure, kPa = 100
Fixed: Frequency, MHz = 3
Property: Speed of sound, m/s (Liquid); method: Sing-around technique in a fixed-path interferometer
Temperature, K	Solvent: Molality, mol/kg of amoxicillin	Molality, mol/kg of L-leucine	Speed of sound, m/s	uncertainty
305.15	0	0	1513.52	1.41
305.15	0	0.00198	1513.85	1.41
305.15	0	0.00398	1514.13	1.41
305.15	0	0.00599	1514.25	1.41
305.15	0	0.00792	1514.55	1.41
305.15	0	0.00992	1514.75	1.41
305.15	0	0.01198	1514.92	1.41
305.15	0	0.01396	1515.07	1.41
305.15	0	0.01601	1515.14	1.41
305.15	0	0.01791	1515.32	1.41
305.15	0	0.02014	1515.56	1.41
310.15	0	0	1523.65	1.42
310.15	0	0.00198	1523.89	1.42
310.15	0	0.00398	1523.99	1.42
310.15	0	0.00599	1524.21	1.42
310.15	0	0.00792	1524.38	1.42
310.15	0	0.00992	1524.62	1.42
310.15	0	0.01198	1524.7	1.42
310.15	0	0.01396	1524.94	1.42
310.15	0	0.01601	1525.01	1.42
310.15	0	0.01791	1525.2	1.42
310.15	0	0.02014	1525.38	1.42
315.15	0	0	1532.24	1.42
315.15	0	0.00198	1532.61	1.42
315.15	0	0.00398	1532.83	1.42
315.15	0	0.00599	1533.11	1.42
315.15	0	0.00792	1533.29	1.42
315.15	0	0.00992	1533.56	1.42
315.15	0	0.01198	1533.62	1.42
315.15	0	0.01396	1533.72	1.42
315.15	0	0.01601	1533.81	1.42
315.15	0	0.01791	1533.92	1.42
315.15	0	0.02014	1534.03	1.42
305.15	0.0005	0	1513.72	1.41
305.15	0.0005	0.002	1514.04	1.41
305.15	0.0005	0.00401	1514.29	1.41
305.15	0.0005	0.00595	1514.71	1.41
305.15	0.0005	0.00797	1514.91	1.41
305.15	0.0005	0.00996	1515.08	1.41
305.15	0.0005	0.01183	1515.31	1.41
305.15	0.0005	0.01387	1515.39	1.41
305.15	0.0005	0.01595	1515.62	1.41
305.15	0.0005	0.01769	1515.69	1.41
305.15	0.0005	0.01974	1515.71	1.41
310.15	0.0005	0	1523.76	1.41
310.15	0.0005	0.002	1523.94	1.41
310.15	0.0005	0.00401	1524.26	1.41
310.15	0.0005	0.00595	1524.64	1.42
310.15	0.0005	0.00797	1524.78	1.42
310.15	0.0005	0.00996	1525.01	1.42
310.15	0.0005	0.01183	1525.12	1.42
310.15	0.0005	0.01387	1525.19	1.42
310.15	0.0005	0.01595	1525.47	1.42
310.15	0.0005	0.01769	1525.49	1.42
310.15	0.0005	0.01974	1525.51	1.42
315.15	0.0005	0	1532.43	1.42
315.15	0.0005	0.002	1532.71	1.42
315.15	0.0005	0.00401	1532.89	1.42
315.15	0.0005	0.00595	1533.19	1.42
315.15	0.0005	0.00797	1533.3	1.42
315.15	0.0005	0.00996	1533.59	1.42
315.15	0.0005	0.01183	1533.69	1.42
315.15	0.0005	0.01387	1533.85	1.42
315.15	0.0005	0.01595	1534.02	1.42
315.15	0.0005	0.01769	1534.22	1.42
315.15	0.0005	0.01974	1534.32	1.42
305.15	0.002	0	1514.12	1.41
305.15	0.002	0.00199	1514.35	1.41
305.15	0.002	0.00393	1514.41	1.41
305.15	0.002	0.00596	1515.04	1.41
305.15	0.002	0.00799	1515.26	1.41
305.15	0.002	0.00996	1515.32	1.41
305.15	0.002	0.01196	1515.48	1.41
305.15	0.002	0.014	1515.65	1.41
305.15	0.002	0.01605	1515.75	1.41
305.15	0.002	0.018	1515.89	1.41
305.15	0.002	0.01997	1515.96	1.41
310.15	0.002	0	1524.06	1.41
310.15	0.002	0.00199	1524.22	1.41
310.15	0.002	0.00393	1524.32	1.41
310.15	0.002	0.00596	1524.65	1.41
310.15	0.002	0.00799	1524.94	1.42
310.15	0.002	0.00996	1525.13	1.42
310.15	0.002	0.01196	1525.4	1.4
310.15	0.002	0.014	1525.43	1.42
310.15	0.002	0.01605	1525.54	1.42
310.15	0.002	0.018	1525.61	1.42
310.15	0.002	0.01997	1525.85	1.42
315.15	0.002	0	1532.52	1.42
315.15	0.002	0.00199	1532.79	1.42
315.15	0.002	0.00393	1532.99	1.42
315.15	0.002	0.00596	1533.21	1.42
315.15	0.002	0.00799	1533.34	1.42
315.15	0.002	0.00996	1533.6	1.42
315.15	0.002	0.01196	1533.72	1.42
315.15	0.002	0.014	1533.92	1.42
315.15	0.002	0.01605	1534.05	1.42
315.15	0.002	0.018	1534.26	1.42
315.15	0.002	0.01997	1534.36	1.42
305.15	0.004	0	1513.97	1.41
305.15	0.004	0.00199	1514.43	1.41
305.15	0.004	0.00401	1515.2	1.41
305.15	0.004	0.00602	1515.58	1.41
305.15	0.004	0.00796	1515.72	1.41
305.15	0.004	0.00984	1515.76	1.41
305.15	0.004	0.01155	1515.83	1.41
305.15	0.004	0.01401	1515.92	1.41
305.15	0.004	0.01602	1516.01	1.41
305.15	0.004	0.01801	1516.15	1.41
305.15	0.004	0.01996	1516.32	1.41
310.15	0.004	0	1524.01	1.42
310.15	0.004	0.00199	1524.33	1.41
310.15	0.004	0.00401	1524.62	1.41
310.15	0.004	0.00602	1524.73	1.41
310.15	0.004	0.00796	1525.06	1.42
310.15	0.004	0.00984	1525.19	1.42
310.15	0.004	0.01155	1525.42	1.42
310.15	0.004	0.01401	1525.61	1.42
310.15	0.004	0.01602	1525.72	1.42
310.15	0.004	0.01801	1525.94	1.42
310.15	0.004	0.01996	1526.12	1.42
315.15	0.004	0	1532.41	1.42
315.15	0.004	0.00199	1532.98	1.42
315.15	0.004	0.00401	1533.22	1.42
315.15	0.004	0.00602	1533.62	1.42
315.15	0.004	0.00796	1533.83	1.42
315.15	0.004	0.00984	1534.01	1.42
315.15	0.004	0.01155	1534.07	1.42
315.15	0.004	0.01401	1534.08	1.42
315.15	0.004	0.01602	1534.19	1.42
315.15	0.004	0.01801	1534.29	1.42
315.15	0.004	0.01996	1534.39	1.42

System: 2-aminoacetic acid + water; phases: Liquid
Fixed: Pressure, kPa = 100
Property: Mass density, kg/m3 (Liquid); method: Vibrating tube method
Temperature, K	Molality, mol/kg of 2-aminoacetic acid	Mass density, kg/m3	uncertainty
305.15	0.00201	995.155	0.161
305.15	0.0038	995.212	0.161
305.15	0.0061	995.285	0.161
305.15	0.00792	995.341	0.161
305.15	0.00994	995.403	0.161
305.15	0.01199	995.465	0.161
305.15	0.01396	995.523	0.161
305.15	0.01594	995.58	0.161
305.15	0.017	995.61	0.161
305.15	0.01986	995.692	0.161
310.15	0.00201	993.467	0.161
310.15	0.0038	993.524	0.161
310.15	0.0061	993.595	0.161
310.15	0.00792	993.651	0.161
310.15	0.00994	993.712	0.161
310.15	0.01199	993.772	0.161
310.15	0.01396	993.829	0.161
310.15	0.01594	993.886	0.161
310.15	0.017	993.915	0.161
310.15	0.01986	993.995	0.161
315.15	0.00201	991.574	0.161
315.15	0.0038	991.629	0.161
315.15	0.0061	991.7	0.161
315.15	0.00792	991.755	0.161
315.15	0.00994	991.815	0.161
315.15	0.01199	991.875	0.161
315.15	0.01396	991.931	0.161
315.15	0.01594	991.987	0.161
315.15	0.017	992.016	0.161
315.15	0.01986	992.095	0.161

System: 2-aminoacetic acid + water; phases: Liquid
Fixed: Pressure, kPa = 100
Fixed: Frequency, MHz = 3
Property: Speed of sound, m/s (Liquid); method: Sing-around technique in a fixed-path interferometer
Temperature, K	Molality, mol/kg of 2-aminoacetic acid	Speed of sound, m/s	uncertainty
305.15	0.00201	1513.64	1.41
305.15	0.0038	1513.77	1.41
305.15	0.0061	1513.86	1.41
305.15	0.00792	1514.03	1.41
305.15	0.00994	1514.23	1.41
305.15	0.01199	1514.4	1.41
305.15	0.01396	1514.52	1.41
305.15	0.01594	1514.61	1.41
305.15	0.017	1514.86	1.41
305.15	0.01986	1515.11	1.41
310.15	0.00201	1523.71	1.42
310.15	0.0038	1523.85	1.42
310.15	0.0061	1524.01	1.42
310.15	0.00792	1524.12	1.42
310.15	0.00994	1524.28	1.42
310.15	0.01199	1524.39	1.42
310.15	0.01396	1524.48	1.42
310.15	0.01594	1524.65	1.42
310.15	0.017	1524.79	1.42
310.15	0.01986	1524.95	1.42
315.15	0.00201	1532.37	1.42
315.15	0.0038	1532.5	1.42
315.15	0.0061	1532.61	1.42
315.15	0.00792	1532.73	1.42
315.15	0.00994	1532.81	1.42
315.15	0.01199	1532.9	1.42
315.15	0.01396	1532.98	1.42
315.15	0.01594	1533.06	1.42
315.15	0.017	1533.15	1.42
315.15	0.01986	1533.28	1.42

System: water + amoxicillin; phases: Liquid
Fixed: Pressure, kPa = 100
Property: Mass density, kg/m3 (Liquid); method: Vibrating tube method
Temperature, K	Molality, mol/kg of amoxicillin	Mass density, kg/m3	uncertainty
305.15	0.0005	995.178	0.161
310.15	0.0005	993.478	0.161
315.15	0.0005	991.583	0.161
305.15	0.002	995.354	0.161
310.15	0.002	993.654	0.161
315.15	0.002	991.765	0.161
305.15	0.004	995.574	0.161
310.15	0.004	993.864	0.161
315.15	0.004	992.027	0.161

System: water + amoxicillin; phases: Liquid
Fixed: Pressure, kPa = 100
Fixed: Frequency, MHz = 3
Property: Speed of sound, m/s (Liquid); method: Sing-around technique in a fixed-path interferometer
Temperature, K	Molality, mol/kg of amoxicillin	Speed of sound, m/s	uncertainty
305.15	0.0005	1513.72	1.41
310.15	0.0005	1523.76	1.41
315.15	0.0005	1532.43	1.42
305.15	0.002	1514.12	1.41
310.15	0.002	1524.06	1.41
315.15	0.002	1532.52	1.42
305.15	0.004	1513.97	1.41
310.15	0.004	1524.01	1.41
315.15	0.004	1532.41	1.42

System: (S)-2-aminopropanoic acid + water; phases: Liquid
Fixed: Pressure, kPa = 100
Property: Mass density, kg/m3 (Liquid); method: Vibrating tube method
Temperature, K	Molality, mol/kg of (S)-2-aminopropanoic acid	Mass density, kg/m3	uncertainty
305.15	0.00202	995.147	0.161
305.15	0.00402	995.203	0.161
305.15	0.00605	995.258	0.161
305.15	0.00801	995.311	0.161
305.15	0.00992	995.362	0.161
305.15	0.01194	995.415	0.161
305.15	0.01402	995.469	0.161
305.15	0.01595	995.519	0.161
305.15	0.01801	995.571	0.161
305.15	0.02	995.62	0.161
310.15	0.00202	993.459	0.161
310.15	0.00402	993.514	0.161
310.15	0.00605	993.569	0.161
310.15	0.00801	993.622	0.161
310.15	0.00992	993.672	0.161
310.15	0.01194	993.725	0.161
310.15	0.01402	993.778	0.161
310.15	0.01595	993.827	0.161
310.15	0.01801	993.878	0.161
310.15	0.02	993.927	0.161
315.15	0.00202	991.566	0.161
315.15	0.00402	991.62	0.161
315.15	0.00605	991.675	0.161
315.15	0.00801	991.727	0.161
315.15	0.00992	991.777	0.161
315.15	0.01194	991.829	0.161
315.15	0.01402	991.881	0.161
315.15	0.01595	991.93	0.161
315.15	0.01801	991.98	0.161
315.15	0.02	992.029	0.161

System: (S)-2-aminopropanoic acid + water; phases: Liquid
Fixed: Pressure, kPa = 100
Fixed: Frequency, MHz = 3
Property: Speed of sound, m/s (Liquid); method: Sing-around technique in a fixed-path interferometer
Temperature, K	Molality, mol/kg of (S)-2-aminopropanoic acid	Speed of sound, m/s	uncertainty
305.15	0.00202	1513.72	1.41
305.15	0.00402	1513.81	1.41
305.15	0.00605	1514.04	1.41
305.15	0.00801	1514.23	1.41
305.15	0.00992	1514.36	1.41
305.15	0.01194	1514.51	1.41
305.15	0.01402	1514.64	1.41
305.15	0.01595	1514.78	1.41
305.15	0.01801	1514.89	1.41
305.15	0.02	1514.99	1.41
310.15	0.00202	1523.75	1.42
310.15	0.00402	1523.95	1.42
310.15	0.00605	1524.04	1.42
310.15	0.00801	1524.21	1.42
310.15	0.00992	1524.32	1.42
310.15	0.01194	1524.41	1.42
310.15	0.01402	1524.5	1.42
310.15	0.01595	1524.77	1.42
310.15	0.01801	1524.89	1.42
310.15	0.02	1525.01	1.42
315.15	0.00202	1532.48	1.42
315.15	0.00402	1532.54	1.42
315.15	0.00605	1532.63	1.42
315.15	0.00801	1532.78	1.42
315.15	0.00992	1532.94	1.42
315.15	0.01194	1533.15	1.42
315.15	0.01402	1533.32	1.42
315.15	0.01595	1533.42	1.42
315.15	0.01801	1533.52	1.42
315.15	0.02	1533.59	1.42

System: L-valine + water; phases: Liquid
Fixed: Pressure, kPa = 100
Property: Mass density, kg/m3 (Liquid); method: Vibrating tube method
Temperature, K	Molality, mol/kg of L-valine	Mass density, kg/m3	uncertainty
305.15	0.00199	995.139	0.161
305.15	0.00397	995.187	0.161
305.15	0.00597	995.235	0.161
305.15	0.00791	995.281	0.161
305.15	0.01001	995.331	0.161
305.15	0.01198	995.376	0.161
305.15	0.01412	995.425	0.161
305.15	0.01598	995.467	0.161
305.15	0.01801	995.512	0.161
305.15	0.02004	995.557	0.161
310.15	0.00199	993.452	0.161
310.15	0.00397	993.5	0.161
310.15	0.00597	993.547	0.161
310.15	0.00791	993.593	0.161
310.15	0.01001	993.642	0.161
310.15	0.01198	993.688	0.161
310.15	0.01412	993.737	0.161
310.15	0.01598	993.778	0.161
310.15	0.01801	993.823	0.161
310.15	0.02004	993.867	0.161
315.15	0.00199	991.558	0.161
315.15	0.00397	991.606	0.161
315.15	0.00597	991.654	0.161
315.15	0.00791	991.699	0.161
315.15	0.01001	991.748	0.161
315.15	0.01198	991.793	0.161
315.15	0.01412	991.841	0.161
315.15	0.01598	991.883	0.161
315.15	0.01801	991.928	0.161
315.15	0.02004	991.972	0.161

System: L-valine + water; phases: Liquid
Fixed: Pressure, kPa = 100
Fixed: Frequency, MHz = 3
Property: Speed of sound, m/s (Liquid); method: Sing-around technique in a fixed-path interferometer
Temperature, K	Molality, mol/kg of L-valine	Speed of sound, m/s	uncertainty
305.15	0.00199	1513.8	1.41
305.15	0.00397	1513.91	1.41
305.15	0.00597	1514.22	1.41
305.15	0.00791	1514.27	1.41
305.15	0.01001	1514.39	1.41
305.15	0.01198	1514.55	1.41
305.15	0.01412	1514.68	1.41
305.15	0.01598	1514.81	1.41
305.15	0.01801	1514.98	1.41
305.15	0.02004	1515.48	1.41
310.15	0.00199	1523.83	1.42
310.15	0.00397	1523.98	1.42
310.15	0.00597	1524.15	1.42
310.15	0.00791	1524.24	1.42
310.15	0.01001	1524.45	1.42
310.15	0.01198	1524.58	1.42
310.15	0.01412	1524.75	1.42
310.15	0.01598	1524.87	1.42
310.15	0.01801	1525.07	1.42
310.15	0.02004	1525.24	1.42
315.15	0.00199	1532.54	1.42
315.15	0.00397	1532.69	1.42
315.15	0.00597	1532.75	1.42
315.15	0.00791	1533.01	1.42
315.15	0.01001	1533.24	1.42
315.15	0.01198	1533.47	1.42
315.15	0.01412	1533.56	1.42
315.15	0.01598	1533.68	1.42
315.15	0.01801	1533.72	1.42
315.15	0.02004	1533.83	1.42

System: L-leucine + water; phases: Liquid
Fixed: Pressure, kPa = 100
Property: Mass density, kg/m3 (Liquid); method: Vibrating tube method
Temperature, K	Molality, mol/kg of L-leucine	Mass density, kg/m3	uncertainty
305.15	0.00198	995.137	0.161
305.15	0.00398	995.184	0.161
305.15	0.00599	995.231	0.161
305.15	0.00792	995.275	0.161
305.15	0.00992	995.32	0.161
305.15	0.01198	995.366	0.161
305.15	0.01396	995.41	0.161
305.15	0.01601	995.455	0.161
305.15	0.01791	995.496	0.161
305.15	0.02014	995.544	0.161
310.15	0.00198	993.45	0.161
310.15	0.00398	993.496	0.161
310.15	0.00599	993.543	0.161
310.15	0.00792	993.587	0.161
310.15	0.00992	993.632	0.161
310.15	0.01198	993.678	0.161
310.15	0.01396	993.721	0.161
310.15	0.01601	993.765	0.161
310.15	0.01791	993.805	0.161
310.15	0.02014	993.853	0.161
315.15	0.00198	991.556	0.161
315.15	0.00398	991.603	0.161
315.15	0.00599	991.649	0.161
315.15	0.00792	991.692	0.161
315.15	0.00992	991.737	0.161
315.15	0.01198	991.782	0.161
315.15	0.01396	991.825	0.161
315.15	0.01601	991.869	0.161
315.15	0.01791	991.91	0.161
315.15	0.02014	991.956	0.161

System: L-leucine + water; phases: Liquid
Fixed: Pressure, kPa = 100
Fixed: Frequency, MHz = 3
Property: Speed of sound, m/s (Liquid); method: Sing-around technique in a fixed-path interferometer
Temperature, K	Molality, mol/kg of L-leucine	Speed of sound, m/s	uncertainty
305.15	0.00198	1513.85	1.41
305.15	0.00398	1514.13	1.41
305.15	0.00599	1514.25	1.41
305.15	0.00792	1514.55	1.41
305.15	0.00992	1514.75	1.41
305.15	0.01198	1514.92	1.41
305.15	0.01396	1515.07	1.41
305.15	0.01601	1515.14	1.41
305.15	0.01791	1515.32	1.41
305.15	0.02014	1515.56	1.41
310.15	0.00198	1523.89	1.42
310.15	0.00398	1523.99	1.42
310.15	0.00599	1524.21	1.42
310.15	0.00792	1524.38	1.42
310.15	0.00992	1524.62	1.42
310.15	0.01198	1524.7	1.42
310.15	0.01396	1524.94	1.42
310.15	0.01601	1525.01	1.42
310.15	0.01791	1525.2	1.42
310.15	0.02014	1525.38	1.42
315.15	0.00198	1532.61	1.42
315.15	0.00398	1532.83	1.42
315.15	0.00599	1533.11	1.42
315.15	0.00792	1533.29	1.42
315.15	0.00992	1533.56	1.42
315.15	0.01198	1533.62	1.42
315.15	0.01396	1533.72	1.42
315.15	0.01601	1533.81	1.42
315.15	0.01791	1533.92	1.42
315.15	0.02014	1534.03	1.42
