Measured thermophysical data. Effect of temperature on density, sound velocity, refractive index and their derived properties for the binary systems (heptanoic acid + propanoic or butanoic acids)
Source: J. Chem. Thermodyn., 2014, 10.1016/j.jct.2014.06.004
Compound 1: propanoic acid, C3H6O2, InChI=1S/C3H6O2/c1-2-3(4)5/h2H2,1H3,(H,4,5), purity 99%
Compound 2: butanoic acid, C4H8O2, InChI=1S/C4H8O2/c1-2-3-4(5)6/h2-3H2,1H3,(H,5,6), purity 99%
Compound 3: heptanoic acid, C7H14O2, InChI=1S/C7H14O2/c1-2-3-4-5-6-7(8)9/h2-6H2,1H3,(H,8,9), purity 99%
Compound 4: diethyl carbonate, C5H10O3, InChI=1S/C5H10O3/c1-3-7-5(6)8-4-2/h3-4H2,1-2H3, purity 99%
Compound 5: ethanol, C2H6O, InChI=1S/C2H6O/c1-2-3/h3H,2H2,1H3, purity 99%

System: propanoic acid; phases: Liquid
Fixed: Pressure, kPa = 100
Property: Mass density, kg/m3 (Liquid); method: Vibrating tube method
Temperature, K	Mass density, kg/m3	uncertainty
293.15	993.9	0.3
298.15	988.5	0.3
303.15	983.1	0.3
308.15	977.7	0.3
313.15	972.3	0.3

System: propanoic acid; phases: Liquid
Fixed: Pressure, kPa = 100
Fixed: Frequency, MHz = 3
Property: Speed of sound, m/s (Liquid); method: Sing-around technique in a fixed-path interferometer
Temperature, K	Speed of sound, m/s	uncertainty
293.15	1166	2
298.15	1147	2
303.15	1128	2
308.15	1109	2
313.15	1090	2

System: propanoic acid; phases: Liquid
Fixed: Pressure, kPa = 101.325
Property: Refractive index (Na D-line) (Liquid); method: Standard Abbe refractometry
Temperature, K	Refractive index (Na D-line)	uncertainty
293.15	1.3865	0.0005
298.15	1.3848	0.0005
303.15	1.383	0.0005
308.15	1.3811	0.0005
313.15	1.3792	0.0005

System: butanoic acid; phases: Liquid
Fixed: Pressure, kPa = 100
Property: Mass density, kg/m3 (Liquid); method: Vibrating tube method
Temperature, K	Mass density, kg/m3	uncertainty
293.15	957.8	0.3
298.15	952.8	0.3
303.15	947.9	0.3
308.15	942.9	0.3
313.15	938.1	0.3

System: butanoic acid; phases: Liquid
Fixed: Pressure, kPa = 100
Fixed: Frequency, MHz = 3
Property: Speed of sound, m/s (Liquid); method: Sing-around technique in a fixed-path interferometer
Temperature, K	Speed of sound, m/s	uncertainty
293.15	1196	2
298.15	1177	2
303.15	1158	2
308.15	1139	2
313.15	1121	2

System: butanoic acid; phases: Liquid
Fixed: Pressure, kPa = 101.325
Property: Refractive index (Na D-line) (Liquid); method: Standard Abbe refractometry
Temperature, K	Refractive index (Na D-line)	uncertainty
293.15	1.3983	0.0005
298.15	1.3963	0.0005
303.15	1.3942	0.0005
308.15	1.3922	0.0005
313.15	1.3901	0.0005

System: heptanoic acid; phases: Liquid
Fixed: Pressure, kPa = 100
Property: Mass density, kg/m3 (Liquid); method: Vibrating tube method
Temperature, K	Mass density, kg/m3	uncertainty
293.15	917.7	0.3
298.15	913.5	0.3
303.15	909.3	0.3
308.15	905.1	0.3
313.15	900.9	0.3

System: heptanoic acid; phases: Liquid
Fixed: Pressure, kPa = 100
Fixed: Frequency, MHz = 3
Property: Speed of sound, m/s (Liquid); method: Sing-around technique in a fixed-path interferometer
Temperature, K	Speed of sound, m/s	uncertainty
293.15	1295	2
298.15	1278	2
303.15	1260	2
308.15	1242	2
313.15	1225	2

System: heptanoic acid; phases: Liquid
Fixed: Pressure, kPa = 101.325
Property: Refractive index (Na D-line) (Liquid); method: Standard Abbe refractometry
Temperature, K	Refractive index (Na D-line)	uncertainty
293.15	1.4234	0.0005
298.15	1.4214	0.0005
303.15	1.4194	0.0005
308.15	1.4173	0.0005
313.15	1.4153	0.0005

System: diethyl carbonate; phases: Liquid
Property: Mass density, kg/m3 (Liquid); method: Vibrating tube method
Temperature, K	Pressure, kPa	Mass density, kg/m3	uncertainty
298.15	100	969.3	0.3

System: diethyl carbonate; phases: Liquid
Property: Speed of sound, m/s (Liquid); method: Sing-around technique in a fixed-path interferometer
Temperature, K	Pressure, kPa	Frequency, MHz	Speed of sound, m/s	uncertainty
298.15	100	3	1177	2

System: diethyl carbonate; phases: Liquid
Property: Refractive index (Na D-line) (Liquid); method: Standard Abbe refractometry
Temperature, K	Pressure, kPa	Refractive index (Na D-line)	uncertainty
298.15	101.325	1.3825	0.0005

System: ethanol; phases: Liquid
Property: Mass density, kg/m3 (Liquid); method: Vibrating tube method
Temperature, K	Pressure, kPa	Mass density, kg/m3	uncertainty
298.15	100	785.2	0.3

System: ethanol; phases: Liquid
Property: Speed of sound, m/s (Liquid); method: Sing-around technique in a fixed-path interferometer
Temperature, K	Pressure, kPa	Frequency, MHz	Speed of sound, m/s	uncertainty
298.15	100	3	1142	2

System: ethanol; phases: Liquid
Property: Refractive index (Na D-line) (Liquid); method: Standard Abbe refractometry
Temperature, K	Pressure, kPa	Refractive index (Na D-line)	uncertainty
298.15	101.325	1.3594	0.0005

System: ethanol + diethyl carbonate; phases: Liquid
Fixed: Temperature, K = 298.15
Fixed: Pressure, kPa = 100
Property: Mass density, kg/m3 (Liquid); method: Vibrating tube method
Mole fraction of diethyl carbonate	Mass density, kg/m3	uncertainty
0	785.2	0.3
0.0415	800.3	0.5
0.0943	817.7	0.4
0.1932	845.9	0.4
0.2929	869.6	0.4
0.3938	890	0.4
0.4965	907.8	0.3
0.597	923	0.3
0.6924	935.7	0.3
0.7911	947.6	0.3
0.899	959.3	0.3
0.9413	963.6	0.3
1	969.3	0.3

System: ethanol + diethyl carbonate; phases: Liquid
Fixed: Temperature, K = 298.15
Fixed: Pressure, kPa = 100
Fixed: Frequency, MHz = 3
Property: Speed of sound, m/s (Liquid); method: Sing-around technique in a fixed-path interferometer
Mole fraction of diethyl carbonate	Speed of sound, m/s	uncertainty
0	1142	2
0.0415	1145	2
0.0943	1147	2
0.1932	1150	2
0.2929	1154	2
0.3938	1156	2
0.4965	1159	2
0.597	1162	2
0.6924	1166	2
0.7911	1169	2
0.899	1173	2
0.9413	1175	2
1	1177	2

System: ethanol + diethyl carbonate; phases: Liquid
Fixed: Temperature, K = 298.15
Fixed: Pressure, kPa = 100
Property: Refractive index (Na D-line) (Liquid); method: Standard Abbe refractometry
Mole fraction of diethyl carbonate	Refractive index (Na D-line)	uncertainty
0	1.3594	0.0005
0.0415	1.3614	0.0005
0.0943	1.3635	0.0005
0.1932	1.367	0.0005
0.2929	1.3698	0.0005
0.3938	1.3724	0.0005
0.4965	1.3746	0.0005
0.597	1.3765	0.0005
0.6924	1.3781	0.0005
0.7911	1.3796	0.0005
0.899	1.3811	0.0005
0.9413	1.3817	0.0005
1	1.3825	0.0005

System: propanoic acid + heptanoic acid; phases: Liquid
Fixed: Pressure, kPa = 100
Property: Mass density, kg/m3 (Liquid); method: Vibrating tube method
Temperature, K	Mole fraction of heptanoic acid	Mass density, kg/m3	uncertainty
293.15	0	993.9	0.3
293.15	0.0539	985.8	0.3
293.15	0.1023	979.3	0.3
293.15	0.2037	967.5	0.3
293.15	0.3021	957.8	0.3
293.15	0.4007	949.6	0.3
293.15	0.5015	942.3	0.3
293.15	0.6051	935.9	0.3
293.15	0.7009	930.7	0.3
293.15	0.8016	925.8	0.3
293.15	0.9002	921.5	0.3
293.15	0.95	919.5	0.3
293.15	1	917.7	0.3
298.15	0	988.5	0.3
298.15	0.0539	980.5	0.3
298.15	0.1023	974.2	0.3
298.15	0.2037	962.5	0.3
298.15	0.3021	953	0.3
298.15	0.4007	944.9	0.3
298.15	0.5015	937.7	0.3
298.15	0.6051	931.1	0.3
298.15	0.7009	926.3	0.3
298.15	0.8016	921.4	0.3
298.15	0.9002	917.2	0.3
298.15	0.95	915.3	0.3
298.15	1	913.5	0.3
303.15	0	983.1	0.3
303.15	0.0539	975.2	0.3
303.15	0.1023	969	0.3
303.15	0.2037	957.5	0.3
303.15	0.3021	948.1	0.3
303.15	0.4007	940.2	0.3
303.15	0.5015	933.2	0.3
303.15	0.6051	926.9	0.3
303.15	0.7009	921.9	0.3
303.15	0.8016	917.1	0.3
303.15	0.9002	913	0.3
303.15	0.95	911.1	0.3
303.15	1	909.3	0.3
308.15	0	977.7	0.3
308.15	0.0539	970	0.3
308.15	0.1023	963.8	0.3
308.15	0.2037	952.5	0.3
308.15	0.3021	943.3	0.3
308.15	0.4007	935.5	0.3
308.15	0.5015	928.6	0.3
308.15	0.6051	922.4	0.3
308.15	0.7009	917.5	0.3
308.15	0.8016	912.8	0.3
308.15	0.9002	908.8	0.3
308.15	0.95	906.9	0.3
308.15	1	905.1	0.3
313.15	0	972.3	0.3
313.15	0.0539	964.7	0.3
313.15	0.1023	958.6	0.3
313.15	0.2037	947.5	0.3
313.15	0.3021	938.4	0.3
313.15	0.4007	930.8	0.3
313.15	0.5015	924	0.3
313.15	0.6051	918	0.3
313.15	0.7009	913.1	0.3
313.15	0.8016	908.5	0.3
313.15	0.9002	904.5	0.3
313.15	0.95	902.7	0.3
313.15	1	900.9	0.3

System: propanoic acid + heptanoic acid; phases: Liquid
Fixed: Pressure, kPa = 100
Fixed: Frequency, MHz = 3
Property: Speed of sound, m/s (Liquid); method: Sing-around technique in a fixed-path interferometer
Temperature, K	Mole fraction of heptanoic acid	Speed of sound, m/s	uncertainty
293.15	0	1166	2
293.15	0.0539	1176	2
293.15	0.1023	1185	2
293.15	0.2037	1202	2
293.15	0.3021	1217	2
293.15	0.4007	1231	2
293.15	0.5015	1244	2
293.15	0.6051	1257	2
293.15	0.7009	1267	2
293.15	0.8016	1277	2
293.15	0.9002	1287	2
293.15	0.95	1291	2
293.15	1	1295	2
298.15	0	1147	2
298.15	0.0539	1158	2
298.15	0.1023	1166	2
298.15	0.2037	1184	2
298.15	0.3021	1199	2
298.15	0.4007	1213	2
298.15	0.5015	1226	2
298.15	0.6051	1239	2
298.15	0.7009	1249	2
298.15	0.8016	1260	2
298.15	0.9002	1269	2
298.15	0.95	1273	2
298.15	1	1278	2
303.15	0	1128	2
303.15	0.0539	1139	2
303.15	0.1023	1148	2
303.15	0.2037	1165	2
303.15	0.3021	1180	2
303.15	0.4007	1195	2
303.15	0.5015	1208	2
303.15	0.6051	1220	2
303.15	0.7009	1231	2
303.15	0.8016	1242	2
303.15	0.9002	1251	2
303.15	0.95	1256	2
303.15	1	1260	2
308.15	0	1109	2
308.15	0.0539	1120	2
308.15	0.1023	1129	2
308.15	0.2037	1146	2
308.15	0.3021	1162	2
308.15	0.4007	1176	2
308.15	0.5015	1190	2
308.15	0.6051	1202	2
308.15	0.7009	1213	2
308.15	0.8016	1224	2
308.15	0.9002	1233	2
308.15	0.95	1238	2
308.15	1	1242	2
313.15	0	1090	2
313.15	0.0539	1101	2
313.15	0.1023	1110	2
313.15	0.2037	1128	2
313.15	0.3021	1144	2
313.15	0.4007	1158	2
313.15	0.5015	1172	2
313.15	0.6051	1185	2
313.15	0.7009	1196	2
313.15	0.8016	1206	2
313.15	0.9002	1216	2
313.15	0.95	1220	2
313.15	1	1225	2

System: propanoic acid + heptanoic acid; phases: Liquid
Fixed: Pressure, kPa = 100
Property: Refractive index (Na D-line) (Liquid); method: Standard Abbe refractometry
Temperature, K	Mole fraction of heptanoic acid	Refractive index (Na D-line)	uncertainty
293.15	0	1.3865	0.0005
293.15	0.0539	1.39	0.0005
293.15	0.1023	1.3929	0.0005
293.15	0.2037	1.3982	0.0005
293.15	0.3021	1.4026	0.0005
293.15	0.4007	1.4066	0.0005
293.15	0.5015	1.4102	0.0005
293.15	0.6051	1.4135	0.0005
293.15	0.7009	1.4162	0.0005
293.15	0.8016	1.4188	0.0005
293.15	0.9002	1.4212	0.0005
293.15	0.95	1.4223	0.0005
293.15	1	1.4234	0.0005
298.15	0	1.3848	0.0005
298.15	0.0539	1.388	0.0005
298.15	0.1023	1.3909	0.0005
298.15	0.2037	1.3961	0.0005
298.15	0.3021	1.4006	0.0005
298.15	0.4007	1.4045	0.0005
298.15	0.5015	1.4081	0.0005
298.15	0.6051	1.4114	0.0005
298.15	0.7009	1.4142	0.0005
298.15	0.8016	1.4169	0.0005
298.15	0.9002	1.4192	0.0005
298.15	0.95	1.4203	0.0005
298.15	1	1.4214	0.0005
303.15	0	1.383	0.0005
303.15	0.0539	1.3859	0.0005
303.15	0.1023	1.3888	0.0005
303.15	0.2037	1.394	0.0005
303.15	0.3021	1.3985	0.0005
303.15	0.4007	1.4024	0.0005
303.15	0.5015	1.406	0.0005
303.15	0.6051	1.4094	0.0005
303.15	0.7009	1.4121	0.0005
303.15	0.8016	1.4148	0.0005
303.15	0.9002	1.4171	0.0005
303.15	0.95	1.4183	0.0005
303.15	1	1.4194	0.0005
308.15	0	1.3811	0.0005
308.15	0.0539	1.3838	0.0005
308.15	0.1023	1.3866	0.0005
308.15	0.2037	1.3919	0.0005
308.15	0.3021	1.3963	0.0005
308.15	0.4007	1.4003	0.0005
308.15	0.5015	1.4039	0.0005
308.15	0.6051	1.4073	0.0005
308.15	0.7009	1.4101	0.0005
308.15	0.8016	1.4127	0.0005
308.15	0.9002	1.4151	0.0005
308.15	0.95	1.4162	0.0005
308.15	1	1.4173	0.0005
313.15	0	1.3792	0.0005
313.15	0.0539	1.3816	0.0005
313.15	0.1023	1.3845	0.0005
313.15	0.2037	1.3897	0.0005
313.15	0.3021	1.3942	0.0005
313.15	0.4007	1.3982	0.0005
313.15	0.5015	1.4018	0.0005
313.15	0.6051	1.4052	0.0005
313.15	0.7009	1.408	0.0005
313.15	0.8016	1.4107	0.0005
313.15	0.9002	1.4131	0.0005
313.15	0.95	1.4142	0.0005
313.15	1	1.4153	0.0005

System: butanoic acid + heptanoic acid; phases: Liquid
Fixed: Pressure, kPa = 100
Property: Mass density, kg/m3 (Liquid); method: Vibrating tube method
Temperature, K	Mole fraction of heptanoic acid	Mass density, kg/m3	uncertainty
293.15	0	957.8	0.3
293.15	0.0559	954.2	0.3
293.15	0.1059	951.3	0.3
293.15	0.2061	945.8	0.3
293.15	0.3087	940.8	0.3
293.15	0.4037	936.7	0.3
293.15	0.5037	932.7	0.3
293.15	0.6006	929.2	0.3
293.15	0.7049	925.8	0.3
293.15	0.805	922.8	0.3
293.15	0.9052	920.1	0.3
293.15	0.9575	918.7	0.3
293.15	1	917.7	0.3
298.15	0	952.8	0.3
298.15	0.0559	949.3	0.3
298.15	0.1059	946.4	0.3
298.15	0.2061	941	0.3
298.15	0.3087	936.2	0.3
298.15	0.4037	932.1	0.3
298.15	0.5037	928.2	0.3
298.15	0.6006	924.8	0.3
298.15	0.7049	921.5	0.3
298.15	0.805	918.5	0.3
298.15	0.9052	915.9	0.3
298.15	0.9575	914.5	0.3
298.15	1	913.5	0.3
303.15	0	947.9	0.3
303.15	0.0559	944.4	0.3
303.15	0.1059	941.6	0.3
303.15	0.2061	936.3	0.3
303.15	0.3087	931.5	0.3
303.15	0.4037	927.6	0.3
303.15	0.5037	923.8	0.3
303.15	0.6006	920.4	0.3
303.15	0.7049	917.1	0.3
303.15	0.805	914.2	0.3
303.15	0.9052	911.6	0.3
303.15	0.9575	910.3	0.3
303.15	1	909.3	0.3
308.15	0	942.9	0.3
308.15	0.0559	939.5	0.3
308.15	0.1059	936.7	0.3
308.15	0.2061	931.5	0.3
308.15	0.3087	926.9	0.3
308.15	0.4037	923	0.3
308.15	0.5037	919.3	0.3
308.15	0.6006	916	0.3
308.15	0.7049	912.8	0.3
308.15	0.805	910	0.3
308.15	0.9052	907.4	0.3
308.15	0.9575	906.1	0.3
308.15	1	905.1	0.3
313.15	0	938.1	0.3
313.15	0.0559	934.6	0.3
313.15	0.1059	931.9	0.3
313.15	0.2061	926.8	0.3
313.15	0.3087	922.3	0.3
313.15	0.4037	918.5	0.3
313.15	0.5037	914.8	0.3
313.15	0.6006	911.6	0.3
313.15	0.7049	908.4	0.3
313.15	0.805	905.7	0.3
313.15	0.9052	903.1	0.3
313.15	0.9575	901.9	0.3
313.15	1	900.9	0.3

System: butanoic acid + heptanoic acid; phases: Liquid
Fixed: Pressure, kPa = 100
Fixed: Frequency, MHz = 3
Property: Speed of sound, m/s (Liquid); method: Sing-around technique in a fixed-path interferometer
Temperature, K	Mole fraction of heptanoic acid	Speed of sound, m/s	uncertainty
293.15	0	1196	2
293.15	0.0559	1203	2
293.15	0.1059	1209	2
293.15	0.2061	1222	2
293.15	0.3087	1233	2
293.15	0.4037	1244	2
293.15	0.5037	1254	2
293.15	0.6006	1263	2
293.15	0.7049	1272	2
293.15	0.805	1280	2
293.15	0.9052	1289	2
293.15	0.9575	1292	2
293.15	1	1295	2
298.15	0	1177	2
298.15	0.0559	1185	2
298.15	0.1059	1191	2
298.15	0.2061	1203	2
298.15	0.3087	1215	2
298.15	0.4037	1225	2
298.15	0.5037	1236	2
298.15	0.6006	1245	2
298.15	0.7049	1254	2
298.15	0.805	1263	2
298.15	0.9052	1271	2
298.15	0.9575	1275	2
298.15	1	1278	2
303.15	0	1158	2
303.15	0.0559	1166	2
303.15	0.1059	1172	2
303.15	0.2061	1185	2
303.15	0.3087	1197	2
303.15	0.4037	1207	2
303.15	0.5037	1217	2
303.15	0.6006	1227	2
303.15	0.7049	1236	2
303.15	0.805	1245	2
303.15	0.9052	1253	2
303.15	0.9575	1257	2
303.15	1	1260	2
308.15	0	1139	2
308.15	0.0559	1147	2
308.15	0.1059	1154	2
308.15	0.2061	1167	2
308.15	0.3087	1179	2
308.15	0.4037	1189	2
308.15	0.5037	1199	2
308.15	0.6006	1209	2
308.15	0.7049	1218	2
308.15	0.805	1227	2
308.15	0.9052	1235	2
308.15	0.9575	1239	2
308.15	1	1242	2
313.15	0	1121	2
313.15	0.0559	1129	2
313.15	0.1059	1136	2
313.15	0.2061	1148	2
313.15	0.3087	1161	2
313.15	0.4037	1171	2
313.15	0.5037	1182	2
313.15	0.6006	1191	2
313.15	0.7049	1201	2
313.15	0.805	1209	2
313.15	0.9052	1218	2
313.15	0.9575	1222	2
313.15	1	1225	2

System: butanoic acid + heptanoic acid; phases: Liquid
Fixed: Pressure, kPa = 100
Property: Refractive index (Na D-line) (Liquid); method: Standard Abbe refractometry
Temperature, K	Mole fraction of heptanoic acid	Refractive index (Na D-line)	uncertainty
293.15	0	1.3983	0.0005
293.15	0.0559	1.4005	0.0005
293.15	0.1059	1.4024	0.0005
293.15	0.2061	1.4054	0.0005
293.15	0.3087	1.4084	0.0005
293.15	0.4037	1.4109	0.0005
293.15	0.5037	1.4134	0.0005
293.15	0.6006	1.4157	0.0005
293.15	0.7049	1.4179	0.0005
293.15	0.805	1.4199	0.0005
293.15	0.9052	1.4217	0.0005
293.15	0.9575	1.4226	0.0005
293.15	1	1.4234	0.0005
298.15	0	1.3963	0.0005
298.15	0.0559	1.3984	0.0005
298.15	0.1059	1.4001	0.0005
298.15	0.2061	1.4033	0.0005
298.15	0.3087	1.4063	0.0005
298.15	0.4037	1.4089	0.0005
298.15	0.5037	1.4114	0.0005
298.15	0.6006	1.4136	0.0005
298.15	0.7049	1.4159	0.0005
298.15	0.805	1.4179	0.0005
298.15	0.9052	1.4197	0.0005
298.15	0.9575	1.4207	0.0005
298.15	1	1.4214	0.0005
303.15	0	1.3942	0.0005
303.15	0.0559	1.3963	0.0005
303.15	0.1059	1.398	0.0005
303.15	0.2061	1.4012	0.0005
303.15	0.3087	1.4042	0.0005
303.15	0.4037	1.4068	0.0005
303.15	0.5037	1.4093	0.0005
303.15	0.6006	1.4116	0.0005
303.15	0.7049	1.4138	0.0005
303.15	0.805	1.4158	0.0005
303.15	0.9052	1.4177	0.0005
303.15	0.9575	1.4186	0.0005
303.15	1	1.4194	0.0005
308.15	0	1.3922	0.0005
308.15	0.0559	1.3942	0.0005
308.15	0.1059	1.3958	0.0005
308.15	0.2061	1.3991	0.0005
308.15	0.3087	1.4021	0.0005
308.15	0.4037	1.4047	0.0005
308.15	0.5037	1.4072	0.0005
308.15	0.6006	1.4095	0.0005
308.15	0.7049	1.4117	0.0005
308.15	0.805	1.4138	0.0005
308.15	0.9052	1.4157	0.0005
308.15	0.9575	1.4166	0.0005
308.15	1	1.4173	0.0005
313.15	0	1.3901	0.0005
313.15	0.0559	1.392	0.0005
313.15	0.1059	1.3937	0.0005
313.15	0.2061	1.397	0.0005
313.15	0.3087	1.4	0.0005
313.15	0.4037	1.4026	0.0005
313.15	0.5037	1.4051	0.0005
313.15	0.6006	1.4074	0.0005
313.15	0.7049	1.4097	0.0005
313.15	0.805	1.4117	0.0005
313.15	0.9052	1.4136	0.0005
313.15	0.9575	1.4146	0.0005
313.15	1	1.4153	0.0005
