Measured thermophysical data. Liquid-liquid equilibria for ternary systems polyoxymethylene dimethyl ethers + para-xylene + water
Source: J. Chem. Thermodyn., 2016, 10.1016/j.jct.2016.05.016
Compound 1: dimethoxymethane, C3H8O2, InChI=1S/C3H8O2/c1-4-3-5-2/h3H2,1-2H3, purity 99.8%
Compound 2: 1,4-dimethylbenzene, C8H10, InChI=1S/C8H10/c1-7-3-5-8(2)6-4-7/h3-6H,1-2H3, purity 99.5%
Compound 3: 2,4,6-trioxaheptane, C4H10O3, InChI=1S/C4H10O3/c1-5-3-7-4-6-2/h3-4H2,1-2H3
Compound 4: 2,4,6,8-tetraoxanonane, C5H12O4, InChI=1S/C5H12O4/c1-6-3-8-5-9-4-7-2/h3-5H2,1-2H3
Compound 5: 2,4,6,8,10-pentaoxaundecane, C6H14O5, InChI=1S/C6H14O5/c1-7-3-9-5-11-6-10-4-8-2/h3-6H2,1-2H3
Compound 6: water, H2O, InChI=1S/H2O/h1H2

System: 1,4-dimethylbenzene + dimethoxymethane + water; phases: Liquid mixture 1, Liquid mixture 2
Fixed: Pressure, kPa = 101.3
Property: Mass fraction of 1,4-dimethylbenzene (Liquid mixture 1); method: Chromatography
Property: Mass fraction of 1,4-dimethylbenzene (Liquid mixture 2); method: Chromatography
Property: Mass fraction of dimethoxymethane (Liquid mixture 2); method: Chromatography
Temperature, K	Mass fraction of dimethoxymethane	Mass fraction of 1,4-dimethylbenzene	uncertainty	Mass fraction of 1,4-dimethylbenzene	uncertainty	Mass fraction of dimethoxymethane	uncertainty
293.15	0.489	0.499	0.014	0		0.145	
313.15	0.236	0.76	0.013	0		0.058	
313.15	0.153	0.844	0.013	0		0.038	
313.15	0.096	0.903	0.013	0		0.032	
293.15	0.446	0.544	0.014	0		0.132	
293.15	0.355	0.639	0.013	0		0.101	
293.15	0.206	0.791	0.013	0		0.062	
293.15	0.135	0.863	0.013	0		0.039	
293.15	0.114	0.885	0.013	0		0.032	
313.15	0.675	0.301	0.013	0		0.149	
313.15	0.485	0.502	0.014	0		0.104	
313.15	0.372	0.621	0.013	0		0.078	

System: 1,4-dimethylbenzene + 2,4,6-trioxaheptane + water; phases: Liquid mixture 1, Liquid mixture 2
Fixed: Pressure, kPa = 101.3
Property: Mass fraction of 1,4-dimethylbenzene (Liquid mixture 1); method: Chromatography
Property: Mass fraction of 1,4-dimethylbenzene (Liquid mixture 2); method: Chromatography
Property: Mass fraction of 2,4,6-trioxaheptane (Liquid mixture 2); method: Chromatography
Temperature, K	Mass fraction of 2,4,6-trioxaheptane	Mass fraction of 1,4-dimethylbenzene	uncertainty	Mass fraction of 1,4-dimethylbenzene	uncertainty	Mass fraction of 2,4,6-trioxaheptane	uncertainty
293.15	0.576	0.415	0.013	0		0.22	
293.15	0.448	0.547	0.013	0		0.167	
293.15	0.417	0.578	0.013	0		0.155	
293.15	0.357	0.639	0.013	0		0.127	
293.15	0.273	0.724	0.013	0		0.094	
293.15	0.146	0.853	0.013	0		0.059	
313.15	0.551	0.44	0.013	0		0.193	
313.15	0.43	0.563	0.013	0		0.151	
313.15	0.387	0.608	0.013	0		0.134	
313.15	0.349	0.647	0.013	0		0.127	
313.15	0.271	0.727	0.013	0		0.104	
313.15	0.132	0.867	0.013	0		0.06	

System: 1,4-dimethylbenzene + water + 2,4,6,8-tetraoxanonane; phases: Liquid mixture 1, Liquid mixture 2
Fixed: Pressure, kPa = 101.3
Property: Mass fraction of 1,4-dimethylbenzene (Liquid mixture 1); method: Chromatography
Property: Mass fraction of 1,4-dimethylbenzene (Liquid mixture 2); method: Chromatography
Property: Mass fraction of 2,4,6,8-tetraoxanonane (Liquid mixture 2); method: Chromatography
Temperature, K	Mass fraction of 2,4,6,8-tetraoxanonane	Mass fraction of 1,4-dimethylbenzene	uncertainty	Mass fraction of 1,4-dimethylbenzene	uncertainty	Mass fraction of 2,4,6,8-tetraoxanonane	uncertainty
293.15	0.686	0.293	0.013	0		0.233	
293.15	0.578	0.406	0.013	0		0.192	
293.15	0.453	0.535	0.014	0		0.163	
293.15	0.429	0.56	0.014	0		0.154	
293.15	0.273	0.72	0.013	0		0.124	
293.15	0.21	0.785	0.013	0		0.102	
313.15	0.675	0.304	0.013	0		0.208	
313.15	0.534	0.451	0.014	0		0.175	
313.15	0.464	0.524	0.014	0		0.16	
313.15	0.427	0.562	0.013	0		0.155	
313.15	0.276	0.718	0.013	0		0.121	
313.15	0.179	0.818	0.013	0		0.098	

System: 1,4-dimethylbenzene + water + 2,4,6,8,10-pentaoxaundecane; phases: Liquid mixture 1, Liquid mixture 2
Fixed: Pressure, kPa = 101.3
Property: Mass fraction of 1,4-dimethylbenzene (Liquid mixture 1); method: Chromatography
Property: Mass fraction of 1,4-dimethylbenzene (Liquid mixture 2); method: Chromatography
Property: Mass fraction of 2,4,6,8,10-pentaoxaundecane (Liquid mixture 2); method: Chromatography
Temperature, K	Mass fraction of 2,4,6,8,10-pentaoxaundecane	Mass fraction of 1,4-dimethylbenzene	uncertainty	Mass fraction of 1,4-dimethylbenzene	uncertainty	Mass fraction of 2,4,6,8,10-pentaoxaundecane	uncertainty
293.15	0.685	0.306	0.013	0		0.197	
293.15	0.551	0.442	0.013	0		0.162	
293.15	0.514	0.479	0.013	0		0.144	
293.15	0.397	0.598	0.013	0		0.107	
293.15	0.234	0.763	0.013	0		0.065	
293.15	0.14	0.858	0.013	0		0.045	
313.15	0.541	0.452	0.013	0		0.134	
313.15	0.523	0.47	0.013	0		0.122	
313.15	0.45	0.546	0.013	0		0.109	
313.15	0.396	0.601	0.013	0		0.095	
313.15	0.238	0.76	0.013	0		0.072	
313.15	0.124	0.876	0.013	0		0.044	
