Measured thermophysical data. Synthesis, physical, and thermodynamic properties of 1-alkyl-cyanopyridinium  bis{(trifluoromethyl)sulfonyl}imide ionic liquids
Source: J. Chem. Thermodyn., 2013, 10.1016/j.jct.2012.07.015
Compound 1: 1-butyl-3-cyanopyridinium bis(trifluoromethylsulfonyl)imide, C12H13F6N3O4S2, InChI=1S/C10H13N2.C2F6NO4S2/c1-2-3-6-12-7-4-5-10(8-11)9-12;3-1(4,5)14(10,11)9-15(12,13)2(6,7)8/h4-5,7,9H,2-3,6H2,1H3;/q+1;-1
Compound 2: 3-cyano-1-hexylpyridinium 1,1,1-trifluoro-N-[(trifluoromethyl)sulfonyl]methanesulfonamide, C14H17F6N3O4S2, InChI=1S/C12H17N2.C2F6NO4S2/c1-2-3-4-5-8-14-9-6-7-12(10-13)11-14;3-1(4,5)14(10,11)9-15(12,13)2(6,7)8/h6-7,9,11H,2-5,8H2,1H3;/q+1;-1
Compound 3: 1-hexyl-4-cyanopyridinium bis(trifluoromethylsulfonyl)imide, C14H17F6N3O4S2, InChI=1S/C12H17N2.C2F6NO4S2/c1-2-3-4-5-8-14-9-6-12(11-13)7-10-14;3-1(4,5)14(10,11)9-15(12,13)2(6,7)8/h6-7,9-10H,2-5,8H2,1H3;/q+1;-1
Compound 4: 3-cyano-1-octylpyridinium 1,1,1-trifluoro-N-[(trifluoromethyl)sulfonyl]methanesulfonamide, C16H21F6N3O4S2, InChI=1S/C14H21N2.C2F6NO4S2/c1-2-3-4-5-6-7-10-16-11-8-9-14(12-15)13-16;3-1(4,5)14(10,11)9-15(12,13)2(6,7)8/h8-9,11,13H,2-7,10H2,1H3;/q+1;-1

System: 1-butyl-3-cyanopyridinium bis(trifluoromethylsulfonyl)imide; phases: Glass, Liquid, Air at 1 atmosphere
Property: Triple point temperature, K (Glass); method: DTA
Triple point temperature, K	uncertainty
218.7	2

System: 1-butyl-3-cyanopyridinium bis(trifluoromethylsulfonyl)imide; phases: Liquid
Fixed: Pressure, kPa = 101.325
Property: Molar heat capacity at constant pressure, J/K/mol (Liquid); method: Small sample (50 mg) DSC
Temperature, K	Molar heat capacity at constant pressure, J/K/mol	uncertainty
298.15	586	59
323.15	596	60
353.15	605	61

System: 1-butyl-3-cyanopyridinium bis(trifluoromethylsulfonyl)imide; phases: Liquid
Fixed: Pressure, kPa = 101.325
Property: Mass density, kg/m3 (Liquid); method: Vibrating tube method
Temperature, K	Mass density, kg/m3	uncertainty
293.15	1483.2	12
298.15	1478.7	12
303.15	1474.2	11.9
308.15	1469.7	11.8
313.15	1465.3	11.7
318.15	1460.8	11.7
323.15	1456.3	11.6
328.15	1452	11.5
333.15	1447.7	11.5
338.15	1443.4	11.4
343.15	1439.1	11.3
348.15	1434.8	11.2
353.15	1430.5	11.2
358.15	1426.3	11.1
363.15	1422	11

System: 1-butyl-3-cyanopyridinium bis(trifluoromethylsulfonyl)imide; phases: Liquid
Fixed: Pressure, kPa = 101.325
Property: Viscosity, Pa*s (Liquid); method: CONPLT:UFactor:2
Temperature, K	Viscosity, Pa*s	uncertainty
293.15	1.5467	0.2179
298.15	0.9837	0.121
303.15	0.6597	0.0708
308.15	0.4851	0.0462
313.15	0.3275	0.0262
318.15	0.2407	0.0165
323.15	0.1826	0.0106
328.15	0.1405	0.0069
333.15	0.1101	0.0045
338.15	0.0879	0.003
343.15	0.0676	0.0019
348.15	0.0553	0.0014
353.15	0.0458	0.0012
358.15	0.0385	0.001
363.15	0.0328	0.0009

System: 1-butyl-3-cyanopyridinium bis(trifluoromethylsulfonyl)imide; phases: Liquid, Air at 1 atmosphere
Property: Surface tension liquid-gas, N/m (Liquid); method: RINGTE:UFactor:2
Temperature, K	Surface tension liquid-gas, N/m	uncertainty
298.15	0.032	0.0012
308.15	0.03177	0.0012
318.15	0.03159	0.00119
328.15	0.03139	0.00118
338.15	0.03109	0.00117

System: 3-cyano-1-hexylpyridinium 1,1,1-trifluoro-N-[(trifluoromethyl)sulfonyl]methanesulfonamide; phases: Glass, Liquid, Air at 1 atmosphere
Property: Triple point temperature, K (Glass); method: DTA
Triple point temperature, K	uncertainty
221.5	2

System: 3-cyano-1-hexylpyridinium 1,1,1-trifluoro-N-[(trifluoromethyl)sulfonyl]methanesulfonamide; phases: Liquid
Fixed: Pressure, kPa = 101.325
Property: Molar heat capacity at constant pressure, J/K/mol (Liquid); method: Small sample (50 mg) DSC
Temperature, K	Molar heat capacity at constant pressure, J/K/mol	uncertainty
298.15	658	66
323.15	669	68
353.15	681	69

System: 3-cyano-1-hexylpyridinium 1,1,1-trifluoro-N-[(trifluoromethyl)sulfonyl]methanesulfonamide; phases: Liquid
Fixed: Pressure, kPa = 101.325
Property: Mass density, kg/m3 (Liquid); method: Vibrating tube method
Temperature, K	Mass density, kg/m3	uncertainty
293.15	1413.3	1.8
298.15	1408.9	1.8
303.15	1404.6	1.8
308.15	1400.3	1.8
313.15	1395.9	1.8
318.15	1391.6	1.8
323.15	1387.3	1.7
328.15	1383	1.7
333.15	1378.9	1.7
338.15	1374.7	1.7
343.15	1370.6	1.7
348.15	1366.4	1.7
353.15	1362.3	1.7
358.15	1358.1	1.7
363.15	1354	1.7

System: 3-cyano-1-hexylpyridinium 1,1,1-trifluoro-N-[(trifluoromethyl)sulfonyl]methanesulfonamide; phases: Liquid
Fixed: Pressure, kPa = 101.325
Property: Viscosity, Pa*s (Liquid); method: CONPLT:UFactor:2
Temperature, K	Viscosity, Pa*s	uncertainty
293.15	1.7169	0.2459
298.15	1.1159	0.1405
303.15	0.7528	0.0829
308.15	0.5234	0.05
313.15	0.3748	0.0308
318.15	0.2743	0.0191
323.15	0.2011	0.0115
328.15	0.1536	0.0072
333.15	0.1195	0.0044
338.15	0.0946	0.0026
343.15	0.0761	0.0015
348.15	0.0621	0.0008
353.15	0.0512	0.0005
358.15	0.0428	0.0006
363.15	0.0362	0.0005

System: 3-cyano-1-hexylpyridinium 1,1,1-trifluoro-N-[(trifluoromethyl)sulfonyl]methanesulfonamide; phases: Liquid, Air at 1 atmosphere
Property: Surface tension liquid-gas, N/m (Liquid); method: RINGTE:UFactor:2
Temperature, K	Surface tension liquid-gas, N/m	uncertainty
298.15	0.02937	0.00089
308.15	0.02932	0.00089
318.15	0.02858	0.00087
328.15	0.02831	0.00086
338.15	0.02805	0.00085

System: 1-hexyl-4-cyanopyridinium bis(trifluoromethylsulfonyl)imide; phases: Crystal, Liquid, Air at 1 atmosphere
Property: Triple point temperature, K (Crystal); method: DTA
Triple point temperature, K	uncertainty
280.2	1.1

System: 1-hexyl-4-cyanopyridinium bis(trifluoromethylsulfonyl)imide; phases: Crystal, Liquid, Air at 1 atmosphere
Property: Molar enthalpy of transition or fusion, kJ/mol (Crystal); method: DSC
Molar enthalpy of transition or fusion, kJ/mol	uncertainty
18.83	0.58

System: 1-hexyl-4-cyanopyridinium bis(trifluoromethylsulfonyl)imide; phases: Glass, Liquid, Air at 1 atmosphere
Property: Triple point temperature, K (Glass); method: DTA
Triple point temperature, K	uncertainty
221.2	2

System: 1-hexyl-4-cyanopyridinium bis(trifluoromethylsulfonyl)imide; phases: Liquid
Fixed: Pressure, kPa = 101.325
Property: Molar heat capacity at constant pressure, J/K/mol (Liquid); method: Small sample (50 mg) DSC
Temperature, K	Molar heat capacity at constant pressure, J/K/mol	uncertainty
298.15	633	64
323.15	643	65
353.15	652	66

System: 1-hexyl-4-cyanopyridinium bis(trifluoromethylsulfonyl)imide; phases: Liquid
Fixed: Pressure, kPa = 101.325
Property: Mass density, kg/m3 (Liquid); method: Vibrating tube method
Temperature, K	Mass density, kg/m3	uncertainty
293.15	1411.6	1.8
298.15	1407.1	1.8
303.15	1402.6	1.8
308.15	1398.1	1.8
313.15	1393.6	1.8
318.15	1389.1	1.7
323.15	1384.8	1.7
328.15	1380.5	1.7
333.15	1376.1	1.7
338.15	1371.8	1.7
343.15	1367.5	1.7
348.15	1363.2	1.7
353.15	1358.9	1.7
358.15	1354.6	1.7
363.15	1350.3	1.6

System: 1-hexyl-4-cyanopyridinium bis(trifluoromethylsulfonyl)imide; phases: Liquid
Fixed: Pressure, kPa = 101.325
Property: Viscosity, Pa*s (Liquid); method: CONPLT:UFactor:2
Temperature, K	Viscosity, Pa*s	uncertainty
293.15	1.0656	0.1322
298.15	0.7042	0.0756
303.15	0.4818	0.0444
308.15	0.3403	0.0266
313.15	0.2358	0.015
318.15	0.1754	0.0091
323.15	0.1333	0.0055
328.15	0.1033	0.0032
333.15	0.0817	0.0018
338.15	0.0656	0.001
343.15	0.0535	0.0006
348.15	0.0443	0.0006
353.15	0.0372	0.0005
358.15	0.0315	0.0004
363.15	0.0269	0.0004

System: 1-hexyl-4-cyanopyridinium bis(trifluoromethylsulfonyl)imide; phases: Liquid, Air at 1 atmosphere
Property: Surface tension liquid-gas, N/m (Liquid); method: RINGTE:UFactor:2
Temperature, K	Surface tension liquid-gas, N/m	uncertainty
298.15	0.0306	0.00092
308.15	0.03025	0.00091
318.15	0.02989	0.0009
328.15	0.02948	0.00089
338.15	0.02901	0.00088

System: 3-cyano-1-octylpyridinium 1,1,1-trifluoro-N-[(trifluoromethyl)sulfonyl]methanesulfonamide; phases: Crystal, Liquid, Air at 1 atmosphere
Property: Triple point temperature, K (Crystal); method: DTA
Triple point temperature, K	uncertainty
287.9	1.1

System: 3-cyano-1-octylpyridinium 1,1,1-trifluoro-N-[(trifluoromethyl)sulfonyl]methanesulfonamide; phases: Crystal, Liquid, Air at 1 atmosphere
Property: Molar enthalpy of transition or fusion, kJ/mol (Crystal); method: DSC
Molar enthalpy of transition or fusion, kJ/mol	uncertainty
13.71	0.45

System: 3-cyano-1-octylpyridinium 1,1,1-trifluoro-N-[(trifluoromethyl)sulfonyl]methanesulfonamide; phases: Glass, Liquid, Air at 1 atmosphere
Property: Triple point temperature, K (Glass); method: DTA
Triple point temperature, K	uncertainty
219.1	2

System: 3-cyano-1-octylpyridinium 1,1,1-trifluoro-N-[(trifluoromethyl)sulfonyl]methanesulfonamide; phases: Liquid
Fixed: Pressure, kPa = 101.325
Property: Molar heat capacity at constant pressure, J/K/mol (Liquid); method: Small sample (50 mg) DSC
Temperature, K	Molar heat capacity at constant pressure, J/K/mol	uncertainty
298.15	709	72
323.15	721	73
353.15	731	74

System: 3-cyano-1-octylpyridinium 1,1,1-trifluoro-N-[(trifluoromethyl)sulfonyl]methanesulfonamide; phases: Liquid
Fixed: Pressure, kPa = 101.325
Property: Mass density, kg/m3 (Liquid); method: Vibrating tube method
Temperature, K	Mass density, kg/m3	uncertainty
293.15	1359.3	1.7
298.15	1355.1	1.7
303.15	1350.8	1.6
308.15	1346.6	1.6
313.15	1342.4	1.6
318.15	1338.2	1.6
323.15	1334	1.6
328.15	1329.8	1.6
333.15	1325.7	1.6
338.15	1321.7	1.6
343.15	1317.6	1.6
348.15	1313.6	1.5
353.15	1309.6	1.5
358.15	1305.5	1.5
363.15	1301.5	1.5

System: 3-cyano-1-octylpyridinium 1,1,1-trifluoro-N-[(trifluoromethyl)sulfonyl]methanesulfonamide; phases: Liquid
Fixed: Pressure, kPa = 101.325
Property: Viscosity, Pa*s (Liquid); method: CONPLT:UFactor:2
Temperature, K	Viscosity, Pa*s	uncertainty
293.15	2.3553	0.3672
298.15	1.527	0.2115
303.15	1.0161	0.1241
308.15	0.7002	0.075
313.15	0.4971	0.0465
318.15	0.361	0.0291
323.15	0.2682	0.0185
328.15	0.1928	0.0107
333.15	0.1486	0.0067
338.15	0.1165	0.0042
343.15	0.0929	0.0025
348.15	0.0752	0.0015
353.15	0.0616	0.0008
358.15	0.0512	0.0005
363.15	0.043	0.0006

System: 3-cyano-1-octylpyridinium 1,1,1-trifluoro-N-[(trifluoromethyl)sulfonyl]methanesulfonamide; phases: Liquid, Air at 1 atmosphere
Property: Surface tension liquid-gas, N/m (Liquid); method: RINGTE:UFactor:2
Temperature, K	Surface tension liquid-gas, N/m	uncertainty
298.15	0.02865	0.00087
308.15	0.02744	0.00084
318.15	0.02676	0.00082
328.15	0.02589	0.0008
338.15	0.02577	0.0008
