Measured thermophysical data. Energetics of the isomers: 3- and 4-hydroxycoumarin
Source: J. Chem. Thermodyn., 2010, 10.1016/j.jct.2010.06.003
Compound 1: carbon dioxide, CO2, InChI=1S/CO2/c2-1-3
Compound 2: water, H2O, InChI=1S/H2O/h1H2
Compound 3: oxygen, O2, InChI=1S/O2/c1-2
Compound 4: 3-hydroxycoumarin, C9H6O3, InChI=1S/C9H6O3/c10-7-5-6-3-1-2-4-8(6)12-9(7)11/h1-5,10H, purity 99.95%
Compound 5: 4-hydroxycoumarin, C9H6O3, InChI=1S/C9H6O3/c10-7-5-9(11)12-8-4-2-1-3-6(7)8/h1-5,10H, purity 99.18%

System: 3-hydroxycoumarin; phases: Crystal, Liquid, Air at 1 atmosphere
Property: Molar enthalpy of transition or fusion, kJ/mol (Crystal); method: DSC
Molar enthalpy of transition or fusion, kJ/mol	uncertainty
27.1	0.61

System: 3-hydroxycoumarin; phases: Crystal, Liquid, Air at 1 atmosphere
Property: Triple point temperature, K (Crystal); method: DTA
Triple point temperature, K	uncertainty
425.62	0.39

System: 4-hydroxycoumarin; phases: Crystal, Liquid, Air at 1 atmosphere
Property: Molar enthalpy of transition or fusion, kJ/mol (Crystal); method: DSC
Molar enthalpy of transition or fusion, kJ/mol	uncertainty
23.17	0.59

System: 4-hydroxycoumarin; phases: Crystal, Liquid, Air at 1 atmosphere
Property: Triple point temperature, K (Crystal); method: DTA
Triple point temperature, K	uncertainty
483.62	0.91

Reaction: -1 3-hydroxycoumarin + 9 carbon dioxide + 3 water + -9 oxygen
Property: Specific internal energy of reaction at constant volume, J/g
-24296.1

Reaction: -1 4-hydroxycoumarin + 9 carbon dioxide + 3 water + -9 oxygen
Property: Specific internal energy of reaction at constant volume, J/g
-24170.8
