Measured thermophysical data. Density, dynamic viscosity, and derived properties of binary mixtures of methanol or ethanol with water, ethyl acetate, and methyl acetate at T = (293.15, 298.15, and 303.15) K
Source: J. Chem. Thermodyn., 2007, 10.1016/j.jct.2007.05.004
Compound 1: water, H2O, InChI=1S/H2O/h1H2
Compound 2: methanol, CH4O, InChI=1S/CH4O/c1-2/h2H,1H3, purity 99.8%
Compound 3: ethanol, C2H6O, InChI=1S/C2H6O/c1-2-3/h3H,2H2,1H3, purity 99.8%
Compound 4: ethyl acetate, C4H8O2, InChI=1S/C4H8O2/c1-3-6-4(2)5/h3H2,1-2H3, purity 99.8%
Compound 5: methyl ethanoate, C3H6O2, InChI=1S/C3H6O2/c1-3(4)5-2/h1-2H3, purity 99%

System: methanol; phases: Liquid
Fixed: Pressure, kPa = 101
Property: Viscosity, Pa*s (Liquid); method: CAPTUB::UFactor:2
Temperature, K	Viscosity, Pa*s	uncertainty
293.15	0.000585	8e-06
298.15	0.000545	8e-06
303.15	0.000508	7e-06

System: methanol; phases: Liquid
Fixed: Pressure, kPa = 101
Property: Mass density, kg/m3 (Liquid); method: VIBTUB::UFactor:4
Temperature, K	Mass density, kg/m3	uncertainty
293.15	791.9	0.46
298.15	787.2	0.46
303.15	782.48	0.47

System: ethanol; phases: Liquid
Fixed: Pressure, kPa = 101
Property: Viscosity, Pa*s (Liquid); method: CAPTUB::UFactor:2
Temperature, K	Viscosity, Pa*s	uncertainty
293.15	0.001187	1.5e-05
298.15	0.001082	1.4e-05
303.15	0.000987	1.3e-05

System: ethanol; phases: Liquid
Fixed: Pressure, kPa = 101
Property: Mass density, kg/m3 (Liquid); method: VIBTUB::UFactor:4
Temperature, K	Mass density, kg/m3	uncertainty
293.15	789.75	0.46
298.15	785.46	0.47
303.15	781.15	0.47

System: ethyl acetate; phases: Liquid
Fixed: Pressure, kPa = 101
Property: Viscosity, Pa*s (Liquid); method: CAPTUB::UFactor:2
Temperature, K	Viscosity, Pa*s	uncertainty
293.15	0.000452	7e-06
298.15	0.000426	6e-06
303.15	0.000403	6e-06

System: ethyl acetate; phases: Liquid
Fixed: Pressure, kPa = 101
Property: Mass density, kg/m3 (Liquid); method: VIBTUB::UFactor:4
Temperature, K	Mass density, kg/m3	uncertainty
293.15	900.52	0.29
298.15	894.43	0.3
303.15	888.3	0.31

System: methyl ethanoate; phases: Liquid
Fixed: Pressure, kPa = 101
Property: Viscosity, Pa*s (Liquid); method: CAPTUB::UFactor:2
Temperature, K	Viscosity, Pa*s	uncertainty
293.15	0.000386	6e-06
298.15	0.000367	6e-06
303.15	0.000348	6e-06

System: methyl ethanoate; phases: Liquid
Fixed: Pressure, kPa = 101
Property: Mass density, kg/m3 (Liquid); method: VIBTUB::UFactor:4
Temperature, K	Mass density, kg/m3	uncertainty
293.15	933.56	0.4
298.15	926.98	0.41
303.15	920.34	0.42

System: methanol + water; phases: Liquid
Fixed: Pressure, kPa = 101
Property: Viscosity, Pa*s (Liquid); method: CAPTUB:UFactor:2
Temperature, K	Mole fraction of water	Viscosity, Pa*s	uncertainty
293.15	0	0.000585	8e-06
293.15	0.049	0.000655	9e-06
293.15	0.0993	0.000735	1e-05
293.15	0.1973	0.0009	1.2e-05
293.15	0.2983	0.001086	1.4e-05
293.15	0.3985	0.001287	1.6e-05
293.15	0.5003	0.001481	1.9e-05
293.15	0.5994	0.001673	2.1e-05
293.15	0.6997	0.001793	2.2e-05
293.15	0.7986	0.001789	2.2e-05
293.15	0.8999	0.001522	1.9e-05
293.15	0.9512	0.001274	1.6e-05
293.15	1	0.001003	1.3e-05
298.15	0	0.000545	8e-06
298.15	0.049	0.000607	8e-06
298.15	0.0993	0.000677	9e-06
298.15	0.1973	0.000821	1.1e-05
298.15	0.2983	0.000987	1.3e-05
298.15	0.3985	0.00115	1.5e-05
298.15	0.5003	0.001309	1.7e-05
298.15	0.5994	0.001463	1.9e-05
298.15	0.6997	0.001554	2e-05
298.15	0.7986	0.001542	2e-05
298.15	0.8999	0.001317	1.7e-05
298.15	0.9512	0.001121	1.5e-05
298.15	1	0.00089	1.2e-05
303.15	0	0.000508	7e-06
303.15	0.049	0.000563	8e-06
303.15	0.0993	0.000627	9e-06
303.15	0.1973	0.000751	1e-05
303.15	0.2983	0.000889	1.2e-05
303.15	0.3985	0.001032	1.4e-05
303.15	0.5003	0.001164	1.5e-05
303.15	0.5994	0.001289	1.7e-05
303.15	0.6997	0.001342	1.8e-05
303.15	0.7986	0.001342	1.9e-05
303.15	0.8999	0.001147	1.6e-05
303.15	0.9512	0.000996	1.4e-05
303.15	1	0.000797	1.1e-05

System: methanol + water; phases: Liquid
Fixed: Pressure, kPa = 101
Property: Mass density, kg/m3 (Liquid); method: VIBTUB:UFactor:4
Temperature, K	Mole fraction of water	Mass density, kg/m3	uncertainty
293.15	0	791.9	0.46
293.15	0.049	800.06	0.44
293.15	0.0993	808.62	0.43
293.15	0.1973	826.11	0.4
293.15	0.2983	845.03	0.38
293.15	0.3985	864.67	0.35
293.15	0.5003	885.57	0.33
293.15	0.5994	906.58	0.29
293.15	0.6997	928.45	0.25
293.15	0.7986	949.8	0.21
293.15	0.8999	971.59	0.17
293.15	0.9512	983.86	0.15
293.15	1	998.2	0.13
298.15	0	787.2	0.46
298.15	0.049	795.47	0.45
298.15	0.0993	804.11	0.44
298.15	0.1973	821.73	0.41
298.15	0.2983	840.79	0.38
298.15	0.3985	860.59	0.36
298.15	0.5003	881.69	0.33
298.15	0.5994	902.96	0.29
298.15	0.6997	925.21	0.25
298.15	0.7986	947.17	0.22
298.15	0.8999	969.84	0.18
298.15	0.9512	982.53	0.15
298.15	1	997.05	0.13
303.15	0	782.48	0.47
303.15	0.049	790.84	0.46
303.15	0.0993	799.56	0.44
303.15	0.1973	817.31	0.42
303.15	0.2983	836.5	0.39
303.15	0.3985	856.45	0.36
303.15	0.5003	877.32	0.34
303.15	0.5994	899.26	0.3
303.15	0.6997	921.89	0.26
303.15	0.7986	944.42	0.22
303.15	0.8999	967.9	0.18
303.15	0.9512	980.97	0.16
303.15	1	995.65	0.13

System: ethanol + water; phases: Liquid
Fixed: Pressure, kPa = 101
Property: Viscosity, Pa*s (Liquid); method: CAPTUB:UFactor:2
Temperature, K	Mole fraction of water	Viscosity, Pa*s	uncertainty
293.15	0	0.001187	1.5e-05
293.15	0.0501	0.001277	1.6e-05
293.15	0.0986	0.001371	1.7e-05
293.15	0.1961	0.001549	1.9e-05
293.15	0.2961	0.001735	2.2e-05
293.15	0.3991	0.001975	2.6e-05
293.15	0.4971	0.002225	2.8e-05
293.15	0.5989	0.002479	3.2e-05
293.15	0.6991	0.002705	3.4e-05
293.15	0.8001	0.0027	3.2e-05
293.15	0.8996	0.002223	2.7e-05
293.15	0.9499	0.00163	2.1e-05
293.15	1	0.001002	1.3e-05
298.15	0	0.001082	1.4e-05
298.15	0.0501	0.001153	1.5e-05
298.15	0.0986	0.001232	1.6e-05
298.15	0.1961	0.00138	1.8e-05
298.15	0.2961	0.001531	2e-05
298.15	0.3991	0.001659	2.2e-05
298.15	0.5989	0.002115	2.8e-05
298.15	0.6991	0.002275	3e-05
298.15	0.8001	0.0023	3e-05
298.15	0.8996	0.00186	2.5e-05
298.15	0.9499	0.001388	1.9e-05
298.15	1	0.00089	1.2e-05
303.15	0	0.000987	1.3e-05
303.15	0.0501	0.001046	1.4e-05
303.15	0.0986	0.001111	1.4e-05
303.15	0.1961	0.001237	1.6e-05
303.15	0.2961	0.001357	1.7e-05
303.15	0.3991	0.001515	1.9e-05
303.15	0.5989	0.001821	2.4e-05
303.15	0.6991	0.001941	2.7e-05
303.15	0.8001	0.001937	3e-05
303.15	0.8996	0.00158	2.4e-05
303.15	0.9499	0.001207	1.7e-05
303.15	1	0.000797	1.1e-05

System: ethanol + water; phases: Liquid
Fixed: Pressure, kPa = 101
Property: Mass density, kg/m3 (Liquid); method: VIBTUB:UFactor:4
Temperature, K	Mole fraction of water	Mass density, kg/m3	uncertainty
293.15	0	789.75	0.46
293.15	0.0501	795.99	0.45
293.15	0.0986	802.09	0.44
293.15	0.1961	814.88	0.42
293.15	0.2961	829.05	0.4
293.15	0.3991	845.25	0.38
293.15	0.4971	862.82	0.36
293.15	0.5989	884.07	0.33
293.15	0.6991	908.69	0.28
293.15	0.8001	937.33	0.23
293.15	0.8996	965.71	0.18
293.15	0.9499	979.28	0.16
293.15	1	998.2	0.13
298.15	0	785.46	0.47
298.15	0.0501	791.68	0.46
298.15	0.0986	797.77	0.45
298.15	0.1961	810.54	0.43
298.15	0.2961	824.7	0.41
298.15	0.3991	840.94	0.39
298.15	0.5989	879.89	0.33
298.15	0.6991	904.65	0.29
298.15	0.8001	933.65	0.24
298.15	0.8996	963.24	0.19
298.15	0.9499	977.72	0.16
298.15	1	997.05	0.13
303.15	0	781.15	0.47
303.15	0.0501	787.35	0.46
303.15	0.0986	793.41	0.45
303.15	0.1961	806.14	0.43
303.15	0.2961	820.29	0.41
303.15	0.3991	836.55	0.39
303.15	0.5989	875.63	0.33
303.15	0.6991	900.55	0.29
303.15	0.8001	929.9	0.25
303.15	0.8996	960.61	0.19
303.15	0.9499	975.93	0.16
303.15	1	995.65	0.13

System: ethanol + ethyl acetate; phases: Liquid
Fixed: Pressure, kPa = 101
Property: Viscosity, Pa*s (Liquid); method: CAPTUB:UFactor:2
Temperature, K	Mole fraction of ethanol	Viscosity, Pa*s	uncertainty
293.15	0	0.000452	7e-06
293.15	0.0491	0.00045	7e-06
293.15	0.099	0.000452	7e-06
293.15	0.1958	0.000463	7e-06
293.15	0.2961	0.000476	7e-06
293.15	0.3947	0.000497	7e-06
293.15	0.4948	0.000542	2e-05
293.15	0.5995	0.000581	8e-06
293.15	0.7004	0.00066	9e-06
293.15	0.8004	0.000758	1e-05
293.15	0.9003	0.000919	1.2e-05
293.15	0.9505	0.001048	1.3e-05
293.15	1	0.001187	1.5e-05
298.15	0	0.000426	6e-06
298.15	0.0491	0.000425	6e-06
298.15	0.099	0.000429	6e-06
298.15	0.1958	0.000435	6e-06
298.15	0.2961	0.000448	7e-06
298.15	0.3947	0.000467	7e-06
298.15	0.4948	0.000502	7e-06
298.15	0.5995	0.000543	8e-06
298.15	0.7004	0.000614	8e-06
298.15	0.8004	0.000701	9e-06
298.15	0.9003	0.000843	1.1e-05
298.15	0.9505	0.000958	1.2e-05
298.15	1	0.001082	1.4e-05
303.15	0	0.000403	6e-06
303.15	0.0491	0.000402	6e-06
303.15	0.099	0.000406	6e-06
303.15	0.1958	0.000412	6e-06
303.15	0.2961	0.000426	6e-06
303.15	0.3947	0.000439	6e-06
303.15	0.4948	0.000467	7e-06
303.15	0.5995	0.000508	7e-06
303.15	0.7004	0.000575	8e-06
303.15	0.8004	0.00065	9e-06
303.15	0.9003	0.000777	1e-05
303.15	0.9505	0.000869	1.1e-05
303.15	1	0.000987	1.3e-05

System: ethanol + ethyl acetate; phases: Liquid
Fixed: Pressure, kPa = 101
Property: Mass density, kg/m3 (Liquid); method: VIBTUB:UFactor:4
Temperature, K	Mole fraction of ethanol	Mass density, kg/m3	uncertainty
293.15	0	900.52	0.29
293.15	0.0491	896.91	0.3
293.15	0.099	893.14	0.3
293.15	0.1958	885.48	0.31
293.15	0.2961	877.07	0.33
293.15	0.3947	868.09	0.34
293.15	0.4948	858.16	0.36
293.15	0.5995	846.81	0.37
293.15	0.7004	834.71	0.39
293.15	0.8004	821.45	0.41
293.15	0.9003	806.45	0.43
293.15	0.9505	798.36	0.45
293.15	1	789.75	0.46
298.15	0	894.43	0.3
298.15	0.0491	890.86	0.31
298.15	0.099	887.11	0.31
298.15	0.1958	879.55	0.32
298.15	0.2961	871.22	0.34
298.15	0.3947	862.38	0.35
298.15	0.4948	852.62	0.37
298.15	0.5995	841.47	0.38
298.15	0.7004	829.57	0.4
298.15	0.8004	816.55	0.42
298.15	0.9003	801.82	0.44
298.15	0.9505	793.91	0.45
298.15	1	785.46	0.47
303.15	0	888.3	0.31
303.15	0.0491	884.76	0.32
303.15	0.099	881.03	0.32
303.15	0.1958	873.57	0.33
303.15	0.2961	865.34	0.35
303.15	0.3947	856.63	0.36
303.15	0.4948	847.03	0.38
303.15	0.5995	836.07	0.39
303.15	0.7004	824.39	0.41
303.15	0.8004	811.61	0.43
303.15	0.9003	797.15	0.45
303.15	0.9505	789.42	0.46
303.15	1	781.15	0.47

System: ethanol + methyl ethanoate; phases: Liquid
Fixed: Pressure, kPa = 101
Property: Viscosity, Pa*s (Liquid); method: CAPTUB:UFactor:2
Temperature, K	Mole fraction of ethanol	Viscosity, Pa*s	uncertainty
293.15	0	0.000386	6e-06
293.15	0.0493	0.000383	6e-06
293.15	0.0987	0.000389	6e-06
293.15	0.1998	0.000398	6e-06
293.15	0.3006	0.000419	6e-06
293.15	0.3973	0.000444	7e-06
293.15	0.4863	0.000477	7e-06
293.15	0.6031	0.00054	8e-06
293.15	0.6972	0.000615	9e-06
293.15	0.7986	0.000735	1e-05
293.15	0.9009	0.000903	1.2e-05
293.15	0.951	0.001032	1.3e-05
293.15	1	0.001187	1.5e-05
298.15	0	0.000367	6e-06
298.15	0.0493	0.000363	6e-06
298.15	0.0987	0.000365	6e-06
298.15	0.1998	0.000377	6e-06
298.15	0.3006	0.000395	6e-06
298.15	0.3973	0.000418	6e-06
298.15	0.4863	0.000449	7e-06
298.15	0.6031	0.000505	7e-06
298.15	0.6972	0.000572	8e-06
298.15	0.7986	0.000684	9e-06
298.15	0.9009	0.000838	1.1e-05
298.15	0.951	0.000945	1.2e-05
298.15	1	0.001082	1.4e-05
303.15	0	0.000348	6e-06
303.15	0.0493	0.000345	6e-06
303.15	0.0987	0.000347	6e-06
303.15	0.1998	0.000359	6e-06
303.15	0.3006	0.000374	6e-06
303.15	0.3973	0.000394	6e-06
303.15	0.4863	0.000422	6e-06
303.15	0.6031	0.000473	7e-06
303.15	0.6972	0.000537	8e-06
303.15	0.7986	0.00064	9e-06
303.15	0.9009	0.000768	1e-05
303.15	0.951	0.000868	1.1e-05
303.15	1	0.000987	1.3e-05

System: ethanol + methyl ethanoate; phases: Liquid
Fixed: Pressure, kPa = 101
Property: Mass density, kg/m3 (Liquid); method: VIBTUB:UFactor:4
Temperature, K	Mole fraction of ethanol	Mass density, kg/m3	uncertainty
293.15	0	933.56	0.4
293.15	0.0493	927.83	0.4
293.15	0.0987	922	0.39
293.15	0.1998	909.85	0.38
293.15	0.3006	897.16	0.38
293.15	0.3973	884.52	0.38
293.15	0.4863	872.35	0.39
293.15	0.6031	855.48	0.4
293.15	0.6972	841.15	0.4
293.15	0.7986	824.84	0.42
293.15	0.9009	807.47	0.44
293.15	0.951	798.76	0.45
293.15	1	789.75	0.46
298.15	0	926.98	0.41
298.15	0.0493	921.31	0.41
298.15	0.0987	915.54	0.4
298.15	0.1998	903.54	0.39
298.15	0.3006	891	0.39
298.15	0.3973	878.56	0.39
298.15	0.4863	866.59	0.4
298.15	0.6031	849.99	0.4
298.15	0.6972	835.91	0.41
298.15	0.7986	819.89	0.43
298.15	0.9009	802.85	0.44
298.15	0.951	794.3	0.45
298.15	1	785.46	0.47
303.15	0	920.34	0.42
303.15	0.0493	914.73	0.41
303.15	0.0987	909.02	0.41
303.15	0.1998	897.15	0.4
303.15	0.3006	884.79	0.4
303.15	0.3973	872.54	0.4
303.15	0.4863	860.77	0.41
303.15	0.6031	844.45	0.41
303.15	0.6972	830.62	0.42
303.15	0.7986	814.9	0.43
303.15	0.9009	798.18	0.45
303.15	0.951	789.81	0.46
303.15	1	781.15	0.47

System: methanol + ethyl acetate; phases: Liquid
Fixed: Pressure, kPa = 101
Property: Viscosity, Pa*s (Liquid); method: CAPTUB:UFactor:2
Temperature, K	Mole fraction of methanol	Viscosity, Pa*s	uncertainty
293.15	0	0.000452	7e-06
293.15	0.0474	0.000447	7e-06
293.15	0.097	0.000443	6e-06
293.15	0.1956	0.000442	6e-06
293.15	0.2999	0.000442	6e-06
293.15	0.3963	0.000447	7e-06
293.15	0.4962	0.000453	7e-06
293.15	0.5963	0.000463	7e-06
293.15	0.6998	0.000481	7e-06
293.15	0.7992	0.000504	7e-06
293.15	0.9005	0.000536	8e-06
293.15	1	0.000585	8e-06
298.15	0	0.000426	6e-06
298.15	0.0474	0.000422	6e-06
298.15	0.097	0.000418	6e-06
298.15	0.1956	0.000417	6e-06
298.15	0.2999	0.000419	6e-06
298.15	0.3963	0.000421	6e-06
298.15	0.4962	0.000427	6e-06
298.15	0.5963	0.000435	6e-06
298.15	0.6998	0.000451	7e-06
298.15	0.7992	0.000472	7e-06
298.15	0.9005	0.000501	7e-06
298.15	1	0.000545	8e-06
303.15	0	0.000403	6e-06
303.15	0.0474	0.0004	6e-06
303.15	0.097	0.000396	6e-06
303.15	0.1956	0.000396	6e-06
303.15	0.2999	0.000398	6e-06
303.15	0.3963	0.000398	6e-06
303.15	0.4962	0.000403	6e-06
303.15	0.5963	0.00041	6e-06
303.15	0.6998	0.000425	6e-06
303.15	0.7992	0.000443	6e-06
303.15	0.9005	0.000469	7e-06
303.15	1	0.000508	7e-06

System: methanol + ethyl acetate; phases: Liquid
Fixed: Pressure, kPa = 101
Property: Mass density, kg/m3 (Liquid); method: VIBTUB:UFactor:4
Temperature, K	Mole fraction of methanol	Mass density, kg/m3	uncertainty
293.15	0	900.52	0.29
293.15	0.0474	898.51	0.29
293.15	0.097	896.18	0.3
293.15	0.1956	891.18	0.3
293.15	0.2999	884.93	0.31
293.15	0.3963	878.26	0.33
293.15	0.4962	870.14	0.34
293.15	0.5963	860.45	0.35
293.15	0.6998	848.26	0.37
293.15	0.7992	833.88	0.39
293.15	0.9005	815.52	0.42
293.15	1	791.9	0.46
298.15	0	894.43	0.3
298.15	0.0474	892.43	0.3
298.15	0.097	890.12	0.31
298.15	0.1956	885.16	0.31
298.15	0.2999	878.99	0.32
298.15	0.3963	872.38	0.34
298.15	0.4962	864.36	0.35
298.15	0.5963	854.82	0.36
298.15	0.6998	842.81	0.38
298.15	0.7992	828.62	0.4
298.15	0.9005	810.5	0.43
298.15	1	787.2	0.46
303.15	0	888.3	0.31
303.15	0.0474	886.3	0.31
303.15	0.097	884.01	0.32
303.15	0.1956	879.09	0.32
303.15	0.2999	872.98	0.33
303.15	0.3963	866.46	0.34
303.15	0.4962	858.55	0.36
303.15	0.5963	849.15	0.37
303.15	0.6998	837.3	0.39
303.15	0.7992	823.31	0.41
303.15	0.9005	805.45	0.44
303.15	1	782.48	0.47

System: methanol + methyl ethanoate; phases: Liquid
Fixed: Pressure, kPa = 101
Property: Viscosity, Pa*s (Liquid); method: CAPTUB:UFactor:2
Temperature, K	Mole fraction of methanol	Viscosity, Pa*s	uncertainty
293.15	0	0.000386	6e-06
293.15	0.0471	0.000378	6e-06
293.15	0.0982	0.000378	6e-06
293.15	0.1983	0.000379	6e-06
293.15	0.2912	0.000382	6e-06
293.15	0.4015	0.000394	6e-06
293.15	0.5006	0.000404	6e-06
293.15	0.5878	0.000416	6e-06
293.15	0.7017	0.000442	7e-06
293.15	0.8015	0.000472	7e-06
293.15	0.9008	0.000521	7e-06
293.15	0.9504	0.000551	8e-06
293.15	1	0.000585	8e-06
298.15	0	0.000367	6e-06
298.15	0.0471	0.000359	6e-06
298.15	0.0982	0.000361	6e-06
298.15	0.1983	0.000366	6e-06
298.15	0.2912	0.000364	6e-06
298.15	0.4015	0.00037	6e-06
298.15	0.5006	0.000382	6e-06
298.15	0.5878	0.000392	6e-06
298.15	0.7017	0.000416	6e-06
298.15	0.8015	0.000443	7e-06
298.15	0.9008	0.000486	7e-06
298.15	0.9504	0.000516	7e-06
298.15	1	0.000545	8e-06
303.15	0	0.000348	6e-06
303.15	0.0471	0.000341	6e-06
303.15	0.0982	0.000342	6e-06
303.15	0.1983	0.000348	6e-06
303.15	0.2912	0.000347	6e-06
303.15	0.4015	0.000351	6e-06
303.15	0.5006	0.00036	6e-06
303.15	0.5878	0.000371	6e-06
303.15	0.7017	0.000393	6e-06
303.15	0.8015	0.000417	6e-06
303.15	0.9008	0.000455	7e-06
303.15	0.9504	0.000483	7e-06
303.15	1	0.000508	7e-06

System: methanol + methyl ethanoate; phases: Liquid
Fixed: Pressure, kPa = 101
Property: Mass density, kg/m3 (Liquid); method: VIBTUB:UFactor:4
Temperature, K	Mole fraction of methanol	Mass density, kg/m3	uncertainty
293.15	0	933.56	0.4
293.15	0.0471	930.26	0.4
293.15	0.0982	926.48	0.39
293.15	0.1983	918.39	0.37
293.15	0.2912	909.97	0.37
293.15	0.4015	898.52	0.36
293.15	0.5006	886.79	0.37
293.15	0.5878	875.07	0.37
293.15	0.7017	857.33	0.38
293.15	0.8015	838.91	0.4
293.15	0.9008	817.51	0.42
293.15	0.9504	805.16	0.44
293.15	1	791.9	0.46
298.15	0	926.98	0.41
298.15	0.0471	923.71	0.4
298.15	0.0982	919.95	0.4
298.15	0.1983	911.96	0.38
298.15	0.2912	903.65	0.37
298.15	0.4015	892.35	0.37
298.15	0.5006	880.78	0.37
298.15	0.5878	869.25	0.38
298.15	0.7017	851.73	0.39
298.15	0.8015	833.57	0.41
298.15	0.9008	812.45	0.43
298.15	0.9504	800.29	0.45
298.15	1	787.2	0.46
303.15	0	920.34	0.42
303.15	0.0471	917.1	0.41
303.15	0.0982	913.37	0.4
303.15	0.1983	905.46	0.39
303.15	0.2912	897.26	0.38
303.15	0.4015	886.12	0.38
303.15	0.5006	874.71	0.38
303.15	0.5878	863.35	0.39
303.15	0.7017	846.09	0.4
303.15	0.8015	828.19	0.42
303.15	0.9008	807.37	0.44
303.15	0.9504	795.38	0.45
303.15	1	782.48	0.47
