Measured thermophysical data. Benchmark thermochemistry of methylbenzonitriles: Experimental and theoretical study
Source: J. Chem. Thermodyn., 2015, 10.1016/j.jct.2015.07.025
Compound 1: carbon dioxide, CO2, InChI=1S/CO2/c2-1-3
Compound 2: nitrogen, N2, InChI=1S/N2/c1-2
Compound 3: water, H2O, InChI=1S/H2O/h1H2
Compound 4: oxygen, O2, InChI=1S/O2/c1-2
Compound 5: 2-methylbenzonitrile, C8H7N, InChI=1S/C8H7N/c1-7-4-2-3-5-8(7)6-9/h2-5H,1H3
Compound 6: 3-cyanotoluene, C8H7N, InChI=1S/C8H7N/c1-7-3-2-4-8(5-7)6-9/h2-5H,1H3
Compound 7: 4-cyanotoluene, C8H7N, InChI=1S/C8H7N/c1-7-2-4-8(6-9)5-3-7/h2-5H,1H3
Compound 8: 2,4,6-trimethylbenzonitrile, C10H11N, InChI=1S/C10H11N/c1-7-4-8(2)10(6-11)9(3)5-7/h4-5H,1-3H3, purity 99.96%

System: 2-methylbenzonitrile; phases: Liquid, Gas
Property: Vapor or sublimation pressure, kPa (Liquid); method: Transpiration method
Temperature, K	Vapor or sublimation pressure, kPa	uncertainty
287.4	0.02064	0.00135
289.2	0.02389	0.00154
290.3	0.02582	0.00167
292.4	0.03043	0.00198
296.3	0.04075	0.00259
298.1	0.0467	0.00297
300.7	0.05531	0.00354
305.1	0.07684	0.00487
308.2	0.0961	0.00608
311	0.11624	0.00732
312	0.12567	0.00792
312	0.12481	0.00788
314.9	0.14937	0.00936
316.1	0.16245	0.01026
318.1	0.1865	0.01171
321.1	0.22163	0.01388
322.2	0.24252	0.01525
324.2	0.27286	0.01703

System: 3-cyanotoluene; phases: Liquid, Gas
Property: Vapor or sublimation pressure, kPa (Liquid); method: Transpiration method
Temperature, K	Vapor or sublimation pressure, kPa	uncertainty
279.8	0.0072	0.0005
281.3	0.00829	0.00057
283.7	0.01033	0.00069
285.7	0.01206	0.00081
288.3	0.01513	0.001
290.3	0.01801	0.00119
292.4	0.02154	0.0014
294.3	0.02516	0.00162
297.2	0.03103	0.002
300	0.03937	0.00253
302.1	0.04606	0.00295
304.1	0.05317	0.00339
307.7	0.06905	0.00436
309.2	0.0755	0.00479
310.1	0.08291	0.00524
312	0.09159	0.00577
313.7	0.10487	0.00665

System: 4-cyanotoluene; phases: Crystal, Liquid, Air at 1 atmosphere
Property: Normal melting temperature, K (Crystal); method: DTA
Normal melting temperature, K	uncertainty
299.3	1.1

System: 4-cyanotoluene; phases: Crystal, Liquid, Air at 1 atmosphere
Property: Molar enthalpy of transition or fusion, kJ/mol (Crystal); method: DSC
Molar enthalpy of transition or fusion, kJ/mol	uncertainty
16.1	0.5

System: 4-cyanotoluene; phases: Liquid, Gas
Property: Vapor or sublimation pressure, kPa (Liquid); method: Transpiration method
Temperature, K	Vapor or sublimation pressure, kPa	uncertainty
302.1	0.03154	0.00201
303.2	0.03377	0.00218
305.3	0.04002	0.00256
309.1	0.05079	0.00322
311	0.06008	0.00382
313.1	0.06747	0.00428
315	0.07922	0.00502
319.1	0.09993	0.00627
320.9	0.11589	0.00731
322.9	0.13026	0.00815
325	0.14631	0.00918
325	0.14577	0.00916
329	0.18562	0.01162
331	0.21183	0.01329
332.8	0.23736	0.01481
334.9	0.26287	0.01633

System: 2,4,6-trimethylbenzonitrile; phases: Crystal, Liquid, Air at 1 atmosphere
Property: Molar enthalpy of transition or fusion, kJ/mol (Crystal); method: DSC
Molar enthalpy of transition or fusion, kJ/mol	uncertainty
15.5	0.5

System: 2,4,6-trimethylbenzonitrile; phases: Crystal, Liquid, Air at 1 atmosphere
Property: Normal melting temperature, K (Crystal); method: DTA
Normal melting temperature, K	uncertainty
325.5	1.1

Reaction: -1 2-methylbenzonitrile + 8 carbon dioxide + .5 nitrogen + 3.5 water + -9.75 oxygen
Property: Specific internal energy of reaction at constant volume, J/g
-36469.2

Reaction: -1 3-cyanotoluene + 8 carbon dioxide + .5 nitrogen + 3.5 water + -9.75 oxygen
Property: Specific internal energy of reaction at constant volume, J/g
-36422.1

Reaction: -1 4-cyanotoluene + 8 carbon dioxide + .5 nitrogen + 3.5 water + -9.75 oxygen
Property: Specific internal energy of reaction at constant volume, J/g
-36323.8
