Measured thermophysical data. Densities and volumetric properties of (formamide + ethanol, or 1-propanol, or 1,2-ethanediol, or 1,2-propanediol) mixtures at temperatures between 293.15 K and 318.15 K
Source: J. Chem. Thermodyn., 2007, 10.1016/j.jct.2006.07.021
Compound 1: formamide, CH3NO, InChI=1S/CH3NO/c2-1-3/h1H,(H2,2,3)
Compound 2: ethanol, C2H6O, InChI=1S/C2H6O/c1-2-3/h3H,2H2,1H3
Compound 3: propan-1-ol, C3H8O, InChI=1S/C3H8O/c1-2-3-4/h4H,2-3H2,1H3
Compound 4: 1,2-ethanediol, C2H6O2, InChI=1S/C2H6O2/c3-1-2-4/h3-4H,1-2H2
Compound 5: 1,2-propanediol, C3H8O2, InChI=1S/C3H8O2/c1-3(5)2-4/h3-5H,2H2,1H3

System: ethanol + formamide; phases: Liquid
Fixed: Pressure, kPa = 101
Property: Mass density, kg/m3 (Liquid); method: Pycnometric method
Temperature, K	Mole fraction of formamide	Mass density, kg/m3	uncertainty
293.15	0	789.46	0.2
293.15	0.0698	807.47	0.22
293.15	0.1412	826.72	0.22
293.15	0.2032	844.13	0.23
293.15	0.268	862.91	0.24
293.15	0.3234	879.65	0.24
293.15	0.3874	899.52	0.25
293.15	0.4365	915.29	0.25
293.15	0.4962	935.06	0.26
293.15	0.5423	950.83	0.27
293.15	0.5958	969.63	0.27
293.15	0.6456	987.65	0.28
293.15	0.708	1010.93	0.29
293.15	0.7748	1036.9	0.3
293.15	0.8532	1068.57	0.31
293.15	0.9282	1100.66	0.32
293.15	1	1133	0.32
298.15	0	785.2	0.21
298.15	0.0698	803.3	0.23
298.15	0.1412	822.6	0.23
298.15	0.2032	840.06	0.24
298.15	0.268	858.91	0.24
298.15	0.3234	875.69	0.25
298.15	0.3874	895.58	0.26
298.15	0.4365	911.35	0.26
298.15	0.4962	931.19	0.27
298.15	0.5423	946.93	0.28
298.15	0.5958	965.8	0.28
298.15	0.6456	983.82	0.29
298.15	0.708	1007.05	0.3
298.15	0.7748	1033.01	0.31
298.15	0.8532	1064.68	0.32
298.15	0.9282	1096.71	0.33
298.15	1	1129	0.33
303.15	0	780.75	0.22
303.15	0.0698	799.14	0.24
303.15	0.1412	818.49	0.24
303.15	0.2032	835.99	0.25
303.15	0.268	854.91	0.25
303.15	0.3234	871.68	0.26
303.15	0.3874	891.65	0.27
303.15	0.4365	907.45	0.27
303.15	0.4962	927.32	0.28
303.15	0.5423	943.06	0.29
303.15	0.5958	961.95	0.29
303.15	0.6456	979.98	0.3
303.15	0.708	1003.21	0.31
303.15	0.7748	1029.13	0.32
303.15	0.8532	1060.75	0.33
303.15	0.9282	1092.76	0.34
303.15	1	1125	0.34
308.15	0	776.42	0.23
308.15	0.0698	794.94	0.24
308.15	0.1412	814.41	0.25
308.15	0.2032	831.94	0.26
308.15	0.268	850.86	0.26
308.15	0.3234	867.71	0.27
308.15	0.3874	887.7	0.28
308.15	0.4365	903.54	0.28
308.15	0.4962	923.4	0.29
308.15	0.5423	939.2	0.29
308.15	0.5958	958.11	0.3
308.15	0.6456	976.18	0.31
308.15	0.708	999.36	0.32
308.15	0.7748	1025.26	0.32
308.15	0.8532	1056.82	0.34
308.15	0.9282	1088.83	0.35
308.15	1	1121	0.35
313.15	0	771.81	0.24
313.15	0.0698	790.75	0.25
313.15	0.1412	810.28	0.26
313.15	0.2032	827.87	0.27
313.15	0.268	846.85	0.27
313.15	0.3234	863.74	0.28
313.15	0.3874	883.75	0.29
313.15	0.4365	899.61	0.29
313.15	0.4962	919.52	0.3
313.15	0.5423	935.3	0.3
313.15	0.5958	954.29	0.31
313.15	0.6456	972.35	0.32
313.15	0.708	995.49	0.33
313.15	0.7748	1021.35	0.33
313.15	0.8532	1052.93	0.35
313.15	0.9282	1084.87	0.36
313.15	1	1117	0.36
318.15	0	767.38	0.25
318.15	0.0698	786.59	0.26
318.15	0.1412	806.17	0.27
318.15	0.2032	823.84	0.28
318.15	0.268	842.82	0.28
318.15	0.3234	859.75	0.29
318.15	0.3874	879.8	0.3
318.15	0.4365	895.7	0.3
318.15	0.4962	915.62	0.31
318.15	0.5423	931.42	0.31
318.15	0.5958	950.42	0.32
318.15	0.6456	968.54	0.33
318.15	0.708	991.62	0.33
318.15	0.7748	1017.44	0.34
318.15	0.8532	1049.03	0.35
318.15	0.9282	1080.95	0.37
318.15	1	1113	0.37

System: propan-1-ol + formamide; phases: Liquid
Fixed: Pressure, kPa = 101
Property: Mass density, kg/m3 (Liquid); method: Pycnometric method
Temperature, K	Mole fraction of formamide	Mass density, kg/m3	uncertainty
293.15	0	803.71	0.21
293.15	0.0557	814.02	0.22
293.15	0.1172	826.05	0.22
293.15	0.1854	840.26	0.23
293.15	0.2615	857.42	0.23
293.15	0.3469	878.23	0.24
293.15	0.3912	889.89	0.24
293.15	0.4434	904.36	0.25
293.15	0.4986	920.67	0.25
293.15	0.5534	937.91	0.26
293.15	0.6216	961.03	0.27
293.15	0.68	982.32	0.28
293.15	0.7535	1011.59	0.29
293.15	0.827	1043.7	0.3
293.15	0.8832	1070.44	0.31
293.15	0.9328	1095.56	0.32
298.15	0	799.74	0.22
298.15	0.0557	810.06	0.22
298.15	0.1172	822.13	0.23
298.15	0.1854	836.35	0.23
298.15	0.2615	853.48	0.24
298.15	0.3469	874.3	0.25
298.15	0.3912	885.98	0.25
298.15	0.4434	900.47	0.26
298.15	0.4986	916.75	0.26
298.15	0.5534	934.03	0.27
298.15	0.6216	957.12	0.28
298.15	0.68	978.44	0.29
298.15	0.7535	1007.72	0.3
298.15	0.827	1039.83	0.31
298.15	0.8832	1066.54	0.32
298.15	0.9328	1091.65	0.33
298.15	1	1133	0.34
298.15	1	1129	0.33
303.15	0	795.77	0.23
303.15	0.0557	806.09	0.23
303.15	0.1172	818.2	0.24
303.15	0.1854	832.44	0.24
303.15	0.2615	849.54	0.25
303.15	0.3469	870.42	0.26
303.15	0.3912	882.06	0.26
303.15	0.4434	896.54	0.27
303.15	0.4986	912.83	0.27
303.15	0.5534	930.12	0.28
303.15	0.6216	953.23	0.29
303.15	0.68	974.57	0.3
303.15	0.7535	1003.81	0.31
303.15	0.827	1035.95	0.32
303.15	0.8832	1062.68	0.33
303.15	0.9328	1087.74	0.34
303.15	1	1125	0.34
308.15	0	791.8	0.24
308.15	0.0557	802.16	0.24
308.15	0.1172	814.24	0.25
308.15	0.1854	828.51	0.25
308.15	0.2615	845.65	0.26
308.15	0.3469	866.5	0.27
308.15	0.3912	878.16	0.27
308.15	0.4434	892.62	0.28
308.15	0.4986	908.96	0.28
308.15	0.5534	926.2	0.29
308.15	0.6216	949.33	0.3
308.15	0.68	970.66	0.31
308.15	0.7535	999.91	0.32
308.15	0.827	1032.06	0.33
308.15	0.8832	1058.82	0.34
308.15	0.9328	1083.81	0.35
308.15	1	1121	0.35
313.15	0	787.83	0.25
313.15	0.0557	798.22	0.25
313.15	0.1172	810.33	0.26
313.15	0.1854	824.6	0.26
313.15	0.2615	841.72	0.27
313.15	0.3469	862.58	0.28
313.15	0.3912	874.26	0.28
313.15	0.4434	888.72	0.29
313.15	0.4986	905.05	0.29
313.15	0.5534	922.32	0.3
313.15	0.6216	945.41	0.31
313.15	0.68	966.78	0.32
313.15	0.7535	996.03	0.33
313.15	0.827	1028.21	0.34
313.15	0.8832	1054.92	0.35
313.15	0.9328	1079.91	0.36
313.15	1	1117	0.36
318.15	0	783.86	0.26
318.15	0.0557	794.25	0.26
318.15	0.1172	806.4	0.27
318.15	0.1854	820.65	0.27
318.15	0.2615	837.81	0.28
318.15	0.3469	858.68	0.29
318.15	0.3912	870.36	0.29
318.15	0.4434	884.8	0.3
318.15	0.4986	901.16	0.3
318.15	0.5534	918.42	0.31
318.15	0.6216	941.54	0.32
318.15	0.68	962.88	0.32
318.15	0.7535	992.15	0.34
318.15	0.827	1024.36	0.35
318.15	0.8832	1051.03	0.36
318.15	0.9328	1075.97	0.37
318.15	1	1113	0.37

System: formamide + 1,2-ethanediol; phases: Liquid
Fixed: Pressure, kPa = 101
Property: Mass density, kg/m3 (Liquid); method: Pycnometric method
Temperature, K	Mole fraction of formamide	Mass density, kg/m3	uncertainty
293.15	0	1113.57	0.33
293.15	0.0612	1114.13	0.33
293.15	0.1204	1114.54	0.33
293.15	0.1859	1115.04	0.33
293.15	0.2524	1115.55	0.33
293.15	0.3302	1116.11	0.32
293.15	0.3926	1116.61	0.32
293.15	0.4517	1117.2	0.32
293.15	0.5102	1117.85	0.32
293.15	0.5643	1118.48	0.32
293.15	0.6101	1119.18	0.32
293.15	0.6596	1120.09	0.32
293.15	0.7454	1122.11	0.32
293.15	0.8195	1124.35	0.32
293.15	0.8883	1127.02	0.32
293.15	0.9491	1130.03	0.32
293.15	1	1133	0.32
298.15	0	1110.04	0.34
298.15	0.0612	1110.54	0.34
298.15	0.1204	1110.93	0.34
298.15	0.1859	1111.39	0.34
298.15	0.2524	1111.84	0.34
298.15	0.3302	1112.36	0.33
298.15	0.3926	1112.86	0.33
298.15	0.4517	1113.44	0.33
298.15	0.5102	1114.01	0.33
298.15	0.5643	1114.66	0.33
298.15	0.6101	1115.31	0.33
298.15	0.6596	1116.22	0.33
298.15	0.7454	1118.19	0.33
298.15	0.8195	1120.37	0.33
298.15	0.8883	1122.99	0.33
298.15	0.9491	1125.99	0.33
298.15	1	1129	0.33
303.15	0	1106.51	0.35
303.15	0.0612	1106.94	0.35
303.15	0.1204	1107.31	0.35
303.15	0.1859	1107.74	0.35
303.15	0.2524	1108.13	0.35
303.15	0.3302	1108.66	0.34
303.15	0.3926	1109.1	0.34
303.15	0.4517	1109.64	0.34
303.15	0.5102	1110.17	0.34
303.15	0.5643	1110.81	0.34
303.15	0.6101	1111.46	0.34
303.15	0.6596	1112.36	0.34
303.15	0.7454	1114.23	0.34
303.15	0.8195	1116.38	0.34
303.15	0.8883	1119	0.34
303.15	0.9491	1121.95	0.34
303.15	1	1125	0.34
308.15	0	1102.98	0.36
308.15	0.0612	1103.38	0.36
308.15	0.1204	1103.66	0.36
308.15	0.1859	1104.07	0.36
308.15	0.2524	1104.47	0.36
308.15	0.3302	1104.92	0.35
308.15	0.3926	1105.36	0.35
308.15	0.4517	1105.85	0.35
308.15	0.5102	1106.38	0.35
308.15	0.5643	1106.95	0.35
308.15	0.6101	1107.6	0.35
308.15	0.6596	1108.46	0.35
308.15	0.7454	1110.28	0.35
308.15	0.8195	1112.38	0.35
308.15	0.8883	1115.01	0.35
308.15	0.9491	1117.89	0.35
308.15	1	1121	0.35
313.15	0	1099.45	0.37
313.15	0.0612	1099.81	0.37
313.15	0.1204	1100.06	0.37
313.15	0.1859	1100.42	0.37
313.15	0.2524	1100.77	0.37
313.15	0.3302	1101.18	0.36
313.15	0.3926	1101.62	0.36
313.15	0.4517	1102.08	0.36
313.15	0.5102	1102.55	0.36
313.15	0.5643	1103.13	0.36
313.15	0.6101	1103.72	0.36
313.15	0.6596	1104.59	0.36
313.15	0.7454	1106.35	0.36
313.15	0.8195	1108.42	0.36
313.15	0.8883	1110.98	0.36
313.15	0.9491	1113.86	0.36
313.15	1	1117	0.36
318.15	0	1095.92	0.38
318.15	0.0612	1096.21	0.38
318.15	0.1204	1096.44	0.38
318.15	0.1859	1096.73	0.38
318.15	0.2524	1097.09	0.38
318.15	0.3302	1097.46	0.37
318.15	0.3926	1097.88	0.37
318.15	0.4517	1098.29	0.37
318.15	0.5102	1098.74	0.37
318.15	0.5643	1099.29	0.37
318.15	0.6101	1099.89	0.37
318.15	0.6596	1100.7	0.37
318.15	0.7454	1102.42	0.37
318.15	0.8195	1104.46	0.37
318.15	0.8883	1106.96	0.37
318.15	0.9491	1109.79	0.37
318.15	1	1113	0.37

System: 1,2-propanediol + formamide; phases: Liquid
Fixed: Pressure, kPa = 101
Property: Mass density, kg/m3 (Liquid); method: Pycnometric method
Temperature, K	Mole fraction of formamide	Mass density, kg/m3	uncertainty
293.15	0	1036.38	0.35
293.15	0.0567	1038.29	0.35
293.15	0.1191	1040.52	0.34
293.15	0.1881	1043.47	0.34
293.15	0.2649	1047.35	0.33
293.15	0.3409	1051.67	0.33
293.15	0.3904	1054.79	0.33
293.15	0.4478	1058.92	0.32
293.15	0.4936	1062.42	0.32
293.15	0.5578	1068.01	0.32
293.15	0.6262	1074.52	0.32
293.15	0.6838	1080.96	0.32
293.15	0.7544	1089.83	0.32
293.15	0.8295	1100.75	0.32
293.15	0.8818	1109.7	0.32
293.15	0.9392	1120.57	0.32
293.15	1	1133	0.32
298.15	0	1032.76	0.36
298.15	0.0567	1034.56	0.36
298.15	0.1191	1036.78	0.35
298.15	0.1881	1039.69	0.35
298.15	0.2649	1043.5	0.34
298.15	0.3409	1047.79	0.34
298.15	0.3904	1050.91	0.34
298.15	0.4478	1055.02	0.33
298.15	0.4936	1058.49	0.33
298.15	0.5578	1064.07	0.33
298.15	0.6262	1070.55	0.33
298.15	0.6838	1076.95	0.33
298.15	0.7544	1085.77	0.33
298.15	0.8295	1096.63	0.33
298.15	0.8818	1105.53	0.33
298.15	0.9392	1116.44	0.33
298.15	1	1129	0.33
303.15	0	1029.14	0.37
303.15	0.0567	1030.82	0.37
303.15	0.1191	1033.03	0.36
303.15	0.1881	1035.91	0.36
303.15	0.2649	1039.65	0.35
303.15	0.3409	1043.96	0.35
303.15	0.3904	1047.02	0.35
303.15	0.4478	1051.08	0.34
303.15	0.4936	1054.56	0.34
303.15	0.5578	1060.1	0.34
303.15	0.6262	1066.6	0.34
303.15	0.6838	1072.95	0.34
303.15	0.7544	1081.67	0.34
303.15	0.8295	1092.5	0.34
303.15	0.8818	1101.4	0.34
303.15	0.9392	1112.31	0.34
303.15	1	1125	0.34
308.15	0	1025.52	0.38
308.15	0.0567	1027.12	0.38
308.15	0.1191	1029.25	0.37
308.15	0.1881	1032.11	0.37
308.15	0.2649	1035.85	0.36
308.15	0.3409	1040.09	0.36
308.15	0.3904	1043.15	0.36
308.15	0.4478	1047.15	0.35
308.15	0.4936	1050.68	0.35
308.15	0.5578	1056.12	0.35
308.15	0.6262	1062.64	0.35
308.15	0.6838	1068.91	0.35
308.15	0.7544	1077.58	0.35
308.15	0.8295	1088.36	0.35
308.15	0.8818	1097.27	0.35
308.15	0.9392	1108.16	0.35
308.15	1	1121	0.35
313.15	0	1021.9	0.39
313.15	0.0567	1023.41	0.38
313.15	0.1191	1025.52	0.38
313.15	0.1881	1028.33	0.38
313.15	0.2649	1032.01	0.37
313.15	0.3409	1036.22	0.37
313.15	0.3904	1039.28	0.37
313.15	0.4478	1043.24	0.36
313.15	0.4936	1046.76	0.36
313.15	0.5578	1052.18	0.36
313.15	0.6262	1058.66	0.36
313.15	0.6838	1064.9	0.36
313.15	0.7544	1073.51	0.36
313.15	0.8295	1084.26	0.36
313.15	0.8818	1093.1	0.36
313.15	0.9392	1104.04	0.36
313.15	1	1117	0.36
318.15	0	1018.28	0.4
318.15	0.0567	1019.67	0.39
318.15	0.1191	1021.77	0.39
318.15	0.1881	1024.51	0.39
318.15	0.2649	1028.19	0.38
318.15	0.3409	1032.37	0.38
318.15	0.3904	1035.44	0.38
318.15	0.4478	1039.31	0.37
318.15	0.4936	1042.86	0.37
318.15	0.5578	1048.22	0.37
318.15	0.6262	1054.73	0.37
318.15	0.6838	1060.87	0.37
318.15	0.7544	1069.44	0.37
318.15	0.8295	1080.16	0.37
318.15	0.8818	1088.94	0.37
318.15	0.9392	1099.88	0.37
318.15	1	1113	0.37
