Measured thermophysical data. High pressures phase equilibria of (carbon dioxide + 1-undecanol) system and their potential role in carbon capture and storage
Source: J. Chem. Thermodyn., 2016, 10.1016/j.jct.2015.08.005
Compound 1: carbon dioxide, CO2, InChI=1S/CO2/c2-1-3, purity 99.9%
Compound 2: 1-undecanol, C11H24O, InChI=1S/C11H24O/c1-2-3-4-5-6-7-8-9-10-11-12/h12H,2-11H2,1H3, purity 99%

System: 1-undecanol + carbon dioxide; phases: Liquid mixture 2, Liquid mixture 1, Gas
Property: Mole fraction of carbon dioxide (Liquid mixture 2); method: volumetric
Temperature, K	Mole fraction of carbon dioxide	uncertainty
303.15	0.99	0.01

System: 1-undecanol + carbon dioxide; phases: Liquid mixture 1, Liquid mixture 2, Gas
Property: Mole fraction of carbon dioxide (Liquid mixture 1); method: volumetric
Temperature, K	Mole fraction of carbon dioxide	uncertainty
303.15	0.5416	0.0154

System: 1-undecanol + carbon dioxide; phases: Gas, Liquid mixture 2, Liquid mixture 1
Property: Mole fraction of carbon dioxide (Gas); method: volumetric
Temperature, K	Mole fraction of carbon dioxide	uncertainty
303.15	0.994	0.006

System: 1-undecanol + carbon dioxide; phases: Liquid mixture 1, Liquid mixture 2
Fixed: Temperature, K = 303.15
Property: Mole fraction of carbon dioxide (Liquid mixture 1); method: volumetric
Pressure, kPa	Mole fraction of carbon dioxide	uncertainty
7185	0.5416	0.0154
7955	0.5614	0.0155
8220	0.5669	0.0155
8825	0.5704	0.0155
9011	0.5708	0.0155
9334	0.5716	0.0155
9826	0.5727	0.0155
10097	0.5746	0.0155
10127	0.5752	0.0155
10405	0.5766	0.0155
10468	0.5771	0.0155
10744	0.5788	0.0156
11771	0.5804	0.0156
12191	0.5826	0.0156
13480	0.5848	0.0156
14957	0.5868	0.0156

System: 1-undecanol + carbon dioxide; phases: Liquid mixture 2, Liquid mixture 1
Fixed: Temperature, K = 303.15
Property: Mole fraction of carbon dioxide (Liquid mixture 2); method: volumetric
Pressure, kPa	Mole fraction of carbon dioxide	uncertainty
7185	0.99	0.01
7955	0.9919	0.0081
8220	0.9927	0.0073
8825	0.9925	0.0075
9011	0.9924	0.0076
9334	0.9918	0.0082
9826	0.9916	0.0084
10097	0.9912	0.0088
10127	0.9917	0.0083
10405	0.9914	0.0086
10468	0.9913	0.0087
10744	0.9918	0.0082
11771	0.9911	0.0089
12191	0.9914	0.0086
13480	0.9913	0.0087
14957	0.9911	0.0089

System: 1-undecanol + carbon dioxide; phases: Liquid, Gas
Property: Vapor or sublimation pressure, kPa (Liquid); method: Closed cell (Static) method
Mole fraction of carbon dioxide	Temperature, K	Vapor or sublimation pressure, kPa	uncertainty
0.3066	313.15	2709	35
0.3128	313.15	2803	36
0.3789	313.15	3853	45
0.4518	313.15	4995	56
0.4902	313.15	5802	64
0.5449	313.15	6701	73
0.5867	313.15	7640	82
0.6135	313.15	8651	92
0.6336	313.15	9244	98
0.6344	313.15	9316	99
0.6358	313.15	9339	99
0.6366	313.15	9360	100
0.6385	313.15	9381	100
0.6387	313.15	9412	100
0.6392	313.15	9475	101
0.6498	313.15	10799	114
0.6504	313.15	10953	116
0.6516	313.15	11059	117
0.6532	313.15	11500	122
0.6555	313.15	11668	123
0.6569	313.15	11747	124
0.6572	313.15	11831	125
0.6574	313.15	11889	126
0.6578	313.15	11900	126
0.6582	313.15	11998	127
0.6586	313.15	12097	128
0.6593	313.15	12203	129
0.6598	313.15	12275	130
0.6602	313.15	12304	130
0.6607	313.15	12465	131
0.6631	313.15	12746	134
0.6642	313.15	12750	134
0.6692	313.15	13768	145
0.6715	313.15	14023	148
0.6735	313.15	14441	152
0.6741	313.15	14519	153
0.6764	313.15	14785	155
0.6755	313.15	14800	156
0.6783	313.15	15058	158
0.6798	313.15	15398	162
0.2187	323.15	2193	31
0.219	323.15	2249	31
0.2191	323.15	2289	31
0.2686	323.15	2936	37
0.269	323.15	2973	37
0.2691	323.15	3019	37
0.2707	323.15	3070	38
0.3089	323.15	3652	43
0.3091	323.15	3714	44
0.3143	323.15	3782	44
0.3167	323.15	3849	45
0.3451	323.15	4508	51
0.3482	323.15	4541	52
0.3544	323.15	4627	52
0.3872	323.15	5332	59
0.3883	323.15	5374	60
0.3927	323.15	5417	60
0.3934	323.15	5454	61
0.4497	323.15	6289	69
0.4503	323.15	6344	69
0.4567	323.15	6377	70
0.4591	323.15	6408	70
0.4925	323.15	7410	80
0.5347	323.15	8333	89
0.5352	323.15	8372	90
0.5698	323.15	9310	99
0.5749	323.15	9359	100
0.6072	323.15	10294	109
0.6266	323.15	11118	118
0.6295	323.15	11914	126
0.6305	323.15	11988	127
0.6313	323.15	12110	128
0.6409	323.15	12569	133
0.6414	323.15	12699	134
0.6443	323.15	13032	137
0.6467	323.15	13314	140
0.6477	323.15	14594	153
0.6499	323.15	14721	155
0.1116	333.15	1127	23
0.1181	333.15	1217	24
0.1292	333.15	1323	24
0.1559	333.15	1723	27
0.1631	333.15	1834	28
0.2291	333.15	2826	36
0.2327	333.15	2997	37
0.2614	333.15	3510	42
0.2702	333.15	3684	44
0.2874	333.15	3827	45
0.3391	333.15	4721	53
0.3425	333.15	4840	55
0.3515	333.15	5006	56
0.3822	333.15	5535	61
0.3857	333.15	5627	62
0.4119	333.15	6240	68
0.4189	333.15	6394	70
0.4263	333.15	6533	71
0.4968	333.15	7758	84
0.5024	333.15	7892	85
0.5435	333.15	8817	94
0.5452	333.15	8903	95
0.5779	333.15	9909	105
0.5795	333.15	9952	106
0.6255	333.15	12527	132
0.6281	333.15	12678	134
0.2847	303.15	1622	26
0.2993	303.15	1746	27
0.3036	303.15	1854	28
0.3517	303.15	2661	34
0.3599	303.15	2834	36
0.3659	303.15	2961	37
0.4147	303.15	3910	46
0.4245	303.15	4068	47
0.4619	303.15	4764	54
0.4672	303.15	4874	55
0.5026	303.15	5601	62
0.5045	303.15	5711	63
0.5369	303.15	6997	76
0.5371	303.15	7003	76
0.5394	303.15	7068	76
0.5416	303.15	7185	78

System: 1-undecanol + carbon dioxide; phases: Gas, Liquid
Property: Mole fraction of carbon dioxide (Gas); method: volumetric
Mole fraction of carbon dioxide	Temperature, K	Mole fraction of carbon dioxide	uncertainty
0.3066	313.15	0.9966	0.0034
0.3128	313.15	0.9968	0.0032
0.3789	313.15	0.9976	0.0024
0.4518	313.15	0.9979	0.0021
0.4902	313.15	0.9982	0.0018
0.5449	313.15	0.9984	0.0016
0.5867	313.15	0.9983	0.0017
0.6135	313.15	0.9984	0.0016
0.6336	313.15	0.9984	0.0016
0.6344	313.15	0.9984	0.0016
0.6358	313.15	0.9985	0.0015
0.6366	313.15	0.9984	0.0016
0.6385	313.15	0.9983	0.0017
0.6387	313.15	0.9984	0.0016
0.6392	313.15	0.9984	0.0016
0.6498	313.15	0.9984	0.0016
0.6504	313.15	0.9983	0.0017
0.6516	313.15	0.9984	0.0016
0.6532	313.15	0.9985	0.0015
0.6555	313.15	0.9984	0.0016
0.6569	313.15	0.9984	0.0016
0.6572	313.15	0.9985	0.0015
0.6574	313.15	0.9984	0.0016
0.6578	313.15	0.9983	0.0017
0.6582	313.15	0.9983	0.0017
0.6586	313.15	0.9983	0.0017
0.6593	313.15	0.9981	0.0019
0.6598	313.15	0.9981	0.0019
0.6602	313.15	0.9981	0.0019
0.6607	313.15	0.9981	0.0019
0.6631	313.15	0.998	0.002
0.6642	313.15	0.998	0.002
0.6692	313.15	0.9979	0.0021
0.6715	313.15	0.9979	0.0021
0.6735	313.15	0.9978	0.0022
0.6741	313.15	0.9978	0.0022
0.6764	313.15	0.9978	0.0022
0.6755	313.15	0.9977	0.0023
0.6783	313.15	0.9977	0.0023
0.6798	313.15	0.9976	0.0024
0.2187	323.15	0.9984	0.0016
0.219	323.15	0.9984	0.0016
0.2191	323.15	0.9984	0.0016
0.2686	323.15	0.9985	0.0015
0.269	323.15	0.9985	0.0015
0.2691	323.15	0.9985	0.0015
0.2707	323.15	0.9985	0.0015
0.3089	323.15	0.9988	0.0012
0.3091	323.15	0.9988	0.0012
0.3143	323.15	0.9988	0.0012
0.3167	323.15	0.9988	0.0012
0.3451	323.15	0.9989	0.0011
0.3482	323.15	0.9989	0.0011
0.3544	323.15	0.9989	0.0011
0.3872	323.15	0.9989	0.0011
0.3883	323.15	0.9989	0.0011
0.3927	323.15	0.9989	0.0011
0.3934	323.15	0.9989	0.0011
0.4497	323.15	0.9988	0.0012
0.4503	323.15	0.9988	0.0012
0.4567	323.15	0.9988	0.0012
0.4591	323.15	0.9988	0.0012
0.4925	323.15	0.9989	0.0011
0.5347	323.15	0.9988	0.0012
0.5352	323.15	0.9988	0.0012
0.5698	323.15	0.9987	0.0013
0.5749	323.15	0.9987	0.0013
0.6072	323.15	0.9987	0.0013
0.6266	323.15	0.9986	0.0014
0.6295	323.15	0.9986	0.0014
0.6305	323.15	0.9986	0.0014
0.6313	323.15	0.9986	0.0014
0.6409	323.15	0.9986	0.0014
0.6414	323.15	0.9986	0.0014
0.6443	323.15	0.9985	0.0015
0.6467	323.15	0.9984	0.0016
0.6477	323.15	0.9979	0.0021
0.6499	323.15	0.9978	0.0022
0.1116	333.15	0.9988	0.0012
0.1181	333.15	0.9987	0.0013
0.1292	333.15	0.9988	0.0012
0.1559	333.15	0.9989	0.0011
0.1631	333.15	0.999	0.001
0.2291	333.15	0.9992	0.0008
0.2327	333.15	0.9992	0.0008
0.2614	333.15	0.9991	0.0009
0.2702	333.15	0.9991	0.0009
0.2874	333.15	0.9992	0.0008
0.3391	333.15	0.9994	0.0006
0.3425	333.15	0.9995	0.0005
0.3515	333.15	0.9994	0.0006
0.3822	333.15	0.9995	0.0005
0.3857	333.15	0.9996	0.0004
0.4119	333.15	0.9997	0.0003
0.4189	333.15	0.9996	0.0004
0.4263	333.15	0.9996	0.0004
0.4968	333.15	0.9997	0.0003
0.5024	333.15	0.9997	0.0003
0.5435	333.15	0.9995	0.0005
0.5452	333.15	0.9995	0.0005
0.5779	333.15	0.9993	0.0007
0.5795	333.15	0.9993	0.0007
0.6255	333.15	0.9973	0.0027
0.6281	333.15	0.9972	0.0028
0.2847	303.15	0.9918	0.0082
0.2993	303.15	0.9923	0.0077
0.3036	303.15	0.9927	0.0073
0.3517	303.15	0.9941	0.0059
0.3599	303.15	0.9949	0.0051
0.3659	303.15	0.9948	0.0052
0.4147	303.15	0.9946	0.0054
0.4245	303.15	0.9947	0.0053
0.4619	303.15	0.9946	0.0054
0.4672	303.15	0.9946	0.0054
0.5026	303.15	0.9943	0.0057
0.5045	303.15	0.9945	0.0055
0.5369	303.15	0.9935	0.0065
0.5371	303.15	0.9941	0.0059
0.5394	303.15	0.9939	0.0061
0.5416	303.15	0.994	0.006

System: 1-undecanol + carbon dioxide; phases: Liquid mixture 1, Liquid mixture 2, Gas
Property: Vapor or sublimation pressure, kPa (Liquid mixture 1); method: Closed cell (Static) method
Temperature, K	Vapor or sublimation pressure, kPa	uncertainty
284.16	4486	41
285.2	4657	38
286.1	4768	35
286.95	4880	37
287.65	4976	31
289.05	5086	32
289.9	5204	37
290.9	5328	37
291.8	5454	38
292.65	5569	40
292.95	5634	38
293.55	5695	36
294.5	5824	40
295.35	5964	39
296.25	6074	38
297.15	6199	38
298.25	6343	40
299.15	6482	40
300.2	6624	42
300.95	6769	40
302.25	6910	41
302.85	7057	66
303.15	7185	60
303.35	7205	62
304	7369	49
304.35	7389	32
