Measured thermophysical data. Intermolecular interactions in binary mixtures of 2-diethylethanolamine with 1-propanol and 1-butanol at different temperatures
Source: J. Chem. Thermodyn., 2018, 10.1016/j.jct.2018.06.007
Compound 1: (diethylamino)ethanol, C6H15NO, InChI=1S/C6H15NO/c1-3-7(4-2)5-6-8/h8H,3-6H2,1-2H3, purity 99%
Compound 2: propan-1-ol, C3H8O, InChI=1S/C3H8O/c1-2-3-4/h4H,2-3H2,1H3, purity 99%
Compound 3: butan-1-ol, C4H10O, InChI=1S/C4H10O/c1-2-3-4-5/h5H,2-4H2,1H3, purity 99%

System: (diethylamino)ethanol; phases: Liquid
Fixed: Pressure, kPa = 101
Property: Mass density, kg/m3 (Liquid); method: Pycnometric method
Temperature, K	Mass density, kg/m3	uncertainty
293.15	884.37	4
303.15	874.93	4.01
313.15	865.62	4.01

System: (diethylamino)ethanol; phases: Liquid
Fixed: Pressure, kPa = 101
Fixed: Frequency, MHz = 2
Property: Speed of sound, m/s (Liquid); method: Linear variable-path acoustic interferometer
Temperature, K	Speed of sound, m/s	uncertainty
293.15	1366.48	1.87
303.15	1327.28	1.83
313.15	1284.98	1.79

System: propan-1-ol; phases: Liquid
Fixed: Pressure, kPa = 101
Property: Mass density, kg/m3 (Liquid); method: Pycnometric method
Temperature, K	Mass density, kg/m3	uncertainty
293.15	803.76	4
303.15	795.82	4
313.15	787.88	4.01

System: propan-1-ol; phases: Liquid
Fixed: Pressure, kPa = 101
Fixed: Frequency, MHz = 2
Property: Speed of sound, m/s (Liquid); method: Linear variable-path acoustic interferometer
Temperature, K	Speed of sound, m/s	uncertainty
293.15	1227	1.74
303.15	1192.45	1.71
313.15	1157.7	1.67

System: butan-1-ol; phases: Liquid
Fixed: Pressure, kPa = 101
Property: Mass density, kg/m3 (Liquid); method: Pycnometric method
Temperature, K	Mass density, kg/m3	uncertainty
293.15	809.53	4
303.15	802	4
313.15	794.7	4.01

System: butan-1-ol; phases: Liquid
Fixed: Pressure, kPa = 101
Fixed: Frequency, MHz = 2
Property: Speed of sound, m/s (Liquid); method: Linear variable-path acoustic interferometer
Temperature, K	Speed of sound, m/s	uncertainty
293.15	1261.9	1.77
303.15	1224.7	1.74
313.15	1188.8	1.7

System: (diethylamino)ethanol + propan-1-ol; phases: Liquid
Fixed: Pressure, kPa = 101
Property: Mass density, kg/m3 (Liquid); method: Pycnometric method
Temperature, K	Mole fraction of (diethylamino)ethanol	Mass density, kg/m3	uncertainty
293.15	0	803.76	4
293.15	0.0937	817.5	4
293.15	0.1994	830.99	4
293.15	0.3005	842.11	4
293.15	0.4048	851.86	4
293.15	0.5072	859.98	4
293.15	0.61	866.74	4
293.15	0.7093	872.27	4
293.15	0.801	876.7	4
293.15	0.9047	881.06	4
293.15	1	884.37	4
303.15	0	795.82	4
303.15	0.0937	809.54	4
303.15	0.1994	822.96	4
303.15	0.3005	833.85	4
303.15	0.4048	843.48	4
303.15	0.5072	851.48	4
303.15	0.61	858.08	4
303.15	0.7093	863.47	4
303.15	0.801	867.78	4
303.15	0.9047	871.91	4.01
303.15	1	874.93	4.01
313.15	0	787.88	4.01
313.15	0.0937	801.82	4.01
313.15	0.1994	815.1	4.01
313.15	0.3005	825.77	4.01
313.15	0.4048	835.1	4.01
313.15	0.5072	842.85	4.01
313.15	0.61	849.33	4.01
313.15	0.7093	854.7	4.01
313.15	0.801	858.95	4.01
313.15	0.9047	862.91	4.01
313.15	1	865.62	4.01

System: (diethylamino)ethanol + propan-1-ol; phases: Liquid
Fixed: Pressure, kPa = 101
Fixed: Frequency, MHz = 2
Property: Speed of sound, m/s (Liquid); method: Linear variable-path acoustic interferometer
Temperature, K	Mole fraction of (diethylamino)ethanol	Speed of sound, m/s	uncertainty
293.15	0	1227	1.74
293.15	0.0937	1247.72	1.76
293.15	0.1994	1268.98	1.78
293.15	0.3005	1287.56	1.8
293.15	0.4048	1304.98	1.81
293.15	0.5072	1320.1	1.83
293.15	0.61	1333.29	1.84
293.15	0.7093	1344	1.85
293.15	0.801	1352.22	1.86
293.15	0.9047	1360.12	1.86
293.15	1	1366.48	1.87
303.15	0	1192.45	1.71
303.15	0.0937	1213.21	1.73
303.15	0.1994	1234.42	1.75
303.15	0.3005	1252.65	1.76
303.15	0.4048	1269.45	1.78
303.15	0.5072	1284.13	1.79
303.15	0.61	1296.86	1.8
303.15	0.7093	1307.27	1.81
303.15	0.801	1315.26	1.82
303.15	0.9047	1322.28	1.83
303.15	1	1327.28	1.83
313.15	0	1157.7	1.67
313.15	0.0937	1178.86	1.69
313.15	0.1994	1199.72	1.71
313.15	0.3005	1217.33	1.73
313.15	0.4048	1233.2	1.74
313.15	0.5072	1246.98	1.76
313.15	0.61	1259.15	1.77
313.15	0.7093	1269.4	1.78
313.15	0.801	1276.96	1.78
313.15	0.9047	1282.46	1.79
313.15	1	1284.98	1.79

System: (diethylamino)ethanol + butan-1-ol; phases: Liquid
Fixed: Pressure, kPa = 101
Property: Mass density, kg/m3 (Liquid); method: Pycnometric method
Temperature, K	Mole fraction of (diethylamino)ethanol	Mass density, kg/m3	uncertainty
293.15	0	809.53	4
293.15	0.0902	820.03	4
293.15	0.1941	831.16	4
293.15	0.2938	840.82	4
293.15	0.4045	850.42	4
293.15	0.5081	858.32	4
293.15	0.6088	865.03	4
293.15	0.7129	871.14	4
293.15	0.8131	876.29	4
293.15	0.9037	880.46	4
293.15	1	884.37	4
303.15	0	802	4
303.15	0.0902	812.47	4
303.15	0.1941	823.43	4
303.15	0.2938	832.89	4
303.15	0.4045	842.23	4
303.15	0.5081	849.91	4
303.15	0.6088	856.45	4
303.15	0.7129	862.42	4
303.15	0.8131	867.39	4
303.15	0.9037	871.28	4.01
303.15	1	874.93	4.01
313.15	0	794.7	4.01
313.15	0.0902	805.16	4.01
313.15	0.1941	815.92	4.01
313.15	0.2938	825.11	4.01
313.15	0.4045	834.18	4.01
313.15	0.5081	841.63	4.01
313.15	0.6088	847.98	4.01
313.15	0.7129	853.78	4.01
313.15	0.8131	858.66	4.01
313.15	0.9037	862.4	4.01
313.15	1	865.62	4.01

System: (diethylamino)ethanol + butan-1-ol; phases: Liquid
Fixed: Pressure, kPa = 101
Fixed: Frequency, MHz = 2
Property: Speed of sound, m/s (Liquid); method: Linear variable-path acoustic interferometer
Temperature, K	Mole fraction of (diethylamino)ethanol	Speed of sound, m/s	uncertainty
293.15	0	1261.9	1.77
293.15	0.0902	1276.3	1.79
293.15	0.1941	1291.2	1.8
293.15	0.2938	1304.3	1.81
293.15	0.4045	1317.75	1.83
293.15	0.5081	1329.25	1.84
293.15	0.6088	1339.34	1.85
293.15	0.7129	1348.62	1.85
293.15	0.8131	1356.4	1.86
293.15	0.9037	1362.2	1.87
293.15	1	1366.48	1.87
303.15	0	1224.7	1.74
303.15	0.0902	1239.85	1.75
303.15	0.1941	1254.82	1.77
303.15	0.2938	1267.71	1.78
303.15	0.4045	1280.96	1.79
303.15	0.5081	1292.2	1.8
303.15	0.6088	1302.1	1.81
303.15	0.7129	1311.2	1.82
303.15	0.8131	1318.66	1.82
303.15	0.9037	1324	1.83
303.15	1	1327.28	1.83
313.15	0	1188.8	1.7
313.15	0.0902	1204.1	1.72
313.15	0.1941	1218.7	1.73
313.15	0.2938	1231.05	1.74
313.15	0.4045	1243.45	1.75
313.15	0.5081	1254.03	1.76
313.15	0.6088	1263.35	1.77
313.15	0.7129	1271.9	1.78
313.15	0.8131	1278.84	1.78
313.15	0.9037	1283.2	1.79
313.15	1	1284.98	1.79
