Measured thermophysical data. Activity coefficients at infinite dilution measurements for organic solutes  and water in the ionic liquid 4-methyl-N-butyl-pyridinium  bis(trifluoromethylsulfonyl)-imide
Source: J. Chem. Thermodyn., 2009, 10.1016/j.jct.2009.06.011
Compound 1: pentane, C5H12, InChI=1S/C5H12/c1-3-5-4-2/h3-5H2,1-2H3, purity 99%
Compound 2: hexane, C6H14, InChI=1S/C6H14/c1-3-5-6-4-2/h3-6H2,1-2H3, purity 99%
Compound 3: heptane, C7H16, InChI=1S/C7H16/c1-3-5-7-6-4-2/h3-7H2,1-2H3, purity 99%
Compound 4: octane, C8H18, InChI=1S/C8H18/c1-3-5-7-8-6-4-2/h3-8H2,1-2H3, purity 99%
Compound 5: nonane, C9H20, InChI=1S/C9H20/c1-3-5-7-9-8-6-4-2/h3-9H2,1-2H3, purity 99%
Compound 6: decane, C10H22, InChI=1S/C10H22/c1-3-5-7-9-10-8-6-4-2/h3-10H2,1-2H3, purity 99%
Compound 7: cyclopentane, C5H10, InChI=1S/C5H10/c1-2-4-5-3-1/h1-5H2, purity 99%
Compound 8: cyclohexane, C6H12, InChI=1S/C6H12/c1-2-4-6-5-3-1/h1-6H2, purity 99%
Compound 9: cycloheptane, C7H14, InChI=1S/C7H14/c1-2-4-6-7-5-3-1/h1-7H2, purity 99%
Compound 10: cyclooctane, C8H16, InChI=1S/C8H16/c1-2-4-6-8-7-5-3-1/h1-8H2, purity 99%
Compound 11: 1-pentene, C5H10, InChI=1S/C5H10/c1-3-5-4-2/h3H,1,4-5H2,2H3, purity 99%
Compound 12: hex-1-ene, C6H12, InChI=1S/C6H12/c1-3-5-6-4-2/h3H,1,4-6H2,2H3, purity 99%
Compound 13: 1-heptene, C7H14, InChI=1S/C7H14/c1-3-5-7-6-4-2/h3H,1,4-7H2,2H3, purity 99%
Compound 14: oct-1-ene, C8H16, InChI=1S/C8H16/c1-3-5-7-8-6-4-2/h3H,1,4-8H2,2H3, purity 99%
Compound 15: 1-pentyne, C5H8, InChI=1S/C5H8/c1-3-5-4-2/h1H,4-5H2,2H3, purity 99%
Compound 16: 1-hexyne, C6H10, InChI=1S/C6H10/c1-3-5-6-4-2/h1H,4-6H2,2H3, purity 99%
Compound 17: 1-heptyne, C7H12, InChI=1S/C7H12/c1-3-5-7-6-4-2/h1H,4-7H2,2H3, purity 99%
Compound 18: 1-octyne, C8H14, InChI=1S/C8H14/c1-3-5-7-8-6-4-2/h1H,4-8H2,2H3, purity 99%
Compound 19: benzene, C6H6, InChI=1S/C6H6/c1-2-4-6-5-3-1/h1-6H, purity 99%
Compound 20: toluene, C7H8, InChI=1S/C7H8/c1-7-5-3-2-4-6-7/h2-6H,1H3, purity 99%
Compound 21: ethylbenzene, C8H10, InChI=1S/C8H10/c1-2-8-6-4-3-5-7-8/h3-7H,2H2,1H3, purity 99%
Compound 22: 1,2-dimethylbenzene, C8H10, InChI=1S/C8H10/c1-7-5-3-4-6-8(7)2/h3-6H,1-2H3, purity 99%
Compound 23: 1,3-dimethylbenzene, C8H10, InChI=1S/C8H10/c1-7-4-3-5-8(2)6-7/h3-6H,1-2H3, purity 99%
Compound 24: 1,4-dimethylbenzene, C8H10, InChI=1S/C8H10/c1-7-3-5-8(2)6-4-7/h3-6H,1-2H3, purity 99%
Compound 25: methanol, CH4O, InChI=1S/CH4O/c1-2/h2H,1H3, purity 99%
Compound 26: ethanol, C2H6O, InChI=1S/C2H6O/c1-2-3/h3H,2H2,1H3, purity 99%
Compound 27: propan-1-ol, C3H8O, InChI=1S/C3H8O/c1-2-3-4/h4H,2-3H2,1H3, purity 99%
Compound 28: butan-1-ol, C4H10O, InChI=1S/C4H10O/c1-2-3-4-5/h5H,2-4H2,1H3, purity 99%
Compound 29: thiophene, C4H4S, InChI=1S/C4H4S/c1-2-4-5-3-1/h1-4H, purity 99%
Compound 30: tetrahydrofuran, C4H8O, InChI=1S/C4H8O/c1-2-4-5-3-1/h1-4H2, purity 99%
Compound 31: 2-methoxy-2-methylpropane, C5H12O, InChI=1S/C5H12O/c1-5(2,3)6-4/h1-4H3, purity 99%
Compound 32: diethyl ether, C4H10O, InChI=1S/C4H10O/c1-3-5-4-2/h3-4H2,1-2H3, purity 99%
Compound 33: dipropyl ether, C6H14O, InChI=1S/C6H14O/c1-3-5-7-6-4-2/h3-6H2,1-2H3, purity 99%
Compound 34: dibutyl ether, C8H18O, InChI=1S/C8H18O/c1-3-5-7-9-8-6-4-2/h3-8H2,1-2H3, purity 99%
Compound 35: acetone, C3H6O, InChI=1S/C3H6O/c1-3(2)4/h1-2H3, purity 99%
Compound 36: water, H2O, InChI=1S/H2O/h1H2, purity 99%
Compound 37: 1-butyl-4-methylpyridinium bis((trifluoromethyl)sulfonyl)amide, C12H16F6N2O4S2, InChI=1S/C10H16N.C2F6NO4S2/c1-3-4-7-11-8-5-10(2)6-9-11;3-1(4,5)14(10,11)9-15(12,13)2(6,7)8/h5-6,8-9H,3-4,7H2,1-2H3;/q+1;-1, purity 99%

System: pentane + 1-butyl-4-methylpyridinium bis((trifluoromethyl)sulfonyl)amide; phases: Liquid
Fixed: Mole fraction of pentane = 0
Fixed: Pressure, kPa = 101
Property: Activity coefficient of pentane (Liquid); method: Chromatography
Temperature, K	Activity coefficient of pentane	uncertainty
298.15	12.9	0.9
308.15	12	0.8
318.15	11.2	0.8
328.15	10.5	0.7
338.15	9.89	0.67
348.15	9.37	0.64
358.15	8.88	0.61
368.15	8.47	0.58

System: hexane + 1-butyl-4-methylpyridinium bis((trifluoromethyl)sulfonyl)amide; phases: Liquid
Fixed: Mole fraction of hexane = 0
Fixed: Pressure, kPa = 101
Property: Activity coefficient of hexane (Liquid); method: Chromatography
Temperature, K	Activity coefficient of hexane	uncertainty
298.15	15.4	1.1
308.15	14.5	1
318.15	13.5	0.9
328.15	12.7	0.9
338.15	12	0.8
348.15	11.4	0.8
358.15	10.8	0.7
368.15	10.3	0.7

System: heptane + 1-butyl-4-methylpyridinium bis((trifluoromethyl)sulfonyl)amide; phases: Liquid
Fixed: Mole fraction of heptane = 0
Fixed: Pressure, kPa = 101
Property: Activity coefficient of heptane (Liquid); method: Chromatography
Temperature, K	Activity coefficient of heptane	uncertainty
298.15	20.4	1.4
308.15	18.9	1.3
318.15	17.7	1.2
328.15	16.6	1.1
338.15	15.6	1.1
348.15	14.7	1
358.15	13.9	1
368.15	13.2	0.9

System: octane + 1-butyl-4-methylpyridinium bis((trifluoromethyl)sulfonyl)amide; phases: Liquid
Fixed: Mole fraction of octane = 0
Fixed: Pressure, kPa = 101
Property: Activity coefficient of octane (Liquid); method: Chromatography
Temperature, K	Activity coefficient of octane	uncertainty
298.15	27.9	1.9
308.15	25.8	1.8
318.15	23.7	1.6
328.15	22.1	1.5
338.15	20.7	1.4
348.15	19.3	1.3
358.15	18.1	1.2
368.15	17.2	1.2

System: nonane + 1-butyl-4-methylpyridinium bis((trifluoromethyl)sulfonyl)amide; phases: Liquid
Fixed: Mole fraction of nonane = 0
Fixed: Pressure, kPa = 101
Property: Activity coefficient of nonane (Liquid); method: Chromatography
Temperature, K	Activity coefficient of nonane	uncertainty
298.15	38.9	2.7
308.15	35.5	2.4
318.15	32.3	2.2
328.15	29.8	2
338.15	27.6	1.9
348.15	25.6	1.8
358.15	23.8	1.6
368.15	22	1.5

System: decane + 1-butyl-4-methylpyridinium bis((trifluoromethyl)sulfonyl)amide; phases: Liquid
Fixed: Mole fraction of decane = 0
Fixed: Pressure, kPa = 101
Property: Activity coefficient of decane (Liquid); method: Chromatography
Temperature, K	Activity coefficient of decane	uncertainty
298.15	54.7	3.7
308.15	49.3	3.4
318.15	45	3.1
328.15	41.1	2.8
338.15	37.6	2.6
348.15	34.6	2.4
358.15	31.9	2.2
368.15	29.7	2

System: cyclopentane + 1-butyl-4-methylpyridinium bis((trifluoromethyl)sulfonyl)amide; phases: Liquid
Fixed: Mole fraction of cyclopentane = 0
Fixed: Pressure, kPa = 101
Property: Activity coefficient of cyclopentane (Liquid); method: Chromatography
Temperature, K	Activity coefficient of cyclopentane	uncertainty
298.15	6.65	0.45
308.15	6.25	0.43
318.15	5.89	0.4
328.15	5.59	0.38
338.15	5.28	0.36
348.15	5.03	0.34
358.15	4.81	0.33
368.15	4.6	0.31

System: cyclohexane + 1-butyl-4-methylpyridinium bis((trifluoromethyl)sulfonyl)amide; phases: Liquid
Fixed: Mole fraction of cyclohexane = 0
Fixed: Pressure, kPa = 101
Property: Activity coefficient of cyclohexane (Liquid); method: Chromatography
Temperature, K	Activity coefficient of cyclohexane	uncertainty
298.15	8.93	0.61
308.15	8.34	0.57
318.15	7.76	0.53
328.15	7.31	0.5
338.15	6.96	0.47
348.15	6.54	0.45
358.15	6.23	0.42
368.15	5.94	0.4

System: cycloheptane + 1-butyl-4-methylpyridinium bis((trifluoromethyl)sulfonyl)amide; phases: Liquid
Fixed: Mole fraction of cycloheptane = 0
Fixed: Pressure, kPa = 101
Property: Activity coefficient of cycloheptane (Liquid); method: Chromatography
Temperature, K	Activity coefficient of cycloheptane	uncertainty
298.15	10.9	0.7
308.15	10.1	0.7
318.15	9.45	0.64
328.15	8.9	0.61
338.15	8.39	0.57
348.15	7.9	0.54
358.15	7.46	0.51
368.15	7.14	0.49

System: cyclooctane + 1-butyl-4-methylpyridinium bis((trifluoromethyl)sulfonyl)amide; phases: Liquid
Fixed: Mole fraction of cyclooctane = 0
Fixed: Pressure, kPa = 101
Property: Activity coefficient of cyclooctane (Liquid); method: Chromatography
Temperature, K	Activity coefficient of cyclooctane	uncertainty
298.15	13.9	1
308.15	12.9	0.9
318.15	12	0.8
328.15	11.2	0.8
338.15	10.4	0.7
348.15	9.81	0.67
358.15	9.26	0.63
368.15	8.74	0.6

System: 1-pentene + 1-butyl-4-methylpyridinium bis((trifluoromethyl)sulfonyl)amide; phases: Liquid
Fixed: Mole fraction of 1-pentene = 0
Fixed: Pressure, kPa = 101
Property: Activity coefficient of 1-pentene (Liquid); method: Chromatography
Temperature, K	Activity coefficient of 1-pentene	uncertainty
298.15	5.81	0.4
308.15	5.6	0.38
318.15	5.42	0.37
328.15	5.24	0.36
338.15	5.07	0.35
348.15	4.93	0.34
358.15	4.8	0.33
368.15	4.68	0.32

System: hex-1-ene + 1-butyl-4-methylpyridinium bis((trifluoromethyl)sulfonyl)amide; phases: Liquid
Fixed: Mole fraction of hex-1-ene = 0
Fixed: Pressure, kPa = 101
Property: Activity coefficient of hex-1-ene (Liquid); method: Chromatography
Temperature, K	Activity coefficient of hex-1-ene	uncertainty
298.15	7.4	0.5
308.15	7.11	0.48
318.15	6.82	0.47
328.15	6.58	0.45
338.15	6.37	0.43
348.15	6.17	0.42
358.15	5.99	0.41
368.15	5.82	0.4

System: 1-heptene + 1-butyl-4-methylpyridinium bis((trifluoromethyl)sulfonyl)amide; phases: Liquid
Fixed: Mole fraction of 1-heptene = 0
Fixed: Pressure, kPa = 101
Property: Activity coefficient of 1-heptene (Liquid); method: Chromatography
Temperature, K	Activity coefficient of 1-heptene	uncertainty
298.15	9.97	0.68
308.15	9.56	0.65
318.15	9.17	0.63
328.15	8.82	0.6
338.15	8.51	0.58
348.15	8.24	0.56
358.15	7.99	0.54
368.15	7.76	0.53

System: oct-1-ene + 1-butyl-4-methylpyridinium bis((trifluoromethyl)sulfonyl)amide; phases: Liquid
Fixed: Mole fraction of oct-1-ene = 0
Fixed: Pressure, kPa = 101
Property: Activity coefficient of oct-1-ene (Liquid); method: Chromatography
Temperature, K	Activity coefficient of oct-1-ene	uncertainty
298.15	13.8	0.9
308.15	13	0.9
318.15	12.4	0.8
328.15	11.8	0.8
338.15	11.3	0.8
348.15	10.9	0.7
358.15	10.4	0.7
368.15	10.1	0.7

System: 1-pentyne + 1-butyl-4-methylpyridinium bis((trifluoromethyl)sulfonyl)amide; phases: Liquid
Fixed: Mole fraction of 1-pentyne = 0
Fixed: Pressure, kPa = 101
Property: Activity coefficient of 1-pentyne (Liquid); method: Chromatography
Temperature, K	Activity coefficient of 1-pentyne	uncertainty
298.15	1.79	0.12
308.15	1.82	0.12
318.15	1.84	0.12
328.15	1.87	0.13
338.15	1.89	0.13
348.15	1.91	0.13
358.15	1.93	0.13
368.15	1.95	0.13

System: 1-hexyne + 1-butyl-4-methylpyridinium bis((trifluoromethyl)sulfonyl)amide; phases: Liquid
Fixed: Mole fraction of 1-hexyne = 0
Fixed: Pressure, kPa = 101
Property: Activity coefficient of 1-hexyne (Liquid); method: Chromatography
Temperature, K	Activity coefficient of 1-hexyne	uncertainty
298.15	2.37	0.16
308.15	2.39	0.16
318.15	2.42	0.16
328.15	2.44	0.17
338.15	2.46	0.17
348.15	2.48	0.17
358.15	2.5	0.17
368.15	2.52	0.17

System: 1-heptyne + 1-butyl-4-methylpyridinium bis((trifluoromethyl)sulfonyl)amide; phases: Liquid
Fixed: Mole fraction of 1-heptyne = 0
Fixed: Pressure, kPa = 101
Property: Activity coefficient of 1-heptyne (Liquid); method: Chromatography
Temperature, K	Activity coefficient of 1-heptyne	uncertainty
298.15	3.2	0.22
308.15	3.23	0.22
318.15	3.24	0.22
328.15	3.26	0.22
338.15	3.27	0.22
348.15	3.28	0.22
358.15	3.29	0.22
368.15	3.3	0.22

System: 1-octyne + 1-butyl-4-methylpyridinium bis((trifluoromethyl)sulfonyl)amide; phases: Liquid
Fixed: Mole fraction of 1-octyne = 0
Fixed: Pressure, kPa = 101
Property: Activity coefficient of 1-octyne (Liquid); method: Chromatography
Temperature, K	Activity coefficient of 1-octyne	uncertainty
298.15	4.43	0.3
308.15	4.42	0.3
318.15	4.4	0.3
328.15	4.38	0.3
338.15	4.37	0.3
348.15	4.36	0.3
358.15	4.34	0.3
368.15	4.33	0.29

System: benzene + 1-butyl-4-methylpyridinium bis((trifluoromethyl)sulfonyl)amide; phases: Liquid
Fixed: Mole fraction of benzene = 0
Fixed: Pressure, kPa = 101
Property: Activity coefficient of benzene (Liquid); method: Chromatography
Temperature, K	Activity coefficient of benzene	uncertainty
298.15	0.683	0.046
308.15	0.702	0.047
318.15	0.719	0.048
328.15	0.735	0.049
338.15	0.75	0.049
348.15	0.767	0.05
358.15	0.781	0.051
368.15	0.795	0.052

System: toluene + 1-butyl-4-methylpyridinium bis((trifluoromethyl)sulfonyl)amide; phases: Liquid
Fixed: Mole fraction of toluene = 0
Fixed: Pressure, kPa = 101
Property: Activity coefficient of toluene (Liquid); method: Chromatography
Temperature, K	Activity coefficient of toluene	uncertainty
318.15	0.973	0.061
328.15	1	0.063
338.15	1.024	0.064
348.15	1.046	0.066
358.15	1.069	0.067
368.15	1.092	0.069

System: ethylbenzene + 1-butyl-4-methylpyridinium bis((trifluoromethyl)sulfonyl)amide; phases: Liquid
Fixed: Mole fraction of ethylbenzene = 0
Fixed: Pressure, kPa = 101
Property: Activity coefficient of ethylbenzene (Liquid); method: Chromatography
Temperature, K	Activity coefficient of ethylbenzene	uncertainty
318.15	1.45	0.1
328.15	1.48	0.1
338.15	1.5	0.1
348.15	1.52	0.1
358.15	1.54	0.1
368.15	1.56	0.1

System: 1,2-dimethylbenzene + 1-butyl-4-methylpyridinium bis((trifluoromethyl)sulfonyl)amide; phases: Liquid
Fixed: Mole fraction of 1,2-dimethylbenzene = 0
Fixed: Pressure, kPa = 101
Property: Activity coefficient of 1,2-dimethylbenzene (Liquid); method: Chromatography
Temperature, K	Activity coefficient of 1,2-dimethylbenzene	uncertainty
318.15	1.21	0.08
328.15	1.24	0.08
338.15	1.27	0.08
348.15	1.3	0.08
358.15	1.32	0.09
368.15	1.35	0.09

System: 1,3-dimethylbenzene + 1-butyl-4-methylpyridinium bis((trifluoromethyl)sulfonyl)amide; phases: Liquid
Fixed: Mole fraction of 1,3-dimethylbenzene = 0
Fixed: Pressure, kPa = 101
Property: Activity coefficient of 1,3-dimethylbenzene (Liquid); method: Chromatography
Temperature, K	Activity coefficient of 1,3-dimethylbenzene	uncertainty
318.15	1.35	0.09
328.15	1.38	0.09
338.15	1.42	0.09
348.15	1.45	0.1
358.15	1.48	0.1
368.15	1.51	0.1

System: 1,4-dimethylbenzene + 1-butyl-4-methylpyridinium bis((trifluoromethyl)sulfonyl)amide; phases: Liquid
Fixed: Mole fraction of 1,4-dimethylbenzene = 0
Fixed: Pressure, kPa = 101
Property: Activity coefficient of 1,4-dimethylbenzene (Liquid); method: Chromatography
Temperature, K	Activity coefficient of 1,4-dimethylbenzene	uncertainty
318.15	1.35	0.09
328.15	1.38	0.09
338.15	1.42	0.09
348.15	1.45	0.1
358.15	1.48	0.1
368.15	1.51	0.1

System: methanol + 1-butyl-4-methylpyridinium bis((trifluoromethyl)sulfonyl)amide; phases: Liquid
Fixed: Mole fraction of methanol = 0
Fixed: Pressure, kPa = 101
Property: Activity coefficient of methanol (Liquid); method: Chromatography
Temperature, K	Activity coefficient of methanol	uncertainty
298.15	1.53	0.1
308.15	1.39	0.09
318.15	1.27	0.08
328.15	1.17	0.07
338.15	1.08	0.07
348.15	1	0.06
358.15	0.935	0.059
368.15	0.876	0.056

System: ethanol + 1-butyl-4-methylpyridinium bis((trifluoromethyl)sulfonyl)amide; phases: Liquid
Fixed: Mole fraction of ethanol = 0
Fixed: Pressure, kPa = 101
Property: Activity coefficient of ethanol (Liquid); method: Chromatography
Temperature, K	Activity coefficient of ethanol	uncertainty
298.15	1.91	0.13
308.15	1.72	0.12
318.15	1.56	0.1
328.15	1.43	0.09
338.15	1.31	0.09
348.15	1.21	0.08
358.15	1.12	0.07
368.15	1.04	0.07

System: propan-1-ol + 1-butyl-4-methylpyridinium bis((trifluoromethyl)sulfonyl)amide; phases: Liquid
Fixed: Mole fraction of propan-1-ol = 0
Fixed: Pressure, kPa = 101
Property: Activity coefficient of propan-1-ol (Liquid); method: Chromatography
Temperature, K	Activity coefficient of propan-1-ol	uncertainty
298.15	2.28	0.16
308.15	2.04	0.14
318.15	1.84	0.12
328.15	1.67	0.11
338.15	1.53	0.1
348.15	1.41	0.09
358.15	1.3	0.08
368.15	1.2	0.08

System: butan-1-ol + 1-butyl-4-methylpyridinium bis((trifluoromethyl)sulfonyl)amide; phases: Liquid
Fixed: Mole fraction of butan-1-ol = 0
Fixed: Pressure, kPa = 101
Property: Activity coefficient of butan-1-ol (Liquid); method: Chromatography
Temperature, K	Activity coefficient of butan-1-ol	uncertainty
318.15	2.26	0.15
328.15	2.05	0.14
338.15	1.87	0.13
348.15	1.71	0.11
358.15	1.57	0.1
368.15	1.46	0.1

System: thiophene + 1-butyl-4-methylpyridinium bis((trifluoromethyl)sulfonyl)amide; phases: Liquid
Fixed: Mole fraction of thiophene = 0
Fixed: Pressure, kPa = 101
Property: Activity coefficient of thiophene (Liquid); method: Chromatography
Temperature, K	Activity coefficient of thiophene	uncertainty
298.15	0.609	0.043
308.15	0.624	0.043
318.15	0.637	0.044
328.15	0.649	0.044
338.15	0.661	0.045
348.15	0.672	0.046
358.15	0.683	0.046
368.15	0.694	0.047

System: tetrahydrofuran + 1-butyl-4-methylpyridinium bis((trifluoromethyl)sulfonyl)amide; phases: Liquid
Fixed: Mole fraction of tetrahydrofuran = 0
Fixed: Pressure, kPa = 101
Property: Activity coefficient of tetrahydrofuran (Liquid); method: Chromatography
Temperature, K	Activity coefficient of tetrahydrofuran	uncertainty
298.15	0.617	0.043
308.15	0.63	0.044
318.15	0.641	0.044
328.15	0.653	0.045
338.15	0.663	0.045
348.15	0.673	0.046
358.15	0.683	0.046
368.15	0.693	0.047

System: 2-methoxy-2-methylpropane + 1-butyl-4-methylpyridinium bis((trifluoromethyl)sulfonyl)amide; phases: Liquid
Fixed: Mole fraction of 2-methoxy-2-methylpropane = 0
Fixed: Pressure, kPa = 101
Property: Activity coefficient of 2-methoxy-2-methylpropane (Liquid); method: Chromatography
Temperature, K	Activity coefficient of 2-methoxy-2-methylpropane	uncertainty
298.15	1.97	0.13
308.15	2	0.14
318.15	2.03	0.14
328.15	2.06	0.14
338.15	2.08	0.14
348.15	2.1	0.14
358.15	2.12	0.14
368.15	2.15	0.15

System: diethyl ether + 1-butyl-4-methylpyridinium bis((trifluoromethyl)sulfonyl)amide; phases: Liquid
Fixed: Mole fraction of diethyl ether = 0
Fixed: Pressure, kPa = 101
Property: Activity coefficient of diethyl ether (Liquid); method: Chromatography
Temperature, K	Activity coefficient of diethyl ether	uncertainty
298.15	2.07	0.14
308.15	2.08	0.14
318.15	2.08	0.14
328.15	2.08	0.14
338.15	2.08	0.14
348.15	2.09	0.14
358.15	2.09	0.14
368.15	2.09	0.14

System: dipropyl ether + 1-butyl-4-methylpyridinium bis((trifluoromethyl)sulfonyl)amide; phases: Liquid
Fixed: Mole fraction of dipropyl ether = 0
Fixed: Pressure, kPa = 101
Property: Activity coefficient of dipropyl ether (Liquid); method: Chromatography
Temperature, K	Activity coefficient of dipropyl ether	uncertainty
298.15	4.91	0.33
308.15	4.81	0.33
318.15	4.71	0.32
328.15	4.62	0.31
338.15	4.54	0.31
348.15	4.45	0.3
358.15	4.38	0.3
368.15	4.31	0.29

System: dibutyl ether + 1-butyl-4-methylpyridinium bis((trifluoromethyl)sulfonyl)amide; phases: Liquid
Fixed: Mole fraction of dibutyl ether = 0
Fixed: Pressure, kPa = 101
Property: Activity coefficient of dibutyl ether (Liquid); method: Chromatography
Temperature, K	Activity coefficient of dibutyl ether	uncertainty
298.15	9.79	0.67
308.15	9.38	0.64
318.15	8.98	0.61
328.15	8.64	0.59
338.15	8.32	0.57
348.15	8.02	0.55
358.15	7.76	0.53
368.15	7.52	0.51

System: acetone + 1-butyl-4-methylpyridinium bis((trifluoromethyl)sulfonyl)amide; phases: Liquid
Fixed: Mole fraction of acetone = 0
Fixed: Pressure, kPa = 101
Property: Activity coefficient of acetone (Liquid); method: Chromatography
Temperature, K	Activity coefficient of acetone	uncertainty
298.15	0.398	0.034
308.15	0.406	0.034
318.15	0.415	0.035
328.15	0.423	0.035
338.15	0.43	0.035
348.15	0.438	0.035
358.15	0.445	0.036
368.15	0.451	0.036

System: water + 1-butyl-4-methylpyridinium bis((trifluoromethyl)sulfonyl)amide; phases: Liquid
Fixed: Mole fraction of water = 0
Fixed: Pressure, kPa = 101
Property: Activity coefficient of water (Liquid); method: Chromatography
Temperature, K	Activity coefficient of water	uncertainty
298.15	4.86	0.33
308.15	4.2	0.29
318.15	3.65	0.25
328.15	3.21	0.22
338.15	2.85	0.19
348.15	2.54	0.17
358.15	2.26	0.15
368.15	2.05	0.14
