Measured thermophysical data. Measurement and modeling of osmotic coefficients of binary mixtures (alcohol + 1,3-dimethylpyridinium methylsulfate) at T = 323.15 K
Source: J. Chem. Thermodyn., 2011, 10.1016/j.jct.2011.01.010
Compound 1: propan-1-ol, C3H8O, InChI=1S/C3H8O/c1-2-3-4/h4H,2-3H2,1H3, purity 99.9%
Compound 2: butan-2-ol, C4H10O, InChI=1S/C4H10O/c1-3-4(2)5/h4-5H,3H2,1-2H3, purity 99.5%
Compound 3: propan-2-ol, C3H8O, InChI=1S/C3H8O/c1-3(2)4/h3-4H,1-2H3, purity 99.8%
Compound 4: pentan-1-ol, C5H12O, InChI=1S/C5H12O/c1-2-3-4-5-6/h6H,2-5H2,1H3, purity 99%
Compound 5: butan-1-ol, C4H10O, InChI=1S/C4H10O/c1-2-3-4-5/h5H,2-4H2,1H3, purity 99.9%
Compound 6: 1,3-dimethylpyridinium methyl sulfate, C8H13NO4S, InChI=1S/C7H10N.CH4O4S/c1-7-4-3-5-8(2)6-7;1-5-6(2,3)4/h3-6H,1-2H3;1H3,(H,2,3,4)/q+1;/p-1

System: propan-1-ol + 1,3-dimethylpyridinium methyl sulfate; phases: Liquid, Gas
Fixed: Temperature, K = 323.15
Property: Osmotic coefficient (Liquid); method: vapor pressure osmometry
Molality, mol/kg of propan-1-ol	Osmotic coefficient	uncertainty
0.0785	0.885	0.013
0.0971	0.803	0.015
0.2088	0.711	0.016
0.3089	0.671	0.017
0.4144	0.658	0.017
0.5126	0.642	0.017
0.8126	0.609	0.018
1.104	0.576	0.019
1.4009	0.548	0.02
1.691	0.533	0.02
2.2187	0.508	0.021
2.7209	0.494	0.022
3.2108	0.478	0.022

System: propan-1-ol + 1,3-dimethylpyridinium methyl sulfate; phases: Liquid, Gas
Fixed: Temperature, K = 323.15
Property: (Relative) activity of propan-1-ol (Liquid); method: vapor pressure osmometry
Molality, mol/kg of propan-1-ol	(Relative) activity of propan-1-ol	uncertainty
0.0785	0.992	0.04
0.0971	0.991	0.04
0.2088	0.983	0.04
0.3089	0.975	0.04
0.4144	0.968	0.04
0.5126	0.961	0.04
0.8126	0.942	0.04
1.104	0.926	0.04
1.4009	0.912	0.04
1.691	0.897	0.04
2.2187	0.873	0.04
2.7209	0.851	0.04
3.2108	0.832	0.04

System: propan-1-ol + 1,3-dimethylpyridinium methyl sulfate; phases: Liquid, Gas
Fixed: Temperature, K = 323.15
Property: Vapor or sublimation pressure, kPa (Liquid); method: Closed cell (Static) method
Molality, mol/kg of propan-1-ol	Vapor or sublimation pressure, kPa	uncertainty
0.0785	12.001	0.14
0.0971	11.989	0.139
0.2088	11.891	0.138
0.3089	11.802	0.137
0.4144	11.709	0.136
0.5126	11.63	0.135
0.8126	11.398	0.132
1.104	11.205	0.13
1.4009	11.027	0.128
1.691	10.851	0.126
2.2187	10.557	0.122
2.7209	10.285	0.119
3.2108	10.051	0.116

System: butan-2-ol + 1,3-dimethylpyridinium methyl sulfate; phases: Liquid, Gas
Fixed: Temperature, K = 323.15
Property: Osmotic coefficient (Liquid); method: vapor pressure osmometry
Molality, mol/kg of butan-2-ol	Osmotic coefficient	uncertainty
0.0458	0.818	0.014
0.0728	0.729	0.016
0.0933	0.696	0.016
0.2019	0.605	0.018
0.3113	0.547	0.02
0.3991	0.512	0.021
0.4981	0.474	0.022
0.6846	0.441	0.023
0.9815	0.408	0.024
1.2848	0.383	0.025
1.6869	0.361	0.026
2.1046	0.345	0.026
2.5009	0.333	0.026
2.9139	0.327	0.027
3.2911	0.32	0.027

System: butan-2-ol + 1,3-dimethylpyridinium methyl sulfate; phases: Liquid, Gas
Fixed: Temperature, K = 323.15
Property: (Relative) activity of butan-2-ol (Liquid); method: vapor pressure osmometry
Molality, mol/kg of butan-2-ol	(Relative) activity of butan-2-ol	uncertainty
0.0458	0.994	0.04
0.0728	0.992	0.04
0.0933	0.99	0.04
0.2019	0.982	0.04
0.3113	0.975	0.04
0.3991	0.97	0.04
0.4981	0.966	0.04
0.6846	0.956	0.04
0.9815	0.942	0.04
1.2848	0.93	0.04
1.6869	0.914	0.04
2.1046	0.898	0.04
2.5009	0.884	0.04
2.9139	0.868	0.04
3.2911	0.855	0.04

System: butan-2-ol + 1,3-dimethylpyridinium methyl sulfate; phases: Liquid, Gas
Fixed: Temperature, K = 323.15
Property: Vapor or sublimation pressure, kPa (Liquid); method: Closed cell (Static) method
Molality, mol/kg of butan-2-ol	Vapor or sublimation pressure, kPa	uncertainty
0.0458	10.575	0.124
0.0728	10.55	0.123
0.0933	10.531	0.123
0.2019	10.441	0.122
0.3113	10.366	0.121
0.3991	10.313	0.12
0.4981	10.265	0.12
0.6846	10.163	0.119
0.9815	10.015	0.117
1.2848	9.879	0.115
1.6869	9.707	0.113
2.1046	9.539	0.111
2.5009	9.386	0.109
2.9139	9.22	0.107
3.2911	9.083	0.105

System: propan-2-ol + 1,3-dimethylpyridinium methyl sulfate; phases: Liquid, Gas
Fixed: Temperature, K = 323.15
Property: Osmotic coefficient (Liquid); method: vapor pressure osmometry
Molality, mol/kg of propan-2-ol	Osmotic coefficient	uncertainty
0.072	0.969	0.012
0.1185	0.873	0.013
0.2149	0.767	0.015
0.3087	0.699	0.016
0.408	0.654	0.017
0.5005	0.628	0.018
0.7082	0.57	0.019
1.0132	0.532	0.02
1.296	0.51	0.021
1.7195	0.49	0.022
2.095	0.468	0.022
2.4937	0.46	0.023
2.956	0.436	0.023
3.326	0.419	0.024

System: propan-2-ol + 1,3-dimethylpyridinium methyl sulfate; phases: Liquid, Gas
Fixed: Temperature, K = 323.15
Property: (Relative) activity of propan-2-ol (Liquid); method: vapor pressure osmometry
Molality, mol/kg of propan-2-ol	(Relative) activity of propan-2-ol	uncertainty
0.072	0.992	0.04
0.1185	0.988	0.04
0.2149	0.98	0.04
0.3087	0.974	0.04
0.408	0.968	0.04
0.5005	0.963	0.04
0.7082	0.953	0.04
1.0132	0.937	0.04
1.296	0.924	0.04
1.7195	0.904	0.04
2.095	0.889	0.04
2.4937	0.871	0.04
2.956	0.857	0.04
3.326	0.846	0.04

System: propan-2-ol + 1,3-dimethylpyridinium methyl sulfate; phases: Liquid, Gas
Fixed: Temperature, K = 323.15
Property: Vapor or sublimation pressure, kPa (Liquid); method: Closed cell (Static) method
Molality, mol/kg of propan-2-ol	Vapor or sublimation pressure, kPa	uncertainty
0.072	23.391	0.267
0.1185	23.295	0.266
0.2149	23.121	0.263
0.3087	22.978	0.262
0.408	22.835	0.26
0.5005	22.704	0.258
0.7082	22.457	0.255
1.0132	22.089	0.251
1.296	21.764	0.247
1.7195	21.289	0.241
2.095	20.931	0.237
2.4937	20.513	0.231
2.956	20.165	0.227
3.326	19.907	0.224

System: pentan-1-ol + 1,3-dimethylpyridinium methyl sulfate; phases: Liquid, Gas
Fixed: Temperature, K = 323.15
Property: Osmotic coefficient (Liquid); method: vapor pressure osmometry
Molality, mol/kg of pentan-1-ol	Osmotic coefficient	uncertainty
0.0303	0.77	0.015
0.0543	0.677	0.017
0.0875	0.618	0.018
0.1103	0.584	0.019
0.2153	0.505	0.021
0.3078	0.464	0.022
0.412	0.425	0.024
0.5092	0.401	0.024
0.8077	0.372	0.025
1.1064	0.352	0.026
1.7104	0.33	0.027
2.2288	0.315	0.027
2.7262	0.308	0.027
3.1977	0.3	0.028

System: pentan-1-ol + 1,3-dimethylpyridinium methyl sulfate; phases: Liquid, Gas
Fixed: Temperature, K = 323.15
Property: (Relative) activity of pentan-1-ol (Liquid); method: vapor pressure osmometry
Molality, mol/kg of pentan-1-ol	(Relative) activity of pentan-1-ol	uncertainty
0.0303	0.996	0.04
0.0543	0.994	0.04
0.0875	0.991	0.04
0.1103	0.989	0.04
0.2153	0.981	0.04
0.3078	0.975	0.04
0.412	0.97	0.04
0.5092	0.965	0.04
0.8077	0.948	0.04
1.1064	0.934	0.04
1.7104	0.905	0.04
2.2288	0.884	0.04
2.7262	0.862	0.04
3.1977	0.844	0.04

System: pentan-1-ol + 1,3-dimethylpyridinium methyl sulfate; phases: Liquid, Gas
Fixed: Temperature, K = 323.15
Property: Vapor or sublimation pressure, kPa (Liquid); method: Closed cell (Static) method
Molality, mol/kg of pentan-1-ol	Vapor or sublimation pressure, kPa	uncertainty
0.0303	1.636	0.03
0.0543	1.632	0.03
0.0875	1.627	0.03
0.1103	1.624	0.03
0.2153	1.611	0.03
0.3078	1.602	0.03
0.412	1.593	0.03
0.5092	1.584	0.03
0.8077	1.558	0.03
1.1064	1.533	0.029
1.7104	1.487	0.029
2.2288	1.451	0.029
2.7262	1.416	0.029
3.1977	1.386	0.028

System: butan-1-ol + 1,3-dimethylpyridinium methyl sulfate; phases: Liquid, Gas
Fixed: Temperature, K = 323.15
Property: Osmotic coefficient (Liquid); method: vapor pressure osmometry
Molality, mol/kg of butan-1-ol	Osmotic coefficient	uncertainty
0.0259	0.824	0.014
0.0466	0.746	0.015
0.1056	0.668	0.017
0.2078	0.601	0.019
0.3112	0.528	0.021
0.4005	0.501	0.021
0.5132	0.469	0.022
0.9858	0.425	0.024
1.282	0.406	0.024
1.685	0.394	0.025
2.0782	0.387	0.025
2.4965	0.375	0.025
2.9114	0.368	0.025

System: butan-1-ol + 1,3-dimethylpyridinium methyl sulfate; phases: Liquid, Gas
Fixed: Temperature, K = 323.15
Property: (Relative) activity of butan-1-ol (Liquid); method: vapor pressure osmometry
Molality, mol/kg of butan-1-ol	(Relative) activity of butan-1-ol	uncertainty
0.0259	0.997	0.04
0.0466	0.995	0.04
0.1056	0.99	0.04
0.2078	0.982	0.04
0.3112	0.976	0.04
0.4005	0.971	0.04
0.5132	0.965	0.04
0.9858	0.94	0.04
1.282	0.926	0.04
1.685	0.906	0.04
2.0782	0.888	0.04
2.4965	0.87	0.04
2.9114	0.853	0.04

System: butan-1-ol + 1,3-dimethylpyridinium methyl sulfate; phases: Liquid, Gas
Fixed: Temperature, K = 323.15
Property: Vapor or sublimation pressure, kPa (Liquid); method: Closed cell (Static) method
Molality, mol/kg of butan-1-ol	Vapor or sublimation pressure, kPa	uncertainty
0.0259	4.462	0.057
0.0466	4.453	0.057
0.1056	4.429	0.057
0.2078	4.393	0.056
0.3112	4.367	0.056
0.4005	4.344	0.056
0.5132	4.318	0.056
0.9858	4.204	0.054
1.282	4.142	0.054
1.685	4.054	0.053
2.0782	3.97	0.052
2.4965	3.892	0.051
2.9114	3.815	0.05
