Measured thermophysical data. Standard enthalpy of formation of diphenyl oxide
Source: J. Chem. Thermodyn., 2018, 10.1016/j.jct.2018.04.009
Compound 1: carbon dioxide, CO2, InChI=1S/CO2/c2-1-3
Compound 2: water, H2O, InChI=1S/H2O/h1H2
Compound 3: oxygen, O2, InChI=1S/O2/c1-2
Compound 4: diphenyl ether, C12H10O, InChI=1S/C12H10O/c1-3-7-11(8-4-1)13-12-9-5-2-6-10-12/h1-10H

System: diphenyl ether; phases: Crystal, Liquid, Gas
Property: Molar enthalpy of transition or fusion, kJ/mol (Crystal); method: Adiabatic calorimetry
Molar enthalpy of transition or fusion, kJ/mol	uncertainty
17.122	0.125

System: diphenyl ether; phases: Crystal, Liquid, Gas
Property: Triple point temperature, K (Crystal); method: Adiabatic calorimetry
Triple point temperature, K	uncertainty
299.96	0.05

System: diphenyl ether; phases: Crystal
Fixed: Pressure, kPa = 101.325
Property: Molar heat capacity at constant pressure, J/K/mol (Crystal); method: Small (less than 1 g) adiabatic calorimetry
Temperature, K	Molar heat capacity at constant pressure, J/K/mol	uncertainty
282.085	202.2	1.41
283.341	202.92	1.41
285.844	203.66	1.42
287.091	205.43	1.43
288.329	206.1	1.43
289.586	207.25	1.44
290.841	208.01	1.45
292.097	209.17	1.45

System: diphenyl ether; phases: Liquid
Fixed: Pressure, kPa = 101.325
Property: Molar heat capacity at constant pressure, J/K/mol (Liquid); method: Small (less than 1 g) adiabatic calorimetry
Temperature, K	Molar heat capacity at constant pressure, J/K/mol	uncertainty
321.459	276.46	1.9
323.17	278.21	1.91
324.895	278.93	1.91
326.629	279.41	1.92
328.37	279.66	1.92
330.101	280.76	1.93
331.85	281.87	1.93
333.608	282.69	1.94
335.375	283.24	1.94

Reaction: -1 diphenyl ether + 12 carbon dioxide + 5 water + -14 oxygen
Property: Specific internal energy of reaction at constant volume, J/g
-35929.7

Reaction: -1 diphenyl ether + 12 carbon dioxide + 5 water + -14 oxygen
Property: Specific internal energy of reaction at constant volume, J/g
-36025.3
