Measured thermophysical data. Excess molar volume along with viscosity, refractive index and relative permittivity for binary mixtures of exo-tetrahydrodicyclopentadiene with four octane isomers
Source: J. Chem. Thermodyn., 2015, 10.1016/j.jct.2014.09.015
Compound 1: exo-tetrahydrodicyclopentadiene, C10H16, InChI=1S/C10H16/c1-2-9-7-4-5-8(6-7)10(9)3-1/h7-10H,1-6H2/t7-,8+,9+,10-, purity 98%
Compound 2: octane, C8H18, InChI=1S/C8H18/c1-3-5-7-8-6-4-2/h3-8H2,1-2H3, purity 99%
Compound 3: 2,2,4-trimethylpentane, C8H18, InChI=1S/C8H18/c1-7(2)6-8(3,4)5/h7H,6H2,1-5H3, purity 99.5%
Compound 4: 3-methylheptane, C8H18, InChI=1S/C8H18/c1-4-6-7-8(3)5-2/h8H,4-7H2,1-3H3, purity 99%
Compound 5: 2,4-dimethylhexane, C8H18, InChI=1S/C8H18/c1-5-8(4)6-7(2)3/h7-8H,5-6H2,1-4H3, purity 99%

System: exo-tetrahydrodicyclopentadiene; phases: Liquid
Fixed: Pressure, kPa = 100
Property: Mass density, kg/m3 (Liquid); method: Vibrating tube method
Temperature, K	Mass density, kg/m3	uncertainty
293.15	935.66	0.23
298.15	931.79	0.23
303.15	927.88	0.23
308.15	923.97	0.23
313.15	920.05	0.23

System: exo-tetrahydrodicyclopentadiene; phases: Liquid
Fixed: Pressure, kPa = 100
Property: Viscosity, Pa*s (Liquid); method: Falling or rolling sphere viscometry
Temperature, K	Viscosity, Pa*s	uncertainty
293.15	0.002974	6.5e-05
298.15	0.002694	5.9e-05
303.15	0.002454	5.4e-05
308.15	0.002243	4.9e-05
313.15	0.002059	4.5e-05

System: exo-tetrahydrodicyclopentadiene; phases: Liquid
Fixed: Pressure, kPa = 100
Property: Refractive index (Na D-line) (Liquid); method: Standard Abbe refractometry
Temperature, K	Refractive index (Na D-line)	uncertainty
293.15	1.4871	0.0011
298.15	1.4853	0.0011
303.15	1.4833	0.0011
308.15	1.4802	0.0011
313.15	1.4773	0.0011

System: exo-tetrahydrodicyclopentadiene; phases: Liquid
Fixed: Pressure, kPa = 100
Fixed: Frequency, MHz = 0.05
Property: Relative permittivity at various frequencies (Liquid); method: Coaxial cylinder capacitor
Temperature, K	Relative permittivity at various frequencies	uncertainty
293.15	2.19	0.02
303.15	2.18	0.02
313.15	2.17	0.02

System: octane; phases: Liquid
Fixed: Pressure, kPa = 100
Property: Mass density, kg/m3 (Liquid); method: Vibrating tube method
Temperature, K	Mass density, kg/m3	uncertainty
293.15	702.82	0.19
298.15	698.81	0.19
303.15	694.75	0.19
308.15	690.68	0.19
313.15	686.59	0.19

System: octane; phases: Liquid
Fixed: Pressure, kPa = 100
Property: Viscosity, Pa*s (Liquid); method: Falling or rolling sphere viscometry
Temperature, K	Viscosity, Pa*s	uncertainty
293.15	0.000547	1.2e-05
298.15	0.000517	1.1e-05
303.15	0.000491	1.1e-05
308.15	0.000468	1e-05
313.15	0.000447	1e-05

System: octane; phases: Liquid
Fixed: Pressure, kPa = 100
Property: Refractive index (Na D-line) (Liquid); method: Standard Abbe refractometry
Temperature, K	Refractive index (Na D-line)	uncertainty
293.15	1.3969	0.001
298.15	1.3948	0.001
303.15	1.3926	0.001
308.15	1.3904	0.001
313.15	1.3877	0.001

System: octane; phases: Liquid
Fixed: Pressure, kPa = 100
Fixed: Frequency, MHz = 0.05
Property: Relative permittivity at various frequencies (Liquid); method: Coaxial cylinder capacitor
Temperature, K	Relative permittivity at various frequencies	uncertainty
293.15	1.96	0.02
303.15	1.95	0.02
313.15	1.94	0.02

System: 2,2,4-trimethylpentane; phases: Liquid
Fixed: Pressure, kPa = 100
Property: Mass density, kg/m3 (Liquid); method: Vibrating tube method
Temperature, K	Mass density, kg/m3	uncertainty
293.15	691.89	0.17
298.15	687.75	0.18
303.15	683.61	0.18
308.15	679.44	0.18
313.15	675.25	0.18

System: 2,2,4-trimethylpentane; phases: Liquid
Fixed: Pressure, kPa = 100
Property: Viscosity, Pa*s (Liquid); method: Falling or rolling sphere viscometry
Temperature, K	Viscosity, Pa*s	uncertainty
293.15	0.000518	1.1e-05
298.15	0.000492	1e-05
303.15	0.00047	1e-05
308.15	0.00045	1e-05
313.15	0.000431	9e-06

System: 2,2,4-trimethylpentane; phases: Liquid
Fixed: Pressure, kPa = 100
Property: Refractive index (Na D-line) (Liquid); method: Standard Abbe refractometry
Temperature, K	Refractive index (Na D-line)	uncertainty
293.15	1.3906	0.001
298.15	1.3888	0.001
303.15	1.3862	0.001
308.15	1.3838	0.001
313.15	1.3812	0.001

System: 2,2,4-trimethylpentane; phases: Liquid
Fixed: Pressure, kPa = 100
Fixed: Frequency, MHz = 0.05
Property: Relative permittivity at various frequencies (Liquid); method: Coaxial cylinder capacitor
Temperature, K	Relative permittivity at various frequencies	uncertainty
293.15	1.94	0.02
303.15	1.93	0.02
313.15	1.92	0.02

System: 3-methylheptane; phases: Liquid
Fixed: Pressure, kPa = 100
Property: Mass density, kg/m3 (Liquid); method: Vibrating tube method
Temperature, K	Mass density, kg/m3	uncertainty
293.15	706.37	0.22
298.15	702.3	0.22
303.15	698.2	0.22
308.15	694.08	0.22
313.15	689.93	0.22

System: 3-methylheptane; phases: Liquid
Fixed: Pressure, kPa = 100
Property: Viscosity, Pa*s (Liquid); method: Falling or rolling sphere viscometry
Temperature, K	Viscosity, Pa*s	uncertainty
293.15	0.000512	1.1e-05
298.15	0.000485	1.1e-05
303.15	0.000462	1e-05
308.15	0.00044	1e-05
313.15	0.000422	9e-06

System: 3-methylheptane; phases: Liquid
Fixed: Pressure, kPa = 100
Property: Refractive index (Na D-line) (Liquid); method: Standard Abbe refractometry
Temperature, K	Refractive index (Na D-line)	uncertainty
293.15	1.3976	0.0011
298.15	1.3957	0.0011
303.15	1.3934	0.0011
308.15	1.391	0.0011
313.15	1.3892	0.0011

System: 3-methylheptane; phases: Liquid
Fixed: Pressure, kPa = 100
Fixed: Frequency, MHz = 0.05
Property: Relative permittivity at various frequencies (Liquid); method: Coaxial cylinder capacitor
Temperature, K	Relative permittivity at various frequencies	uncertainty
293.15	1.95	0.02
303.15	1.94	0.02
313.15	1.92	0.02

System: 2,4-dimethylhexane; phases: Liquid
Fixed: Pressure, kPa = 100
Property: Mass density, kg/m3 (Liquid); method: Vibrating tube method
Temperature, K	Mass density, kg/m3	uncertainty
293.15	700.57	0.21
298.15	696.43	0.21
303.15	692.26	0.21
308.15	688.06	0.21
313.15	683.85	0.21

System: 2,4-dimethylhexane; phases: Liquid
Fixed: Pressure, kPa = 100
Property: Viscosity, Pa*s (Liquid); method: Falling or rolling sphere viscometry
Temperature, K	Viscosity, Pa*s	uncertainty
293.15	0.000476	1e-05
298.15	0.000455	1e-05
303.15	0.000434	9e-06
308.15	0.000416	9e-06
313.15	0.0004	9e-06

System: 2,4-dimethylhexane; phases: Liquid
Fixed: Pressure, kPa = 100
Property: Refractive index (Na D-line) (Liquid); method: Standard Abbe refractometry
Temperature, K	Refractive index (Na D-line)	uncertainty
293.15	1.3947	0.0011
298.15	1.3926	0.0011
303.15	1.3898	0.0011
308.15	1.3881	0.0011
313.15	1.3858	0.0011

System: 2,4-dimethylhexane; phases: Liquid
Fixed: Pressure, kPa = 100
Fixed: Frequency, MHz = 0.05
Property: Relative permittivity at various frequencies (Liquid); method: Coaxial cylinder capacitor
Temperature, K	Relative permittivity at various frequencies	uncertainty
293.15	1.96	0.02
303.15	1.95	0.02
313.15	1.93	0.02

System: octane + exo-tetrahydrodicyclopentadiene; phases: Liquid
Fixed: Pressure, kPa = 100
Property: Mass density, kg/m3 (Liquid); method: Vibrating tube method
Temperature, K	Mole fraction of exo-tetrahydrodicyclopentadiene	Mass density, kg/m3	uncertainty
293.15	0	702.82	0.19
293.15	0.1007	724.76	0.19
293.15	0.2005	746.87	0.19
293.15	0.2991	769.02	0.19
293.15	0.4	792.07	0.19
293.15	0.5001	815.28	0.2
293.15	0.5986	838.48	0.2
293.15	0.6988	862.29	0.21
293.15	0.8019	887.1	0.22
293.15	0.9005	911.22	0.23
293.15	1	935.66	0.23
298.15	0	698.81	0.19
298.15	0.1007	720.75	0.19
298.15	0.2005	742.87	0.19
298.15	0.2991	765.03	0.19
298.15	0.4	788.09	0.19
298.15	0.5001	811.29	0.2
298.15	0.5986	834.5	0.2
298.15	0.6988	858.32	0.21
298.15	0.8019	883.16	0.22
298.15	0.9005	907.31	0.23
298.15	1	931.79	0.23
303.15	0	694.75	0.19
303.15	0.1007	716.71	0.19
303.15	0.2005	738.84	0.19
303.15	0.2991	761.01	0.19
303.15	0.4	784.08	0.19
303.15	0.5001	807.29	0.2
303.15	0.5986	830.52	0.2
303.15	0.6988	854.35	0.21
303.15	0.8019	879.21	0.22
303.15	0.9005	903.38	0.23
303.15	1	927.88	0.23
308.15	0	690.68	0.19
308.15	0.1007	712.65	0.19
308.15	0.2005	734.79	0.19
308.15	0.2991	756.97	0.19
308.15	0.4	780.05	0.2
308.15	0.5001	803.27	0.2
308.15	0.5986	826.54	0.2
308.15	0.6988	850.37	0.21
308.15	0.8019	875.25	0.22
308.15	0.9005	899.44	0.23
308.15	1	923.97	0.23
313.15	0	686.59	0.19
313.15	0.1007	708.57	0.19
313.15	0.2005	730.72	0.19
313.15	0.2991	752.91	0.19
313.15	0.4	776.01	0.2
313.15	0.5001	799.23	0.2
313.15	0.5986	822.52	0.2
313.15	0.6988	846.38	0.21
313.15	0.8019	871.28	0.22
313.15	0.9005	895.49	0.23
313.15	1	920.05	0.23

System: octane + exo-tetrahydrodicyclopentadiene; phases: Liquid
Fixed: Pressure, kPa = 100
Property: Viscosity, Pa*s (Liquid); method: Falling or rolling sphere viscometry
Temperature, K	Mole fraction of exo-tetrahydrodicyclopentadiene	Viscosity, Pa*s	uncertainty
293.15	0	0.000547	1.2e-05
293.15	0.1007	0.000616	1.3e-05
293.15	0.2005	0.000697	1.5e-05
293.15	0.2991	0.000806	1.7e-05
293.15	0.4	0.000956	2.1e-05
293.15	0.5001	0.001085	2.3e-05
293.15	0.5986	0.001282	2.8e-05
293.15	0.6988	0.001537	3.3e-05
293.15	0.8019	0.001896	4.1e-05
293.15	0.9005	0.002342	5.1e-05
293.15	1	0.002974	6.5e-05
298.15	0	0.000517	1.1e-05
298.15	0.1007	0.000582	1.3e-05
298.15	0.2005	0.000655	1.4e-05
298.15	0.2991	0.000756	1.6e-05
298.15	0.4	0.000892	1.9e-05
298.15	0.5001	0.001007	2.2e-05
298.15	0.5986	0.001187	2.6e-05
298.15	0.6988	0.001415	3.1e-05
298.15	0.8019	0.001735	3.8e-05
298.15	0.9005	0.00213	4.7e-05
298.15	1	0.002694	5.9e-05
303.15	0	0.000491	1.1e-05
303.15	0.1007	0.000551	1.2e-05
303.15	0.2005	0.000618	1.3e-05
303.15	0.2991	0.000711	1.5e-05
303.15	0.4	0.00083	1.8e-05
303.15	0.5001	0.00094	2e-05
303.15	0.5986	0.001102	2.4e-05
303.15	0.6988	0.001311	2.8e-05
303.15	0.8019	0.001597	3.5e-05
303.15	0.9005	0.00195	4.3e-05
303.15	1	0.002454	5.4e-05
308.15	0	0.000468	1e-05
308.15	0.1007	0.000523	1.1e-05
308.15	0.2005	0.000585	1.3e-05
308.15	0.2991	0.00067	1.4e-05
308.15	0.4	0.00078	1.7e-05
308.15	0.5001	0.000879	1.9e-05
308.15	0.5986	0.001027	2.2e-05
308.15	0.6988	0.001215	2.6e-05
308.15	0.8019	0.001475	3.2e-05
308.15	0.9005	0.001793	3.9e-05
308.15	1	0.002243	4.9e-05
313.15	0	0.000447	1e-05
313.15	0.1007	0.000499	1.1e-05
313.15	0.2005	0.000555	1.2e-05
313.15	0.2991	0.000634	1.4e-05
313.15	0.4	0.000733	1.6e-05
313.15	0.5001	0.000825	1.8e-05
313.15	0.5986	0.00096	2.1e-05
313.15	0.6988	0.00113	2.5e-05
313.15	0.8019	0.001367	3e-05
313.15	0.9005	0.001654	3.6e-05
313.15	1	0.002059	4.5e-05

System: octane + exo-tetrahydrodicyclopentadiene; phases: Liquid
Fixed: Pressure, kPa = 100
Property: Refractive index (Na D-line) (Liquid); method: Standard Abbe refractometry
Temperature, K	Mole fraction of exo-tetrahydrodicyclopentadiene	Refractive index (Na D-line)	uncertainty
293.15	0	1.3969	0.001
293.15	0.1007	1.4058	0.001
293.15	0.2005	1.4146	0.001
293.15	0.2991	1.4232	0.001
293.15	0.4	1.4322	0.0011
293.15	0.5001	1.4411	0.0011
293.15	0.5986	1.4501	0.0011
293.15	0.6988	1.4593	0.0011
293.15	0.8019	1.4689	0.0011
293.15	0.9005	1.4779	0.0011
293.15	1	1.4871	0.0011
298.15	0	1.3948	0.001
298.15	0.1007	1.4036	0.001
298.15	0.2005	1.4122	0.001
298.15	0.2991	1.4206	0.001
298.15	0.4	1.4296	0.0011
298.15	0.5001	1.4386	0.0011
298.15	0.5986	1.4478	0.0011
298.15	0.6988	1.4571	0.0011
298.15	0.8019	1.4668	0.0011
298.15	0.9005	1.4761	0.0011
298.15	1	1.4853	0.0011
303.15	0	1.3926	0.001
303.15	0.1007	1.4012	0.001
303.15	0.2005	1.4099	0.001
303.15	0.2991	1.4187	0.001
303.15	0.4	1.4278	0.0011
303.15	0.5001	1.4369	0.0011
303.15	0.5986	1.4459	0.0011
303.15	0.6988	1.4553	0.0011
303.15	0.8019	1.4649	0.0011
303.15	0.9005	1.4739	0.0011
303.15	1	1.4833	0.0011
308.15	0	1.3904	0.001
308.15	0.1007	1.3991	0.001
308.15	0.2005	1.4076	0.001
308.15	0.2991	1.4163	0.001
308.15	0.4	1.4253	0.0011
308.15	0.5001	1.4341	0.0011
308.15	0.5986	1.4433	0.0011
308.15	0.6988	1.4526	0.0011
308.15	0.8019	1.4622	0.0011
308.15	0.9005	1.4712	0.0011
308.15	1	1.4802	0.0011
313.15	0	1.3877	0.001
313.15	0.1007	1.3964	0.001
313.15	0.2005	1.4052	0.001
313.15	0.2991	1.4136	0.001
313.15	0.4	1.4225	0.0011
313.15	0.5001	1.4313	0.0011
313.15	0.5986	1.4402	0.0011
313.15	0.6988	1.4495	0.0011
313.15	0.8019	1.4588	0.0011
313.15	0.9005	1.4679	0.0011
313.15	1	1.4773	0.0011

System: octane + exo-tetrahydrodicyclopentadiene; phases: Liquid
Fixed: Pressure, kPa = 100
Fixed: Frequency, MHz = 0.05
Property: Relative permittivity at various frequencies (Liquid); method: Coaxial cylinder capacitor
Temperature, K	Mole fraction of exo-tetrahydrodicyclopentadiene	Relative permittivity at various frequencies	uncertainty
293.15	0	1.96	0.02
293.15	0.1979	1.98	0.02
293.15	0.3957	2.04	0.02
293.15	0.5984	2.09	0.02
293.15	0.8035	2.15	0.02
293.15	1	2.19	0.02
303.15	0	1.95	0.02
303.15	0.1979	1.97	0.02
303.15	0.3957	2.03	0.02
303.15	0.5984	2.08	0.02
303.15	0.8035	2.13	0.02
303.15	1	2.18	0.02
313.15	0	1.94	0.02
313.15	0.1979	1.96	0.02
313.15	0.3957	2.01	0.02
313.15	0.5984	2.07	0.02
313.15	0.8035	2.11	0.02
313.15	1	2.17	0.02

System: 3-methylheptane + exo-tetrahydrodicyclopentadiene; phases: Liquid
Fixed: Pressure, kPa = 100
Property: Mass density, kg/m3 (Liquid); method: Vibrating tube method
Temperature, K	Mole fraction of exo-tetrahydrodicyclopentadiene	Mass density, kg/m3	uncertainty
293.15	0	706.37	0.22
293.15	0.0994	727.98	0.22
293.15	0.2004	750.25	0.22
293.15	0.2996	772.38	0.22
293.15	0.4001	795.07	0.22
293.15	0.5008	818.02	0.22
293.15	0.5973	840.34	0.22
293.15	0.6998	864.25	0.23
293.15	0.8016	888.3	0.23
293.15	0.8999	911.7	0.23
293.15	1	935.66	0.23
298.15	0	702.3	0.22
298.15	0.0994	723.92	0.22
298.15	0.2004	746.18	0.22
298.15	0.2996	768.34	0.22
298.15	0.4001	791.05	0.22
298.15	0.5008	814.01	0.22
298.15	0.5973	836.35	0.22
298.15	0.6998	860.28	0.23
298.15	0.8016	884.36	0.23
298.15	0.8999	907.78	0.23
298.15	1	931.79	0.23
303.15	0	698.2	0.22
303.15	0.0994	719.83	0.22
303.15	0.2004	742.1	0.22
303.15	0.2996	764.27	0.22
303.15	0.4001	787	0.22
303.15	0.5008	809.98	0.22
303.15	0.5973	832.33	0.22
303.15	0.6998	856.29	0.23
303.15	0.8016	880.39	0.23
303.15	0.8999	903.84	0.23
303.15	1	927.88	0.23
308.15	0	694.08	0.22
308.15	0.0994	715.72	0.22
308.15	0.2004	738.01	0.22
308.15	0.2996	760.19	0.22
308.15	0.4001	782.94	0.22
308.15	0.5008	805.94	0.22
308.15	0.5973	828.31	0.22
308.15	0.6998	852.28	0.23
308.15	0.8016	876.41	0.23
308.15	0.8999	899.9	0.23
308.15	1	923.97	0.23
313.15	0	689.93	0.22
313.15	0.0994	711.59	0.22
313.15	0.2004	733.9	0.22
313.15	0.2996	756.09	0.22
313.15	0.4001	778.86	0.22
313.15	0.5008	801.88	0.22
313.15	0.5973	824.27	0.22
313.15	0.6998	848.27	0.23
313.15	0.8016	872.43	0.23
313.15	0.8999	895.94	0.23
313.15	1	920.05	0.23

System: 3-methylheptane + exo-tetrahydrodicyclopentadiene; phases: Liquid
Fixed: Pressure, kPa = 100
Property: Viscosity, Pa*s (Liquid); method: Falling or rolling sphere viscometry
Temperature, K	Mole fraction of exo-tetrahydrodicyclopentadiene	Viscosity, Pa*s	uncertainty
293.15	0	0.000512	1.1e-05
293.15	0.0994	0.000577	1.3e-05
293.15	0.2004	0.000657	1.4e-05
293.15	0.2996	0.000755	1.6e-05
293.15	0.4001	0.000882	1.9e-05
293.15	0.5008	0.001044	2.3e-05
293.15	0.5973	0.001249	2.7e-05
293.15	0.6998	0.001521	3.3e-05
293.15	0.8016	0.001882	4.1e-05
293.15	0.8999	0.002336	5.1e-05
293.15	1	0.002974	6.5e-05
298.15	0	0.000485	1.1e-05
298.15	0.0994	0.000547	1.2e-05
298.15	0.2004	0.00062	1.3e-05
298.15	0.2996	0.000708	1.5e-05
298.15	0.4001	0.000824	1.8e-05
298.15	0.5008	0.000971	2.1e-05
298.15	0.5973	0.001154	2.5e-05
298.15	0.6998	0.001399	3.1e-05
298.15	0.8016	0.001722	3.8e-05
298.15	0.8999	0.002125	4.6e-05
298.15	1	0.002694	5.9e-05
303.15	0	0.000462	1e-05
303.15	0.0994	0.000519	1.1e-05
303.15	0.2004	0.000589	1.3e-05
303.15	0.2996	0.000667	1.4e-05
303.15	0.4001	0.000772	1.7e-05
303.15	0.5008	0.000905	2e-05
303.15	0.5973	0.001065	2.3e-05
303.15	0.6998	0.001294	2.8e-05
303.15	0.8016	0.001585	3.5e-05
303.15	0.8999	0.001945	4.3e-05
303.15	1	0.002454	5.4e-05
308.15	0	0.00044	1e-05
308.15	0.0994	0.000495	1.1e-05
308.15	0.2004	0.000557	1.2e-05
308.15	0.2996	0.00063	1.4e-05
308.15	0.4001	0.000726	1.6e-05
308.15	0.5008	0.000848	1.8e-05
308.15	0.5973	0.001	2.2e-05
308.15	0.6998	0.001201	2.6e-05
308.15	0.8016	0.001457	3.2e-05
308.15	0.8999	0.001788	3.9e-05
308.15	1	0.002243	4.9e-05
313.15	0	0.000422	9e-06
313.15	0.0994	0.000472	1e-05
313.15	0.2004	0.00053	1.2e-05
313.15	0.2996	0.000597	1.3e-05
313.15	0.4001	0.000685	1.5e-05
313.15	0.5008	0.000796	1.7e-05
313.15	0.5973	0.000935	2e-05
313.15	0.6998	0.001118	2.4e-05
313.15	0.8016	0.001357	3e-05
313.15	0.8999	0.00165	3.6e-05
313.15	1	0.002059	4.5e-05

System: 3-methylheptane + exo-tetrahydrodicyclopentadiene; phases: Liquid
Fixed: Pressure, kPa = 100
Property: Refractive index (Na D-line) (Liquid); method: Standard Abbe refractometry
Temperature, K	Mole fraction of exo-tetrahydrodicyclopentadiene	Refractive index (Na D-line)	uncertainty
293.15	0	1.3976	0.0011
293.15	0.0994	1.4064	0.0011
293.15	0.2004	1.4152	0.0011
293.15	0.2996	1.424	0.0011
293.15	0.4001	1.433	0.0011
293.15	0.5008	1.4419	0.0011
293.15	0.5973	1.4506	0.0011
293.15	0.6998	1.4599	0.0011
293.15	0.8016	1.4692	0.0011
293.15	0.8999	1.478	0.0011
293.15	1	1.4871	0.0011
298.15	0	1.3957	0.0011
298.15	0.0994	1.4044	0.0011
298.15	0.2004	1.4133	0.0011
298.15	0.2996	1.4221	0.0011
298.15	0.4001	1.431	0.0011
298.15	0.5008	1.4401	0.0011
298.15	0.5973	1.4488	0.0011
298.15	0.6998	1.4581	0.0011
298.15	0.8016	1.4673	0.0011
298.15	0.8999	1.4762	0.0011
298.15	1	1.4853	0.0011
303.15	0	1.3934	0.0011
303.15	0.0994	1.4015	0.0011
303.15	0.2004	1.4106	0.0011
303.15	0.2996	1.4195	0.0011
303.15	0.4001	1.4285	0.0011
303.15	0.5008	1.4376	0.0011
303.15	0.5973	1.4463	0.0011
303.15	0.6998	1.4553	0.0011
303.15	0.8016	1.4647	0.0011
303.15	0.8999	1.4738	0.0011
303.15	1	1.4833	0.0011
308.15	0	1.391	0.0011
308.15	0.0994	1.3998	0.0011
308.15	0.2004	1.4087	0.0011
308.15	0.2996	1.4172	0.0011
308.15	0.4001	1.426	0.0011
308.15	0.5008	1.435	0.0011
308.15	0.5973	1.4438	0.0011
308.15	0.6998	1.4531	0.0011
308.15	0.8016	1.4623	0.0011
308.15	0.8999	1.4712	0.0011
308.15	1	1.4802	0.0011
313.15	0	1.3892	0.0011
313.15	0.0994	1.3979	0.0011
313.15	0.2004	1.4064	0.0011
313.15	0.2996	1.4151	0.0011
313.15	0.4001	1.4239	0.0011
313.15	0.5008	1.4328	0.0011
313.15	0.5973	1.4414	0.0011
313.15	0.6998	1.4505	0.0011
313.15	0.8016	1.4596	0.0011
313.15	0.8999	1.4684	0.0011
313.15	1	1.4773	0.0011

System: 3-methylheptane + exo-tetrahydrodicyclopentadiene; phases: Liquid
Fixed: Pressure, kPa = 100
Fixed: Frequency, MHz = 0.05
Property: Relative permittivity at various frequencies (Liquid); method: Coaxial cylinder capacitor
Temperature, K	Mole fraction of exo-tetrahydrodicyclopentadiene	Relative permittivity at various frequencies	uncertainty
293.15	0	1.95	0.02
293.15	0.202	1.97	0.02
293.15	0.4004	2.05	0.02
293.15	0.6025	2.09	0.02
293.15	0.8028	2.16	0.02
293.15	1	2.19	0.02
303.15	0	1.94	0.02
303.15	0.202	1.96	0.02
303.15	0.4004	2.03	0.02
303.15	0.6025	2.07	0.02
303.15	0.8028	2.14	0.02
303.15	1	2.18	0.02
313.15	0	1.92	0.02
313.15	0.202	1.94	0.02
313.15	0.4004	2.01	0.02
313.15	0.6025	2.05	0.02
313.15	0.8028	2.11	0.02
313.15	1	2.17	0.02

System: 2,4-dimethylhexane + exo-tetrahydrodicyclopentadiene; phases: Liquid
Fixed: Pressure, kPa = 100
Property: Mass density, kg/m3 (Liquid); method: Vibrating tube method
Temperature, K	Mole fraction of exo-tetrahydrodicyclopentadiene	Mass density, kg/m3	uncertainty
293.15	0	700.57	0.21
293.15	0.1017	723.35	0.21
293.15	0.2008	745.85	0.21
293.15	0.3005	768.89	0.21
293.15	0.4002	792.17	0.21
293.15	0.5006	815.78	0.21
293.15	0.6001	839.18	0.22
293.15	0.7001	862.85	0.22
293.15	0.8012	887.35	0.22
293.15	0.8999	911.32	0.23
293.15	1	935.66	0.23
298.15	0	696.43	0.21
298.15	0.1017	719.24	0.21
298.15	0.2008	741.75	0.21
298.15	0.3005	764.81	0.21
298.15	0.4002	788.11	0.21
298.15	0.5006	811.8	0.21
298.15	0.6001	835.17	0.22
298.15	0.7001	858.86	0.22
298.15	0.8012	883.39	0.22
298.15	0.8999	907.4	0.23
298.15	1	931.79	0.23
303.15	0	692.26	0.21
303.15	0.1017	715.09	0.21
303.15	0.2008	737.62	0.21
303.15	0.3005	760.7	0.21
303.15	0.4002	784.02	0.21
303.15	0.5006	807.73	0.21
303.15	0.6001	831.13	0.22
303.15	0.7001	854.86	0.22
303.15	0.8012	879.42	0.22
303.15	0.8999	903.45	0.23
303.15	1	927.88	0.23
308.15	0	688.06	0.21
308.15	0.1017	710.92	0.21
308.15	0.2008	733.48	0.21
308.15	0.3005	756.58	0.21
308.15	0.4002	779.93	0.21
308.15	0.5006	803.67	0.21
308.15	0.6001	827.09	0.22
308.15	0.7001	850.84	0.22
308.15	0.8012	875.43	0.22
308.15	0.8999	899.5	0.23
308.15	1	923.97	0.23
313.15	0	683.85	0.21
313.15	0.1017	706.73	0.21
313.15	0.2008	729.31	0.21
313.15	0.3005	752.44	0.21
313.15	0.4002	775.81	0.21
313.15	0.5006	799.53	0.21
313.15	0.6001	823.03	0.22
313.15	0.7001	846.81	0.22
313.15	0.8012	871.44	0.23
313.15	0.8999	895.54	0.23
313.15	1	920.05	0.23

System: 2,4-dimethylhexane + exo-tetrahydrodicyclopentadiene; phases: Liquid
Fixed: Pressure, kPa = 100
Property: Viscosity, Pa*s (Liquid); method: Falling or rolling sphere viscometry
Temperature, K	Mole fraction of exo-tetrahydrodicyclopentadiene	Viscosity, Pa*s	uncertainty
293.15	0	0.000476	1e-05
293.15	0.1017	0.000538	1.2e-05
293.15	0.2008	0.000616	1.3e-05
293.15	0.3005	0.000717	1.6e-05
293.15	0.4002	0.000847	1.8e-05
293.15	0.5006	0.001007	2.2e-05
293.15	0.6001	0.001216	2.6e-05
293.15	0.7001	0.001478	3.2e-05
293.15	0.8012	0.00184	4e-05
293.15	0.8999	0.002322	5.1e-05
293.15	1	0.002974	6.5e-05
298.15	0	0.000455	1e-05
298.15	0.1017	0.000511	1.1e-05
298.15	0.2008	0.000582	1.3e-05
298.15	0.3005	0.000674	1.5e-05
298.15	0.4002	0.000792	1.7e-05
298.15	0.5006	0.000937	2e-05
298.15	0.6001	0.001126	2.4e-05
298.15	0.7001	0.001361	3e-05
298.15	0.8012	0.001685	3.7e-05
298.15	0.8999	0.002114	4.6e-05
298.15	1	0.002694	5.9e-05
303.15	0	0.000434	9e-06
303.15	0.1017	0.000487	1.1e-05
303.15	0.2008	0.000552	1.2e-05
303.15	0.3005	0.000636	1.4e-05
303.15	0.4002	0.000744	1.6e-05
303.15	0.5006	0.000876	1.9e-05
303.15	0.6001	0.001048	2.3e-05
303.15	0.7001	0.001261	2.7e-05
303.15	0.8012	0.001552	3.4e-05
303.15	0.8999	0.001937	4.2e-05
303.15	1	0.002454	5.4e-05
308.15	0	0.000416	9e-06
308.15	0.1017	0.000465	1e-05
308.15	0.2008	0.000524	1.1e-05
308.15	0.3005	0.000602	1.3e-05
308.15	0.4002	0.0007	1.5e-05
308.15	0.5006	0.000822	1.8e-05
308.15	0.6001	0.000979	2.1e-05
308.15	0.7001	0.001171	2.5e-05
308.15	0.8012	0.001435	3.1e-05
308.15	0.8999	0.001781	3.9e-05
308.15	1	0.002243	4.9e-05
313.15	0	0.0004	9e-06
313.15	0.1017	0.000445	1e-05
313.15	0.2008	0.0005	1.1e-05
313.15	0.3005	0.000571	1.2e-05
313.15	0.4002	0.000662	1.4e-05
313.15	0.5006	0.000772	1.7e-05
313.15	0.6001	0.000916	2e-05
313.15	0.7001	0.001092	2.4e-05
313.15	0.8012	0.001331	2.9e-05
313.15	0.8999	0.001645	3.6e-05
313.15	1	0.002059	4.5e-05

System: 2,4-dimethylhexane + exo-tetrahydrodicyclopentadiene; phases: Liquid
Fixed: Pressure, kPa = 100
Property: Refractive index (Na D-line) (Liquid); method: Standard Abbe refractometry
Temperature, K	Mole fraction of exo-tetrahydrodicyclopentadiene	Refractive index (Na D-line)	uncertainty
293.15	0	1.3947	0.0011
293.15	0.1017	1.4042	0.0011
293.15	0.2008	1.4134	0.0011
293.15	0.3005	1.4228	0.0011
293.15	0.4002	1.432	0.0011
293.15	0.5006	1.4414	0.0011
293.15	0.6001	1.4504	0.0011
293.15	0.7001	1.4596	0.0011
293.15	0.8012	1.4688	0.0011
293.15	0.8999	1.4779	0.0011
293.15	1	1.4871	0.0011
298.15	0	1.3926	0.0011
298.15	0.1017	1.4022	0.0011
298.15	0.2008	1.4114	0.0011
298.15	0.3005	1.4207	0.0011
298.15	0.4002	1.43	0.0011
298.15	0.5006	1.4395	0.0011
298.15	0.6001	1.4486	0.0011
298.15	0.7001	1.4577	0.0011
298.15	0.8012	1.467	0.0011
298.15	0.8999	1.4761	0.0011
298.15	1	1.4853	0.0011
303.15	0	1.3898	0.0011
303.15	0.1017	1.3993	0.0011
303.15	0.2008	1.4087	0.0011
303.15	0.3005	1.4183	0.0011
303.15	0.4002	1.428	0.0011
303.15	0.5006	1.4376	0.0011
303.15	0.6001	1.4467	0.0011
303.15	0.7001	1.4554	0.0011
303.15	0.8012	1.4648	0.0011
303.15	0.8999	1.474	0.0011
303.15	1	1.4833	0.0011
308.15	0	1.3881	0.0011
308.15	0.1017	1.3976	0.0011
308.15	0.2008	1.4071	0.0011
308.15	0.3005	1.4172	0.0011
308.15	0.4002	1.427	0.0011
308.15	0.5006	1.436	0.0011
308.15	0.6001	1.4449	0.0011
308.15	0.7001	1.4538	0.0011
308.15	0.8012	1.463	0.0011
308.15	0.8999	1.4718	0.0011
308.15	1	1.4802	0.0011
313.15	0	1.3858	0.0011
313.15	0.1017	1.3954	0.0011
313.15	0.2008	1.4048	0.0011
313.15	0.3005	1.415	0.0011
313.15	0.4002	1.4245	0.0011
313.15	0.5006	1.4337	0.0011
313.15	0.6001	1.4426	0.0011
313.15	0.7001	1.4514	0.0011
313.15	0.8012	1.4603	0.0011
313.15	0.8999	1.4688	0.0011
313.15	1	1.4773	0.0011

System: 2,4-dimethylhexane + exo-tetrahydrodicyclopentadiene; phases: Liquid
Fixed: Pressure, kPa = 100
Fixed: Frequency, MHz = 0.05
Property: Relative permittivity at various frequencies (Liquid); method: Coaxial cylinder capacitor
Temperature, K	Mole fraction of exo-tetrahydrodicyclopentadiene	Relative permittivity at various frequencies	uncertainty
293.15	0	1.96	0.02
293.15	0.2009	2	0.02
293.15	0.4026	2.04	0.02
293.15	0.6005	2.1	0.02
293.15	0.7995	2.15	0.02
293.15	1	2.19	0.02
303.15	0	1.95	0.02
303.15	0.2009	1.99	0.02
303.15	0.4026	2.03	0.02
303.15	0.6005	2.09	0.02
303.15	0.7995	2.13	0.02
303.15	1	2.18	0.02
313.15	0	1.93	0.02
313.15	0.2009	1.97	0.02
313.15	0.4026	2.01	0.02
313.15	0.6005	2.08	0.02
313.15	0.7995	2.12	0.02
313.15	1	2.17	0.02

System: 2,2,4-trimethylpentane + exo-tetrahydrodicyclopentadiene; phases: Liquid
Fixed: Pressure, kPa = 100
Property: Mass density, kg/m3 (Liquid); method: Vibrating tube method
Temperature, K	Mole fraction of exo-tetrahydrodicyclopentadiene	Mass density, kg/m3	uncertainty
293.15	0	691.89	0.17
293.15	0.1	715.24	0.18
293.15	0.2002	738.91	0.17
293.15	0.3008	762.97	0.17
293.15	0.4003	786.96	0.18
293.15	0.5008	811.2	0.18
293.15	0.5997	835.66	0.18
293.15	0.6982	860.05	0.19
293.15	0.8002	885.41	0.2
293.15	0.9012	910.81	0.22
293.15	1	935.66	0.23
298.15	0	687.75	0.18
298.15	0.1	711.17	0.18
298.15	0.2002	734.86	0.18
298.15	0.3008	758.93	0.18
298.15	0.4003	782.92	0.18
298.15	0.5008	807.2	0.18
298.15	0.5997	831.68	0.18
298.15	0.6982	856.06	0.19
298.15	0.8002	881.47	0.2
298.15	0.9012	906.89	0.22
298.15	1	931.79	0.23
303.15	0	683.61	0.18
303.15	0.1	707.05	0.18
303.15	0.2002	730.76	0.18
303.15	0.3008	754.86	0.18
303.15	0.4003	778.87	0.18
303.15	0.5008	803.17	0.18
303.15	0.5997	827.67	0.18
303.15	0.6982	852.08	0.19
303.15	0.8002	877.51	0.2
303.15	0.9012	902.96	0.22
303.15	1	927.88	0.23
308.15	0	679.44	0.18
308.15	0.1	702.92	0.18
308.15	0.2002	726.65	0.18
308.15	0.3008	750.77	0.18
308.15	0.4003	774.8	0.18
308.15	0.5008	799.13	0.18
308.15	0.5997	823.65	0.19
308.15	0.6982	848.09	0.19
308.15	0.8002	873.54	0.2
308.15	0.9012	899.02	0.22
308.15	1	923.97	0.23
313.15	0	675.25	0.18
313.15	0.1	698.75	0.18
313.15	0.2002	722.52	0.18
313.15	0.3008	746.67	0.18
313.15	0.4003	770.72	0.18
313.15	0.5008	795.07	0.18
313.15	0.5997	819.62	0.19
313.15	0.6982	844.08	0.19
313.15	0.8002	869.56	0.2
313.15	0.9012	895.07	0.22
313.15	1	920.05	0.23

System: 2,2,4-trimethylpentane + exo-tetrahydrodicyclopentadiene; phases: Liquid
Fixed: Pressure, kPa = 100
Property: Viscosity, Pa*s (Liquid); method: Falling or rolling sphere viscometry
Temperature, K	Mole fraction of exo-tetrahydrodicyclopentadiene	Viscosity, Pa*s	uncertainty
293.15	0	0.000518	1.1e-05
293.15	0.1	0.000593	1.3e-05
293.15	0.2002	0.000682	1.5e-05
293.15	0.3008	0.000795	1.7e-05
293.15	0.4003	0.000929	2e-05
293.15	0.5008	0.001102	2.4e-05
293.15	0.5997	0.001316	2.8e-05
293.15	0.6982	0.001582	3.4e-05
293.15	0.8002	0.001959	4.3e-05
293.15	0.9012	0.002405	5.2e-05
293.15	1	0.002974	6.5e-05
298.15	0	0.000492	1e-05
298.15	0.1	0.000563	1.2e-05
298.15	0.2002	0.000643	1.4e-05
298.15	0.3008	0.000745	1.6e-05
298.15	0.4003	0.000868	1.9e-05
298.15	0.5008	0.001026	2.2e-05
298.15	0.5997	0.001219	2.6e-05
298.15	0.6982	0.001457	3.2e-05
298.15	0.8002	0.001799	3.9e-05
298.15	0.9012	0.002194	4.8e-05
298.15	1	0.002694	5.9e-05
303.15	0	0.00047	1e-05
303.15	0.1	0.000532	1.1e-05
303.15	0.2002	0.000608	1.3e-05
303.15	0.3008	0.000701	1.5e-05
303.15	0.4003	0.000813	1.7e-05
303.15	0.5008	0.000958	2.1e-05
303.15	0.5997	0.001132	2.4e-05
303.15	0.6982	0.001347	2.9e-05
303.15	0.8002	0.001657	3.6e-05
303.15	0.9012	0.002008	4.4e-05
303.15	1	0.002454	5.4e-05
308.15	0	0.00045	1e-05
308.15	0.1	0.000506	1.1e-05
308.15	0.2002	0.000574	1.2e-05
308.15	0.3008	0.000661	1.4e-05
308.15	0.4003	0.000764	1.6e-05
308.15	0.5008	0.000896	1.9e-05
308.15	0.5997	0.001056	2.3e-05
308.15	0.6982	0.001251	2.7e-05
308.15	0.8002	0.001534	3.3e-05
308.15	0.9012	0.001844	4e-05
308.15	1	0.002243	4.9e-05
313.15	0	0.000431	9e-06
313.15	0.1	0.000483	1e-05
313.15	0.2002	0.000546	1.2e-05
313.15	0.3008	0.000626	1.3e-05
313.15	0.4003	0.000719	1.5e-05
313.15	0.5008	0.000842	1.8e-05
313.15	0.5997	0.000987	2.1e-05
313.15	0.6982	0.001164	2.5e-05
313.15	0.8002	0.00142	3.1e-05
313.15	0.9012	0.001701	3.7e-05
313.15	1	0.002059	4.5e-05

System: 2,2,4-trimethylpentane + exo-tetrahydrodicyclopentadiene; phases: Liquid
Fixed: Pressure, kPa = 100
Property: Refractive index (Na D-line) (Liquid); method: Standard Abbe refractometry
Temperature, K	Mole fraction of exo-tetrahydrodicyclopentadiene	Refractive index (Na D-line)	uncertainty
293.15	0	1.3906	0.001
293.15	0.1	1.4004	0.001
293.15	0.2002	1.4104	0.001
293.15	0.3008	1.4203	0.001
293.15	0.4003	1.43	0.001
293.15	0.5008	1.4398	0.001
293.15	0.5997	1.4492	0.001
293.15	0.6982	1.4586	0.0011
293.15	0.8002	1.4683	0.0011
293.15	0.9012	1.4778	0.0011
293.15	1	1.4871	0.0011
298.15	0	1.3888	0.001
298.15	0.1	1.3987	0.001
298.15	0.2002	1.4085	0.001
298.15	0.3008	1.4184	0.001
298.15	0.4003	1.4283	0.001
298.15	0.5008	1.4381	0.001
298.15	0.5997	1.4476	0.001
298.15	0.6982	1.457	0.0011
298.15	0.8002	1.4666	0.0011
298.15	0.9012	1.4761	0.0011
298.15	1	1.4853	0.0011
303.15	0	1.3862	0.001
303.15	0.1	1.396	0.001
303.15	0.2002	1.4058	0.001
303.15	0.3008	1.4159	0.001
303.15	0.4003	1.4261	0.001
303.15	0.5008	1.436	0.001
303.15	0.5997	1.4453	0.001
303.15	0.6982	1.4544	0.0011
303.15	0.8002	1.4642	0.0011
303.15	0.9012	1.4738	0.0011
303.15	1	1.4833	0.0011
308.15	0	1.3838	0.001
308.15	0.1	1.3946	0.001
308.15	0.2002	1.4053	0.001
308.15	0.3008	1.4153	0.001
308.15	0.4003	1.4256	0.001
308.15	0.5008	1.4356	0.001
308.15	0.5997	1.4451	0.001
308.15	0.6982	1.4537	0.0011
308.15	0.8002	1.4632	0.0011
308.15	0.9012	1.4719	0.0011
308.15	1	1.4802	0.0011
313.15	0	1.3812	0.001
313.15	0.1	1.3918	0.001
313.15	0.2002	1.4024	0.001
313.15	0.3008	1.4127	0.001
313.15	0.4003	1.4232	0.001
313.15	0.5008	1.4326	0.001
313.15	0.5997	1.4417	0.001
313.15	0.6982	1.4508	0.0011
313.15	0.8002	1.4602	0.0011
313.15	0.9012	1.4694	0.0011
313.15	1	1.4773	0.0011

System: 2,2,4-trimethylpentane + exo-tetrahydrodicyclopentadiene; phases: Liquid
Fixed: Pressure, kPa = 100
Fixed: Frequency, MHz = 0.05
Property: Relative permittivity at various frequencies (Liquid); method: Coaxial cylinder capacitor
Temperature, K	Mole fraction of exo-tetrahydrodicyclopentadiene	Relative permittivity at various frequencies	uncertainty
293.15	0	1.94	0.02
293.15	0.2	2	0.02
293.15	0.4008	2.05	0.02
293.15	0.6052	2.08	0.02
293.15	0.8031	2.15	0.02
293.15	1	2.19	0.02
303.15	0	1.93	0.02
303.15	0.2	1.99	0.02
303.15	0.4008	2.04	0.02
303.15	0.6052	2.07	0.02
303.15	0.8031	2.13	0.02
303.15	1	2.18	0.02
313.15	0	1.92	0.02
313.15	0.2	1.97	0.02
313.15	0.4008	2.03	0.02
313.15	0.6052	2.05	0.02
313.15	0.8031	2.1	0.02
313.15	1	2.17	0.02
