Measured thermophysical data. Measuring solubility of carbon dioxide in aqueous blends of N-methyldiethanolamine and 2-((2-aminoethyl)amino)ethanol at low CO2 loadings and modelling by electrolyte SAFT-HR EoS
Source: J. Chem. Thermodyn., 2015, 10.1016/j.jct.2014.11.006
Compound 1: carbon dioxide, CO2, InChI=1S/CO2/c2-1-3, purity 99.9%
Compound 2: N-methyldiethanolamine, C5H13NO2, InChI=1S/C5H13NO2/c1-6(2-4-7)3-5-8/h7-8H,2-5H2,1H3, purity 99%
Compound 3: water, H2O, InChI=1S/H2O/h1H2
Compound 4: N-(2-aminoethyl)ethanolamine, C4H12N2O, InChI=1S/C4H12N2O/c5-1-2-6-3-4-7/h6-7H,1-5H2, purity 0.98%

System: N-methyldiethanolamine + carbon dioxide + water; phases: Liquid, Gas
Property: Molality, mol/kg of carbon dioxide (Liquid); method: volumetric
Pressure, kPa of carbon dioxide	Temperature, K	Molality, mol/kg of N-methyldiethanolamine	Molality, mol/kg of carbon dioxide	uncertainty
1.2	313.15	2.051	0.299	0.02
4.1	313.15	2.051	0.585	0.026
7.3	313.15	2.051	0.781	0.024
11.3	313.15	2.051	0.982	0.023
5.5	313.15	5.37	0.897	0.029
7.5	313.15	5.37	1.085	0.031
9.5	313.15	5.37	1.316	0.023
11.5	313.15	5.37	1.493	0.022
13.5	313.15	5.37	1.686	0.023
15.5	313.15	5.37	1.885	0.021
17.5	313.15	5.37	2.03	0.019
10	328.15	5.37	0.854	0.023
15	328.15	5.37	1.02	0.013
20	328.15	5.37	1.198	0.014
25	328.15	5.37	1.38	0.013
30	328.15	5.37	1.53	0.012
35	328.15	5.37	1.659	0.013
30	343.15	5.37	0.838	0.01
45	343.15	5.37	1.047	0.023
60	343.15	5.37	1.3	0.011
75	343.15	5.37	1.52	0.012
90	343.15	5.37	1.697	0.023
105	343.15	5.37	1.777	0.012
120	343.15	5.37	1.885	0.012
80	358.15	5.37	1.095	0.011
120	358.15	5.37	1.364	0.011
160	358.15	5.37	1.643	0.012
200	358.15	5.37	1.837	0.012
240	358.15	5.37	2.046	0.012

System: N-methyldiethanolamine + carbon dioxide + water; phases: Liquid, Gas
Fixed: Molality, mol/kg of N-methyldiethanolamine = 2.907
Property: Molality, mol/kg of carbon dioxide (Liquid); method: volumetric
Pressure, kPa	Temperature, K	Molality, mol/kg of carbon dioxide	uncertainty
3.1	298.08	0.047	0.082
4	298.08	0.413	0.117
4.2	298.08	0.48	0.113
4.8	298.08	0.637	0.096
5.2	298.08	0.733	0.087
5.9	298.08	0.869	0.086
6.4	298.08	0.968	0.045
7	298.08	1.047	0.074
8.2	298.08	1.192	0.067
10.9	298.08	1.454	0.067
9	313.17	0.302	0.047
9.6	313.17	0.378	0.048
10.4	313.17	0.486	0.04
12.9	313.17	0.733	0.039
13.9	313.17	0.805	0.033
16.6	313.17	0.986	0.018
19.8	313.17	1.154	0.027
41.9	348.17	0.262	0.046
49.5	348.17	0.407	0.04
54.9	348.17	0.494	0.04
60.3	348.17	0.567	0.034
69.6	348.17	0.686	0.034
77.2	348.17	0.768	0.03
85.1	348.17	0.843	0.03
96.8	348.17	0.942	0.024
111.5	348.17	1.108	0.024

System: N-methyldiethanolamine + N-(2-aminoethyl)ethanolamine + water; phases: Liquid, Gas
Property: Vapor or sublimation pressure, kPa (Liquid); method: Closed cell (Static) method
Molality, mol/kg of N-(2-aminoethyl)ethanolamine	Molality, mol/kg of N-methyldiethanolamine	Temperature, K	Vapor or sublimation pressure, kPa	uncertainty
0.597	4.773	313.15	7.2	0.2
0.597	4.773	328.15	14.8	0.3
0.597	4.773	343.15	28.8	0.4
0.597	4.773	358.15	52.8	0.6
0.488	4.882	313.15	7.3	0.2
0.488	4.882	328.15	14.9	0.2
0.488	4.882	343.15	28.9	0.3
0.488	4.882	358.15	53.1	0.5
0.256	5.114	313.15	7.3	0.2
0.256	5.114	328.15	15	0.2
0.256	5.114	343.15	28.9	0.3
0.256	5.114	358.15	53.2	0.4
