Measured thermophysical data. Vapour-liquid equilibrium study of tertiary amines, single and in blend with 3-(methylamino)propylamine, for post-combustion CO2 capture
Source: J. Chem. Thermodyn., 2019, 10.1016/j.jct.2019.06.017
Compound 1: 2-aminoethan-1-ol, C2H7NO, InChI=1S/C2H7NO/c3-1-2-4/h4H,1-3H2, purity 98%
Compound 2: N-methyl-1,3-diaminopropane, C4H12N2, InChI=1S/C4H12N2/c1-6-4-2-3-5/h6H,2-5H2,1H3, purity 97%
Compound 3: 3-dimethylamino-1-propanol, C5H13NO, InChI=1S/C5H13NO/c1-6(2)4-3-5-7/h7H,3-5H2,1-2H3, purity 99%
Compound 4: 1-(2-hydroxyethyl)pyrrolidine, C6H13NO, InChI=1S/C6H13NO/c8-6-5-7-3-1-2-4-7/h8H,1-6H2, purity 97%
Compound 5: 3-diethylamino-1-propanol, C7H17NO, InChI=1S/C7H17NO/c1-3-8(4-2)6-5-7-9/h9H,3-7H2,1-2H3, purity 95%
Compound 6: carbon dioxide, CO2, InChI=1S/CO2/c2-1-3, purity 99.999%
Compound 7: water, H2O, InChI=1S/H2O/h1H2, purity 99.8%

System: 3-dimethylamino-1-propanol; phases: Liquid, Gas
Property: Boiling temperature at pressure P, K (Liquid); method: Ebulliometric method (Recirculating still)
Pressure, kPa	Boiling temperature at pressure P, K	uncertainty
4.8	352.3	7.2
4.8	352.9	7
9.8	368.3	5.9
14.8	378.5	4
14.8	378.5	4
19.8	385.8	2.7
29.8	396.8	2.2
39.8	405	1.7
49.8	411.6	1.4
59.8	417.2	1.2
69.8	421.7	1.1
79.8	426.3	1
89.8	429.9	0.9
99.8	433.7	0.9

System: 1-(2-hydroxyethyl)pyrrolidine; phases: Liquid, Gas
Property: Boiling temperature at pressure P, K (Liquid); method: Ebulliometric method (Recirculating still)
Pressure, kPa	Boiling temperature at pressure P, K	uncertainty
2.8	360.6	13.1
4.8	372.2	8.8
9.8	388.8	4.9
19.8	405.5	3.2
29.8	417	2.3
39.8	426.1	1.8
49.8	432.6	1.4
59.8	438.1	1.2
69.8	442.6	1
79.8	446.9	0.8
89.8	449.8	0.7

System: 3-diethylamino-1-propanol; phases: Liquid, Gas
Property: Boiling temperature at pressure P, K (Liquid); method: Ebulliometric method (Recirculating still)
Pressure, kPa	Boiling temperature at pressure P, K	uncertainty
1.8	353.9	6.5
2.8	360.2	6
19.8	405.3	3.5
22.3	409.2	3.1
24.8	412.1	2
34.8	420.2	1.7
44.8	427.3	1.5
54.8	433.4	1.5
64.8	440.1	1.4
69.8	442.2	1

System: water; phases: Liquid, Gas
Property: Boiling temperature at pressure P, K (Liquid); method: Ebulliometric method (Recirculating still)
Pressure, kPa	Boiling temperature at pressure P, K	uncertainty
9.8	318.3	3.3
19.8	333	2.7
29.8	342.1	1.8
39.8	348.9	1.4
49.8	354.4	1.2
59.8	359.1	1
69.8	363.1	0.9
79.8	366.7	0.7
100.1	372.6	0.7

System: 3-dimethylamino-1-propanol + water; phases: Liquid, Gas
Property: Vapor or sublimation pressure, kPa (Liquid); method: Ebulliometric method (Recirculating still)
Mole fraction of 3-dimethylamino-1-propanol	Temperature, K	Vapor or sublimation pressure, kPa	uncertainty
0.512	353.2	31.3	1.6
0.384	353.1	36.5	1.7
0.26	353.2	41.1	1.7
0.199	353.2	42.8	1.7
0.158	353.1	43.9	1.7
0.107	353.2	45.1	1.7
0.079	353.1	45.7	1.7
0.0526	353.2	46.3	1.7
0.0354	353.2	46.7	1.7
0.0237	353.2	46.9	1.7
0.0166	353.2	47.1	1.7
0.0118	353.1	47.1	1.7
0.377	363.2	55.6	1.7
0.27	363.2	60.8	1.7
0.197	363.1	63.8	1.7
0.123	363.1	66.4	1.8
0.087	363.2	67.6	1.8
0.066	363.2	68.1	1.8
0.0503	363.2	68.7	1.8
0.0397	363.1	68.9	1.8
0.0313	363.1	69.1	1.8
0.474	373.1	72.7	1.8
0.272	373.1	89.4	1.9
0.171	373.2	95.1	1.9
0.117	373.2	97.1	1.9
0.097	373.2	97.9	1.9
0.08	373.2	98.6	1.9
0.067	373.2	99.1	1.9
0.0577	373.2	99.6	1.9
0.0522	373.2	99.8	1.9
0.326	373.2	85.7	1.8
0.269	373.2	89	1.9
0.25	373.1	90.6	1.9
0.221	373.2	92.2	1.9
0.201	373.1	93.4	1.9
0.184	373.2	94.4	1.9
0.165	373.2	95.2	1.9
0.151	373.2	95.9	1.9
0.14	373.2	96.4	1.9
0.129	373.1	96.9	1.9
0.12	373.2	97.2	1.9
0.11	373.2	97.7	1.9
0.097	373.2	98.1	1.9

System: 3-dimethylamino-1-propanol + water; phases: Gas, Liquid
Property: Mole fraction of 3-dimethylamino-1-propanol (Gas); method: Titration method
Mole fraction of 3-dimethylamino-1-propanol	Temperature, K	Mole fraction of 3-dimethylamino-1-propanol	uncertainty
0.512	353.2	0.073	0.002
0.384	353.1	0.0509	0.0018
0.26	353.2	0.0343	0.0011
0.199	353.2	0.0289	0.0009
0.158	353.1	0.0242	0.0009
0.107	353.2	0.0197	0.0007
0.079	353.1	0.0159	0.0005
0.0526	353.2	0.0133	0.0004
0.0354	353.2	0.0106	0.0004
0.0237	353.2	0.0078	0.0002
0.0166	353.2	0.0062	0.0002
0.0118	353.1	0.0045	0.0002
0.377	363.2	0.0524	0.0018
0.27	363.2	0.0388	0.0013
0.197	363.1	0.0302	0.0011
0.123	363.1	0.0238	0.0009
0.087	363.2	0.0192	0.0007
0.066	363.2	0.017	0.0006
0.0503	363.2	0.0147	0.0005
0.0397	363.1	0.0128	0.0004
0.0313	363.1	0.0112	0.0004
0.474	373.1	0.073	0.002
0.272	373.1	0.0424	0.0013
0.171	373.2	0.0311	0.0011
0.117	373.2	0.026	0.0009
0.097	373.2	0.0235	0.0009
0.08	373.2	0.0211	0.0007
0.067	373.2	0.0192	0.0007
0.0577	373.2	0.0182	0.0007
0.0522	373.2	0.017	0.0006
0.326	373.2	0.0483	0.0016
0.269	373.2	0.0427	0.0013
0.25	373.1	0.0403	0.0013
0.221	373.2	0.0363	0.0011
0.201	373.1	0.0335	0.0011
0.184	373.2	0.0321	0.0011
0.165	373.2	0.03	0.0009
0.151	373.2	0.0287	0.0009
0.14	373.2	0.0279	0.0009
0.129	373.1	0.0265	0.0009
0.12	373.2	0.0259	0.0009
0.11	373.2	0.0245	0.0009
0.097	373.2	0.0233	0.0009

System: 3-diethylamino-1-propanol + water; phases: Liquid, Gas
Property: Vapor or sublimation pressure, kPa (Liquid); method: Ebulliometric method (Recirculating still)
Mole fraction of 3-diethylamino-1-propanol	Temperature, K	Vapor or sublimation pressure, kPa	uncertainty
0.407	353.1	43.5	1.7
0.251	353.1	46.4	1.7
0.133	353.2	47.3	1.7
0.076	353.1	47.4	1.7
0.049	353.2	47.6	1.7
0.78	352.8	19.5	1.6
0.72	353.2	26	1.6
0.64	353.2	31	1.6
0.597	353.2	33.3	1.7
0.529	353.2	38.2	1.7
0.517	353.2	40.9	1.7
0.427	353.2	42.5	1.7
0.338	353.1	44.7	1.7
0.295	363.2	68.8	1.8
0.243	363.1	69.6	1.8
0.205	363.2	70	1.8
0.178	363.2	70.2	1.8
0.14	363.1	70.4	1.8
0.108	363.1	70.5	1.8
0.085	363.2	70.6	1.8
0.567	363.2	55.8	1.7
0.479	363.1	60.9	1.8
0.412	363.2	64.3	1.8
0.382	363.2	65.4	1.8
0.358	363.2	66.4	1.8
0.332	363.2	67.1	1.8
0.296	363.2	68	1.8
0.263	363.1	68.7	1.8
0.328	373.2	99.3	2
0.292	373.2	100.3	2
0.72	373.1	51.9	1.7
0.67	373.3	63.3	1.8
0.61	373.1	72.6	1.8
0.547	373.2	79.3	1.9
0.484	373.2	90.3	1.9
0.375	373.2	96.4	1.9
0.295	373.1	99.6	2
0.294	373.2	99.6	2
0.25	373.2	100.7	2
0.229	373.2	101.3	2
0.194	373.2	101.9	2
0.17	373.2	101.9	1.9
0.131	373.1	102	1.9
0.103	373.2	102.2	1.9

System: 3-diethylamino-1-propanol + water; phases: Gas, Liquid
Property: Mole fraction of 3-diethylamino-1-propanol (Gas); method: Titration method
Mole fraction of 3-diethylamino-1-propanol	Temperature, K	Mole fraction of 3-diethylamino-1-propanol	uncertainty
0.407	353.1	0.0197	0.0007
0.251	353.1	0.0169	0.0006
0.133	353.2	0.016	0.0005
0.076	353.1	0.0153	0.0005
0.049	353.2	0.0151	0.0005
0.78	352.8	0.0589	0.002
0.72	353.2	0.0414	0.0013
0.64	353.2	0.0332	0.0011
0.597	353.2	0.0305	0.0011
0.529	353.2	0.0247	0.0009
0.517	353.2	0.0218	0.0007
0.427	353.2	0.0203	0.0007
0.338	353.1	0.0185	0.0007
0.295	363.2	0.0197	0.0007
0.243	363.1	0.0188	0.0007
0.205	363.2	0.0186	0.0007
0.178	363.2	0.0184	0.0007
0.14	363.1	0.018	0.0007
0.108	363.1	0.0177	0.0007
0.085	363.2	0.0177	0.0007
0.567	363.2	0.0281	0.0009
0.479	363.1	0.0239	0.0009
0.412	363.2	0.0224	0.0007
0.382	363.2	0.0215	0.0007
0.358	363.2	0.0208	0.0007
0.332	363.2	0.0204	0.0007
0.296	363.2	0.0196	0.0007
0.263	363.1	0.0192	0.0007
0.328	373.2	0.0226	0.0007
0.292	373.2	0.0219	0.0007
0.72	373.1	0.0513	0.0018
0.67	373.3	0.0417	0.0013
0.61	373.1	0.0368	0.0013
0.547	373.2	0.0323	0.0011
0.484	373.2	0.0266	0.0009
0.375	373.2	0.0238	0.0009
0.295	373.1	0.0223	0.0007
0.294	373.2	0.0223	0.0007
0.25	373.2	0.0216	0.0007
0.229	373.2	0.0211	0.0007
0.194	373.2	0.0209	0.0007
0.17	373.2	0.0206	0.0007
0.131	373.1	0.0206	0.0007
0.103	373.2	0.0204	0.0007

System: 1-(2-hydroxyethyl)pyrrolidine + water; phases: Liquid, Gas
Property: Vapor or sublimation pressure, kPa (Liquid); method: Ebulliometric method (Recirculating still)
Mole fraction of 1-(2-hydroxyethyl)pyrrolidine	Temperature, K	Vapor or sublimation pressure, kPa	uncertainty
0.49	353.1	34.1	1.6
0.425	353.1	36.6	1.7
0.35	353.2	39.9	1.7
0.311	353.2	41	1.7
0.272	353.2	42.1	1.7
0.243	353.2	43.1	1.7
0.209	353.2	43.8	1.7
0.171	353.2	44.6	1.7
0.135	353.2	45.2	1.7
0.111	353.2	45.6	1.7
0.076	353.2	46.1	1.7
0.0615	353.2	46.3	1.7
0.362	363.2	60	1.7
0.299	363.1	62.2	1.7
0.256	363.1	63.8	1.7
0.242	363.2	64.4	1.7
0.223	363.2	65.1	1.8
0.205	363.2	65.6	1.8
0.188	363.2	66	1.8
0.175	363.2	66.3	1.8
0.161	363.2	66.8	1.8
0.147	363.2	67	1.8
0.132	363.1	67.3	1.8
0.111	363.1	67.7	1.8
0.346	373.2	87.9	1.9
0.306	373.2	90.1	1.9
0.283	373.2	91.5	1.9
0.262	373.2	92.9	1.9
0.239	373.2	93.8	1.9
0.221	373.2	94.4	1.9
0.203	373.2	95.3	1.9
0.185	373.2	96.2	1.9
0.167	373.2	96.8	1.9
0.149	373.2	97.4	1.9
0.122	373.2	98	1.9
0.099	373.2	98.6	1.9

System: 1-(2-hydroxyethyl)pyrrolidine + water; phases: Gas, Liquid
Property: Mole fraction of 1-(2-hydroxyethyl)pyrrolidine (Gas); method: Titration method
Mole fraction of 1-(2-hydroxyethyl)pyrrolidine	Temperature, K	Mole fraction of 1-(2-hydroxyethyl)pyrrolidine	uncertainty
0.49	353.1	0.0229	0.0007
0.425	353.1	0.0197	0.0007
0.35	353.2	0.0166	0.0005
0.311	353.2	0.0146	0.0005
0.272	353.2	0.0139	0.0004
0.243	353.2	0.0127	0.0004
0.209	353.2	0.0113	0.0004
0.171	353.2	0.0109	0.0004
0.135	353.2	0.0097	0.0002
0.111	353.2	0.009	0.0002
0.076	353.2	0.0084	0.0002
0.0615	353.2	0.0078	0.0002
0.362	363.2	0.0185	0.0007
0.299	363.1	0.0163	0.0005
0.256	363.1	0.0153	0.0005
0.242	363.2	0.0142	0.0005
0.223	363.2	0.014	0.0004
0.205	363.2	0.0132	0.0004
0.188	363.2	0.0127	0.0004
0.175	363.2	0.013	0.0004
0.161	363.2	0.0121	0.0004
0.147	363.2	0.0119	0.0004
0.132	363.1	0.0117	0.0004
0.111	363.1	0.0108	0.0004
0.346	373.2	0.0212	0.0007
0.306	373.2	0.0196	0.0007
0.283	373.2	0.0184	0.0007
0.262	373.2	0.0177	0.0007
0.239	373.2	0.0168	0.0006
0.221	373.2	0.0164	0.0005
0.203	373.2	0.0155	0.0005
0.185	373.2	0.015	0.0005
0.167	373.2	0.0147	0.0005
0.149	373.2	0.014	0.0004
0.122	373.2	0.0134	0.0004
0.099	373.2	0.0124	0.0004

System: carbon dioxide + 2-aminoethan-1-ol + water; phases: Liquid, Gas
Fixed: Solvent: Mass fraction of 2-aminoethan-1-ol = 0.3
Property: Mass fraction of carbon dioxide (Liquid); method: total inorganic carbon analyzer
Temperature, K	Pressure, kPa of carbon dioxide	Mass fraction of carbon dioxide	uncertainty
313.3	8.6	0.102	0.004
313.3	6.8	0.101	0.004
313.2	2.8	0.097	0.006
313.2	0.863	0.09	0.004
313.2	0.575	0.089	0.003
313.2	0.255	0.084	0.002
313.3	21.3	0.107	0.004
313.4	5.9	0.102	0.004
313.3	2.2	0.097	0.003
313.3	0.654	0.091	0.002
313.3	0.328	0.088	0.002
313.3	13.6	0.106	0.004
313.4	2.6	0.1	0.003
313.4	1.3	0.096	0.007
313.4	0.5	0.09	0.003
313.4	0.267	0.085	0.002
313.2	10.5	0.09956	0.00395
313.2	31.2	0.10737	0.00112
313.2	77.3	0.11472	0.00086
313.2	154.7	0.12158	0.00082
313.1	265.9	0.1278	0.00083
313.1	19.2	0.10664	0.00165
313.2	56.4	0.114	0.00099
313.2	122	0.12089	0.00085
313.1	219.6	0.12722	0.00084
313.2	351.2	0.1329	0.00085
313.2	516.3	0.13805	0.00093
393.1	8.5	0.03815	0.00849
393.1	13.6	0.04548	0.00488
393.1	21.2	0.05262	0.00251
393.1	32.7	0.05959	0.00188
393.1	50.3	0.06636	0.00125
393.1	77.5	0.07308	0.0008
393.1	121.4	0.07925	0.00074
393.1	190.1	0.08505	0.00062
393.1	296	0.09043	0.0006
393.1	5.3	0.030809	0.001401
393.1	10.2	0.040509	0.000916
393.1	18.1	0.049758	0.000663
393.1	32.4	0.058533	0.000469
393.2	49.9	0.065342	0.000455
393.1	72.8	0.070982	0.000526
393.2	93.3	0.074494	0.000482
393.2	132.6	0.079212	0.000503
393.1	189.8	0.083749	0.000533
393.2	225.4	0.08587	0.000544
393.2	271.2	0.088072	0.000558
393.1	308.2	0.089566	0.000567
393.1	334.2	0.090499	0.000573
393.2	351.3	0.091067	0.000576

System: 3-dimethylamino-1-propanol + N-methyl-1,3-diaminopropane + water; phases: Liquid, Gas
Fixed: Mass fraction of N-methyl-1,3-diaminopropane = 0.0903
Fixed: Mass fraction of 3-dimethylamino-1-propanol = 0.317
Property: Vapor or sublimation pressure, kPa (Liquid); method: Closed cell (Static) method
Temperature, K	Vapor or sublimation pressure, kPa	uncertainty
313.3	6.71	0.11
313.3	6.72	0.11
313.4	6.75	0.11
313.4	6.74	0.11
313.4	6.76	0.11
313.4	6.76	0.11
313.4	6.75	0.11
313.4	6.75	0.11
313.4	6.74	0.11
313.4	6.76	0.11
313.4	6.75	0.11
313.4	6.75	0.11
313.4	6.76	0.11
333.1	17.93	0.25
333.2	18.09	0.25
333.4	18.23	0.25
333.5	18.26	0.25
333.4	18.22	0.25
333.5	18.28	0.25
333.4	18.26	0.25
333.3	18.16	0.25
333.4	18.18	0.25
333.4	18.2	0.25
333.3	18.16	0.25
353.4	43.3	1.6
353.3	43.2	0.6
353.6	43.7	0.6
353.7	43.8	0.6
353.5	43.4	0.6
353.4	43.2	1.6
353.6	43.7	0.6
353	42.5	0.6
313.1	9.5	3
373.2	99.3	3.1
393.1	193.6	3.6
353.1	48.3	3

System: 1-(2-hydroxyethyl)pyrrolidine + N-methyl-1,3-diaminopropane + water; phases: Liquid, Gas
Fixed: Mass fraction of N-methyl-1,3-diaminopropane = 0.0876
Property: Vapor or sublimation pressure, kPa (Liquid); method: Closed cell (Static) method
Mass fraction of 1-(2-hydroxyethyl)pyrrolidine	Temperature, K	Vapor or sublimation pressure, kPa	uncertainty
0.343	313.2	6.63	0.11
0.343	313.3	6.67	0.11
0.343	313.4	6.71	0.11
0.343	313.3	6.68	0.11
0.343	313.1	6.59	0.11
0.343	313.4	6.7	0.11
0.343	313.4	6.71	0.11
0.343	313.5	6.74	0.11
0.343	313.2	6.63	0.11
0.343	313.3	6.67	0.11
0.343	313.4	6.71	0.11
0.343	313.4	6.72	0.11
0.343	313.5	6.74	0.11
0.343	313.4	6.72	0.11
0.343	313.5	6.73	0.11
0.343	333.3	18.04	0.25
0.343	333.5	18.15	0.26
0.343	333.5	18.18	0.26
0.343	333.5	18.22	0.26
0.343	333.4	18.11	0.26
0.343	333.4	18.11	0.26
0.343	333.4	18.11	0.26
0.343	333.3	18.06	0.26
0.343	333	17.77	0.25
0.343	333.3	18.01	0.25
0.343	333.3	18.01	0.25
0.343	333.4	18.11	0.26
0.343	333.2	17.95	0.25
0.343	333.3	18.01	0.25
0.343	352.9	42.1	0.6
0.343	353.4	43	0.6
0.343	353.3	42.7	0.6
0.343	353.5	43.1	0.6
0.343	353.2	42.7	0.6
0.343	353.2	42.7	0.6
0.343	353.4	42.9	0.6
0.344	313.2	8.7	3
0.344	373.2	99.4	3.2
0.344	353.2	46.2	3
0.344	393.1	194.2	3.7
0.344	373.1	98.7	3.2
0.344	393.1	192.4	2.1

System: 2-aminoethan-1-ol + water; phases: Liquid, Gas
Fixed: Mass fraction of 2-aminoethan-1-ol = 0.3
Property: Vapor or sublimation pressure, kPa (Liquid); method: Closed cell (Static) method
Temperature, K	Vapor or sublimation pressure, kPa	uncertainty
313.3	6.61	0.44
313.3	6.61	0.44
313.2	6.57	0.44
313.2	6.57	0.44
313.2	6.57	0.44
313.2	6.57	0.44
313.3	6.61	0.44
313.4	6.64	1.11
313.3	6.61	0.44
313.3	6.62	0.44
313.3	6.61	0.44
313.3	6.62	0.44
313.4	6.65	1.1
313.4	6.66	1.1
313.4	6.65	1.1
313.4	6.68	1.08
313.2	8.2	3
393.2	182.3	3.1
313.1	8.3	3.2
393.1	177.9	0.8

System: 3-diethylamino-1-propanol + N-methyl-1,3-diaminopropane + water; phases: Liquid, Gas
Fixed: Mass fraction of N-methyl-1,3-diaminopropane = 0.093
Fixed: Mass fraction of 3-diethylamino-1-propanol = 0.415
Property: Vapor or sublimation pressure, kPa (Liquid); method: Closed cell (Static) method
Temperature, K	Vapor or sublimation pressure, kPa	uncertainty
313.2	6.47	0.1
313.3	6.52	0.1
313.3	6.5	0.1
313.3	6.52	0.1
313.2	6.48	0.1
313.2	6.48	0.1
313.2	6.48	0.1
313.1	9.5	3
373.1	102.7	3.1
353.1	48.7	3
393.1	199.5	3.8
353.2	48.8	3
393.2	199	3.8
373.2	102.1	3.1
