Measured thermophysical data. Molecular interactions of a,x-alkanediols in pyrrolidin-2-one: Thermophysical and spectroscopic measurements
Source: J. Chem. Thermodyn., 2008, 10.1016/j.jct.2007.08.005
Compound 1: 1,2-ethanediol, C2H6O2, InChI=1S/C2H6O2/c3-1-2-4/h3-4H,1-2H2, purity 99.5%
Compound 2: propan-1,3-diol, C3H8O2, InChI=1S/C3H8O2/c4-2-1-3-5/h4-5H,1-3H2, purity 99%
Compound 3: 1,5-pentanediol, C5H12O2, InChI=1S/C5H12O2/c6-4-2-1-3-5-7/h6-7H,1-5H2, purity 96%
Compound 4: 2-pyrrolidinone, C4H7NO, InChI=1S/C4H7NO/c6-4-2-1-3-5-4/h1-3H2,(H,5,6), purity 99%

System: 1,2-ethanediol; phases: Liquid
Property: Mass density, kg/m3 (Liquid); method: Vibrating tube method
Temperature, K	Pressure, kPa	Mass density, kg/m3	uncertainty
308.15	101.325	1102.9	0.18

System: 1,2-ethanediol; phases: Liquid
Property: Viscosity, Pa*s (Liquid); method: CAPTUB:UFactor:4
Temperature, K	Pressure, kPa	Viscosity, Pa*s	uncertainty
308.15	101.325	0.011354	0.000233

System: 1,2-ethanediol; phases: Liquid
Property: Speed of sound, m/s (Liquid); method: Sing-around technique in a fixed-path interferometer
Temperature, K	Pressure, kPa	Speed of sound, m/s	uncertainty
308.15	101.325	1633.36	1.06

System: propan-1,3-diol; phases: Liquid
Property: Mass density, kg/m3 (Liquid); method: Vibrating tube method
Temperature, K	Pressure, kPa	Mass density, kg/m3	uncertainty
308.15	101.325	1042.7	0.34

System: propan-1,3-diol; phases: Liquid
Property: Viscosity, Pa*s (Liquid); method: CAPTUB:UFactor:4
Temperature, K	Pressure, kPa	Viscosity, Pa*s	uncertainty
308.15	101.325	0.026438	0.000591

System: propan-1,3-diol; phases: Liquid
Property: Speed of sound, m/s (Liquid); method: Sing-around technique in a fixed-path interferometer
Temperature, K	Pressure, kPa	Speed of sound, m/s	uncertainty
308.15	101.325	1604.47	1.36

System: 1,5-pentanediol; phases: Liquid
Property: Mass density, kg/m3 (Liquid); method: Vibrating tube method
Temperature, K	Pressure, kPa	Mass density, kg/m3	uncertainty
308.15	101.325	974.3	4.17

System: 1,5-pentanediol; phases: Liquid
Property: Viscosity, Pa*s (Liquid); method: CAPTUB:UFactor:4
Temperature, K	Pressure, kPa	Viscosity, Pa*s	uncertainty
308.15	101.325	0.063997	0.002189

System: 1,5-pentanediol; phases: Liquid
Property: Speed of sound, m/s (Liquid); method: Sing-around technique in a fixed-path interferometer
Temperature, K	Pressure, kPa	Speed of sound, m/s	uncertainty
308.15	101.325	1566.12	4.1

System: 2-pyrrolidinone; phases: Liquid
Property: Mass density, kg/m3 (Liquid); method: Vibrating tube method
Temperature, K	Pressure, kPa	Mass density, kg/m3	uncertainty
308.15	101.325	1097.14	0.4

System: 2-pyrrolidinone; phases: Liquid
Property: Viscosity, Pa*s (Liquid); method: CAPTUB:UFactor:4
Temperature, K	Pressure, kPa	Viscosity, Pa*s	uncertainty
308.15	101.325	0.008922	0.00019

System: 2-pyrrolidinone; phases: Liquid
Property: Speed of sound, m/s (Liquid); method: Sing-around technique in a fixed-path interferometer
Temperature, K	Pressure, kPa	Speed of sound, m/s	uncertainty
308.15	101.325	1599.97	1.36

System: 1,2-ethanediol + 2-pyrrolidinone; phases: Liquid
Fixed: Temperature, K = 308.15
Fixed: Pressure, kPa = 101
Property: Viscosity, Pa*s (Liquid); method: CAPTUB:UFactor:4
Mole fraction of 1,2-ethanediol	Viscosity, Pa*s	uncertainty
0.0351	0.008955	0.000175
0.0613	0.009037	0.000177
0.0816	0.009118	0.000178
0.1155	0.009255	0.00018
0.1641	0.009302	0.00018
0.2134	0.009358	0.000181
0.3111	0.009487	0.000183
0.3866	0.009654	0.000185
0.5068	0.009833	0.000187
0.6039	0.009963	0.000189
0.7046	0.010043	0.00019
0.8015	0.010285	0.000193
0.8495	0.010502	0.000196
0.8974	0.010747	0.0002
0.9233	0.010832	0.000201
0.9458	0.011048	0.000204
0.9731	0.011135	0.000206

System: 1,2-ethanediol + 2-pyrrolidinone; phases: Liquid
Fixed: Temperature, K = 308.15
Fixed: Pressure, kPa = 101
Property: Speed of sound, m/s (Liquid); method: Sing-around technique in a fixed-path interferometer
Mole fraction of 1,2-ethanediol	Speed of sound, m/s	uncertainty
0.0351	1600.61	1.35
0.0613	1601.09	1.34
0.0816	1601.41	1.33
0.1155	1601.9	1.32
0.1641	1602.38	1.3
0.2134	1602.86	1.28
0.3111	1604.47	1.25
0.3866	1605.76	1.23
0.5068	1607.7	1.19
0.6039	1609.97	1.16
0.7046	1613.55	1.13
0.8015	1617.8	1.1
0.8495	1620.27	1.09
0.8974	1624.06	1.08
0.9233	1626.04	1.07
0.9458	1627.7	1.07
0.9731	1631.02	1.06

System: 1,2-ethanediol + 2-pyrrolidinone; phases: Liquid
Fixed: Temperature, K = 308.15
Fixed: Pressure, kPa = 101
Property: Excess molar volume, m3/mol (Liquid); method: Direct dilatometry
Mole fraction of 1,2-ethanediol	Excess molar volume, m3/mol	uncertainty
0.0118	4e-09	5e-09
0.0271	1.1e-08	5e-09
0.0551	2.1e-08	5e-09
0.0711	2.4e-08	5e-09
0.0891	3.3e-08	5e-09
0.1123	3.6e-08	5e-09
0.1356	4.4e-08	5e-09
0.1467	5e-08	5e-09
0.1671	5.6e-08	5e-09
0.1927	6e-08	5e-09
0.2287	6.9e-08	5e-09
0.2682	8.3e-08	5e-09
0.3038	9.4e-08	5e-09
0.3336	1.01e-07	5e-09
0.4018	1.12e-07	5e-09
0.4305	1.16e-07	5e-09
0.4785	1.21e-07	5e-09
0.4965	1.22e-07	5e-09
0.5172	1.22e-07	5e-09
0.543	1.23e-07	5e-09
0.5614	1.22e-07	5e-09
0.607	1.2e-07	5e-09
0.623	1.19e-07	5e-09
0.6414	1.17e-07	5e-09
0.6694	1.15e-07	5e-09
0.6896	1.11e-07	5e-09
0.7154	1.08e-07	5e-09
0.7437	1.02e-07	5e-09
0.7579	1e-07	5e-09
0.7775	9.6e-08	5e-09
0.8278	8.7e-08	5e-09
0.8424	8.4e-08	5e-09
0.8713	7.5e-08	5e-09
0.8846	7e-08	5e-09
0.8963	6.6e-08	5e-09
0.9107	5.9e-08	5e-09
0.9249	5.2e-08	5e-09
0.9349	4.4e-08	5e-09
0.9544	3.6e-08	5e-09
0.961	2.7e-08	5e-09
0.9747	1.8e-08	5e-09
0.9869	1.2e-08	5e-09
0.9976	4e-09	5e-09

System: propan-1,3-diol + 2-pyrrolidinone; phases: Liquid
Fixed: Temperature, K = 308.15
Fixed: Pressure, kPa = 101
Property: Viscosity, Pa*s (Liquid); method: CAPTUB:UFactor:4
Mole fraction of propan-1,3-diol	Viscosity, Pa*s	uncertainty
0.0365	0.00937	0.000182
0.059	0.009712	0.000188
0.0794	0.009969	0.000192
0.1005	0.010285	0.000197
0.1452	0.010903	0.000207
0.1944	0.011582	0.000219
0.3005	0.013294	0.000246
0.3994	0.015038	0.000275
0.4902	0.016762	0.000303
0.5828	0.018382	0.00033
0.6833	0.020231	0.00036
0.7889	0.022445	0.000396
0.8265	0.023236	0.000409
0.8909	0.024435	0.000429
0.9186	0.024978	0.000438
0.9422	0.025523	0.000446
0.9712	0.026021	0.000455

System: propan-1,3-diol + 2-pyrrolidinone; phases: Liquid
Fixed: Temperature, K = 308.15
Fixed: Pressure, kPa = 101
Property: Speed of sound, m/s (Liquid); method: Sing-around technique in a fixed-path interferometer
Mole fraction of propan-1,3-diol	Speed of sound, m/s	uncertainty
0.0365	1600.93	1.36
0.059	1601.41	1.36
0.0794	1602.06	1.36
0.1005	1602.7	1.36
0.1451	1603.51	1.36
0.1944	1604.47	1.36
0.3004	1606.25	1.36
0.3994	1607.38	1.36
0.4902	1608.19	1.36
0.5828	1608.68	1.36
0.6833	1608.84	1.36
0.7889	1608.35	1.36
0.8265	1607.7	1.36
0.8909	1606.73	1.36
0.9186	1606.41	1.36
0.9422	1605.76	1.36
0.9712	1604.96	1.36

System: propan-1,3-diol + 2-pyrrolidinone; phases: Liquid
Fixed: Temperature, K = 308.15
Fixed: Pressure, kPa = 101
Property: Excess molar volume, m3/mol (Liquid); method: Direct dilatometry
Mole fraction of propan-1,3-diol	Excess molar volume, m3/mol	uncertainty
0.0149	7e-09	5e-09
0.0255	1e-08	5e-09
0.0582	1.6e-08	5e-09
0.0669	1.8e-08	5e-09
0.0811	1.9e-08	5e-09
0.0944	1.9e-08	5e-09
0.1161	2.2e-08	5e-09
0.133	2.3e-08	5e-09
0.1507	2.5e-08	5e-09
0.1752	2.6e-08	5e-09
0.2346	2.7e-08	5e-09
0.2749	2.8e-08	5e-09
0.3232	2.9e-08	5e-09
0.399	2.8e-08	5e-09
0.4472	2.5e-08	5e-09
0.4784	2.5e-08	5e-09
0.4826	2.4e-08	5e-09
0.4941	2.4e-08	5e-09
0.518	2.2e-08	5e-09
0.537	2.1e-08	5e-09
0.5552	2.1e-08	5e-09
0.5751	1.8e-08	5e-09
0.6011	1.5e-08	5e-09
0.6281	1.3e-08	5e-09
0.6505	1e-08	5e-09
0.6707	9e-09	5e-09
0.6824	8e-09	5e-09
0.7028	4e-09	5e-09
0.7232	1e-09	5e-09
0.746	-2e-09	5e-09
0.7719	-4e-09	5e-09
0.791	-6e-09	5e-09
0.8126	-8e-09	5e-09
0.8237	-1e-08	5e-09
0.8409	-1.3e-08	5e-09
0.853	-1.6e-08	5e-09
0.8712	-1.9e-08	5e-09
0.8823	-2.1e-08	5e-09
0.8935	-2.2e-08	5e-09
0.9116	-2.4e-08	5e-09
0.9269	-2.4e-08	5e-09
0.9355	-2.3e-08	5e-09
0.9476	-2.2e-08	5e-09
0.9599	-2e-08	5e-09
0.9803	-1.4e-08	5e-09
0.9887	-1.2e-08	5e-09
0.9978	-8e-09	5e-09

System: 1,5-pentanediol + 2-pyrrolidinone; phases: Liquid
Fixed: Temperature, K = 308.15
Fixed: Pressure, kPa = 101
Property: Viscosity, Pa*s (Liquid); method: CAPTUB:UFactor:4
Mole fraction of 1,5-pentanediol	Viscosity, Pa*s	uncertainty
0.0298	0.009401	0.000184
0.0514	0.009774	0.000191
0.1017	0.010738	0.00021
0.1536	0.011797	0.000231
0.2008	0.012893	0.000253
0.2942	0.01532	0.000305
0.3886	0.018068	0.000368
0.479	0.021153	0.000443
0.582	0.024715	0.000536
0.6827	0.029132	0.000657
0.7812	0.036206	0.000849
0.8319	0.041199	0.000986
0.9095	0.050562	0.000949
0.9392	0.054653	0.001103
0.9749	0.059945	0.001404

System: 1,5-pentanediol + 2-pyrrolidinone; phases: Liquid
Fixed: Temperature, K = 308.15
Fixed: Pressure, kPa = 101
Property: Speed of sound, m/s (Liquid); method: Sing-around technique in a fixed-path interferometer
Mole fraction of 1,5-pentanediol	Speed of sound, m/s	uncertainty
0.0298	1597.49	1.43
0.0514	1595.65	1.48
0.1017	1591.75	1.6
0.1536	1588.74	1.73
0.2008	1586.92	1.85
0.2942	1583.53	2.09
0.3886	1580.87	2.35
0.479	1578.75	2.6
0.582	1577.11	2.89
0.6827	1575.32	3.18
0.7812	1572.99	3.47
0.8319	1571.6	3.61
0.9095	1569.43	3.84
0.9392	1568.59	3.92
0.9749	1567.35	4.03

System: 1,5-pentanediol + 2-pyrrolidinone; phases: Liquid
Fixed: Temperature, K = 308.15
Fixed: Pressure, kPa = 101
Property: Excess molar volume, m3/mol (Liquid); method: Direct dilatometry
Mole fraction of 1,5-pentanediol	Excess molar volume, m3/mol	uncertainty
0.0022	1e-09	5e-09
0.009	3e-09	5e-09
0.0129	5e-09	5e-09
0.0168	6e-09	5e-09
0.0269	1e-08	5e-09
0.0326	1.5e-08	5e-09
0.0454	1.7e-08	5e-09
0.0619	2.7e-08	5e-09
0.0915	3.4e-08	5e-09
0.1149	4e-08	5e-09
0.1375	4.4e-08	5e-09
0.1895	5.2e-08	5e-09
0.2539	5.9e-08	5e-09
0.293	6.4e-08	5e-09
0.3268	6.7e-08	5e-09
0.3769	7e-08	5e-09
0.4209	7e-08	5e-09
0.4564	7.1e-08	5e-09
0.5091	7e-08	5e-09
0.5407	6.9e-08	5e-09
0.5779	6.6e-08	5e-09
0.601	6.1e-08	5e-09
0.6363	5.6e-08	5e-09
0.6673	5.3e-08	5e-09
0.7035	4.7e-08	5e-09
0.7347	4.2e-08	5e-09
0.7879	3.3e-08	5e-09
0.822	2.8e-08	5e-09
0.8461	2.6e-08	5e-09
0.8694	2.3e-08	5e-09
0.8947	1.8e-08	5e-09
0.9143	1.3e-08	5e-09
0.9428	1.1e-08	5e-09
0.9583	7e-09	5e-09
0.9783	3e-09	5e-09
