Measured thermophysical data. Liquid + liquid equilibria for ternary mixtures of (solvent + aromatic hydrocarbon + alkane)
Source: J. Chem. Thermodyn., 2005, 10.1016/j.jct.2005.01.016
Compound 1: sulfolane, C4H8O2S, InChI=1S/C4H8O2S/c5-7(6)3-1-2-4-7/h1-4H2, purity 99%
Compound 2: 1,3-dimethylbenzene, C8H10, InChI=1S/C8H10/c1-7-4-3-5-8(2)6-7/h3-6H,1-2H3, purity 99%
Compound 3: heptane, C7H16, InChI=1S/C7H16/c1-3-5-7-6-4-2/h3-7H2,1-2H3, purity 99%
Compound 4: dimethyl sulfoxide, C2H6OS, InChI=1S/C2H6OS/c1-4(2)3/h1-2H3, purity 99%
Compound 5: octane, C8H18, InChI=1S/C8H18/c1-3-5-7-8-6-4-2/h3-8H2,1-2H3, purity 99%
Compound 6: ethylene carbonate, C3H4O3, InChI=1S/C3H4O3/c4-3-5-1-2-6-3/h1-2H2, purity 99%
Compound 7: toluene, C7H8, InChI=1S/C7H8/c1-7-5-3-2-4-6-7/h2-6H,1H3, purity 99%
Compound 8: cyclohexane, C6H12, InChI=1S/C6H12/c1-2-4-6-5-3-1/h1-6H2, purity 99%

System: 1,3-dimethylbenzene + sulfolane + heptane; phases: Liquid mixture 1, Liquid mixture 2
Fixed: Pressure, kPa = 101
Property: Mass fraction of sulfolane (Liquid mixture 1); method: CHROM:UFactor:4
Property: Mass fraction of sulfolane (Liquid mixture 2); method: CHROM:UFactor:4
Property: Mass fraction of 1,3-dimethylbenzene (Liquid mixture 2); method: CHROM:UFactor:4
Temperature, K	Mass fraction of 1,3-dimethylbenzene	Mass fraction of sulfolane	uncertainty	Mass fraction of sulfolane	uncertainty	Mass fraction of 1,3-dimethylbenzene	uncertainty
303.15	0.6829	0.0869	0.0205	0.7112	0.0307	0.2654	
303.15	0.659	0.0822	0.0205	0.7571	0.0297	0.2232	
303.15	0.5264	0.0492	0.0209	0.8353	0.0294	0.1467	
303.15	0.4656	0.0179	0.0179	0.8748	0.0306	0.1122	
313.15	0.6631	0.1398	0.0238	0.6949	0.0302	0.2793	
313.15	0.6501	0.0804	0.0213	0.7454	0.0299	0.2311	
313.15	0.46	0.0161	0.0161	0.862	0.0297	0.1212	
313.15	0.4608	0.0147	0.0147	0.8367	0.0295	0.1446	

System: dimethyl sulfoxide + 1,3-dimethylbenzene + octane; phases: Liquid mixture 1, Liquid mixture 2
Fixed: Pressure, kPa = 101
Property: Mass fraction of 1,3-dimethylbenzene (Liquid mixture 1); method: CHROM:UFactor:4
Property: Mass fraction of 1,3-dimethylbenzene (Liquid mixture 2); method: CHROM:UFactor:4
Property: Mass fraction of dimethyl sulfoxide (Liquid mixture 2); method: CHROM:UFactor:4
Temperature, K	Mass fraction of dimethyl sulfoxide	Mass fraction of 1,3-dimethylbenzene	uncertainty	Mass fraction of 1,3-dimethylbenzene	uncertainty	Mass fraction of dimethyl sulfoxide	uncertainty
298.15	0.1615	0.6787	0.0236	0.3877	0.0291	0.5714	
298.15	0.0407	0.627	0.1787	0.2394	0.0278	0.7358	
298.15	0.0156	0.4045	0.032	0.1272	0.0273	0.8582	
303.15	0.1986	0.65	0.024	0.4855	0.0306	0.4686	
303.15	0.0461	0.6282	0.0228	0.2485	0.029	0.7228	
303.15	0.316	0.5008	0.0353	0.1958	0.0287	0.776	

System: ethylene carbonate + 1,3-dimethylbenzene + cyclohexane; phases: Liquid mixture 1, Liquid mixture 2
Fixed: Temperature, K = 313.15
Fixed: Pressure, kPa = 101.35
Property: Mass fraction of ethylene carbonate (Liquid mixture 1); method: CHROM:UFactor:4
Property: Mass fraction of ethylene carbonate (Liquid mixture 2); method: CHROM:UFactor:4
Property: Mass fraction of 1,3-dimethylbenzene (Liquid mixture 2); method: CHROM:UFactor:4
Mass fraction of 1,3-dimethylbenzene	Mass fraction of ethylene carbonate	uncertainty	Mass fraction of ethylene carbonate	uncertainty	Mass fraction of 1,3-dimethylbenzene	uncertainty
0.8415	0.0508	0.0221	0.8239	0.0206	0.1511	
0.7964	0.03	0.0201	0.8505	0.0204	0.1363	
0.6819	0.0327	0.02	0.8919	0.0202	0.0808	
0.639	0.028	0.0201	0.9219	0.0201	0.0664	

System: ethylene carbonate + toluene + heptane; phases: Liquid mixture 1, Liquid mixture 2
Fixed: Temperature, K = 313.15
Fixed: Pressure, kPa = 101.35
Property: Mass fraction of ethylene carbonate (Liquid mixture 1); method: CHROM:UFactor:4
Property: Mass fraction of ethylene carbonate (Liquid mixture 2); method: CHROM:UFactor:4
Property: Mass fraction of toluene (Liquid mixture 2); method: CHROM:UFactor:4
Mass fraction of toluene	Mass fraction of ethylene carbonate	uncertainty	Mass fraction of ethylene carbonate	uncertainty	Mass fraction of toluene	uncertainty
0.7486	0.0545	0.0217	0.7622	0.0211	0.2296	
0.7007	0.0345	0.021	0.802	0.0208	0.1906	
0.6595	0.0267	0.0202	0.8249	0.0206	0.1672	
0.5788	0.0158	0.0158	0.8624	0.0204	0.1307	

System: ethylene carbonate + 1,3-dimethylbenzene + heptane; phases: Liquid mixture 1, Liquid mixture 2
Fixed: Temperature, K = 313.15
Fixed: Pressure, kPa = 101.35
Property: Mass fraction of ethylene carbonate (Liquid mixture 1); method: CHROM:UFactor:4
Property: Mass fraction of ethylene carbonate (Liquid mixture 2); method: CHROM:UFactor:4
Property: Mass fraction of 1,3-dimethylbenzene (Liquid mixture 2); method: CHROM:UFactor:4
Mass fraction of 1,3-dimethylbenzene	Mass fraction of ethylene carbonate	uncertainty	Mass fraction of ethylene carbonate	uncertainty	Mass fraction of 1,3-dimethylbenzene	uncertainty
0.873	0.0543	0.0208	0.8519	0.0204	0.1461	
0.8033	0.0345	0.0205	0.8826	0.0203	0.1146	
0.7204	0.02	0.02	0.9064	0.0202	0.0905	
0.6483	0.0144	0.0144	0.9195	0.0201	0.0767	

System: ethylene carbonate + toluene + octane; phases: Liquid mixture 1, Liquid mixture 2
Fixed: Temperature, K = 313.15
Fixed: Pressure, kPa = 101.35
Property: Mass fraction of ethylene carbonate (Liquid mixture 1); method: CHROM:UFactor:4
Property: Mass fraction of ethylene carbonate (Liquid mixture 2); method: CHROM:UFactor:4
Property: Mass fraction of toluene (Liquid mixture 2); method: CHROM:UFactor:4
Mass fraction of toluene	Mass fraction of ethylene carbonate	uncertainty	Mass fraction of ethylene carbonate	uncertainty	Mass fraction of toluene	uncertainty
0.7853	0.1041	0.0309	0.676	0.0299	0.3162	
0.7442	0.056	0.0236	0.7564	0.0294	0.237	
0.6685	0.0274	0.0216	0.804	0.029	0.191	
0.5889	0.1174	0.0304	0.8484	0.0285	0.1464	

System: ethylene carbonate + toluene + cyclohexane; phases: Liquid mixture 2, Liquid mixture 1
Fixed: Temperature, K = 313.15
Fixed: Pressure, kPa = 101.35
Property: Mass fraction of toluene (Liquid mixture 2); method: CHROM:UFactor:4
Property: Mass fraction of toluene (Liquid mixture 1); method: CHROM:UFactor:4
Property: Mass fraction of ethylene carbonate (Liquid mixture 1); method: CHROM:UFactor:4
Mass fraction of ethylene carbonate	Mass fraction of toluene	uncertainty	Mass fraction of toluene	uncertainty	Mass fraction of ethylene carbonate	uncertainty
0.5771	0.4057	0.0306	0.7608	0.0212	0.1636	
0.7016	0.2806	0.0292	0.7572	0.0213	0.1254	
0.76	0.225	0.0286	0.7486	0.0247	0.0741	
0.7997	0.1852	0.0265	0.7019	0.0649	0.0452	
0.8857	0.1194	0.0254	0.5866	0.1029	0.0222	
