Measured thermophysical data. (Liquid + liquid) equilibria of aqueous solutions of butyric acid with n-heptane  and toluene at T = (298.2, 308.2, and 318.2) K
Source: J. Chem. Thermodyn., 2013, 10.1016/j.jct.2012.08.029
Compound 1: butanoic acid, C4H8O2, InChI=1S/C4H8O2/c1-2-3-4(5)6/h2-3H2,1H3,(H,5,6), purity 99%
Compound 2: heptane, C7H16, InChI=1S/C7H16/c1-3-5-7-6-4-2/h3-7H2,1-2H3, purity 99%
Compound 3: toluene, C7H8, InChI=1S/C7H8/c1-7-5-3-2-4-6-7/h2-6H,1H3, purity 99%
Compound 4: water, H2O, InChI=1S/H2O/h1H2, purity 99%

System: butanoic acid; phases: Liquid
Property: Refractive index (Na D-line) (Liquid); method: Standard Abbe refractometry
Temperature, K	Pressure, kPa	Refractive index (Na D-line)	uncertainty
298.2	101.325	1.3976	0.0008

System: butanoic acid; phases: Liquid
Property: Mass density, kg/m3 (Liquid); method: Vibrating tube method
Temperature, K	Pressure, kPa	Mass density, kg/m3	uncertainty
298.2	101.325	952.68	0.23

System: heptane; phases: Liquid
Property: Refractive index (Na D-line) (Liquid); method: Standard Abbe refractometry
Temperature, K	Pressure, kPa	Refractive index (Na D-line)	uncertainty
298.2	101.325	1.3851	0.0008

System: heptane; phases: Liquid
Property: Mass density, kg/m3 (Liquid); method: Vibrating tube method
Temperature, K	Pressure, kPa	Mass density, kg/m3	uncertainty
298.2	101.325	679.49	0.25

System: toluene; phases: Liquid
Property: Refractive index (Na D-line) (Liquid); method: Standard Abbe refractometry
Temperature, K	Pressure, kPa	Refractive index (Na D-line)	uncertainty
298.2	101.325	1.494	0.0008

System: toluene; phases: Liquid
Property: Mass density, kg/m3 (Liquid); method: Vibrating tube method
Temperature, K	Pressure, kPa	Mass density, kg/m3	uncertainty
298.2	101.325	861.4	0.24

System: water; phases: Liquid
Property: Refractive index (Na D-line) (Liquid); method: Standard Abbe refractometry
Temperature, K	Pressure, kPa	Refractive index (Na D-line)	uncertainty
298.2	101.325	1.3325	0.0008

System: water; phases: Liquid
Property: Mass density, kg/m3 (Liquid); method: Vibrating tube method
Temperature, K	Pressure, kPa	Mass density, kg/m3	uncertainty
298.2	101.325	997.07	0.23

System: butanoic acid + heptane + water; phases: Liquid, Liquid
Fixed: Pressure, kPa = 101
Property: Mass fraction of butanoic acid (Liquid); method: Phase equilibration
Temperature, K	Mass fraction of water	Mass fraction of butanoic acid	uncertainty
298.2	0.9407	0.0564	0.0023
298.2	0.8978	0.0993	0.0023
298.2	0.7961	0.201	0.0023
298.2	0.7389	0.2568	0.0022
298.2	0.6948	0.2995	0.0022
298.2	0.6365	0.355	0.0022
298.2	0.5948	0.3938	0.0022
298.2	0.5358	0.4487	0.0022
298.2	0.4957	0.4865	0.0022
298.2	0.4452	0.5311	0.0021
298.2	0.3844	0.5794	0.002
298.2	0.3333	0.6177	0.0019
298.2	0.2783	0.6495	0.0018
298.2	0.2314	0.6699	0.0017
298.2	0.1733	0.6775	0.0016
298.2	0.1191	0.665	0.0018
298.2	0.0824	0.6357	0.0022
298.2	0.0555	0.6121	0.0026
298.2	0.0377	0.58	0.0042
298.2	0.0242	0.5363	0.0067
298.2	0.0144	0.484	0.0114
298.2	0.0119	0.4414	0.0295
298.2	0.0096	0.3955	0.0329
298.2	0.0073	0.3469	0.0296
298.2	0.0049	0.3087	0.0312
298.2	0.0024	0.2515	0.0367
298.2	0.0025	0.1529	0.1039
298.2	0.0025	0.111	0.111
298.2	0.0024	0.0557	0.0557
308.2	0.9311	0.0661	0.0023
308.2	0.8865	0.1107	0.0023
308.2	0.7914	0.2058	0.0022
308.2	0.7327	0.2618	0.0022
308.2	0.6925	0.3004	0.0022
308.2	0.634	0.3548	0.0022
308.2	0.5903	0.3942	0.0022
308.2	0.5278	0.4514	0.0021
308.2	0.4832	0.4889	0.0021
308.2	0.4333	0.5285	0.002
308.2	0.3819	0.5703	0.0021
308.2	0.3329	0.6089	0.002
308.2	0.2916	0.635	0.0018
308.2	0.2203	0.6637	0.0017
308.2	0.1692	0.6668	0.0016
308.2	0.1391	0.6549	0.0018
308.2	0.0992	0.6309	0.0022
308.2	0.072	0.5983	0.0027
308.2	0.0504	0.5651	0.003
308.2	0.033	0.5367	0.0044
308.2	0.0215	0.487	0.0082
308.2	0.0144	0.4408	0.0134
308.2	0.0122	0.3959	0.0196
308.2	0.0073	0.3518	0.0197
308.2	0.0048	0.3059	0.0648
308.2	0.0048	0.2644	0.0651
308.2	0.0024	0.1526	0.0812
308.2	0.0024	0.1091	0.0916
308.2	0.0024	0.0624	0.0624
318.2	0.9322	0.065	0.0023
318.2	0.8822	0.115	0.0023
318.2	0.792	0.2037	0.0022
318.2	0.7384	0.2545	0.0022
318.2	0.6886	0.3029	0.0022
318.2	0.6396	0.3461	0.0022
318.2	0.5879	0.3953	0.0022
318.2	0.5304	0.4447	0.0021
318.2	0.476	0.4911	0.0021
318.2	0.4381	0.525	0.0021
318.2	0.3807	0.5741	0.002
318.2	0.3317	0.6077	0.0018
318.2	0.2764	0.6343	0.0017
318.2	0.2251	0.6483	0.0017
318.2	0.1811	0.6452	0.0017
318.2	0.1361	0.6411	0.0017
318.2	0.1129	0.624	0.0025
318.2	0.0896	0.5867	0.0027
318.2	0.0639	0.5602	0.0026
318.2	0.0404	0.5276	0.0035
318.2	0.0282	0.4904	0.0068
318.2	0.0192	0.4394	0.0104
318.2	0.0142	0.3995	0.0158
318.2	0.0098	0.347	0.0223
318.2	0.0073	0.3019	0.03
318.2	0.0048	0.2534	0.0647
318.2	0.0025	0.1561	0.0677
318.2	0.0024	0.1032	0.1002
318.2	0.0025	0.0566	0.0566

System: butanoic acid + heptane + water; phases: Liquid mixture 2, Liquid mixture 1
Fixed: Pressure, kPa = 101
Property: Mass fraction of water (Liquid mixture 2); method: Phase equilibration
Property: Mass fraction of butanoic acid (Liquid mixture 1); method: Phase equilibration
Property: Mass fraction of water (Liquid mixture 1); method: Phase equilibration
Temperature, K	Mass fraction of butanoic acid	Mass fraction of water	uncertainty	Mass fraction of butanoic acid	uncertainty	Mass fraction of water	uncertainty
298.2	0.174	0.002	0.002	0.062	0.003	0.937	
298.2	0.276	0.002	0.002	0.098	0.003	0.898	
298.2	0.372	0.004	0.002	0.141	0.003	0.852	
298.2	0.437	0.006	0.002	0.175	0.003	0.815	
298.2	0.496	0.019	0.002	0.201	0.003	0.788	
298.2	0.531	0.026	0.002	0.216	0.003	0.777	
308.2	0.177	0.002	0.002	0.067	0.003	0.931	
308.2	0.281	0.003	0.002	0.107	0.003	0.889	
308.2	0.377	0.005	0.002	0.149	0.003	0.843	
308.2	0.446	0.009	0.002	0.179	0.003	0.809	
308.2	0.486	0.023	0.002	0.211	0.003	0.777	
308.2	0.532	0.032	0.002	0.231	0.003	0.754	
318.2	0.181	0.002	0.002	0.073	0.003	0.924	
318.2	0.29	0.004	0.002	0.119	0.003	0.877	
318.2	0.37	0.006	0.002	0.161	0.003	0.831	
318.2	0.436	0.015	0.002	0.19	0.003	0.798	
318.2	0.499	0.027	0.002	0.219	0.003	0.768	
318.2	0.542	0.043	0.002	0.244	0.003	0.741	

System: butanoic acid + toluene + water; phases: Liquid, Liquid
Fixed: Pressure, kPa = 101
Property: Mass fraction of butanoic acid (Liquid); method: Phase equilibration
Temperature, K	Mass fraction of water	Mass fraction of butanoic acid	uncertainty
298.2	0.9362	0.0623	0.0023
298.2	0.8911	0.1081	0.0022
298.2	0.7997	0.1972	0.0022
298.2	0.7461	0.25	0.0022
298.2	0.6887	0.3052	0.0022
298.2	0.6429	0.3479	0.0022
298.2	0.5946	0.3938	0.0022
298.2	0.5504	0.436	0.0022
298.2	0.4942	0.4891	0.0022
298.2	0.4401	0.5377	0.0021
298.2	0.3915	0.5796	0.0021
298.2	0.3378	0.6209	0.002
298.2	0.2897	0.66	0.0019
298.2	0.2211	0.701	0.0018
298.2	0.1822	0.709	0.0016
298.2	0.144	0.6971	0.0019
298.2	0.1104	0.6672	0.0022
298.2	0.0854	0.6408	0.0026
298.2	0.0647	0.6084	0.003
298.2	0.0441	0.5791	0.0037
298.2	0.0332	0.545	0.0064
298.2	0.024	0.5021	0.0092
298.2	0.0145	0.4393	0.0119
298.2	0.0098	0.3959	0.023
298.2	0.0096	0.3507	0.023
298.2	0.0049	0.3018	0.0405
298.2	0.0048	0.2512	0.0426
298.2	0.0025	0.1542	0.0984
308.2	0.9344	0.064	0.0023
308.2	0.8959	0.1026	0.0022
308.2	0.7899	0.2063	0.0022
308.2	0.7404	0.2534	0.0022
308.2	0.6956	0.296	0.0022
308.2	0.6414	0.3469	0.0022
308.2	0.5808	0.4042	0.0022
308.2	0.545	0.4367	0.0022
308.2	0.496	0.4829	0.0022
308.2	0.443	0.5297	0.0021
308.2	0.3897	0.5759	0.002
308.2	0.3336	0.6152	0.002
308.2	0.2802	0.6527	0.0019
308.2	0.2377	0.6754	0.0018
308.2	0.183	0.6881	0.0017
308.2	0.1481	0.6731	0.0019
308.2	0.1132	0.653	0.0021
308.2	0.091	0.6281	0.0031
308.2	0.0761	0.5931	0.0035
308.2	0.053	0.5532	0.004
308.2	0.0391	0.5051	0.006
308.2	0.029	0.4702	0.0058
308.2	0.0191	0.436	0.0083
308.2	0.012	0.3942	0.0199
308.2	0.0097	0.3446	0.0416
308.2	0.0096	0.2971	0.0398
308.2	0.0073	0.2607	0.0415
308.2	0.0025	0.1512	0.0415
318.2	0.9442	0.0542	0.0023
318.2	0.8895	0.109	0.0022
318.2	0.79	0.2054	0.0022
318.2	0.7355	0.2553	0.0022
318.2	0.6815	0.3073	0.0022
318.2	0.6388	0.346	0.0022
318.2	0.5808	0.3995	0.0022
318.2	0.5396	0.4376	0.0021
318.2	0.4885	0.4816	0.0021
318.2	0.4347	0.5279	0.0021
318.2	0.3826	0.5702	0.002
318.2	0.3304	0.6067	0.0019
318.2	0.273	0.6424	0.0018
318.2	0.2243	0.6612	0.0017
318.2	0.181	0.66	0.0017
318.2	0.143	0.648	0.002
318.2	0.1179	0.6198	0.0028
318.2	0.0907	0.5901	0.0035
318.2	0.094	0.584	0.0035
318.2	0.075	0.557	0.0038
318.2	0.059	0.523	0.0041
318.2	0.041	0.479	0.0059
318.2	0.0236	0.3981	0.0087
318.2	0.0169	0.3489	0.014
318.2	0.012	0.297	0.0172
318.2	0.0073	0.2467	0.019
318.2	0.0048	0.2106	0.0473
318.2	0.0025	0.1038	0.0743

System: butanoic acid + toluene + water; phases: Liquid mixture 2, Liquid mixture 1
Fixed: Pressure, kPa = 101
Property: Mass fraction of water (Liquid mixture 2); method: Phase equilibration
Property: Mass fraction of butanoic acid (Liquid mixture 1); method: Phase equilibration
Property: Mass fraction of water (Liquid mixture 1); method: Phase equilibration
Temperature, K	Mass fraction of butanoic acid	Mass fraction of water	uncertainty	Mass fraction of butanoic acid	uncertainty	Mass fraction of water	uncertainty
298.2	0.188	0.006	0.002	0.038	0.003	0.961	
298.2	0.284	0.01	0.002	0.061	0.003	0.937	
298.2	0.386	0.011	0.002	0.095	0.003	0.901	
298.2	0.462	0.019	0.002	0.141	0.003	0.852	
298.2	0.507	0.025	0.002	0.155	0.003	0.837	
298.2	0.552	0.032	0.002	0.189	0.003	0.802	
308.2	0.191	0.007	0.002	0.041	0.003	0.957	
308.2	0.298	0.011	0.002	0.065	0.003	0.931	
308.2	0.399	0.022	0.002	0.099	0.003	0.894	
308.2	0.471	0.027	0.002	0.134	0.003	0.858	
308.2	0.509	0.044	0.002	0.162	0.003	0.828	
308.2	0.551	0.053	0.002	0.195	0.003	0.794	
318.2	0.194	0.009	0.002	0.046	0.003	0.951	
318.2	0.299	0.015	0.002	0.072	0.003	0.924	
318.2	0.405	0.024	0.002	0.109	0.003	0.882	
318.2	0.474	0.041	0.002	0.149	0.003	0.842	
318.2	0.521	0.058	0.002	0.178	0.003	0.812	
318.2	0.552	0.069	0.002	0.208	0.003	0.781	
