Measured thermophysical data. Effect of ionic liquid on the solvation behavior of nonaqueous N,N'-salicylidenephenylediamine Schiff base (Salophen) solutions at 298.15 K
Source: J. Chem. Thermodyn., 2013, 10.1016/j.jct.2013.04.022
Compound 1: N,N-dimethylethanamide, C4H9NO, InChI=1S/C4H9NO/c1-4(6)5(2)3/h1-3H3, purity 99%
Compound 2: dimethyl sulfoxide, C2H6OS, InChI=1S/C2H6OS/c1-4(2)3/h1-2H3, purity 99%
Compound 3: 1-butyl-3-methylimidazolium bromide, C8H15BrN2, InChI=1S/C8H15N2.BrH/c1-3-4-5-10-7-6-9(2)8-10;/h6-8H,3-5H2,1-2H3;1H/q+1;/p-1
Compound 4: 2,2'-[1,2-phenylenebis(nitrilomethylidyne)]bis-phenol, C20H16N2O2, InChI=1S/C20H16N2O2/c23-19-11-5-1-7-15(19)13-21-17-9-3-4-10-18(17)22-14-16-8-2-6-12-20(16)24/h1-14,23-24H

System: N,N-dimethylethanamide; phases: Liquid
Property: Refractive index (Na D-line) (Liquid); method: Standard Abbe refractometry
Pressure, kPa	Temperature, K	Refractive index (Na D-line)	uncertainty
85.9	298.15	1.436	0.0007

System: N,N-dimethylethanamide; phases: Liquid
Property: Mass density, kg/m3 (Liquid); method: Vibrating tube method
Pressure, kPa	Temperature, K	Mass density, kg/m3	uncertainty
85.9	298.15	936.57	0.3

System: N,N-dimethylethanamide; phases: Liquid
Property: Viscosity, Pa*s (Liquid); method: Capillary tube (Ostwald; Ubbelohde) method
Pressure, kPa	Temperature, K	Viscosity, Pa*s	uncertainty
85.9	298.15	0.000961	2.1e-05

System: dimethyl sulfoxide; phases: Liquid
Property: Refractive index (Na D-line) (Liquid); method: Standard Abbe refractometry
Pressure, kPa	Temperature, K	Refractive index (Na D-line)	uncertainty
85.9	298.15	1.4762	0.0007

System: dimethyl sulfoxide; phases: Liquid
Property: Mass density, kg/m3 (Liquid); method: Vibrating tube method
Pressure, kPa	Temperature, K	Mass density, kg/m3	uncertainty
85.9	298.15	1095.29	0.4

System: dimethyl sulfoxide; phases: Liquid
Property: Viscosity, Pa*s (Liquid); method: Capillary tube (Ostwald; Ubbelohde) method
Pressure, kPa	Temperature, K	Viscosity, Pa*s	uncertainty
85.9	298.15	0.001867	4e-05

System: N,N-dimethylethanamide + 2,2'-[1,2-phenylenebis(nitrilomethylidyne)]bis-phenol + 1-butyl-3-methylimidazolium bromide; phases: Liquid
Fixed: Pressure, kPa = 85.9
Fixed: Temperature, K = 298.15
Property: Mass density, kg/m3 (Liquid); method: Vibrating tube method
Solvent: Molality, mol/kg of 1-butyl-3-methylimidazolium bromide	Molality, mol/kg of 2,2'-[1,2-phenylenebis(nitrilomethylidyne)]bis-phenol	Mass density, kg/m3	uncertainty
0	0	936.57	0.21
0	0.0106	937.33	0.21
0	0.0323	938.87	0.21
0	0.0497	940.11	0.21
0	0.0704	941.6	0.2
0	0.0899	942.99	0.2
0	0.1092	944.36	0.2
0	0.129	945.78	0.2
0	0.1492	947.22	0.2
0	0.174	949.06	0.2
0.0527	0	944.36	0.21
0.0527	0.01	945.07	0.2
0.0527	0.0299	946.47	0.2
0.0527	0.051	947.95	0.2
0.0527	0.0721	949.41	0.2
0.0527	0.0901	950.65	0.2
0.0527	0.1078	951.86	0.2
0.0527	0.13	953.39	0.2
0.0527	0.1503	954.77	0.2
0.0527	0.1601	955.42	0.2
0.1475	0	946.97	0.2
0.1475	0.0303	949.1	0.2
0.1475	0.0511	950.55	0.2
0.1475	0.0694	951.82	0.2
0.1475	0.0911	953.31	0.2
0.1475	0.1098	954.58	0.2
0.1475	0.1299	955.93	0.2
0.1475	0.15	957.28	0.2
0.1475	0.1665	958.37	0.2
0.1475	0.1844	959.54	0.2
0.1994	0	950.03	0.2
0.1994	0.0115	950.84	0.2
0.1994	0.0295	952.1	0.2
0.1994	0.0504	953.55	0.2
0.1994	0.0697	954.88	0.2
0.1994	0.0904	956.3	0.2
0.1994	0.1098	957.61	0.2
0.1994	0.1302	958.99	0.2
0.1994	0.1484	960.2	0.2
0.1994	0.1698	961.62	0.2

System: N,N-dimethylethanamide + 2,2'-[1,2-phenylenebis(nitrilomethylidyne)]bis-phenol + 1-butyl-3-methylimidazolium bromide; phases: Liquid
Fixed: Temperature, K = 298.15
Fixed: Pressure, kPa = 85.9
Property: Viscosity, Pa*s (Liquid); method: Capillary tube (Ostwald; Ubbelohde) method
Solvent: Molality, mol/kg of 1-butyl-3-methylimidazolium bromide	Molality, mol/kg of 2,2'-[1,2-phenylenebis(nitrilomethylidyne)]bis-phenol	Viscosity, Pa*s	uncertainty
0	0.0106	0.000954	2e-05
0	0.0323	0.000975	2.1e-05
0	0.0497	0.000992	2.1e-05
0	0.0704	0.001012	2.2e-05
0	0.0899	0.001031	2.2e-05
0	0.1092	0.001049	2.2e-05
0	0.129	0.001069	2.3e-05
0	0.1492	0.001087	2.3e-05
0	0.1742	0.001011	0.0001
0.1135	0.01	0.001036	2.2e-05
0.1135	0.0299	0.001059	2.3e-05
0.1135	0.051	0.001082	2.3e-05
0.1135	0.0721	0.001102	2.3e-05
0.1135	0.0901	0.00112	2.4e-05
0.1135	0.1078	0.001141	2.4e-05
0.1135	0.13	0.001161	2.5e-05
0.1135	0.1503	0.001184	2.5e-05
0.1135	0.1601	0.001205	2.6e-05
0.1432	0.0099	0.001095	2.3e-05
0.1432	0.0297	0.00112	2.4e-05
0.1432	0.0518	0.001134	2.4e-05
0.1432	0.0697	0.001156	2.5e-05
0.1432	0.0892	0.001175	2.5e-05
0.1432	0.1113	0.001198	2.6e-05
0.1432	0.1294	0.001212	2.6e-05
0.1432	0.1484	0.001238	2.6e-05
0.1432	0.1691	0.001259	2.7e-05
0.1923	0.0115	0.00116	2.5e-05
0.1923	0.0295	0.001172	2.5e-05
0.1923	0.0504	0.00119	2.5e-05
0.1923	0.0697	0.00121	2.6e-05
0.1923	0.0904	0.001228	2.6e-05
0.1923	0.1098	0.00125	2.7e-05
0.1923	0.1302	0.001263	2.7e-05
0.1923	0.1484	0.001282	2.7e-05
0.1923	0.1698	0.001308	2.8e-05

System: dimethyl sulfoxide + 2,2'-[1,2-phenylenebis(nitrilomethylidyne)]bis-phenol + 1-butyl-3-methylimidazolium bromide; phases: Liquid
Fixed: Pressure, kPa = 85.9
Fixed: Temperature, K = 298.15
Property: Mass density, kg/m3 (Liquid); method: Vibrating tube method
Solvent: Molality, mol/kg of 1-butyl-3-methylimidazolium bromide	Molality, mol/kg of 2,2'-[1,2-phenylenebis(nitrilomethylidyne)]bis-phenol	Mass density, kg/m3	uncertainty
0	0	1095.29	0.27
0	0.0099	1095.61	0.27
0	0.0307	1096.3	0.27
0	0.0493	1096.92	0.27
0	0.07	1097.62	0.27
0	0.0911	1098.35	0.27
0	0.1086	1098.95	0.27
0	0.1311	1099.71	0.27
0	0.1483	1100.31	0.27
0	0.1717	1101.2	0.27
0.0751	0	1099.03	0.27
0.0751	0.0491	1100.65	0.27
0.0751	0.069	1101.3	0.27
0.0751	0.0934	1102.09	0.27
0.0751	0.1081	1102.56	0.27
0.0751	0.1299	1103.25	0.27
0.0751	0.1493	1103.87	0.27
0.0751	0.1708	1104.55	0.27
0.0751	0.189	1105.11	0.27
0.0751	0.2089	1105.73	0.27
0.0981	0	1099.68	0.27
0.0981	0.0111	1100.05	0.27
0.0981	0.0294	1100.66	0.27
0.0981	0.0487	1101.29	0.27
0.0981	0.0702	1102	0.27
0.0981	0.0899	1102.64	0.27
0.0981	0.1099	1103.29	0.27
0.0981	0.1301	1103.95	0.27
0.0981	0.1473	1104.48	0.27
0.0981	0.169	1105.17	0.27
0.1923	0	1103.73	0.27
0.1923	0.01	1104.06	0.27
0.1923	0.0294	1104.7	0.27
0.1923	0.0497	1105.36	0.27
0.1923	0.0709	1106.05	0.27
0.1923	0.0902	1106.67	0.28
0.1923	0.1111	1107.35	0.28
0.1923	0.1302	1107.95	0.28
0.1923	0.1541	1108.7	0.28
0.1923	0.1674	1109.11	0.28

System: dimethyl sulfoxide + 2,2'-[1,2-phenylenebis(nitrilomethylidyne)]bis-phenol + 1-butyl-3-methylimidazolium bromide; phases: Liquid
Fixed: Temperature, K = 298.15
Fixed: Pressure, kPa = 85.9
Property: Viscosity, Pa*s (Liquid); method: Capillary tube (Ostwald; Ubbelohde) method
Solvent: Molality, mol/kg of 1-butyl-3-methylimidazolium bromide	Molality, mol/kg of 2,2'-[1,2-phenylenebis(nitrilomethylidyne)]bis-phenol	Viscosity, Pa*s	uncertainty
0	0.0099	0.001998	4.3e-05
0	0.0307	0.002041	4.4e-05
0	0.0493	0.002073	4.4e-05
0	0.07	0.002109	4.5e-05
0	0.0911	0.002151	4.6e-05
0	0.1086	0.002208	4.7e-05
0	0.1311	0.002229	4.8e-05
0	0.1483	0.002289	4.9e-05
0	0.1717	0.002333	5e-05
0.0981	0.0111	0.002112	4.5e-05
0.0981	0.0294	0.002151	4.6e-05
0.0981	0.0487	0.002197	4.7e-05
0.0981	0.0702	0.002245	4.8e-05
0.0981	0.0899	0.002287	4.9e-05
0.0981	0.1099	0.002328	5e-05
0.0981	0.1301	0.002367	5.1e-05
0.0981	0.1473	0.002398	5.2e-05
0.0981	0.169	0.002435	5.2e-05
0.1495	0.0111	0.002225	4.8e-05
0.1495	0.0296	0.002265	4.9e-05
0.1495	0.0497	0.002304	4.9e-05
0.1495	0.0704	0.002348	5e-05
0.1495	0.09	0.002385	5.1e-05
0.1495	0.1098	0.00243	5.2e-05
0.1495	0.1297	0.00247	5.3e-05
0.1495	0.1492	0.002512	5.4e-05
0.1923	0.01	0.002203	4.7e-05
0.1923	0.0294	0.002244	4.8e-05
0.1923	0.0497	0.002283	4.9e-05
0.1923	0.0709	0.002325	5e-05
0.1923	0.0902	0.002363	5.1e-05
0.1923	0.1111	0.002407	5.2e-05
0.1923	0.1302	0.002447	5.3e-05
0.1923	0.1541	0.0025	5.4e-05
0.1923	0.1674	0.00253	5.4e-05

System: N,N-dimethylethanamide + 2,2'-[1,2-phenylenebis(nitrilomethylidyne)]bis-phenol; phases: Liquid
Fixed: Pressure, kPa = 85.9
Fixed: Temperature, K = 298.15
Property: Mass density, kg/m3 (Liquid); method: Vibrating tube method
Molality, mol/kg of 2,2'-[1,2-phenylenebis(nitrilomethylidyne)]bis-phenol	Mass density, kg/m3	uncertainty
0.0106	937.33	0.21
0.0323	938.87	0.21
0.0497	940.11	0.21
0.0704	941.6	0.2
0.0899	942.99	0.2
0.1092	944.36	0.2
0.129	945.78	0.2
0.1492	947.22	0.2
0.174	949.06	0.2

System: N,N-dimethylethanamide + 2,2'-[1,2-phenylenebis(nitrilomethylidyne)]bis-phenol; phases: Liquid
Fixed: Temperature, K = 298.15
Fixed: Pressure, kPa = 85.9
Property: Viscosity, Pa*s (Liquid); method: Capillary tube (Ostwald; Ubbelohde) method
Molality, mol/kg of 2,2'-[1,2-phenylenebis(nitrilomethylidyne)]bis-phenol	Viscosity, Pa*s	uncertainty
0.0106	0.000954	2e-05
0.0323	0.000975	2.1e-05
0.0497	0.000992	2.1e-05
0.0704	0.001012	2.2e-05
0.0899	0.001031	2.2e-05
0.1092	0.001049	2.2e-05
0.129	0.001069	2.3e-05
0.1492	0.001087	2.3e-05
0.1742	0.001011	0.0001

System: N,N-dimethylethanamide + 1-butyl-3-methylimidazolium bromide; phases: Liquid
Fixed: Pressure, kPa = 85.9
Fixed: Temperature, K = 298.15
Property: Mass density, kg/m3 (Liquid); method: Vibrating tube method
Molality, mol/kg of 1-butyl-3-methylimidazolium bromide	Mass density, kg/m3	uncertainty
0.0527	944.36	0.21
0.1475	946.97	0.2
0.1994	950.03	0.2

System: dimethyl sulfoxide + 2,2'-[1,2-phenylenebis(nitrilomethylidyne)]bis-phenol; phases: Liquid
Fixed: Pressure, kPa = 85.9
Fixed: Temperature, K = 298.15
Property: Mass density, kg/m3 (Liquid); method: Vibrating tube method
Molality, mol/kg of 2,2'-[1,2-phenylenebis(nitrilomethylidyne)]bis-phenol	Mass density, kg/m3	uncertainty
0.0099	1095.61	0.27
0.0307	1096.3	0.27
0.0493	1096.92	0.27
0.07	1097.62	0.27
0.0911	1098.35	0.27
0.1086	1098.95	0.27
0.1311	1099.71	0.27
0.1483	1100.31	0.27
0.1717	1101.2	0.27

System: dimethyl sulfoxide + 2,2'-[1,2-phenylenebis(nitrilomethylidyne)]bis-phenol; phases: Liquid
Fixed: Temperature, K = 298.15
Fixed: Pressure, kPa = 85.9
Property: Viscosity, Pa*s (Liquid); method: Capillary tube (Ostwald; Ubbelohde) method
Molality, mol/kg of 2,2'-[1,2-phenylenebis(nitrilomethylidyne)]bis-phenol	Viscosity, Pa*s	uncertainty
0.0099	0.001998	4.3e-05
0.0307	0.002041	4.4e-05
0.0493	0.002073	4.4e-05
0.07	0.002109	4.5e-05
0.0911	0.002151	4.6e-05
0.1086	0.002208	4.7e-05
0.1311	0.002229	4.8e-05
0.1483	0.002289	4.9e-05
0.1717	0.002333	5e-05

System: dimethyl sulfoxide + 1-butyl-3-methylimidazolium bromide; phases: Liquid
Fixed: Pressure, kPa = 85.9
Fixed: Temperature, K = 298.15
Property: Mass density, kg/m3 (Liquid); method: Vibrating tube method
Molality, mol/kg of 1-butyl-3-methylimidazolium bromide	Mass density, kg/m3	uncertainty
0.0751	1099.03	0.27
0.0981	1099.68	0.27
0.1923	1103.73	0.27
