Measured thermophysical data. Fluorene: An extended experimental thermodynamic study
Source: J. Chem. Thermodyn., 2012, 10.1016/j.jct.2011.09.006
Compound 1: carbon dioxide, CO2, InChI=1S/CO2/c2-1-3
Compound 2: water, H2O, InChI=1S/H2O/h1H2
Compound 3: oxygen, O2, InChI=1S/O2/c1-2
Compound 4: hydrogen, H2, InChI=1S/H2/h1H
Compound 5: graphite, C
Compound 6: fluorene, C13H10, InChI=1S/C13H10/c1-3-7-12-10(5-1)9-11-6-2-4-8-13(11)12/h1-8H,9H2, purity 98.98%

System: fluorene; phases: Crystal, Liquid, Air at 1 atmosphere
Property: Normal melting temperature, K (Crystal); method: DTA
Normal melting temperature, K	uncertainty
388	0.5

System: fluorene; phases: Crystal, Liquid, Air at 1 atmosphere
Property: Molar enthalpy of transition or fusion, kJ/mol (Crystal); method: DSC
Molar enthalpy of transition or fusion, kJ/mol	uncertainty
20.3	0.6

System: fluorene; phases: Crystal, Gas
Property: Molar enthalpy of transition or fusion, kJ/mol (Crystal); method: DSC
Temperature, K	Molar enthalpy of transition or fusion, kJ/mol	uncertainty
298.15	87.7	2.9

System: fluorene; phases: Crystal, Gas
Property: Molar enthalpy of transition or fusion, kJ/mol (Crystal); method: Derived by Second law
Temperature, K	Molar enthalpy of transition or fusion, kJ/mol	uncertainty
306.15	88.31	0.46

System: fluorene; phases: Crystal, Gas
Property: Molar enthalpy of transition or fusion, kJ/mol (Crystal); method: Derived by Second law
Temperature, K	Molar enthalpy of transition or fusion, kJ/mol	uncertainty
345.7	85.84	0.28

System: fluorene; phases: Crystal, Gas
Property: Vapor or sublimation pressure, kPa (Crystal); method: Closed cell (Static) method
Temperature, K	Vapor or sublimation pressure, kPa	uncertainty
312.89	0.00048	0.00011
315.86	0.00067	0.00011
318.98	0.00091	0.00011
321.96	0.00125	0.00012
324.89	0.00171	0.00013
328.95	0.00253	0.00015
330.8	0.00302	0.00016
333.89	0.00405	0.0002
336.7	0.00526	0.00024
339.9	0.00698	0.0003
342.82	0.00914	0.00038
345.78	0.01172	0.00047
348.8	0.01505	0.00055
351.74	0.01932	0.00061
354.74	0.02471	0.0007
357.65	0.03132	0.0008
360.62	0.03975	0.00093
363.63	0.0499	0.00108
366.57	0.06283	0.00128
369.55	0.07803	0.00152
372.58	0.09733	0.00182
375.52	0.1198	0.0022
378.5	0.1483	0.0022

System: fluorene; phases: Liquid, Gas
Property: Vapor or sublimation pressure, kPa (Liquid); method: Closed cell (Static) method
Temperature, K	Vapor or sublimation pressure, kPa	uncertainty
386.48	0.2575	0.0031
389.43	0.3017	0.0035
392.38	0.3505	0.0039
395.34	0.4044	0.0044
398.32	0.4681	0.005
401.28	0.5363	0.0055
404.24	0.6173	0.0062
407.2	0.703	0.007
410.16	0.8066	0.0079
412.16	0.8819	0.0085

System: fluorene; phases: Crystal, Gas
Property: Vapor or sublimation pressure, kPa (Crystal); method: Calculated from knudsen effusion weight loss
Temperature, K	Vapor or sublimation pressure, kPa	uncertainty
292.2	4.08e-05	2.01e-05
292.2	4.14e-05	2.01e-05
292.2	4.35e-05	2.01e-05
294.13	5.45e-05	2.01e-05
294.13	5.36e-05	2.01e-05
294.13	5.54e-05	2.01e-05
296.1	6.79e-05	2.01e-05
296.1	6.84e-05	2.01e-05
296.1	6.5e-05	2.01e-05
298.19	8.94e-05	2.03e-05
298.19	8.37e-05	2.02e-05
298.19	8.86e-05	2.02e-05
300.15	0.000115	2e-05
300.15	0.000112	2e-05
300.15	0.00011	2e-05
302.1	0.00014	2.1e-05
302.1	0.000138	2.1e-05
302.1	0.000139	2.1e-05
304.18	0.000184	2.1e-05
304.18	0.000175	2.1e-05
304.18	0.000176	2.1e-05
306.14	0.000226	2.2e-05
306.14	0.000224	2.2e-05
306.14	0.000224	2.2e-05
308.1	0.000277	2.2e-05
308.1	0.000274	2.2e-05
308.1	0.00028	2.2e-05
310.17	0.000356	2.4e-05
310.17	0.000347	2.3e-05
310.17	0.000342	2.3e-05
312.14	0.000429	2.5e-05
312.14	0.00043	2.5e-05
312.14	0.000426	2.5e-05
314.1	0.000528	2.7e-05
314.1	0.00053	2.7e-05
314.1	0.000537	2.8e-05
316.17	0.000679	3.1e-05
316.17	0.000651	3.1e-05
316.17	0.000654	3.1e-05
318.13	0.000825	3.5e-05
318.13	0.000815	3.5e-05
318.13	0.000807	3.5e-05
320.1	0.001016	7.9e-05
320.1	0.001015	7.9e-05
320.1	0.001005	7.8e-05

Reaction: -1 fluorene + 13 carbon dioxide + 5 water + -15.5 oxygen
Property: Specific internal energy of reaction at constant volume, J/g
-39887.4

Reaction: 1 fluorene + -5 hydrogen + -13 graphite
Property: Molar enthalpy of reaction, kJ/mol
91.6
