Measured thermophysical data. High temperature heat capacity of Nd2Zr2O7 and La2Zr2O7 pyrochlores
Source: J. Chem. Thermodyn., 2005, 10.1016/j.jct.2005.01.013
Compound 1: neodymium(III) oxide, Nd2O3, InChI=1S/2Nd.3O/q2*+3;3*-2
Compound 2: lanthanum oxide, La2O3, InChI=1S/2La.3O/q2*+3;3*-2
Compound 3: lanthanum zirconium oxide, La2O7Zr2, InChI=1S/2La.7O.2Zr/q2*+3;7*-2;2*+4
Compound 4: dineodymium(III) dizirconium(IV) oxide, Nd2O7Zr2, InChI=1S/2Nd.7O.2Zr/q2*+3;7*-2;2*+4

System: neodymium(III) oxide; phases: Crystal
Property: Molar enthalpy, kJ/mol (Crystal); method: Drop calorimetry
Temperature, K	Pressure, kPa	Molar enthalpy, kJ/mol	uncertainty
790.2	101.325	62.8	1.59

System: neodymium(III) oxide; phases: Crystal
Fixed: Pressure, kPa = 101.325
Property: Molar enthalpy, kJ/mol (Crystal); method: Drop calorimetry
Temperature, K	Molar enthalpy, kJ/mol	uncertainty
890.3	77.5	14
990.9	94.72	11.75

System: neodymium(III) oxide; phases: Crystal
Property: Molar enthalpy, kJ/mol (Crystal); method: Drop calorimetry
Temperature, K	Pressure, kPa	Molar enthalpy, kJ/mol	uncertainty
1090.8	101.325	106.99	6.7

System: neodymium(III) oxide; phases: Crystal
Property: Molar enthalpy, kJ/mol (Crystal); method: Drop calorimetry
Temperature, K	Pressure, kPa	Molar enthalpy, kJ/mol	uncertainty
1191.2	101.325	113.54	5.27

System: neodymium(III) oxide; phases: Crystal
Property: Molar enthalpy, kJ/mol (Crystal); method: Drop calorimetry
Temperature, K	Pressure, kPa	Molar enthalpy, kJ/mol	uncertainty
1291.4	101.325	131.96	3.64

System: lanthanum oxide; phases: Crystal
Property: Molar enthalpy, kJ/mol (Crystal); method: Drop calorimetry
Temperature, K	Pressure, kPa	Molar enthalpy, kJ/mol	uncertainty
689.1	101.325	49.42	6.75

System: lanthanum oxide; phases: Crystal
Property: Molar enthalpy, kJ/mol (Crystal); method: Drop calorimetry
Temperature, K	Pressure, kPa	Molar enthalpy, kJ/mol	uncertainty
790	101.325	61.39	2.7

System: lanthanum oxide; phases: Crystal
Property: Molar enthalpy, kJ/mol (Crystal); method: Drop calorimetry
Temperature, K	Pressure, kPa	Molar enthalpy, kJ/mol	uncertainty
890.4	101.325	73.78	8.1

System: lanthanum oxide; phases: Crystal
Property: Molar enthalpy, kJ/mol (Crystal); method: Drop calorimetry
Temperature, K	Pressure, kPa	Molar enthalpy, kJ/mol	uncertainty
990.6	101.325	87.88	2.25

System: lanthanum oxide; phases: Crystal
Property: Molar enthalpy, kJ/mol (Crystal); method: Drop calorimetry
Temperature, K	Pressure, kPa	Molar enthalpy, kJ/mol	uncertainty
1090.8	101.325	101.69	4.13

System: lanthanum oxide; phases: Crystal
Property: Molar enthalpy, kJ/mol (Crystal); method: Drop calorimetry
Temperature, K	Pressure, kPa	Molar enthalpy, kJ/mol	uncertainty
1191.2	101.325	109.82	11.18

System: lanthanum oxide; phases: Crystal
Property: Molar enthalpy, kJ/mol (Crystal); method: Drop calorimetry
Temperature, K	Pressure, kPa	Molar enthalpy, kJ/mol	uncertainty
1291.6	101.325	124.7	9.23

System: lanthanum zirconium oxide; phases: Crystal
Fixed: Pressure, kPa = 101.325
Property: Molar enthalpy, kJ/mol (Crystal); method: Drop calorimetry
Temperature, K	Molar enthalpy, kJ/mol	uncertainty
888	153.07	12.1
987.3	186.2	15.13

System: lanthanum zirconium oxide; phases: Crystal
Property: Molar enthalpy, kJ/mol (Crystal); method: Drop calorimetry
Temperature, K	Pressure, kPa	Molar enthalpy, kJ/mol	uncertainty
1086.8	101.325	207.8	10.06

System: lanthanum zirconium oxide; phases: Crystal
Property: Molar enthalpy, kJ/mol (Crystal); method: Drop calorimetry
Temperature, K	Pressure, kPa	Molar enthalpy, kJ/mol	uncertainty
1186.7	101.325	229.43	9.69

System: lanthanum zirconium oxide; phases: Crystal
Property: Molar enthalpy, kJ/mol (Crystal); method: Drop calorimetry
Temperature, K	Pressure, kPa	Molar enthalpy, kJ/mol	uncertainty
1286.6	101.325	259.75	12.25

System: lanthanum zirconium oxide; phases: Crystal
Property: Molar enthalpy, kJ/mol (Crystal); method: Drop calorimetry
Temperature, K	Pressure, kPa	Molar enthalpy, kJ/mol	uncertainty
1386.5	101.325	297.69	17.07

System: lanthanum zirconium oxide; phases: Crystal
Property: Molar enthalpy, kJ/mol (Crystal); method: Drop calorimetry
Temperature, K	Pressure, kPa	Molar enthalpy, kJ/mol	uncertainty
1486.5	101.325	324.74	17.9

System: lanthanum zirconium oxide; phases: Crystal
Property: Molar enthalpy, kJ/mol (Crystal); method: Drop calorimetry
Temperature, K	Pressure, kPa	Molar enthalpy, kJ/mol	uncertainty
1567.3	101.325	338.91	27.48

System: dineodymium(III) dizirconium(IV) oxide; phases: Crystal
Property: Molar enthalpy, kJ/mol (Crystal); method: Drop calorimetry
Temperature, K	Pressure, kPa	Molar enthalpy, kJ/mol	uncertainty
484	101.325	49.28	18.55

System: dineodymium(III) dizirconium(IV) oxide; phases: Crystal
Property: Molar enthalpy, kJ/mol (Crystal); method: Drop calorimetry
Temperature, K	Pressure, kPa	Molar enthalpy, kJ/mol	uncertainty
586.4	101.325	76.44	3.08

System: dineodymium(III) dizirconium(IV) oxide; phases: Crystal
Property: Molar enthalpy, kJ/mol (Crystal); method: Drop calorimetry
Temperature, K	Pressure, kPa	Molar enthalpy, kJ/mol	uncertainty
687.5	101.325	102.33	6.48

System: dineodymium(III) dizirconium(IV) oxide; phases: Crystal
Property: Molar enthalpy, kJ/mol (Crystal); method: Drop calorimetry
Temperature, K	Pressure, kPa	Molar enthalpy, kJ/mol	uncertainty
788	101.325	130.71	7.07

System: dineodymium(III) dizirconium(IV) oxide; phases: Crystal
Property: Molar enthalpy, kJ/mol (Crystal); method: Drop calorimetry
Temperature, K	Pressure, kPa	Molar enthalpy, kJ/mol	uncertainty
888.1	101.325	160.99	12.89

System: dineodymium(III) dizirconium(IV) oxide; phases: Crystal
Property: Molar enthalpy, kJ/mol (Crystal); method: Drop calorimetry
Temperature, K	Pressure, kPa	Molar enthalpy, kJ/mol	uncertainty
987.9	101.325	188.93	15.32

System: dineodymium(III) dizirconium(IV) oxide; phases: Crystal
Property: Molar enthalpy, kJ/mol (Crystal); method: Drop calorimetry
Temperature, K	Pressure, kPa	Molar enthalpy, kJ/mol	uncertainty
1087.5	101.325	212.6	19.3

System: dineodymium(III) dizirconium(IV) oxide; phases: Crystal
Property: Molar enthalpy, kJ/mol (Crystal); method: Drop calorimetry
Temperature, K	Pressure, kPa	Molar enthalpy, kJ/mol	uncertainty
1187.4	101.325	235.32	11.1

System: dineodymium(III) dizirconium(IV) oxide; phases: Crystal
Property: Molar enthalpy, kJ/mol (Crystal); method: Drop calorimetry
Temperature, K	Pressure, kPa	Molar enthalpy, kJ/mol	uncertainty
1287.1	101.325	299.1	19.5

System: dineodymium(III) dizirconium(IV) oxide; phases: Crystal
Property: Molar enthalpy, kJ/mol (Crystal); method: Drop calorimetry
Temperature, K	Pressure, kPa	Molar enthalpy, kJ/mol	uncertainty
1387.1	101.325	303.88	22.06

System: dineodymium(III) dizirconium(IV) oxide; phases: Crystal
Property: Molar enthalpy, kJ/mol (Crystal); method: Drop calorimetry
Temperature, K	Pressure, kPa	Molar enthalpy, kJ/mol	uncertainty
1487.3	101.325	323.08	26.79
