Measured thermophysical data. Thermodynamic properties of pentaphenylantimony Ph5Sb over the range  from T - 0 K to 400 K
Source: J. Chem. Thermodyn., 2009, 10.1016/j.jct.2008.08.002
Compound 1: antimony oxide (Sb2O4), O4Sb2, InChI=1S/4O.2Sb
Compound 2: carbon dioxide, CO2, InChI=1S/CO2/c2-1-3
Compound 3: water, H2O, InChI=1S/H2O/h1H2
Compound 4: oxygen, O2, InChI=1S/O2/c1-2
Compound 5: pentaphenylantimony, C30H25Sb, InChI=1S/5C6H5.Sb/c5*1-2-4-6-5-3-1;/h5*1-5H;

System: pentaphenylantimony; phases: Crystal, Liquid, Air at 1 atmosphere
Property: Normal melting temperature, K (Crystal); method: DTA
Normal melting temperature, K	uncertainty
403.3	1.1

System: pentaphenylantimony; phases: Crystal
Fixed: Pressure, kPa = 101.325
Property: Molar heat capacity at constant pressure, J/K/mol (Crystal); method: Vacuum adiabatic calorimetry
Temperature, K	Molar heat capacity at constant pressure, J/K/mol	uncertainty
6.06	3.68	0.16
6.39	4.27	0.18
6.72	4.92	0.21
7.05	5.7	0.24
7.43	6.42	0.26
7.77	7.3	0.3
8.11	8.15	0.33
8.46	8.98	0.37
8.81	9.89	0.4
9.17	10.8	0.4
9.53	11.7	0.5
9.88	12.9	0.5
10.22	13.8	0.6
10.57	14.7	0.6
10.96	15.8	0.6
11.35	17	0.7
11.74	18.1	0.7
12.14	19.4	0.8
12.69	20.8	0.8
13.38	23	0.9
14.06	25.2	1
14.74	27.4	1.1
15.41	29.67	0.34
16.08	31.97	0.36
16.75	34.06	0.38
17.41	36.26	0.4
18.07	38.39	0.43
18.72	40.43	0.45
19.4	42.58	0.47
20.12	44.82	0.49
21.12	47.8	0.52
23.6	55.22	0.59
27.14	66.32	0.69
30.75	77.57	0.79
34.37	88.13	0.9
38.01	97.86	0.99
41.65	106.8	0.5
45.39	115.8	0.5
48.93	124	0.5
52.68	132.7	0.6
56.37	141.1	0.6
59.47	147.5	0.6
63.13	155.2	0.7
66.79	162.6	0.7
69.97	169.5	0.7
73.33	175.7	0.8
76.81	181.5	0.8
80.46	188	0.8
84.93	194.6	0.8
81.5	189.4	0.8
85.05	194.7	0.8
88.6	199.8	0.9
92.16	204.5	0.9
95.71	209.8	0.9
99.26	215	0.9
102.82	219.8	0.9
106.37	224.8	1
110.05	230.1	1
113.76	235.5	1
117.32	240.5	1
121.72	247.1	1
125.26	251.4	1.1
132.36	261.7	1.1
135.91	266.9	1.1
139.45	271.6	1.1
143	276.7	1.2
146.55	281.7	1.2
150.4	286.8	1.2
153.64	291	1.2
157.2	296.2	1.2
160.76	301.7	1.3
164.31	306.9	1.3
167.86	311.9	1.3
171.45	317	1.3
175	323.2	1.3
178.55	327.7	1.4
182.09	333	1.4
185.64	338.4	1.4
189.19	344.1	1.4
192.75	349.4	1.5
196.3	354.4	1.5
199.86	360.3	1.5
204.57	367.8	1.5
208.24	373.8	1.6
211.8	379.3	1.6
215.35	385.4	1.6
218.9	390.9	1.6
222.45	396.4	1.6
225.99	402.5	1.7
229.52	409.6	1.7
233.05	415.4	1.7
236.58	421.1	1.7
240.1	427.9	1.8
243.62	433.3	1.8
247.13	438.7	1.8
250.63	445.1	1.8
254.12	451.7	1.9
257.62	457	1.9
261.11	463.6	1.9
265.1	470.2	1.9
268.59	476.3	2
271.5	479.4	2
274.94	488	2
278.32	493	2
281.76	499.4	2.1
285.17	505.8	2.1
288.3	511.8	2.1
291.87	518.4	2.1
295.24	525.7	2.2
298.6	532.3	2.2
301.95	538.5	2.2
305.28	545.7	2.2
308.61	551.9	2.3
311.92	558.8	2.3
315.22	565.3	2.3
318.5	571.4	2.4
321.78	578.1	2.4
325.04	584.8	2.4
328.29	591	2.4
331.55	597.8	2.5
334.79	604.6	2.5
338.04	610.4	2.5
337.69	610.5	2.5
340.85	615.9	2.5
344.07	624.7	2.6
350.51	639.5	2.6

System: pentaphenylantimony; phases: Crystal
Fixed: Pressure, kPa = 101.325
Property: Molar heat capacity at constant pressure, J/K/mol (Crystal); method: Vacuum adiabatic calorimetry
Temperature, K	Molar heat capacity at constant pressure, J/K/mol	uncertainty
5	2.17	0.1
10	13.2	0.5
15	28.4	0.3
20	44.43	0.48
30	75.27	0.77
40	102.9	1
50	126.5	0.6
60	148.7	0.6
70	169.5	0.7
80	187	0.8
90	201.8	0.9
100	215.8	0.9
120	244.4	1
140	272.3	1.1
160	300.5	1.3
180	330	1.4
200	360.8	1.5
220	392.7	1.6
240	427.1	1.8
260	461.5	1.9
280	496.5	2
298.15	531	2.2
300	534.6	2.2
320	574.9	2.4
340	614.9	2.5
360	659	26
380	701	28
400	743	30
403.3	750	30

System: pentaphenylantimony; phases: Crystal
Fixed: Pressure, kPa = 101.325
Property: Molar enthalpy function {Hm(T)-Hm(0)}/T, J/K/mol (Crystal); method: Vacuum adiabatic calorimetry
Temperature, K	Molar enthalpy function {Hm(T)-Hm(0)}/T, J/K/mol	uncertainty
5	0.54	0.027
10	3.77	0.15
15	9.4	0.11
20	16.15	0.18
30	30.66	0.32
40	45.4	0.46
50	59.27	0.37
60	72.37	0.45
70	84.72	0.53
80	96.45	0.6
90	107.3	0.7
100	117.5	0.7
120	136.3	0.9
140	153.7	1
160	170.3	1.1
180	186.4	1.2
200	202.3	1.2
220	218.1	1.3
240	234.1	1.4
260	250.3	1.5
280	266.6	1.6
298.15	281.6	1.7
300	283.2	1.7
320	300.2	1.8
340	317.4	1.9
360	335	10
380	353	11
400	372	11
403.3	375	11

System: pentaphenylantimony; phases: Crystal
Fixed: Pressure, kPa = 101.325
Property: Molar entropy, J/K/mol (Crystal); method: Vacuum adiabatic calorimetry
Temperature, K	Molar entropy, J/K/mol	uncertainty
5	0.726	0.05
10	5.14	0.31
15	13.3	0.23
20	23.65	0.39
30	47.42	0.73
40	73.02	1.11
50	98.53	0.92
60	123.6	1.2
70	148.1	1.4
80	171.9	1.6
90	194.8	1.8
100	216.8	2
120	258.6	2.4
140	298.4	2.7
160	336.6	3.1
180	373.7	3.4
200	410	3.7
220	445.9	4.1
240	481.5	4.4
260	517.1	4.7
280	552.5	5
298.15	584.8	5.3
300	588.1	5.4
320	623.8	5.7
340	659.9	6
360	695.9	31.3
380	733	33
400	770	35
403.3	777	35

System: pentaphenylantimony; phases: Crystal
Fixed: Pressure, kPa = 101.325
Property: Molar heat capacity at constant pressure, J/K/mol (Crystal); method: Large sample (1 g) DSC
Temperature, K	Molar heat capacity at constant pressure, J/K/mol	uncertainty
326.8	589	25
328.6	592	25
330.3	595	25
331.9	597	25
333.5	603	26
335.1	603	26
336.6	610	26
338.1	610	26
339.6	612	26
341	617	26
342.4	622	26
343.8	623	26
345.1	628	27
346.5	629	27
347.8	635	27
349.2	638	27
350.5	639	27
351.9	643	27
353.3	647	27
354.7	649	28
356.1	654	28
357.5	655	28
358.9	659	28
360.4	663	28
361.9	666	28
363.4	670	28
365	674	29
367.3	679	29
368.1	681	29
369.7	686	29

Reaction: .5 antimony oxide (Sb2O4) + -1 pentaphenylantimony + 30 carbon dioxide + 12.5 water + -37.25 oxygen
Property: Molar enthalpy of reaction, kJ/mol
-16676.2
