Measured thermophysical data. Ionic association and interactions in aqueous methylsulfate alkyl-imidazolium-based ionic liquids
Source: J. Chem. Thermodyn., 2014, 10.1016/j.jct.2014.01.031
Compound 1: 1-ethyl-3-methylimidazolium methylsulfate, C7H14N2O4S, InChI=1S/C6H11N2.CH4O4S/c1-3-8-5-4-7(2)6-8;1-5-6(2,3)4/h4-6H,3H2,1-2H3;1H3,(H,2,3,4)/q+1;/p-1, purity 99.5%
Compound 2: 1-butyl-3-methylimidazolium methyl sulfate, C9H18N2O4S, InChI=1S/C8H15N2.CH4O4S/c1-3-4-5-10-7-6-9(2)8-10;1-5-6(2,3)4/h6-8H,3-5H2,1-2H3;1H3,(H,2,3,4)/q+1;/p-1, purity 99.5%
Compound 3: water, H2O, InChI=1S/H2O/h1H2

System: 1-ethyl-3-methylimidazolium methylsulfate; phases: Liquid
Property: Viscosity, Pa*s (Liquid); method: Falling or rolling sphere viscometry
Temperature, K	Pressure, kPa	Viscosity, Pa*s	uncertainty
298.15	101	0.0814	0.0027

System: 1-ethyl-3-methylimidazolium methylsulfate; phases: Liquid
Property: Electrical conductivity, S/m (Liquid); method: Alternating current cell with electrodes
Temperature, K	Pressure, kPa	Electrical conductivity, S/m	uncertainty
298.15	101	0.547	0.007

System: 1-ethyl-3-methylimidazolium methylsulfate; phases: Liquid
Property: Self diffusion coefficient, m2/s (Liquid); method: PFG NMR Spectroscopy
Temperature, K	Pressure, kPa	Self diffusion coefficient, m2/s	uncertainty
298.15	101	4.6e-11	0.005

System: 1-butyl-3-methylimidazolium methyl sulfate; phases: Liquid
Property: Viscosity, Pa*s (Liquid); method: Falling or rolling sphere viscometry
Temperature, K	Pressure, kPa	Viscosity, Pa*s	uncertainty
298.15	101	0.223	0.012

System: 1-butyl-3-methylimidazolium methyl sulfate; phases: Liquid
Property: Electrical conductivity, S/m (Liquid); method: Alternating current cell with electrodes
Temperature, K	Pressure, kPa	Electrical conductivity, S/m	uncertainty
298.15	101	0.126	0.002

System: 1-butyl-3-methylimidazolium methyl sulfate; phases: Liquid
Property: Self diffusion coefficient, m2/s (Liquid); method: PFG NMR Spectroscopy
Temperature, K	Pressure, kPa	Self diffusion coefficient, m2/s	uncertainty
298.15	101	1.3e-11	0.001

System: water; phases: Liquid
Property: Viscosity, Pa*s (Liquid); method: Falling or rolling sphere viscometry
Temperature, K	Pressure, kPa	Viscosity, Pa*s	uncertainty
298.15	101	0.00089	4e-05

System: water; phases: Liquid
Property: Self diffusion coefficient, m2/s (Liquid); method: PFG NMR Spectroscopy
Temperature, K	Pressure, kPa	Self diffusion coefficient, m2/s	uncertainty
298.15	101	2.3e-09	0.23

System: water + 1-ethyl-3-methylimidazolium methylsulfate; phases: Liquid
Fixed: Temperature, K = 298.15
Fixed: Pressure, kPa = 101
Property: Viscosity, Pa*s (Liquid); method: Falling or rolling sphere viscometry
Mole fraction of water	Viscosity, Pa*s	uncertainty
0	0.0814	0.0027
0.2542	0.0397	0.0013
0.4994	0.0202	0.0007
0.7519	0.00859	0.00031
0.8053	0.00662	0.00025
0.9249	0.00259	0.0001
0.9737	0.00143	6e-05
1	0.00089	4e-05

System: water + 1-ethyl-3-methylimidazolium methylsulfate; phases: Liquid
Fixed: Temperature, K = 298.15
Fixed: Pressure, kPa = 101
Property: Electrical conductivity, S/m (Liquid); method: Alternating current cell with electrodes
Mole fraction of water	Electrical conductivity, S/m	uncertainty
0	0.547	0.007
0.2542	0.909	0.011
0.4994	1.604	0.019
0.7519	3.159	0.038
0.8053	3.987	0.048
0.9249	6.232	0.075
0.9737	4.581	0.055

System: water + 1-ethyl-3-methylimidazolium methylsulfate; phases: Liquid
Fixed: Temperature, K = 298.15
Fixed: Pressure, kPa = 101
Property: Tracer diffusion coefficient, m2/s of 1-ethyl-3-methylimidazolium methylsulfate (Liquid); method: PFG NMR Spectroscopy
Mole fraction of water	Tracer diffusion coefficient, m2/s of 1-ethyl-3-methylimidazolium methylsulfate	uncertainty
0	0.046	0.005
0.2283	0.055	0.006
0.4679	0.131	0.013
0.7528	0.34	0.03
0.9269	1.06	0.11
0.9672	1.48	0.15

System: water + 1-ethyl-3-methylimidazolium methylsulfate; phases: Liquid
Fixed: Temperature, K = 298.15
Fixed: Pressure, kPa = 101
Property: Tracer diffusion coefficient, m2/s of water (Liquid); method: PFG NMR Spectroscopy
Mole fraction of water	Tracer diffusion coefficient, m2/s of water	uncertainty
0.2283	0.11	0.01
0.4679	0.27	0.03
0.7528	0.51	0.05
0.9269	1.34	0.13
0.9672	1.96	0.2
1	2.3	0.23

System: water + 1-butyl-3-methylimidazolium methyl sulfate; phases: Liquid
Fixed: Temperature, K = 298.15
Fixed: Pressure, kPa = 101
Property: Viscosity, Pa*s (Liquid); method: Falling or rolling sphere viscometry
Mole fraction of water	Viscosity, Pa*s	uncertainty
0	0.223	0.012
0.1999	0.112	0.004
0.4037	0.0631	0.0021
0.617	0.0276	0.001
0.7937	0.0115	0.0004
1	0.00089	4e-05

System: water + 1-butyl-3-methylimidazolium methyl sulfate; phases: Liquid
Fixed: Temperature, K = 298.15
Fixed: Pressure, kPa = 101
Property: Electrical conductivity, S/m (Liquid); method: Alternating current cell with electrodes
Mole fraction of water	Electrical conductivity, S/m	uncertainty
0	0.126	0.002
0.1999	0.247	0.003
0.4037	0.4	0.005
0.617	0.799	0.01
0.7937	1.772	0.021
0.9437	3.416	0.041
0.992	1.92	0.044
0.9977	0.849	0.039

System: water + 1-butyl-3-methylimidazolium methyl sulfate; phases: Liquid
Fixed: Temperature, K = 298.15
Fixed: Pressure, kPa = 101
Property: Tracer diffusion coefficient, m2/s of 1-butyl-3-methylimidazolium methyl sulfate (Liquid); method: PFG NMR Spectroscopy
Mole fraction of water	Tracer diffusion coefficient, m2/s of 1-butyl-3-methylimidazolium methyl sulfate	uncertainty
0	0.013	0.001
0.3185	0.043	0.004
0.4879	0.074	0.007
0.7464	0.23	0.02
0.7974	0.3	0.03
0.9279	0.8	0.08
0.9778	1.53	0.15

System: water + 1-butyl-3-methylimidazolium methyl sulfate; phases: Liquid
Fixed: Temperature, K = 298.15
Fixed: Pressure, kPa = 101
Property: Tracer diffusion coefficient, m2/s of water (Liquid); method: PFG NMR Spectroscopy
Mole fraction of water	Tracer diffusion coefficient, m2/s of water	uncertainty
0.3185	0.15	0.02
0.4879	0.12	0.01
0.7464	0.45	0.05
0.7974	0.45	0.05
0.9279	1.16	0.12
0.9778	1.98	0.2
1	2.3	0.23
