Measured thermophysical data. The high-temperature heat capacity of LnPO4 (Ln = La, Ce, Gd) by drop calorimetry
Source: J. Chem. Thermodyn., 2006, 10.1016/j.jct.2005.08.019
Compound 1: lanthanum orthophosphate, LaO4P, InChI=1S/La.H3O4P/c;1-5(2,3)4/h;(H3,1,2,3,4)/q+3;/p-3
Compound 2: cerium phosphate, CeO4P, InChI=1S/Ce.H3O4P/c;1-5(2,3)4/h;(H3,1,2,3,4)/q+3;/p-3
Compound 3: gadolinium orthophosphate, GdO4P, InChI=1S/Gd.H3O4P/c;1-5(2,3)4/h;(H3,1,2,3,4)/q+3;/p-3

System: lanthanum orthophosphate; phases: Crystal
Property: Molar enthalpy, kJ/mol (Crystal); method: Drop calorimetry
Temperature, K	Pressure, kPa	Molar enthalpy, kJ/mol	uncertainty
587.1	101.325	35.698	2.215

System: lanthanum orthophosphate; phases: Crystal
Property: Molar enthalpy, kJ/mol (Crystal); method: Drop calorimetry
Temperature, K	Pressure, kPa	Molar enthalpy, kJ/mol	uncertainty
688.3	101.325	49.267	2.423

System: lanthanum orthophosphate; phases: Crystal
Property: Molar enthalpy, kJ/mol (Crystal); method: Drop calorimetry
Temperature, K	Pressure, kPa	Molar enthalpy, kJ/mol	uncertainty
788.4	101.325	63.962	4.035

System: lanthanum orthophosphate; phases: Crystal
Property: Molar enthalpy, kJ/mol (Crystal); method: Drop calorimetry
Temperature, K	Pressure, kPa	Molar enthalpy, kJ/mol	uncertainty
888.2	101.325	76.545	3.418

System: lanthanum orthophosphate; phases: Crystal
Property: Molar enthalpy, kJ/mol (Crystal); method: Drop calorimetry
Temperature, K	Pressure, kPa	Molar enthalpy, kJ/mol	uncertainty
987.8	101.325	90.063	2.206

System: lanthanum orthophosphate; phases: Crystal
Property: Molar enthalpy, kJ/mol (Crystal); method: Drop calorimetry
Temperature, K	Pressure, kPa	Molar enthalpy, kJ/mol	uncertainty
1087.7	101.325	109.135	4.942

System: lanthanum orthophosphate; phases: Crystal
Property: Molar enthalpy, kJ/mol (Crystal); method: Drop calorimetry
Temperature, K	Pressure, kPa	Molar enthalpy, kJ/mol	uncertainty
1186.4	101.325	121.04	5.553

System: lanthanum orthophosphate; phases: Crystal
Property: Molar enthalpy, kJ/mol (Crystal); method: Drop calorimetry
Temperature, K	Pressure, kPa	Molar enthalpy, kJ/mol	uncertainty
1287.1	101.325	135.815	8.415

System: lanthanum orthophosphate; phases: Crystal
Property: Molar enthalpy, kJ/mol (Crystal); method: Drop calorimetry
Temperature, K	Pressure, kPa	Molar enthalpy, kJ/mol	uncertainty
1386	101.325	153.556	10.378

System: lanthanum orthophosphate; phases: Crystal
Property: Molar enthalpy, kJ/mol (Crystal); method: Drop calorimetry
Temperature, K	Pressure, kPa	Molar enthalpy, kJ/mol	uncertainty
1486.9	101.325	165.6	6.843

System: lanthanum orthophosphate; phases: Crystal
Property: Molar enthalpy, kJ/mol (Crystal); method: Drop calorimetry
Temperature, K	Pressure, kPa	Molar enthalpy, kJ/mol	uncertainty
1536.6	101.325	181.461	12.315

System: lanthanum orthophosphate; phases: Crystal
Property: Molar enthalpy, kJ/mol (Crystal); method: Drop calorimetry
Temperature, K	Pressure, kPa	Molar enthalpy, kJ/mol	uncertainty
1567.6	101.325	188.43	13.972

System: cerium phosphate; phases: Crystal
Property: Molar enthalpy, kJ/mol (Crystal); method: Drop calorimetry
Temperature, K	Pressure, kPa	Molar enthalpy, kJ/mol	uncertainty
1567.3	101.325	188.892	8.758

System: cerium phosphate; phases: Crystal
Property: Molar enthalpy, kJ/mol (Crystal); method: Drop calorimetry
Temperature, K	Pressure, kPa	Molar enthalpy, kJ/mol	uncertainty
687.5	101.325	49.271	3.092

System: cerium phosphate; phases: Crystal
Property: Molar enthalpy, kJ/mol (Crystal); method: Drop calorimetry
Temperature, K	Pressure, kPa	Molar enthalpy, kJ/mol	uncertainty
788	101.325	65.605	5.036

System: cerium phosphate; phases: Crystal
Property: Molar enthalpy, kJ/mol (Crystal); method: Drop calorimetry
Temperature, K	Pressure, kPa	Molar enthalpy, kJ/mol	uncertainty
887.4	101.325	81.071	3.814

System: cerium phosphate; phases: Crystal
Property: Molar enthalpy, kJ/mol (Crystal); method: Drop calorimetry
Temperature, K	Pressure, kPa	Molar enthalpy, kJ/mol	uncertainty
987.6	101.325	92.497	6.132

System: cerium phosphate; phases: Crystal
Property: Molar enthalpy, kJ/mol (Crystal); method: Drop calorimetry
Temperature, K	Pressure, kPa	Molar enthalpy, kJ/mol	uncertainty
1087.4	101.325	109.537	6.88

System: cerium phosphate; phases: Crystal
Property: Molar enthalpy, kJ/mol (Crystal); method: Drop calorimetry
Temperature, K	Pressure, kPa	Molar enthalpy, kJ/mol	uncertainty
1186.7	101.325	121.073	6.163

System: cerium phosphate; phases: Crystal
Property: Molar enthalpy, kJ/mol (Crystal); method: Drop calorimetry
Temperature, K	Pressure, kPa	Molar enthalpy, kJ/mol	uncertainty
1187.1	101.325	119.472	6.396

System: cerium phosphate; phases: Crystal
Property: Molar enthalpy, kJ/mol (Crystal); method: Drop calorimetry
Temperature, K	Pressure, kPa	Molar enthalpy, kJ/mol	uncertainty
1236.1	101.325	128.883	5.46

System: cerium phosphate; phases: Crystal
Property: Molar enthalpy, kJ/mol (Crystal); method: Drop calorimetry
Temperature, K	Pressure, kPa	Molar enthalpy, kJ/mol	uncertainty
1236.9	101.325	134.577	14.576

System: cerium phosphate; phases: Crystal
Property: Molar enthalpy, kJ/mol (Crystal); method: Drop calorimetry
Temperature, K	Pressure, kPa	Molar enthalpy, kJ/mol	uncertainty
1286.6	101.325	138.857	7.315

System: cerium phosphate; phases: Crystal
Property: Molar enthalpy, kJ/mol (Crystal); method: Drop calorimetry
Temperature, K	Pressure, kPa	Molar enthalpy, kJ/mol	uncertainty
1286.7	101.325	134.905	7.886

System: cerium phosphate; phases: Crystal
Property: Molar enthalpy, kJ/mol (Crystal); method: Drop calorimetry
Temperature, K	Pressure, kPa	Molar enthalpy, kJ/mol	uncertainty
1336.7	101.325	144.462	9.625

System: cerium phosphate; phases: Crystal
Property: Molar enthalpy, kJ/mol (Crystal); method: Drop calorimetry
Temperature, K	Pressure, kPa	Molar enthalpy, kJ/mol	uncertainty
1386.6	101.325	160.019	5.643

System: cerium phosphate; phases: Crystal
Property: Molar enthalpy, kJ/mol (Crystal); method: Drop calorimetry
Temperature, K	Pressure, kPa	Molar enthalpy, kJ/mol	uncertainty
1387.1	101.325	150.464	10.109

System: cerium phosphate; phases: Crystal
Property: Molar enthalpy, kJ/mol (Crystal); method: Drop calorimetry
Temperature, K	Pressure, kPa	Molar enthalpy, kJ/mol	uncertainty
1437.1	101.325	168.43	14.699

System: cerium phosphate; phases: Crystal
Property: Molar enthalpy, kJ/mol (Crystal); method: Drop calorimetry
Temperature, K	Pressure, kPa	Molar enthalpy, kJ/mol	uncertainty
1486.9	101.325	169.832	7.745

System: cerium phosphate; phases: Crystal
Property: Molar enthalpy, kJ/mol (Crystal); method: Drop calorimetry
Temperature, K	Pressure, kPa	Molar enthalpy, kJ/mol	uncertainty
1536.5	101.325	174.811	8.433

System: gadolinium orthophosphate; phases: Crystal
Property: Molar enthalpy, kJ/mol (Crystal); method: Drop calorimetry
Temperature, K	Pressure, kPa	Molar enthalpy, kJ/mol	uncertainty
515.3	101.325	25.114	1.065

System: gadolinium orthophosphate; phases: Crystal
Property: Molar enthalpy, kJ/mol (Crystal); method: Drop calorimetry
Temperature, K	Pressure, kPa	Molar enthalpy, kJ/mol	uncertainty
586.7	101.325	34.219	2.889

System: gadolinium orthophosphate; phases: Crystal
Property: Molar enthalpy, kJ/mol (Crystal); method: Drop calorimetry
Temperature, K	Pressure, kPa	Molar enthalpy, kJ/mol	uncertainty
687.5	101.325	49.065	1.753

System: gadolinium orthophosphate; phases: Crystal
Property: Molar enthalpy, kJ/mol (Crystal); method: Drop calorimetry
Temperature, K	Pressure, kPa	Molar enthalpy, kJ/mol	uncertainty
787.7	101.325	62.72	2.946

System: gadolinium orthophosphate; phases: Crystal
Property: Molar enthalpy, kJ/mol (Crystal); method: Drop calorimetry
Temperature, K	Pressure, kPa	Molar enthalpy, kJ/mol	uncertainty
887.5	101.325	76.555	4.123

System: gadolinium orthophosphate; phases: Crystal
Property: Molar enthalpy, kJ/mol (Crystal); method: Drop calorimetry
Temperature, K	Pressure, kPa	Molar enthalpy, kJ/mol	uncertainty
987.2	101.325	89.579	4.537

System: gadolinium orthophosphate; phases: Crystal
Property: Molar enthalpy, kJ/mol (Crystal); method: Drop calorimetry
Temperature, K	Pressure, kPa	Molar enthalpy, kJ/mol	uncertainty
1086.6	101.325	105.561	6.161

System: gadolinium orthophosphate; phases: Crystal
Property: Molar enthalpy, kJ/mol (Crystal); method: Drop calorimetry
Temperature, K	Pressure, kPa	Molar enthalpy, kJ/mol	uncertainty
1186.5	101.325	119.285	10.523

System: gadolinium orthophosphate; phases: Crystal
Property: Molar enthalpy, kJ/mol (Crystal); method: Drop calorimetry
Temperature, K	Pressure, kPa	Molar enthalpy, kJ/mol	uncertainty
1286.4	101.325	134.072	8.293

System: gadolinium orthophosphate; phases: Crystal
Property: Molar enthalpy, kJ/mol (Crystal); method: Drop calorimetry
Temperature, K	Pressure, kPa	Molar enthalpy, kJ/mol	uncertainty
1386.2	101.325	143.349	13.571

System: gadolinium orthophosphate; phases: Crystal
Property: Molar enthalpy, kJ/mol (Crystal); method: Drop calorimetry
Temperature, K	Pressure, kPa	Molar enthalpy, kJ/mol	uncertainty
1386.3	101.325	146.329	12.451

System: gadolinium orthophosphate; phases: Crystal
Property: Molar enthalpy, kJ/mol (Crystal); method: Drop calorimetry
Temperature, K	Pressure, kPa	Molar enthalpy, kJ/mol	uncertainty
1486.9	101.325	162.356	9.7

System: gadolinium orthophosphate; phases: Crystal
Property: Molar enthalpy, kJ/mol (Crystal); method: Drop calorimetry
Temperature, K	Pressure, kPa	Molar enthalpy, kJ/mol	uncertainty
1566.8	101.325	175.046	11.388
