Measured thermophysical data. Solubility and thermodynamics of vitamin C in binary liquid mixtures involving water, methanol, ethanol and isopropanol at different temperatures
Source: J. Chem. Thermodyn., 2018, 10.1016/j.jct.2018.02.005
Compound 1: water, H2O, InChI=1S/H2O/h1H2
Compound 2: methanol, CH4O, InChI=1S/CH4O/c1-2/h2H,1H3, purity 99.9%
Compound 3: ethanol, C2H6O, InChI=1S/C2H6O/c1-2-3/h3H,2H2,1H3, purity 99.5%
Compound 4: propan-2-ol, C3H8O, InChI=1S/C3H8O/c1-3(2)4/h3-4H,1-2H3, purity 99.5%
Compound 5: L-ascorbic acid, C6H8O6, InChI=1S/C6H8O6/c7-1-2(8)5-3(9)4(10)6(11)12-5/h2,5,7-10H,1H2/t2-,5+/m0/s1, purity 99.5%
Compound 6: 1,6-hexanedioic acid, C6H10O4, InChI=1S/C6H10O4/c7-5(8)3-1-2-4-6(9)10/h1-4H2,(H,7,8)(H,9,10), purity 99.5%

System: water; phases: Liquid
Property: Refractive index (Na D-line) (Liquid); method: Standard Abbe refractometry
Temperature, K	Pressure, kPa	Refractive index (Na D-line)	uncertainty
298.15	100	1.33251	0.00031

System: methanol; phases: Liquid
Property: Refractive index (Na D-line) (Liquid); method: Standard Abbe refractometry
Temperature, K	Pressure, kPa	Refractive index (Na D-line)	uncertainty
298.15	100	1.32655	0.00031

System: ethanol; phases: Liquid
Property: Refractive index (Na D-line) (Liquid); method: Standard Abbe refractometry
Temperature, K	Pressure, kPa	Refractive index (Na D-line)	uncertainty
298.15	100	1.35947	0.00033

System: propan-2-ol; phases: Liquid
Property: Refractive index (Na D-line) (Liquid); method: Standard Abbe refractometry
Temperature, K	Pressure, kPa	Refractive index (Na D-line)	uncertainty
298.15	100	1.37503	0.00033

System: L-ascorbic acid + methanol + ethanol; phases: Liquid, Crystal
Fixed: Pressure, kPa = 100
Property: Mole fraction of L-ascorbic acid (Liquid); method: gravimetric
Solvent: Mole fraction of ethanol	Temperature, K	Mole fraction of L-ascorbic acid	uncertainty
1	293.15	0.00531	0.00049
0.9002	293.15	0.00597	0.00055
0.8	293.15	0.00662	0.00061
0.7	293.15	0.00742	0.00068
0.6	293.15	0.00829	0.00076
0.5	293.15	0.00932	0.00085
0.4004	293.15	0.01051	0.00096
0.2999	293.15	0.01132	0.00104
0.2	293.15	0.01275	0.00117
0.1001	293.15	0.01505	0.00138
0	293.15	0.01629	0.00148
1	303.15	0.00689	0.00063
0.9002	303.15	0.00765	0.0007
0.8	303.15	0.00847	0.00077
0.7	303.15	0.00934	0.00085
0.6	303.15	0.01043	0.00095
0.5	303.15	0.01159	0.00106
0.4004	303.15	0.01309	0.00119
0.2999	303.15	0.01464	0.00133
0.2	303.15	0.01657	0.00151
0.1001	303.15	0.01859	0.00169
0	303.15	0.02005	0.00182
1	313.15	0.00914	0.00084
0.9002	313.15	0.00997	0.00091
0.8	313.15	0.01092	0.001
0.7	313.15	0.01207	0.0011
0.6	313.15	0.01324	0.00121
0.5	313.15	0.01469	0.00134
0.4004	313.15	0.01652	0.00151
0.2999	313.15	0.0183	0.00167
0.2	313.15	0.02062	0.00188
0.1001	313.15	0.02309	0.0021
0	313.15	0.02491	0.00226
1	323.15	0.01204	0.0011
0.9002	323.15	0.01314	0.0012
0.8	323.15	0.01426	0.0013
0.7	323.15	0.01567	0.00143
0.6	323.15	0.01703	0.00155
0.5	323.15	0.01877	0.00171
0.4004	323.15	0.02102	0.00191
0.2999	323.15	0.02302	0.00209
0.2	323.15	0.0259	0.00235
0.1001	323.15	0.02893	0.00262
0	323.15	0.03013	0.00273

System: L-ascorbic acid + methanol + propan-2-ol; phases: Liquid, Crystal
Fixed: Pressure, kPa = 100
Property: Mole fraction of L-ascorbic acid (Liquid); method: gravimetric
Solvent: Mole fraction of propan-2-ol	Temperature, K	Mole fraction of L-ascorbic acid	uncertainty
1	293.15	0.00222	0.00021
0.8999	293.15	0.00253	0.00024
0.8	293.15	0.00287	0.00027
0.7	293.15	0.00337	0.00031
0.6	293.15	0.00405	0.00037
0.5	293.15	0.00492	0.00045
0.4	293.15	0.00615	0.00056
0.3002	293.15	0.00782	0.00071
0.2	293.15	0.01012	0.00092
0.1	293.15	0.01324	0.00121
0	293.15	0.01629	0.00148
1	303.15	0.00318	0.00029
0.8999	303.15	0.00359	0.00033
0.8	303.15	0.00399	0.00037
0.7	303.15	0.00455	0.00042
0.6	303.15	0.00527	0.00048
0.5	303.15	0.00634	0.00058
0.4	303.15	0.00784	0.00072
0.3002	303.15	0.00979	0.00089
0.2	303.15	0.01249	0.00114
0.1	303.15	0.01619	0.00147
0	303.15	0.02005	0.00182
1	313.15	0.00456	0.00042
0.8999	313.15	0.00493	0.00046
0.8	313.15	0.00542	0.0005
0.7	313.15	0.00611	0.00056
0.6	313.15	0.00697	0.00064
0.5	313.15	0.00825	0.00076
0.4	313.15	0.01008	0.00092
0.3002	313.15	0.01244	0.00114
0.2	313.15	0.01574	0.00144
0.1	313.15	0.02023	0.00184
0	313.15	0.02491	0.00226
1	323.15	0.00636	0.00058
0.8999	323.15	0.00696	0.00064
0.8	323.15	0.00752	0.00069
0.7	323.15	0.00841	0.00077
0.6	323.15	0.00933	0.00085
0.5	323.15	0.01095	0.001
0.4	323.15	0.01322	0.00121
0.3002	323.15	0.01601	0.00146
0.2	323.15	0.02005	0.00183
0.1	323.15	0.02557	0.00232
0	323.15	0.03013	0.00273

System: L-ascorbic acid + ethanol + propan-2-ol; phases: Liquid, Crystal
Fixed: Pressure, kPa = 100
Property: Mole fraction of L-ascorbic acid (Liquid); method: gravimetric
Solvent: Mole fraction of propan-2-ol	Temperature, K	Mole fraction of L-ascorbic acid	uncertainty
1	293.15	0.00222	0.00021
0.9	293.15	0.00243	0.00023
0.7999	293.15	0.00259	0.00024
0.7	293.15	0.00277	0.00026
0.5999	293.15	0.00292	0.00027
0.4999	293.15	0.00315	0.00029
0.4	293.15	0.00348	0.00032
0.3	293.15	0.00382	0.00035
0.2	293.15	0.00426	0.00039
0.1	293.15	0.00479	0.00044
0	293.15	0.00531	0.00049
1	303.15	0.00318	0.00029
0.9	303.15	0.00336	0.00031
0.7999	303.15	0.00356	0.00033
0.7	303.15	0.00376	0.00035
0.5999	303.15	0.00404	0.00037
0.4999	303.15	0.00432	0.0004
0.4	303.15	0.0047	0.00043
0.3	303.15	0.00514	0.00047
0.2	303.15	0.00569	0.00052
0.1	303.15	0.0063	0.00058
0	303.15	0.00689	0.00063
1	313.15	0.00456	0.00042
0.9	313.15	0.00492	0.00045
0.7999	313.15	0.00507	0.00047
0.7	313.15	0.00515	0.00048
0.5999	313.15	0.00551	0.00051
0.4999	313.15	0.00584	0.00054
0.4	313.15	0.00632	0.00058
0.3	313.15	0.00693	0.00064
0.2	313.15	0.00761	0.0007
0.1	313.15	0.00838	0.00077
0	313.15	0.00914	0.00084
1	323.15	0.00636	0.00058
0.9	323.15	0.00674	0.00062
0.7999	323.15	0.00699	0.00064
0.7	323.15	0.00731	0.00067
0.5999	323.15	0.00759	0.0007
0.4999	323.15	0.00801	0.00073
0.4	323.15	0.00865	0.00079
0.3	323.15	0.00938	0.00086
0.2	323.15	0.01022	0.00093
0.1	323.15	0.01124	0.00103
0	323.15	0.01204	0.0011

System: L-ascorbic acid + water + ethanol; phases: Liquid, Crystal
Fixed: Pressure, kPa = 100
Property: Mole fraction of L-ascorbic acid (Liquid); method: gravimetric
Solvent: Mole fraction of ethanol	Temperature, K	Mole fraction of L-ascorbic acid	uncertainty
1	293.15	0.00531	0.00049
0.9	293.15	0.00736	0.00068
0.7998	293.15	0.01037	0.00095
0.6999	293.15	0.01397	0.00129
0.5999	293.15	0.01776	0.00163
0.5	293.15	0.02137	0.00196
0.4	293.15	0.02424	0.00223
0.3001	293.15	0.02594	0.0024
0.2	293.15	0.02625	0.00244
0.1	293.15	0.02673	0.00247
0	293.15	0.02705	0.00251
1	303.15	0.00689	0.00063
0.9	303.15	0.00991	0.00091
0.7998	303.15	0.01381	0.00127
0.6999	303.15	0.01845	0.00169
0.5999	303.15	0.02326	0.00213
0.5	303.15	0.02763	0.00252
0.4	303.15	0.03148	0.00287
0.3001	303.15	0.03497	0.0032
0.2	303.15	0.03616	0.00332
0.1	303.15	0.03619	0.00332
0	303.15	0.0369	0.00338
1	313.15	0.00914	0.00084
0.9	313.15	0.01302	0.00119
0.7998	313.15	0.01804	0.00165
0.6999	313.15	0.02396	0.00219
0.5999	313.15	0.0302	0.00276
0.5	313.15	0.03563	0.00326
0.4	313.15	0.04001	0.00365
0.3001	313.15	0.04511	0.00411
0.2	313.15	0.0472	0.0043
0.1	313.15	0.04779	0.00435
0	313.15	0.0481	0.00438
1	323.15	0.01204	0.0011
0.9	323.15	0.01746	0.0016
0.7998	323.15	0.02356	0.00215
0.6999	323.15	0.03096	0.00282
0.5999	323.15	0.03889	0.00354
0.5	323.15	0.04622	0.0042
0.4	323.15	0.05193	0.00473
0.3001	323.15	0.05623	0.0051
0.2	323.15	0.05734	0.0052
0.1	323.15	0.05788	0.00525
0	323.15	0.05932	0.00538

System: L-ascorbic acid + water + propan-2-ol; phases: Liquid, Crystal
Fixed: Pressure, kPa = 100
Property: Mole fraction of L-ascorbic acid (Liquid); method: gravimetric
Solvent: Mole fraction of propan-2-ol	Temperature, K	Mole fraction of L-ascorbic acid	uncertainty
1	293.15	0.00222	0.00021
0.8995	293.15	0.00449	0.00041
0.7988	293.15	0.00715	0.00066
0.6984	293.15	0.01045	0.00096
0.5981	293.15	0.01389	0.00128
0.4981	293.15	0.01743	0.0016
0.4	293.15	0.02095	0.00193
0.3001	293.15	0.0232	0.00215
0.2	293.15	0.02424	0.00227
0.1	293.15	0.02573	0.00239
0	293.15	0.02705	0.00251
1	303.15	0.00318	0.00029
0.8995	303.15	0.00612	0.00056
0.7988	303.15	0.0096	0.00088
0.6984	303.15	0.0138	0.00127
0.5981	303.15	0.01825	0.00167
0.4981	303.15	0.0227	0.00208
0.4	303.15	0.02749	0.00251
0.3001	303.15	0.03158	0.00289
0.2	303.15	0.03451	0.00317
0.1	303.15	0.03553	0.00326
0	303.15	0.0369	0.00338
1	313.15	0.00456	0.00042
0.8995	313.15	0.00836	0.00077
0.7988	313.15	0.01292	0.00119
0.6984	313.15	0.0183	0.00167
0.5981	313.15	0.02372	0.00217
0.4981	313.15	0.02945	0.00269
0.4	313.15	0.03545	0.00323
0.3001	313.15	0.04059	0.0037
0.2	313.15	0.04473	0.00408
0.1	313.15	0.04645	0.00424
0	313.15	0.0481	0.00438
1	323.15	0.00636	0.00058
0.8995	323.15	0.01127	0.00103
0.7988	323.15	0.01717	0.00157
0.6984	323.15	0.02364	0.00215
0.5981	323.15	0.03039	0.00277
0.4981	323.15	0.03767	0.00342
0.4	323.15	0.04339	0.00394
0.3001	323.15	0.05092	0.00462
0.2	323.15	0.05613	0.00509
0.1	323.15	0.05863	0.00532
0	323.15	0.05932	0.00538

System: L-ascorbic acid + ethanol; phases: Liquid, Crystal
Fixed: Pressure, kPa = 100
Property: Mole fraction of L-ascorbic acid (Liquid); method: gravimetric
Temperature, K	Mole fraction of L-ascorbic acid	uncertainty
293.15	0.00531	0.00049
303.15	0.00689	0.00063
313.15	0.00914	0.00084
323.15	0.01204	0.0011

System: L-ascorbic acid + methanol; phases: Liquid, Crystal
Fixed: Pressure, kPa = 100
Property: Mole fraction of L-ascorbic acid (Liquid); method: gravimetric
Temperature, K	Mole fraction of L-ascorbic acid	uncertainty
293.15	0.01629	0.00148
303.15	0.02005	0.00182
313.15	0.02491	0.00226
323.15	0.03013	0.00273

System: L-ascorbic acid + propan-2-ol; phases: Liquid, Crystal
Fixed: Pressure, kPa = 100
Property: Mole fraction of L-ascorbic acid (Liquid); method: gravimetric
Temperature, K	Mole fraction of L-ascorbic acid	uncertainty
293.15	0.00222	0.00021
303.15	0.00318	0.00029
313.15	0.00456	0.00042
323.15	0.00636	0.00058

System: L-ascorbic acid + water; phases: Liquid, Crystal
Fixed: Pressure, kPa = 100
Property: Mole fraction of L-ascorbic acid (Liquid); method: gravimetric
Temperature, K	Mole fraction of L-ascorbic acid	uncertainty
293.15	0.02705	0.00251
303.15	0.0369	0.00338
313.15	0.0481	0.00438
323.15	0.05932	0.00538

System: 1,6-hexanedioic acid + water; phases: Liquid, Crystal
Fixed: Pressure, kPa = 100
Property: Mole fraction of 1,6-hexanedioic acid (Liquid); method: gravimetric
Temperature, K	Mole fraction of 1,6-hexanedioic acid	uncertainty
293.15	0.0023	0.00015
303.15	0.00386	0.00023
313.15	0.0065	0.0004
323.15	0.01179	0.00067

System: 1,6-hexanedioic acid + ethanol; phases: Liquid, Crystal
Fixed: Pressure, kPa = 100
Property: Mole fraction of 1,6-hexanedioic acid (Liquid); method: gravimetric
Temperature, K	Mole fraction of 1,6-hexanedioic acid	uncertainty
293.15	0.03288	0.00185
303.15	0.04699	0.00254
313.15	0.06521	0.00353
323.15	0.09171	0.00486
