Measured thermophysical data. Ultrasonic velocities, densities, and excess molar volumes of binary mixtures of N,N-dimethyl formamide with methyl acrylate, or ethyl acrylate, or butyl  acrylate, or 2-ethyl hexyl acrylate at T = 308.15 K
Source: J. Chem. Thermodyn., 2011, 10.1016/j.jct.2011.06.011
Compound 1: dimethylformamide, C3H7NO, InChI=1S/C3H7NO/c1-4(2)3-5/h3H,1-2H3, purity 99%
Compound 2: methyl propenoate, C4H6O2, InChI=1S/C4H6O2/c1-3-4(5)6-2/h3H,1H2,2H3, purity 99%
Compound 3: ethyl propenoate, C5H8O2, InChI=1S/C5H8O2/c1-3-5(6)7-4-2/h3H,1,4H2,2H3, purity 99%
Compound 4: butyl 2-propenoate, C7H12O2, InChI=1S/C7H12O2/c1-3-5-6-9-7(8)4-2/h4H,2-3,5-6H2,1H3, purity 99%
Compound 5: 2-ethylhexyl 2-propenoate, C11H20O2, InChI=1S/C11H20O2/c1-4-7-8-10(5-2)9-13-11(12)6-3/h6,10H,3-5,7-9H2,1-2H3, purity 99%

System: dimethylformamide + methyl propenoate; phases: Liquid
Fixed: Pressure, kPa = 101
Fixed: Temperature, K = 308.15
Property: Speed of sound, m/s (Liquid); method: Linear variable-path acoustic interferometer
Mole fraction of dimethylformamide	Speed of sound, m/s	uncertainty
0	1132.6	4.78
0.11751	1157.43	4.88
0.22835	1182.22	4.98
0.33863	1208.25	5.08
0.4401	1233.91	5.18
0.54157	1261.5	5.29
0.63671	1290.15	5.41
0.73224	1321.6	5.53
0.82577	1354.67	5.66
0.91949	1390.53	5.81
1	1424.3	5.94

System: dimethylformamide + methyl propenoate; phases: Liquid
Fixed: Pressure, kPa = 101
Fixed: Temperature, K = 308.15
Property: Mass density, kg/m3 (Liquid); method: Pycnometric method
Mole fraction of dimethylformamide	Mass density, kg/m3	uncertainty
0	937.13	0.55
0.11751	924.97	0.53
0.22835	915.96	0.53
0.33863	913.5	0.52
0.4401	914.67	0.53
0.54157	916.46	0.53
0.63671	918.7	0.53
0.73224	922.32	0.53
0.82577	926.11	0.54
0.91949	931.65	0.54
1	935.88	0.54

System: dimethylformamide + ethyl propenoate; phases: Liquid
Fixed: Pressure, kPa = 101
Fixed: Temperature, K = 308.15
Property: Speed of sound, m/s (Liquid); method: Linear variable-path acoustic interferometer
Mole fraction of dimethylformamide	Speed of sound, m/s	uncertainty
0	1122	4.74
0.13626	1150.91	4.85
0.25387	1177.45	4.96
0.3805	1208.75	5.08
0.48592	1236.96	5.2
0.59136	1267.64	5.32
0.67931	1295.45	5.43
0.76745	1326.7	5.55
0.84752	1357.33	5.68
0.92761	1391.54	5.81
1	1424.3	5.94

System: dimethylformamide + ethyl propenoate; phases: Liquid
Fixed: Pressure, kPa = 101
Fixed: Temperature, K = 308.15
Property: Mass density, kg/m3 (Liquid); method: Pycnometric method
Mole fraction of dimethylformamide	Mass density, kg/m3	uncertainty
0	903.78	0.52
0.13626	897.04	0.51
0.25387	895.06	0.51
0.3805	896.08	0.51
0.48592	900.9	0.51
0.59136	906.5	0.52
0.67931	912.27	0.52
0.76745	917.97	0.53
0.84752	924.68	0.53
0.92761	930.43	0.54
1	935.88	0.54

System: dimethylformamide + butyl 2-propenoate; phases: Liquid
Fixed: Pressure, kPa = 101
Fixed: Temperature, K = 308.15
Property: Speed of sound, m/s (Liquid); method: Linear variable-path acoustic interferometer
Mole fraction of dimethylformamide	Speed of sound, m/s	uncertainty
0	1168.56	4.92
0.16988	1194.7	5.03
0.30775	1219.52	5.13
0.44561	1246.5	5.23
0.54877	1269.2	5.32
0.65275	1297.09	5.44
0.73279	1323	5.54
0.81323	1350.34	5.65
0.847	1362.47	5.7
0.94275	1401.26	5.85
1	1424.3	5.94

System: dimethylformamide + butyl 2-propenoate; phases: Liquid
Fixed: Pressure, kPa = 101
Fixed: Temperature, K = 308.15
Property: Mass density, kg/m3 (Liquid); method: Pycnometric method
Mole fraction of dimethylformamide	Mass density, kg/m3	uncertainty
0	885.4	0.5
0.16988	882.93	0.5
0.30775	883.92	0.5
0.44561	891.03	0.51
0.54877	897.06	0.51
0.65275	904.42	0.52
0.73279	910.66	0.52
0.81323	917.38	0.53
0.88759	924.71	0.53
0.94275	930	0.54
1	935.88	0.54

System: dimethylformamide + 2-ethylhexyl 2-propenoate; phases: Liquid
Fixed: Pressure, kPa = 101
Fixed: Temperature, K = 308.15
Property: Speed of sound, m/s (Liquid); method: Linear variable-path acoustic interferometer
Mole fraction of dimethylformamide	Speed of sound, m/s	uncertainty
0	1229.4	5.17
0.22421	1247.2	5.24
0.38077	1263	5.3
0.541	1285.8	5.39
0.642	1304.03	5.46
0.73403	1328.38	5.56
0.79928	1345.68	5.63
0.86454	1366.27	5.71
0.91274	1386.59	5.79
0.96093	1404.89	5.87
1	1424.3	5.94

System: dimethylformamide + 2-ethylhexyl 2-propenoate; phases: Liquid
Fixed: Pressure, kPa = 101
Fixed: Temperature, K = 308.15
Property: Mass density, kg/m3 (Liquid); method: Pycnometric method
Mole fraction of dimethylformamide	Mass density, kg/m3	uncertainty
0	875	0.49
0.22421	877.06	0.49
0.38077	881.3	0.5
0.53704	889.4	0.5
0.63443	895.86	0.51
0.73403	903.77	0.52
0.79928	909.72	0.52
0.86454	917	0.53
0.898	924.93	0.53
0.96093	929.69	0.54
1	935.88	0.54
