Measured thermophysical data. Solubility determination and correlation for o-phenylenediamine in (methanol, ethanol, acetonitrile and water) and their binary solvents from T = (283.15-318.15) K
Source: J. Chem. Thermodyn., 2017, 10.1016/j.jct.2016.10.018
Compound 1: 1,2-benzenediamine, C6H8N2, InChI=1S/C6H8N2/c7-5-3-1-2-4-6(5)8/h1-4H,7-8H2, purity 98.2%
Compound 2: acetonitrile, C2H3N, InChI=1S/C2H3N/c1-2-3/h1H3, purity 99.3%
Compound 3: methanol, CH4O, InChI=1S/CH4O/c1-2/h2H,1H3, purity 99.6%
Compound 4: ethanol, C2H6O, InChI=1S/C2H6O/c1-2-3/h3H,2H2,1H3, purity 99.5%
Compound 5: water, H2O, InChI=1S/H2O/h1H2

System: methanol + 1,2-benzenediamine + water; phases: Liquid, Crystal
Fixed: Pressure, kPa = 101.1
Property: Mole fraction of 1,2-benzenediamine (Liquid); method: Chromatography
Temperature, K	Solvent: Mass fraction of methanol	Mole fraction of 1,2-benzenediamine	uncertainty
283.15	0	0.004467	0.000437
285.65	0	0.004674	0.000457
288.15	0	0.004948	0.000484
290.65	0	0.005174	0.000506
293.15	0	0.005454	0.000534
295.65	0	0.005727	0.00056
298.15	0	0.006081	0.000595
300.65	0	0.006401	0.000626
303.15	0	0.00678	0.000663
305.65	0	0.007173	0.000702
308.15	0	0.007618	0.000745
310.65	0	0.008028	0.000785
313.15	0	0.008546	0.000836
315.65	0	0.009226	0.000903
318.15	0	0.01021	0.001
283.15	0.101	0.006992	0.000684
285.65	0.101	0.007254	0.00071
288.15	0.101	0.00761	0.000745
290.65	0.101	0.007907	0.000774
293.15	0.101	0.008453	0.000827
295.65	0.101	0.008953	0.000876
298.15	0.101	0.009516	0.000931
300.65	0.101	0.01017	0.001
303.15	0.101	0.01099	0.00108
305.65	0.101	0.01175	0.00115
308.15	0.101	0.01272	0.00124
310.65	0.101	0.01355	0.00133
313.15	0.101	0.01454	0.00142
315.65	0.101	0.01555	0.00152
318.15	0.101	0.01641	0.00161
283.15	0.1996	0.01096	0.00107
285.65	0.1996	0.01113	0.00109
288.15	0.1996	0.01154	0.00113
290.65	0.1996	0.01193	0.00117
293.15	0.1996	0.01274	0.00125
295.65	0.1996	0.01334	0.00131
298.15	0.1996	0.01416	0.00139
300.65	0.1996	0.01507	0.00148
303.15	0.1996	0.01639	0.0016
305.65	0.1996	0.01757	0.00172
308.15	0.1996	0.01901	0.00186
310.65	0.1996	0.0205	0.00201
313.15	0.1996	0.02255	0.00221
315.65	0.1996	0.02451	0.0024
318.15	0.1996	0.02638	0.00258
283.15	0.3018	0.01381	0.00135
285.65	0.3018	0.01439	0.00141
288.15	0.3018	0.01514	0.00148
290.65	0.3018	0.0158	0.00155
293.15	0.3018	0.01657	0.00162
295.65	0.3018	0.01769	0.00173
298.15	0.3018	0.019	0.00186
300.65	0.3018	0.02049	0.00201
303.15	0.3018	0.02242	0.0022
305.65	0.3018	0.02421	0.00237
308.15	0.3018	0.02629	0.00257
310.65	0.3018	0.02811	0.00275
313.15	0.3018	0.0303	0.00297
315.65	0.3018	0.03221	0.00315
318.15	0.3018	0.03472	0.0034
283.15	0.4042	0.01732	0.0017
285.65	0.4042	0.01771	0.00174
288.15	0.4042	0.01831	0.00179
290.65	0.4042	0.01912	0.00187
293.15	0.4042	0.02031	0.00199
295.65	0.4042	0.02161	0.00212
298.15	0.4042	0.02351	0.0023
300.65	0.4042	0.02511	0.00246
303.15	0.4042	0.02707	0.00265
305.65	0.4042	0.02912	0.00285
308.15	0.4042	0.03102	0.00304
310.65	0.4042	0.03338	0.00327
313.15	0.4042	0.03621	0.00355
315.65	0.4042	0.03889	0.00381
318.15	0.4042	0.04233	0.00414
283.15	0.5025	0.02228	0.00218
285.65	0.5025	0.02312	0.00226
288.15	0.5025	0.02391	0.00234
290.65	0.5025	0.02462	0.00241
293.15	0.5025	0.02573	0.00252
295.65	0.5025	0.02711	0.00266
298.15	0.5025	0.02863	0.0028
300.65	0.5025	0.03023	0.00296
303.15	0.5025	0.0326	0.00319
305.65	0.5025	0.03412	0.00334
308.15	0.5025	0.03644	0.00357
310.65	0.5025	0.03888	0.00381
313.15	0.5025	0.04177	0.00409
315.65	0.5025	0.04423	0.00433
318.15	0.5025	0.04741	0.00464
283.15	0.6017	0.0239	0.00234
285.65	0.6017	0.02434	0.00239
288.15	0.6017	0.0252	0.00247
290.65	0.6017	0.02685	0.00263
293.15	0.6017	0.02892	0.00284
295.65	0.6017	0.03085	0.00303
298.15	0.6017	0.0329	0.00323
300.65	0.6017	0.03515	0.00345
303.15	0.6017	0.03802	0.00373
305.65	0.6017	0.04065	0.00398
308.15	0.6017	0.04347	0.00426
310.65	0.6017	0.04615	0.00452
313.15	0.6017	0.04887	0.00479
315.65	0.6017	0.05188	0.00508
318.15	0.6017	0.05531	0.00542
283.15	0.7019	0.03092	0.00304
285.65	0.7019	0.03214	0.00316
288.15	0.7019	0.03369	0.00332
290.65	0.7019	0.03542	0.00348
293.15	0.7019	0.03696	0.00363
295.65	0.7019	0.03864	0.0038
298.15	0.7019	0.04052	0.00398
300.65	0.7019	0.04264	0.00419
303.15	0.7019	0.04471	0.00439
305.65	0.7019	0.04687	0.0046
308.15	0.7019	0.04893	0.0048
310.65	0.7019	0.05114	0.00501
313.15	0.7019	0.05387	0.00528
315.65	0.7019	0.05686	0.00557
318.15	0.7019	0.06059	0.00594
283.15	0.8019	0.0399	0.00392
285.65	0.8019	0.04117	0.00404
288.15	0.8019	0.04261	0.00418
290.65	0.8019	0.04417	0.00434
293.15	0.8019	0.04594	0.00451
295.65	0.8019	0.04767	0.00468
298.15	0.8019	0.04983	0.00489
300.65	0.8019	0.0521	0.00511
303.15	0.8019	0.0548	0.00538
305.65	0.8019	0.05714	0.0056
308.15	0.8019	0.05934	0.00582
310.65	0.8019	0.06213	0.00609
313.15	0.8019	0.06466	0.00634
315.65	0.8019	0.06724	0.00659
318.15	0.8019	0.06961	0.00682
283.15	0.9009	0.045	0.00441
285.65	0.9009	0.04668	0.00458
288.15	0.9009	0.04874	0.00478
290.65	0.9009	0.05065	0.00497
293.15	0.9009	0.05273	0.00517
295.65	0.9009	0.05461	0.00536
298.15	0.9009	0.05676	0.00557
300.65	0.9009	0.05915	0.0058
303.15	0.9009	0.06115	0.00599
305.65	0.9009	0.06365	0.00624
308.15	0.9009	0.06607	0.00647
310.65	0.9009	0.06831	0.00669
313.15	0.9009	0.07079	0.00694
315.65	0.9009	0.0733	0.00718
318.15	0.9009	0.07687	0.00753
283.15	1	0.05164	0.00505
285.65	1	0.05333	0.00522
288.15	1	0.05537	0.00542
290.65	1	0.05716	0.00559
293.15	1	0.05958	0.00583
295.65	1	0.06134	0.006
298.15	1	0.06371	0.00623
300.65	1	0.06583	0.00644
303.15	1	0.06852	0.0067
305.65	1	0.07083	0.00693
308.15	1	0.07316	0.00716
310.65	1	0.07583	0.00742
313.15	1	0.07951	0.00778
315.65	1	0.08284	0.0081
318.15	1	0.08682	0.00849

System: ethanol + 1,2-benzenediamine + water; phases: Liquid, Crystal
Fixed: Pressure, kPa = 101.1
Property: Mole fraction of 1,2-benzenediamine (Liquid); method: Chromatography
Temperature, K	Solvent: Mass fraction of ethanol	Mole fraction of 1,2-benzenediamine	uncertainty
283.15	0	0.004467	0.000437
285.65	0	0.004674	0.000457
288.15	0	0.004948	0.000484
290.65	0	0.005174	0.000506
293.15	0	0.005454	0.000534
295.65	0	0.005727	0.00056
298.15	0	0.006081	0.000595
300.65	0	0.006401	0.000626
303.15	0	0.00678	0.000663
305.65	0	0.007173	0.000702
308.15	0	0.007618	0.000745
310.65	0	0.008028	0.000785
313.15	0	0.008546	0.000836
315.65	0	0.009226	0.000903
318.15	0	0.01021	0.001
283.15	0.1008	0.005069	0.000496
285.65	0.1008	0.00542	0.00053
288.15	0.1008	0.005792	0.000567
290.65	0.1008	0.006129	0.0006
293.15	0.1008	0.006525	0.000638
295.65	0.1008	0.006881	0.000673
298.15	0.1008	0.007239	0.000708
300.65	0.1008	0.00763	0.000746
303.15	0.1008	0.00801	0.000784
305.65	0.1008	0.008431	0.000825
308.15	0.1008	0.008864	0.000867
310.65	0.1008	0.00941	0.000921
313.15	0.1008	0.01001	0.00098
315.65	0.1008	0.01071	0.00105
318.15	0.1008	0.01166	0.00114
283.15	0.1993	0.005832	0.000571
285.65	0.1993	0.006132	0.0006
288.15	0.1993	0.006472	0.000633
290.65	0.1993	0.006734	0.000659
293.15	0.1993	0.007112	0.000696
295.65	0.1993	0.007418	0.000726
298.15	0.1993	0.007824	0.000765
300.65	0.1993	0.008231	0.000805
303.15	0.1993	0.008745	0.000856
305.65	0.1993	0.009269	0.000907
308.15	0.1993	0.009904	0.000969
310.65	0.1993	0.01053	0.00103
313.15	0.1993	0.01118	0.00109
315.65	0.1993	0.01203	0.00118
318.15	0.1993	0.01293	0.00126
283.15	0.3013	0.007216	0.000706
285.65	0.3013	0.007509	0.000735
288.15	0.3013	0.007856	0.000769
290.65	0.3013	0.008181	0.000801
293.15	0.3013	0.008546	0.000836
295.65	0.3013	0.0089	0.000871
298.15	0.3013	0.009286	0.000909
300.65	0.3013	0.00963	0.000942
303.15	0.3013	0.0101	0.00099
305.65	0.3013	0.01057	0.00103
308.15	0.3013	0.01105	0.00108
310.65	0.3013	0.01154	0.00113
313.15	0.3013	0.01213	0.00119
315.65	0.3013	0.01277	0.00125
318.15	0.3013	0.01368	0.00134
283.15	0.4016	0.008042	0.000787
285.65	0.4016	0.008229	0.000805
288.15	0.4016	0.008545	0.000836
290.65	0.4016	0.008872	0.000868
293.15	0.4016	0.009271	0.000907
295.65	0.4016	0.009629	0.000942
298.15	0.4016	0.0101	0.00099
300.65	0.4016	0.01053	0.00103
303.15	0.4016	0.01102	0.00108
305.65	0.4016	0.01153	0.00113
308.15	0.4016	0.01209	0.00118
310.65	0.4016	0.01256	0.00123
313.15	0.4016	0.01326	0.0013
315.65	0.4016	0.01373	0.00134
318.15	0.4016	0.0144	0.00141
283.15	0.4991	0.009322	0.000913
285.65	0.4991	0.00957	0.000937
288.15	0.4991	0.0099	0.000969
290.65	0.4991	0.01017	0.001
293.15	0.4991	0.01054	0.00103
295.65	0.4991	0.01083	0.00106
298.15	0.4991	0.01124	0.0011
300.65	0.4991	0.01157	0.00113
303.15	0.4991	0.01196	0.00117
305.65	0.4991	0.01237	0.00121
308.15	0.4991	0.0128	0.00125
310.65	0.4991	0.01335	0.00131
313.15	0.4991	0.01394	0.00136
315.65	0.4991	0.01474	0.00144
318.15	0.4991	0.01561	0.00153
283.15	0.6003	0.01034	0.00101
285.65	0.6003	0.01063	0.00104
288.15	0.6003	0.01092	0.00107
290.65	0.6003	0.01124	0.0011
293.15	0.6003	0.01162	0.00114
295.65	0.6003	0.01193	0.00117
298.15	0.6003	0.01238	0.00121
300.65	0.6003	0.01273	0.00125
303.15	0.6003	0.01317	0.00129
305.65	0.6003	0.01363	0.00133
308.15	0.6003	0.01411	0.00138
310.65	0.6003	0.01463	0.00143
313.15	0.6003	0.01525	0.00149
315.65	0.6003	0.01593	0.00156
318.15	0.6003	0.01674	0.00164
283.15	0.6986	0.0108	0.00106
285.65	0.6986	0.01123	0.0011
288.15	0.6986	0.01166	0.00114
290.65	0.6986	0.01213	0.00119
293.15	0.6986	0.01269	0.00124
295.65	0.6986	0.01313	0.00129
298.15	0.6986	0.01368	0.00134
300.65	0.6986	0.01413	0.00138
303.15	0.6986	0.01468	0.00144
305.65	0.6986	0.01523	0.00149
308.15	0.6986	0.01581	0.00155
310.65	0.6986	0.01633	0.0016
313.15	0.6986	0.01675	0.00164
315.65	0.6986	0.0173	0.00169
318.15	0.6986	0.01787	0.00175
283.15	0.8021	0.01192	0.00117
285.65	0.8021	0.01223	0.0012
288.15	0.8021	0.0126	0.00123
290.65	0.8021	0.01303	0.00128
293.15	0.8021	0.01348	0.00132
295.65	0.8021	0.01387	0.00136
298.15	0.8021	0.01434	0.0014
300.65	0.8021	0.01477	0.00145
303.15	0.8021	0.01528	0.0015
305.65	0.8021	0.01583	0.00155
308.15	0.8021	0.01636	0.0016
310.65	0.8021	0.01683	0.00165
313.15	0.8021	0.01747	0.00171
315.65	0.8021	0.01807	0.00177
318.15	0.8021	0.0191	0.00187
283.15	0.8994	0.01295	0.00127
285.65	0.8994	0.01323	0.0013
288.15	0.8994	0.01357	0.00133
290.65	0.8994	0.01396	0.00137
293.15	0.8994	0.01443	0.00141
295.65	0.8994	0.01487	0.00146
298.15	0.8994	0.0154	0.00151
300.65	0.8994	0.0159	0.00156
303.15	0.8994	0.01641	0.00161
305.65	0.8994	0.0169	0.00166
308.15	0.8994	0.01745	0.00171
310.65	0.8994	0.01797	0.00176
313.15	0.8994	0.0185	0.00181
315.65	0.8994	0.01913	0.00187
318.15	0.8994	0.0198	0.00194
283.15	1	0.0139	0.00136
285.65	1	0.01436	0.0014
288.15	1	0.01482	0.00145
290.65	1	0.01535	0.0015
293.15	1	0.01596	0.00156
295.65	1	0.01655	0.00162
298.15	1	0.01716	0.00168
300.65	1	0.01769	0.00173
303.15	1	0.01841	0.0018
305.65	1	0.01904	0.00186
308.15	1	0.01989	0.00195
310.65	1	0.02055	0.00201
313.15	1	0.02133	0.00209
315.65	1	0.02214	0.00217
318.15	1	0.02332	0.00228

System: acetonitrile + 1,2-benzenediamine + water; phases: Liquid, Crystal
Fixed: Pressure, kPa = 101.1
Property: Mole fraction of 1,2-benzenediamine (Liquid); method: Chromatography
Temperature, K	Solvent: Mass fraction of acetonitrile	Mole fraction of 1,2-benzenediamine	uncertainty
283.15	0	0.004467	0.000437
285.65	0	0.004674	0.000457
288.15	0	0.004948	0.000484
290.65	0	0.005174	0.000506
293.15	0	0.005454	0.000534
295.65	0	0.005727	0.00056
298.15	0	0.006081	0.000595
300.65	0	0.006401	0.000626
303.15	0	0.00678	0.000663
305.65	0	0.007173	0.000702
308.15	0	0.007618	0.000745
310.65	0	0.008028	0.000785
313.15	0	0.008546	0.000836
315.65	0	0.009226	0.000903
318.15	0	0.01021	0.001
283.15	0.0993	0.008602	0.000842
285.65	0.0993	0.009238	0.000904
288.15	0.0993	0.00994	0.000973
290.65	0.0993	0.01074	0.00105
293.15	0.0993	0.01162	0.00114
295.65	0.0993	0.01256	0.00123
298.15	0.0993	0.01345	0.00132
300.65	0.0993	0.01417	0.00139
303.15	0.0993	0.01513	0.00148
305.65	0.0993	0.01612	0.00158
308.15	0.0993	0.01733	0.0017
310.65	0.0993	0.0183	0.00179
313.15	0.0993	0.01936	0.0019
315.65	0.0993	0.02055	0.00201
318.15	0.0993	0.02213	0.00217
283.15	0.1988	0.01392	0.00136
285.65	0.1988	0.01458	0.00143
288.15	0.1988	0.01561	0.00153
290.65	0.1988	0.01661	0.00163
293.15	0.1988	0.01815	0.00178
295.65	0.1988	0.01961	0.00192
298.15	0.1988	0.02131	0.00209
300.65	0.1988	0.02262	0.00222
303.15	0.1988	0.02456	0.00241
305.65	0.1988	0.02622	0.00257
308.15	0.1988	0.02834	0.00278
310.65	0.1988	0.03011	0.00295
313.15	0.1988	0.03232	0.00316
315.65	0.1988	0.03423	0.00335
318.15	0.1988	0.03646	0.00357
283.15	0.2985	0.01848	0.00181
285.65	0.2985	0.01963	0.00192
288.15	0.2985	0.02109	0.00207
290.65	0.2985	0.02263	0.00222
293.15	0.2985	0.02448	0.0024
295.65	0.2985	0.02613	0.00256
298.15	0.2985	0.02863	0.0028
300.65	0.2985	0.03073	0.00301
303.15	0.2985	0.03343	0.00327
305.65	0.2985	0.03536	0.00346
308.15	0.2985	0.03794	0.00371
310.65	0.2985	0.04014	0.00393
313.15	0.2985	0.04243	0.00415
315.65	0.2985	0.04474	0.00438
318.15	0.2985	0.04755	0.00466
283.15	0.3982	0.0221	0.00216
285.65	0.3982	0.02368	0.00232
288.15	0.3982	0.02567	0.00252
290.65	0.3982	0.02797	0.00274
293.15	0.3982	0.03029	0.00297
295.65	0.3982	0.03217	0.00315
298.15	0.3982	0.03472	0.0034
300.65	0.3982	0.03718	0.00364
303.15	0.3982	0.0401	0.00393
305.65	0.3982	0.04267	0.00418
308.15	0.3982	0.04583	0.00449
310.65	0.3982	0.04817	0.00472
313.15	0.3982	0.05187	0.00508
315.65	0.3982	0.05484	0.00537
318.15	0.3982	0.05907	0.00579
283.15	0.4982	0.0273	0.00268
285.65	0.4982	0.03122	0.00307
288.15	0.4982	0.03471	0.00341
290.65	0.4982	0.03782	0.00371
293.15	0.4982	0.04109	0.00403
295.65	0.4982	0.04372	0.00429
298.15	0.4982	0.04664	0.00457
300.65	0.4982	0.04924	0.00483
303.15	0.4982	0.05277	0.00517
305.65	0.4982	0.05577	0.00547
308.15	0.4982	0.05968	0.00585
310.65	0.4982	0.06232	0.00611
313.15	0.4982	0.06569	0.00644
315.65	0.4982	0.06855	0.00672
318.15	0.4982	0.07268	0.00712
283.15	0.5981	0.03866	0.00381
285.65	0.5981	0.04124	0.00406
288.15	0.5981	0.04431	0.00436
290.65	0.5981	0.04725	0.00465
293.15	0.5981	0.05023	0.00494
295.65	0.5981	0.05325	0.00524
298.15	0.5981	0.0568	0.00559
300.65	0.5981	0.05975	0.00588
303.15	0.5981	0.06385	0.00628
305.65	0.5981	0.06675	0.00656
308.15	0.5981	0.07123	0.007
310.65	0.5981	0.07476	0.00735
313.15	0.5981	0.07869	0.00774
315.65	0.5981	0.08176	0.00804
318.15	0.5981	0.08693	0.00855
283.15	0.6985	0.05091	0.00502
285.65	0.6985	0.05468	0.00539
288.15	0.6985	0.05986	0.0059
290.65	0.6985	0.06468	0.00637
293.15	0.6985	0.06942	0.00684
295.65	0.6985	0.07468	0.00736
298.15	0.6985	0.07917	0.00781
300.65	0.6985	0.08371	0.00825
303.15	0.6985	0.0891	0.00879
305.65	0.6985	0.09269	0.00915
308.15	0.6985	0.09831	0.0097
310.65	0.6985	0.1035	0.0102
313.15	0.6985	0.1097	0.0108
315.65	0.6985	0.1153	0.0114
318.15	0.6985	0.1228	0.0121
283.15	0.7988	0.0695	0.00681
285.65	0.7988	0.07447	0.00729
288.15	0.7988	0.0786	0.0077
290.65	0.7988	0.08307	0.00813
293.15	0.7988	0.08892	0.00871
295.65	0.7988	0.09593	0.00939
298.15	0.7988	0.1037	0.0102
300.65	0.7988	0.1091	0.0107
303.15	0.7988	0.1173	0.0115
305.65	0.7988	0.1241	0.0122
308.15	0.7988	0.1328	0.013
310.65	0.7988	0.1395	0.0137
313.15	0.7988	0.149	0.0146
315.65	0.7988	0.155	0.0152
318.15	0.7988	0.1657	0.0162
283.15	0.8993	0.0632	0.00619
285.65	0.8993	0.06756	0.00662
288.15	0.8993	0.07334	0.00719
290.65	0.8993	0.07855	0.00769
293.15	0.8993	0.08573	0.0084
295.65	0.8993	0.09155	0.00897
298.15	0.8993	0.09813	0.00961
300.65	0.8993	0.1041	0.0102
303.15	0.8993	0.1108	0.0109
305.65	0.8993	0.1164	0.0114
308.15	0.8993	0.1236	0.0121
310.65	0.8993	0.1305	0.0128
313.15	0.8993	0.1386	0.0136
315.65	0.8993	0.1461	0.0143
318.15	0.8993	0.1569	0.0154
283.15	1	0.05576	0.00545
285.65	1	0.05953	0.00582
288.15	1	0.06427	0.00629
290.65	1	0.06855	0.00671
293.15	1	0.07518	0.00735
295.65	1	0.07954	0.00778
298.15	1	0.08584	0.0084
300.65	1	0.09155	0.00896
303.15	1	0.09867	0.00965
305.65	1	0.1045	0.0102
308.15	1	0.1134	0.0111
310.65	1	0.1205	0.0118
313.15	1	0.1283	0.0126
315.65	1	0.1345	0.0132
318.15	1	0.1434	0.014

System: 1,2-benzenediamine + water; phases: Liquid, Crystal
Fixed: Pressure, kPa = 101.1
Property: Mole fraction of 1,2-benzenediamine (Liquid); method: Chromatography
Temperature, K	Mole fraction of 1,2-benzenediamine	uncertainty
283.15	0.004467	0.000437
285.65	0.004674	0.000457
288.15	0.004948	0.000484
290.65	0.005174	0.000506
293.15	0.005454	0.000534
295.65	0.005727	0.00056
298.15	0.006081	0.000595
300.65	0.006401	0.000626
303.15	0.00678	0.000663
305.65	0.007173	0.000702
308.15	0.007618	0.000745
310.65	0.008028	0.000785
313.15	0.008546	0.000836
315.65	0.009226	0.000903
318.15	0.01021	0.001

System: methanol + 1,2-benzenediamine; phases: Liquid, Crystal
Fixed: Pressure, kPa = 101.1
Property: Mole fraction of 1,2-benzenediamine (Liquid); method: Chromatography
Temperature, K	Mole fraction of 1,2-benzenediamine	uncertainty
283.15	0.05164	0.00505
285.65	0.05333	0.00522
288.15	0.05537	0.00542
290.65	0.05716	0.00559
293.15	0.05958	0.00583
295.65	0.06134	0.006
298.15	0.06371	0.00623
300.65	0.06583	0.00644
303.15	0.06852	0.0067
305.65	0.07083	0.00693
308.15	0.07316	0.00716
310.65	0.07583	0.00742
313.15	0.07951	0.00778
315.65	0.08284	0.0081
318.15	0.08682	0.00849

System: ethanol + 1,2-benzenediamine; phases: Liquid, Crystal
Fixed: Pressure, kPa = 101.1
Property: Mole fraction of 1,2-benzenediamine (Liquid); method: Chromatography
Temperature, K	Mole fraction of 1,2-benzenediamine	uncertainty
283.15	0.0139	0.00136
285.65	0.01436	0.0014
288.15	0.01482	0.00145
290.65	0.01535	0.0015
293.15	0.01596	0.00156
295.65	0.01655	0.00162
298.15	0.01716	0.00168
300.65	0.01769	0.00173
303.15	0.01841	0.0018
305.65	0.01904	0.00186
308.15	0.01989	0.00195
310.65	0.02055	0.00201
313.15	0.02133	0.00209
315.65	0.02214	0.00217
318.15	0.02332	0.00228

System: acetonitrile + 1,2-benzenediamine; phases: Liquid, Crystal
Fixed: Pressure, kPa = 101.1
Property: Mole fraction of 1,2-benzenediamine (Liquid); method: Chromatography
Temperature, K	Mole fraction of 1,2-benzenediamine	uncertainty
283.15	0.05576	0.00545
285.65	0.05953	0.00582
288.15	0.06427	0.00629
290.65	0.06855	0.00671
293.15	0.07518	0.00735
295.65	0.07954	0.00778
298.15	0.08584	0.0084
300.65	0.09155	0.00896
303.15	0.09867	0.00965
305.65	0.1045	0.0102
308.15	0.1134	0.0111
310.65	0.1205	0.0118
313.15	0.1283	0.0126
315.65	0.1345	0.0132
318.15	0.1434	0.014
