Measured thermophysical data. Partial molar volumes of organic solutes in water. XXX. Two poly(ethylene glycol) monoalkyl ethers, C4E2 and C1E3, at temperatures T = 298 K to 573 K and pressures up to 30 MPa
Source: J. Chem. Thermodyn., 2019, 10.1016/j.jct.2019.07.016
Compound 1: 3,6-dioxa-1-decanol, C8H18O3, InChI=1S/C8H18O3/c1-2-3-5-10-7-8-11-6-4-9/h9H,2-8H2,1H3, purity 99.8%
Compound 2: 2-[2-(2-methoxyethoxy)ethoxy]ethanol, C7H16O4, InChI=1S/C7H16O4/c1-9-4-5-11-7-6-10-3-2-8/h8H,2-7H2,1H3, purity 98.5%
Compound 3: water, H2O, InChI=1S/H2O/h1H2

System: 3,6-dioxa-1-decanol + water; phases: Liquid
Property: Mass density, kg/m3 (Liquid); method: Vibrating tube method
Temperature, K	Pressure, kPa	Molality, mol/kg of 3,6-dioxa-1-decanol	Mass density, kg/m3	uncertainty
298.2	510	0.051672	0.1273	0.0311
298.2	510	0.051672	0.1401	0.0311
298.2	510	0.051672	0.1336	0.0311
298.2	510	0.098956	0.256	0.0312
298.2	510	0.098956	0.2455	0.0312
298.2	510	0.098956	0.2609	0.0312
298.2	510	0.213595	0.5965	0.0315
298.2	510	0.213595	0.5904	0.0315
298.2	510	0.213595	0.5898	0.0315
298.2	510	0.345839	1.0148	0.0319
298.2	510	0.345839	1.0163	0.0319
298.2	510	0.345839	1.0148	0.0319
298.2	510	0.465185	1.4929	0.0323
298.2	510	0.465185	1.4962	0.0323
298.2	510	0.465185	1.4934	0.0323
298.17	15110	0.051672	0.0803	0.0312
298.17	15110	0.051672	0.0798	0.0312
298.17	15110	0.051672	0.0809	0.0312
298.17	15110	0.098956	0.1628	0.0315
298.17	15110	0.098956	0.1641	0.0315
298.17	15110	0.098956	0.1641	0.0315
298.17	15110	0.213595	0.4079	0.0323
298.17	15110	0.213595	0.407	0.0323
298.17	15110	0.213595	0.4067	0.0323
298.17	15110	0.345839	0.734	0.0333
298.17	15110	0.345839	0.7318	0.0333
298.17	15110	0.345839	0.7343	0.0333
298.17	15110	0.465185	1.1263	0.0346
298.17	15110	0.465185	1.125	0.0346
298.17	15110	0.465185	1.122	0.0346
298.16	30200	0.051672	0.0357	0.0312
298.16	30200	0.051672	0.0336	0.0312
298.16	30200	0.051672	0.0314	0.0312
298.16	30200	0.098956	0.0765	0.0314
298.16	30200	0.098956	0.0788	0.0314
298.16	30200	0.098956	0.0764	0.0314
298.16	30200	0.213595	0.2311	0.0323
298.16	30200	0.213595	0.2284	0.0322
298.16	30200	0.213595	0.2303	0.0323
298.16	30200	0.345839	0.4634	0.0335
298.16	30200	0.345839	0.4622	0.0335
298.16	30200	0.345839	0.462	0.0335
298.16	30200	0.465185	0.7596	0.0352
298.16	30200	0.465185	0.754	0.0352
298.16	30200	0.465185	0.7621	0.0352
318.2	520	0.051672	0.0346	0.031
318.2	520	0.051672	0.0321	0.031
318.2	520	0.051672	0.033	0.031
318.2	520	0.098956	0.0649	0.031
318.2	520	0.098956	0.0649	0.031
318.2	520	0.098956	0.0645	0.031
318.2	520	0.213595	0.156	0.0311
318.2	520	0.213595	0.1555	0.0311
318.2	520	0.213595	0.1562	0.0311
318.2	520	0.345839	0.2586	0.0313
318.2	520	0.345839	0.2548	0.0313
318.2	520	0.345839	0.2568	0.0313
318.2	520	0.465185	0.3352	0.0315
318.2	520	0.465185	0.3328	0.0315
318.2	520	0.465185	0.3329	0.0315
318.2	30680	0.051672	-0.0194	0.0312
318.2	30680	0.051672	-0.0198	0.0312
318.2	30680	0.051672	-0.0211	0.0312
318.2	30680	0.098956	-0.0331	0.0313
318.2	30680	0.098956	-0.0354	0.0313
318.2	30680	0.098956	-0.038	0.0313
318.2	30680	0.213595	-0.046	0.0314
318.2	30680	0.213595	-0.0484	0.0314
318.2	30680	0.213595	-0.0511	0.0314
318.2	30680	0.345839	-0.0394	0.0314
318.2	30680	0.345839	-0.0446	0.0314
318.2	30680	0.345839	-0.0448	0.0314
318.2	30680	0.465185	-0.043	0.0314
318.2	30680	0.465185	-0.0448	0.0314
318.2	30680	0.465185	-0.0457	0.0314
338.18	520	0.051672	-0.0538	0.0311
338.18	520	0.051672	-0.0557	0.0311
338.18	520	0.051672	-0.0571	0.0311
338.18	520	0.098956	-0.1059	0.0311
338.18	520	0.098956	-0.1095	0.0311
338.18	520	0.098956	-0.1107	0.0311
338.18	520	0.213595	-0.2416	0.0313
338.18	520	0.213595	-0.2436	0.0313
338.18	520	0.213595	-0.2451	0.0313
338.18	520	0.345839	-0.4225	0.0315
338.18	520	0.345839	-0.4262	0.0315
338.18	520	0.345839	-0.4276	0.0315
338.18	520	0.525185	-0.7022	0.0318
338.18	520	0.525185	-0.7044	0.0318
338.18	520	0.525185	-0.7067	0.0318
338.21	29990	0.051672	-0.0772	0.0329
338.21	29990	0.051672	-0.0834	0.0329
338.21	29990	0.051672	-0.0819	0.0329
338.21	29990	0.098956	-0.1505	0.0332
338.21	29990	0.098956	-0.1549	0.0332
338.21	29990	0.098956	-0.1587	0.0332
338.21	29990	0.213595	-0.3254	0.034
338.21	29990	0.213595	-0.3298	0.034
338.21	29990	0.213595	-0.33	0.034
338.21	29990	0.345839	-0.5335	0.0349
338.21	29990	0.345839	-0.5372	0.0349
338.21	29990	0.345839	-0.5387	0.0349
338.21	29990	0.525185	-0.8016	0.0361
338.21	29990	0.525185	-0.8113	0.0362
338.21	29990	0.525185	-0.815	0.0362
358.25	15000	0.051672	-0.1442	0.0336
358.25	15000	0.051672	-0.1456	0.0336
358.25	15000	0.051672	-0.1446	0.0336
358.25	15000	0.098956	-0.2797	0.0339
358.25	15000	0.098956	-0.281	0.0339
358.25	15000	0.098956	-0.2822	0.0339
358.25	15000	0.213595	-0.6141	0.0347
358.25	15000	0.213595	-0.6207	0.0347
358.25	15000	0.213595	-0.6203	0.0347
358.25	15000	0.345839	-1.038	0.0358
358.25	15000	0.345839	-1.0427	0.0358
358.25	15000	0.345839	-1.043	0.0358
358.25	15000	0.510185	-1.5839	0.0372
358.25	15000	0.510185	-1.5877	0.0372
358.25	15000	0.510185	-1.5936	0.0373
318.19	15280	0.051672	0.0063	0.031
318.19	15280	0.051672	0.0045	0.031
318.19	15280	0.051672	0.0051	0.031
318.19	15280	0.098956	0.0152	0.031
318.19	15280	0.098956	0.0134	0.031
318.19	15280	0.098956	0.0133	0.031
318.19	15280	0.213595	0.0543	0.0312
318.19	15280	0.213595	0.0529	0.0312
318.19	15280	0.213595	0.0506	0.0312
318.19	15280	0.345839	0.1097	0.0314
318.19	15280	0.345839	0.1043	0.0314
318.19	15280	0.345839	0.1055	0.0314
318.19	15280	0.465185	0.1501	0.0316
318.19	15280	0.465185	0.151	0.0316
318.19	15280	0.465185	0.1468	0.0316
338.19	15250	0.051672	-0.0644	0.0318
338.19	15250	0.051672	-0.0672	0.0318
338.19	15250	0.051672	-0.0695	0.0318
338.19	15250	0.098956	-0.1308	0.0319
338.19	15250	0.098956	-0.1336	0.0319
338.19	15250	0.098956	-0.1338	0.0319
338.19	15250	0.213595	-0.2832	0.0323
338.19	15250	0.213595	-0.2847	0.0323
338.19	15250	0.213595	-0.29	0.0324
338.19	15250	0.345839	-0.4761	0.0329
338.19	15250	0.345839	-0.4794	0.0329
338.19	15250	0.345839	-0.4807	0.0329
338.19	15250	0.525185	-0.7443	0.0336
338.19	15250	0.525185	-0.7519	0.0336
338.19	15250	0.525185	-0.7522	0.0336
358.25	520	0.051672	-0.1412	0.0319
358.25	520	0.051672	-0.1446	0.0319
358.25	520	0.051672	-0.1437	0.0319
358.25	520	0.098956	-0.2768	0.032
358.25	520	0.098956	-0.2806	0.032
358.25	520	0.098956	-0.2808	0.032
358.25	520	0.213595	-0.6268	0.0322
358.25	520	0.213595	-0.6267	0.0322
358.25	520	0.213595	-0.625	0.0322
358.25	520	0.345839	-1.0623	0.0326
358.25	520	0.345839	-1.0662	0.0326
358.25	520	0.345839	-1.0671	0.0326
358.25	520	0.510185	-1.6432	0.0331
358.25	520	0.510185	-1.6461	0.0331
358.25	520	0.510185	-1.6503	0.0331
358.26	30250	0.051672	-0.1457	0.0349
358.26	30250	0.051672	-0.144	0.0349
358.26	30250	0.051672	-0.144	0.0349
358.26	30250	0.098956	-0.2748	0.0354
358.26	30250	0.098956	-0.2843	0.0355
358.26	30250	0.098956	-0.2851	0.0355
358.26	30250	0.213595	-0.6153	0.0369
358.26	30250	0.213595	-0.6168	0.0369
358.26	30250	0.213595	-0.6176	0.0369
358.26	30250	0.345839	-1.0183	0.0386
358.26	30250	0.345839	-1.0256	0.0387
358.26	30250	0.345839	-1.0305	0.0387
358.26	30250	0.510185	-1.5324	0.0409
358.26	30250	0.510185	-1.5427	0.041
358.26	30250	0.510185	-1.5439	0.041
373.2	520	0.057812	-0.2265	0.0331
373.2	520	0.057812	-0.2329	0.0331
373.2	520	0.057812	-0.2336	0.0331
373.2	520	0.107742	-0.4362	0.0333
373.2	520	0.107742	-0.439	0.0333
373.2	520	0.107742	-0.4399	0.0333
373.2	520	0.210046	-0.8777	0.0336
373.2	520	0.210046	-0.8805	0.0336
373.2	520	0.210046	-0.8874	0.0336
373.2	520	0.334965	-1.4502	0.034
373.2	520	0.334965	-1.4601	0.0341
373.2	520	0.334965	-1.4603	0.0341
373.2	520	0.492332	-2.2615	0.0347
373.2	520	0.492332	-2.2705	0.0347
373.2	520	0.492332	-2.2725	0.0347
373.22	30240	0.057812	-0.2125	0.0365
373.22	30240	0.057812	-0.2184	0.0366
373.22	30240	0.057812	-0.2174	0.0366
373.22	30240	0.107742	-0.409	0.0374
373.22	30240	0.107742	-0.4121	0.0374
373.22	30240	0.107742	-0.4134	0.0374
373.22	30240	0.210046	-0.8179	0.0391
373.22	30240	0.210046	-0.8193	0.0391
373.22	30240	0.210046	-0.8206	0.0391
373.22	30240	0.334965	-1.3253	0.0412
373.22	30240	0.334965	-1.329	0.0413
373.22	30240	0.334965	-1.3381	0.0413
373.22	30240	0.492332	-2.0278	0.0443
373.22	30240	0.492332	-2.0331	0.0443
373.22	30240	0.492332	-2.0442	0.0444
398.21	15030	0.057812	-0.3372	0.0386
398.21	15030	0.057812	-0.3408	0.0386
398.21	15030	0.057812	-0.344	0.0386
398.21	15030	0.107742	-0.6413	0.0393
398.21	15030	0.107742	-0.6367	0.0393
398.21	15030	0.107742	-0.635	0.0393
398.21	15030	0.210046	-1.2529	0.0407
398.21	15030	0.210046	-1.2527	0.0407
398.21	15030	0.210046	-1.2531	0.0407
398.21	15030	0.334965	-2.0172	0.0426
398.21	15030	0.334965	-2.0207	0.0426
398.21	15030	0.334965	-2.0262	0.0426
398.21	15030	0.492332	-3.0229	0.0451
398.21	15030	0.492332	-3.0214	0.0451
398.21	15030	0.492332	-3.0338	0.0451
423.2	1740	0.057812	-0.469	0.0408
423.2	1740	0.057812	-0.4745	0.0408
423.2	1740	0.057812	-0.4717	0.0408
423.2	1740	0.107742	-0.8869	0.0412
423.2	1740	0.107742	-0.8897	0.0412
423.2	1740	0.107742	-0.8916	0.0412
423.2	1740	0.210046	-1.7449	0.0419
423.2	1740	0.210046	-1.7397	0.0419
423.2	1740	0.210046	-1.7307	0.0418
423.2	1740	0.334965	-2.7846	0.0427
423.2	1740	0.334965	-2.7871	0.0427
423.2	1740	0.334965	-2.7893	0.0427
423.2	1740	0.492332	-4.1339	0.0439
423.2	1740	0.492332	-4.1146	0.0439
423.2	1740	0.492332	-4.1272	0.0439
373.21	15160	0.057812	-0.222	0.0351
373.21	15160	0.057812	-0.2284	0.0351
373.21	15160	0.057812	-0.2278	0.0351
373.21	15160	0.107742	-0.422	0.0356
373.21	15160	0.107742	-0.4246	0.0356
373.21	15160	0.107742	-0.4276	0.0356
373.21	15160	0.210046	-0.8432	0.0366
373.21	15160	0.210046	-0.8499	0.0366
373.21	15160	0.210046	-0.852	0.0366
373.21	15160	0.334965	-1.3922	0.038
373.21	15160	0.334965	-1.3948	0.038
373.21	15160	0.334965	-1.3976	0.038
373.21	15160	0.492332	-2.1396	0.0399
373.21	15160	0.492332	-2.1379	0.0399
373.21	15160	0.492332	-2.1422	0.0399
398.2	1750	0.057812	-0.3579	0.0364
398.2	1750	0.057812	-0.3559	0.0364
398.2	1750	0.057812	-0.3559	0.0364
398.2	1750	0.107742	-0.667	0.0366
398.2	1750	0.107742	-0.6708	0.0366
398.2	1750	0.107742	-0.6684	0.0366
398.2	1750	0.210046	-1.3213	0.0372
398.2	1750	0.210046	-1.3264	0.0372
398.2	1750	0.210046	-1.3261	0.0372
398.2	1750	0.334965	-2.1435	0.0379
398.2	1750	0.334965	-2.1467	0.0379
398.2	1750	0.334965	-2.1487	0.0379
398.2	1750	0.492332	-3.2272	0.0389
398.2	1750	0.492332	-3.233	0.0389
398.2	1750	0.492332	-3.2387	0.0389
398.22	30010	0.057812	-0.3234	0.0403
398.22	30010	0.057812	-0.3182	0.0403
398.22	30010	0.057812	-0.3267	0.0403
398.22	30010	0.107742	-0.5883	0.0414
398.22	30010	0.107742	-0.6012	0.0414
398.22	30010	0.107742	-0.5986	0.0414
398.22	30010	0.210046	-1.1724	0.0437
398.22	30010	0.210046	-1.1746	0.0437
398.22	30010	0.210046	-1.1821	0.0438
398.22	30010	0.334965	-1.8917	0.0467
398.22	30010	0.334965	-1.8963	0.0467
398.22	30010	0.334965	-1.898	0.0467
398.22	30010	0.492332	-2.8144	0.0507
398.22	30010	0.492332	-2.8236	0.0507
398.22	30010	0.492332	-2.832	0.0508
423.2	15330	0.057812	-0.4397	0.0427
423.2	15330	0.057812	-0.4417	0.0427
423.2	15330	0.057812	-0.4428	0.0427
423.2	15330	0.107742	-0.8243	0.0436
423.2	15330	0.107742	-0.8268	0.0436
423.2	15330	0.107742	-0.8276	0.0436
423.2	15330	0.210046	-1.607	0.0454
423.2	15330	0.210046	-1.6041	0.0454
423.2	15330	0.210046	-1.6074	0.0454
423.2	15330	0.334965	-2.5718	0.0478
423.2	15330	0.334965	-2.5664	0.0477
423.2	15330	0.334965	-2.5719	0.0478
423.2	15330	0.492332	-3.7866	0.0508
423.2	15330	0.492332	-3.7983	0.0508
423.2	15330	0.492332	-3.7945	0.0508
423.2	30080	0.057812	-0.4095	0.0452
423.2	30080	0.057812	-0.4153	0.0452
423.2	30080	0.057812	-0.4111	0.0452
423.2	30080	0.107742	-0.7586	0.0465
423.2	30080	0.107742	-0.7625	0.0465
423.2	30080	0.107742	-0.7713	0.0465
423.2	30080	0.210046	-1.4811	0.0494
423.2	30080	0.210046	-1.4891	0.0494
423.2	30080	0.210046	-1.4889	0.0494
423.2	30080	0.334965	-2.3696	0.053
423.2	30080	0.334965	-2.3731	0.053
423.2	30080	0.334965	-2.3784	0.0531
423.2	30080	0.492332	-3.4932	0.0578
423.2	30080	0.492332	-3.4966	0.0578
423.2	30080	0.492332	-3.4972	0.0578
448.16	14930	0.057812	-0.5283	0.0489
448.16	14930	0.057812	-0.5347	0.0489
448.16	14930	0.057812	-0.5335	0.0489
448.16	14930	0.107742	-0.9843	0.05
448.16	14930	0.107742	-0.9891	0.05
448.16	14930	0.107742	-0.999	0.05
448.16	14930	0.210046	-1.931	0.0521
448.16	14930	0.210046	-1.9389	0.0522
448.16	14930	0.210046	-1.9462	0.0522
448.16	14930	0.334965	-3.0727	0.0548
448.16	14930	0.334965	-3.0911	0.0549
448.16	14930	0.334965	-3.1098	0.0549
448.16	14930	0.492332	-4.5249	0.0584
448.16	14930	0.492332	-4.5336	0.0584
448.16	14930	0.492332	-4.5571	0.0585
473.17	1960	0.050371	-0.6125	0.0555
473.17	1960	0.050371	-0.6183	0.0555
473.17	1960	0.050371	-0.6129	0.0555
473.17	1960	0.10501	-1.2621	0.056
473.17	1960	0.10501	-1.2664	0.056
473.17	1960	0.10501	-1.2571	0.056
473.17	1960	0.222927	-2.666	0.0572
473.17	1960	0.222927	-2.684	0.0572
473.17	1960	0.222927	-2.6713	0.0572
473.17	1960	0.355011	-4.1903	0.0585
473.17	1960	0.355011	-4.1789	0.0585
473.17	1960	0.355011	-4.1956	0.0585
473.17	1960	0.514468	-6.0097	0.0601
473.17	1960	0.514468	-6.0339	0.0601
473.17	1960	0.514468	-6.0054	0.0601
473.18	30080	0.050371	-0.4868	0.0593
473.18	30080	0.050371	-0.4947	0.0594
473.18	30080	0.050371	-0.4901	0.0593
473.18	30080	0.10501	-1.0158	0.0614
473.18	30080	0.10501	-1.0126	0.0614
473.18	30080	0.10501	-1.0159	0.0614
473.18	30080	0.222927	-2.1315	0.066
473.18	30080	0.222927	-2.1255	0.066
473.18	30080	0.222927	-2.1369	0.066
473.18	30080	0.355011	-3.3512	0.0712
473.18	30080	0.355011	-3.3553	0.0712
473.18	30080	0.355011	-3.3552	0.0712
473.18	30080	0.514468	-4.7811	0.0774
473.18	30080	0.514468	-4.7886	0.0775
473.18	30080	0.514468	-4.7872	0.0774
448.15	1820	0.057812	-0.582	0.047
448.15	1820	0.057812	-0.5811	0.047
448.15	1820	0.057812	-0.5813	0.047
448.15	1820	0.107742	-1.083	0.0474
448.15	1820	0.107742	-1.0838	0.0474
448.15	1820	0.107742	-1.0831	0.0474
448.15	1820	0.210046	-2.1223	0.0482
448.15	1820	0.210046	-2.111	0.0482
448.15	1820	0.210046	-2.1098	0.0482
448.15	1820	0.334965	-3.3963	0.0493
448.15	1820	0.334965	-3.3619	0.0492
448.15	1820	0.334965	-3.3774	0.0493
448.15	1820	0.492332	-4.9908	0.0506
448.15	1820	0.492332	-4.9628	0.0506
448.15	1820	0.492332	-4.9861	0.0506
448.15	30180	0.057812	-0.4861	0.0515
448.15	30180	0.057812	-0.4933	0.0516
448.15	30180	0.057812	-0.4986	0.0516
448.15	30180	0.107742	-0.9086	0.0532
448.15	30180	0.107742	-0.9228	0.0532
448.15	30180	0.107742	-0.9192	0.0532
448.15	30180	0.210046	-1.7793	0.0566
448.15	30180	0.210046	-1.785	0.0567
448.15	30180	0.210046	-1.7872	0.0567
448.15	30180	0.334965	-2.8176	0.0609
448.15	30180	0.334965	-2.8328	0.061
448.15	30180	0.334965	-2.8395	0.061
448.15	30180	0.492332	-4.125	0.0665
448.15	30180	0.492332	-4.1435	0.0666
448.15	30180	0.492332	-4.152	0.0667
473.18	15310	0.050371	-0.5407	0.0574
473.18	15310	0.050371	-0.5448	0.0574
473.18	15310	0.050371	-0.545	0.0574
473.18	15310	0.10501	-1.1295	0.0588
473.18	15310	0.10501	-1.1254	0.0588
473.18	15310	0.10501	-1.1295	0.0588
473.18	15310	0.222927	-2.3747	0.0618
473.18	15310	0.222927	-2.3762	0.0618
473.18	15310	0.222927	-2.3729	0.0618
473.18	15310	0.355011	-3.7443	0.0652
473.18	15310	0.355011	-3.7493	0.0652
473.18	15310	0.355011	-3.7508	0.0652
473.18	15310	0.514468	-5.3514	0.0692
473.18	15310	0.514468	-5.3551	0.0692
473.18	15310	0.514468	-5.3569	0.0692
498.15	2940	0.051171	-0.7173	0.0675
498.15	2940	0.051171	-0.7202	0.0675
498.15	2940	0.051171	-0.7171	0.0675
498.15	2940	0.10501	-1.4615	0.0682
498.15	2940	0.10501	-1.4673	0.0682
498.15	2940	0.10501	-1.4696	0.0682
498.15	2940	0.222927	-3.0861	0.0698
498.15	2940	0.222927	-3.0807	0.0698
498.15	2940	0.222927	-3.0774	0.0698
498.15	2940	0.355011	-4.8403	0.0716
498.15	2940	0.355011	-4.8334	0.0716
498.15	2940	0.355011	-4.835	0.0716
498.15	2940	0.514468	-6.8726	0.0737
498.15	2940	0.514468	-6.889	0.0737
498.15	2940	0.514468	-6.8771	0.0737
498.16	14960	0.051171	-0.6275	0.0694
498.16	14960	0.051171	-0.6372	0.0694
498.16	14960	0.051171	-0.6311	0.0694
498.16	14960	0.10501	-1.2993	0.071
498.16	14960	0.10501	-1.3029	0.071
498.16	14960	0.10501	-1.3155	0.0711
498.16	14960	0.222927	-2.7336	0.0745
498.16	14960	0.222927	-2.7239	0.0745
498.16	14960	0.222927	-2.7356	0.0745
498.16	14960	0.355011	-4.2648	0.0783
498.16	14960	0.355011	-4.2688	0.0783
498.16	14960	0.355011	-4.2681	0.0783
498.16	14960	0.514468	-6.0575	0.0829
498.16	14960	0.514468	-6.058	0.0829
498.16	14960	0.514468	-6.0979	0.083
523.13	5050	0.051171	-0.8181	0.0844
523.13	5050	0.051171	-0.8203	0.0844
523.13	5050	0.051171	-0.819	0.0844
523.13	5050	0.10501	-1.6724	0.0855
523.13	5050	0.10501	-1.6704	0.0855
523.13	5050	0.10501	-1.6742	0.0855
523.13	5050	0.222927	-3.4909	0.0878
523.13	5050	0.222927	-3.492	0.0878
523.13	5050	0.222927	-3.4906	0.0878
523.13	5050	0.355011	-5.4599	0.0904
523.13	5050	0.355011	-5.4599	0.0904
523.13	5050	0.355011	-5.4608	0.0904
523.13	5050	0.514468	-7.7367	0.0935
523.13	5050	0.514468	-7.7349	0.0935
523.13	5050	0.514468	-7.7364	0.0935
523.13	29960	0.051171	-0.6088	0.0879
523.13	29960	0.051171	-0.606	0.0879
523.13	29960	0.051171	-0.6113	0.088
523.13	29960	0.10501	-1.2502	0.0907
523.13	29960	0.10501	-1.2475	0.0907
523.13	29960	0.10501	-1.2487	0.0907
523.13	29960	0.222927	-2.5985	0.0966
523.13	29960	0.222927	-2.6101	0.0967
523.13	29960	0.222927	-2.5998	0.0966
523.13	29960	0.355011	-4.0585	0.1032
523.13	29960	0.355011	-4.0517	0.1031
523.13	29960	0.355011	-4.057	0.1032
523.13	29960	0.514468	-5.7226	0.1113
523.13	29960	0.514468	-5.7214	0.1113
523.13	29960	0.514468	-5.7202	0.1113
548.24	15380	0.051171	-0.8188	0.1089
548.24	15380	0.051171	-0.8139	0.1088
548.24	15380	0.051171	-0.8128	0.1088
548.24	15380	0.10501	-1.6672	0.1113
548.24	15380	0.10501	-1.6575	0.1112
548.24	15380	0.10501	-1.6658	0.1113
548.24	15380	0.222927	-3.4559	0.117
548.24	15380	0.222927	-3.4498	0.117
548.24	15380	0.222927	-3.4557	0.117
548.24	15380	0.355011	-5.3731	0.1232
548.24	15380	0.355011	-5.3695	0.1232
548.24	15380	0.355011	-5.3736	0.1232
548.24	15380	0.514468	-7.5692	0.1303
548.24	15380	0.514468	-7.5658	0.1303
548.24	15380	0.514468	-7.5731	0.1303
498.16	30430	0.051171	-0.5489	0.0713
498.16	30430	0.051171	-0.5606	0.0714
498.16	30430	0.051171	-0.5603	0.0714
498.16	30430	0.10501	-1.1225	0.0737
498.16	30430	0.10501	-1.127	0.0738
498.16	30430	0.10501	-1.1288	0.0738
498.16	30430	0.222927	-2.3396	0.0789
498.16	30430	0.222927	-2.3669	0.0791
498.16	30430	0.222927	-2.3716	0.0791
498.16	30430	0.355011	-3.715	0.085
498.16	30430	0.355011	-3.7183	0.085
498.16	30430	0.355011	-3.7225	0.085
498.16	30430	0.514468	-5.2554	0.0919
498.16	30430	0.514468	-5.2611	0.0919
498.16	30430	0.514468	-5.2673	0.092
523.13	15300	0.051171	-0.7236	0.0857
523.13	15300	0.051171	-0.7159	0.0857
523.13	15300	0.051171	-0.7173	0.0857
523.13	15300	0.10501	-1.463	0.0876
523.13	15300	0.10501	-1.464	0.0876
523.13	15300	0.10501	-1.4695	0.0876
523.13	15300	0.222927	-3.0612	0.0917
523.13	15300	0.222927	-3.0562	0.0917
523.13	15300	0.222927	-3.0526	0.0917
523.13	15300	0.355011	-4.7699	0.0962
523.13	15300	0.355011	-4.771	0.0962
523.13	15300	0.355011	-4.7578	0.0962
523.13	15300	0.514468	-6.7451	0.1016
523.13	15300	0.514468	-6.7463	0.1016
523.13	15300	0.514468	-6.7435	0.1016
548.23	7170	0.051171	-0.9377	0.1078
548.23	7170	0.051171	-0.9359	0.1078
548.23	7170	0.051171	-0.9358	0.1078
548.23	7170	0.10501	-1.9154	0.1096
548.23	7170	0.10501	-1.9117	0.1096
548.23	7170	0.10501	-1.9127	0.1096
548.23	7170	0.222927	-3.982	0.1136
548.23	7170	0.222927	-3.9822	0.1136
548.23	7170	0.222927	-3.9795	0.1136
548.23	7170	0.355011	-6.2109	0.1179
548.23	7170	0.355011	-6.2088	0.1179
548.23	7170	0.355011	-6.2118	0.1179
548.23	7170	0.514468	-8.773	0.1229
548.23	7170	0.514468	-8.7743	0.1229
548.23	7170	0.514468	-8.7742	0.1229
548.22	23950	0.051171	-0.7255	0.1102
548.22	23950	0.051171	-0.7183	0.1102
548.22	23950	0.051171	-0.7188	0.1102
548.22	23950	0.10501	-1.4765	0.113
548.22	23950	0.10501	-1.4669	0.113
548.22	23950	0.10501	-1.4628	0.113
548.22	23950	0.222927	-3.0512	0.1197
548.22	23950	0.222927	-3.0401	0.1196
548.22	23950	0.222927	-3.0421	0.1197
548.22	23950	0.355011	-4.7384	0.1273
548.22	23950	0.355011	-4.7305	0.1273
548.22	23950	0.355011	-4.727	0.1273
548.22	23950	0.514468	-6.6595	0.136
548.22	23950	0.514468	-6.65	0.136
548.22	23950	0.514468	-6.6477	0.136
548.23	30290	0.055101	-0.7162	0.1112
548.23	30290	0.055101	-0.709	0.1112
548.23	30290	0.055101	-0.7161	0.1112
548.23	30290	0.106763	-1.3816	0.1142
548.23	30290	0.106763	-1.3728	0.1142
548.23	30290	0.106763	-1.3777	0.1142
548.23	30290	0.219157	-2.7645	0.1211
548.23	30290	0.219157	-2.7588	0.1211
548.23	30290	0.219157	-2.7563	0.1211
548.23	30290	0.357332	-4.384	0.13
548.23	30290	0.357332	-4.3792	0.13
548.23	30290	0.357332	-4.3823	0.13
548.23	30290	0.539395	-6.3745	0.141
548.23	30290	0.539395	-6.3767	0.141
548.23	30290	0.539395	-6.3806	0.141
573.3	15280	0.055101	-1.0279	0.1441
573.3	15280	0.055101	-1.0291	0.1441
573.3	15280	0.055101	-1.031	0.1441
573.3	15280	0.106763	-1.9773	0.1471
573.3	15280	0.106763	-1.9747	0.1471
573.3	15280	0.106763	-1.9843	0.1471
573.3	15280	0.219157	-3.9649	0.1534
573.3	15280	0.219157	-3.9681	0.1535
573.3	15280	0.219157	-3.9689	0.1535
573.3	15280	0.357332	-6.2944	0.161
573.3	15280	0.357332	-6.295	0.161
573.3	15280	0.357332	-6.3028	0.161
573.3	15280	0.539395	-9.1721	0.1703
573.3	15280	0.539395	-9.1766	0.1703
573.3	15280	0.539395	-9.1822	0.1704
573.3	30120	0.055101	-0.777	0.1451
573.3	30120	0.055101	-0.7742	0.1451
573.3	30120	0.055101	-0.7743	0.1451
573.3	30120	0.106763	-1.49	0.149
573.3	30120	0.106763	-1.4874	0.149
573.3	30120	0.106763	-1.486	0.1489
573.3	30120	0.219157	-2.9779	0.1571
573.3	30120	0.219157	-2.9777	0.1571
573.3	30120	0.219157	-2.9833	0.1571
573.3	30120	0.357332	-4.7011	0.1665
573.3	30120	0.357332	-4.7069	0.1666
573.3	30120	0.357332	-4.7083	0.1666
573.3	30120	0.539395	-6.8236	0.1782
573.3	30120	0.539395	-6.8207	0.1782
573.3	30120	0.539395	-6.8243	0.1782
573.29	10390	0.055101	-1.1428	0.1436
573.29	10390	0.055101	-1.1403	0.1436
573.29	10390	0.055101	-1.1459	0.1436
573.29	10390	0.106763	-2.2046	0.1461
573.29	10390	0.106763	-2.2031	0.1461
573.29	10390	0.106763	-2.2251	0.1462
573.29	10390	0.219157	-4.4368	0.1516
573.29	10390	0.219157	-4.4673	0.1516
573.29	10390	0.219157	-4.4822	0.1517
573.29	10390	0.357332	-7.096	0.1581
573.29	10390	0.357332	-7.1236	0.1582
573.29	10390	0.357332	-7.1454	0.1582
573.29	10390	0.539395	-10.3977	0.1664
573.29	10390	0.539395	-10.4205	0.1665
573.29	10390	0.539395	-10.4447	0.1666
573.29	23850	0.055101	-0.8638	0.1447
573.29	23850	0.055101	-0.862	0.1447
573.29	23850	0.055101	-0.8651	0.1447
573.29	23850	0.106763	-1.6578	0.1483
573.29	23850	0.106763	-1.6566	0.1483
573.29	23850	0.106763	-1.6591	0.1483
573.29	23850	0.219157	-3.3184	0.1557
573.29	23850	0.219157	-3.3208	0.1557
573.29	23850	0.219157	-3.3149	0.1557
573.29	23850	0.357332	-5.2544	0.1645
573.29	23850	0.357332	-5.2554	0.1645
573.29	23850	0.357332	-5.2462	0.1645
573.29	23850	0.539395	-7.6249	0.1753
573.29	23850	0.539395	-7.6335	0.1753
573.29	23850	0.539395	-7.6377	0.1753

System: 2-[2-(2-methoxyethoxy)ethoxy]ethanol + water; phases: Liquid
Property: Mass density, kg/m3 (Liquid); method: Vibrating tube method
Temperature, K	Pressure, kPa	Molality, mol/kg of 2-[2-(2-methoxyethoxy)ethoxy]ethanol	Mass density, kg/m3	uncertainty
298.2	510	0.0635	0.9465	0.0318
298.2	510	0.0635	0.9602	0.0318
298.2	510	0.0635	0.9529	0.0318
298.2	510	0.114573	1.7036	0.0325
298.2	510	0.114573	1.7204	0.0325
298.2	510	0.114573	1.7098	0.0325
298.2	510	0.233265	3.4635	0.034
298.2	510	0.233265	3.4668	0.034
298.2	510	0.233265	3.4618	0.034
298.2	510	0.378741	5.5578	0.0358
298.2	510	0.378741	5.5797	0.0358
298.2	510	0.378741	5.5623	0.0358
298.2	510	0.538418	7.8347	0.0377
298.2	510	0.538418	7.8523	0.0377
298.2	510	0.538418	7.8396	0.0377
298.17	15100	0.0635	0.9038	0.0338
298.17	15100	0.0635	0.9018	0.0338
298.17	15100	0.0635	0.9016	0.0338
298.17	15100	0.114573	1.6277	0.0361
298.17	15100	0.114573	1.6263	0.0361
298.17	15100	0.114573	1.6283	0.0361
298.17	15100	0.233265	3.2938	0.0413
298.17	15100	0.233265	3.297	0.0413
298.17	15100	0.233265	3.2938	0.0413
298.17	15100	0.378741	5.3082	0.0475
298.17	15100	0.378741	5.3069	0.0475
298.17	15100	0.378741	5.3081	0.0475
298.17	15100	0.538418	7.4902	0.0544
298.17	15100	0.538418	7.4877	0.0543
298.17	15100	0.538418	7.49	0.0544
298.15	30200	0.0635	0.8509	0.0356
298.15	30200	0.0635	0.8534	0.0356
298.15	30200	0.0635	0.8524	0.0356
298.15	30200	0.114573	1.5392	0.0394
298.15	30200	0.114573	1.5353	0.0394
298.15	30200	0.114573	1.5384	0.0394
298.15	30200	0.233265	3.1213	0.048
298.15	30200	0.233265	3.122	0.048
298.15	30200	0.233265	3.1233	0.048
298.15	30200	0.378741	5.0326	0.0584
298.15	30200	0.378741	5.0346	0.0585
298.15	30200	0.378741	5.041	0.0585
298.15	30200	0.538418	7.1148	0.0698
298.15	30200	0.538418	7.1189	0.0698
298.15	30200	0.538418	7.1249	0.0699
318.19	520	0.0635	0.8558	0.0317
318.19	520	0.0635	0.8548	0.0317
318.19	520	0.0635	0.8558	0.0317
318.19	520	0.114573	1.5386	0.0323
318.19	520	0.114573	1.5386	0.0323
318.19	520	0.114573	1.5386	0.0323
318.19	520	0.233265	3.1011	0.0337
318.19	520	0.233265	3.102	0.0337
318.19	520	0.233265	3.101	0.0337
318.19	520	0.378741	4.9661	0.0353
318.19	520	0.378741	4.9651	0.0353
318.19	520	0.378741	4.9659	0.0353
318.19	520	0.538418	6.9658	0.037
318.19	520	0.538418	6.964	0.037
318.19	520	0.538418	6.9655	0.037
318.2	30710	0.0635	0.7915	0.0354
318.2	30710	0.0635	0.7929	0.0354
318.2	30710	0.0635	0.798	0.0354
318.2	30710	0.114573	1.4272	0.0389
318.2	30710	0.114573	1.4292	0.0389
318.2	30710	0.114573	1.4299	0.0389
318.2	30710	0.233265	2.8844	0.047
318.2	30710	0.233265	2.8881	0.047
318.2	30710	0.233265	2.893	0.047
318.2	30710	0.378741	4.6297	0.0566
318.2	30710	0.378741	4.6327	0.0566
318.2	30710	0.378741	4.6401	0.0567
318.2	30710	0.538418	6.5112	0.067
318.2	30710	0.538418	6.5186	0.0671
318.2	30710	0.538418	6.5321	0.0672
338.18	520	0.0635	0.7764	0.0317
338.18	520	0.0635	0.7757	0.0317
338.18	520	0.0635	0.7747	0.0317
338.18	520	0.114573	1.3935	0.0322
338.18	520	0.114573	1.3933	0.0322
338.18	520	0.114573	1.3956	0.0322
338.18	520	0.233265	2.802	0.0334
338.18	520	0.233265	2.802	0.0334
338.18	520	0.233265	2.8005	0.0334
338.18	520	0.378741	4.4721	0.0349
338.18	520	0.378741	4.4723	0.0349
338.18	520	0.378741	4.4706	0.0349
338.18	520	0.538418	6.2473	0.0364
338.18	520	0.538418	6.248	0.0364
338.18	520	0.538418	6.2493	0.0364
338.22	29990	0.0635	0.7419	0.0358
338.22	29990	0.0635	0.7428	0.0358
338.22	29990	0.0635	0.7404	0.0358
338.22	29990	0.114573	1.3369	0.0384
338.22	29990	0.114573	1.3384	0.0384
338.22	29990	0.114573	1.337	0.0384
338.22	29990	0.233265	2.6888	0.0456
338.22	29990	0.233265	2.6903	0.0456
338.22	29990	0.233265	2.6898	0.0456
338.22	29990	0.378741	4.2962	0.0543
338.22	29990	0.378741	4.301	0.0544
338.22	29990	0.378741	4.2997	0.0544
338.22	29990	0.538418	6.0202	0.0637
338.22	29990	0.538418	6.0246	0.0637
338.22	29990	0.538418	6.027	0.0637
358.25	15010	0.0635	0.6977	0.0349
358.25	15010	0.0635	0.6992	0.0349
358.25	15010	0.0635	0.6978	0.0349
358.25	15010	0.114573	1.2528	0.0363
358.25	15010	0.114573	1.2533	0.0363
358.25	15010	0.114573	1.2551	0.0363
358.25	15010	0.233265	2.5222	0.0395
358.25	15010	0.233265	2.511	0.0395
358.25	15010	0.233265	2.5122	0.0395
358.25	15010	0.378741	4.0031	0.0437
358.25	15010	0.378741	4	0.0437
358.25	15010	0.378741	4.0005	0.0437
358.25	15010	0.538418	5.5833	0.0486
358.25	15010	0.538418	5.5848	0.0486
358.25	15010	0.538418	5.5856	0.0486
318.19	15290	0.0635	0.8251	0.0336
318.19	15290	0.0635	0.8252	0.0336
318.19	15290	0.0635	0.8232	0.0336
318.19	15290	0.114573	1.4877	0.0357
318.19	15290	0.114573	1.4872	0.0357
318.19	15290	0.114573	1.4901	0.0357
318.19	15290	0.233265	3.0011	0.0404
318.19	15290	0.233265	2.9999	0.0404
318.19	15290	0.233265	3.0006	0.0404
318.19	15290	0.378741	4.8158	0.0462
318.19	15290	0.378741	4.8161	0.0462
318.19	15290	0.378741	4.8121	0.0461
318.19	15290	0.538418	6.7593	0.0523
318.19	15290	0.538418	6.7595	0.0523
318.19	15290	0.538418	6.7602	0.0523
338.19	15260	0.0635	0.7607	0.0336
338.19	15260	0.0635	0.7607	0.0336
338.19	15260	0.0635	0.7599	0.0336
338.19	15260	0.114573	1.3702	0.0353
338.19	15260	0.114573	1.3696	0.0353
338.19	15260	0.114573	1.3688	0.0353
338.19	15260	0.233265	2.7484	0.0397
338.19	15260	0.233265	2.7503	0.0397
338.19	15260	0.233265	2.7481	0.0397
338.19	15260	0.378741	4.3933	0.0448
338.19	15260	0.378741	4.3905	0.0448
338.19	15260	0.378741	4.3927	0.0448
338.19	15260	0.538418	6.146	0.0504
338.19	15260	0.538418	6.1453	0.0504
338.19	15260	0.538418	6.1452	0.0504
358.25	520	0.0635	0.7017	0.0323
358.25	520	0.0635	0.7034	0.0323
358.25	520	0.0635	0.7039	0.0323
358.25	520	0.114573	1.266	0.0327
358.25	520	0.114573	1.2639	0.0327
358.25	520	0.114573	1.2651	0.0327
358.25	520	0.233265	2.5304	0.0336
358.25	520	0.233265	2.5267	0.0336
358.25	520	0.233265	2.5312	0.0336
358.25	520	0.378741	4.0247	0.0347
358.25	520	0.378741	4.0233	0.0347
358.25	520	0.378741	4.0271	0.0347
358.25	520	0.538418	5.6117	0.0361
358.25	520	0.538418	5.6087	0.0361
358.25	520	0.538418	5.6126	0.0361
358.26	30250	0.0635	0.6932	0.0372
358.26	30250	0.0635	0.6909	0.0372
358.26	30250	0.0635	0.6899	0.0372
358.26	30250	0.114573	1.2388	0.0396
358.26	30250	0.114573	1.2387	0.0396
358.26	30250	0.114573	1.2415	0.0396
358.26	30250	0.233265	2.482	0.0451
358.26	30250	0.233265	2.4851	0.0451
358.26	30250	0.233265	2.4879	0.0451
358.26	30250	0.378741	3.9558	0.0529
358.26	30250	0.378741	3.9633	0.0529
358.26	30250	0.378741	3.9588	0.0529
358.26	30250	0.538418	5.5289	0.0615
358.26	30250	0.538418	5.536	0.0615
358.26	30250	0.538418	5.5348	0.0615
373.21	520	0.06753	0.6973	0.0335
373.21	520	0.06753	0.6941	0.0335
373.21	520	0.06753	0.692	0.0335
373.21	520	0.124989	1.2785	0.0339
373.21	520	0.124989	1.2796	0.0339
373.21	520	0.124989	1.2747	0.0339
373.21	520	0.257501	2.5771	0.0348
373.21	520	0.257501	2.5752	0.0348
373.21	520	0.257501	2.574	0.0348
373.21	520	0.380102	3.7318	0.0356
373.21	520	0.380102	3.7327	0.0356
373.21	520	0.380102	3.7219	0.0356
373.21	520	0.50703	4.8968	0.0364
373.21	520	0.50703	4.8758	0.0364
373.21	520	0.50703	4.8759	0.0364
373.22	30240	0.06753	0.6936	0.0385
373.22	30240	0.06753	0.6943	0.0385
373.22	30240	0.06753	0.6946	0.0385
373.22	30240	0.124989	1.2765	0.041
373.22	30240	0.124989	1.2754	0.041
373.22	30240	0.124989	1.275	0.041
373.22	30240	0.257501	2.5753	0.0467
373.22	30240	0.257501	2.5782	0.0467
373.22	30240	0.257501	2.5779	0.0467
373.22	30240	0.380102	3.7377	0.052
373.22	30240	0.380102	3.7403	0.052
373.22	30240	0.380102	3.7408	0.052
373.22	30240	0.50703	4.8914	0.0583
373.22	30240	0.50703	4.8964	0.0584
373.22	30240	0.50703	4.8974	0.0584
398.21	15030	0.06753	0.6172	0.0392
398.21	15030	0.06753	0.6148	0.0392
398.21	15030	0.06753	0.6109	0.0392
398.21	15030	0.124989	1.1313	0.0404
398.21	15030	0.124989	1.1321	0.0404
398.21	15030	0.124989	1.13	0.0404
398.21	15030	0.257501	2.2817	0.0432
398.21	15030	0.257501	2.2813	0.0432
398.21	15030	0.257501	2.2799	0.0432
398.21	15030	0.380102	3.3038	0.0457
398.21	15030	0.380102	3.3018	0.0457
398.21	15030	0.380102	3.3002	0.0457
398.21	15030	0.50703	4.3183	0.0482
398.21	15030	0.50703	4.3132	0.0482
398.21	15030	0.50703	4.3177	0.0482
423.2	1740	0.06753	0.5227	0.0409
423.2	1740	0.06753	0.523	0.0409
423.2	1740	0.06753	0.5252	0.0409
423.2	1740	0.124989	0.9664	0.0412
423.2	1740	0.124989	0.9657	0.0412
423.2	1740	0.124989	0.9643	0.0412
423.2	1740	0.257501	1.9287	0.042
423.2	1740	0.257501	1.9132	0.042
423.2	1740	0.257501	1.931	0.042
423.2	1740	0.380102	2.8019	0.0427
423.2	1740	0.380102	2.7911	0.0427
423.2	1740	0.380102	2.7853	0.0427
423.2	1740	0.50703	3.6237	0.0434
423.2	1740	0.50703	3.63	0.0434
423.2	1740	0.50703	3.6277	0.0434
373.22	15160	0.06753	0.6898	0.0362
373.22	15160	0.06753	0.6916	0.0362
373.22	15160	0.06753	0.6915	0.0362
373.22	15160	0.124989	1.2754	0.0376
373.22	15160	0.124989	1.2744	0.0376
373.22	15160	0.124989	1.2706	0.0376
373.22	15160	0.257501	2.5744	0.0409
373.22	15160	0.257501	2.5823	0.0409
373.22	15160	0.257501	2.5806	0.0409
373.22	15160	0.380102	3.7498	0.0439
373.22	15160	0.380102	3.7413	0.0439
373.22	15160	0.380102	3.7362	0.0439
373.22	15160	0.50703	4.891	0.0469
373.22	15160	0.50703	4.8902	0.0469
373.22	15160	0.50703	4.9009	0.0469
398.2	1750	0.06753	0.6091	0.0366
398.2	1750	0.06753	0.6102	0.0366
398.2	1750	0.06753	0.6062	0.0366
398.2	1750	0.124989	1.1169	0.037
398.2	1750	0.124989	1.1093	0.037
398.2	1750	0.124989	1.1151	0.037
398.2	1750	0.257501	2.2404	0.0379
398.2	1750	0.257501	2.2393	0.0379
398.2	1750	0.257501	2.2423	0.0379
398.2	1750	0.380102	3.2423	0.0387
398.2	1750	0.380102	3.2407	0.0387
398.2	1750	0.380102	3.2412	0.0387
398.2	1750	0.50703	4.2291	0.0396
398.2	1750	0.50703	4.2278	0.0396
398.2	1750	0.50703	4.2283	0.0396
398.22	30000	0.06753	0.6209	0.0415
398.22	30000	0.06753	0.6235	0.0415
398.22	30000	0.06753	0.624	0.0415
398.22	30000	0.124989	1.1478	0.0436
398.22	30000	0.124989	1.1459	0.0436
398.22	30000	0.124989	1.1484	0.0436
398.22	30000	0.257501	2.3155	0.0485
398.22	30000	0.257501	2.3152	0.0485
398.22	30000	0.257501	2.3157	0.0485
398.22	30000	0.380102	3.3479	0.0529
398.22	30000	0.380102	3.3502	0.0529
398.22	30000	0.380102	3.3549	0.053
398.22	30000	0.50703	4.3773	0.0575
398.22	30000	0.50703	4.3859	0.0575
398.22	30000	0.50703	4.3885	0.0575
423.2	15330	0.06753	0.5437	0.0429
423.2	15330	0.06753	0.5473	0.0429
423.2	15330	0.06753	0.5431	0.0429
423.2	15330	0.124989	1.0014	0.044
423.2	15330	0.124989	0.9964	0.044
423.2	15330	0.124989	0.9966	0.044
423.2	15330	0.257501	2.0092	0.0464
423.2	15330	0.257501	2.0095	0.0464
423.2	15330	0.257501	2.0091	0.0464
423.2	15330	0.380102	2.9077	0.0485
423.2	15330	0.380102	2.9037	0.0485
423.2	15330	0.380102	2.8989	0.0485
423.2	15330	0.50703	3.7889	0.0507
423.2	15330	0.50703	3.7887	0.0507
423.2	15330	0.50703	3.7722	0.0507
423.2	30090	0.06753	0.5584	0.0457
423.2	30090	0.06753	0.5629	0.0457
423.2	30090	0.06753	0.5598	0.0457
423.2	30090	0.124989	1.0325	0.0476
423.2	30090	0.124989	1.0336	0.0476
423.2	30090	0.124989	1.0289	0.0476
423.2	30090	0.257501	2.0731	0.0518
423.2	30090	0.257501	2.0735	0.0518
423.2	30090	0.257501	2.0787	0.0518
423.2	30090	0.380102	2.9923	0.0556
423.2	30090	0.380102	3	0.0556
423.2	30090	0.380102	2.9973	0.0556
423.2	30090	0.50703	3.9138	0.0596
423.2	30090	0.50703	3.9187	0.0596
423.2	30090	0.50703	3.9169	0.0596
448.16	14930	0.06753	0.4782	0.0488
448.16	14930	0.06753	0.4815	0.0488
448.16	14930	0.06753	0.4786	0.0488
448.16	14930	0.124989	0.88	0.0497
448.16	14930	0.124989	0.8769	0.0497
448.16	14930	0.124989	0.8803	0.0497
448.16	14930	0.257501	1.761	0.0517
448.16	14930	0.257501	1.7489	0.0517
448.16	14930	0.257501	1.7552	0.0517
448.16	14930	0.380102	2.535	0.0535
448.16	14930	0.380102	2.5315	0.0535
448.16	14930	0.380102	2.5348	0.0535
448.16	14930	0.50703	3.3058	0.0554
448.16	14930	0.50703	3.3043	0.0554
448.16	14930	0.50703	3.3026	0.0554
473.17	1960	0.055491	0.3033	0.0552
473.17	1960	0.055491	0.3127	0.0552
473.17	1960	0.055491	0.3087	0.0552
473.17	1960	0.10968	0.5942	0.0555
473.17	1960	0.10968	0.5958	0.0555
473.17	1960	0.10968	0.5882	0.0555
473.17	1960	0.221089	1.1529	0.0559
473.17	1960	0.221089	1.162	0.0559
473.17	1960	0.221089	1.1666	0.056
473.17	1960	0.395437	2.0019	0.0567
473.17	1960	0.395437	1.978	0.0566
473.17	1960	0.395437	1.9836	0.0567
473.17	1960	0.560438	2.7407	0.0573
473.17	1960	0.560438	2.7219	0.0573
473.17	1960	0.560438	2.7199	0.0573
473.18	30060	0.055491	0.3703	0.0589
473.18	30060	0.055491	0.3736	0.0589
473.18	30060	0.055491	0.3805	0.0589
473.18	30060	0.10968	0.7268	0.0603
473.18	30060	0.10968	0.7335	0.0603
473.18	30060	0.10968	0.7303	0.0603
473.18	30060	0.221089	1.4411	0.0631
473.18	30060	0.221089	1.4418	0.0632
473.18	30060	0.221089	1.4275	0.0631
473.18	30060	0.395437	2.5049	0.0676
473.18	30060	0.395437	2.5029	0.0676
473.18	30060	0.395437	2.5002	0.0675
473.18	30060	0.560438	3.449	0.0716
473.18	30060	0.560438	3.4561	0.0716
473.18	30060	0.560438	3.4488	0.0716
448.15	1820	0.06753	0.4482	0.0469
448.15	1820	0.06753	0.4496	0.0469
448.15	1820	0.06753	0.4486	0.0469
448.15	1820	0.124989	0.8211	0.0472
448.15	1820	0.124989	0.8184	0.0472
448.15	1820	0.124989	0.8187	0.0472
448.15	1820	0.257501	1.641	0.0478
448.15	1820	0.257501	1.6312	0.0478
448.15	1820	0.257501	1.6356	0.0478
448.15	1820	0.380102	2.3597	0.0484
448.15	1820	0.380102	2.3567	0.0484
448.15	1820	0.380102	2.3526	0.0484
448.15	1820	0.50703	3.0692	0.049
448.15	1820	0.50703	3.0606	0.049
448.15	1820	0.50703	3.0552	0.049
448.15	30150	0.06753	0.5085	0.0516
448.15	30150	0.06753	0.5082	0.0516
448.15	30150	0.06753	0.5029	0.0516
448.15	30150	0.124989	0.9327	0.0533
448.15	30150	0.124989	0.933	0.0533
448.15	30150	0.124989	0.9326	0.0533
448.15	30150	0.257501	1.8716	0.057
448.15	30150	0.257501	1.862	0.057
448.15	30150	0.257501	1.8646	0.057
448.15	30150	0.380102	2.7002	0.0604
448.15	30150	0.380102	2.701	0.0604
448.15	30150	0.380102	2.7013	0.0604
448.15	30150	0.50703	3.5224	0.0639
448.15	30150	0.50703	3.52	0.0639
448.15	30150	0.50703	3.5248	0.0639
473.18	15310	0.055491	0.3373	0.057
473.18	15310	0.055491	0.339	0.057
473.18	15310	0.055491	0.3395	0.057
473.18	15310	0.10968	0.6608	0.0577
473.18	15310	0.10968	0.6638	0.0577
473.18	15310	0.10968	0.6626	0.0577
473.18	15310	0.221089	1.3055	0.0592
473.18	15310	0.221089	1.3054	0.0592
473.18	15310	0.221089	1.3048	0.0592
473.18	15310	0.395437	2.2746	0.0615
473.18	15310	0.395437	2.2653	0.0615
473.18	15310	0.395437	2.2667	0.0615
473.18	15310	0.560438	3.1209	0.0636
473.18	15310	0.560438	3.1252	0.0636
473.18	15310	0.560438	3.1207	0.0636
498.15	2940	0.055491	0.2314	0.067
498.15	2940	0.055491	0.2357	0.0671
498.15	2940	0.055491	0.2322	0.0671
498.15	2940	0.10968	0.4545	0.0673
498.15	2940	0.10968	0.4536	0.0673
498.15	2940	0.10968	0.4551	0.0673
498.15	2940	0.221089	0.8945	0.0677
498.15	2940	0.221089	0.907	0.0677
498.15	2940	0.221089	0.9136	0.0677
498.15	2940	0.395437	1.5539	0.0684
498.15	2940	0.395437	1.5704	0.0684
498.15	2940	0.395437	1.5505	0.0684
498.15	2940	0.560438	2.1354	0.069
498.15	2940	0.560438	2.1296	0.069
498.15	2940	0.560438	2.1349	0.069
498.16	14970	0.055491	0.2891	0.0686
498.16	14970	0.055491	0.2822	0.0686
498.16	14970	0.055491	0.2727	0.0686
498.16	14970	0.10968	0.5576	0.0692
498.16	14970	0.10968	0.5597	0.0693
498.16	14970	0.10968	0.5498	0.0692
498.16	14970	0.221089	1.0977	0.0705
498.16	14970	0.221089	1.0946	0.0705
498.16	14970	0.221089	1.0899	0.0705
498.16	14970	0.395437	1.9169	0.0725
498.16	14970	0.395437	1.9056	0.0725
498.16	14970	0.395437	1.8998	0.0725
498.16	14970	0.560438	2.642	0.0743
498.16	14970	0.560438	2.6404	0.0743
498.16	14970	0.560438	2.619	0.0743
523.13	5050	0.055491	0.1739	0.0836
523.13	5050	0.055491	0.1697	0.0836
523.13	5050	0.055491	0.1719	0.0836
523.13	5050	0.10968	0.3387	0.0838
523.13	5050	0.10968	0.341	0.0838
523.13	5050	0.10968	0.3387	0.0838
523.13	5050	0.221089	0.6691	0.0842
523.13	5050	0.221089	0.6697	0.0842
523.13	5050	0.221089	0.6692	0.0842
523.13	5050	0.395437	1.1596	0.0849
523.13	5050	0.395437	1.1651	0.0849
523.13	5050	0.395437	1.1608	0.0849
523.13	5050	0.560438	1.6068	0.0855
523.13	5050	0.560438	1.607	0.0855
523.13	5050	0.560438	1.6043	0.0855
523.13	29970	0.055491	0.3016	0.0866
523.13	29970	0.055491	0.3003	0.0866
523.13	29970	0.055491	0.3032	0.0866
523.13	29970	0.10968	0.5895	0.0879
523.13	29970	0.10968	0.5901	0.0879
523.13	29970	0.10968	0.5883	0.0879
523.13	29970	0.221089	1.17	0.0904
523.13	29970	0.221089	1.1651	0.0903
523.13	29970	0.221089	1.1674	0.0904
523.13	29970	0.395437	2.0358	0.0942
523.13	29970	0.395437	2.0384	0.0942
523.13	29970	0.395437	2.0402	0.0942
523.13	29970	0.560438	2.8274	0.0976
523.13	29970	0.560438	2.8265	0.0976
523.13	29970	0.560438	2.8291	0.0977
548.24	15380	0.055491	0.1804	0.1072
548.24	15380	0.055491	0.1792	0.1072
548.24	15380	0.055491	0.1809	0.1072
548.24	15380	0.10968	0.3585	0.1076
548.24	15380	0.10968	0.3589	0.1076
548.24	15380	0.10968	0.359	0.1076
548.24	15380	0.221089	0.7144	0.1086
548.24	15380	0.221089	0.7155	0.1086
548.24	15380	0.221089	0.7134	0.1086
548.24	15380	0.395437	1.261	0.1101
548.24	15380	0.395437	1.2682	0.1101
548.24	15380	0.395437	1.2637	0.1101
548.24	15380	0.560438	1.7685	0.1117
548.24	15380	0.560438	1.7711	0.1117
548.24	15380	0.560438	1.767	0.1117
498.16	30430	0.055491	0.3351	0.0704
498.16	30430	0.055491	0.3371	0.0705
498.16	30430	0.055491	0.3357	0.0704
498.16	30430	0.10968	0.6657	0.0718
498.16	30430	0.10968	0.6556	0.0718
498.16	30430	0.10968	0.653	0.0718
498.16	30430	0.221089	1.2916	0.0745
498.16	30430	0.221089	1.2957	0.0745
498.16	30430	0.221089	1.2951	0.0745
498.16	30430	0.395437	2.25	0.0786
498.16	30430	0.395437	2.2442	0.0785
498.16	30430	0.395437	2.2557	0.0786
498.16	30430	0.560438	3.1198	0.0824
498.16	30430	0.560438	3.1319	0.0824
498.16	30430	0.560438	3.1193	0.0824
523.13	15290	0.055491	0.238	0.0844
523.13	15290	0.055491	0.2299	0.0844
523.13	15290	0.055491	0.2326	0.0844
523.13	15290	0.10968	0.4611	0.085
523.13	15290	0.10968	0.4632	0.085
523.13	15290	0.10968	0.4575	0.085
523.13	15290	0.221089	0.9183	0.0862
523.13	15290	0.221089	0.9154	0.0862
523.13	15290	0.221089	0.9203	0.0862
523.13	15290	0.395437	1.5895	0.0879
523.13	15290	0.395437	1.5954	0.0879
523.13	15290	0.395437	1.5868	0.0879
523.13	15290	0.560438	2.2015	0.0895
523.13	15290	0.560438	2.2101	0.0896
523.13	15290	0.560438	2.211	0.0896
548.23	7180	0.055491	0.1039	0.1064
548.23	7180	0.055491	0.0972	0.1064
548.23	7180	0.055491	0.105	0.1064
548.23	7180	0.10968	0.2104	0.1066
548.23	7180	0.10968	0.212	0.1066
548.23	7180	0.10968	0.2104	0.1066
548.23	7180	0.221089	0.4223	0.107
548.23	7180	0.221089	0.4238	0.107
548.23	7180	0.221089	0.4223	0.107
548.23	7180	0.395437	0.7494	0.1075
548.23	7180	0.395437	0.7531	0.1075
548.23	7180	0.395437	0.7485	0.1075
548.23	7180	0.560438	1.0518	0.1081
548.23	7180	0.560438	1.0572	0.1081
548.23	7180	0.560438	1.0504	0.1081
548.22	23980	0.055491	0.2358	0.1084
548.22	23980	0.055491	0.243	0.1084
548.22	23980	0.055491	0.2407	0.1084
548.22	23980	0.10968	0.472	0.1093
548.22	23980	0.10968	0.4732	0.1093
548.22	23980	0.10968	0.4739	0.1093
548.22	23980	0.221089	0.943	0.111
548.22	23980	0.221089	0.9442	0.111
548.22	23980	0.221089	0.9447	0.111
548.22	23980	0.395437	1.6673	0.1138
548.22	23980	0.395437	1.6655	0.1138
548.22	23980	0.395437	1.6621	0.1137
548.22	23980	0.560438	2.3266	0.1165
548.22	23980	0.560438	2.3265	0.1165
548.22	23980	0.560438	2.3259	0.1165
548.23	30340	0.056055	0.275	0.1092
548.23	30340	0.056055	0.2766	0.1092
548.23	30340	0.056055	0.2764	0.1092
548.23	30340	0.107298	0.5219	0.1103
548.23	30340	0.107298	0.5276	0.1104
548.23	30340	0.107298	0.5225	0.1103
548.23	30340	0.23269	1.1326	0.1131
548.23	30340	0.23269	1.1346	0.1131
548.23	30340	0.23269	1.1241	0.1131
548.23	30340	0.389406	1.8696	0.1165
548.23	30340	0.389406	1.8695	0.1165
548.23	30340	0.389406	1.8665	0.1164
548.23	30340	0.535022	2.5321	0.1199
548.23	30340	0.535022	2.5299	0.1199
548.23	30340	0.535022	2.5305	0.1199
573.29	15270	0.056055	0.1081	0.1412
573.29	15270	0.056055	0.1069	0.1412
573.29	15270	0.056055	0.1066	0.1412
573.29	15270	0.107298	0.216	0.1415
573.29	15270	0.107298	0.2107	0.1415
573.29	15270	0.107298	0.2131	0.1415
573.29	15270	0.23269	0.4882	0.1424
573.29	15270	0.23269	0.4879	0.1424
573.29	15270	0.23269	0.4766	0.1424
573.29	15270	0.389406	0.8318	0.1436
573.29	15270	0.389406	0.8306	0.1436
573.29	15270	0.389406	0.8269	0.1435
573.29	15270	0.535022	1.1589	0.1447
573.29	15270	0.535022	1.154	0.1446
573.29	15270	0.535022	1.1543	0.1446
573.3	30110	0.056055	0.2491	0.1422
573.3	30110	0.056055	0.2456	0.1422
573.3	30110	0.056055	0.2486	0.1422
573.3	30110	0.107298	0.4757	0.1434
573.3	30110	0.107298	0.478	0.1434
573.3	30110	0.107298	0.4765	0.1434
573.3	30110	0.23269	1.0405	0.1465
573.3	30110	0.23269	1.0436	0.1465
573.3	30110	0.23269	1.0391	0.1465
573.3	30110	0.389406	1.7406	0.1503
573.3	30110	0.389406	1.7413	0.1504
573.3	30110	0.389406	1.7423	0.1504
573.3	30110	0.535022	2.388	0.1539
573.3	30110	0.535022	2.3888	0.1539
573.3	30110	0.535022	2.3827	0.1539
573.29	10390	0.056055	0.0428	0.1409
573.29	10390	0.056055	0.048	0.1409
573.29	10390	0.056055	0.0368	0.1409
573.29	10390	0.107298	0.0814	0.141
573.29	10390	0.107298	0.0883	0.1411
573.29	10390	0.107298	0.0812	0.141
573.29	10390	0.23269	0.2189	0.1414
573.29	10390	0.23269	0.2063	0.1414
573.29	10390	0.23269	0.1914	0.1413
573.29	10390	0.389406	0.3866	0.1419
573.29	10390	0.389406	0.3629	0.1418
573.29	10390	0.389406	0.3487	0.1418
573.29	10390	0.535022	0.5447	0.1424
573.29	10390	0.535022	0.5231	0.1423
573.29	10390	0.535022	0.5081	0.1423
573.29	23850	0.056055	0.2001	0.1417
573.29	23850	0.056055	0.1995	0.1417
573.29	23850	0.056055	0.2019	0.1417
573.29	23850	0.107298	0.3889	0.1426
573.29	23850	0.107298	0.3879	0.1426
573.29	23850	0.107298	0.3849	0.1426
573.29	23850	0.23269	0.8518	0.1447
573.29	23850	0.23269	0.8537	0.1447
573.29	23850	0.23269	0.854	0.1447
573.29	23850	0.389406	1.4239	0.1473
573.29	23850	0.389406	1.4305	0.1473
573.29	23850	0.389406	1.4254	0.1473
573.29	23850	0.535022	1.9545	0.1497
573.29	23850	0.535022	1.963	0.1497
573.29	23850	0.535022	1.9616	0.1497
