Measured thermophysical data. Experimental and computational thermochemistry of the dihydroxypyridine isomers
Source: J. Chem. Thermodyn., 2006, 10.1016/j.jct.2005.06.013
Compound 1: carbon dioxide, CO2, InChI=1S/CO2/c2-1-3
Compound 2: nitrogen, N2, InChI=1S/N2/c1-2
Compound 3: water, H2O, InChI=1S/H2O/h1H2
Compound 4: oxygen, O2, InChI=1S/O2/c1-2
Compound 5: 2,3-dihydroxypyridine, C5H5NO2, InChI=1S/C5H5NO2/c7-4-2-1-3-6-5(4)8/h1-3,7H,(H,6,8), purity 98%

System: 2,3-dihydroxypyridine; phases: Crystal
Property: Mass density, kg/m3 (Crystal); method: mass and volume measurments
Temperature, K	Pressure, kPa	Mass density, kg/m3	uncertainty
298.15	101.325	1130	20

System: 2,3-dihydroxypyridine; phases: Gas
Property: Molar enthalpy, kJ/mol (Gas); method: "vacuum sublimation" drop microcalorimetric method
Temperature, K	Pressure, kPa	Molar enthalpy, kJ/mol	uncertainty
422	101	126.9	8.4

Reaction: -1 2,3-dihydroxypyridine + 5 carbon dioxide + .5 nitrogen + 2.5 water + -5.25 oxygen
Property: Specific internal energy of reaction at constant volume, J/g
-20789.7
