Measured thermophysical data. Excess molar volumes and ultrasonic studies of dimethylsulphoxide with ketones at T = 303.15 K
Source: J. Chem. Thermodyn., 2008, 10.1016/j.jct.2007.08.006
Compound 1: dimethyl sulfoxide, C2H6OS, InChI=1S/C2H6OS/c1-4(2)3/h1-2H3, purity 99%
Compound 2: butanone, C4H8O, InChI=1S/C4H8O/c1-3-4(2)5/h3H2,1-2H3, purity 99%
Compound 3: pentan-3-one, C5H10O, InChI=1S/C5H10O/c1-3-5(6)4-2/h3-4H2,1-2H3, purity 99%
Compound 4: pentan-2-one, C5H10O, InChI=1S/C5H10O/c1-3-4-5(2)6/h3-4H2,1-2H3, purity 99%
Compound 5: 4-methylpentan-2-one, C6H12O, InChI=1S/C6H12O/c1-5(2)4-6(3)7/h5H,4H2,1-3H3, purity 99%
Compound 6: cyclohexanone, C6H10O, InChI=1S/C6H10O/c7-6-4-2-1-3-5-6/h1-5H2, purity 99%

System: dimethyl sulfoxide; phases: Liquid
Property: Mass density, kg/m3 (Liquid); method: VIBTUB:UFactor:6
Temperature, K	Pressure, kPa	Mass density, kg/m3	uncertainty
298.15	101.325	1095.37	0.65

System: dimethyl sulfoxide; phases: Liquid
Property: Speed of sound, m/s (Liquid); method: FPINT:UFactor:24
Pressure, kPa	Temperature, K	Speed of sound, m/s	uncertainty
101	303.15	1475	17

System: butanone; phases: Liquid
Property: Mass density, kg/m3 (Liquid); method: VIBTUB:UFactor:6
Temperature, K	Pressure, kPa	Mass density, kg/m3	uncertainty
303.15	101.325	794.5	0.8

System: butanone; phases: Liquid
Property: Speed of sound, m/s (Liquid); method: FPINT::UFactor:24
Pressure, kPa	Temperature, K	Speed of sound, m/s	uncertainty
101	303.15	1168	15

System: pentan-3-one; phases: Liquid
Property: Mass density, kg/m3 (Liquid); method: VIBTUB:UFactor:6
Temperature, K	Pressure, kPa	Mass density, kg/m3	uncertainty
303.15	101.325	804.62	0.78

System: pentan-3-one; phases: Liquid
Property: Speed of sound, m/s (Liquid); method: FPINT::UFactor:12
Pressure, kPa	Temperature, K	Speed of sound, m/s	uncertainty
101	303.15	1201	8

System: pentan-2-one; phases: Liquid
Property: Mass density, kg/m3 (Liquid); method: VIBTUB:UFactor:6
Temperature, K	Pressure, kPa	Mass density, kg/m3	uncertainty
303.15	101.325	796.58	0.8

System: pentan-2-one; phases: Liquid
Property: Speed of sound, m/s (Liquid); method: FPINT::UFactor:12
Pressure, kPa	Temperature, K	Speed of sound, m/s	uncertainty
101	303.15	1197	8

System: 4-methylpentan-2-one; phases: Liquid
Property: Mass density, kg/m3 (Liquid); method: VIBTUB:UFactor:6
Temperature, K	Pressure, kPa	Mass density, kg/m3	uncertainty
303.15	101.325	791.25	0.81

System: 4-methylpentan-2-one; phases: Liquid
Property: Speed of sound, m/s (Liquid); method: FPINT::UFactor:12
Pressure, kPa	Temperature, K	Speed of sound, m/s	uncertainty
101	303.15	1172	7

System: cyclohexanone; phases: Liquid
Property: Mass density, kg/m3 (Liquid); method: Vibrating tube method
Temperature, K	Pressure, kPa	Mass density, kg/m3	uncertainty
303.15	101.325	937.55	0.24

System: cyclohexanone; phases: Liquid
Property: Speed of sound, m/s (Liquid); method: FPINT::UFactor:12
Pressure, kPa	Temperature, K	Speed of sound, m/s	uncertainty
101	303.15	1385	8

System: dimethyl sulfoxide + butanone; phases: Liquid
Fixed: Pressure, kPa = 101
Fixed: Temperature, K = 303.15
Property: Speed of sound, m/s (Liquid); method: FPINT:UFactor:24
Volume fraction of dimethyl sulfoxide	Speed of sound, m/s	uncertainty
0	1168	15
0.1265	1194	15
0.1749	1208	15
0.3035	1247	15
0.4536	1263	16
0.518	1298	16
0.6294	1353	16
0.685	1367	16
0.796	1404	17
0.9028	1436	17
1	1475	17

System: dimethyl sulfoxide + butanone; phases: Liquid
Fixed: Pressure, kPa = 101
Fixed: Temperature, K = 303.15
Property: Excess molar volume, m3/mol (Liquid); method: Direct dilatometry
Mole fraction of dimethyl sulfoxide	Excess molar volume, m3/mol	uncertainty
0.1552	-9.6e-08	6e-09
0.212	-1.24e-07	6e-09
0.3561	-1.46e-07	6e-09
0.4095	-1.35e-07	6e-09
0.5074	-9e-08	6e-09
0.6831	3.9e-08	6e-09
0.734	7.6e-08	6e-09
0.832	1.21e-07	6e-09
0.9218	1.01e-07	6e-09

System: dimethyl sulfoxide + pentan-3-one; phases: Liquid
Fixed: Pressure, kPa = 101
Fixed: Temperature, K = 303.15
Property: Speed of sound, m/s (Liquid); method: FPINT:UFactor:12
Volume fraction of dimethyl sulfoxide	Speed of sound, m/s	uncertainty
0	1201	8
0.0697	1212	8
0.1509	1229	8
0.2697	1276	8
0.3162	1298	8
0.4127	1340	8
0.5407	1389	8
0.6388	1412	9
0.7406	1428	9
0.8653	1441	9
1	1475	9

System: dimethyl sulfoxide + pentan-3-one; phases: Liquid
Fixed: Pressure, kPa = 101
Fixed: Temperature, K = 303.15
Property: Excess molar volume, m3/mol (Liquid); method: Direct dilatometry
Mole fraction of dimethyl sulfoxide	Excess molar volume, m3/mol	uncertainty
0.1008	8e-08	6e-09
0.2102	1.62e-07	6e-09
0.356	2.46e-07	6e-09
0.409	2.7e-07	6e-09
0.5126	2.87e-07	6e-09
0.638	2.64e-07	6e-09
0.7258	2.25e-07	6e-09
0.8104	1.64e-07	6e-09
0.9058	9e-08	6e-09

System: dimethyl sulfoxide + pentan-2-one; phases: Liquid
Fixed: Pressure, kPa = 101
Fixed: Temperature, K = 303.15
Property: Speed of sound, m/s (Liquid); method: FPINT:UFactor:12
Volume fraction of dimethyl sulfoxide	Speed of sound, m/s	uncertainty
0	1197	8
0.0849	1228	8
0.1484	1246	8
0.2563	1289	8
0.3141	1308	8
0.4599	1344	8
0.5213	1371	8
0.6246	1397	8
0.7351	1421	9
0.8855	1447	9
1	1475	9

System: dimethyl sulfoxide + pentan-2-one; phases: Liquid
Fixed: Pressure, kPa = 101
Fixed: Temperature, K = 303.15
Property: Excess molar volume, m3/mol (Liquid); method: Direct dilatometry
Mole fraction of dimethyl sulfoxide	Excess molar volume, m3/mol	uncertainty
0.1231	8.2e-08	6e-09
0.2086	1.1e-07	6e-09
0.3531	1.35e-07	6e-09
0.4091	1.42e-07	6e-09
0.5628	1.48e-07	6e-09
0.6218	1.5e-07	6e-09
0.7155	1.44e-07	6e-09
0.8073	1.2e-07	6e-09
0.9212	7.2e-08	6e-09

System: dimethyl sulfoxide + 4-methylpentan-2-one; phases: Liquid
Fixed: Pressure, kPa = 101
Fixed: Temperature, K = 303.15
Property: Speed of sound, m/s (Liquid); method: FPINT:UFactor:12
Volume fraction of dimethyl sulfoxide	Speed of sound, m/s	uncertainty
0	1172	7
0.0905	1199	8
0.1474	1221	8
0.2091	1244	8
0.3028	1276	8
0.4199	1322	8
0.491	1343	8
0.5785	1369	8
0.81	1418	9
0.887	1438	9
1	1475	9

System: dimethyl sulfoxide + 4-methylpentan-2-one; phases: Liquid
Fixed: Pressure, kPa = 101
Fixed: Temperature, K = 303.15
Property: Excess molar volume, m3/mol (Liquid); method: Direct dilatometry
Mole fraction of dimethyl sulfoxide	Excess molar volume, m3/mol	uncertainty
0.1498	1.35e-07	7e-09
0.2346	2.59e-07	7e-09
0.3188	4.12e-07	7e-09
0.4347	5.68e-07	7e-09
0.5617	6.08e-07	7e-09
0.6307	5.65e-07	7e-09
0.7084	4.68e-07	7e-09
0.8001	3.18e-07	7e-09
0.883	1.56e-07	7e-09
0.9329	7.2e-08	7e-09

System: dimethyl sulfoxide + cyclohexanone; phases: Liquid
Fixed: Pressure, kPa = 101
Fixed: Temperature, K = 303.15
Property: Speed of sound, m/s (Liquid); method: FPINT:UFactor:12
Volume fraction of dimethyl sulfoxide	Speed of sound, m/s	uncertainty
0	1385	8
0.0887	1395	8
0.1648	1404	8
0.2487	1413	9
0.3341	1422	9
0.4271	1433	9
0.5075	1441	9
0.6393	1449	9
0.8005	1459	9
0.8912	1466	9
1	1475	9

System: dimethyl sulfoxide + cyclohexanone; phases: Liquid
Fixed: Pressure, kPa = 101
Fixed: Temperature, K = 303.15
Property: Excess molar volume, m3/mol (Liquid); method: Direct dilatometry
Mole fraction of dimethyl sulfoxide	Excess molar volume, m3/mol	uncertainty
0.1248	7.5e-08	6e-09
0.2241	1.42e-07	6e-09
0.3264	1.95e-07	6e-09
0.4234	2.37e-07	6e-09
0.5218	2.5e-07	6e-09
0.6013	2.41e-07	6e-09
0.7218	2.04e-07	6e-09
0.8545	1.21e-07	6e-09
0.923	7.2e-08	6e-09
