Measured thermophysical data. Solvation of ionic liquids based on N-alkyl-N-methylmorpholinium cations in N,N-dimethylformamide and dimethyl sulfoxide  A volumetric and acoustic study
Source: J. Chem. Thermodyn., 2017, 10.1016/j.jct.2016.09.023
Compound 1: dimethyl sulfoxide, C2H6OS, InChI=1S/C2H6OS/c1-4(2)3/h1-2H3
Compound 2: dimethylformamide, C3H7NO, InChI=1S/C3H7NO/c1-4(2)3-5/h3H,1-2H3
Compound 3: 4-ethyl-4-methylmorpholinium tetrafluoroborate, C7H16BF4NO, InChI=1S/C7H16NO.BF4/c1-3-8(2)4-6-9-7-5-8;2-1(3,4)5/h3-7H2,1-2H3;/q+1;-1
Compound 4: 4-decyl-4-methylmorpholinium tetrafluoroborate, C15H32BF4NO, InChI=1S/C15H32NO.BF4/c1-3-4-5-6-7-8-9-10-11-16(2)12-14-17-15-13-16;2-1(3,4)5/h3-15H2,1-2H3;/q+1;-1

System: dimethyl sulfoxide; phases: Liquid
Fixed: Pressure, kPa = 100
Property: Mass density, kg/m3 (Liquid); method: Vibrating tube method
Temperature, K	Mass density, kg/m3	uncertainty
298.15	1095.247	0.307
303.15	1090.24	0.307
308.15	1085.232	0.307
313.15	1080.2	0.306
318.15	1075.18	0.306
328.15	1065.136	0.305

System: dimethyl sulfoxide; phases: Liquid
Fixed: Pressure, kPa = 100
Fixed: Frequency, MHz = 3
Property: Speed of sound, m/s (Liquid); method: Sing-around technique in a fixed-path interferometer
Temperature, K	Speed of sound, m/s	uncertainty
298.15	1484.82	1.21
303.15	1468.25	1.21
308.15	1451.48	1.21
313.15	1434.75	1.2
318.15	1418.11	1.2
328.15	1385.06	1.19

System: dimethylformamide; phases: Liquid
Fixed: Pressure, kPa = 100
Property: Mass density, kg/m3 (Liquid); method: Vibrating tube method
Temperature, K	Mass density, kg/m3	uncertainty
298.15	943.952	0.305
303.15	939.187	0.305
308.15	934.405	0.305
313.15	929.606	0.306
318.15	924.796	0.306
328.15	915.137	0.307

System: dimethylformamide; phases: Liquid
Fixed: Pressure, kPa = 100
Fixed: Frequency, MHz = 3
Property: Speed of sound, m/s (Liquid); method: Sing-around technique in a fixed-path interferometer
Temperature, K	Speed of sound, m/s	uncertainty
298.15	1456.99	1.21
303.15	1438.07	1.2
308.15	1418.74	1.2
313.15	1399.5	1.2
318.15	1380.33	1.19
328.15	1342.25	1.19

System: dimethylformamide + 4-ethyl-4-methylmorpholinium tetrafluoroborate; phases: Liquid
Fixed: Pressure, kPa = 100
Property: Mass density, kg/m3 (Liquid); method: Vibrating tube method
Temperature, K	Molality, mol/kg of 4-ethyl-4-methylmorpholinium tetrafluoroborate	Mass density, kg/m3	uncertainty
298.15	0.01064	944.701	0.335
298.15	0.01586	945.064	0.335
298.15	0.02119	945.434	0.334
298.15	0.02607	945.769	0.334
298.15	0.03163	946.15	0.334
298.15	0.04179	946.843	0.333
298.15	0.06309	948.274	0.332
298.15	0.08498	949.721	0.332
298.15	0.10566	951.069	0.331
298.15	0.14753	953.775	0.33
298.15	0.17964	955.809	0.329
298.15	0.21273	957.871	0.328
298.15	0.26827	961.262	0.327
298.15	0.32467	964.642	0.327
303.15	0.01064	939.941	0.336
303.15	0.01586	940.307	0.336
303.15	0.02119	940.679	0.335
303.15	0.02607	941.017	0.335
303.15	0.03163	941.4	0.335
303.15	0.04179	942.097	0.334
303.15	0.06309	943.54	0.333
303.15	0.08498	944.994	0.332
303.15	0.10566	946.353	0.331
303.15	0.14753	949.071	0.331
303.15	0.17964	951.116	0.33
303.15	0.21273	953.191	0.329
303.15	0.26827	956.595	0.328
303.15	0.32467	959.989	0.327
308.15	0.01064	935.164	0.337
308.15	0.01586	935.532	0.336
308.15	0.02119	935.907	0.336
308.15	0.02607	936.247	0.335
308.15	0.03163	936.633	0.335
308.15	0.04179	937.334	0.334
308.15	0.06309	938.782	0.334
308.15	0.08498	940.248	0.333
308.15	0.10566	941.618	0.332
308.15	0.14753	944.348	0.331
308.15	0.17964	946.404	0.33
308.15	0.21273	948.486	0.329
308.15	0.26827	951.91	0.328
308.15	0.32467	955.322	0.328
313.15	0.01064	930.371	0.337
313.15	0.01586	930.742	0.337
313.15	0.02119	931.119	0.336
313.15	0.02607	931.461	0.336
313.15	0.03163	931.851	0.336
313.15	0.04179	932.555	0.335
313.15	0.06309	934.011	0.334
313.15	0.08498	935.488	0.334
313.15	0.10566	936.867	0.332
313.15	0.14753	939.613	0.332
313.15	0.17964	941.682	0.331
313.15	0.21273	943.772	0.329
313.15	0.26827	947.214	0.329
313.15	0.32467	950.645	0.328
318.15	0.01064	925.567	0.338
318.15	0.01586	925.94	0.338
318.15	0.02119	926.32	0.337
318.15	0.02607	926.665	0.337
318.15	0.03163	927.056	0.336
318.15	0.04179	927.766	0.336
318.15	0.06309	929.235	0.335
318.15	0.08498	930.71	0.334
318.15	0.10566	932.105	0.333
318.15	0.14753	934.867	0.332
318.15	0.17964	936.947	0.331
318.15	0.21273	939.048	0.33
318.15	0.26827	942.508	0.329
318.15	0.32467	945.959	0.329
328.15	0.01064	915.92	0.34
328.15	0.01586	916.299	0.339
328.15	0.02119	916.684	0.339
328.15	0.02607	917.033	0.338
328.15	0.03163	917.429	0.338
328.15	0.04179	918.148	0.337
328.15	0.06309	919.63	0.336
328.15	0.08498	921.142	0.336
328.15	0.10566	922.547	0.334
328.15	0.14753	925.342	0.334
328.15	0.17964	927.448	0.332
328.15	0.21273	929.571	0.331
328.15	0.26827	933.071	0.33
328.15	0.32467	936.559	0.33
298.15	0	943.952	0.336
303.15	0	939.187	0.337
308.15	0	934.405	0.337
313.15	0	929.606	0.338
318.15	0	924.796	0.339
328.15	0	915.137	0.34

System: dimethylformamide + 4-ethyl-4-methylmorpholinium tetrafluoroborate; phases: Liquid
Fixed: Pressure, kPa = 100
Fixed: Frequency, MHz = 3
Property: Speed of sound, m/s (Liquid); method: Sing-around technique in a fixed-path interferometer
Temperature, K	Molality, mol/kg of 4-ethyl-4-methylmorpholinium tetrafluoroborate	Speed of sound, m/s	uncertainty
298.15	0.01064	1457.81	1.22
298.15	0.01586	1458.2	1.22
298.15	0.02119	1458.59	1.22
298.15	0.02607	1458.95	1.22
298.15	0.03163	1459.32	1.22
298.15	0.04179	1460.03	1.22
298.15	0.06309	1461.55	1.22
298.15	0.08498	1462.99	1.22
298.15	0.10566	1464.24	1.22
298.15	0.14753	1466.9	1.22
298.15	0.17964	1468.82	1.22
298.15	0.21273	1470.81	1.22
298.15	0.26827	1473.93	1.22
298.15	0.32467	1476.89	1.22
303.15	0.01064	1438.87	1.21
303.15	0.01586	1439.28	1.21
303.15	0.02119	1439.68	1.21
303.15	0.02607	1440.03	1.21
303.15	0.03163	1440.44	1.21
303.15	0.04179	1441.2	1.21
303.15	0.06309	1442.72	1.21
303.15	0.08498	1444.14	1.21
303.15	0.10566	1445.49	1.21
303.15	0.14753	1448.12	1.21
303.15	0.17964	1450.09	1.21
303.15	0.21273	1452.06	1.22
303.15	0.26827	1455.19	1.22
303.15	0.32467	1458.3	1.2
308.15	0.01064	1419.6	1.21
308.15	0.01586	1420.02	1.21
308.15	0.02119	1420.42	1.21
308.15	0.02607	1420.8	1.21
308.15	0.03163	1421.2	1.21
308.15	0.04179	1421.98	1.21
308.15	0.06309	1423.51	1.21
308.15	0.08498	1424.98	1.21
308.15	0.10566	1426.37	1.21
308.15	0.14753	1429.04	1.21
308.15	0.17964	1431.04	1.21
308.15	0.21273	1433.03	1.21
308.15	0.26827	1436.27	1.21
308.15	0.32467	1439.1	1.21
313.15	0.01064	1400.39	1.21
313.15	0.01586	1400.82	1.21
313.15	0.02119	1401.24	1.21
313.15	0.02607	1401.62	1.21
313.15	0.03163	1402.03	1.21
313.15	0.04179	1402.82	1.21
313.15	0.06309	1404.38	1.21
313.15	0.08498	1405.89	1.21
313.15	0.10566	1407.31	1.21
313.15	0.14753	1410.04	1.21
313.15	0.17964	1412.07	1.21
313.15	0.21273	1414.09	1.21
313.15	0.26827	1417.38	1.21
313.15	0.32467	1420.43	1.21
318.15	0.01064	1381.25	1.21
318.15	0.01586	1381.68	1.2
318.15	0.02119	1382.12	1.2
318.15	0.02607	1382.51	1.2
318.15	0.03163	1382.94	1.2
318.15	0.04179	1383.75	1.2
318.15	0.06309	1385.3	1.2
318.15	0.08498	1386.87	1.2
318.15	0.10566	1388.29	1.2
318.15	0.14753	1391.08	1.2
318.15	0.17964	1393.16	1.2
318.15	0.21273	1395.2	1.21
318.15	0.26827	1398.55	1.21
318.15	0.32467	1401.66	1.21
328.15	0.01064	1343.21	1.2
328.15	0.01586	1343.66	1.2
328.15	0.02119	1344.12	1.2
328.15	0.02607	1344.53	1.2
328.15	0.03163	1344.98	1.2
328.15	0.04179	1345.81	1.2
328.15	0.06309	1347.43	1.2
328.15	0.08498	1349.06	1.2
328.15	0.10566	1350.54	1.2
328.15	0.14753	1353.44	1.2
328.15	0.17964	1355.6	1.2
328.15	0.21273	1357.71	1.2
328.15	0.26827	1361.18	1.2
328.15	0.32467	1364.51	1.2
298.15	0	1456.99	1.22
303.15	0	1438.07	1.22
308.15	0	1418.74	1.21
313.15	0	1399.5	1.2
318.15	0	1380.33	1.2
328.15	0	1342.25	1.2

System: dimethyl sulfoxide + 4-ethyl-4-methylmorpholinium tetrafluoroborate; phases: Liquid
Fixed: Pressure, kPa = 100
Property: Mass density, kg/m3 (Liquid); method: Vibrating tube method
Temperature, K	Molality, mol/kg of 4-ethyl-4-methylmorpholinium tetrafluoroborate	Mass density, kg/m3	uncertainty
298.15	0.01556	1095.69	0.313
298.15	0.0223	1095.879	0.313
298.15	0.02987	1096.091	0.313
298.15	0.03731	1096.299	0.313
298.15	0.04494	1096.512	0.313
298.15	0.06025	1096.933	0.313
298.15	0.09043	1097.757	0.313
298.15	0.12225	1098.623	0.313
298.15	0.15387	1099.456	0.313
298.15	0.21826	1101.138	0.313
298.15	0.26672	1102.367	0.313
298.15	0.31684	1103.62	0.313
298.15	0.40182	1105.681	0.313
298.15	0.48979	1107.748	0.313
303.15	0.01556	1090.689	0.312
303.15	0.0223	1090.881	0.312
303.15	0.02987	1091.095	0.312
303.15	0.03731	1091.304	0.312
303.15	0.04494	1091.521	0.312
303.15	0.06025	1091.947	0.312
303.15	0.09043	1092.781	0.312
303.15	0.12225	1093.656	0.312
303.15	0.15387	1094.502	0.312
303.15	0.21826	1096.202	0.312
303.15	0.26672	1097.443	0.312
303.15	0.31684	1098.709	0.312
303.15	0.40182	1100.793	0.313
303.15	0.48979	1102.883	0.313
308.15	0.01556	1085.678	0.312
308.15	0.0223	1085.872	0.312
308.15	0.02987	1086.089	0.312
308.15	0.03731	1086.301	0.312
308.15	0.04494	1086.518	0.312
308.15	0.06025	1086.952	0.312
308.15	0.09043	1087.796	0.312
308.15	0.12225	1088.681	0.312
308.15	0.15387	1089.536	0.312
308.15	0.21826	1091.254	0.312
308.15	0.26672	1092.511	0.312
308.15	0.31684	1093.791	0.312
308.15	0.40182	1095.898	0.312
308.15	0.48979	1098.008	0.313
313.15	0.01556	1080.662	0.312
313.15	0.0223	1080.86	0.312
313.15	0.02987	1081.081	0.312
313.15	0.03731	1081.297	0.312
313.15	0.04494	1081.516	0.312
313.15	0.06025	1081.958	0.312
313.15	0.09043	1082.808	0.312
313.15	0.12225	1083.701	0.312
313.15	0.15387	1084.57	0.312
313.15	0.21826	1086.306	0.312
313.15	0.26672	1087.577	0.312
313.15	0.31684	1088.872	0.312
313.15	0.40182	1091.003	0.312
313.15	0.48979	1093.134	0.312
318.15	0.01556	1075.648	0.312
318.15	0.0223	1075.848	0.312
318.15	0.02987	1076.071	0.312
318.15	0.03731	1076.289	0.312
318.15	0.04494	1076.511	0.312
318.15	0.06025	1076.953	0.312
318.15	0.09043	1077.816	0.312
318.15	0.12225	1078.713	0.312
318.15	0.15387	1079.602	0.312
318.15	0.21826	1081.359	0.312
318.15	0.26672	1082.645	0.312
318.15	0.31684	1083.954	0.311
318.15	0.40182	1086.107	0.312
318.15	0.48979	1088.262	0.312
328.15	0.01556	1065.618	0.312
328.15	0.0223	1065.824	0.311
328.15	0.02987	1066.053	0.311
328.15	0.03731	1066.279	0.311
328.15	0.04494	1066.505	0.311
328.15	0.06025	1066.958	0.311
328.15	0.09043	1067.84	0.311
328.15	0.12225	1068.757	0.311
328.15	0.15387	1069.668	0.311
328.15	0.21826	1071.466	0.311
328.15	0.26672	1072.78	0.311
328.15	0.31684	1074.118	0.311
328.15	0.40182	1076.319	0.311
328.15	0.48979	1078.519	0.311
298.15	0	1095.247	0.313
303.15	0	1090.24	0.313
308.15	0	1085.232	0.312
313.15	0	1080.2	0.312
318.15	0	1075.18	0.312
328.15	0	1065.136	0.312

System: dimethyl sulfoxide + 4-ethyl-4-methylmorpholinium tetrafluoroborate; phases: Liquid
Fixed: Pressure, kPa = 100
Fixed: Frequency, MHz = 3
Property: Speed of sound, m/s (Liquid); method: Sing-around technique in a fixed-path interferometer
Temperature, K	Molality, mol/kg of 4-ethyl-4-methylmorpholinium tetrafluoroborate	Speed of sound, m/s	uncertainty
298.15	0.01556	1485.47	1.22
298.15	0.02229	1485.75	1.22
298.15	0.02987	1486.05	1.22
298.15	0.03731	1486.35	1.22
298.15	0.04494	1486.66	1.22
298.15	0.06025	1487.28	1.22
298.15	0.09043	1488.46	1.22
298.15	0.12225	1489.71	1.22
298.15	0.15387	1490.92	1.22
298.15	0.21826	1493.33	1.22
298.15	0.26672	1495.13	1.22
298.15	0.31684	1496.96	1.22
298.15	0.40182	1499.9	1.22
298.15	0.48979	1502.9	1.23
303.15	0.01556	1468.9	1.21
303.15	0.02229	1469.18	1.21
303.15	0.02987	1469.5	1.21
303.15	0.03731	1469.81	1.21
303.15	0.04494	1470.11	1.21
303.15	0.06025	1470.75	1.21
303.15	0.09043	1471.95	1.21
303.15	0.12225	1473.22	1.21
303.15	0.15387	1474.44	1.22
303.15	0.21826	1476.92	1.22
303.15	0.26672	1478.71	1.22
303.15	0.31684	1480.56	1.22
303.15	0.40182	1483.56	1.22
303.15	0.48979	1486.64	1.22
308.15	0.01556	1452.14	1.21
308.15	0.02229	1452.42	1.21
308.15	0.02987	1452.74	1.21
308.15	0.03731	1453.05	1.21
308.15	0.04494	1453.37	1.21
308.15	0.06025	1454	1.21
308.15	0.09043	1455.22	1.21
308.15	0.12225	1456.5	1.21
308.15	0.15387	1457.74	1.21
308.15	0.21826	1460.25	1.21
308.15	0.26672	1462.08	1.21
308.15	0.31684	1463.95	1.22
308.15	0.40182	1467.01	1.22
308.15	0.48979	1470.1	1.22
313.15	0.01556	1435.43	1.21
313.15	0.02229	1435.72	1.21
313.15	0.02987	1436.04	1.21
313.15	0.03731	1436.36	1.21
313.15	0.04494	1436.68	1.21
313.15	0.06025	1437.32	1.21
313.15	0.09043	1438.57	1.21
313.15	0.12225	1439.87	1.21
313.15	0.15387	1441.13	1.21
313.15	0.21826	1443.66	1.21
313.15	0.26672	1445.51	1.21
313.15	0.31684	1447.4	1.21
313.15	0.40182	1450.51	1.22
313.15	0.48979	1453.64	1.22
318.15	0.01556	1418.79	1.2
318.15	0.02229	1419.08	1.2
318.15	0.02987	1419.41	1.2
318.15	0.03731	1419.73	1.2
318.15	0.04494	1420.06	1.2
318.15	0.06025	1420.71	1.2
318.15	0.09043	1421.97	1.2
318.15	0.12225	1423.28	1.2
318.15	0.15387	1424.55	1.21
318.15	0.21826	1427.13	1.21
318.15	0.26672	1429.02	1.21
318.15	0.31684	1430.92	1.21
318.15	0.40182	1434.07	1.21
318.15	0.48979	1437.24	1.22
328.15	0.01556	1385.78	1.2
328.15	0.02229	1386.07	1.2
328.15	0.02987	1386.41	1.2
328.15	0.03731	1386.73	1.2
328.15	0.04494	1387.07	1.2
328.15	0.06025	1387.74	1.2
328.15	0.09043	1389.05	1.2
328.15	0.12225	1390.4	1.2
328.15	0.15387	1391.71	1.2
328.15	0.21826	1394.36	1.2
328.15	0.26672	1396.29	1.2
328.15	0.31684	1398.25	1.2
328.15	0.40182	1401.48	1.21
328.15	0.48979	1404.72	1.21
298.15	0	1484.82	1.21
303.15	0	1468.25	1.21
308.15	0	1451.48	1.21
313.15	0	1434.75	1.21
318.15	0	1418.11	1.2
328.15	0	1385.06	1.2

System: dimethylformamide + 4-decyl-4-methylmorpholinium tetrafluoroborate; phases: Liquid
Fixed: Pressure, kPa = 100
Property: Mass density, kg/m3 (Liquid); method: Vibrating tube method
Temperature, K	Molality, mol/kg of 4-decyl-4-methylmorpholinium tetrafluoroborate	Mass density, kg/m3	uncertainty
298.15	0.0103	944.558	0.326
298.15	0.01567	944.87	0.326
298.15	0.02149	945.205	0.326
298.15	0.02688	945.513	0.325
298.15	0.03193	945.798	0.325
298.15	0.04288	946.408	0.324
298.15	0.06471	947.604	0.323
298.15	0.08674	948.781	0.322
298.15	0.1081	949.903	0.322
298.15	0.15225	952.169	0.321
298.15	0.18719	953.911	0.32
298.15	0.22242	955.607	0.319
298.15	0.28241	958.412	0.318
298.15	0.34375	961.169	0.317
303.15	0.0103	939.802	0.327
303.15	0.01567	940.117	0.327
303.15	0.02149	940.455	0.326
303.15	0.02688	940.766	0.326
303.15	0.03193	941.054	0.325
303.15	0.04288	941.672	0.325
303.15	0.06471	942.881	0.324
303.15	0.08674	944.069	0.323
303.15	0.1081	945.202	0.322
303.15	0.15225	947.494	0.322
303.15	0.18719	949.25	0.32
303.15	0.22242	950.963	0.319
303.15	0.28241	953.795	0.318
303.15	0.34375	956.58	0.318
308.15	0.0103	935.027	0.328
308.15	0.01567	935.347	0.327
308.15	0.02149	935.689	0.327
308.15	0.02688	936.005	0.327
308.15	0.03193	936.296	0.326
308.15	0.04288	936.918	0.325
308.15	0.06471	938.138	0.325
308.15	0.08674	939.339	0.324
308.15	0.1081	940.485	0.323
308.15	0.15225	942.798	0.322
308.15	0.18719	944.573	0.321
308.15	0.22242	946.304	0.32
308.15	0.28241	949.165	0.319
308.15	0.34375	951.976	0.318
313.15	0.0103	930.236	0.329
313.15	0.01567	930.559	0.328
313.15	0.02149	930.907	0.328
313.15	0.02688	931.225	0.327
313.15	0.03193	931.522	0.327
313.15	0.04288	932.151	0.326
313.15	0.06471	933.384	0.325
313.15	0.08674	934.596	0.324
313.15	0.1081	935.755	0.323
313.15	0.15225	938.093	0.323
313.15	0.18719	939.885	0.322
313.15	0.22242	941.635	0.32
313.15	0.28241	944.524	0.319
313.15	0.34375	947.363	0.319
318.15	0.0103	925.434	0.33
318.15	0.01567	925.761	0.329
318.15	0.02149	926.111	0.329
318.15	0.02688	926.433	0.328
318.15	0.03193	926.729	0.328
318.15	0.04288	927.369	0.327
318.15	0.06471	928.616	0.326
318.15	0.08674	929.84	0.325
318.15	0.1081	931.014	0.324
318.15	0.15225	933.376	0.323
318.15	0.18719	935.187	0.322
318.15	0.22242	936.956	0.321
318.15	0.28241	939.874	0.32
318.15	0.34375	942.741	0.319
328.15	0.0103	915.794	0.332
328.15	0.01567	916.129	0.331
328.15	0.02149	916.489	0.33
328.15	0.02688	916.82	0.33
328.15	0.03193	917.121	0.329
328.15	0.04288	917.771	0.328
328.15	0.06471	919.044	0.327
328.15	0.08674	920.291	0.327
328.15	0.1081	921.499	0.326
328.15	0.15225	923.912	0.325
328.15	0.18719	925.762	0.323
328.15	0.22242	927.568	0.322
328.15	0.28241	930.547	0.321
328.15	0.34375	933.473	0.321
298.15	0	943.952	0.327
303.15	0	939.187	0.328
308.15	0	934.405	0.329
313.15	0	929.606	0.329
318.15	0	924.796	0.331
328.15	0	915.137	0.332

System: dimethylformamide + 4-decyl-4-methylmorpholinium tetrafluoroborate; phases: Liquid
Fixed: Pressure, kPa = 100
Fixed: Frequency, MHz = 3
Property: Speed of sound, m/s (Liquid); method: Sing-around technique in a fixed-path interferometer
Temperature, K	Molality, mol/kg of 4-decyl-4-methylmorpholinium tetrafluoroborate	Speed of sound, m/s	uncertainty
298.15	0.01043	1457.63	1.21
298.15	0.01587	1457.95	1.21
298.15	0.02177	1458.29	1.21
298.15	0.02723	1458.58	1.21
298.15	0.03235	1458.87	1.21
298.15	0.04344	1459.48	1.21
298.15	0.0656	1460.62	1.21
298.15	0.0879	1461.69	1.21
298.15	0.10955	1462.62	1.21
298.15	0.15432	1464.52	1.22
298.15	0.18977	1466.03	1.22
298.15	0.22552	1467.29	1.22
298.15	0.28641	1469.44	1.22
298.15	0.34871	1471.42	1.22
303.15	0.01043	1438.76	1.21
303.15	0.01587	1439.08	1.21
303.15	0.02177	1439.42	1.21
303.15	0.02723	1439.73	1.21
303.15	0.03235	1440.02	1.21
303.15	0.04344	1440.61	1.21
303.15	0.0656	1441.75	1.21
303.15	0.0879	1442.83	1.21
303.15	0.10955	1443.81	1.21
303.15	0.15432	1445.81	1.21
303.15	0.18977	1447.28	1.21
303.15	0.22552	1448.64	1.21
303.15	0.28641	1450.89	1.22
303.15	0.34871	1452.9	1.22
308.15	0.01043	1419.41	1.21
308.15	0.01587	1419.73	1.21
308.15	0.02177	1420.1	1.21
308.15	0.02723	1420.41	1.21
308.15	0.03235	1420.7	1.21
308.15	0.04344	1421.37	1.21
308.15	0.0656	1422.59	1.21
308.15	0.0879	1423.68	1.21
308.15	0.10955	1424.71	1.21
308.15	0.15432	1426.77	1.21
308.15	0.18977	1428.3	1.21
308.15	0.22552	1429.71	1.21
308.15	0.28641	1432.05	1.21
308.15	0.34871	1434.1	1.22
313.15	0.01043	1400.2	1.2
313.15	0.01587	1400.53	1.2
313.15	0.02177	1400.9	1.2
313.15	0.02723	1401.24	1.2
313.15	0.03235	1401.53	1.2
313.15	0.04344	1402.22	1.2
313.15	0.0656	1403.49	1.2
313.15	0.0879	1404.62	1.2
313.15	0.10955	1405.68	1.2
313.15	0.15432	1407.81	1.21
313.15	0.18977	1409.38	1.21
313.15	0.22552	1410.85	1.21
313.15	0.28641	1413.26	1.21
313.15	0.34871	1415.5	1.21
318.15	0.01043	1381.05	1.2
318.15	0.01587	1381.41	1.2
318.15	0.02177	1381.8	1.2
318.15	0.02723	1382.14	1.2
318.15	0.03235	1382.44	1.2
318.15	0.04344	1383.14	1.2
318.15	0.0656	1384.46	1.2
318.15	0.0879	1385.61	1.2
318.15	0.10955	1386.71	1.2
318.15	0.15432	1388.91	1.2
318.15	0.18977	1390.54	1.2
318.15	0.22552	1392.05	1.2
318.15	0.28641	1394.55	1.21
318.15	0.34871	1396.81	1.21
328.15	0.01043	1343.01	1.19
328.15	0.01587	1343.4	1.19
328.15	0.02177	1343.8	1.19
328.15	0.02723	1344.17	1.19
328.15	0.03235	1344.49	1.19
328.15	0.04344	1345.25	1.19
328.15	0.0656	1346.63	1.19
328.15	0.0879	1347.87	1.19
328.15	0.10955	1349.04	1.19
328.15	0.15432	1351.38	1.2
328.15	0.18977	1353.11	1.2
328.15	0.22552	1354.74	1.2
328.15	0.28641	1357.41	1.2
328.15	0.34871	1359.75	1.2
298.15	0	1456.99	1.21
303.15	0	1438.07	1.21
308.15	0	1418.74	1.21
313.15	0	1399.5	1.2
318.15	0	1380.33	1.2
328.15	0	1342.25	1.19

System: dimethyl sulfoxide + 4-decyl-4-methylmorpholinium tetrafluoroborate; phases: Liquid
Fixed: Pressure, kPa = 100
Property: Mass density, kg/m3 (Liquid); method: Vibrating tube method
Temperature, K	Molality, mol/kg of 4-decyl-4-methylmorpholinium tetrafluoroborate	Mass density, kg/m3	uncertainty
298.15	0.01027	1095.306	0.308
298.15	0.01431	1095.328	0.308
298.15	0.01939	1095.355	0.308
298.15	0.02441	1095.382	0.308
298.15	0.02955	1095.41	0.308
298.15	0.03903	1095.459	0.308
298.15	0.05953	1095.564	0.308
298.15	0.08031	1095.672	0.308
298.15	0.10073	1095.77	0.308
298.15	0.1422	1095.964	0.308
298.15	0.17421	1096.12	0.308
298.15	0.20787	1096.263	0.308
298.15	0.26409	1096.509	0.309
298.15	0.32284	1096.756	0.309
303.15	0.01027	1090.307	0.307
303.15	0.01431	1090.332	0.307
303.15	0.01939	1090.364	0.307
303.15	0.02441	1090.395	0.307
303.15	0.02955	1090.425	0.307
303.15	0.03903	1090.481	0.307
303.15	0.05953	1090.604	0.308
303.15	0.08031	1090.722	0.308
303.15	0.10073	1090.841	0.308
303.15	0.1422	1091.065	0.308
303.15	0.17421	1091.244	0.308
303.15	0.20787	1091.409	0.308
303.15	0.26409	1091.693	0.308
303.15	0.32284	1091.974	0.308
308.15	0.01027	1085.3	0.307
308.15	0.01431	1085.329	0.307
308.15	0.01939	1085.366	0.307
308.15	0.02441	1085.4	0.307
308.15	0.02955	1085.436	0.307
308.15	0.03903	1085.498	0.307
308.15	0.05953	1085.637	0.307
308.15	0.08031	1085.779	0.307
308.15	0.10073	1085.914	0.307
308.15	0.1422	1086.159	0.307
308.15	0.17421	1086.359	0.308
308.15	0.20787	1086.546	0.308
308.15	0.26409	1086.867	0.308
308.15	0.32284	1087.184	0.308
313.15	0.01027	1080.289	0.307
313.15	0.01431	1080.321	0.307
313.15	0.01939	1080.362	0.307
313.15	0.02441	1080.402	0.307
313.15	0.02955	1080.441	0.307
313.15	0.03903	1080.513	0.307
313.15	0.05953	1080.667	0.307
313.15	0.08031	1080.823	0.307
313.15	0.10073	1080.966	0.307
313.15	0.1422	1081.252	0.307
313.15	0.17421	1081.473	0.307
313.15	0.20787	1081.683	0.307
313.15	0.26409	1082.042	0.308
313.15	0.32284	1082.394	0.308
318.15	0.01027	1075.276	0.307
318.15	0.01431	1075.312	0.307
318.15	0.01939	1075.357	0.307
318.15	0.02441	1075.401	0.307
318.15	0.02955	1075.445	0.307
318.15	0.03903	1075.527	0.307
318.15	0.05953	1075.697	0.307
318.15	0.08031	1075.868	0.307
318.15	0.10073	1076.028	0.307
318.15	0.1422	1076.345	0.307
318.15	0.17421	1076.589	0.307
318.15	0.20787	1076.822	0.307
318.15	0.26409	1077.217	0.307
318.15	0.32284	1077.604	0.307
328.15	0.01027	1065.252	0.306
328.15	0.01431	1065.296	0.306
328.15	0.01939	1065.35	0.306
328.15	0.02441	1065.403	0.306
328.15	0.02955	1065.457	0.306
328.15	0.03903	1065.553	0.306
328.15	0.05953	1065.76	0.306
328.15	0.08031	1065.96	0.306
328.15	0.10073	1066.152	0.306
328.15	0.1422	1066.531	0.306
328.15	0.17421	1066.821	0.306
328.15	0.20787	1067.099	0.306
328.15	0.26409	1067.571	0.307
328.15	0.32284	1068.033	0.307
298.15	0	1095.247	0.308
303.15	0	1090.24	0.307
308.15	0	1085.232	0.307
313.15	0	1080.2	0.307
318.15	0	1075.18	0.307
328.15	0	1065.136	0.306

System: dimethyl sulfoxide + 4-decyl-4-methylmorpholinium tetrafluoroborate; phases: Liquid
Fixed: Pressure, kPa = 100
Fixed: Frequency, MHz = 3
Property: Speed of sound, m/s (Liquid); method: Sing-around technique in a fixed-path interferometer
Temperature, K	Molality, mol/kg of 4-decyl-4-methylmorpholinium tetrafluoroborate	Speed of sound, m/s	uncertainty
298.15	0.01027	1485.06	1.21
298.15	0.0143	1485.16	1.21
298.15	0.01939	1485.29	1.21
298.15	0.02441	1485.41	1.21
298.15	0.02954	1485.54	1.21
298.15	0.03903	1485.76	1.21
298.15	0.05953	1486.24	1.21
298.15	0.08031	1486.71	1.22
298.15	0.10073	1487.16	1.22
298.15	0.1422	1488.1	1.22
298.15	0.1742	1488.76	1.22
298.15	0.20787	1489.39	1.22
298.15	0.26409	1490.51	1.22
298.15	0.32284	1491.6	1.22
303.15	0.01027	1468.53	1.21
303.15	0.0143	1468.64	1.21
303.15	0.01939	1468.77	1.21
303.15	0.02441	1468.9	1.21
303.15	0.02954	1469.03	1.21
303.15	0.03903	1469.28	1.21
303.15	0.05953	1469.78	1.21
303.15	0.08031	1470.31	1.21
303.15	0.10073	1470.78	1.21
303.15	0.1422	1471.71	1.21
303.15	0.1742	1472.45	1.22
303.15	0.20787	1473.13	1.22
303.15	0.26409	1474.32	1.22
303.15	0.32284	1475.48	1.22
308.15	0.01027	1451.77	1.21
308.15	0.0143	1451.88	1.21
308.15	0.01939	1452.02	1.21
308.15	0.02441	1452.16	1.21
308.15	0.02954	1452.29	1.21
308.15	0.03903	1452.55	1.21
308.15	0.05953	1453.09	1.21
308.15	0.08031	1453.63	1.21
308.15	0.10073	1454.13	1.21
308.15	0.1422	1455.12	1.21
308.15	0.1742	1455.89	1.21
308.15	0.20787	1456.62	1.21
308.15	0.26409	1457.86	1.22
308.15	0.32284	1459.09	1.22
313.15	0.01027	1435.05	1.2
313.15	0.0143	1435.17	1.2
313.15	0.01939	1435.32	1.2
313.15	0.02441	1435.46	1.2
313.15	0.02954	1435.61	1.2
313.15	0.03903	1435.89	1.2
313.15	0.05953	1436.45	1.21
313.15	0.08031	1437.03	1.21
313.15	0.10073	1437.56	1.21
313.15	0.1422	1438.61	1.21
313.15	0.1742	1439.41	1.21
313.15	0.20787	1440.18	1.21
313.15	0.26409	1441.49	1.21
313.15	0.32284	1442.77	1.21
318.15	0.01027	1418.42	1.2
318.15	0.0143	1418.54	1.2
318.15	0.01939	1418.7	1.2
318.15	0.02441	1418.85	1.2
318.15	0.02954	1419.01	1.2
318.15	0.03903	1419.3	1.2
318.15	0.05953	1419.9	1.2
318.15	0.08031	1420.49	1.2
318.15	0.10073	1421.06	1.2
318.15	0.1422	1422.15	1.2
318.15	0.1742	1422.99	1.21
318.15	0.20787	1423.81	1.21
318.15	0.26409	1425.17	1.21
318.15	0.32284	1426.5	1.21
328.15	0.01027	1385.4	1.19
328.15	0.0143	1385.54	1.2
328.15	0.01939	1385.72	1.2
328.15	0.02441	1385.89	1.2
328.15	0.02954	1386.06	1.2
328.15	0.03903	1386.39	1.2
328.15	0.05953	1387.03	1.2
328.15	0.08031	1387.69	1.2
328.15	0.10073	1388.31	1.2
328.15	0.1422	1389.53	1.2
328.15	0.1742	1390.44	1.2
328.15	0.20787	1391.34	1.2
328.15	0.26409	1392.81	1.2
328.15	0.32284	1394.2	1.21
298.15	0	1484.82	1.21
303.15	0	1468.25	1.21
308.15	0	1451.48	1.21
313.15	0	1434.75	1.2
318.15	0	1418.11	1.2
328.15	0	1385.06	1.19
