Measured thermophysical data. Acoustic and volumetric properties of aqueous solutions of imidazolium based ionic liquids at 298.15 K
Source: J. Chem. Thermodyn., 2008, 10.1016/j.jct.2007.10.007
Compound 1: 1-butyl-3-methylimidazolium chloride, C8H15ClN2, InChI=1S/C8H15N2.ClH/c1-3-4-5-10-7-6-9(2)8-10;/h6-8H,3-5H2,1-2H3;1H/q+1;/p-1
Compound 2: 1-methylimidazolium chloride, C4H7ClN2, InChI=1S/C4H6N2.ClH/c1-6-3-2-5-4-6;/h2-4H,1H3;1H
Compound 3: imidazolium chloride, C3H5ClN2, InChI=1S/C3H4N2.ClH/c1-2-5-3-4-1;/h1-3H,(H,4,5);1H
Compound 4: water, H2O, InChI=1S/H2O/h1H2

System: imidazolium chloride + water; phases: Liquid
Fixed: Pressure, kPa = 101
Fixed: Temperature, K = 298.15
Property: Speed of sound, m/s (Liquid); method: FPINT:UFactor:2
Molality, mol/kg of imidazolium chloride	Speed of sound, m/s	uncertainty
0	1497.6	1.5
0.04296	1500.1	1.5
0.10274	1503.8	1.5
0.153	1507	1.5
0.19764	1509.7	1.5
0.24165	1512.4	1.5
0.29145	1515.8	1.5
0.33998	1517.9	1.5
0.38926	1521.2	1.5
0.44952	1525.2	1.5
0.50034	1527.9	1.5

System: imidazolium chloride + water; phases: Liquid
Fixed: Pressure, kPa = 101
Fixed: Temperature, K = 298.15
Property: Mass density, kg/m3 (Liquid); method: VIBTUB:UFactor:16
Molality, mol/kg of imidazolium chloride	Mass density, kg/m3	uncertainty
0	997.05	0.52
0.04296	998.24	0.51
0.10274	999.89	0.5
0.153	1001.26	0.51
0.19764	1002.47	0.52
0.24165	1003.72	0.53
0.29145	1004.65	0.53
0.33998	1006.45	0.55
0.38926	1007.62	0.55
0.44952	1008.96	0.56
0.50034	1010.31	0.57

System: water + 1-methylimidazolium chloride; phases: Liquid
Fixed: Pressure, kPa = 101
Fixed: Temperature, K = 298.15
Property: Speed of sound, m/s (Liquid); method: FPINT:UFactor:2
Molality, mol/kg of 1-methylimidazolium chloride	Speed of sound, m/s	uncertainty
0	1497.6	1.5
0.05234	1501.6	1.5
0.09548	1504.7	1.5
0.14703	1508.5	1.5
0.19981	1512.5	1.5
0.24717	1516	1.5
0.30106	1519.9	1.5
0.3555	1523.9	1.5
0.3994	1526.3	1.5
0.45507	1530.5	1.5
0.51388	1534.6	1.5

System: water + 1-methylimidazolium chloride; phases: Liquid
Fixed: Pressure, kPa = 101
Fixed: Temperature, K = 298.15
Property: Mass density, kg/m3 (Liquid); method: VIBTUB:UFactor:16
Molality, mol/kg of 1-methylimidazolium chloride	Mass density, kg/m3	uncertainty
0	997.05	0.52
0.05234	998.29	0.51
0.09548	999.3	0.51
0.14703	1000.49	0.5
0.19981	1001.69	0.51
0.24717	1002.77	0.52
0.30106	1003.97	0.53
0.3555	1005.18	0.54
0.3994	1006.13	0.54
0.45507	1007.35	0.55
0.51388	1008.62	0.56

System: water + 1-butyl-3-methylimidazolium chloride; phases: Liquid
Fixed: Pressure, kPa = 101
Fixed: Temperature, K = 298.15
Property: Speed of sound, m/s (Liquid); method: FPINT:UFactor:2
Molality, mol/kg of 1-butyl-3-methylimidazolium chloride	Speed of sound, m/s	uncertainty
0	1497.6	1.5
0.05281	1504.8	1.5
0.09783	1510.5	1.5
0.14328	1516.7	1.5
0.19981	1524.4	1.5
0.24711	1530.2	1.5
0.28987	1535.5	1.5
0.31733	1539.1	1.5
0.40515	1549.9	1.5
0.42202	1551.9	1.5
0.49947	1562.2	1.5

System: water + 1-butyl-3-methylimidazolium chloride; phases: Liquid
Fixed: Pressure, kPa = 101
Fixed: Temperature, K = 298.15
Property: Mass density, kg/m3 (Liquid); method: VIBTUB:UFactor:16
Molality, mol/kg of 1-butyl-3-methylimidazolium chloride	Mass density, kg/m3	uncertainty
0	997.05	0.52
0.05281	997.72	0.51
0.09783	998.29	0.51
0.14328	998.85	0.51
0.19981	999.56	0.5
0.24711	1000.15	0.5
0.28987	1000.69	0.51
0.31733	1001.04	0.51
0.40515	1002.14	0.52
0.42202	1002.35	0.52
0.49947	1003.31	0.52
