Measured thermophysical data. Measurement of the phase behaviour of the binary systems {carbon dioxide  (CO2) + non-ionic surfactants (CiEOj)}
Source: J. Chem. Thermodyn., 2012, 10.1016/j.jct.2011.09.018
Compound 1: 2-[2-[2-(octyloxy)ethoxy]ethoxy]ethanol, C14H30O4, InChI=1S/C14H30O4/c1-2-3-4-5-6-7-9-16-11-13-18-14-12-17-10-8-15/h15H,2-14H2,1H3, purity 98%
Compound 2: 3,6,9,12,15-pentaoxatricosan-1-ol, C18H38O6, InChI=1S/C18H38O6/c1-2-3-4-5-6-7-9-20-11-13-22-15-17-24-18-16-23-14-12-21-10-8-19/h19H,2-18H2,1H3, purity 98%
Compound 3: 2-(hexyloxytetraethoxy)ethanol, C16H34O6, InChI=1S/C16H34O6/c1-2-3-4-5-7-18-9-11-20-13-15-22-16-14-21-12-10-19-8-6-17/h17H,2-16H2,1H3, purity 98%
Compound 4: carbon dioxide, CO2, InChI=1S/CO2/c2-1-3, purity 99.9%

System: carbon dioxide + 2-[2-[2-(octyloxy)ethoxy]ethoxy]ethanol; phases: Liquid, Gas
Property: Vapor or sublimation pressure, kPa (Liquid); method: Cailletet apparatus
Temperature, K	Mole fraction of 2-[2-[2-(octyloxy)ethoxy]ethoxy]ethanol	Vapor or sublimation pressure, kPa	uncertainty
268.2	0.0069	3060	10
270.78	0.0126	3250	10
270.96	0.0106	3330	10
271.01	0.0069	3290	10
271.88	0.0126	3350	10
272.68	0.0106	3420	10
273.83	0.0036	3540	10
273.91	0.0069	3560	10
274.98	0.0106	3630	10
275.06	0.0126	3640	10
275.7	0.0069	3730	10
276.96	0.0126	3820	10
277.06	0.0106	3830	10
277.16	0.0036	3860	10
277.44	0.0069	3890	10
278.85	0.0069	4030	10
278.93	0.0106	4020	10
278.93	0.0126	4010	10
279.03	0.0036	4050	10
280.68	0.0106	4200	10
280.7	0.0069	4230	10
280.83	0.0126	4210	10
282.5	0.0069	4410	10
282.81	0.0106	4420	10
282.83	0.0036	4450	10
284.63	0.0069	4650	10
284.68	0.0106	4630	10
286.63	0.0106	4850	10
287.3	0.0036	4970	10
287.51	0.0106	4980	10
287.56	0.0069	4980	10
288.46	0.0069	5090	10
290.34	0.0036	5340	10
290.34	0.0069	5330	10
292.19	0.0069	5570	10
293.48	0.0069	5730	10
294.3	0.0069	5840	10
295.15	0.0036	5970	10
298.3	0.0036	6410	10
300.75	0.0036	6780	10
303.18	0.0036	7150	10

System: carbon dioxide + 2-[2-[2-(octyloxy)ethoxy]ethoxy]ethanol; phases: Liquid mixture 1, Liquid mixture 2
Property: Liquid-liquid equilibrium temperature, K (Liquid mixture 1); method: VISOBS
Pressure, kPa	Mole fraction of 2-[2-[2-(octyloxy)ethoxy]ethoxy]ethanol	Liquid-liquid equilibrium temperature, K	uncertainty
4470	0.0126	281.83	0.42
4740	0.0126	282.75	0.42
5290	0.0106	288.54	0.42
5290	0.0126	284.68	0.42
5840	0.0126	286.56	0.41
5910	0.0106	290.54	0.31
6100	0.0069	295.39	0.28
6410	0.0069	296.44	0.28
6420	0.0126	288.54	0.4
6470	0.0106	292.37	0.31
6960	0.0126	290.44	0.39
7010	0.0069	298.3	0.27
7040	0.0069	298.4	0.27
7110	0.0106	294.48	0.3
7560	0.0126	292.48	0.38
7580	0.0036	305.17	0.34
7610	0.0069	300.26	0.3
7660	0.0106	296.32	0.3
7850	0.0069	301.17	0.31
8030	0.0036	306.88	0.35
8130	0.0069	302.12	0.31
8130	0.0126	294.43	0.38
8280	0.0106	298.35	0.31
8380	0.0069	303.13	0.37
8410	0.0069	303.15	0.37
8490	0.0036	308.84	0.36
8710	0.0126	296.37	0.37
8870	0.0106	300.34	0.38
9230	0.0069	306.02	0.28
9240	0.0126	298.35	0.36
9440	0.0106	302.35	0.31

System: carbon dioxide + 3,6,9,12,15-pentaoxatricosan-1-ol; phases: Liquid, Gas
Property: Vapor or sublimation pressure, kPa (Liquid); method: Cailletet apparatus
Temperature, K	Mole fraction of 3,6,9,12,15-pentaoxatricosan-1-ol	Vapor or sublimation pressure, kPa	uncertainty
266.21	0.008	2900	10
267	0.008	2960	10
268.94	0.008	3110	10
270.27	0.0051	3200	10
270.6	0.008	3260	10
271.58	0.0026	3370	10
271.96	0.0051	3360	10
273.37	0.0051	3490	10
273.91	0.0026	3590	10
275.83	0.0026	3770	10
278.15	0.0026	4000	10
278.65	0.0051	4000	10
280.91	0.0051	4260	10
283.83	0.0026	4600	10
288.11	0.0026	5110	10
289.47	0.0026	5270	10
292.91	0.0026	5700	60
293.36	0.0026	5780	60

System: carbon dioxide + 3,6,9,12,15-pentaoxatricosan-1-ol; phases: Liquid mixture 1, Liquid mixture 2
Property: Liquid-liquid equilibrium temperature, K (Liquid mixture 1); method: VISOBS
Pressure, kPa	Mole fraction of 3,6,9,12,15-pentaoxatricosan-1-ol	Liquid-liquid equilibrium temperature, K	uncertainty
2410	0.0105	256.41	0.82
2780	0.0105	257.91	0.85
3400	0.0105	260.1	0.84
3770	0.008	271.94	0.83
3810	0.0105	261.84	0.85
4430	0.008	273.78	0.79
4610	0.0105	264.55	0.8
4950	0.0051	282.68	0.54
5160	0.008	275.73	0.63
5280	0.0105	266.97	0.76
5870	0.0105	268.89	0.72
5960	0.008	277.96	0.61
6230	0.0051	286.02	0.6
6630	0.0026	295.56	0.69
6660	0.008	279.93	0.61
6730	0.0105	271.5	0.71
7330	0.008	281.88	0.6
7490	0.0105	273.8	0.7
7570	0.0026	298.32	0.72
7660	0.0051	289.85	0.6
7690	0.0026	298.77	0.72
8030	0.008	283.78	0.58
8130	0.0026	300.26	0.76
8130	0.0105	275.98	0.67
8410	0.0026	301.1	0.75
8550	0.0051	292.27	0.62
8710	0.0105	277.78	0.65
8880	0.008	286.2	0.57
8900	0.0026	302.53	0.76
9180	0.0026	303.47	0.77
9330	0.0105	279.73	0.64
9460	0.0051	294.87	0.62
9600	0.0026	304.64	0.77
9610	0.008	288.43	0.55
9820	0.0105	281.29	0.64
10420	0.0051	297.66	0.61

System: carbon dioxide + 2-(hexyloxytetraethoxy)ethanol; phases: Liquid, Gas
Property: Vapor or sublimation pressure, kPa (Liquid); method: Cailletet apparatus
Temperature, K	Mole fraction of 2-(hexyloxytetraethoxy)ethanol	Vapor or sublimation pressure, kPa	uncertainty
260	0.012	2410	10
261.15	0.012	2500	10
262.78	0.012	2620	10
267.23	0.0088	2950	10
267.89	0.0055	3010	10
268.89	0.0088	3080	10
269.91	0.0055	3180	10
270.53	0.0088	3230	10
271.45	0.0028	3320	10
271.94	0.0088	3350	10
271.99	0.0055	3370	10
274.11	0.0055	3550	10
274.91	0.0028	3630	10
277.44	0.0055	3880	10
277.98	0.0028	3940	10
279.73	0.0055	4130	10
283.11	0.0055	4480	10
283.32	0.0028	4510	10
288.05	0.0028	5060	10
288.9	0.0028	5160	10

System: carbon dioxide + 2-(hexyloxytetraethoxy)ethanol; phases: Liquid mixture 1, Liquid mixture 2
Property: Liquid-liquid equilibrium temperature, K (Liquid mixture 1); method: VISOBS
Pressure, kPa	Mole fraction of 2-(hexyloxytetraethoxy)ethanol	Liquid-liquid equilibrium temperature, K	uncertainty
3210	0.012	264.24	0.5
3530	0.012	265.08	0.5
3610	0.0088	272.83	0.5
4080	0.0088	273.93	0.51
4450	0.012	267.15	0.5
4880	0.0088	275.91	0.51
5030	0.012	268.79	0.5
5040	0.0055	284.66	0.53
5480	0.0055	285.73	0.54
5660	0.012	270.4	0.47
5720	0.0088	277.8	0.51
6580	0.0055	288.54	0.48
6580	0.0088	280.14	0.5
6600	0.012	273.22	0.47
6650	0.0028	293.66	0.4
7200	0.0088	281.7	0.5
7300	0.012	275.01	0.46
7330	0.0055	290.57	0.49
7700	0.0028	296.65	0.4
7930	0.012	276.78	0.46
8030	0.0088	283.96	0.5
8130	0.0055	292.63	0.54
8530	0.012	278.31	0.45
8710	0.0028	299.46	0.43
8730	0.0088	285.73	0.5
8810	0.0055	294.51	0.49
9330	0.012	280.62	0.46
9380	0.0088	287.64	0.49
9480	0.0055	296.32	0.5
9730	0.0028	302.66	0.44
9980	0.012	282.34	0.46
