Measured thermophysical data. Interactions of some amino acids and glycine peptideswith aqueous sodium dodecyl sulfate and cetyltrimethylammonium bromide at T 1/4 298:15 K: a volumetric approach
Source: J. Chem. Thermodyn., 2004, 10.1016/j.jct.2003.09.010
Compound 1: sodium dodecyl sulfate, C12H25NaO4S, InChI=1S/C12H26O4S.Na/c1-2-3-4-5-6-7-8-9-10-11-12-16-17(13,14)15;/h2-12H2,1H3,(H,13,14,15);/q;+1/p-1, purity 99%
Compound 2: N,N,N-trimethyl-1-hexadecanaminium bromide, C19H42BrN, InChI=1S/C19H42N.BrH/c1-5-6-7-8-9-10-11-12-13-14-15-16-17-18-19-20(2,3)4;/h5-19H2,1-4H3;1H/q+1;/p-1, purity 98%
Compound 3: 2-aminoacetic acid, C2H5NO2, InChI=1S/C2H5NO2/c3-1-2(4)5/h1,3H2,(H,4,5), purity 99%
Compound 4: (S)-2-aminopropanoic acid, C3H7NO2, InChI=1S/C3H7NO2/c1-2(4)3(5)6/h2H,4H2,1H3,(H,5,6)/t2-/m0/s1, purity 99%
Compound 5: L-leucine, C6H13NO2, InChI=1S/C6H13NO2/c1-4(2)3-5(7)6(8)9/h4-5H,3,7H2,1-2H3,(H,8,9)/t5-/m0/s1, purity 98%
Compound 6: L-valine, C5H11NO2, InChI=1S/C5H11NO2/c1-3(2)4(6)5(7)8/h3-4H,6H2,1-2H3,(H,7,8)/t4-/m0/s1, purity 98%
Compound 7: L-lysine monohydrochloride, C6H15ClN2O2, InChI=1S/C6H14N2O2.ClH/c7-4-2-1-3-5(8)6(9)10;/h5H,1-4,7-8H2,(H,9,10);1H/t5-;/m0./s1, purity 98%
Compound 8: glycylglycylglycine, C6H11N3O4, InChI=1S/C6H11N3O4/c7-1-4(10)8-2-5(11)9-3-6(12)13/h1-3,7H2,(H,8,10)(H,9,11)(H,12,13), purity 99%
Compound 9: water, H2O, InChI=1S/H2O/h1H2
Compound 10: glycylglycine, C4H8N2O3, InChI=1S/C4H8N2O3/c5-1-3(7)6-2-4(8)9/h1-2,5H2,(H,6,7)(H,8,9)

System: sodium dodecyl sulfate + water; phases: Liquid
Fixed: Temperature, K = 298.15
Fixed: Pressure, kPa = 101
Property: Mass density, kg/m3 (Liquid); method: VIBTUB:UFactor:2
Molality, mol/kg of sodium dodecyl sulfate	Mass density, kg/m3	uncertainty
0.05	999.103	0.267
0.05	999.151	0.267
0.05	999.134	0.271
0.05	999.078	0.267
0.05	999.133	0.267
0.5	1014.574	0.301
0.5	1014.514	0.307
0.5	1014.581	0.331
0.5	1014.573	0.301
0.5	1014.57	0.313
1	1027.423	0.33
1	1027.46	0.33
1	1027.425	0.333
1	1027.428	0.33
1	1027.474	0.33
1	1027.43	0.332
1	1027.435	0.336

System: N,N,N-trimethyl-1-hexadecanaminium bromide + water; phases: Liquid
Property: Mass density, kg/m3 (Liquid); method: VIBTUB:UFactor:2
Molality, mol/kg of N,N,N-trimethyl-1-hexadecanaminium bromide	Temperature, K	Pressure, kPa	Mass density, kg/m3	uncertainty
1	298.15	101	1004.435	0.463

System: 2-aminoacetic acid + sodium dodecyl sulfate + water; phases: Liquid
Fixed: Temperature, K = 298.15
Fixed: Pressure, kPa = 101
Property: Mass density, kg/m3 (Liquid); method: VIBTUB:UFactor:2
Molality, mol/kg of sodium dodecyl sulfate	Molality, mol/kg of 2-aminoacetic acid	Mass density, kg/m3	uncertainty
0.05	0	999.103	0.267
0.05	0.13291	1003.265	0.271
0.05	0.23423	1006.398	0.274
0.05	0.6257	1018.092	0.286
0.05	0.84427	1024.388	0.292
0.05	0.90571	1026.122	0.294
0.05	1.20892	1034.433	0.302
0.05	1.31433	1037.234	0.305
0.05	1.67028	1046.474	0.315
0.05	2.06759	1056.212	0.325
0.5	0	1014.574	0.301
0.5	0.23282	1021.628	0.307
0.5	0.34633	1024.954	0.31
0.5	0.55413	1031.031	0.316
0.5	0.8202	1038.318	0.322
0.5	0.99978	1043.28	0.328
0.5	1.20958	1048.892	0.333
0.5	1.46411	1055.339	0.339
0.5	1.67413	1060.419	0.344
0.5	2.32496	1075.625	0.36
1	0	1027.423	0.33
1	0.2415	1034.377	0.336
1	0.47517	1040.979	0.342
1	0.65541	1045.914	0.347
1	0.70253	1047.326	0.348
1	0.92413	1053.268	0.353
1	1.5622	1069.292	0.368
1	1.73892	1073.368	0.372

System: L-valine + sodium dodecyl sulfate + water; phases: Liquid
Fixed: Temperature, K = 298.15
Fixed: Pressure, kPa = 101
Property: Mass density, kg/m3 (Liquid); method: VIBTUB:UFactor:2
Molality, mol/kg of sodium dodecyl sulfate	Molality, mol/kg of L-valine	Mass density, kg/m3	uncertainty
0.05	0	999.151	0.267
0.05	0.0526	1000.51	0.271
0.05	0.05424	1000.548	0.271
0.05	0.06951	1000.971	0.273
0.05	0.07635	1001.14	0.274
0.05	0.09316	1001.577	0.275
0.05	0.108	1001.959	0.276
0.05	0.11371	1002.104	0.277
0.5	0	1014.514	0.307
0.5	0.02851	1015.186	0.302
0.5	0.04202	1015.494	0.302
0.5	0.06029	1015.938	0.306
0.5	0.07035	1016.166	0.306
0.5	0.08425	1016.503	0.314
0.5	0.0909	1016.656	0.306
0.5	0.10401	1016.951	0.309
0.5	0.13788	1017.731	0.312
1	0	1027.46	0.33
1	0.04227	1028.417	0.333
1	0.05514	1028.696	0.334
1	0.07323	1029.121	0.335
1	0.0774	1029.195	0.335
1	0.096	1029.608	0.337
1	0.1047	1029.796	0.337
1	0.1086	1029.882	0.338
1	0.1885	1031.645	0.344

System: sodium dodecyl sulfate + L-lysine monohydrochloride + water; phases: Liquid
Fixed: Temperature, K = 298.15
Fixed: Pressure, kPa = 101
Property: Mass density, kg/m3 (Liquid); method: VIBTUB:UFactor:2
Molality, mol/kg of sodium dodecyl sulfate	Molality, mol/kg of L-lysine monohydrochloride	Mass density, kg/m3	uncertainty
0.05	0	999.134	0.271
0.05	0.04874	1001.809	0.279
0.05	0.05129	1001.954	0.279
0.05	0.06738	1002.831	0.281
0.05	0.07848	1003.446	0.283
0.05	0.0815	1003.614	0.282
0.05	0.0883	1003.959	0.284
0.05	0.10847	1005.051	0.287
0.5	0	1014.581	0.331
0.5	0.01523	1015.387	0.305
0.5	0.03938	1016.639	0.306
0.5	0.04879	1017.134	0.31
0.5	0.0612	1017.775	0.308
0.5	0.06838	1018.163	0.314
0.5	0.08	1018.761	0.311
0.5	0.09206	1019.374	0.53
0.5	0.09358	1019.468	0.53
0.5	0.10467	1020.052	0.319
0.5	0.12202	1020.969	0.32
1	0	1027.425	0.333
1	0.02509	1028.699	0.336
1	0.02735	1028.818	0.336
1	0.03226	1029.064	0.337
1	0.07153	1031.052	0.34
1	0.07583	1031.235	0.342
1	0.08372	1031.635	0.343
1	0.08703	1031.796	0.343
1	0.10247	1032.598	0.345

System: (S)-2-aminopropanoic acid + sodium dodecyl sulfate + water; phases: Liquid
Fixed: Temperature, K = 298.15
Fixed: Pressure, kPa = 101
Property: Mass density, kg/m3 (Liquid); method: VIBTUB:UFactor:2
Molality, mol/kg of sodium dodecyl sulfate	Molality, mol/kg of (S)-2-aminopropanoic acid	Mass density, kg/m3	uncertainty
0.05	0	999.078	0.267
0.05	0.18435	1004.265	0.273
0.05	0.30592	1007.592	0.276
0.05	0.38601	1009.752	0.279
0.05	0.47107	1012.015	0.281
0.05	0.60585	1015.526	0.286
0.05	0.64221	1016.451	0.287
0.05	0.81574	1020.859	0.292
0.05	0.84778	1021.639	0.293
0.05	0.97852	1024.838	0.297
0.5	0	1014.573	0.301
0.5	0.19758	1019.865	0.306
0.5	0.27846	1022	0.308
0.5	0.37125	1024.302	0.311
0.5	0.53471	1028.49	0.315
0.5	0.63676	1031.05	0.318
0.5	0.73474	1033.489	0.32
0.5	0.83688	1035.896	0.323
1	0	1027.428	0.33
1	0.1037	1030.088	0.333
1	0.17647	1031.962	0.335
1	0.30272	1035.017	0.338
1	0.40702	1037.731	0.34
1	0.52947	1040.69	0.343
1	0.70192	1044.363	0.347
1	0.87239	1048.667	0.352
1	0.90883	1049.403	0.352
1	0.95193	1050.472	0.354

System: L-leucine + sodium dodecyl sulfate + water; phases: Liquid
Fixed: Temperature, K = 298.15
Fixed: Pressure, kPa = 101
Property: Mass density, kg/m3 (Liquid); method: VIBTUB:UFactor:2
Molality, mol/kg of sodium dodecyl sulfate	Molality, mol/kg of L-leucine	Mass density, kg/m3	uncertainty
0.05	0	999.133	0.267
0.05	0.03048	999.83	0.269
0.05	0.03241	999.871	0.269
0.05	0.04362	1000.127	0.271
0.05	0.05767	1000.45	0.272
0.05	0.0626	1000.557	0.273
0.05	0.07411	1000.828	0.274
0.05	0.07802	1000.931	0.274
0.05	0.08895	1001.164	0.275
0.05	0.10248	1001.476	0.277
0.5	0	1014.57	0.313
0.5	0.01838	1014.921	0.302
0.5	0.02524	1015.061	0.302
0.5	0.04271	1015.402	0.303
0.5	0.05368	1015.613	0.309
0.5	0.05707	1015.683	0.305
0.5	0.07505	1016.008	0.306
0.5	0.08068	1016.142	0.31
0.5	0.09233	1016.352	0.311
0.5	0.11127	1016.708	0.309
1	0	1027.474	0.33
1	0.05281	1028.383	0.334
1	0.0624	1028.535	0.334
1	0.06702	1028.632	0.335
1	0.08316	1028.876	0.337
1	0.08504	1028.925	0.337
1	0.10782	1029.322	0.338
1	0.11602	1029.453	0.339

System: sodium dodecyl sulfate + glycylglycine + water; phases: Liquid
Fixed: Molality, mol/kg of sodium dodecyl sulfate = 1
Fixed: Temperature, K = 298.15
Fixed: Pressure, kPa = 101
Property: Mass density, kg/m3 (Liquid); method: VIBTUB:UFactor:2
Molality, mol/kg of glycylglycine	Mass density, kg/m3	uncertainty
0	1027.43	0.332
0.06653	1030.835	0.349
0.06658	1030.841	0.349
0.09979	1032.53	0.357
0.09987	1032.541	0.357
0.13998	1034.583	0.367
0.14008	1034.593	0.367
0.15349	1035.215	0.37
0.1536	1035.23	0.37
0.17352	1036.251	0.375
0.17365	1036.269	0.375
0.18124	1036.604	0.376
0.18138	1036.622	0.376

System: sodium dodecyl sulfate + glycylglycylglycine + water; phases: Liquid
Fixed: Molality, mol/kg of sodium dodecyl sulfate = 1
Fixed: Temperature, K = 298.15
Fixed: Pressure, kPa = 101
Property: Mass density, kg/m3 (Liquid); method: VIBTUB:UFactor:2
Molality, mol/kg of glycylglycylglycine	Mass density, kg/m3	uncertainty
0	1027.435	0.336
0.0507	1031.078	0.339
0.0674	1032.274	0.34
0.07987	1033.162	0.341
0.09403	1034.188	0.342
0.0963	1034.35	0.341
0.10203	1034.723	0.339
0.10334	1034.794	0.339
0.12577	1036.38	0.351
0.12681	1036.483	0.351
0.13742	1037.206	0.344

System: 2-aminoacetic acid + N,N,N-trimethyl-1-hexadecanaminium bromide + water; phases: Liquid
Fixed: Molality, mol/kg of N,N,N-trimethyl-1-hexadecanaminium bromide = 1
Fixed: Temperature, K = 298.15
Fixed: Pressure, kPa = 101
Property: Mass density, kg/m3 (Liquid); method: VIBTUB:UFactor:2
Molality, mol/kg of 2-aminoacetic acid	Mass density, kg/m3	uncertainty
0	1004.43	0.46
0.15114	1009.12	0.47
0.1705	1009.69	0.47
0.19641	1010.43	0.47
0.33987	1014.85	0.47
0.41706	1017.08	0.47
0.50826	1019.8	0.47
0.60775	1022.65	0.47
0.6115	1022.75	0.47
0.629	1023.3	0.48

System: N,N,N-trimethyl-1-hexadecanaminium bromide + L-valine + water; phases: Liquid
Fixed: Molality, mol/kg of N,N,N-trimethyl-1-hexadecanaminium bromide = 1
Fixed: Temperature, K = 298.15
Fixed: Pressure, kPa = 101
Property: Mass density, kg/m3 (Liquid); method: VIBTUB:UFactor:2
Molality, mol/kg of L-valine	Mass density, kg/m3	uncertainty
0	1004.432	0.464
0.02377	1005.393	0.465
0.05358	1006.589	0.467
0.08578	1007.866	0.469
0.10324	1008.535	0.471
0.10898	1008.754	0.471
0.11794	1009.126	0.471
0.11993	1009.191	0.471
0.13239	1009.717	0.473

System: N,N,N-trimethyl-1-hexadecanaminium bromide + L-lysine monohydrochloride + water; phases: Liquid
Fixed: Molality, mol/kg of N,N,N-trimethyl-1-hexadecanaminium bromide = 1
Fixed: Temperature, K = 298.15
Fixed: Pressure, kPa = 101
Property: Mass density, kg/m3 (Liquid); method: VIBTUB:UFactor:2
Molality, mol/kg of L-lysine monohydrochloride	Mass density, kg/m3	uncertainty
0	1004.42	0.465
0.02383	1005.731	0.468
0.05477	1007.411	0.471
0.06851	1008.164	0.472
0.07446	1008.485	0.473
0.07814	1008.677	0.473
0.09768	1009.727	0.477
0.09884	1009.807	0.477
0.11227	1010.511	0.477
0.11474	1010.643	0.477

System: (S)-2-aminopropanoic acid + N,N,N-trimethyl-1-hexadecanaminium bromide + water; phases: Liquid
Fixed: Molality, mol/kg of N,N,N-trimethyl-1-hexadecanaminium bromide = 1
Fixed: Temperature, K = 298.15
Fixed: Pressure, kPa = 101
Property: Mass density, kg/m3 (Liquid); method: VIBTUB:UFactor:2
Molality, mol/kg of (S)-2-aminopropanoic acid	Mass density, kg/m3	uncertainty
0	1004.435	0.463
0.11436	1007.644	0.465
0.22609	1010.721	0.467
0.31245	1013.036	0.468
0.35452	1014.155	0.469
0.41231	1015.697	0.47
0.47731	1017.365	0.471
0.57593	1019.917	0.473

System: N,N,N-trimethyl-1-hexadecanaminium bromide + L-leucine + water; phases: Liquid
Fixed: Molality, mol/kg of N,N,N-trimethyl-1-hexadecanaminium bromide = 1
Fixed: Temperature, K = 298.15
Fixed: Pressure, kPa = 101
Property: Mass density, kg/m3 (Liquid); method: VIBTUB:UFactor:2
Molality, mol/kg of L-leucine	Mass density, kg/m3	uncertainty
0	1004.427	0.462
0.02356	1004.96	0.464
0.03106	1005.134	0.464
0.04302	1005.409	0.465
0.04951	1005.516	0.466
0.05754	1005.731	0.466
0.05916	1005.76	0.466
0.0787	1006.198	0.467
0.08238	1006.273	0.468
0.09885	1006.633	0.469

System: N,N,N-trimethyl-1-hexadecanaminium bromide + glycylglycine + water; phases: Liquid
Fixed: Molality, mol/kg of N,N,N-trimethyl-1-hexadecanaminium bromide = 1
Fixed: Temperature, K = 298.15
Fixed: Pressure, kPa = 101
Property: Mass density, kg/m3 (Liquid); method: VIBTUB:UFactor:4
Molality, mol/kg of glycylglycine	Mass density, kg/m3	uncertainty
0	1004.43	0.48
0.05185	1007.26	0.49
0.05267	1007.306	0.491
0.07285	1008.386	0.496
0.09387	1009.525	0.501
0.10264	1010.002	0.503
0.1043	1010.086	0.503
0.13373	1011.675	0.511
0.16199	1013.186	0.517
