Measured thermophysical data. Influence of fructose on the diffusion of potassium hydrogen phosphate in aqueous solutions at 25 degC
Source: J. Chem. Thermodyn., 2016, 10.1016/j.jct.2016.06.003
Compound 1: dipotassium hydrogen phosphate, HK2O4P, InChI=1S/2K.H3O4P/c;;1-5(2,3)4/h;;(H3,1,2,3,4)/q2*+1;/p-2, purity 99%
Compound 2: D-fructose, C6H12O6, InChI=1S/C6H12O6/c7-1-3(9)5(11)6(12)4(10)2-8/h3,5-9,11-12H,1-2H2/t3-,5-,6-/m1/s1, purity 99%
Compound 3: water, H2O, InChI=1S/H2O/h1H2, purity 99.9%

System: D-fructose + water + dipotassium hydrogen phosphate; phases: Liquid
Fixed: Pressure, kPa = 101.3
Fixed: Temperature, K = 298.15
Fixed: Molality, mol/kg of dipotassium hydrogen phosphate = 0.1
Property: Binary diffusion coefficient, m2/s (Liquid); method: Open capillary
Molality, mol/kg of D-fructose	Binary diffusion coefficient, m2/s	uncertainty
0.001	1.025e-09	0.017
0.005	1.017e-09	0.035
0.01	9.95e-10	0.019
0.02	9.71e-10	0.021
0.05	8.75e-10	0.019
0.101	8.47e-10	0.021
