Measured thermophysical data. Standard partial molar volumes of some electrolytes in ethylene carbonate based mixtures
Source: J. Chem. Thermodyn., 2004, 10.1016/j.jct.2003.09.005
Compound 1: ethylene carbonate, C3H4O3, InChI=1S/C3H4O3/c4-3-5-1-2-6-3/h1-2H2
Compound 2: tetrahydrofuran, C4H8O, InChI=1S/C4H8O/c1-2-4-5-3-1/h1-4H2
Compound 3: lithium perchlorate, ClLiO4, InChI=1S/ClHO4.Li/c2-1(3,4)5;/h(H,2,3,4,5);/q;+1/p-1
Compound 4: lithium bromide, BrLi, InChI=1S/BrH.Li/h1H;/q;+1/p-1
Compound 5: tetraethylammonium bromide, C8H20BrN, InChI=1S/C8H20N.BrH/c1-5-9(6-2,7-3)8-4;/h5-8H2,1-4H3;1H/q+1;/p-1
Compound 6: tetrapropylammonium bromide, C12H28BrN, InChI=1S/C12H28N.BrH/c1-5-9-13(10-6-2,11-7-3)12-8-4;/h5-12H2,1-4H3;1H/q+1;/p-1
Compound 7: tetrabutylammonium bromide, C16H36BrN, InChI=1S/C16H36N.BrH/c1-5-9-13-17(14-10-6-2,15-11-7-3)16-12-8-4;/h5-16H2,1-4H3;1H/q+1;/p-1
Compound 8: acetonitrile, C2H3N, InChI=1S/C2H3N/c1-2-3/h1H3
Compound 9: ethyl acetate, C4H8O2, InChI=1S/C4H8O2/c1-3-6-4(2)5/h3H2,1-2H3
Compound 10: 1,2-dimethoxyethane, C4H10O2, InChI=1S/C4H10O2/c1-5-3-4-6-2/h3-4H2,1-2H3

System: tetrahydrofuran; phases: Liquid
Property: Mass density, kg/m3 (Liquid); method: VIBTUB:UFactor:4
Temperature, K	Pressure, kPa	Mass density, kg/m3	uncertainty
298.15	101.325	882.01	0.54

System: acetonitrile; phases: Liquid
Property: Mass density, kg/m3 (Liquid); method: VIBTUB:UFactor:4
Temperature, K	Pressure, kPa	Mass density, kg/m3	uncertainty
298.15	101.325	776.69	0.62

System: ethyl acetate; phases: Liquid
Property: Mass density, kg/m3 (Liquid); method: VIBTUB:UFactor:4
Temperature, K	Pressure, kPa	Mass density, kg/m3	uncertainty
298.15	101.325	894.51	0.54

System: 1,2-dimethoxyethane; phases: Liquid
Property: Mass density, kg/m3 (Liquid); method: VIBTUB:UFactor:4
Temperature, K	Pressure, kPa	Mass density, kg/m3	uncertainty
298.15	101.325	861.43	0.56

System: ethylene carbonate + tetrahydrofuran; phases: Liquid
Fixed: Temperature, K = 298.15
Fixed: Pressure, kPa = 101.325
Fixed: Mole fraction of tetrahydrofuran = 0.4631
Property: Mass density, kg/m3 (Liquid); method: Vibrating tube method
Mass density, kg/m3	uncertainty
1110.32	0.57
1109.98	0.57
1109.85	0.57

System: acetonitrile + ethylene carbonate; phases: Liquid
Fixed: Temperature, K = 298.15
Fixed: Pressure, kPa = 101.325
Fixed: Mole fraction of acetonitrile = 0.5533
Property: Mass density, kg/m3 (Liquid); method: Vibrating tube method
Mass density, kg/m3	uncertainty
1070.54	0.55
1071.16	0.54

System: ethylene carbonate + ethyl acetate; phases: Liquid
Fixed: Temperature, K = 298.15
Fixed: Pressure, kPa = 101.325
Fixed: Mole fraction of ethyl acetate = 0.4577
Property: Mass density, kg/m3 (Liquid); method: Vibrating tube method
Mass density, kg/m3	uncertainty
1118.33	0.58
1118.46	0.58
1117.59	0.57
1118.82	0.57

System: ethylene carbonate + 1,2-dimethoxyethane; phases: Liquid
Fixed: Temperature, K = 298.15
Fixed: Pressure, kPa = 101.325
Fixed: Mole fraction of 1,2-dimethoxyethane = 0.4158
Property: Mass density, kg/m3 (Liquid); method: Vibrating tube method
Mass density, kg/m3	uncertainty
1099.62	0.57
1099.78	0.56
1100.01	0.56

System: ethylene carbonate + tetrahydrofuran + lithium perchlorate; phases: Liquid
Fixed: Temperature, K = 298.15
Fixed: Pressure, kPa = 101.325
Fixed: Solvent: Mole fraction of tetrahydrofuran = 0.4631
Property: Mass density, kg/m3 (Liquid); method: Vibrating tube method
Molality, mol/kg of lithium perchlorate	Mass density, kg/m3	uncertainty
0	1110.32	0.57
0.01264	1111.35	0.57
0.02398	1112.26	0.57
0.02997	1112.74	0.57
0.04006	1113.54	0.57
0.05651	1114.86	0.57
0.0866	1117.21	0.57

System: ethylene carbonate + tetrahydrofuran + lithium bromide; phases: Liquid
Fixed: Temperature, K = 298.15
Fixed: Pressure, kPa = 101.325
Fixed: Solvent: Mole fraction of tetrahydrofuran = 0.4631
Property: Mass density, kg/m3 (Liquid); method: Vibrating tube method
Molality, mol/kg of lithium bromide	Mass density, kg/m3	uncertainty
0	1109.98	0.57
0.01585	1111.25	0.57
0.02071	1111.64	0.57
0.02916	1112.3	0.57
0.03711	1112.93	0.57
0.06897	1115.42	0.57
0.07969	1116.25	0.57

System: tetraethylammonium bromide + ethylene carbonate + tetrahydrofuran; phases: Liquid
Fixed: Temperature, K = 298.15
Fixed: Pressure, kPa = 101.325
Fixed: Solvent: Mole fraction of tetrahydrofuran = 0.4631
Property: Mass density, kg/m3 (Liquid); method: Vibrating tube method
Molality, mol/kg of tetraethylammonium bromide	Mass density, kg/m3	uncertainty
0	1110.32	0.57
0.0076	1110.56	0.57
0.01743	1110.86	0.57
0.02516	1111.1	0.57
0.04392	1111.68	0.57
0.06405	1112.26	0.57
0.07963	1112.72	0.57

System: ethylene carbonate + tetrahydrofuran + tetrapropylammonium bromide; phases: Liquid
Fixed: Temperature, K = 298.15
Fixed: Pressure, kPa = 101.325
Fixed: Solvent: Mole fraction of tetrahydrofuran = 0.4631
Property: Mass density, kg/m3 (Liquid); method: Vibrating tube method
Molality, mol/kg of tetrapropylammonium bromide	Mass density, kg/m3	uncertainty
0	1109.85	0.57
0.00889	1109.95	0.57
0.02565	1110.11	0.57
0.03769	1110.23	0.57
0.04779	1110.34	0.57
0.072	1110.55	0.57
0.08588	1110.7	0.57

System: ethylene carbonate + tetrahydrofuran + tetrabutylammonium bromide; phases: Liquid
Fixed: Temperature, K = 298.15
Fixed: Pressure, kPa = 101.325
Fixed: Solvent: Mole fraction of tetrahydrofuran = 0.4631
Property: Mass density, kg/m3 (Liquid); method: Vibrating tube method
Molality, mol/kg of tetrabutylammonium bromide	Mass density, kg/m3	uncertainty
0	1109.85	0.57
0.00728	1109.77	0.57
0.01025	1109.74	0.57
0.02194	1109.61	0.57
0.03443	1109.47	0.57
0.05583	1109.24	0.57
0.08108	1108.97	0.57

System: acetonitrile + ethylene carbonate + lithium perchlorate; phases: Liquid
Fixed: Temperature, K = 298.15
Fixed: Pressure, kPa = 101.325
Fixed: Solvent: Mole fraction of acetonitrile = 0.5533
Property: Mass density, kg/m3 (Liquid); method: Vibrating tube method
Molality, mol/kg of lithium perchlorate	Mass density, kg/m3	uncertainty
0	1070.54	0.55
0.01676	1071.8	0.55
0.02835	1072.67	0.55
0.04922	1074.22	0.55
0.05874	1074.93	0.55
0.09525	1077.62	0.55

System: acetonitrile + ethylene carbonate + lithium bromide; phases: Liquid
Fixed: Temperature, K = 298.15
Fixed: Pressure, kPa = 101.325
Fixed: Solvent: Mole fraction of acetonitrile = 0.5533
Property: Mass density, kg/m3 (Liquid); method: Vibrating tube method
Molality, mol/kg of lithium bromide	Mass density, kg/m3	uncertainty
0	1070.54	0.55
0.01164	1071.34	0.55
0.02036	1071.96	0.55
0.02859	1072.53	0.55
0.04024	1073.33	0.55
0.04674	1073.76	0.55
0.0584	1074.57	0.55

System: tetraethylammonium bromide + acetonitrile + ethylene carbonate; phases: Liquid
Fixed: Temperature, K = 298.15
Fixed: Pressure, kPa = 101.325
Fixed: Solvent: Mole fraction of acetonitrile = 0.5533
Property: Mass density, kg/m3 (Liquid); method: Vibrating tube method
Molality, mol/kg of tetraethylammonium bromide	Mass density, kg/m3	uncertainty
0	1070.54	0.55
0.00917	1070.89	0.55
0.01805	1071.23	0.55
0.02571	1071.51	0.55
0.03648	1071.91	0.55
0.05526	1072.6	0.55
0.07215	1073.22	0.55

System: acetonitrile + ethylene carbonate + tetrapropylammonium bromide; phases: Liquid
Fixed: Temperature, K = 298.15
Fixed: Pressure, kPa = 101.325
Fixed: Solvent: Mole fraction of acetonitrile = 0.5533
Property: Mass density, kg/m3 (Liquid); method: Vibrating tube method
Molality, mol/kg of tetrapropylammonium bromide	Mass density, kg/m3	uncertainty
0	1070.54	0.54
0.00967	1070.72	0.54
0.02256	1070.95	0.54
0.03062	1071.08	0.54
0.04401	1071.32	0.55
0.06343	1071.65	0.55
0.07923	1071.91	0.55

System: acetonitrile + ethylene carbonate + tetrabutylammonium bromide; phases: Liquid
Fixed: Temperature, K = 298.15
Fixed: Pressure, kPa = 101.325
Fixed: Solvent: Mole fraction of acetonitrile = 0.5533
Property: Mass density, kg/m3 (Liquid); method: Vibrating tube method
Molality, mol/kg of tetrabutylammonium bromide	Mass density, kg/m3	uncertainty
0	1071.16	0.54
0.01021	1071.19	0.54
0.01702	1071.2	0.54
0.03462	1071.23	0.54
0.04182	1071.24	0.54
0.05737	1071.27	0.54
0.08902	1071.32	0.54

System: ethylene carbonate + ethyl acetate + lithium perchlorate; phases: Liquid
Fixed: Temperature, K = 298.15
Fixed: Pressure, kPa = 101.325
Fixed: Solvent: Mole fraction of ethyl acetate = 0.4577
Property: Mass density, kg/m3 (Liquid); method: Vibrating tube method
Molality, mol/kg of lithium perchlorate	Mass density, kg/m3	uncertainty
0	1118.33	0.58
0.01497	1119.53	0.58
0.02316	1120.19	0.58
0.03399	1121	0.58
0.0407	1121.58	0.58
0.05492	1122.69	0.58
0.07017	1123.89	0.58

System: ethylene carbonate + ethyl acetate + lithium bromide; phases: Liquid
Fixed: Temperature, K = 298.15
Fixed: Pressure, kPa = 101.325
Fixed: Solvent: Mole fraction of ethyl acetate = 0.4577
Property: Mass density, kg/m3 (Liquid); method: Vibrating tube method
Molality, mol/kg of lithium bromide	Mass density, kg/m3	uncertainty
0	1118.46	0.58
0.01294	1119.49	0.58
0.02111	1120.12	0.58
0.03905	1121.51	0.58
0.0493	1122.3	0.58
0.05494	1122.73	0.58

System: tetraethylammonium bromide + ethylene carbonate + ethyl acetate; phases: Liquid
Fixed: Temperature, K = 298.15
Fixed: Pressure, kPa = 101.325
Fixed: Solvent: Mole fraction of ethyl acetate = 0.4577
Property: Mass density, kg/m3 (Liquid); method: Vibrating tube method
Molality, mol/kg of tetraethylammonium bromide	Mass density, kg/m3	uncertainty
0	1117.59	0.57
0.03577	1118.88	0.57
0.04279	1119.12	0.57
0.04466	1119.18	0.57
0.07149	1120.1	0.57

System: ethylene carbonate + ethyl acetate + tetrapropylammonium bromide; phases: Liquid
Fixed: Temperature, K = 298.15
Fixed: Pressure, kPa = 101.325
Fixed: Solvent: Mole fraction of ethyl acetate = 0.4577
Property: Mass density, kg/m3 (Liquid); method: Vibrating tube method
Molality, mol/kg of tetrapropylammonium bromide	Mass density, kg/m3	uncertainty
0	1117.59	0.57
0.00989	1117.71	0.57
0.02375	1117.87	0.57
0.03185	1117.96	0.57
0.04515	1118.12	0.57
0.04973	1118.18	0.57
0.06334	1118.36	0.57

System: ethylene carbonate + ethyl acetate + tetrabutylammonium bromide; phases: Liquid
Fixed: Temperature, K = 298.15
Fixed: Pressure, kPa = 101.325
Fixed: Solvent: Mole fraction of ethyl acetate = 0.4577
Property: Mass density, kg/m3 (Liquid); method: Vibrating tube method
Molality, mol/kg of tetrabutylammonium bromide	Mass density, kg/m3	uncertainty
0	1118.82	0.57
0.00927	1118.73	0.57
0.01511	1118.68	0.57
0.02618	1118.57	0.57
0.03699	1118.46	0.57
0.05338	1118.28	0.57
0.0763	1118.04	0.57

System: ethylene carbonate + 1,2-dimethoxyethane + lithium perchlorate; phases: Liquid
Fixed: Temperature, K = 298.15
Fixed: Pressure, kPa = 101.325
Fixed: Solvent: Mole fraction of 1,2-dimethoxyethane = 0.4158
Property: Mass density, kg/m3 (Liquid); method: Vibrating tube method
Molality, mol/kg of lithium perchlorate	Mass density, kg/m3	uncertainty
0	1099.62	0.57
0.01234	1100.64	0.57
0.02931	1102.03	0.57
0.03834	1102.76	0.57
0.05145	1103.82	0.57
0.0766	1105.84	0.57
0.10862	1108.44	0.57

System: ethylene carbonate + 1,2-dimethoxyethane + lithium bromide; phases: Liquid
Fixed: Temperature, K = 298.15
Fixed: Pressure, kPa = 101.325
Fixed: Solvent: Mole fraction of 1,2-dimethoxyethane = 0.4158
Property: Mass density, kg/m3 (Liquid); method: Vibrating tube method
Molality, mol/kg of lithium bromide	Mass density, kg/m3	uncertainty
0	1099.62	0.57
0.01973	1101.23	0.57
0.03238	1102.26	0.57
0.04781	1103.49	0.57
0.07567	1105.65	0.57
0.08	1106.04	0.57

System: tetraethylammonium bromide + ethylene carbonate + 1,2-dimethoxyethane; phases: Liquid
Fixed: Temperature, K = 298.15
Fixed: Pressure, kPa = 101.325
Fixed: Solvent: Mole fraction of 1,2-dimethoxyethane = 0.4158
Property: Mass density, kg/m3 (Liquid); method: Vibrating tube method
Molality, mol/kg of tetraethylammonium bromide	Mass density, kg/m3	uncertainty
0	1099.62	0.56
0.01289	1100.09	0.56
0.02274	1100.44	0.56
0.02971	1100.68	0.56
0.04079	1101.07	0.56
0.06024	1101.74	0.56

System: ethylene carbonate + 1,2-dimethoxyethane + tetrapropylammonium bromide; phases: Liquid
Fixed: Temperature, K = 298.15
Fixed: Pressure, kPa = 101.325
Fixed: Solvent: Mole fraction of 1,2-dimethoxyethane = 0.4158
Property: Mass density, kg/m3 (Liquid); method: Vibrating tube method
Molality, mol/kg of tetrapropylammonium bromide	Mass density, kg/m3	uncertainty
0	1099.78	0.56
0.00713	1099.9	0.56
0.01684	1100.04	0.56
0.02432	1100.15	0.56
0.0344	1100.29	0.56
0.04563	1100.39	0.56
0.07611	1100.79	0.56

System: ethylene carbonate + 1,2-dimethoxyethane + tetrabutylammonium bromide; phases: Liquid
Fixed: Temperature, K = 298.15
Fixed: Pressure, kPa = 101.325
Fixed: Solvent: Mole fraction of 1,2-dimethoxyethane = 0.4158
Property: Mass density, kg/m3 (Liquid); method: Vibrating tube method
Molality, mol/kg of tetrabutylammonium bromide	Mass density, kg/m3	uncertainty
0	1100.01	0.56
0.00857	1099.96	0.56
0.0212	1099.88	0.56
0.03404	1099.8	0.56
0.03854	1099.76	0.56
0.06246	1099.6	0.56
0.08263	1099.48	0.56
