Measured thermophysical data. The low temperature heat capacity of LaPO4 and GdPO4, the thermodynamic functions of the monazite-type LnPO4 series
Source: J. Chem. Thermodyn., 2005, 10.1016/j.jct.2004.07.031
Compound 1: lanthanum orthophosphate, LaO4P, InChI=1S/La.H3O4P/c;1-5(2,3)4/h;(H3,1,2,3,4)/q+3;/p-3
Compound 2: gadolinium orthophosphate, GdO4P, InChI=1S/Gd.H3O4P/c;1-5(2,3)4/h;(H3,1,2,3,4)/q+3;/p-3

System: lanthanum orthophosphate; phases: Crystal
Property: Molar entropy, J/K/mol (Crystal); method: PPMS instrument (Quantum Design)
Temperature, K	Pressure, kPa	Molar entropy, J/K/mol	uncertainty
298.15	101.325	108.24	4.87

System: lanthanum orthophosphate; phases: Crystal
Fixed: Pressure, kPa = 101.325
Property: Molar heat capacity at constant pressure, J/K/mol (Crystal); method: PPMS instrument (Quantum Design)
Temperature, K	Molar heat capacity at constant pressure, J/K/mol	uncertainty
2.046	0.00182	9e-05
2.066	0.00139	9e-05
2.067	0.0014	9e-05
2.068	0.00141	9e-05
2.083	0.00123	9e-05
2.246	0.0017	0.00011
2.247	0.0017	0.00011
2.247	0.00172	0.00011
2.415	0.00201	0.00013
2.429	0.00212	0.00011
2.43	0.00213	0.00011
2.43	0.00213	0.00011
2.514	0.00333	0.00014
2.616	0.00265	0.00013
2.617	0.00266	0.00013
2.618	0.00266	0.00013
2.763	0.0031	0.00014
2.802	0.0034	0.00015
2.803	0.00342	0.00015
2.805	0.00339	0.00014
2.989	0.00467	0.00018
2.992	0.00476	0.00018
2.994	0.00473	0.00018
3	0.0053	0.00019
3.115	0.00524	0.00019
3.19	0.00601	0.00021
3.191	0.00593	0.00021
3.191	0.00603	0.00021
3.383	0.00728	0.00025
3.385	0.00731	0.00026
3.386	0.0073	0.00026
3.473	0.00765	0.00026
3.505	0.00809	0.00028
3.578	0.00852	0.00029
3.58	0.00853	0.00029
3.58	0.00852	0.00029
3.772	0.00994	0.00034
3.775	0.00998	0.00034
3.778	0.00998	0.00034
3.839	0.01034	0.00035
3.969	0.01147	0.00038
3.973	0.01149	0.00039
3.976	0.01146	0.00038
4.008	0.01178	0.00039
4.168	0.0131	0.00043
4.172	0.01315	0.00044
4.174	0.01314	0.00043
4.207	0.01339	0.00044
4.368	0.01481	0.00049
4.371	0.01487	0.00049
4.372	0.01494	0.00049
4.518	0.01632	0.00053
4.565	0.01686	0.00055
4.568	0.01687	0.00055
4.569	0.0169	0.00055
4.576	0.01697	0.00055
4.763	0.01882	0.00061
4.765	0.01903	0.00062
4.768	0.01911	0.00062
4.946	0.02113	0.00068
4.961	0.02146	0.00069
4.965	0.02154	0.00069
4.967	0.02153	0.00069
5.031	0.02216	0.00071
5.166	0.02384	0.00076
5.173	0.02394	0.00077
5.174	0.02375	0.00076
5.323	0.02601	0.00083
5.367	0.0265	0.00085
5.369	0.02666	0.00085
5.37	0.02686	0.00086
5.546	0.02914	0.00093
5.565	0.02951	0.00094
5.574	0.02974	0.00094
5.574	0.02916	0.00093
5.695	0.03139	0.00099
5.77	0.03276	0.00104
5.771	0.03277	0.00104
5.774	0.03288	0.00104
5.965	0.03647	0.00115
5.967	0.03583	0.00113
5.974	0.03623	0.00114
6.057	0.03765	0.00119
6.065	0.03776	0.00119
6.165	0.03972	0.00125
6.17	0.03972	0.00125
6.171	0.03961	0.00124
6.367	0.04348	0.00137
6.37	0.04345	0.00136
6.373	0.04366	0.00137
6.438	0.04486	0.00141
6.567	0.04741	0.00148
6.572	0.04748	0.00149
6.574	0.04752	0.00149
6.574	0.04753	0.00149
6.768	0.05148	0.00161
6.773	0.05174	0.00162
6.774	0.05167	0.00161
6.812	0.05274	0.00165
6.968	0.0563	0.00175
6.973	0.0564	0.00176
6.976	0.05661	0.00176
7.087	0.05926	0.00185
7.169	0.06123	0.0019
7.175	0.06142	0.00191
7.176	0.06139	0.00191
7.188	0.06178	0.00192
7.371	0.06581	0.00205
7.377	0.06689	0.00208
7.381	0.06684	0.00208
7.56	0.07178	0.00223
7.57	0.07164	0.00222
7.575	0.072	0.00223
7.579	0.07223	0.00224
7.604	0.07273	0.00226
7.774	0.07756	0.0024
7.778	0.07802	0.00242
7.779	0.07794	0.00241
7.937	0.08278	0.00256
7.975	0.08393	0.0026
7.98	0.08397	0.0026
7.983	0.08418	0.0026
8.119	0.08872	0.00274
8.176	0.09007	0.00278
8.182	0.09043	0.00279
8.184	0.09022	0.00279
8.313	0.09473	0.00292
8.378	0.09678	0.00299
8.383	0.09686	0.00299
8.385	0.09715	0.003
8.584	0.10412	0.00321
8.589	0.10434	0.00322
8.592	0.10455	0.00322
8.642	0.10646	0.00328
8.696	0.10847	0.00334
8.785	0.11186	0.00345
8.792	0.11246	0.00346
8.794	0.11216	0.00346
8.987	0.11984	0.00369
8.993	0.12011	0.0037
8.996	0.12024	0.0037
9.07	0.12321	0.00379
9.158	0.12698	0.0039
9.188	0.12841	0.00394
9.196	0.13096	0.00402
9.196	0.12861	0.00395
9.198	0.12856	0.00395
9.393	0.13713	0.0042
9.398	0.13779	0.00422
9.4	0.13494	0.00414
9.447	0.13982	0.00431
9.586	0.14618	0.0045
9.598	0.14687	0.00452
9.602	0.14714	0.00453
9.675	0.15047	0.00463
9.792	0.15651	0.00481
9.8	0.15676	0.00481
9.805	0.15702	0.00482
9.822	0.15785	0.00485
9.994	0.16658	0.00511
10	0.16687	0.00512
10.01	0.16714	0.00512
10.19	0.17686	0.00541
10.19	0.17694	0.00542
10.2	0.17759	0.00543
10.2	0.17712	0.00542
10.2	0.17761	0.00543
10.21	0.17777	0.00544
11.18	0.23757	0.00725
12.19	0.31389	0.00957
13.19	0.40682	0.01238
14.19	0.51868	0.01575
15.2	0.65277	0.01979
16.21	0.80942	0.02451
17.22	0.98816	0.02988
18.24	1.19169	0.03601
19.25	1.42198	0.04293
20.24	1.66924	0.05035
21.28	1.95465	0.05892
22.27	2.25019	0.0678
23.28	2.5867	0.0779
24.29	2.93653	0.08839
25.31	3.31917	0.09987
26.33	3.72147	0.11194
27.36	4.1516	0.12484
28.34	4.57589	0.13756
29.38	5.0458	0.15165
30.37	5.50525	0.16543
31.4	6.00618	0.18046
32.4	6.5097	0.19556
33.41	7.03954	0.21144
34.43	7.56685	0.22726
35.43	8.12083	0.24388
36.45	8.68564	0.26081
37.45	9.25799	0.27797
38.41	9.80896	0.2945
38.46	9.82739	0.29505
39.48	10.4295	0.3131
40.48	11.022	0.3309
40.49	11.0268	0.331
42.49	12.2504	0.3677
44.51	13.4932	0.405
46.53	14.7568	0.4429
48.55	16.0537	0.4818
50.57	17.3594	0.5209
52.59	18.6571	0.5599
54.6	19.9486	0.5986
56.62	21.2454	0.6375
58.64	22.5648	0.6771
60.66	23.8625	0.716
62.68	25.1367	0.7542
64.7	26.4107	0.7924
66.72	27.6448	0.8294
68.74	28.8672	0.8661
70.74	30.0766	0.9024
72.76	31.287	0.9387
74.78	32.471	0.9742
75.85	33.0777	0.9924
76.8	33.6207	1.0087
78.81	34.7842	1.0436
80.81	35.8655	1.076
80.84	35.8776	1.0764
85.86	38.6443	1.1594
90.91	41.3116	1.2394
95.96	43.7963	1.3139
101	46.2965	1.3889
106	48.6566	1.4597
111.1	50.9177	1.5276
116.1	53.1132	1.5934
121.2	55.1585	1.6548
126.2	57.2584	1.7178
131.3	59.2016	1.7761
136.3	61.1069	1.8332
141.4	62.9679	1.8891
146.4	64.7293	1.9419
151.4	66.4395	1.9932
156.5	68.0996	2.043
161.5	69.615	2.0885
166.5	71.1434	2.1343
171.6	72.7365	2.1821
176.6	74.3295	2.2299
181.6	75.6834	2.2705
186.7	77.0487	2.3115
191.7	78.4765	2.3543
196.7	79.894	2.3968
201.8	81.3144	2.4394
206.8	82.587	2.4776
211.8	83.8616	2.5159
216.9	85.2123	2.5564
221.9	86.3628	2.5909
226.9	87.3518	2.6206
231.9	88.3944	2.6518
237	89.4591	2.6838
242	90.5031	2.7151
247	91.4939	2.7448
252.1	92.3648	2.7709
257.1	93.2837	2.7985
262.1	94.214	2.8264
267.1	95.2897	2.8587
272.1	96.189	2.8857
277.1	97.3097	2.9193
282.2	98.3946	2.9518
282.2	98.3723	2.9512
287.2	99.4142	2.9824
287.3	99.3276	2.9798
292.2	100.359	3.011
292.3	100.202	3.006
297.3	100.95	3.029
302.26	101.792	3.054
302.33	101.791	3.054
302.35	101.815	3.054
307.29	102.406	3.072
307.35	102.453	3.074
307.37	102.436	3.073
312.31	103.051	3.092
312.37	102.953	3.089
312.39	103.004	3.09
317.33	103.529	3.106
317.4	103.636	3.109
317.42	103.682	3.11
322.35	104.236	3.127
322.44	104.252	3.128
322.45	104.337	3.13
327.36	105.117	3.154
327.45	105.03	3.151
327.48	104.972	3.149
332.38	105.685	3.171
332.46	105.735	3.172
332.48	105.566	3.167
337.4	106.005	3.18
337.5	106.2	3.186
337.5	106.192	3.186
342.43	106.414	3.192
342.53	106.461	3.194
342.55	106.495	3.195
347.11	107.02	3.211
347.2	106.865	3.206
347.23	106.975	3.209
351.79	107.316	3.219
351.86	107.384	3.222
351.86	107.331	3.22
356.73	107.646	3.229
356.79	107.889	3.237
356.81	107.698	3.231
361.73	108.183	3.245
361.79	108.219	3.247
361.8	108.279	3.248
366.74	108.45	3.254
366.81	108.246	3.247
366.81	108.643	3.259
371.74	108.807	3.264
371.8	108.772	3.263
371.82	108.814	3.264
376.74	109.111	3.273
376.8	108.995	3.27
376.82	108.978	3.269
381.74	109.409	3.282
381.81	109.294	3.279

System: gadolinium orthophosphate; phases: Crystal
Property: Molar entropy, J/K/mol (Crystal); method: PPMS instrument (Quantum Design)
Temperature, K	Pressure, kPa	Molar entropy, J/K/mol	uncertainty
298.15	101.325	124.57	5.61

System: gadolinium orthophosphate; phases: Crystal
Fixed: Pressure, kPa = 101.325
Property: Molar heat capacity at constant pressure, J/K/mol (Crystal); method: PPMS instrument (Quantum Design)
Temperature, K	Molar heat capacity at constant pressure, J/K/mol	uncertainty
0.525	7.72176	0.2445
0.536	8.10567	0.25842
0.547	8.47533	0.27199
0.558	8.85482	0.28608
0.569	9.27697	0.30082
0.58	9.6313	0.31396
0.591	10.1149	0.3319
0.602	10.6894	0.3533
0.614	11.2424	0.3741
0.625	11.8272	0.3963
0.637	12.5684	0.4246
0.648	13.421	0.452
0.659	14.3718	0.4875
0.67	15.2892	0.5222
0.681	16.5451	0.5695
0.693	17.902	0.6212
0.703	19.5614	0.6842
0.715	21.5992	0.7623
0.726	24.0652	0.84
0.73	25.1592	0.8806
0.733	26.3091	0.9232
0.737	27.5504	0.9695
0.738	27.9162	0.9831
0.742	29.6926	1.0491
0.743	29.9243	1.0578
0.745	31.3424	1.1103
0.747	31.8588	1.1298
0.75	33.4778	1.1901
0.751	34.3665	1.2231
0.752	35.1679	1.2528
0.755	37.1876	1.3281
0.756	37.8314	1.3521
0.758	40.0766	1.4355
0.76	41.5683	1.4912
0.763	44.6233	1.6051
0.764	46.2541	1.6657
0.765	47.5361	1.7135
0.768	50.7629	1.8342
0.77	52.5527	1.9014
0.772	53.7656	1.9475
0.773	54.782	1.9858
0.776	54.2059	1.9665
0.777	51.7011	1.8745
0.777	54.1814	1.9662
0.782	37.7288	1.3598
0.783	33.5832	1.2066
0.784	31.2833	1.1217
0.786	23.8193	0.8456
0.79	19.5637	0.6888
0.791	19.089	0.6714
0.794	17.7355	0.6218
0.796	16.8394	0.5889
0.797	16.394	0.5725
0.799	15.8	0.5416
0.8	15.6184	0.5352
0.804	14.829	0.5072
0.806	14.4829	0.4949
0.816	13.1066	0.4462
0.843	11.3239	0.354
0.867	10.2979	0.3228
0.872	10.1292	0.3184
0.882	9.82694	0.30923
0.89	9.58425	0.30192
0.892	9.57906	0.30175
0.902	9.26855	0.29241
0.912	9.06524	0.28508
0.914	9.00864	0.28339
0.922	8.87052	0.27923
0.933	8.69241	0.27387
0.939	8.53755	0.26924
0.942	8.49887	0.26808
0.952	8.33241	0.2631
0.962	8.22139	0.25926
0.963	8.16703	0.25764
0.973	8.05608	0.25433
0.983	7.9334	0.25068
0.986	7.91914	0.25025
0.993	7.85196	0.24824
1.003	7.77845	0.24605
1.01	7.55425	0.23944
1.059	6.86812	0.21899
1.141	6.05793	0.19563
1.22	5.52257	0.17935
1.301	4.91942	0.16263
1.381	4.47581	0.15071
1.461	4.06079	0.13989
1.544	3.71128	0.14294
1.619	3.44685	0.18416
1.699	3.17783	0.41996
1.78	2.94386	0.14194
1.841	2.57772	0.12004
1.86	2.7505	0.12078
1.94	2.5776	0.10054
2.02	2.37174	0.09164
2.234	1.87426	0.07168
2.648	1.37692	0.04921
3.055	1.06298	0.03684
3.464	0.84573	0.0272
3.872	0.69313	0.02196
4.291	0.57	0.01786
4.675	0.49109	0.01535
5.081	0.4292	0.01319
5.499	0.34152	0.01049
5.896	0.33895	0.01033
6.3	0.30791	0.00928
6.728	0.28094	0.00849
7.126	0.26589	0.00801
7.523	0.25448	0.00765
7.936	0.24832	0.00745
8.343	0.24537	0.00736
8.747	0.24595	0.00738
8.971	0.24761	0.00743
9.151	0.24967	0.0075
9.554	0.25734	0.00774
9.964	0.26979	0.00812
9.976	0.26955	0.00811
10.96	0.31141	0.0094
11.94	0.37193	0.01125
12.94	0.45455	0.01377
13.93	0.56277	0.01706
14.93	0.69538	0.02107
15.93	0.85551	0.02589
16.93	1.0391	0.03142
17.94	1.24668	0.03765
18.95	1.4761	0.04457
19.95	1.75157	0.05284
20.95	2.03592	0.06137
21.96	2.35301	0.07089
22.97	2.69157	0.08105
23.97	3.05325	0.0919
24.98	3.44023	0.10351
25.98	3.84924	0.11578
26.99	4.2785	0.12864
28	4.71437	0.14171
29	5.16895	0.15534
30.01	5.63126	0.16923
32	6.6525	0.19982
34	7.60302	0.22831
36.02	8.66327	0.26012
38.05	9.79162	0.29396
40.06	10.8936	0.327
42.08	12.0178	0.3607
44.09	13.1749	0.3954
46.11	14.3514	0.4307
48.12	15.5538	0.4668
50.14	16.7533	0.5027
53.15	18.5829	0.5576
56.16	20.4007	0.6121
59.19	22.2202	0.6667
62.22	24.0197	0.7207
65.24	25.8031	0.7742
68.26	27.5372	0.8262
71.29	29.29	0.8788
74.3	31.0199	0.9307
77.33	32.7243	0.9818
80.35	34.3983	1.032
85.39	37.0897	1.1127
92.14	40.5553	1.2167
98.9	43.866	1.316
105.7	47.0198	1.4106
112.4	50.0646	1.502
119.2	53.0052	1.5902
126	55.8433	1.6753
132.7	58.5311	1.756
139.5	61.1311	1.8339
146.3	63.6701	1.9101
153	65.9841	1.9795
159.8	68.2804	2.0484
166.6	70.5282	2.1159
173.3	72.6975	2.1809
180.1	74.7116	2.2414
186.8	76.764	2.3029
193.6	78.7622	2.3629
200.4	80.591	2.4177
207.1	82.3158	2.4695
213.8	84.0901	2.5227
220.6	85.7594	2.5728
227.4	87.273	2.6182
234.1	88.9541	2.6686
240.9	90.5263	2.7158
247.7	92.1816	2.7655
254.4	93.5298	2.8059
261.1	94.9232	2.8477
267.9	96.446	2.8934
274.6	97.8375	2.9351
281.3	98.9862	2.9696
288.1	100.286	3.009
294.8	101.42	3.043
301.6	102.555	3.077
