Measured thermophysical data. Bubble temperature measurements on seven binary mixtures formed by ethylbenzene at 94.7 kPa
Source: J. Chem. Thermodyn., 2005, 10.1016/j.jct.2004.11.015
Compound 1: ethylbenzene, C8H10, InChI=1S/C8H10/c1-2-8-6-4-3-5-7-8/h3-7H,2H2,1H3
Compound 2: acetophenone, C8H8O, InChI=1S/C8H8O/c1-7(9)8-5-3-2-4-6-8/h2-6H,1H3
Compound 3: pentan-1-ol, C5H12O, InChI=1S/C5H12O/c1-2-3-4-5-6/h6H,2-5H2,1H3
Compound 4: acrylonitrile, C3H3N, InChI=1S/C3H3N/c1-2-3-4/h2H,1H2
Compound 5: 1-chloro-2,3-epoxypropane, C3H5ClO, InChI=1S/C3H5ClO/c4-1-3-2-5-3/h3H,1-2H2
Compound 6: N,N-dimethylethanamide, C4H9NO, InChI=1S/C4H9NO/c1-4(6)5(2)3/h1-3H3
Compound 7: 4-methylpentan-2-one, C6H12O, InChI=1S/C6H12O/c1-5(2)4-6(3)7/h5H,4H2,1-3H3
Compound 8: 2-methylpyridine, C6H7N, InChI=1S/C6H7N/c1-6-4-2-3-5-7-6/h2-5H,1H3

System: ethylbenzene; phases: Liquid
Property: Refractive index (Na D-line) (Liquid); method: ABBE:monoch
Temperature, K	Pressure, kPa	Refractive index (Na D-line)	uncertainty
298.15	101.325	1.4932	0.0007

System: ethylbenzene; phases: Liquid
Property: Mass density, kg/m3 (Liquid); method: PYCNOM:airbuoFPUFactor:4
Temperature, K	Pressure, kPa	Mass density, kg/m3	uncertainty
298.15	101.325	862.5	1.1

System: ethylbenzene; phases: Liquid, Gas
Property: Vapor or sublimation pressure, kPa (Liquid); method: EBULLIO:UFactor:64
Temperature, K	Vapor or sublimation pressure, kPa	uncertainty
407.05	94.7	9.6

System: acetophenone; phases: Liquid
Property: Refractive index (Na D-line) (Liquid); method: ABBE:monoch
Temperature, K	Pressure, kPa	Refractive index (Na D-line)	uncertainty
293.15	101.325	1.5342	0.0007

System: acetophenone; phases: Liquid
Property: Mass density, kg/m3 (Liquid); method: PYCNOM:airbuoUFactor:4
Temperature, K	Pressure, kPa	Mass density, kg/m3	uncertainty
293.15	101.325	1028.1	1.3

System: acetophenone; phases: Liquid, Gas
Property: Vapor or sublimation pressure, kPa (Liquid); method: EBULLIO:UFactor:64
Temperature, K	Vapor or sublimation pressure, kPa	uncertainty
472.25	94.7	9.6

System: pentan-1-ol; phases: Liquid
Property: Refractive index (Na D-line) (Liquid); method: ABBE:monoch
Temperature, K	Pressure, kPa	Refractive index (Na D-line)	uncertainty
298.15	101.325	1.4085	0.0007

System: pentan-1-ol; phases: Liquid
Property: Mass density, kg/m3 (Liquid); method: PYCNOM:airbuoUFactor:4
Temperature, K	Pressure, kPa	Mass density, kg/m3	uncertainty
298.15	101.325	815	1

System: pentan-1-ol; phases: Liquid, Gas
Property: Vapor or sublimation pressure, kPa (Liquid); method: EBULLIO:UFactor:64
Temperature, K	Vapor or sublimation pressure, kPa	uncertainty
400.15	94.7	9.6

System: acrylonitrile; phases: Liquid
Property: Refractive index (Na D-line) (Liquid); method: ABBE:monoch
Temperature, K	Pressure, kPa	Refractive index (Na D-line)	uncertainty
298.15	101.325	1.3888	0.0007

System: acrylonitrile; phases: Liquid
Property: Mass density, kg/m3 (Liquid); method: PYCNOM:airbuoUFactor:4
Temperature, K	Pressure, kPa	Mass density, kg/m3	uncertainty
298.15	101.325	800.4	1.3

System: acrylonitrile; phases: Liquid, Gas
Property: Vapor or sublimation pressure, kPa (Liquid); method: EBULLIO:UFactor:64
Temperature, K	Vapor or sublimation pressure, kPa	uncertainty
348.85	94.7	9.6

System: 1-chloro-2,3-epoxypropane; phases: Liquid
Property: Refractive index (Na D-line) (Liquid); method: ABBE:monoch
Temperature, K	Pressure, kPa	Refractive index (Na D-line)	uncertainty
298.15	101.325	1.4358	0.0007

System: 1-chloro-2,3-epoxypropane; phases: Liquid
Property: Mass density, kg/m3 (Liquid); method: PYCNOM:airbuo:UFactor:4
Temperature, K	Pressure, kPa	Mass density, kg/m3	uncertainty
298.15	101.325	1174.6	2

System: 1-chloro-2,3-epoxypropane; phases: Liquid, Gas
Property: Vapor or sublimation pressure, kPa (Liquid); method: EBULLIO:UFactor:64
Temperature, K	Vapor or sublimation pressure, kPa	uncertainty
389.15	94.7	9.6

System: N,N-dimethylethanamide; phases: Liquid
Property: Refractive index (Na D-line) (Liquid); method: ABBE:monoch
Temperature, K	Pressure, kPa	Refractive index (Na D-line)	uncertainty
298.15	101.325	1.4356	0.0007

System: N,N-dimethylethanamide; phases: Liquid
Property: Mass density, kg/m3 (Liquid); method: PYCNOM:airbuo:UFactor:4
Temperature, K	Pressure, kPa	Mass density, kg/m3	uncertainty
298.15	101.325	936.3	1.5

System: N,N-dimethylethanamide; phases: Liquid, Gas
Property: Vapor or sublimation pressure, kPa (Liquid); method: EBULLIO:UFactor:64
Temperature, K	Vapor or sublimation pressure, kPa	uncertainty
415.35	94.7	9.6

System: 4-methylpentan-2-one; phases: Liquid
Property: Refractive index (Na D-line) (Liquid); method: ABBE:monoch
Temperature, K	Pressure, kPa	Refractive index (Na D-line)	uncertainty
298.15	101.325	1.3936	0.0007

System: 4-methylpentan-2-one; phases: Liquid
Property: Mass density, kg/m3 (Liquid); method: PYCNOM:airbuo:UFactor:4
Temperature, K	Pressure, kPa	Mass density, kg/m3	uncertainty
298.15	101.325	796.3	1.2

System: 4-methylpentan-2-one; phases: Liquid, Gas
Property: Vapor or sublimation pressure, kPa (Liquid); method: EBULLIO:UFactor:64
Temperature, K	Vapor or sublimation pressure, kPa	uncertainty
387.15	94.7	9.6

System: 2-methylpyridine; phases: Liquid
Property: Refractive index (Na D-line) (Liquid); method: ABBE:monoch
Temperature, K	Pressure, kPa	Refractive index (Na D-line)	uncertainty
298.15	101.325	1.4984	0.0007

System: 2-methylpyridine; phases: Liquid
Property: Mass density, kg/m3 (Liquid); method: PYCNOM:airbuo:UFactor:4
Temperature, K	Pressure, kPa	Mass density, kg/m3	uncertainty
298.15	101.325	939.8	1.5

System: 2-methylpyridine; phases: Liquid, Gas
Property: Vapor or sublimation pressure, kPa (Liquid); method: EBULLIO:UFactor:64
Temperature, K	Vapor or sublimation pressure, kPa	uncertainty
398.05	94.7	9.6

System: acetophenone + ethylbenzene; phases: Liquid, Gas
Fixed: Pressure, kPa = 94.7
Property: Boiling temperature at pressure P, K (Liquid); method: EBULLIO:UFactor:64
Mole fraction of ethylbenzene	Boiling temperature at pressure P, K	uncertainty
0	472.25	2.63
0.1692	448.75	2.63
0.3221	436.15	2.63
0.4489	428.55	2.63
0.5965	421.45	2.63
0.7689	414.65	2.63
0.9301	409.15	2.63
1	407.05	2.63

System: pentan-1-ol + ethylbenzene; phases: Liquid, Gas
Fixed: Pressure, kPa = 94.7
Property: Boiling temperature at pressure P, K (Liquid); method: EBULLIO:UFactor:64
Mole fraction of pentan-1-ol	Boiling temperature at pressure P, K	uncertainty
0	407.05	2.63
0.1399	404.05	2.63
0.2889	401.45	2.63
0.4483	399.35	2.63
0.6143	397.85	2.63
0.7608	397.05	2.63
0.8884	397.25	2.63
1	400.15	2.63

System: ethylbenzene + acrylonitrile; phases: Liquid, Gas
Fixed: Pressure, kPa = 94.7
Property: Boiling temperature at pressure P, K (Liquid); method: EBULLIO:UFactor:64
Mole fraction of acrylonitrile	Boiling temperature at pressure P, K	uncertainty
0	407.05	2.63
0.1568	381.25	2.63
0.3111	369.75	2.63
0.4595	363.05	2.63
0.6194	357.95	2.63
0.7649	354.15	2.63
0.8987	350.55	2.63
1	348.85	2.63

System: ethylbenzene + 1-chloro-2,3-epoxypropane; phases: Liquid, Gas
Fixed: Pressure, kPa = 94.7
Property: Boiling temperature at pressure P, K (Liquid); method: EBULLIO:UFactor:64
Mole fraction of 1-chloro-2,3-epoxypropane	Boiling temperature at pressure P, K	uncertainty
0	407.05	2.63
0.1828	401.85	2.63
0.3586	398.05	2.63
0.439	396.45	2.63
0.61	393.65	2.63
0.7579	391.65	2.63
0.9164	389.75	2.63
1	389.15	2.63

System: ethylbenzene + N,N-dimethylethanamide; phases: Liquid, Gas
Fixed: Pressure, kPa = 94.7
Property: Boiling temperature at pressure P, K (Liquid); method: EBULLIO:UFactor:64
Mole fraction of ethylbenzene	Boiling temperature at pressure P, K	uncertainty
0	415.35	7.08
0.1595	406.35	7.08
0.3069	402.35	7.08
0.4513	400.65	7.08
0.6392	399.75	7.08
0.7798	399.95	7.08
0.914	401.65	7.08
1	407.05	7.08

System: ethylbenzene + 4-methylpentan-2-one; phases: Liquid, Gas
Fixed: Pressure, kPa = 94.7
Property: Boiling temperature at pressure P, K (Liquid); method: EBULLIO:UFactor:64
Mole fraction of 4-methylpentan-2-one	Boiling temperature at pressure P, K	uncertainty
0	407.05	2.63
0.1402	403.25	2.63
0.2898	399.15	2.63
0.4494	395.85	2.63
0.6037	392.75	2.63
0.7747	389.75	2.63
0.932	387.75	2.63
1	387.15	2.63

System: ethylbenzene + 2-methylpyridine; phases: Liquid, Gas
Fixed: Pressure, kPa = 94.7
Property: Boiling temperature at pressure P, K (Liquid); method: EBULLIO:UFactor:64
Mole fraction of 2-methylpyridine	Boiling temperature at pressure P, K	uncertainty
0	407.05	2.63
0.1504	404.55	2.63
0.3069	402.55	2.63
0.4435	401.25	2.63
0.5912	400.05	2.63
0.7431	399.05	2.63
0.8966	398.35	2.63
1	398.05	2.63
