Measured thermophysical data. Electrolytic conductivity of four imidazolium-based room-temperature ionic liquids and the effect of a water impurity
Source: J. Chem. Thermodyn., 2005, 10.1016/j.jct.2005.04.009
Compound 1: 1-ethyl-3-methylimidazolium bis((trifluoromethyl)sulfonyl)imide, C8H11F6N3O4S2, InChI=1S/C6H11N2.C2F6NO4S2/c1-3-8-5-4-7(2)6-8;3-1(4,5)14(10,11)9-15(12,13)2(6,7)8/h4-6H,3H2,1-2H3;/q+1;-1
Compound 2: 1-butyl-3-methylimidazolium bis(trifluoromethylsulfonyl)imide, C10H15F6N3O4S2, InChI=1S/C8H15N2.C2F6NO4S2/c1-3-4-5-10-7-6-9(2)8-10;3-1(4,5)14(10,11)9-15(12,13)2(6,7)8/h6-8H,3-5H2,1-2H3;/q+1;-1
Compound 3: 1-butyl-3-methylimidazolium hexafluorophosphate, C8H15F6N2P, InChI=1S/C8H15N2.F6P/c1-3-4-5-10-7-6-9(2)8-10;1-7(2,3,4,5)6/h6-8H,3-5H2,1-2H3;/q+1;-1
Compound 4: 1-hexyl-3-methylimidazolium bis[(trifluoromethyl)sulfonyl]imide, C12H19F6N3O4S2, InChI=1S/C10H19N2.C2F6NO4S2/c1-3-4-5-6-7-12-9-8-11(2)10-12;3-1(4,5)14(10,11)9-15(12,13)2(6,7)8/h8-10H,3-7H2,1-2H3;/q+1;-1
Compound 5: water, H2O, InChI=1S/H2O/h1H2

System: 1-ethyl-3-methylimidazolium bis((trifluoromethyl)sulfonyl)imide; phases: Liquid
Fixed: Pressure, kPa = 101.325
Property: Electrical conductivity, S/m (Liquid); method: Alternating current cell with electrodes
Temperature, K	Electrical conductivity, S/m	uncertainty
288.15	0.644	0.02
293.15	0.773	0.02
298.15	0.912	0.02
308.15	1.229	0.02
323.15	1.789	0.02

System: 1-butyl-3-methylimidazolium bis(trifluoromethylsulfonyl)imide; phases: Liquid
Fixed: Pressure, kPa = 101.325
Property: Electrical conductivity, S/m (Liquid); method: Alternating current cell with electrodes
Temperature, K	Electrical conductivity, S/m	uncertainty
288.15	0.265	0.02
293.15	0.331	0.02
298.15	0.406	0.02
308.15	0.585	0.02
323.15	0.924	0.02

System: 1-butyl-3-methylimidazolium hexafluorophosphate; phases: Liquid
Fixed: Pressure, kPa = 101.325
Property: Electrical conductivity, S/m (Liquid); method: Alternating current cell with electrodes
Temperature, K	Electrical conductivity, S/m	uncertainty
288.15	0.079	0.02
293.15	0.109	0.02
298.15	0.146	0.02
308.15	0.247	0.02
323.15	0.477	0.02

System: 1-hexyl-3-methylimidazolium bis[(trifluoromethyl)sulfonyl]imide; phases: Liquid
Fixed: Pressure, kPa = 101.325
Property: Electrical conductivity, S/m (Liquid); method: Alternating current cell with electrodes
Temperature, K	Electrical conductivity, S/m	uncertainty
288.15	0.135	0.02
293.15	0.173	0.02
298.15	0.218	0.02
308.15	0.327	0.02
323.15	0.546	0.02

System: water + 1-butyl-3-methylimidazolium bis(trifluoromethylsulfonyl)imide; phases: Liquid
Fixed: Pressure, kPa = 100
Property: Electrical conductivity, S/m (Liquid); method: Alternating current cell with electrodes
Mass fraction of water	Temperature, K	Electrical conductivity, S/m	uncertainty
1e-05	288.15	0.265	0.02
1e-05	293.15	0.331	0.02
1e-05	298.15	0.406	0.02
8e-05	288.15	0.266	0.02
8e-05	293.15	0.332	0.02
8e-05	298.15	0.408	0.02
0.00102	288.15	0.277	0.02
0.00102	293.15	0.345	0.02
0.00102	298.15	0.422	0.02
0.00885	288.15	0.365	0.021
0.00885	293.15	0.449	0.021
0.00885	298.15	0.542	0.022
