Measured thermophysical data. Thermodynamic and spectroscopic properties of binary mixtures of n-butylammonium butanoate ionic liquid with alcohols at T = (293.15-313.15) K
Source: J. Chem. Thermodyn., 2017, 10.1016/j.jct.2016.09.007
Compound 1: methanol, CH4O, InChI=1S/CH4O/c1-2/h2H,1H3, purity 99.9%
Compound 2: ethanol, C2H6O, InChI=1S/C2H6O/c1-2-3/h3H,2H2,1H3, purity 99.9%
Compound 3: propan-1-ol, C3H8O, InChI=1S/C3H8O/c1-2-3-4/h4H,2-3H2,1H3, purity 99%
Compound 4: butan-1-ol, C4H10O, InChI=1S/C4H10O/c1-2-3-4-5/h5H,2-4H2,1H3, purity 99.5%
Compound 5: pentan-1-ol, C5H12O, InChI=1S/C5H12O/c1-2-3-4-5-6/h6H,2-5H2,1H3, purity 99%
Compound 6: n-butylammonium butanoate, C8H19NO2, InChI=1S/C4H11N.C4H8O2/c1-2-3-4-5;1-2-3-4(5)6/h2-5H2,1H3;2-3H2,1H3,(H,5,6)

System: methanol; phases: Liquid
Fixed: Pressure, kPa = 93.2
Property: Mass density, kg/m3 (Liquid); method: Vibrating tube method
Temperature, K	Mass density, kg/m3	uncertainty
293.15	791.347	4.001
298.15	786.636	4.001
303.15	781.907	4.001
308.15	777.156	4.002
313.15	772.385	4.002

System: methanol; phases: Liquid
Fixed: Pressure, kPa = 93.2
Fixed: Frequency, MHz = 3
Property: Speed of sound, m/s (Liquid); method: Sing-around technique in a fixed-path interferometer
Temperature, K	Speed of sound, m/s	uncertainty
293.15	1119.13	5.23
298.15	1102.54	5.23
303.15	1086	5.23
308.15	1069.7	5.23
313.15	1053.57	5.23

System: ethanol; phases: Liquid
Fixed: Pressure, kPa = 93.2
Property: Mass density, kg/m3 (Liquid); method: Vibrating tube method
Temperature, K	Mass density, kg/m3	uncertainty
293.15	789.657	4.001
298.15	785.366	4.001
303.15	781.043	4.001
308.15	776.696	4.002
313.15	772.313	4.002

System: ethanol; phases: Liquid
Fixed: Pressure, kPa = 93.2
Fixed: Frequency, MHz = 3
Property: Speed of sound, m/s (Liquid); method: Sing-around technique in a fixed-path interferometer
Temperature, K	Speed of sound, m/s	uncertainty
293.15	1161	5.23
298.15	1143.81	5.23
303.15	1126.77	5.23
308.15	1109.87	5.23
313.15	1093.11	5.23

System: propan-1-ol; phases: Liquid
Fixed: Pressure, kPa = 93.2
Property: Mass density, kg/m3 (Liquid); method: Vibrating tube method
Temperature, K	Mass density, kg/m3	uncertainty
293.15	803.625	4.006
298.15	799.62	4.006
303.15	795.582	4.006
308.15	791.511	4.006
313.15	787.407	4.006

System: propan-1-ol; phases: Liquid
Fixed: Pressure, kPa = 93.2
Fixed: Frequency, MHz = 3
Property: Speed of sound, m/s (Liquid); method: Sing-around technique in a fixed-path interferometer
Temperature, K	Speed of sound, m/s	uncertainty
293.15	1223.12	5.33
298.15	1205.81	5.33
303.15	1188.64	5.33
308.15	1171.64	5.32
313.15	1154.88	5.32

System: butan-1-ol; phases: Liquid
Fixed: Pressure, kPa = 93.2
Property: Mass density, kg/m3 (Liquid); method: Vibrating tube method
Temperature, K	Mass density, kg/m3	uncertainty
293.15	809.523	4.002
298.15	805.71	4.002
303.15	801.872	4.002
308.15	798.004	4.002
313.15	794.103	4.002

System: butan-1-ol; phases: Liquid
Fixed: Pressure, kPa = 93.2
Fixed: Frequency, MHz = 3
Property: Speed of sound, m/s (Liquid); method: Sing-around technique in a fixed-path interferometer
Temperature, K	Speed of sound, m/s	uncertainty
293.15	1256.77	5.26
298.15	1239.72	5.26
303.15	1222.82	5.26
308.15	1206.06	5.26
313.15	1189.51	5.25

System: pentan-1-ol; phases: Liquid
Fixed: Pressure, kPa = 93.2
Property: Mass density, kg/m3 (Liquid); method: Vibrating tube method
Temperature, K	Mass density, kg/m3	uncertainty
293.15	814.807	4.006
298.15	811.144	4.006
303.15	807.455	4.006
308.15	803.736	4.006
313.15	799.99	4.006

System: pentan-1-ol; phases: Liquid
Fixed: Pressure, kPa = 93.2
Fixed: Frequency, MHz = 3
Property: Speed of sound, m/s (Liquid); method: Sing-around technique in a fixed-path interferometer
Temperature, K	Speed of sound, m/s	uncertainty
293.15	1292.76	5.33
298.15	1275.73	5.33
303.15	1258.85	5.33
308.15	1242.1	5.33
313.15	1225.53	5.33

System: n-butylammonium butanoate; phases: Liquid
Fixed: Pressure, kPa = 93.2
Property: Mass density, kg/m3 (Liquid); method: Vibrating tube method
Temperature, K	Mass density, kg/m3	uncertainty
293.15	928.794	4.001
298.15	925.509	4.001
303.15	922.217	4.001
308.15	918.88	4.001
313.15	915.567	4.001

System: n-butylammonium butanoate; phases: Liquid
Fixed: Pressure, kPa = 93.2
Fixed: Frequency, MHz = 3
Property: Speed of sound, m/s (Liquid); method: Sing-around technique in a fixed-path interferometer
Temperature, K	Speed of sound, m/s	uncertainty
293.15	1431.53	5.26
298.15	1410.35	5.26
303.15	1390.43	5.26
308.15	1371.45	5.26
313.15	1353.58	5.26

System: methanol + n-butylammonium butanoate; phases: Liquid
Fixed: Pressure, kPa = 93.2
Property: Mass density, kg/m3 (Liquid); method: Vibrating tube method
Temperature, K	Mole fraction of n-butylammonium butanoate	Mass density, kg/m3	uncertainty
293.15	0.0503	827.536	4.003
293.15	0.0999	850.303	4.002
293.15	0.1491	866.376	4.001
293.15	0.2011	878.773	4.001
293.15	0.2525	888.142	4.001
293.15	0.3057	895.564	4.001
293.15	0.3476	900.631	4.001
293.15	0.3966	905.316	4.001
293.15	0.4491	909.413	4.001
293.15	0.501	912.93	4.001
293.15	0.541	915.316	4.001
293.15	0.5913	917.715	4.001
293.15	0.6445	920.109	4.001
293.15	0.6895	921.905	4.001
293.15	0.7391	923.626	4.001
293.15	0.8007	925.47	4.001
293.15	0.8243	926.211	4.001
293.15	0.8973	927.898	4.001
293.15	0.932	928.804	4.001
298.15	0.0503	823.196	4.003
298.15	0.0999	846.198	4.002
298.15	0.1491	862.414	4.001
298.15	0.2011	874.958	4.001
298.15	0.2525	884.423	4.001
298.15	0.3057	891.923	4.001
298.15	0.3476	896.968	4.001
298.15	0.3966	901.759	4.001
298.15	0.4491	905.905	4.001
298.15	0.501	909.441	4.001
298.15	0.541	911.864	4.001
298.15	0.5913	914.276	4.001
298.15	0.6445	916.724	4.001
298.15	0.6895	918.523	4.001
298.15	0.7391	920.287	4.001
298.15	0.8007	922.166	4.001
298.15	0.8243	922.909	4.001
298.15	0.8973	924.584	4.001
298.15	0.932	925.491	4.001
303.15	0.0503	818.837	4.003
303.15	0.0999	842.076	4.002
303.15	0.1491	858.459	4.001
303.15	0.2011	871.116	4.001
303.15	0.2525	880.696	4.001
303.15	0.3057	888.274	4.001
303.15	0.3476	893.253	4.001
303.15	0.3966	898.192	4.001
303.15	0.4491	902.401	4.001
303.15	0.501	905.946	4.001
303.15	0.541	908.414	4.001
303.15	0.5913	910.846	4.001
303.15	0.6445	913.329	4.001
303.15	0.6895	915.128	4.001
303.15	0.7391	916.93	4.001
303.15	0.8007	918.855	4.001
303.15	0.8243	919.611	4.001
303.15	0.8973	921.292	4.001
303.15	0.932	922.195	4.001
308.15	0.0503	814.456	4.003
308.15	0.0999	837.934	4.002
308.15	0.1491	854.49	4.001
308.15	0.2011	867.265	4.001
308.15	0.2525	876.953	4.001
308.15	0.3057	884.609	4.001
308.15	0.3476	889.68	4.001
308.15	0.3966	894.632	4.001
308.15	0.4491	898.901	4.001
308.15	0.501	902.476	4.001
308.15	0.541	904.968	4.001
308.15	0.5913	907.442	4.001
308.15	0.6445	909.923	4.001
308.15	0.6895	911.737	4.001
308.15	0.7391	913.559	4.001
308.15	0.8007	915.534	4.001
308.15	0.8243	916.299	4.001
308.15	0.8973	918.007	4.001
308.15	0.932	918.913	4.001
313.15	0.0503	810.048	4.003
313.15	0.0999	833.767	4.002
313.15	0.1491	850.482	4.001
313.15	0.2011	863.431	4.001
313.15	0.2525	873.199	4.001
313.15	0.3057	880.93	4.001
313.15	0.3476	886.019	4.001
313.15	0.3966	891.1	4.001
313.15	0.4491	895.415	4.001
313.15	0.501	899.051	4.001
313.15	0.541	901.531	4.001
313.15	0.5913	904.079	4.001
313.15	0.6445	906.495	4.001
313.15	0.6895	908.371	4.001
313.15	0.7391	910.183	4.001
313.15	0.8007	912.194	4.001
313.15	0.8243	912.971	4.001
313.15	0.8973	914.707	4.001
313.15	0.932	915.625	4.001
293.15	1	928.794	4.001
298.15	1	925.509	4.001
303.15	1	922.217	4.001
308.15	1	918.88	4.001
313.15	1	915.567	4.001
293.15	0	791.347	4.001
298.15	0	786.636	4.001
303.15	0	781.907	4.001
308.15	0	777.156	4.002
313.15	0	772.385	4.002

System: methanol + n-butylammonium butanoate; phases: Liquid
Fixed: Pressure, kPa = 93.2
Fixed: Frequency, MHz = 3
Property: Speed of sound, m/s (Liquid); method: Sing-around technique in a fixed-path interferometer
Temperature, K	Mole fraction of n-butylammonium butanoate	Speed of sound, m/s	uncertainty
293.15	0.0503	1187.89	5.24
293.15	0.0999	1233.88	5.24
293.15	0.1491	1268.15	5.24
293.15	0.2011	1295.6	5.24
293.15	0.2525	1316.72	5.24
293.15	0.3057	1333.91	5.24
293.15	0.3476	1345.56	5.24
293.15	0.3966	1356.39	5.24
293.15	0.4491	1366.08	5.25
293.15	0.501	1374.44	5.25
293.15	0.541	1380.18	5.25
293.15	0.5913	1386.02	5.25
293.15	0.6445	1391.65	5.25
293.15	0.6895	1396.63	5.25
293.15	0.7391	1401.28	5.25
293.15	0.8007	1407.11	5.26
293.15	0.8243	1409.57	5.26
293.15	0.8973	1416.66	5.26
293.15	0.932	1420.33	5.26
298.15	0.0503	1171.54	5.24
298.15	0.0999	1217.61	5.24
298.15	0.1491	1251.94	5.24
298.15	0.2011	1279.39	5.24
298.15	0.2525	1300.51	5.24
298.15	0.3057	1317.75	5.24
298.15	0.3476	1329.33	5.24
298.15	0.3966	1340.12	5.24
298.15	0.4491	1349.73	5.24
298.15	0.501	1358.04	5.25
298.15	0.541	1363.71	5.25
298.15	0.5913	1369.44	5.25
298.15	0.6445	1374.94	5.25
298.15	0.6895	1379.77	5.25
298.15	0.7391	1384.15	5.25
298.15	0.8007	1389.54	5.26
298.15	0.8243	1391.8	5.26
298.15	0.8973	1398.04	5.26
298.15	0.932	1401.25	5.26
303.15	0.0503	1155.33	5.24
303.15	0.0999	1201.49	5.24
303.15	0.1491	1235.87	5.24
303.15	0.2011	1263.31	5.24
303.15	0.2525	1284.43	5.24
303.15	0.3057	1301.69	5.24
303.15	0.3476	1313.23	5.24
303.15	0.3966	1323.97	5.24
303.15	0.4491	1333.54	5.24
303.15	0.501	1341.8	5.25
303.15	0.541	1347.41	5.25
303.15	0.5913	1353.09	5.25
303.15	0.6445	1358.48	5.25
303.15	0.6895	1363.19	5.25
303.15	0.7391	1367.39	5.25
303.15	0.8007	1372.46	5.25
303.15	0.8243	1374.58	5.26
303.15	0.8973	1380.17	5.26
303.15	0.932	1383.02	5.26
308.15	0.0503	1139.27	5.24
308.15	0.0999	1185.49	5.23
308.15	0.1491	1219.92	5.24
308.15	0.2011	1247.36	5.24
308.15	0.2525	1268.47	5.24
308.15	0.3057	1285.78	5.24
308.15	0.3476	1297.23	5.24
308.15	0.3966	1307.95	5.24
308.15	0.4491	1317.49	5.24
308.15	0.501	1325.73	5.24
308.15	0.541	1331.28	5.25
308.15	0.5913	1336.94	5.25
308.15	0.6445	1342.26	5.25
308.15	0.6895	1346.88	5.25
308.15	0.7391	1350.94	5.25
308.15	0.8007	1355.77	5.25
308.15	0.8243	1357.79	5.26
308.15	0.8973	1362.92	5.26
308.15	0.932	1365.48	5.26
313.15	0.0503	1123.35	5.24
313.15	0.0999	1169.65	5.23
313.15	0.1491	1204.11	5.24
313.15	0.2011	1231.64	5.24
313.15	0.2525	1252.74	5.24
313.15	0.3057	1270.01	5.24
313.15	0.3476	1281.42	5.24
313.15	0.3966	1292.12	5.24
313.15	0.4491	1301.68	5.24
313.15	0.501	1309.95	5.24
313.15	0.541	1315.42	5.25
313.15	0.5913	1321.05	5.25
313.15	0.6445	1326.32	5.25
313.15	0.6895	1330.78	5.25
313.15	0.7391	1334.81	5.25
313.15	0.8007	1339.45	5.25
313.15	0.8243	1341.42	5.25
313.15	0.8973	1346.19	5.26
313.15	0.932	1348.53	5.26
293.15	1	1431.53	5.26
298.15	1	1410.35	5.26
303.15	1	1390.43	5.26
308.15	1	1371.45	5.26
313.15	1	1353.58	5.26
293.15	0	1119.13	5.23
298.15	0	1102.54	5.23
303.15	0	1086	5.23
308.15	0	1069.7	5.23
313.15	0	1053.57	5.23

System: ethanol + n-butylammonium butanoate; phases: Liquid
Fixed: Pressure, kPa = 93.2
Property: Mass density, kg/m3 (Liquid); method: Vibrating tube method
Temperature, K	Mole fraction of n-butylammonium butanoate	Mass density, kg/m3	uncertainty
293.15	0.0512	814.143	4.002
293.15	0.1009	832.02	4.002
293.15	0.1503	846.238	4.001
293.15	0.1994	858.208	4.001
293.15	0.2504	868.474	4.001
293.15	0.2982	876.405	4.001
293.15	0.3495	883.788	4.001
293.15	0.399	890.046	4.001
293.15	0.4372	894.397	4.001
293.15	0.4992	900.42	4.001
293.15	0.547	904.601	4.001
293.15	0.6017	908.757	4.001
293.15	0.649	912.071	4.001
293.15	0.6917	914.76	4.001
293.15	0.7436	917.782	4.001
293.15	0.7901	920.284	4.001
293.15	0.8493	923.093	4.001
293.15	0.8904	924.887	4.001
293.15	0.94	927.026	4.001
298.15	0.0512	810.002	4.002
298.15	0.1009	828.016	4.002
298.15	0.1503	842.335	4.001
298.15	0.1994	854.396	4.001
298.15	0.2504	864.721	4.001
298.15	0.2982	872.722	4.001
298.15	0.3495	880.151	4.001
298.15	0.399	886.464	4.001
298.15	0.4372	890.847	4.001
298.15	0.4992	896.912	4.001
298.15	0.547	901.123	4.001
298.15	0.6017	905.303	4.001
298.15	0.649	908.66	4.001
298.15	0.6917	911.378	4.001
298.15	0.7436	914.431	4.001
298.15	0.7901	916.95	4.001
298.15	0.8493	919.763	4.001
298.15	0.8904	921.547	4.001
298.15	0.94	923.73	4.001
303.15	0.0512	805.829	4.002
303.15	0.1009	823.986	4.002
303.15	0.1503	838.406	4.001
303.15	0.1994	850.551	4.001
303.15	0.2504	860.912	4.001
303.15	0.2982	869.017	4.001
303.15	0.3495	876.505	4.001
303.15	0.399	882.862	4.001
303.15	0.4372	887.284	4.001
303.15	0.4992	893.396	4.001
303.15	0.547	897.636	4.001
303.15	0.6017	901.834	4.001
303.15	0.649	905.237	4.001
303.15	0.6917	907.983	4.001
303.15	0.7436	911.071	4.001
303.15	0.7901	913.616	4.001
303.15	0.8493	916.446	4.001
303.15	0.8904	918.232	4.001
303.15	0.94	920.395	4.001
308.15	0.0512	801.613	4.002
308.15	0.1009	819.912	4.002
308.15	0.1503	834.444	4.001
308.15	0.1994	846.681	4.001
308.15	0.2504	857.053	4.001
308.15	0.2982	865.27	4.001
308.15	0.3495	872.836	4.001
308.15	0.399	879.217	4.001
308.15	0.4372	883.704	4.001
308.15	0.4992	889.863	4.001
308.15	0.547	894.139	4.001
308.15	0.6017	898.348	4.001
308.15	0.649	901.798	4.001
308.15	0.6917	904.574	4.001
308.15	0.7436	907.692	4.001
308.15	0.7901	910.264	4.001
308.15	0.8493	913.124	4.001
308.15	0.8904	914.921	4.001
308.15	0.94	917.09	4.001
313.15	0.0512	797.355	4.002
313.15	0.1009	815.802	4.002
313.15	0.1503	830.445	4.001
313.15	0.1994	842.738	4.001
313.15	0.2504	853.31	4.001
313.15	0.2982	861.491	4.001
313.15	0.3495	869.15	4.001
313.15	0.399	875.544	4.001
313.15	0.4372	880.105	4.001
313.15	0.4992	886.306	4.001
313.15	0.547	890.621	4.001
313.15	0.6017	894.849	4.001
313.15	0.649	898.346	4.001
313.15	0.6917	901.145	4.001
313.15	0.7436	904.29	4.001
313.15	0.7901	906.897	4.001
313.15	0.8493	909.786	4.001
313.15	0.8904	911.604	4.001
313.15	0.94	913.789	4.001
293.15	1	928.794	4.001
298.15	1	925.509	4.001
303.15	1	922.217	4.001
308.15	1	918.88	4.001
313.15	1	915.567	4.001
293.15	0	789.657	4.001
298.15	0	785.366	4.001
303.15	0	781.043	4.001
308.15	0	776.696	4.002
313.15	0	772.313	4.002

System: ethanol + n-butylammonium butanoate; phases: Liquid
Fixed: Pressure, kPa = 93.2
Fixed: Frequency, MHz = 3
Property: Speed of sound, m/s (Liquid); method: Sing-around technique in a fixed-path interferometer
Temperature, K	Mole fraction of n-butylammonium butanoate	Speed of sound, m/s	uncertainty
293.15	0.0512	1199.04	5.23
293.15	0.1009	1227.67	5.24
293.15	0.1503	1251.58	5.24
293.15	0.1994	1272.65	5.24
293.15	0.2504	1291.14	5.24
293.15	0.2982	1305.97	5.24
293.15	0.3495	1319.99	5.24
293.15	0.399	1332.16	5.24
293.15	0.4372	1340.73	5.24
293.15	0.4992	1352.83	5.25
293.15	0.547	1361.45	5.25
293.15	0.6017	1370.38	5.25
293.15	0.649	1377.6	5.25
293.15	0.6917	1383.98	5.25
293.15	0.7436	1391.45	5.25
293.15	0.7901	1398.15	5.26
293.15	0.8493	1406.46	5.26
293.15	0.8904	1412.45	5.26
293.15	0.94	1420.67	5.26
298.15	0.0512	1181.96	5.23
298.15	0.1009	1210.68	5.23
298.15	0.1503	1234.62	5.24
298.15	0.1994	1255.74	5.24
298.15	0.2504	1274.24	5.24
298.15	0.2982	1289.09	5.24
298.15	0.3495	1303.1	5.24
298.15	0.399	1315.29	5.24
298.15	0.4372	1323.84	5.24
298.15	0.4992	1335.92	5.25
298.15	0.547	1344.48	5.25
298.15	0.6017	1353.33	5.25
298.15	0.649	1360.45	5.25
298.15	0.6917	1366.67	5.25
298.15	0.7436	1373.87	5.25
298.15	0.7901	1380.23	5.26
298.15	0.8493	1387.99	5.26
298.15	0.8904	1393.46	5.26
298.15	0.94	1400.84	5.26
303.15	0.0512	1164.99	5.23
303.15	0.1009	1193.8	5.23
303.15	0.1503	1217.79	5.24
303.15	0.1994	1238.93	5.24
303.15	0.2504	1257.44	5.24
303.15	0.2982	1272.33	5.24
303.15	0.3495	1286.35	5.24
303.15	0.399	1298.54	5.24
303.15	0.4372	1307.1	5.24
303.15	0.4992	1319.19	5.24
303.15	0.547	1327.73	5.25
303.15	0.6017	1336.52	5.25
303.15	0.649	1343.57	5.25
303.15	0.6917	1349.69	5.25
303.15	0.7436	1356.7	5.25
303.15	0.7901	1362.85	5.25
303.15	0.8493	1370.16	5.26
303.15	0.8904	1375.24	5.26
303.15	0.94	1382	5.26
308.15	0.0512	1148.15	5.23
308.15	0.1009	1177.04	5.23
308.15	0.1503	1201.07	5.23
308.15	0.1994	1222.23	5.24
308.15	0.2504	1240.76	5.24
308.15	0.2982	1255.69	5.24
308.15	0.3495	1269.73	5.24
308.15	0.399	1281.95	5.24
308.15	0.4372	1290.52	5.24
308.15	0.4992	1302.61	5.24
308.15	0.547	1311.15	5.25
308.15	0.6017	1319.91	5.25
308.15	0.649	1326.94	5.25
308.15	0.6917	1333.01	5.25
308.15	0.7436	1339.88	5.25
308.15	0.7901	1345.89	5.25
308.15	0.8493	1352.89	5.26
308.15	0.8904	1357.69	5.26
308.15	0.94	1363.97	5.26
313.15	0.0512	1131.46	5.23
313.15	0.1009	1160.38	5.23
313.15	0.1503	1184.5	5.23
313.15	0.1994	1205.67	5.24
313.15	0.2504	1224.21	5.24
313.15	0.2982	1239.24	5.24
313.15	0.3495	1253.26	5.24
313.15	0.399	1265.54	5.24
313.15	0.4372	1274.08	5.24
313.15	0.4992	1286.25	5.24
313.15	0.547	1294.75	5.24
313.15	0.6017	1303.61	5.25
313.15	0.649	1310.59	5.25
313.15	0.6917	1316.59	5.25
313.15	0.7436	1323.37	5.25
313.15	0.7901	1329.34	5.25
313.15	0.8493	1336.15	5.26
313.15	0.8904	1340.72	5.26
313.15	0.94	1346.67	5.26
293.15	1	1431.53	5.26
298.15	1	1410.35	5.26
303.15	1	1390.43	5.26
308.15	1	1371.45	5.26
313.15	1	1353.58	5.26
293.15	0	1161	5.23
298.15	0	1143.81	5.23
303.15	0	1126.77	5.23
308.15	0	1109.87	5.23
313.15	0	1093.11	5.23

System: propan-1-ol + n-butylammonium butanoate; phases: Liquid
Fixed: Pressure, kPa = 93.2
Property: Mass density, kg/m3 (Liquid); method: Vibrating tube method
Temperature, K	Mole fraction of n-butylammonium butanoate	Mass density, kg/m3	uncertainty
293.15	0.0507	820.248	4.006
293.15	0.1012	834.054	4.005
293.15	0.1518	845.668	4.005
293.15	0.202	855.786	4.005
293.15	0.2517	864.424	4.004
293.15	0.3003	871.964	4.004
293.15	0.3334	876.626	4.004
293.15	0.401	885.2	4.003
293.15	0.4478	890.446	4.003
293.15	0.5001	895.864	4.003
293.15	0.5465	900.176	4.003
293.15	0.5992	904.688	4.002
293.15	0.6495	908.619	4.002
293.15	0.6928	911.76	4.002
293.15	0.7484	915.581	4.002
293.15	0.7906	918.267	4.002
293.15	0.8695	922.883	4.001
293.15	0.9443	926.755	4.001
298.15	0.0507	816.288	4.006
298.15	0.1012	830.162	4.005
298.15	0.1518	841.844	4.005
298.15	0.202	852.003	4.005
298.15	0.2517	860.713	4.004
298.15	0.3003	868.301	4.004
298.15	0.3334	872.985	4.004
298.15	0.401	881.621	4.003
298.15	0.4478	886.895	4.003
298.15	0.5001	892.351	4.003
298.15	0.5465	896.692	4.003
298.15	0.5992	901.241	4.002
298.15	0.6495	905.208	4.002
298.15	0.6928	908.377	4.002
298.15	0.7484	912.23	4.002
298.15	0.7906	914.932	4.002
298.15	0.8695	919.552	4.001
298.15	0.9443	923.441	4.001
303.15	0.0507	812.295	4.006
303.15	0.1012	826.227	4.005
303.15	0.1518	837.991	4.005
303.15	0.202	848.218	4.005
303.15	0.2517	856.978	4.004
303.15	0.3003	864.616	4.004
303.15	0.3334	869.329	4.004
303.15	0.401	878.022	4.003
303.15	0.4478	883.335	4.003
303.15	0.5001	888.828	4.003
303.15	0.5465	893.2	4.003
303.15	0.5992	897.78	4.002
303.15	0.6495	901.781	4.002
303.15	0.6928	904.977	4.002
303.15	0.7484	908.868	4.002
303.15	0.7906	911.595	4.002
303.15	0.8695	916.236	4.001
303.15	0.9443	920.127	4.001
308.15	0.0507	808.263	4.006
308.15	0.1012	822.265	4.005
308.15	0.1518	834.106	4.005
308.15	0.202	844.396	4.005
308.15	0.2517	853.215	4.004
308.15	0.3003	860.902	4.004
308.15	0.3334	865.652	4.004
308.15	0.401	874.402	4.003
308.15	0.4478	879.756	4.003
308.15	0.5001	885.287	4.003
308.15	0.5465	889.694	4.003
308.15	0.5992	894.304	4.002
308.15	0.6495	898.337	4.002
308.15	0.6928	901.561	4.002
308.15	0.7484	905.487	4.002
308.15	0.7906	908.238	4.002
308.15	0.8695	912.916	4.001
308.15	0.9443	916.826	4.001
313.15	0.0507	804.187	4.006
313.15	0.1012	818.288	4.005
313.15	0.1518	830.181	4.005
313.15	0.202	840.532	4.005
313.15	0.2517	849.411	4.004
313.15	0.3003	857.161	4.004
313.15	0.3334	861.938	4.004
313.15	0.401	870.759	4.003
313.15	0.4478	876.162	4.003
313.15	0.5001	881.725	4.003
313.15	0.5465	886.168	4.003
313.15	0.5992	890.806	4.002
313.15	0.6495	894.874	4.002
313.15	0.6928	898.121	4.002
313.15	0.7484	902.083	4.002
313.15	0.7906	904.859	4.002
313.15	0.8695	909.578	4.001
313.15	0.9443	913.524	4.001
293.15	1	928.794	4.001
298.15	1	925.509	4.001
303.15	1	922.217	4.001
308.15	1	918.88	4.001
313.15	1	915.567	4.001
293.15	0	803.625	4.006
298.15	0	799.62	4.006
303.15	0	795.582	4.006
308.15	0	791.511	4.006
313.15	0	787.407	4.006

System: propan-1-ol + n-butylammonium butanoate; phases: Liquid
Fixed: Pressure, kPa = 93.2
Fixed: Frequency, MHz = 3
Property: Speed of sound, m/s (Liquid); method: Sing-around technique in a fixed-path interferometer
Temperature, K	Mole fraction of n-butylammonium butanoate	Speed of sound, m/s	uncertainty
293.15	0.0507	1245.49	5.32
293.15	0.1012	1264.05	5.32
293.15	0.1518	1279.95	5.32
293.15	0.202	1294.25	5.31
293.15	0.2517	1306.66	5.31
293.15	0.3003	1317.9	5.3
293.15	0.3334	1324.95	5.3
293.15	0.401	1338.18	5.3
293.15	0.4478	1346.89	5.29
293.15	0.5001	1355.47	5.29
293.15	0.5465	1362.8	5.29
293.15	0.5992	1370.66	5.28
293.15	0.6495	1377.9	5.28
293.15	0.6928	1384.05	5.28
293.15	0.7484	1391.98	5.28
293.15	0.7906	1398.11	5.27
293.15	0.8695	1409.78	5.27
293.15	0.9443	1420.02	5.27
298.15	0.0507	1228.07	5.32
298.15	0.1012	1246.64	5.32
298.15	0.1518	1262.56	5.31
298.15	0.202	1276.9	5.31
298.15	0.2517	1289.33	5.31
298.15	0.3003	1300.6	5.3
298.15	0.3334	1307.69	5.3
298.15	0.401	1320.95	5.3
298.15	0.4478	1329.67	5.29
298.15	0.5001	1338.26	5.29
298.15	0.5465	1345.56	5.29
298.15	0.5992	1353.39	5.28
298.15	0.6495	1360.54	5.28
298.15	0.6928	1366.55	5.28
298.15	0.7484	1374.25	5.28
298.15	0.7906	1380.09	5.27
298.15	0.8695	1391.17	5.27
298.15	0.9443	1400.57	5.27
303.15	0.0507	1210.79	5.32
303.15	0.1012	1229.37	5.32
303.15	0.1518	1245.31	5.31
303.15	0.202	1259.68	5.31
303.15	0.2517	1272.13	5.31
303.15	0.3003	1283.44	5.3
303.15	0.3334	1290.56	5.3
303.15	0.401	1303.87	5.3
303.15	0.4478	1312.61	5.29
303.15	0.5001	1321.25	5.29
303.15	0.5465	1328.55	5.29
303.15	0.5992	1336.37	5.28
303.15	0.6495	1343.46	5.28
303.15	0.6928	1349.4	5.28
303.15	0.7484	1356.93	5.27
303.15	0.7906	1362.61	5.27
303.15	0.8695	1373.26	5.27
303.15	0.9443	1382.01	5.27
308.15	0.0507	1193.64	5.32
308.15	0.1012	1212.21	5.32
308.15	0.1518	1228.17	5.31
308.15	0.202	1242.58	5.31
308.15	0.2517	1255.05	5.31
308.15	0.3003	1266.4	5.3
308.15	0.3334	1273.56	5.3
308.15	0.401	1286.92	5.3
308.15	0.4478	1295.7	5.29
308.15	0.5001	1304.41	5.29
308.15	0.5465	1311.73	5.29
308.15	0.5992	1319.57	5.28
308.15	0.6495	1326.64	5.28
308.15	0.6928	1332.54	5.28
308.15	0.7484	1340	5.27
308.15	0.7906	1345.56	5.27
308.15	0.8695	1355.89	5.27
308.15	0.9443	1364.19	5.26
313.15	0.0507	1176.66	5.32
313.15	0.1012	1195.19	5.32
313.15	0.1518	1211.19	5.31
313.15	0.202	1225.62	5.31
313.15	0.2517	1238.2	5.31
313.15	0.3003	1249.53	5.3
313.15	0.3334	1256.74	5.3
313.15	0.401	1270.16	5.29
313.15	0.4478	1279.04	5.29
313.15	0.5001	1287.78	5.29
313.15	0.5465	1295.14	5.29
313.15	0.5992	1303.01	5.28
313.15	0.6495	1310.08	5.28
313.15	0.6928	1315.99	5.28
313.15	0.7484	1323.42	5.27
313.15	0.7906	1328.89	5.27
313.15	0.8695	1339.01	5.27
313.15	0.9443	1347	5.26
293.15	1	1431.53	5.26
298.15	1	1410.35	5.26
303.15	1	1390.43	5.26
308.15	1	1371.45	5.26
313.15	1	1353.58	5.26
293.15	0	1223.12	5.33
298.15	0	1205.81	5.33
303.15	0	1188.64	5.33
308.15	0	1171.64	5.32
313.15	0	1154.88	5.32

System: butan-1-ol + n-butylammonium butanoate; phases: Liquid
Fixed: Pressure, kPa = 93.2
Property: Mass density, kg/m3 (Liquid); method: Vibrating tube method
Temperature, K	Mole fraction of n-butylammonium butanoate	Mass density, kg/m3	uncertainty
293.15	0.0305	817.522	4.002
293.15	0.053	822.696	4.002
293.15	0.101	833.099	4.002
293.15	0.1611	844.531	4.002
293.15	0.2022	851.656	4.002
293.15	0.2509	859.278	4.002
293.15	0.3027	866.842	4.002
293.15	0.3528	873.375	4.002
293.15	0.4053	879.699	4.001
293.15	0.449	884.611	4.001
293.15	0.4988	889.855	4.001
293.15	0.5505	894.968	4.001
293.15	0.6005	899.486	4.001
293.15	0.6491	903.634	4.001
293.15	0.6982	907.626	4.001
293.15	0.7456	911.277	4.001
293.15	0.7944	914.718	4.001
293.15	0.8462	918.325	4.001
293.15	0.8928	921.358	4.001
293.15	0.9463	924.512	4.001
298.15	0.0305	813.696	4.002
298.15	0.053	818.886	4.002
298.15	0.101	829.318	4.002
298.15	0.1611	840.793	4.002
298.15	0.2022	847.949	4.002
298.15	0.2509	855.605	4.002
298.15	0.3027	863.204	4.002
298.15	0.3528	869.771	4.002
298.15	0.4053	876.13	4.002
298.15	0.449	881.064	4.001
298.15	0.4988	886.337	4.001
298.15	0.5505	891.475	4.001
298.15	0.6005	896.02	4.001
298.15	0.6491	900.198	4.001
298.15	0.6982	904.22	4.001
298.15	0.7456	907.896	4.001
298.15	0.7944	911.354	4.001
298.15	0.8462	914.961	4.001
298.15	0.8928	917.984	4.001
298.15	0.9463	921.173	4.001
303.15	0.0305	809.839	4.002
303.15	0.053	815.044	4.002
303.15	0.101	825.508	4.002
303.15	0.1611	837.028	4.002
303.15	0.2022	844.213	4.002
303.15	0.2509	851.908	4.002
303.15	0.3027	859.543	4.002
303.15	0.3528	866.147	4.002
303.15	0.4053	872.54	4.002
303.15	0.449	877.503	4.001
303.15	0.4988	882.803	4.001
303.15	0.5505	887.969	4.001
303.15	0.6005	892.541	4.001
303.15	0.6491	896.744	4.001
303.15	0.6982	900.798	4.001
303.15	0.7456	904.501	4.001
303.15	0.7944	907.982	4.001
303.15	0.8462	911.608	4.001
303.15	0.8928	914.632	4.001
303.15	0.9463	917.809	4.001
308.15	0.0305	805.95	4.002
308.15	0.053	811.168	4.002
308.15	0.101	821.665	4.002
308.15	0.1611	833.231	4.002
308.15	0.2022	840.451	4.002
308.15	0.2509	848.183	4.002
308.15	0.3027	855.853	4.002
308.15	0.3528	862.502	4.002
308.15	0.4053	868.931	4.002
308.15	0.449	873.925	4.002
308.15	0.4988	879.25	4.001
308.15	0.5505	884.447	4.001
308.15	0.6005	889.046	4.001
308.15	0.6491	893.273	4.001
308.15	0.6982	897.354	4.001
308.15	0.7456	901.087	4.001
308.15	0.7944	904.593	4.001
308.15	0.8462	908.243	4.001
308.15	0.8928	911.284	4.001
308.15	0.9463	914.461	4.001
313.15	0.0305	802.02	4.002
313.15	0.053	807.257	4.002
313.15	0.101	817.785	4.002
313.15	0.1611	829.399	4.002
313.15	0.2022	836.653	4.002
313.15	0.2509	844.427	4.002
313.15	0.3027	852.119	4.002
313.15	0.3528	858.829	4.002
313.15	0.4053	865.297	4.002
313.15	0.449	870.321	4.002
313.15	0.4988	875.67	4.002
313.15	0.5505	880.9	4.001
313.15	0.6005	885.533	4.001
313.15	0.6491	889.785	4.001
313.15	0.6982	893.894	4.001
313.15	0.7456	897.65	4.001
313.15	0.7944	901.177	4.001
313.15	0.8462	904.86	4.001
313.15	0.8928	907.92	4.001
313.15	0.9463	911.112	4.001
293.15	1	928.794	4.001
298.15	1	925.509	4.001
303.15	1	922.217	4.001
308.15	1	918.88	4.001
313.15	1	915.567	4.001
293.15	0	809.523	4.002
298.15	0	805.71	4.002
303.15	0	801.872	4.002
308.15	0	798.004	4.002
313.15	0	794.103	4.002

System: butan-1-ol + n-butylammonium butanoate; phases: Liquid
Fixed: Pressure, kPa = 93.2
Fixed: Frequency, MHz = 3
Property: Speed of sound, m/s (Liquid); method: Sing-around technique in a fixed-path interferometer
Temperature, K	Mole fraction of n-butylammonium butanoate	Speed of sound, m/s	uncertainty
293.15	0.0305	1266.23	5.26
293.15	0.053	1271.72	5.26
293.15	0.101	1283.29	5.26
293.15	0.1611	1296.31	5.26
293.15	0.2022	1304.76	5.26
293.15	0.2509	1314.03	5.26
293.15	0.3027	1323.62	5.26
293.15	0.3528	1332.29	5.26
293.15	0.4053	1340.81	5.26
293.15	0.449	1347.7	5.26
293.15	0.4988	1355.37	5.26
293.15	0.5505	1363.18	5.26
293.15	0.6005	1370.38	5.26
293.15	0.6491	1377.36	5.26
293.15	0.6982	1384.52	5.26
293.15	0.7456	1391.52	5.26
293.15	0.7944	1398.69	5.26
293.15	0.8462	1406.67	5.26
293.15	0.8928	1414.19	5.26
293.15	0.9463	1422.7	5.26
298.15	0.0305	1249.07	5.26
298.15	0.053	1254.51	5.26
298.15	0.101	1266.02	5.26
298.15	0.1611	1279	5.26
298.15	0.2022	1287.46	5.26
298.15	0.2509	1296.72	5.26
298.15	0.3027	1306.33	5.26
298.15	0.3528	1315.02	5.26
298.15	0.4053	1323.54	5.26
298.15	0.449	1330.47	5.26
298.15	0.4988	1338.1	5.26
298.15	0.5505	1345.88	5.26
298.15	0.6005	1352.98	5.26
298.15	0.6491	1359.89	5.26
298.15	0.6982	1366.86	5.26
298.15	0.7456	1373.65	5.26
298.15	0.7944	1380.48	5.26
298.15	0.8462	1388	5.26
298.15	0.8928	1394.94	5.26
298.15	0.9463	1402.69	5.26
303.15	0.0305	1232.04	5.26
303.15	0.053	1237.44	5.26
303.15	0.101	1248.87	5.26
303.15	0.1611	1261.82	5.26
303.15	0.2022	1270.27	5.26
303.15	0.2509	1279.53	5.26
303.15	0.3027	1289.17	5.26
303.15	0.3528	1297.91	5.26
303.15	0.4053	1306.44	5.26
303.15	0.449	1313.35	5.26
303.15	0.4988	1321.02	5.26
303.15	0.5505	1328.79	5.26
303.15	0.6005	1335.88	5.26
303.15	0.6491	1342.71	5.26
303.15	0.6982	1349.58	5.26
303.15	0.7456	1356.2	5.26
303.15	0.7944	1362.81	5.26
303.15	0.8462	1369.96	5.26
303.15	0.8928	1376.48	5.26
303.15	0.9463	1383.71	5.26
308.15	0.0305	1215.15	5.26
308.15	0.053	1220.49	5.26
308.15	0.101	1231.86	5.26
308.15	0.1611	1244.77	5.26
308.15	0.2022	1253.21	5.26
308.15	0.2509	1262.48	5.26
308.15	0.3027	1272.14	5.26
308.15	0.3528	1280.92	5.26
308.15	0.4053	1289.49	5.26
308.15	0.449	1296.4	5.26
308.15	0.4988	1304.11	5.26
308.15	0.5505	1311.89	5.26
308.15	0.6005	1318.97	5.26
308.15	0.6491	1325.78	5.26
308.15	0.6982	1332.57	5.26
308.15	0.7456	1339.1	5.26
308.15	0.7944	1345.55	5.26
308.15	0.8462	1352.47	5.26
308.15	0.8928	1358.69	5.26
308.15	0.9463	1365.52	5.26
313.15	0.0305	1198.4	5.26
313.15	0.053	1203.77	5.26
313.15	0.101	1215.04	5.26
313.15	0.1611	1227.86	5.26
313.15	0.2022	1236.29	5.26
313.15	0.2509	1245.58	5.26
313.15	0.3027	1255.34	5.26
313.15	0.3528	1264.09	5.26
313.15	0.4053	1272.72	5.26
313.15	0.449	1279.65	5.26
313.15	0.4988	1287.42	5.26
313.15	0.5505	1295.15	5.26
313.15	0.6005	1302.3	5.26
313.15	0.6491	1309.11	5.26
313.15	0.6982	1315.98	5.26
313.15	0.7456	1322.32	5.26
313.15	0.7944	1328.67	5.26
313.15	0.8462	1335.47	5.26
313.15	0.8928	1341.46	5.26
313.15	0.9463	1347.99	5.26
293.15	1	1431.53	5.26
298.15	1	1410.35	5.26
303.15	1	1390.43	5.26
308.15	1	1371.45	5.26
313.15	1	1353.58	5.26
293.15	0	1256.77	5.26
298.15	0	1239.72	5.26
303.15	0	1222.82	5.26
308.15	0	1206.06	5.26
313.15	0	1189.51	5.25

System: pentan-1-ol + n-butylammonium butanoate; phases: Liquid
Fixed: Pressure, kPa = 93.2
Property: Mass density, kg/m3 (Liquid); method: Vibrating tube method
Temperature, K	Mole fraction of n-butylammonium butanoate	Mass density, kg/m3	uncertainty
293.15	0.0504	824.946	4.006
293.15	0.1004	834.049	4.005
293.15	0.1491	842.19	4.005
293.15	0.2025	850.502	4.004
293.15	0.2513	857.492	4.004
293.15	0.3007	864.133	4.004
293.15	0.3506	870.527	4.004
293.15	0.4003	876.48	4.003
293.15	0.4485	881.984	4.003
293.15	0.4981	887.228	4.003
293.15	0.549	892.419	4.003
293.15	0.5979	897.108	4.002
293.15	0.6483	901.8	4.002
293.15	0.6971	906.089	4.002
293.15	0.7444	910.065	4.002
293.15	0.7997	914.585	4.002
293.15	0.8466	918.226	4.001
293.15	0.901	922.256	4.001
293.15	0.9495	925.7	4.001
298.15	0.0504	821.27	4.006
298.15	0.1004	830.391	4.005
298.15	0.1491	838.55	4.005
298.15	0.2025	846.885	4.005
298.15	0.2513	853.902	4.004
298.15	0.3007	860.568	4.004
298.15	0.3506	866.989	4.004
298.15	0.4003	872.967	4.003
298.15	0.4485	878.492	4.003
298.15	0.4981	883.761	4.003
298.15	0.549	888.971	4.003
298.15	0.5979	893.686	4.002
298.15	0.6483	898.401	4.002
298.15	0.6971	902.72	4.002
298.15	0.7444	906.721	4.002
298.15	0.7997	911.263	4.002
298.15	0.8466	914.903	4.002
298.15	0.901	918.92	4.001
298.15	0.9495	922.407	4.001
303.15	0.0504	817.568	4.006
303.15	0.1004	826.701	4.005
303.15	0.1491	834.886	4.005
303.15	0.2025	843.247	4.005
303.15	0.2513	850.29	4.004
303.15	0.3007	856.983	4.004
303.15	0.3506	863.432	4.004
303.15	0.4003	869.437	4.003
303.15	0.4485	874.989	4.003
303.15	0.4981	880.283	4.003
303.15	0.549	885.516	4.003
303.15	0.5979	890.251	4.002
303.15	0.6483	894.993	4.002
303.15	0.6971	899.338	4.002
303.15	0.7444	903.359	4.002
303.15	0.7997	907.929	4.002
303.15	0.8466	911.586	4.002
303.15	0.901	915.606	4.001
303.15	0.9495	919.075	4.001
308.15	0.0504	813.834	4.006
308.15	0.1004	822.985	4.005
308.15	0.1491	831.191	4.005
308.15	0.2025	839.579	4.005
308.15	0.2513	846.65	4.004
308.15	0.3007	853.372	4.004
308.15	0.3506	859.854	4.004
308.15	0.4003	865.888	4.003
308.15	0.4485	871.466	4.003
308.15	0.4981	876.786	4.003
308.15	0.549	882.044	4.003
308.15	0.5979	886.802	4.002
308.15	0.6483	891.566	4.002
308.15	0.6971	895.935	4.002
308.15	0.7444	899.982	4.002
308.15	0.7997	904.583	4.002
308.15	0.8466	908.265	4.002
308.15	0.901	912.298	4.001
308.15	0.9495	915.767	4.001
313.15	0.0504	810.063	4.006
313.15	0.1004	819.232	4.005
313.15	0.1491	827.462	4.005
313.15	0.2025	835.881	4.005
313.15	0.2513	842.977	4.004
313.15	0.3007	849.736	4.004
313.15	0.3506	856.248	4.004
313.15	0.4003	862.315	4.003
313.15	0.4485	867.921	4.003
313.15	0.4981	873.27	4.003
313.15	0.549	878.557	4.003
313.15	0.5979	883.336	4.002
313.15	0.6483	888.123	4.002
313.15	0.6971	892.514	4.002
313.15	0.7444	896.583	4.002
313.15	0.7997	901.213	4.002
313.15	0.8466	904.921	4.002
313.15	0.901	908.979	4.001
313.15	0.9495	912.465	4.001
293.15	1	928.794	4.001
298.15	1	925.509	4.001
303.15	1	922.217	4.001
308.15	1	918.88	4.001
313.15	1	915.567	4.001
293.15	0	814.807	4.006
298.15	0	811.144	4.006
303.15	0	807.455	4.006
308.15	0	803.736	4.006
313.15	0	799.99	4.006

System: pentan-1-ol + n-butylammonium butanoate; phases: Liquid
Fixed: Pressure, kPa = 93.2
Fixed: Frequency, MHz = 3
Property: Speed of sound, m/s (Liquid); method: Sing-around technique in a fixed-path interferometer
Temperature, K	Mole fraction of n-butylammonium butanoate	Speed of sound, m/s	uncertainty
293.15	0.0504	1301.46	5.33
293.15	0.1004	1308.83	5.32
293.15	0.1491	1315.48	5.32
293.15	0.2025	1322.58	5.31
293.15	0.2513	1328.81	5.31
293.15	0.3007	1335	5.31
293.15	0.3506	1341.31	5.3
293.15	0.4003	1347.47	5.3
293.15	0.4485	1353.34	5.29
293.15	0.4981	1359.24	5.29
293.15	0.549	1365.42	5.29
293.15	0.5979	1371.28	5.28
293.15	0.6483	1377.61	5.28
293.15	0.6971	1383.83	5.28
293.15	0.7444	1389.83	5.28
293.15	0.7997	1397.4	5.27
293.15	0.8466	1404.37	5.27
293.15	0.901	1413.01	5.27
293.15	0.9495	1421.08	5.27
298.15	0.0504	1284.32	5.32
298.15	0.1004	1291.63	5.32
298.15	0.1491	1298.25	5.32
298.15	0.2025	1305.34	5.31
298.15	0.2513	1311.56	5.31
298.15	0.3007	1317.78	5.3
298.15	0.3506	1324.12	5.3
298.15	0.4003	1330.32	5.3
298.15	0.4485	1336.19	5.29
298.15	0.4981	1342.1	5.29
298.15	0.549	1348.25	5.29
298.15	0.5979	1354.06	5.28
298.15	0.6483	1360.3	5.28
298.15	0.6971	1366.39	5.28
298.15	0.7444	1372.23	5.28
298.15	0.7997	1379.46	5.27
298.15	0.8466	1385.98	5.27
298.15	0.901	1393.95	5.27
298.15	0.9495	1401.29	5.27
303.15	0.0504	1267.3	5.32
303.15	0.1004	1274.56	5.32
303.15	0.1491	1281.15	5.32
303.15	0.2025	1288.23	5.31
303.15	0.2513	1294.45	5.31
303.15	0.3007	1300.68	5.3
303.15	0.3506	1307.07	5.3
303.15	0.4003	1313.3	5.3
303.15	0.4485	1319.21	5.29
303.15	0.4981	1325.13	5.29
303.15	0.549	1331.29	5.29
303.15	0.5979	1337.08	5.28
303.15	0.6483	1343.28	5.28
303.15	0.6971	1349.28	5.28
303.15	0.7444	1355.02	5.27
303.15	0.7997	1362.04	5.27
303.15	0.8466	1368.2	5.27
303.15	0.901	1375.66	5.27
303.15	0.9495	1382.45	5.26
308.15	0.0504	1250.42	5.32
308.15	0.1004	1257.63	5.32
308.15	0.1491	1264.17	5.31
308.15	0.2025	1271.25	5.31
308.15	0.2513	1277.46	5.31
308.15	0.3007	1283.73	5.3
308.15	0.3506	1290.16	5.3
308.15	0.4003	1296.44	5.3
308.15	0.4485	1302.37	5.29
308.15	0.4981	1308.34	5.29
308.15	0.549	1314.51	5.29
308.15	0.5979	1320.32	5.28
308.15	0.6483	1326.51	5.28
308.15	0.6971	1332.45	5.28
308.15	0.7444	1338.13	5.27
308.15	0.7997	1345.01	5.27
308.15	0.8466	1350.92	5.27
308.15	0.901	1358.04	5.27
308.15	0.9495	1364.4	5.26
313.15	0.0504	1233.7	5.32
313.15	0.1004	1240.86	5.32
313.15	0.1491	1247.39	5.31
313.15	0.2025	1254.43	5.31
313.15	0.2513	1260.65	5.31
313.15	0.3007	1266.97	5.3
313.15	0.3506	1273.41	5.3
313.15	0.4003	1279.75	5.3
313.15	0.4485	1285.7	5.29
313.15	0.4981	1291.76	5.29
313.15	0.549	1297.95	5.29
313.15	0.5979	1303.79	5.28
313.15	0.6483	1310.05	5.28
313.15	0.6971	1315.93	5.28
313.15	0.7444	1321.56	5.27
313.15	0.7997	1328.34	5.27
313.15	0.8466	1334.12	5.27
313.15	0.901	1340.99	5.27
313.15	0.9495	1347.04	5.26
293.15	1	1431.53	5.26
298.15	1	1410.35	5.26
303.15	1	1390.43	5.26
308.15	1	1371.45	5.26
313.15	1	1353.58	5.26
293.15	0	1292.76	5.33
298.15	0	1275.73	5.33
303.15	0	1258.85	5.33
308.15	0	1242.1	5.33
313.15	0	1225.53	5.33
