Measured thermophysical data. Physicochemical properties of two 1-alkyl-1-methylpyrrolidinium bis[(trifluoromethyl)sulfonyl]imide ionic liquids and of binary mixtures of 1-butyl-1-methylpyrrolidinium bis[(trifluoromethyl)sulfonyl]imide with methanol or acetonitrile
Source: J. Chem. Thermodyn., 2014, 10.1016/j.jct.2013.12.009
Compound 1: 1-methyl-1-propylpyrrolidinium bis[(trifluoromethyl)sulfonyl]imide, C10H18F6N2O4S2, InChI=1S/C8H18N.C2F6NO4S2/c1-3-6-9(2)7-4-5-8-9;3-1(4,5)14(10,11)9-15(12,13)2(6,7)8/h3-8H2,1-2H3;/q+1;-1
Compound 2: 1-butyl-1-methylpyrrolidinium bis[(trifluoromethyl)sulfonyl]imide, C11H20F6N2O4S2, InChI=1S/C9H20N.C2F6NO4S2/c1-3-4-7-10(2)8-5-6-9-10;3-1(4,5)14(10,11)9-15(12,13)2(6,7)8/h3-9H2,1-2H3;/q+1;-1
Compound 3: acetonitrile, C2H3N, InChI=1S/C2H3N/c1-2-3/h1H3
Compound 4: methanol, CH4O, InChI=1S/CH4O/c1-2/h2H,1H3

System: 1-methyl-1-propylpyrrolidinium bis[(trifluoromethyl)sulfonyl]imide; phases: Liquid
Fixed: Pressure, kPa = 101.325
Property: Mass density, kg/m3 (Liquid); method: Vibrating tube method
Temperature, K	Mass density, kg/m3	uncertainty
288.15	1436.86	0.61
293.15	1432.36	0.61
298.15	1427.83	0.61
303.15	1423.32	0.6
308.15	1418.81	0.6
313.15	1414.3	0.59
318.15	1409.86	0.59
323.15	1405.41	0.58

System: 1-methyl-1-propylpyrrolidinium bis[(trifluoromethyl)sulfonyl]imide; phases: Liquid, Air at 1 atmosphere
Property: Surface tension liquid-gas, N/m (Liquid); method: Pendant drop shape
Temperature, K	Surface tension liquid-gas, N/m	uncertainty
288.15	0.03504	0.00041
293.15	0.03487	0.00041
298.15	0.03461	0.00041
303.15	0.03437	0.00041
308.15	0.03414	0.00041
313.15	0.03394	0.00041
318.15	0.03372	0.00041
323.15	0.03348	0.0004

System: 1-methyl-1-propylpyrrolidinium bis[(trifluoromethyl)sulfonyl]imide; phases: Liquid
Fixed: Pressure, kPa = 101.325
Property: Kinematic viscosity, m2/s (Liquid); method: Capillary tube (Ostwald; Ubbelohde) method
Temperature, K	Kinematic viscosity, m2/s	uncertainty
288.15	6.816e-05	1.56e-06
293.15	5.325e-05	1.21e-06
298.15	4.26e-05	9.7e-07
303.15	3.484e-05	7.8e-07
308.15	2.883e-05	6.4e-07
313.15	2.422e-05	5.3e-07
318.15	2.057e-05	4.5e-07
323.15	1.765e-05	3.9e-07

System: 1-methyl-1-propylpyrrolidinium bis[(trifluoromethyl)sulfonyl]imide; phases: Liquid
Fixed: Pressure, kPa = 101.325
Property: Speed of sound, m/s (Liquid); method: Sing-around technique in a fixed-path interferometer
Temperature, K	Speed of sound, m/s	uncertainty
288.01	1294.44	1.54
293.01	1282.77	1.54
297.99	1271.34	1.54
303.24	1259.53	1.53
308.21	1248.56	1.53
313.2	1237.63	1.53
318.16	1226.94	1.53
323.21	1216.22	1.53

System: 1-butyl-1-methylpyrrolidinium bis[(trifluoromethyl)sulfonyl]imide; phases: Liquid
Fixed: Pressure, kPa = 101.325
Property: Mass density, kg/m3 (Liquid); method: Vibrating tube method
Temperature, K	Mass density, kg/m3	uncertainty
288.15	1403.37	0.58
293.15	1398.92	0.58
298.15	1394.49	0.57
303.15	1390.09	0.57
308.15	1385.66	0.57
313.15	1381.29	0.56
318.15	1376.92	0.56
323.15	1372.54	0.55

System: 1-butyl-1-methylpyrrolidinium bis[(trifluoromethyl)sulfonyl]imide; phases: Liquid, Air at 1 atmosphere
Property: Surface tension liquid-gas, N/m (Liquid); method: Pendant drop shape
Temperature, K	Surface tension liquid-gas, N/m	uncertainty
288.15	0.03371	0.00041
293.15	0.03344	0.0004
298.15	0.03322	0.0004
303.15	0.03302	0.0004
308.15	0.03282	0.0004
313.15	0.0326	0.0004
318.15	0.03235	0.00039
323.15	0.03215	0.00039

System: 1-butyl-1-methylpyrrolidinium bis[(trifluoromethyl)sulfonyl]imide; phases: Liquid
Fixed: Pressure, kPa = 101.325
Property: Kinematic viscosity, m2/s (Liquid); method: Capillary tube (Ostwald; Ubbelohde) method
Temperature, K	Kinematic viscosity, m2/s	uncertainty
288.15	8.904e-05	2.15e-06
293.15	6.959e-05	1.62e-06
298.15	5.571e-05	1.25e-06
303.15	4.523e-05	1.02e-06
308.15	3.693e-05	8.3e-07
313.15	3.063e-05	6.8e-07
318.15	2.553e-05	5.7e-07
323.15	2.154e-05	4.8e-07

System: 1-butyl-1-methylpyrrolidinium bis[(trifluoromethyl)sulfonyl]imide; phases: Liquid
Fixed: Pressure, kPa = 101.325
Property: Speed of sound, m/s (Liquid); method: Sing-around technique in a fixed-path interferometer
Temperature, K	Speed of sound, m/s	uncertainty
288.02	1293.87	1.54
293.01	1281.85	1.54
298.01	1270.05	1.54
303.2	1258.04	1.53
308.14	1246.83	1.53
313.15	1235.65	1.53
318.12	1224.74	1.53
323.13	1213.81	1.53

System: acetonitrile; phases: Liquid, Air at 1 atmosphere
Property: Surface tension liquid-gas, N/m (Liquid); method: Pendant drop shape
Temperature, K	Surface tension liquid-gas, N/m	uncertainty
298.15	0.02834	0.00034
288.15	0.02953	0.00034
308.15	0.02715	0.00033

System: acetonitrile; phases: Liquid
Fixed: Pressure, kPa = 101
Property: Mass density, kg/m3 (Liquid); method: Vibrating tube method
Temperature, K	Mass density, kg/m3	uncertainty
288.15	787.2	0.2
298.15	776.53	0.15
308.15	765.7	0.2

System: methanol; phases: Liquid, Air at 1 atmosphere
Property: Surface tension liquid-gas, N/m (Liquid); method: Pendant drop shape
Temperature, K	Surface tension liquid-gas, N/m	uncertainty
298.15	0.022	0.0003
288.15	0.02288	0.00031
308.15	0.02101	0.0003

System: methanol; phases: Liquid
Fixed: Pressure, kPa = 101
Property: Mass density, kg/m3 (Liquid); method: Vibrating tube method
Temperature, K	Mass density, kg/m3	uncertainty
288.15	795.8	0.2
298.15	786.45	0.15
308.15	777	0.2

System: methanol + 1-butyl-1-methylpyrrolidinium bis[(trifluoromethyl)sulfonyl]imide; phases: Liquid
Fixed: Pressure, kPa = 101
Property: Mass density, kg/m3 (Liquid); method: Vibrating tube method
Temperature, K	Mole fraction of 1-butyl-1-methylpyrrolidinium bis[(trifluoromethyl)sulfonyl]imide	Mass density, kg/m3	uncertainty
288.15	0	795.8	0.2
288.15	0.0495	970.4	0.8
288.15	0.1886	1186.4	0.5
288.15	0.3407	1281.7	0.3
288.15	0.4932	1332.2	0.4
288.15	0.6076	1356.2	0.4
288.15	0.637	1361.2	0.4
288.15	0.801	1384	0.5
288.15	0.8363	1388.1	0.5
288.15	0.9135	1395.6	0.5
288.15	1	1403.4	0.6
298.15	0	786.4	0.2
298.15	0.0495	960.7	0.8
298.15	0.1886	1176.8	0.5
298.15	0.3407	1272.3	0.3
298.15	0.4932	1323	0.3
298.15	0.6076	1347	0.4
298.15	0.637	1352.1	0.4
298.15	0.801	1375	0.5
298.15	0.8363	1379.1	0.5
298.15	0.9135	1386.7	0.5
298.15	1	1394.5	0.6
308.15	0	777	0.2
308.15	0.0495	951.1	0.8
308.15	0.1886	1167.3	0.5
308.15	0.3407	1263	0.4
308.15	0.4932	1313.8	0.3
308.15	0.6076	1338	0.4
308.15	0.637	1343	0.4
308.15	0.801	1366.1	0.5
308.15	0.8363	1370.3	0.5
308.15	0.9135	1377.9	0.5
308.15	1	1385.7	0.6

System: methanol + 1-butyl-1-methylpyrrolidinium bis[(trifluoromethyl)sulfonyl]imide; phases: Liquid, Air at 1 atmosphere
Property: Surface tension liquid-gas, N/m (Liquid); method: Pendant drop shape
Temperature, K	Mole fraction of 1-butyl-1-methylpyrrolidinium bis[(trifluoromethyl)sulfonyl]imide	Surface tension liquid-gas, N/m	uncertainty
288.15	0	0.02288	0.00031
288.15	0.0495	0.02436	0.00032
288.15	0.1886	0.0269	0.00033
288.15	0.3407	0.02925	0.00035
288.15	0.4932	0.03103	0.00036
288.15	0.6076	0.03208	0.00038
288.15	0.637	0.03225	0.00038
288.15	0.801	0.03323	0.00039
288.15	0.9135	0.03357	0.0004
288.15	1	0.03371	0.0004
298.15	0	0.022	0.0003
298.15	0.0495	0.02354	0.00031
298.15	0.1886	0.02636	0.00033
298.15	0.3407	0.02895	0.00035
298.15	0.4932	0.03085	0.00036
298.15	0.6076	0.03167	0.00037
298.15	0.637	0.03194	0.00038
298.15	0.801	0.03277	0.00039
298.15	0.9135	0.0331	0.0004
298.15	1	0.03322	0.0004
308.15	0	0.02101	0.0003
308.15	0.0495	0.02273	0.00031
308.15	0.1886	0.02586	0.00033
308.15	0.3407	0.02863	0.00035
308.15	0.4932	0.03054	0.00036
308.15	0.6076	0.03136	0.00037
308.15	0.637	0.03165	0.00037
308.15	0.801	0.03233	0.00038
308.15	0.9135	0.03265	0.00039
308.15	1	0.03282	0.0004

System: methanol + 1-butyl-1-methylpyrrolidinium bis[(trifluoromethyl)sulfonyl]imide; phases: Liquid
Fixed: Pressure, kPa = 101
Property: Viscosity, Pa*s (Liquid); method: Concentric cylinders viscometry
Temperature, K	Mole fraction of 1-butyl-1-methylpyrrolidinium bis[(trifluoromethyl)sulfonyl]imide	Viscosity, Pa*s	uncertainty
288.15	0.2054	0.00504	0.00011
288.15	0.4365	0.0175	0.00038
288.15	0.5394	0.02671	0.00058
288.15	0.7067	0.04943	0.00107
298.15	0.2054	0.00391	8e-05
298.15	0.4365	0.01251	0.00027
298.15	0.5394	0.01854	0.0004
298.15	0.7067	0.03282	0.00073
308.15	0.2054	0.00311	7e-05
308.15	0.4365	0.00935	0.0002
308.15	0.5394	0.01351	0.00029
308.15	0.7067	0.02302	0.00051

System: acetonitrile + 1-butyl-1-methylpyrrolidinium bis[(trifluoromethyl)sulfonyl]imide; phases: Liquid
Fixed: Pressure, kPa = 101
Property: Mass density, kg/m3 (Liquid); method: Vibrating tube method
Temperature, K	Mole fraction of 1-butyl-1-methylpyrrolidinium bis[(trifluoromethyl)sulfonyl]imide	Mass density, kg/m3	uncertainty
288.15	0	787.2	0.2
288.15	0.053	941.8	0.7
288.15	0.1989	1156.4	0.5
288.15	0.3593	1263.1	0.3
288.15	0.5201	1322.1	0.3
288.15	0.6103	1344.7	0.4
288.15	0.788	1377.3	0.4
288.15	0.9394	1396.6	0.5
288.15	1	1403.4	0.6
298.15	0	776.5	0.2
298.15	0.053	931.2	0.7
298.15	0.1989	1146.2	0.5
298.15	0.3593	1253.5	0.3
298.15	0.5201	1312.7	0.3
298.15	0.6103	1335.5	0.4
298.15	0.788	1368.3	0.4
298.15	0.9394	1387.8	0.5
298.15	1	1394.5	0.6
308.15	0	765.7	0.2
308.15	0.053	920.5	0.8
308.15	0.1989	1136.2	0.5
308.15	0.3593	1243.9	0.4
308.15	0.5201	1303.4	0.3
308.15	0.6103	1326.4	0.4
308.15	0.788	1359.2	0.4
308.15	0.9394	1379	0.5
308.15	1	1385.7	0.6

System: acetonitrile + 1-butyl-1-methylpyrrolidinium bis[(trifluoromethyl)sulfonyl]imide; phases: Liquid, Air at 1 atmosphere
Property: Surface tension liquid-gas, N/m (Liquid); method: Pendant drop shape
Temperature, K	Mole fraction of 1-butyl-1-methylpyrrolidinium bis[(trifluoromethyl)sulfonyl]imide	Surface tension liquid-gas, N/m	uncertainty
288.15	0	0.02953	0.00034
288.15	0.053	0.03092	0.00035
288.15	0.1989	0.03245	0.00036
288.15	0.3593	0.03318	0.00037
288.15	0.5201	0.03345	0.00038
288.15	0.6103	0.03351	0.00038
288.15	0.788	0.03358	0.00039
288.15	0.9394	0.03371	0.0004
288.15	1	0.03371	0.0004
298.15	0	0.02834	0.00034
298.15	0.053	0.02978	0.00035
298.15	0.1989	0.03145	0.00036
298.15	0.3593	0.03248	0.00037
298.15	0.5201	0.03284	0.00037
298.15	0.6103	0.03297	0.00038
298.15	0.788	0.03313	0.00039
298.15	0.9394	0.0332	0.0004
298.15	1	0.03322	0.0004
308.15	0	0.02715	0.00033
308.15	0.053	0.02855	0.00034
308.15	0.1989	0.03057	0.00035
308.15	0.3593	0.03176	0.00036
308.15	0.5201	0.0322	0.00037
308.15	0.6103	0.03244	0.00038
308.15	0.788	0.03268	0.00039
308.15	0.9394	0.03272	0.00039
308.15	1	0.03282	0.0004

System: acetonitrile + 1-butyl-1-methylpyrrolidinium bis[(trifluoromethyl)sulfonyl]imide; phases: Liquid
Fixed: Pressure, kPa = 101
Property: Viscosity, Pa*s (Liquid); method: Concentric cylinders viscometry
Temperature, K	Mole fraction of 1-butyl-1-methylpyrrolidinium bis[(trifluoromethyl)sulfonyl]imide	Viscosity, Pa*s	uncertainty
288.15	0.1924	0.00241	5e-05
288.15	0.4602	0.01316	0.0003
288.15	0.598	0.02633	0.0006
288.15	0.8159	0.06588	0.00144
298.15	0.1924	0.00202	4e-05
298.15	0.4602	0.00979	0.00021
298.15	0.598	0.01847	0.0004
298.15	0.8159	0.04255	0.00095
308.15	0.1924	0.00173	4e-05
308.15	0.4602	0.00756	0.00016
308.15	0.598	0.01358	0.00029
308.15	0.8159	0.02918	0.00066
