Measured thermophysical data. Enthalpy of dilution and volumetric properties of N-glycylglycine in aqueous xylitol solutions at T = 298.15 K
Source: J. Chem. Thermodyn., 2011, 10.1016/j.jct.2011.02.005
Compound 1: xylitol, C5H12O5, InChI=1S/C5H12O5/c6-1-3(8)5(10)4(9)2-7/h3-10H,1-2H2/t3-,4+,5+, purity 99%
Compound 2: water, H2O, InChI=1S/H2O/h1H2, purity 99.8%
Compound 3: N-(carboxymethyl)glycine, C4H7NO4, InChI=1S/C4H7NO4/c6-3(7)1-5-2-4(8)9/h5H,1-2H2,(H,6,7)(H,8,9), purity 99%

System: water; phases: Liquid
Property: Mass density, kg/m3 (Liquid); method: Vibrating tube method
Temperature, K	Pressure, kPa	Mass density, kg/m3	uncertainty
298.15	101	997.3	0.064

System: xylitol + N-(carboxymethyl)glycine + water; phases: Liquid
Fixed: Temperature, K = 298.15
Fixed: Pressure, kPa = 101
Property: Mass density, kg/m3 (Liquid); method: Vibrating tube method
Molality, mol/kg of xylitol	Molality, mol/kg of N-(carboxymethyl)glycine	Mass density, kg/m3	uncertainty
0	0	997.3	0.064
0	0.0499	1000.076	0.064
0	0.1004	1002.852	0.065
0	0.1501	1005.549	0.066
0	0.2	1008.224	0.067
0	0.2492	1010.831	0.068
0	0.2995	1013.459	0.069
0	0.3512	1016.129	0.07
0	0.3991	1018.568	0.071
0	0.4485	1021.045	0.072
0	0.5013	1023.681	0.074
0	0.5509	1026.148	0.075
0	0.5987	1028.489	0.076
0.1998	0	1006.798	0.067
0.1998	0.0502	1009.576	0.068
0.1998	0.1001	1012.306	0.069
0.1998	0.15	1015.003	0.07
0.1998	0.1993	1017.631	0.071
0.1998	0.2514	1020.372	0.072
0.1998	0.3008	1022.901	0.074
0.1998	0.3509	1025.481	0.075
0.1998	0.3988	1027.926	0.076
0.1998	0.4501	1030.498	0.077
0.1998	0.4993	1032.952	0.078
0.1998	0.546	1035.249	0.079
0.1998	0.5914	1037.459	0.081
0.35	0	1013.809	0.07
0.35	0.0497	1016.551	0.071
0.35	0.1001	1019.297	0.072
0.35	0.1506	1022.001	0.073
0.35	0.1996	1024.602	0.075
0.35	0.2479	1027.141	0.076
0.35	0.3009	1029.836	0.077
0.35	0.3487	1032.274	0.078
0.35	0.3993	1034.843	0.08
0.35	0.4504	1037.412	0.081
0.35	0.5007	1039.895	0.082
0.35	0.5414	1041.883	0.083
0.35	0.6023	1044.839	0.085
0.4985	0	1020.469	0.073
0.4985	0.0502	1023.223	0.074
0.4985	0.1001	1025.925	0.076
0.4985	0.1507	1028.635	0.077
0.4985	0.1997	1031.218	0.078
0.4985	0.2493	1033.821	0.079
0.4985	0.2997	1036.375	0.081
0.4985	0.3514	1038.994	0.082
0.4985	0.3996	1041.405	0.083
0.4985	0.4505	1043.946	0.085
0.4985	0.5007	1046.406	0.086
0.4985	0.551	1048.846	0.087
0.4985	0.5982	1051.106	0.088
0.6496	0	1027.376	0.077
0.6496	0.0499	1030.099	0.078
0.6496	0.0998	1032.785	0.079
0.6496	0.1501	1035.467	0.08
0.6496	0.2006	1038.103	0.082
0.6496	0.2504	1040.679	0.083
0.6496	0.3007	1043.231	0.084
0.6496	0.3474	1045.602	0.086
0.6496	0.4011	1048.276	0.087
0.6496	0.4508	1050.721	0.088
0.6496	0.4811	1052.183	0.089
0.6496	0.5492	1055.465	0.091
0.6496	0.6008	1057.896	0.092
0.7999	0	1033.722	0.08
0.7999	0.0501	1036.445	0.081
0.7999	0.1002	1039.113	0.083
0.7999	0.1504	1041.756	0.084
0.7999	0.2013	1044.392	0.085
0.7999	0.2491	1046.846	0.087
0.7999	0.3005	1049.453	0.088
0.7999	0.3504	1051.928	0.089
0.7999	0.4	1054.367	0.091
0.7999	0.4498	1056.779	0.092
0.7999	0.4968	1059.026	0.093
0.7999	0.5482	1061.442	0.095
0.7999	0.5984	1063.758	0.096
0.95	0	1039.843	0.084
0.95	0.05	1042.535	0.085
0.95	0.1001	1045.201	0.086
0.95	0.1499	1047.802	0.088
0.95	0.2005	1050.427	0.089
0.95	0.25	1052.946	0.09
0.95	0.301	1055.495	0.092
0.95	0.3503	1057.943	0.093
0.95	0.4002	1060.342	0.095
0.95	0.4508	1062.756	0.096
0.95	0.499	1065.053	0.097
0.95	0.549	1067.392	0.099
0.95	0.6018	1069.758	0.1

System: xylitol + N-(carboxymethyl)glycine + water; phases: Liquid
Fixed: Temperature, K = 298.15
Fixed: Pressure, kPa = 101.325
Property: Molar enthalpy of dilution, kJ/mol (Liquid); method: Flow calorimetry
Solvent: Molality, mol/kg of xylitol	Initial molality of solute, mol/kg	Final molality of solute, mol/kg	Molar enthalpy of dilution, kJ/mol	uncertainty
0	0.08	0.0414	0.02932	0.0011
0	0.1	0.0517	0.0366	0.00127
0	0.12	0.0623	0.0435	0.00136
0	0.15	0.0789	0.05324	0.00155
0	0.18	0.0943	0.06366	0.00175
0	0.2	0.1048	0.07027	0.0019
0	0.22	0.1152	0.07695	0.00202
0	0.25	0.1327	0.08527	0.0022
0	0.28	0.1489	0.0944	0.00239
0	0.3	0.1589	0.10104	0.00254
0	0.32	0.1709	0.10605	0.00264
0	0.35	0.1866	0.11515	0.00284
0.15	0.08	0.0387	0.02575	0.00104
0.15	0.1	0.0485	0.03266	0.00116
0.15	0.12	0.0582	0.03961	0.00129
0.15	0.15	0.0727	0.04986	0.00148
0.15	0.18	0.0869	0.0602	0.00168
0.15	0.2	0.0966	0.06686	0.00183
0.15	0.22	0.1056	0.07401	0.00196
0.15	0.25	0.1203	0.08383	0.00217
0.15	0.28	0.1345	0.09389	0.00238
0.15	0.3	0.1444	0.1003	0.00252
0.15	0.32	0.154	0.10696	0.00265
0.15	0.35	0.1687	0.1168	0.00289
0.3	0.08	0.0391	0.02281	0.00217
0.3	0.1	0.0489	0.02899	0.00112
0.3	0.12	0.0587	0.03508	0.00124
0.3	0.15	0.0733	0.04408	0.00163
0.3	0.18	0.0877	0.05312	0.00154
0.3	0.2	0.0975	0.05894	0.00199
0.3	0.22	0.1069	0.06505	0.00211
0.3	0.25	0.1218	0.07372	0.00204
0.3	0.28	0.1357	0.08306	0.00315
0.3	0.3	0.1455	0.08908	0.00247
0.3	0.32	0.1551	0.09526	0.00296
0.3	0.35	0.1694	0.10487	0.00383
0.45	0.08	0.0394	0.01899	0.00101
0.45	0.1	0.0491	0.02502	0.00104
0.45	0.12	0.0589	0.03091	0.00114
0.45	0.15	0.0735	0.03966	0.0013
0.45	0.18	0.0885	0.04804	0.00155
0.45	0.2	0.0979	0.05392	0.00156
0.45	0.22	0.1075	0.05959	0.00167
0.45	0.25	0.1223	0.06782	0.00184
0.45	0.28	0.1365	0.07631	0.00201
0.45	0.3	0.1465	0.08161	0.00212
0.45	0.32	0.1557	0.08737	0.00224
0.45	0.35	0.1703	0.0955	0.00242
0.6	0.08	0.0401	0.01592	0.00154
0.6	0.1	0.0501	0.02163	0.00152
0.6	0.12	0.0599	0.0274	0.00116
0.6	0.15	0.0747	0.03583	0.00123
0.6	0.18	0.0897	0.044	0.00137
0.6	0.2	0.0995	0.04945	0.00147
0.6	0.22	0.1094	0.05486	0.00158
0.6	0.25	0.1242	0.06281	0.00174
0.6	0.28	0.1394	0.07042	0.00189
0.6	0.3	0.1491	0.07564	0.002
0.6	0.32	0.159	0.08074	0.0021
0.6	0.35	0.1738	0.0883	0.00226
0.75	0.08	0.0413	0.01569	0.00091
0.75	0.1	0.0514	0.02089	0.00096
0.75	0.12	0.0618	0.02584	0.00104
0.75	0.15	0.0773	0.03315	0.00117
0.75	0.18	0.0922	0.04062	0.0013
0.75	0.2	0.1026	0.04524	0.00139
0.75	0.22	0.1129	0.04987	0.00148
0.75	0.25	0.1281	0.05688	0.00162
0.75	0.28	0.1436	0.06365	0.00175
0.75	0.3	0.1536	0.06829	0.00185
0.75	0.32	0.1639	0.07281	0.00194
0.75	0.35	0.1793	0.07955	0.00208
0.9	0.08	0.0415	0.01491	0.00089
0.9	0.1	0.0518	0.01954	0.00094
0.9	0.12	0.062	0.02413	0.00101
0.9	0.15	0.0773	0.03089	0.00113
0.9	0.18	0.0926	0.03749	0.00125
0.9	0.2	0.1031	0.04168	0.00133
0.9	0.22	0.1131	0.04601	0.00141
0.9	0.25	0.1292	0.05193	0.00153
0.9	0.28	0.1439	0.0585	0.00165
0.9	0.3	0.1537	0.06281	0.00174
0.9	0.32	0.1642	0.06676	0.00182
0.9	0.35	0.1793	0.07305	0.00194

System: N-(carboxymethyl)glycine + water; phases: Liquid
Fixed: Temperature, K = 298.15
Fixed: Pressure, kPa = 101
Property: Mass density, kg/m3 (Liquid); method: Vibrating tube method
Molality, mol/kg of N-(carboxymethyl)glycine	Mass density, kg/m3	uncertainty
0.0499	1000.076	0.064
0.1004	1002.852	0.065
0.1501	1005.549	0.066
0.2	1008.224	0.067
0.2492	1010.831	0.068
0.2995	1013.459	0.069
0.3512	1016.129	0.07
0.3991	1018.568	0.071
0.4485	1021.045	0.072
0.5013	1023.681	0.074
0.5509	1026.148	0.075
0.5987	1028.489	0.076

System: N-(carboxymethyl)glycine + water; phases: Liquid
Fixed: Temperature, K = 298.15
Fixed: Pressure, kPa = 101.325
Property: Molar enthalpy of dilution, kJ/mol (Liquid); method: Flow calorimetry
Initial molality of solute, mol/kg	Final molality of solute, mol/kg	Molar enthalpy of dilution, kJ/mol	uncertainty
0.08	0.0414	0.02932	0.0011
0.1	0.0517	0.0366	0.00127
0.12	0.0623	0.0435	0.00136
0.15	0.0789	0.05324	0.00155
0.18	0.0943	0.06366	0.00175
0.2	0.1048	0.07027	0.0019
0.22	0.1152	0.07695	0.00202
0.25	0.1327	0.08527	0.0022
0.28	0.1489	0.0944	0.00239
0.3	0.1589	0.10104	0.00254
0.32	0.1709	0.10605	0.00264
0.35	0.1866	0.11515	0.00284

System: xylitol + water; phases: Liquid
Fixed: Temperature, K = 298.15
Fixed: Pressure, kPa = 101
Property: Mass density, kg/m3 (Liquid); method: Vibrating tube method
Molality, mol/kg of xylitol	Mass density, kg/m3	uncertainty
0.1998	1006.798	0.067
0.35	1013.809	0.07
0.4985	1020.469	0.073
0.6496	1027.376	0.077
0.7999	1033.722	0.08
0.95	1039.843	0.084
