Measured thermophysical data. Apparent molal volumes of symmetrical and asymmetrical isomers of tetrabutylammonium bromide in water at several temperatures
Source: J. Chem. Thermodyn., 2014, 10.1016/j.jct.2013.08.031
Compound 1: water, H2O, InChI=1S/H2O/h1H2
Compound 2: tetrabutylammonium bromide, C16H36BrN, InChI=1S/C16H36N.BrH/c1-5-9-13-17(14-10-6-2,15-11-7-3)16-12-8-4;/h5-16H2,1-4H3;1H/q+1;/p-1, purity 99%
Compound 3: tetra-iso-butyl ammonium bromide, C16H36BrN, InChI=1S/C16H36N.BrH/c1-13(2)9-17(10-14(3)4,11-15(5)6)12-16(7)8;/h13-16H,9-12H2,1-8H3;1H/q+1;/p-1
Compound 4: tetra-sec-butyl ammonium bromide, C16H36BrN, InChI=1S/C16H36N.BrH/c1-9-13(5)17(14(6)10-2,15(7)11-3)16(8)12-4;/h13-16H,9-12H2,1-8H3;1H/q+1;/p-1
Compound 5: N-butyl-N,N-bis(1-methylpropyl)-1-butanaminium bromide, C16H36BrN, InChI=1S/C16H36N.BrH/c1-7-11-13-17(14-12-8-2,15(5)9-3)16(6)10-4;/h15-16H,7-14H2,1-6H3;1H/q+1;/p-1
Compound 6: N-butyl-N,N-bis(2-methylpropyl)-1-butanaminium bromide, C16H36BrN, InChI=1S/C16H36N.BrH/c1-7-9-11-17(12-10-8-2,13-15(3)4)14-16(5)6;/h15-16H,7-14H2,1-6H3;1H/q+1;/p-1

System: tetrabutylammonium bromide + water; phases: Liquid
Fixed: Pressure, kPa = 74.66
Property: Mass density, kg/m3 (Liquid); method: Vibrating tube method
Temperature, K	Molality, mol/kg of tetrabutylammonium bromide	Mass density, kg/m3	uncertainty
298.15	0.01143	997.306	0.107
298.15	0.02179	997.542	0.107
298.15	0.02564	997.632	0.107
298.15	0.03767	997.89	0.107
298.15	0.0459	998.083	0.107
298.15	0.05855	998.37	0.107
298.15	0.0711	998.631	0.107
298.15	0.07968	998.818	0.107
298.15	0.09066	999.091	0.107
298.15	0.10033	999.267	0.107
303.15	0.01143	995.897	0.107
303.15	0.02179	996.124	0.107
303.15	0.02564	996.207	0.107
303.15	0.03767	996.459	0.107
303.15	0.0459	996.642	0.107
303.15	0.05855	996.918	0.107
303.15	0.0711	997.168	0.107
303.15	0.07968	997.351	0.107
303.15	0.09066	997.608	0.107
303.15	0.10033	997.806	0.107
308.15	0.01143	994.271	0.107
308.15	0.02179	994.493	0.107
308.15	0.02564	994.567	0.107
308.15	0.03767	994.819	0.107
308.15	0.0459	994.986	0.107
308.15	0.05855	995.247	0.107
308.15	0.0711	995.487	0.107
308.15	0.07968	995.662	0.107
308.15	0.09066	995.912	0.107
308.15	0.10033	996.121	0.107

System: water + tetra-iso-butyl ammonium bromide; phases: Liquid
Fixed: Pressure, kPa = 74.66
Property: Mass density, kg/m3 (Liquid); method: Vibrating tube method
Temperature, K	Molality, mol/kg of tetra-iso-butyl ammonium bromide	Mass density, kg/m3	uncertainty
298.15	0.01022	997.574	0.107
298.15	0.02021	998.092	0.107
298.15	0.02983	998.59	0.107
298.15	0.03847	999.027	0.107
298.15	0.04829	999.524	0.107
298.15	0.05621	999.922	0.107
298.15	0.06888	1000.557	0.107
298.15	0.07666	1000.955	0.107
298.15	0.08623	1001.43	0.107
298.15	0.10018	1002.155	0.107
303.15	0.01022	996.171	0.107
303.15	0.02021	996.676	0.107
303.15	0.02983	997.167	0.107
303.15	0.03847	997.6	0.107
303.15	0.04829	998.101	0.107
303.15	0.05621	998.499	0.107
303.15	0.06888	999.123	0.107
303.15	0.07666	999.518	0.107
303.15	0.08623	999.988	0.107
303.15	0.10018	1000.703	0.107
308.15	0.01022	994.553	0.107
308.15	0.02021	995.043	0.107
308.15	0.02983	995.531	0.107
308.15	0.03847	995.96	0.107
308.15	0.04829	996.462	0.107
308.15	0.05621	996.855	0.107
308.15	0.06888	997.478	0.107
308.15	0.07666	997.85	0.107
308.15	0.08623	998.324	0.107
308.15	0.10018	999.035	0.107

System: water + tetra-sec-butyl ammonium bromide; phases: Liquid
Fixed: Pressure, kPa = 74.66
Property: Mass density, kg/m3 (Liquid); method: Vibrating tube method
Temperature, K	Molality, mol/kg of tetra-sec-butyl ammonium bromide	Mass density, kg/m3	uncertainty
298.15	0.0097	997.488	0.107
298.15	0.01981	997.958	0.107
298.15	0.03014	998.439	0.107
298.15	0.04066	998.953	0.107
298.15	0.04983	999.408	0.107
298.15	0.0598	999.909	0.107
298.15	0.07027	1000.439	0.107
298.15	0.07997	1000.951	0.107
298.15	0.08984	1001.445	0.107
298.15	0.1018	1002.077	0.107
303.15	0.0097	996.085	0.107
303.15	0.01981	996.548	0.107
303.15	0.03014	997.029	0.107
303.15	0.04066	997.518	0.107
303.15	0.04983	997.974	0.107
303.15	0.0598	998.449	0.107
303.15	0.07027	998.977	0.107
303.15	0.07997	999.449	0.107
303.15	0.08984	999.971	0.107
303.15	0.1018	1000.561	0.107
308.15	0.0097	994.477	0.107
308.15	0.01981	994.931	0.107
308.15	0.03014	995.392	0.107
308.15	0.04066	995.891	0.107
308.15	0.04983	996.309	0.107
308.15	0.0598	996.799	0.107
308.15	0.07027	997.293	0.107
308.15	0.07997	997.778	0.107
308.15	0.08984	998.299	0.107
308.15	0.1018	998.923	0.107

System: N-butyl-N,N-bis(2-methylpropyl)-1-butanaminium bromide + water; phases: Liquid
Fixed: Pressure, kPa = 74.66
Property: Mass density, kg/m3 (Liquid); method: Vibrating tube method
Temperature, K	Molality, mol/kg of N-butyl-N,N-bis(2-methylpropyl)-1-butanaminium bromide	Mass density, kg/m3	uncertainty
298.15	0.01065	997.571	0.107
298.15	0.01998	998.046	0.107
298.15	0.0287	998.493	0.107
298.15	0.03815	998.971	0.107
298.15	0.04991	999.575	0.107
298.15	0.05935	1000.052	0.107
298.15	0.06884	1000.537	0.107
298.15	0.08078	1001.157	0.107
298.15	0.0922	1001.721	0.107
298.15	0.10441	1002.349	0.107
303.15	0.01065	996.173	0.107
303.15	0.01998	996.647	0.107
303.15	0.0287	997.094	0.107
303.15	0.03815	997.573	0.107
303.15	0.04991	998.175	0.107
303.15	0.05935	998.652	0.107
303.15	0.06884	999.131	0.107
303.15	0.08078	999.751	0.107
303.15	0.0922	1000.308	0.107
303.15	0.10441	1000.936	0.107
308.15	0.01065	994.575	0.107
308.15	0.01998	995.047	0.107
308.15	0.0287	995.492	0.107
308.15	0.03815	995.975	0.107
308.15	0.04991	996.571	0.107
308.15	0.05935	997.048	0.107
308.15	0.06884	997.529	0.107
308.15	0.08078	998.152	0.107
308.15	0.0922	998.702	0.107
308.15	0.10441	999.327	0.107

System: water + N-butyl-N,N-bis(1-methylpropyl)-1-butanaminium bromide; phases: Liquid
Fixed: Pressure, kPa = 74.66
Property: Mass density, kg/m3 (Liquid); method: Vibrating tube method
Temperature, K	Molality, mol/kg of N-butyl-N,N-bis(1-methylpropyl)-1-butanaminium bromide	Mass density, kg/m3	uncertainty
298.15	0.01181	997.635	0.107
298.15	0.02026	998.067	0.107
298.15	0.03102	998.623	0.107
298.15	0.04017	999.106	0.107
298.15	0.05043	999.638	0.107
298.15	0.0598	1000.145	0.107
298.15	0.06968	1000.661	0.107
298.15	0.08191	1001.304	0.107
298.15	0.09038	1001.759	0.107
298.15	0.10361	1002.471	0.107
303.15	0.01181	996.234	0.107
303.15	0.02026	996.663	0.107
303.15	0.03102	997.215	0.107
303.15	0.04017	997.699	0.107
303.15	0.05043	998.223	0.107
303.15	0.0598	998.719	0.107
303.15	0.06968	999.241	0.107
303.15	0.08191	999.878	0.107
303.15	0.09038	1000.331	0.107
303.15	0.10361	1001.028	0.107
308.15	0.01181	994.634	0.107
308.15	0.02026	995.062	0.107
308.15	0.03102	995.611	0.107
308.15	0.04017	996.096	0.107
308.15	0.05043	996.617	0.107
308.15	0.0598	997.117	0.107
308.15	0.06968	997.631	0.107
308.15	0.08191	998.265	0.107
308.15	0.09038	998.711	0.107
308.15	0.10361	999.421	0.107
