Measured thermophysical data. Determination and correlation of solubility and thermodynamic properties of pyraclostrobin in pure and binary solvents
Source: J. Chem. Thermodyn., 2016, 10.1016/j.jct.2016.05.005
Compound 1: Pyraclostrobin, C19H18ClN3O4, InChI=1S/C19H18ClN3O4/c1-25-19(24)23(26-2)17-6-4-3-5-14(17)13-27-18-11-12-22(21-18)16-9-7-15(20)8-10-16/h3-12H,13H2,1-2H3, purity 99%
Compound 2: ethanol, C2H6O, InChI=1S/C2H6O/c1-2-3/h3H,2H2,1H3, purity 99.5%
Compound 3: propan-2-ol, C3H8O, InChI=1S/C3H8O/c1-3(2)4/h3-4H,1-2H3, purity 99.5%
Compound 4: butan-1-ol, C4H10O, InChI=1S/C4H10O/c1-2-3-4-5/h5H,2-4H2,1H3, purity 99.5%
Compound 5: 2-methyl-1-propanol, C4H10O, InChI=1S/C4H10O/c1-4(2)3-5/h4-5H,3H2,1-2H3, purity 99.5%
Compound 6: cyclohexane, C6H12, InChI=1S/C6H12/c1-2-4-6-5-3-1/h1-6H2, purity 99.5%

System: Pyraclostrobin; phases: Crystal, Liquid, Air at 1 atmosphere
Property: Normal melting temperature, K (Crystal); method: DTA
Normal melting temperature, K	uncertainty
333.7	0.6

System: Pyraclostrobin; phases: Crystal, Liquid, Air at 1 atmosphere
Property: Molar enthalpy of transition or fusion, kJ/mol (Crystal); method: DSC
Molar enthalpy of transition or fusion, kJ/mol	uncertainty
31.03	1.32

System: ethanol + Pyraclostrobin; phases: Liquid, Crystal
Fixed: Pressure, kPa = 100
Property: Mole fraction of Pyraclostrobin (Liquid); method: gravimetric
Temperature, K	Mole fraction of Pyraclostrobin	uncertainty
283.15	0.004581	0.000462
288.15	0.006009	0.000607
293.15	0.008662	0.000874
298.15	0.01171	0.00119
303.15	0.01841	0.00189
308.15	0.03257	0.00331

System: propan-2-ol + Pyraclostrobin; phases: Liquid, Crystal
Fixed: Pressure, kPa = 100
Property: Mole fraction of Pyraclostrobin (Liquid); method: gravimetric
Temperature, K	Mole fraction of Pyraclostrobin	uncertainty
283.15	0.002484	0.000251
288.15	0.003322	0.000336
293.15	0.004809	0.000486
298.15	0.006874	0.000696
303.15	0.01019	0.00104
308.15	0.01627	0.00165

System: butan-1-ol + Pyraclostrobin; phases: Liquid, Crystal
Fixed: Pressure, kPa = 100
Property: Mole fraction of Pyraclostrobin (Liquid); method: gravimetric
Temperature, K	Mole fraction of Pyraclostrobin	uncertainty
283.15	0.005337	0.000536
288.15	0.006627	0.000667
293.15	0.009157	0.000925
298.15	0.01317	0.00134
303.15	0.02143	0.00218
308.15	0.03431	0.00347

System: 2-methyl-1-propanol + Pyraclostrobin; phases: Liquid, Crystal
Fixed: Pressure, kPa = 100
Property: Mole fraction of Pyraclostrobin (Liquid); method: gravimetric
Temperature, K	Mole fraction of Pyraclostrobin	uncertainty
283.15	0.002834	0.000286
288.15	0.003773	0.000381
293.15	0.005273	0.000533
298.15	0.007575	0.000768
303.15	0.01152	0.00117
308.15	0.01857	0.00188

System: cyclohexane + Pyraclostrobin; phases: Liquid, Crystal
Fixed: Pressure, kPa = 100
Property: Mole fraction of Pyraclostrobin (Liquid); method: gravimetric
Temperature, K	Mole fraction of Pyraclostrobin	uncertainty
283.15	0.0009424	9.66e-05
288.15	0.001476	0.00015
293.15	0.002167	0.000219
298.15	0.003105	0.000314
303.15	0.004479	0.000452
308.15	0.006094	0.000613

System: propan-2-ol + cyclohexane + Pyraclostrobin; phases: Liquid, Crystal
Fixed: Pressure, kPa = 100
Property: Mole fraction of Pyraclostrobin (Liquid); method: gravimetric
Temperature, K	Solvent: Mole fraction of propan-2-ol	Mole fraction of Pyraclostrobin	uncertainty
283.15	0	0.0009424	9.66e-05
283.15	0.1346	0.003211	0.000324
283.15	0.2593	0.004688	0.000472
283.15	0.3751	0.005765	0.00058
283.15	0.4828	0.006567	0.00066
283.15	0.5834	0.006735	0.000677
283.15	0.6775	0.006522	0.000656
283.15	0.7657	0.005974	0.000604
283.15	0.8485	0.005065	0.000519
283.15	0.9264	0.004139	0.000446
283.15	1	0.002484	0.000251
288.15	0	0.001476	0.00015
288.15	0.1346	0.004029	0.000406
288.15	0.2593	0.005706	0.000576
288.15	0.3751	0.006908	0.000697
288.15	0.4828	0.007818	0.000788
288.15	0.5834	0.008278	0.000834
288.15	0.6775	0.007901	0.000797
288.15	0.7657	0.00726	0.000733
288.15	0.8485	0.006486	0.000661
288.15	0.9264	0.005204	0.000558
288.15	1	0.003322	0.000336
293.15	0	0.002167	0.000219
293.15	0.1346	0.005611	0.00057
293.15	0.2593	0.008104	0.000826
293.15	0.3751	0.01014	0.00104
293.15	0.4828	0.01129	0.00116
293.15	0.5834	0.01157	0.00119
293.15	0.6775	0.01119	0.00115
293.15	0.7657	0.01005	0.00103
293.15	0.8485	0.008478	0.000876
293.15	0.9264	0.006853	0.000728
293.15	1	0.004809	0.000486
298.15	0	0.003105	0.000314
298.15	0.1346	0.008648	0.000887
298.15	0.2593	0.01314	0.00136
298.15	0.3751	0.01718	0.00177
298.15	0.4828	0.02043	0.0021
298.15	0.5834	0.02185	0.00224
298.15	0.6775	0.02066	0.00212
298.15	0.7657	0.01714	0.00178
298.15	0.8485	0.01379	0.00145
298.15	0.9264	0.01052	0.00115
298.15	1	0.006874	0.000696
303.15	0	0.004479	0.000451
303.15	0.1346	0.01517	0.00154
303.15	0.2593	0.02395	0.00244
303.15	0.3751	0.03083	0.00313
303.15	0.4828	0.03565	0.00361
303.15	0.5834	0.03649	0.00369
303.15	0.6775	0.03376	0.00342
303.15	0.7657	0.02818	0.0029
303.15	0.8485	0.0221	0.00231
303.15	0.9264	0.01689	0.00185
303.15	1	0.01019	0.00103

System: butan-1-ol + cyclohexane + Pyraclostrobin; phases: Liquid, Crystal
Fixed: Pressure, kPa = 100
Property: Mole fraction of Pyraclostrobin (Liquid); method: gravimetric
Temperature, K	Solvent: Mole fraction of butan-1-ol	Mole fraction of Pyraclostrobin	uncertainty
283.15	0	0.0009424	9.66e-05
283.15	0.112	0.002838	0.000286
283.15	0.2211	0.004218	0.000424
283.15	0.3273	0.005124	0.000516
283.15	0.4308	0.005777	0.000583
283.15	0.5317	0.006213	0.000626
283.15	0.6301	0.006643	0.000669
283.15	0.726	0.00676	0.000679
283.15	0.8196	0.006365	0.00064
283.15	0.9108	0.005862	0.000591
283.15	1	0.005337	0.000536
288.15	0	0.001476	0.00015
288.15	0.112	0.003416	0.000345
288.15	0.2211	0.005045	0.000508
288.15	0.3273	0.006447	0.00065
288.15	0.4308	0.007463	0.000753
288.15	0.5317	0.008082	0.000815
288.15	0.6301	0.008472	0.000853
288.15	0.726	0.008173	0.000823
288.15	0.8196	0.007696	0.000776
288.15	0.9108	0.007124	0.000719
288.15	1	0.006627	0.000667
293.15	0	0.002167	0.000219
293.15	0.112	0.004844	0.000496
293.15	0.2211	0.006774	0.0007
293.15	0.3273	0.008731	0.000906
293.15	0.4308	0.01048	0.00108
293.15	0.5317	0.01118	0.00116
293.15	0.6301	0.01157	0.00119
293.15	0.726	0.01138	0.00117
293.15	0.8196	0.01089	0.00111
293.15	0.9108	0.009885	0.001007
293.15	1	0.009157	0.000925
298.15	0	0.003105	0.000314
298.15	0.112	0.008627	0.000896
298.15	0.2211	0.01353	0.00141
298.15	0.3273	0.0181	0.00188
298.15	0.4308	0.02099	0.00218
298.15	0.5317	0.02246	0.00233
298.15	0.6301	0.02258	0.00234
298.15	0.726	0.02121	0.0022
298.15	0.8196	0.01842	0.00191
298.15	0.9108	0.0157	0.00163
298.15	1	0.01317	0.00134
303.15	0	0.004479	0.000451
303.15	0.112	0.01655	0.00168
303.15	0.2211	0.0261	0.00266
303.15	0.3273	0.03377	0.00344
303.15	0.4308	0.04012	0.00408
303.15	0.5317	0.04221	0.00429
303.15	0.6301	0.04135	0.0042
303.15	0.726	0.03888	0.00396
303.15	0.8196	0.03282	0.00338
303.15	0.9108	0.02628	0.00273
303.15	1	0.02143	0.00217
