Measured thermophysical data. Study of the interactions of PAMAM-NH2 G4 dendrimer with selected natural amino acids in aqueous solutions
Source: J. Chem. Thermodyn., 2014, 10.1016/j.jct.2013.10.022
Compound 1: L-leucine, C6H13NO2, InChI=1S/C6H13NO2/c1-4(2)3-5(7)6(8)9/h4-5H,3,7H2,1-2H3,(H,8,9)/t5-/m0/s1, purity 99.5%
Compound 2: 2-amino-3-methylpentanoic acid, C6H13NO2, InChI=1S/C6H13NO2/c1-3-4(2)5(7)6(8)9/h4-5H,3,7H2,1-2H3,(H,8,9)/t4-,5-/m0/s1, purity 99%
Compound 3: L-valine, C5H11NO2, InChI=1S/C5H11NO2/c1-3(2)4(6)5(7)8/h3-4H,6H2,1-2H3,(H,7,8)/t4-/m0/s1, purity 99.5%
Compound 4: (S)-2-aminopropanoic acid, C3H7NO2, InChI=1S/C3H7NO2/c1-2(4)3(5)6/h2H,4H2,1H3,(H,5,6)/t2-/m0/s1, purity 99.5%
Compound 5: L-phenylalanine, C9H11NO2, InChI=1S/C9H11NO2/c10-8(9(11)12)6-7-4-2-1-3-5-7/h1-5,8H,6,10H2,(H,11,12)/t8-/m0/s1, purity 99%
Compound 6: L-tryptophan, C11H12N2O2, InChI=1S/C11H12N2O2/c12-9(11(14)15)5-7-6-13-10-4-2-1-3-8(7)10/h1-4,6,9,13H,5,12H2,(H,14,15)/t9-/m0/s1, purity 99%
Compound 7: L-methionine, C5H11NO2S, InChI=1S/C5H11NO2S/c1-9-3-2-4(6)5(7)8/h4H,2-3,6H2,1H3,(H,7,8)/t4-/m0/s1, purity 99%
Compound 8: L-proline, C5H9NO2, InChI=1S/C5H9NO2/c7-5(8)4-2-1-3-6-4/h4,6H,1-3H2,(H,7,8)/t4-/m0/s1, purity 99.5%
Compound 9: L-threonine, C4H9NO3, InChI=1S/C4H9NO3/c1-2(6)3(5)4(7)8/h2-3,6H,5H2,1H3,(H,7,8)/t2-,3+/m1/s1, purity 99.5%
Compound 10: 2-aminoacetic acid, C2H5NO2, InChI=1S/C2H5NO2/c3-1-2(4)5/h1,3H2,(H,4,5), purity 99%
Compound 11: L-serine, C3H7NO3, InChI=1S/C3H7NO3/c4-2(1-5)3(6)7/h2,5H,1,4H2,(H,6,7)/t2-/m0/s1, purity 99.5%
Compound 12: L-glutamine, C5H10N2O3, InChI=1S/C5H10N2O3/c6-3(5(9)10)1-2-4(7)8/h3H,1-2,6H2,(H2,7,8)(H,9,10)/t3-/m0/s1, purity 99%
Compound 13: L-asparagine, C4H8N2O3, InChI=1S/C4H8N2O3/c5-2(4(8)9)1-3(6)7/h2H,1,5H2,(H2,6,7)(H,8,9)/t2-/m0/s1, purity 99.5%
Compound 14: water, H2O, InChI=1S/H2O/h1H2

System: L-leucine + water; phases: Liquid
Property: Molar enthalpy of dilution, kJ/mol (Liquid); method: Calvet calorimetry
Initial molality of solute, mol/kg	Temperature, K	Pressure, kPa	Final molality of solute, mol/kg	Molar enthalpy of dilution, kJ/mol	uncertainty
0.0016	298.15	101	0.0008	0.156	0.016

System: 2-amino-3-methylpentanoic acid + water; phases: Liquid
Property: Molar enthalpy of dilution, kJ/mol (Liquid); method: Calvet calorimetry
Initial molality of solute, mol/kg	Temperature, K	Pressure, kPa	Final molality of solute, mol/kg	Molar enthalpy of dilution, kJ/mol	uncertainty
0.0016	298.15	101	0.0008	0.5	0.05

System: L-valine + water; phases: Liquid
Property: Molar enthalpy of dilution, kJ/mol (Liquid); method: Calvet calorimetry
Initial molality of solute, mol/kg	Temperature, K	Pressure, kPa	Final molality of solute, mol/kg	Molar enthalpy of dilution, kJ/mol	uncertainty
0.0016	298.15	101	0.0008	0.687	0.069

System: (S)-2-aminopropanoic acid + water; phases: Liquid
Property: Molar enthalpy of dilution, kJ/mol (Liquid); method: Calvet calorimetry
Initial molality of solute, mol/kg	Temperature, K	Pressure, kPa	Final molality of solute, mol/kg	Molar enthalpy of dilution, kJ/mol	uncertainty
0.0016	298.15	101	0.0008	0.563	0.056

System: L-phenylalanine + water; phases: Liquid
Property: Molar enthalpy of dilution, kJ/mol (Liquid); method: Calvet calorimetry
Initial molality of solute, mol/kg	Temperature, K	Pressure, kPa	Final molality of solute, mol/kg	Molar enthalpy of dilution, kJ/mol	uncertainty
0.0016	298.15	101	0.0008	0.75	0.075

System: L-tryptophan + water; phases: Liquid
Property: Molar enthalpy of dilution, kJ/mol (Liquid); method: Calvet calorimetry
Initial molality of solute, mol/kg	Temperature, K	Pressure, kPa	Final molality of solute, mol/kg	Molar enthalpy of dilution, kJ/mol	uncertainty
0.0016	298.15	101	0.0008	0.813	0.082

System: L-methionine + water; phases: Liquid
Property: Molar enthalpy of dilution, kJ/mol (Liquid); method: Calvet calorimetry
Initial molality of solute, mol/kg	Temperature, K	Pressure, kPa	Final molality of solute, mol/kg	Molar enthalpy of dilution, kJ/mol	uncertainty
0.0016	298.15	101	0.0008	0.719	0.072

System: L-proline + water; phases: Liquid
Property: Molar enthalpy of dilution, kJ/mol (Liquid); method: Calvet calorimetry
Initial molality of solute, mol/kg	Temperature, K	Pressure, kPa	Final molality of solute, mol/kg	Molar enthalpy of dilution, kJ/mol	uncertainty
0.0016	298.15	101	0.0008	0.469	0.047

System: L-threonine + water; phases: Liquid
Property: Molar enthalpy of dilution, kJ/mol (Liquid); method: Calvet calorimetry
Initial molality of solute, mol/kg	Temperature, K	Pressure, kPa	Final molality of solute, mol/kg	Molar enthalpy of dilution, kJ/mol	uncertainty
0.0016	298.15	101	0.0008	0.875	0.088

System: 2-aminoacetic acid + water; phases: Liquid
Property: Molar enthalpy of dilution, kJ/mol (Liquid); method: Calvet calorimetry
Initial molality of solute, mol/kg	Temperature, K	Pressure, kPa	Final molality of solute, mol/kg	Molar enthalpy of dilution, kJ/mol	uncertainty
0.0016	298.15	101	0.0008	0.375	0.038

System: L-serine + water; phases: Liquid
Property: Molar enthalpy of dilution, kJ/mol (Liquid); method: Calvet calorimetry
Initial molality of solute, mol/kg	Temperature, K	Pressure, kPa	Final molality of solute, mol/kg	Molar enthalpy of dilution, kJ/mol	uncertainty
0.0016	298.15	101	0.0008	0.406	0.041

System: L-glutamine + water; phases: Liquid
Property: Molar enthalpy of dilution, kJ/mol (Liquid); method: Calvet calorimetry
Initial molality of solute, mol/kg	Temperature, K	Pressure, kPa	Final molality of solute, mol/kg	Molar enthalpy of dilution, kJ/mol	uncertainty
0.0016	298.15	101	0.0008	0.563	0.056

System: L-asparagine + water; phases: Liquid
Property: Molar enthalpy of dilution, kJ/mol (Liquid); method: Calvet calorimetry
Initial molality of solute, mol/kg	Temperature, K	Pressure, kPa	Final molality of solute, mol/kg	Molar enthalpy of dilution, kJ/mol	uncertainty
0.0016	298.15	101	0.0008	0.5	0.05
