Measured thermophysical data. Probing subsistence of ion-pair and triple-ion of an ionic salt in liquid environments by means of conductometric contrivance
Source: J. Chem. Thermodyn., 2013, 10.1016/j.jct.2013.03.018
Compound 1: tetrabutylammonium tetrafluoroborate, C16H36BF4N, InChI=1S/C16H36N.BF4/c1-5-9-13-17(14-10-6-2,15-11-7-3)16-12-8-4;2-1(3,4)5/h5-16H2,1-4H3;/q+1;-1, purity 99%
Compound 2: acetonitrile, C2H3N, InChI=1S/C2H3N/c1-2-3/h1H3, purity 98%
Compound 3: methanol, CH4O, InChI=1S/CH4O/c1-2/h2H,1H3, purity 98%
Compound 4: dimethyl sulfoxide, C2H6OS, InChI=1S/C2H6OS/c1-4(2)3/h1-2H3, purity 98%
Compound 5: 1,3-dioxolane, C3H6O2, InChI=1S/C3H6O2/c1-2-5-3-4-1/h1-3H2, purity 98%

System: acetonitrile; phases: Liquid
Property: Mass density, kg/m3 (Liquid); method: Vibrating tube method
Temperature, K	Pressure, kPa	Mass density, kg/m3	uncertainty
298.15	101.325	776.74	1.14

System: acetonitrile; phases: Liquid
Property: Viscosity, Pa*s (Liquid); method: Capillary tube (Ostwald; Ubbelohde) method
Temperature, K	Pressure, kPa	Viscosity, Pa*s	uncertainty
298.15	101.325	0.000343	8e-06

System: methanol; phases: Liquid
Property: Mass density, kg/m3 (Liquid); method: Vibrating tube method
Temperature, K	Pressure, kPa	Mass density, kg/m3	uncertainty
298.15	101.325	786.6	1.15

System: methanol; phases: Liquid
Property: Viscosity, Pa*s (Liquid); method: Capillary tube (Ostwald; Ubbelohde) method
Temperature, K	Pressure, kPa	Viscosity, Pa*s	uncertainty
298.15	101.325	0.000545	1.3e-05

System: dimethyl sulfoxide; phases: Liquid
Property: Mass density, kg/m3 (Liquid); method: Vibrating tube method
Temperature, K	Pressure, kPa	Mass density, kg/m3	uncertainty
298.15	101.325	1096	1.38

System: dimethyl sulfoxide; phases: Liquid
Property: Viscosity, Pa*s (Liquid); method: Capillary tube (Ostwald; Ubbelohde) method
Temperature, K	Pressure, kPa	Viscosity, Pa*s	uncertainty
298.15	101.325	0.001948	4.5e-05

System: 1,3-dioxolane; phases: Liquid
Property: Mass density, kg/m3 (Liquid); method: Vibrating tube method
Temperature, K	Pressure, kPa	Mass density, kg/m3	uncertainty
298.15	101.325	1058.7	1.33

System: 1,3-dioxolane; phases: Liquid
Property: Viscosity, Pa*s (Liquid); method: Capillary tube (Ostwald; Ubbelohde) method
Temperature, K	Pressure, kPa	Viscosity, Pa*s	uncertainty
298.15	101.325	0.000592	1.4e-05

System: acetonitrile + tetrabutylammonium tetrafluoroborate; phases: Liquid
Fixed: Pressure, kPa = 101
Fixed: Temperature, K = 298.15
Property: Molar conductivity, S*m2/mol (Liquid); method: Alternating current cell with electrodes
Amount concentration (molarity), mol/dm3 of tetrabutylammonium tetrafluoroborate	Molar conductivity, S*m2/mol	uncertainty
0.000935	0.015635	0.000197
0.001633	0.015333	0.000176
0.002309	0.015121	0.000155
0.00281	0.014963	0.000145
0.003382	0.014814	0.000133
0.003857	0.014703	0.000131
0.004242	0.014597	0.000131
0.004722	0.014491	0.000121
0.005388	0.014356	0.000117
0.006	0.014239	0.000115
0.006548	0.014134	0.000113
0.007091	0.014034	0.00011
0.007531	0.013959	0.000109
0.00793	0.013886	0.000109
0.008308	0.013822	0.000109

System: methanol + tetrabutylammonium tetrafluoroborate; phases: Liquid
Fixed: Pressure, kPa = 101
Fixed: Temperature, K = 298.15
Property: Molar conductivity, S*m2/mol (Liquid); method: Alternating current cell with electrodes
Amount concentration (molarity), mol/dm3 of tetrabutylammonium tetrafluoroborate	Molar conductivity, S*m2/mol	uncertainty
0.001331	0.010408	0.000182
0.001819	0.010199	0.000154
0.0026	0.009956	0.000128
0.003553	0.009708	0.000117
0.004458	0.009484	0.000106
0.00532	0.009314	9.6e-05
0.006093	0.009165	9.2e-05
0.006924	0.00902	9.3e-05
0.0075	0.008899	9.1e-05
0.008121	0.008799	8e-05
0.008889	0.008691	8.2e-05
0.009456	0.008588	8.1e-05
0.010201	0.008485	7.2e-05
0.011024	0.008386	7.2e-05
0.011882	0.008269	7.4e-05

System: dimethyl sulfoxide + tetrabutylammonium tetrafluoroborate; phases: Liquid
Fixed: Pressure, kPa = 101
Fixed: Temperature, K = 298.15
Property: Molar conductivity, S*m2/mol (Liquid); method: Alternating current cell with electrodes
Amount concentration (molarity), mol/dm3 of tetrabutylammonium tetrafluoroborate	Molar conductivity, S*m2/mol	uncertainty
0.002063	0.003294	7.1e-05
0.003783	0.003001	6.3e-05
0.005238	0.002818	4.7e-05
0.006485	0.002704	4e-05
0.007566	0.002603	4.2e-05
0.009346	0.002424	4e-05
0.010752	0.002305	3.8e-05
0.011889	0.002196	3.6e-05
0.01324	0.002099	3e-05
0.014291	0.002031	2.8e-05
0.015132	0.00198	2.9e-05
0.015819	0.001929	3e-05
0.016878	0.001859	3e-05
0.017654	0.001799	3.3e-05
0.018785	0.001712	3.2e-05

System: tetrabutylammonium tetrafluoroborate + 1,3-dioxolane; phases: Liquid
Fixed: Pressure, kPa = 101
Fixed: Temperature, K = 298.15
Property: Molar conductivity, S*m2/mol (Liquid); method: Alternating current cell with electrodes
Amount concentration (molarity), mol/dm3 of tetrabutylammonium tetrafluoroborate	Molar conductivity, S*m2/mol	uncertainty
1.7e-05	0.00596	3.6e-05
2.3e-05	0.005397	3.2e-05
2.9e-05	0.005015	3e-05
3.3e-05	0.00474	2.8e-05
3.8e-05	0.004527	2.7e-05
4.4e-05	0.004225	2.5e-05
5e-05	0.00398	2.4e-05
5.7e-05	0.003795	2.3e-05
6.3e-05	0.003588	2.2e-05
6.9e-05	0.003405	2e-05
7.7e-05	0.003326	2e-05
8.4e-05	0.003268	2e-05
9.3e-05	0.003309	2e-05
0.0001	0.003463	2.1e-05
0.000105	0.003571	2.1e-05
