Measured thermophysical data. Excess molar volume and viscosity deviation for binary mixtures of gamma-butyrolactone with dimethyl sulfoxide
Source: J. Chem. Thermodyn., 2017, 10.1016/j.jct.2017.02.009
Compound 1: dimethyl sulfoxide, C2H6OS, InChI=1S/C2H6OS/c1-4(2)3/h1-2H3, purity 99%
Compound 2: .gamma.-butyrolactone, C4H6O2, InChI=1S/C4H6O2/c5-4-2-1-3-6-4/h1-3H2, purity 99%

System: dimethyl sulfoxide; phases: Liquid
Fixed: Pressure, kPa = 100
Property: Mass density, kg/m3 (Liquid); method: Vibrating tube method
Temperature, K	Mass density, kg/m3	uncertainty
293.15	1100.2	1
298.15	1095.2	1
303.15	1090.2	1
313.15	1080.2	1

System: dimethyl sulfoxide; phases: Liquid
Property: Viscosity, Pa*s (Liquid); method: Capillary tube (Ostwald; Ubbelohde) method
Temperature, K	Pressure, kPa	Viscosity, Pa*s	uncertainty
298.15	100	0.001985	2.5e-05

System: .gamma.-butyrolactone; phases: Liquid
Fixed: Pressure, kPa = 100
Property: Mass density, kg/m3 (Liquid); method: Vibrating tube method
Temperature, K	Mass density, kg/m3	uncertainty
293.15	1129.4	1
298.15	1124.5	1
303.15	1119.6	1
313.15	1109.8	1

System: .gamma.-butyrolactone; phases: Liquid
Property: Viscosity, Pa*s (Liquid); method: Capillary tube (Ostwald; Ubbelohde) method
Temperature, K	Pressure, kPa	Viscosity, Pa*s	uncertainty
298.15	100	0.00172	2.4e-05

System: dimethyl sulfoxide + .gamma.-butyrolactone; phases: Liquid
Fixed: Pressure, kPa = 100
Property: Mass density, kg/m3 (Liquid); method: Vibrating tube method
Temperature, K	Mole fraction of dimethyl sulfoxide	Mass density, kg/m3	uncertainty
293.15	0	1129.4	1
293.15	0.051	1127.5	1.1
293.15	0.098	1125.9	1.1
293.15	0.152	1124	1.1
293.15	0.221	1121.7	1.1
293.15	0.251	1120.7	1.1
293.15	0.298	1119.1	1.1
293.15	0.352	1117.4	1.1
293.15	0.398	1116	1.1
293.15	0.447	1114.5	1.1
293.15	0.498	1113	1
293.15	0.546	1111.6	1
293.15	0.596	1110.2	1
293.15	0.648	1108.7	1
293.15	0.7	1107.4	1
293.15	0.742	1106.3	1
293.15	0.797	1104.9	1
293.15	0.848	1103.6	1
293.15	0.9	1102.4	1
293.15	0.95	1101.3	1
293.15	1	1100.2	1
298.15	0	1124.5	1
298.15	0.051	1122.6	1.1
298.15	0.098	1121	1.1
298.15	0.152	1119.1	1.1
298.15	0.221	1116.8	1.1
298.15	0.251	1115.7	1.1
298.15	0.298	1114.2	1.1
298.15	0.352	1112.5	1.1
298.15	0.398	1111	1.1
298.15	0.447	1109.6	1
298.15	0.498	1108	1
298.15	0.546	1106.6	1
298.15	0.596	1105.2	1
298.15	0.648	1103.8	1
298.15	0.7	1102.4	1
298.15	0.742	1101.3	1
298.15	0.797	1099.9	1
298.15	0.848	1098.7	1
298.15	0.9	1097.4	1
298.15	0.95	1096.3	1
298.15	1	1095.2	1
303.15	0	1119.6	1
303.15	0.051	1117.7	1.1
303.15	0.098	1116.1	1.1
303.15	0.152	1114.2	1.1
303.15	0.221	1111.9	1.1
303.15	0.251	1110.8	1.1
303.15	0.298	1109.3	1.1
303.15	0.352	1107.6	1.1
303.15	0.398	1106.1	1
303.15	0.447	1104.7	1
303.15	0.498	1103.1	1
303.15	0.546	1101.7	1
303.15	0.596	1100.3	1
303.15	0.648	1098.8	1
303.15	0.7	1097.4	1
303.15	0.742	1096.4	1
303.15	0.797	1094.9	1
303.15	0.848	1093.7	1
303.15	0.9	1092.4	1
303.15	0.95	1091.3	1
303.15	1	1090.2	1
313.15	0	1109.8	1
313.15	0.051	1107.9	1.1
313.15	0.098	1106.3	1.1
313.15	0.152	1104.4	1.1
313.15	0.221	1102.1	1.1
313.15	0.251	1101	1
313.15	0.298	1099.5	1
313.15	0.352	1097.8	1
313.15	0.398	1096.3	1
313.15	0.447	1094.8	1
313.15	0.498	1093.3	1
313.15	0.546	1091.9	1
313.15	0.596	1090.4	1
313.15	0.648	1089	1
313.15	0.7	1087.6	1
313.15	0.742	1086.4	1
313.15	0.797	1085	1
313.15	0.848	1083.7	1
313.15	0.9	1082.5	1
313.15	0.95	1081.3	1
313.15	1	1080.2	1

System: dimethyl sulfoxide + .gamma.-butyrolactone; phases: Liquid
Fixed: Temperature, K = 298.15
Fixed: Pressure, kPa = 100
Property: Viscosity, Pa*s (Liquid); method: Capillary tube (Ostwald; Ubbelohde) method
Mole fraction of dimethyl sulfoxide	Viscosity, Pa*s	uncertainty
0	0.00172	2.4e-05
0.098	0.001724	2.4e-05
0.221	0.001724	2.4e-05
0.298	0.001724	2.4e-05
0.398	0.001739	2.4e-05
0.498	0.001763	2.4e-05
0.596	0.001791	2.4e-05
0.7	0.001839	2.4e-05
0.797	0.001883	2.5e-05
0.9	0.001921	2.5e-05
1	0.001985	2.5e-05
