Measured thermophysical data. Thermodynamics of the first and second proton dissociations from aqueous L-aspartic acid and L-glutamic acid at temperatures from (278.15 to 393.15) K and at the pressure 0.35 MPa: Apparent molar heat capacities and apparent molar volumes of zwitterionic, protonated cationic, and deprotonated anionic forms at molalities from (0.002 to 1.0) mol Ae kg 1
Source: J. Chem. Thermodyn., 2007, 10.1016/j.jct.2006.08.008
Compound 1: L-aminosuccinic acid, C4H7NO4, InChI=1S/C4H7NO4/c5-2(4(8)9)1-3(6)7/h2H,1,5H2,(H,6,7)(H,8,9)/t2-/m0/s1, purity 99.5%
Compound 2: L-glutamic acid, C5H9NO4, InChI=1S/C5H9NO4/c6-3(5(9)10)1-2-4(7)8/h3H,1-2,6H2,(H,7,8)(H,9,10)/t3-/m0/s1, purity 99.5%
Compound 3: hydrogen chloride, ClH, InChI=1S/ClH/h1H
Compound 4: sodium hydroxide, HNaO, InChI=1S/Na.H2O/h;1H2/q+1;/p-1
Compound 5: water, H2O, InChI=1S/H2O/h1H2, purity 99.99%

System: L-aminosuccinic acid + water; phases: Liquid
Fixed: Pressure, kPa = 350
Property: Molar heat capacity at constant pressure, J/K/mol (Liquid); method: LDSC:UFactor:0.2
Temperature, K	Molality, mol/kg of L-aminosuccinic acid	Molar heat capacity at constant pressure, J/K/mol	uncertainty
278.15	0.002	75.71222	0.3027
278.15	0.004	75.71342	0.3028
278.15	0.00601	75.7129	0.3029
278.15	0.00801	75.71228	0.3029
278.15	0.01	75.70795	0.303
283.15	0.002	75.53924	0.3027
283.15	0.004	75.5404	0.3028
283.15	0.00601	75.53983	0.3029
283.15	0.00801	75.54098	0.3029
283.15	0.01	75.53661	0.303
288.15	0.002	75.42211	0.3009
288.15	0.004	75.42324	0.301
288.15	0.00601	75.42626	0.3011
288.15	0.00801	75.42557	0.3011
288.15	0.01	75.42298	0.3012
293.15	0.002	75.34463	0.3009
293.15	0.004	75.34394	0.301
293.15	0.00601	75.34874	0.3011
293.15	0.00801	75.34984	0.3011
293.15	0.01	75.34723	0.3012
298.15	0.002	75.29417	0.3009
298.15	0.004	75.29348	0.301
298.15	0.00601	75.30006	0.3011
298.15	0.00801	75.30115	0.3011
298.15	0.01	75.30034	0.3012
303.15	0.002	75.26174	0.3009
303.15	0.004	75.26103	0.301
303.15	0.00601	75.26761	0.3011
303.15	0.00801	75.2705	0.3011
303.15	0.01	75.26968	0.3012
308.15	0.002	75.24732	0.3009
308.15	0.004	75.24661	0.301
308.15	0.00601	75.255	0.3011
308.15	0.00801	75.25788	0.3011
308.15	0.01	75.25705	0.3012
313.15	0.002	75.24732	0.3009
313.15	0.004	75.24661	0.301
313.15	0.00601	75.25319	0.3011
313.15	0.00801	75.25788	0.3011
313.15	0.01	75.25705	0.3012
318.15	0.002	75.25994	0.3009
318.15	0.004	75.26103	0.301
318.15	0.00601	75.26761	0.3011
318.15	0.00801	75.2705	0.3011
318.15	0.01	75.27148	0.3012
323.15	0.002	75.28156	0.3009
323.15	0.004	75.28446	0.301
323.15	0.00601	75.28925	0.3011
323.15	0.00801	75.29394	0.3011
323.15	0.01	75.29493	0.3012
328.15	0.002	75.314	0.3009
328.15	0.004	75.31691	0.301
328.15	0.00601	75.3217	0.3011
328.15	0.00801	75.3264	0.3011
328.15	0.01	75.32739	0.3012
333.15	0.002	75.35364	0.3009
333.15	0.004	75.35836	0.301
333.15	0.00601	75.36316	0.3011
333.15	0.00801	75.36607	0.3011
333.15	0.01	75.36707	0.3012
338.15	0.002	75.40229	0.3009
338.15	0.004	75.40883	0.301
338.15	0.00601	75.41184	0.3011
338.15	0.00801	75.41475	0.3011
338.15	0.01	75.41757	0.3012
343.15	0.002	75.45995	0.3027
343.15	0.004	75.4665	0.301
343.15	0.00601	75.46953	0.3011
343.15	0.00801	75.47426	0.3011
343.15	0.01	75.47529	0.3012
348.15	0.002	75.52482	0.3027
348.15	0.004	75.53319	0.3028
348.15	0.00601	75.53443	0.3029
348.15	0.00801	75.53917	0.3029
348.15	0.01	75.54022	0.303
353.15	0.002	75.5969	0.3027
353.15	0.004	75.60528	0.3028
353.15	0.00601	75.60654	0.3029
353.15	0.00801	75.6113	0.3029
353.15	0.01	75.61236	0.303
358.15	0.002	75.67619	0.3027
358.15	0.004	75.68639	0.3028
358.15	0.00601	75.68586	0.3029
358.15	0.00801	75.69064	0.3029
358.15	0.01	75.69172	0.303
363.15	0.002	75.76268	0.3027
363.15	0.004	75.7729	0.3028
363.15	0.00601	75.77239	0.3029
363.15	0.00801	75.77719	0.3029
363.15	0.01	75.77829	0.303
368.15	0.002	75.85818	0.3027
368.15	0.004	75.86843	0.3028
368.15	0.00601	75.86794	0.3029
368.15	0.00801	75.87276	0.3029
368.15	0.01	75.87389	0.303
373.15	0.002	75.96089	0.3045
373.15	0.004	75.96936	0.3046
373.15	0.00601	75.96889	0.3047
373.15	0.00801	75.97374	0.3047
373.15	0.01	75.97669	0.3048
378.15	0.002	76.07441	0.3045
378.15	0.004	76.08291	0.3046
378.15	0.00601	76.08247	0.3047
378.15	0.00801	76.08734	0.3047
378.15	0.01	76.08851	0.3048
383.15	0.002	76.19515	0.3045
383.15	0.004	76.20367	0.3046
383.15	0.00601	76.20325	0.3047
383.15	0.00801	76.20816	0.3047
383.15	0.01	76.20935	0.3048
388.15	0.002	76.32669	0.3045
388.15	0.004	76.33524	0.3046
388.15	0.00601	76.33486	0.3047
388.15	0.00801	76.33979	0.3047
388.15	0.01	76.33921	0.3048
393.15	0.002	76.46904	0.3063
393.15	0.004	76.47762	0.3064
393.15	0.00601	76.47728	0.3065
393.15	0.00801	76.48044	0.3065
393.15	0.01	76.4817	0.3066

System: L-aminosuccinic acid + water; phases: Liquid
Fixed: Pressure, kPa = 350
Property: Mass density, kg/m3 (Liquid); method: VIBTUB:UFactor:4
Temperature, K	Molality, mol/kg of L-aminosuccinic acid	Mass density, kg/m3	uncertainty
278.15	0.002	1000.34	0.17
278.15	0.004	1000.29	0.17
278.15	0.00601	1000.42	0.17
278.15	0.00801	1000.62	0.17
278.15	0.01	1000.79	0.17
283.15	0.002	1000.09	0.17
283.15	0.004	1000.05	0.17
283.15	0.00601	1000.2	0.17
283.15	0.00801	1000.36	0.17
283.15	0.01	1000.48	0.17
288.15	0.002	999.47	0.17
288.15	0.004	999.41	0.17
288.15	0.00601	999.59	0.17
288.15	0.00801	999.76	0.17
288.15	0.01	999.84	0.17
298.15	0.002	997.39	0.17
298.15	0.004	997.34	0.17
298.15	0.00601	997.51	0.17
298.15	0.00801	997.69	0.17
298.15	0.01	997.73	0.17
308.15	0.002	994.35	0.18
308.15	0.004	994.31	0.18
308.15	0.00601	994.5	0.18
308.15	0.00801	994.64	0.18
308.15	0.01	994.7	0.18
318.15	0.002	990.53	0.19
318.15	0.004	990.51	0.19
318.15	0.00601	990.66	0.19
318.15	0.00801	990.76	0.19
318.15	0.01	990.87	0.19
328.15	0.002	985.99	0.2
328.15	0.004	986.02	0.2
328.15	0.00601	986.15	0.2
328.15	0.00801	986.25	0.2
328.15	0.01	986.33	0.2
338.15	0.002	980.85	0.21
338.15	0.004	980.89	0.21
338.15	0.00601	981.01	0.21
338.15	0.00801	981.13	0.21
338.15	0.01	981.18	0.21
348.15	0.002	975.14	0.22
348.15	0.004	975.19	0.22
348.15	0.00601	975.26	0.22
348.15	0.00801	975.41	0.22
348.15	0.01	975.51	0.22
358.15	0.002	968.93	0.23
358.15	0.004	968.98	0.23
358.15	0.00601	969.03	0.23
358.15	0.00801	969.18	0.23
358.15	0.01	969.3	0.23
368.15	0.002	962.17	0.25
368.15	0.004	962.28	0.25
368.15	0.00601	962.3	0.25
368.15	0.00801	962.49	0.25
368.15	0.01	962.59	0.25

System: L-glutamic acid + water; phases: Liquid
Fixed: Pressure, kPa = 350
Property: Molar heat capacity at constant pressure, J/K/mol (Liquid); method: LDSC:UFactor:0.2
Temperature, K	Molality, mol/kg of L-glutamic acid	Molar heat capacity at constant pressure, J/K/mol	uncertainty
278.15	0.00249	75.67228	0.3028
278.15	0.005	75.6986	0.3029
278.15	0.00999	75.72568	0.303
278.15	0.01497	75.72916	0.3032
278.15	0.02005	75.73716	0.3034
283.15	0.00249	75.50288	0.3028
283.15	0.005	75.52554	0.3029
283.15	0.00999	75.55251	0.303
283.15	0.01497	75.56129	0.3014
283.15	0.02005	75.56738	0.3016
288.15	0.00249	75.39476	0.301
288.15	0.005	75.41197	0.301
288.15	0.00999	75.43886	0.3012
288.15	0.01497	75.45119	0.3014
288.15	0.02005	75.45539	0.3016
293.15	0.00249	75.32087	0.301
293.15	0.005	75.33986	0.301
293.15	0.00999	75.3613	0.3012
293.15	0.01497	75.37899	0.3014
293.15	0.02005	75.38134	0.3016
298.15	0.00249	75.27041	0.301
298.15	0.005	75.29479	0.301
298.15	0.00999	75.31259	0.3012
298.15	0.01497	75.33206	0.3014
298.15	0.02005	75.33257	0.3016
303.15	0.00249	75.23978	0.301
303.15	0.005	75.26595	0.301
303.15	0.00999	75.28193	0.3012
303.15	0.01497	75.29957	0.3014
303.15	0.02005	75.30367	0.3016
308.15	0.00249	75.22716	0.301
308.15	0.005	75.25333	0.301
308.15	0.00999	75.2675	0.3012
308.15	0.01497	75.28513	0.3014
308.15	0.02005	75.29103	0.3016
313.15	0.00249	75.22896	0.301
313.15	0.005	75.25333	0.301
313.15	0.00999	75.2675	0.3012
313.15	0.01497	75.28332	0.3014
313.15	0.02005	75.29103	0.3016
318.15	0.00249	75.24338	0.301
318.15	0.005	75.26775	0.301
318.15	0.00999	75.28013	0.3012
318.15	0.01497	75.29596	0.3014
318.15	0.02005	75.30548	0.3016
323.15	0.00249	75.26501	0.301
323.15	0.005	75.28939	0.301
323.15	0.00999	75.30177	0.3012
323.15	0.01497	75.31762	0.3014
323.15	0.02005	75.32896	0.3016
328.15	0.00249	75.29925	0.301
328.15	0.005	75.32183	0.301
328.15	0.00999	75.33604	0.3012
328.15	0.01497	75.35191	0.3014
328.15	0.02005	75.36328	0.3016
333.15	0.00249	75.33889	0.301
333.15	0.005	75.3633	0.301
333.15	0.00999	75.37573	0.3012
333.15	0.01497	75.39343	0.3014
333.15	0.02005	75.40301	0.3016
338.15	0.00249	75.38755	0.301
338.15	0.005	75.41197	0.301
338.15	0.00999	75.42624	0.3012
338.15	0.01497	75.44397	0.3014
338.15	0.02005	75.45359	0.3016
343.15	0.00249	75.44522	0.301
343.15	0.005	75.46965	0.301
343.15	0.00999	75.48396	0.3012
343.15	0.01497	75.50353	0.3014
343.15	0.02005	75.51139	0.3016
348.15	0.00249	75.51009	0.3028
348.15	0.005	75.53635	0.3029
348.15	0.00999	75.5489	0.303
348.15	0.01497	75.57032	0.3014
348.15	0.02005	75.57641	0.3016
353.15	0.00249	75.58398	0.3028
353.15	0.005	75.61026	0.3029
353.15	0.00999	75.62105	0.303
353.15	0.01497	75.64432	0.3032
353.15	0.02005	75.65046	0.3034
358.15	0.00249	75.66327	0.3028
358.15	0.005	75.68958	0.3029
358.15	0.00999	75.70042	0.303
358.15	0.01497	75.72374	0.3032
358.15	0.02005	75.72993	0.3034
363.15	0.00249	75.74977	0.3028
363.15	0.005	75.77792	0.3029
363.15	0.00999	75.78701	0.303
363.15	0.01497	75.81219	0.3032
363.15	0.02005	75.81663	0.3034
368.15	0.00249	75.84528	0.3028
368.15	0.005	75.87346	0.3029
368.15	0.00999	75.88261	0.303
368.15	0.01497	75.90966	0.3032
368.15	0.02005	75.91236	0.3034
373.15	0.00249	75.948	0.3046
373.15	0.005	75.97621	0.3047
373.15	0.00999	75.98543	0.303
373.15	0.01497	76.01254	0.3032
373.15	0.02005	76.01531	0.3034
378.15	0.00249	76.06154	0.3046
378.15	0.005	76.08978	0.3047
378.15	0.00999	76.09907	0.3049
378.15	0.01497	76.12626	0.305
378.15	0.02005	76.1273	0.3052
383.15	0.00249	76.18408	0.3046
383.15	0.005	76.20876	0.3047
383.15	0.00999	76.21993	0.3049
383.15	0.01497	76.249	0.305
383.15	0.02005	76.24831	0.3052
388.15	0.00249	76.31744	0.3046
388.15	0.005	76.34035	0.3047
388.15	0.00999	76.35161	0.3049
388.15	0.01497	76.38257	0.305
388.15	0.02005	76.37836	0.3052
393.15	0.00249	76.458	0.3064
393.15	0.005	76.48096	0.3065
393.15	0.00999	76.49051	0.3067
393.15	0.01497	76.52697	0.3069
393.15	0.02005	76.51382	0.3052

System: L-glutamic acid + water; phases: Liquid
Fixed: Pressure, kPa = 350
Property: Mass density, kg/m3 (Liquid); method: VIBTUB:UFactor:4
Temperature, K	Molality, mol/kg of L-glutamic acid	Mass density, kg/m3	uncertainty
278.15	0.00249	1000.19	0.17
278.15	0.005	1000.25	0.17
278.15	0.00999	1001.06	0.17
278.15	0.01497	1000.93	0.17
278.15	0.02005	1001.36	0.17
283.15	0.00249	999.98	0.17
283.15	0.005	999.98	0.17
283.15	0.00999	1000.74	0.17
283.15	0.01497	1000.64	0.17
283.15	0.02005	1001.07	0.17
288.15	0.00249	999.38	0.17
288.15	0.005	999.38	0.17
288.15	0.00999	1000.11	0.17
288.15	0.01497	1000.03	0.17
288.15	0.02005	1000.44	0.17
298.15	0.00249	997.3	0.17
298.15	0.005	997.33	0.17
298.15	0.00999	998.03	0.17
298.15	0.01497	997.95	0.17
298.15	0.02005	998.34	0.17
308.15	0.00249	994.32	0.18
308.15	0.005	994.31	0.18
308.15	0.00999	994.97	0.18
308.15	0.01497	994.92	0.18
308.15	0.02005	995.33	0.18
318.15	0.00249	990.49	0.19
318.15	0.005	990.5	0.19
318.15	0.00999	991.14	0.19
318.15	0.01497	991.09	0.19
318.15	0.02005	991.48	0.19
328.15	0.00249	985.92	0.2
328.15	0.005	985.99	0.2
328.15	0.00999	986.59	0.2
328.15	0.01497	986.57	0.2
328.15	0.02005	986.97	0.2
338.15	0.00249	980.82	0.21
338.15	0.005	980.87	0.21
338.15	0.00999	981.45	0.21
338.15	0.01497	981.46	0.21
338.15	0.02005	981.84	0.21
348.15	0.00249	975.1	0.22
348.15	0.005	975.18	0.22
348.15	0.00999	975.74	0.22
348.15	0.01497	975.74	0.22
348.15	0.02005	976.12	0.22
358.15	0.00249	968.87	0.23
358.15	0.005	968.96	0.23
358.15	0.00999	969.5	0.23
358.15	0.01497	969.51	0.23
358.15	0.02005	969.88	0.23
368.15	0.00249	962.18	0.25
368.15	0.005	962.24	0.25
368.15	0.00999	962.76	0.25
368.15	0.01497	962.76	0.25
368.15	0.02005	963.12	0.25

System: L-aminosuccinic acid + hydrogen chloride + water; phases: Liquid
Fixed: Pressure, kPa = 350
Property: Molar heat capacity at constant pressure, J/K/mol (Liquid); method: LDSC:UFactor:0.2
Temperature, K	Molality, mol/kg of L-aminosuccinic acid	Molality, mol/kg of hydrogen chloride	Molar heat capacity at constant pressure, J/K/mol	uncertainty
278.15	0.0083	0.0121	75.67214	0.303
278.15	0.05	0.051	75.59856	0.3029
278.15	0.0999	0.1005	75.5298	0.303
278.15	0.1486	0.1491	75.46262	0.3013
278.15	0.2001	0.201	75.45714	0.3014
278.15	0.2506	0.2585	75.39178	0.3016
278.15	0.2585	0.2586	75.40512	0.3018
283.15	0.0083	0.0121	75.5008	0.3012
283.15	0.05	0.051	75.44985	0.3011
283.15	0.0999	0.1005	75.40019	0.3012
283.15	0.1486	0.1491	75.36158	0.3013
283.15	0.2001	0.201	75.36652	0.3014
283.15	0.2506	0.2585	75.31918	0.3016
283.15	0.2585	0.2586	75.32687	0.3018
288.15	0.0083	0.0121	75.38717	0.3012
288.15	0.05	0.051	75.35192	0.3011
288.15	0.0999	0.1005	75.31622	0.3012
288.15	0.1486	0.1491	75.29544	0.3013
288.15	0.2001	0.201	75.31474	0.3014
288.15	0.2506	0.2585	75.28009	0.3016
288.15	0.2585	0.2586	75.28029	0.3018
293.15	0.0083	0.0121	75.31141	0.3012
293.15	0.05	0.051	75.28663	0.3011
293.15	0.0999	0.1005	75.26328	0.3012
293.15	0.1486	0.1491	75.25503	0.3013
293.15	0.2001	0.201	75.28885	0.3014
293.15	0.2506	0.2585	75.26333	0.3016
293.15	0.2585	0.2586	75.25793	0.3018
298.15	0.0083	0.0121	75.26271	0.3012
298.15	0.05	0.051	75.24673	0.3011
298.15	0.0999	0.1005	75.22859	0.3012
298.15	0.1486	0.1491	75.23482	0.3013
298.15	0.2001	0.201	75.27405	0.3014
298.15	0.2506	0.2585	75.25961	0.3016
298.15	0.2585	0.2586	75.25234	0.3018
303.15	0.0083	0.0121	75.23205	0.3012
303.15	0.05	0.051	75.22315	0.3011
303.15	0.0999	0.1005	75.21034	0.3012
303.15	0.1486	0.1491	75.22747	0.3013
303.15	0.2001	0.201	75.27405	0.3014
303.15	0.2506	0.2585	75.26705	0.3016
303.15	0.2585	0.2586	75.25607	0.3018
308.15	0.0083	0.0121	75.21943	0.3012
308.15	0.05	0.051	75.21408	0.3011
308.15	0.0999	0.1005	75.20851	0.3012
308.15	0.1486	0.1491	75.23114	0.3013
308.15	0.2001	0.201	75.2833	0.3014
308.15	0.2506	0.2585	75.28195	0.3016
308.15	0.2585	0.2586	75.27284	0.3018
313.15	0.0083	0.0121	75.21762	0.3012
313.15	0.05	0.051	75.21771	0.3011
313.15	0.0999	0.1005	75.21764	0.3012
313.15	0.1486	0.1491	75.24584	0.3013
313.15	0.2001	0.201	75.29625	0.3014
313.15	0.2506	0.2585	75.30242	0.3016
313.15	0.2585	0.2586	75.29519	0.3018
318.15	0.0083	0.0121	75.23205	0.3012
318.15	0.05	0.051	75.23585	0.3011
318.15	0.0999	0.1005	75.23955	0.3012
318.15	0.1486	0.1491	75.26972	0.3013
318.15	0.2001	0.201	75.32029	0.3014
318.15	0.2506	0.2585	75.33221	0.3016
318.15	0.2585	0.2586	75.32687	0.3018
323.15	0.0083	0.0121	75.2537	0.3012
323.15	0.05	0.051	75.26124	0.3011
323.15	0.0999	0.1005	75.27058	0.3012
323.15	0.1486	0.1491	75.29912	0.3013
323.15	0.2001	0.201	75.34988	0.3014
323.15	0.2506	0.2585	75.36944	0.3016
323.15	0.2585	0.2586	75.36413	0.3018
328.15	0.0083	0.0121	75.28616	0.3012
328.15	0.05	0.051	75.29751	0.3011
328.15	0.0999	0.1005	75.30892	0.3012
328.15	0.1486	0.1491	75.3377	0.3013
328.15	0.2001	0.201	75.39056	0.3014
328.15	0.2506	0.2585	75.41225	0.3016
328.15	0.2585	0.2586	75.41071	0.3018
333.15	0.0083	0.0121	75.32584	0.3012
333.15	0.05	0.051	75.33741	0.3011
333.15	0.0999	0.1005	75.35273	0.3012
333.15	0.1486	0.1491	75.38179	0.3013
333.15	0.2001	0.201	75.43495	0.3014
333.15	0.2506	0.2585	75.46251	0.3016
333.15	0.2585	0.2586	75.46101	0.3018
338.15	0.0083	0.0121	75.37454	0.3012
338.15	0.05	0.051	75.38819	0.3011
338.15	0.0999	0.1005	75.40749	0.3012
338.15	0.1486	0.1491	75.43506	0.3013
338.15	0.2001	0.201	75.48858	0.3014
338.15	0.2506	0.2585	75.51836	0.3016
338.15	0.2585	0.2586	75.51877	0.3018
343.15	0.0083	0.0121	75.43226	0.3012
343.15	0.05	0.051	75.44622	0.3011
343.15	0.0999	0.1005	75.46773	0.3012
343.15	0.1486	0.1491	75.49385	0.3013
343.15	0.2001	0.201	75.55146	0.3014
343.15	0.2506	0.2585	75.58165	0.3016
343.15	0.2585	0.2586	75.58025	0.3018
348.15	0.0083	0.0121	75.49719	0.3012
348.15	0.05	0.051	75.51332	0.3029
348.15	0.0999	0.1005	75.53528	0.303
348.15	0.1486	0.1491	75.55815	0.3031
348.15	0.2001	0.201	75.61803	0.3033
348.15	0.2506	0.2585	75.64867	0.3034
348.15	0.2585	0.2586	75.64919	0.3018
353.15	0.0083	0.0121	75.56933	0.303
353.15	0.05	0.051	75.58587	0.3029
353.15	0.0999	0.1005	75.6083	0.303
353.15	0.1486	0.1491	75.62979	0.3031
353.15	0.2001	0.201	75.69016	0.3033
353.15	0.2506	0.2585	75.72313	0.3034
353.15	0.2585	0.2586	75.72558	0.3037
358.15	0.0083	0.0121	75.6487	0.303
358.15	0.05	0.051	75.66566	0.3029
358.15	0.0999	0.1005	75.68862	0.303
358.15	0.1486	0.1491	75.70879	0.3031
358.15	0.2001	0.201	75.76783	0.3033
358.15	0.2506	0.2585	75.80131	0.3034
358.15	0.2585	0.2586	75.80569	0.3037
363.15	0.0083	0.0121	75.73527	0.303
363.15	0.05	0.051	75.7509	0.3029
363.15	0.0999	0.1005	75.77442	0.303
363.15	0.1486	0.1491	75.7933	0.3031
363.15	0.2001	0.201	75.85475	0.3033
363.15	0.2506	0.2585	75.8888	0.3034
363.15	0.2585	0.2586	75.89326	0.3037
368.15	0.0083	0.0121	75.83086	0.303
368.15	0.05	0.051	75.84521	0.3029
368.15	0.0999	0.1005	75.87117	0.303
368.15	0.1486	0.1491	75.88515	0.3031
368.15	0.2001	0.201	75.94907	0.3033
368.15	0.2506	0.2585	75.98374	0.3034
368.15	0.2585	0.2586	75.98642	0.3037
373.15	0.0083	0.0121	75.93187	0.303
373.15	0.05	0.051	75.94677	0.3047
373.15	0.0999	0.1005	75.9734	0.303
373.15	0.1486	0.1491	75.98436	0.3031
373.15	0.2001	0.201	76.05078	0.3033
373.15	0.2506	0.2585	76.08426	0.3034
373.15	0.2585	0.2586	76.08703	0.3037
378.15	0.0083	0.0121	76.0455	0.3048
378.15	0.05	0.051	76.05921	0.3047
378.15	0.0999	0.1005	76.08658	0.3049
378.15	0.1486	0.1491	76.09274	0.305
378.15	0.2001	0.201	76.15989	0.3051
378.15	0.2506	0.2585	76.19596	0.3053
378.15	0.2585	0.2586	76.19509	0.3056
383.15	0.0083	0.0121	76.16634	0.3048
383.15	0.05	0.051	76.1789	0.3047
383.15	0.0999	0.1005	76.20706	0.3049
383.15	0.1486	0.1491	76.20848	0.305
383.15	0.2001	0.201	76.2764	0.3051
383.15	0.2506	0.2585	76.31323	0.3053
383.15	0.2585	0.2586	76.31247	0.3056
388.15	0.0083	0.0121	76.29621	0.3048
388.15	0.05	0.051	76.30948	0.3047
388.15	0.0999	0.1005	76.33667	0.3049
388.15	0.1486	0.1491	76.3334	0.305
388.15	0.2001	0.201	76.40216	0.3051
388.15	0.2506	0.2585	76.43795	0.3053
388.15	0.2585	0.2586	76.4373	0.3056
393.15	0.0083	0.0121	76.43689	0.3066
393.15	0.05	0.051	76.45094	0.3065
393.15	0.0999	0.1005	76.47723	0.3067
393.15	0.1486	0.1491	76.46935	0.3068
393.15	0.2001	0.201	76.53716	0.307
393.15	0.2506	0.2585	76.57198	0.3072
393.15	0.2585	0.2586	76.57517	0.3056

System: L-aminosuccinic acid + hydrogen chloride + water; phases: Liquid
Fixed: Pressure, kPa = 350
Property: Mass density, kg/m3 (Liquid); method: VIBTUB:UFactor:4
Temperature, K	Molality, mol/kg of L-aminosuccinic acid	Molality, mol/kg of hydrogen chloride	Mass density, kg/m3	uncertainty
278.15	0.0083	0.0121	1000.75	0.17
278.15	0.025	0.0254	1002.08	0.17
278.15	0.05	0.051	1003.9	0.18
278.15	0.0999	0.1005	1007.55	0.18
278.15	0.1486	0.1491	1010.69	0.19
278.15	0.2001	0.201	1014.67	0.2
278.15	0.2506	0.2585	1018.22	0.21
278.15	0.2585	0.2586	1018.64	0.21
283.15	0.0083	0.0121	1000.48	0.17
283.15	0.025	0.0254	1001.78	0.17
283.15	0.05	0.051	1003.57	0.18
283.15	0.0999	0.1005	1007.19	0.18
283.15	0.1486	0.1491	1010.24	0.19
283.15	0.2001	0.201	1014.24	0.2
283.15	0.2506	0.2585	1017.66	0.21
283.15	0.2585	0.2586	1018.12	0.21
288.15	0.0083	0.0121	999.86	0.17
288.15	0.025	0.0254	1001.17	0.17
288.15	0.05	0.051	1002.93	0.17
288.15	0.0999	0.1005	1006.48	0.18
288.15	0.1486	0.1491	1009.49	0.19
288.15	0.2001	0.201	1013.43	0.2
288.15	0.2506	0.2585	1016.79	0.2
288.15	0.2585	0.2586	1017.3	0.2
298.15	0.0083	0.0121	997.78	0.17
298.15	0.025	0.0254	999.06	0.17
298.15	0.05	0.051	1000.78	0.17
298.15	0.0999	0.1005	1004.21	0.18
298.15	0.1486	0.1491	1007.18	0.18
298.15	0.2001	0.201	1011.05	0.19
298.15	0.2506	0.2585	1014.33	0.2
298.15	0.2585	0.2586	1014.84	0.2
308.15	0.0083	0.0121	994.76	0.18
308.15	0.025	0.0254	996.04	0.18
308.15	0.05	0.051	997.72	0.17
308.15	0.0999	0.1005	1001.1	0.17
308.15	0.1486	0.1491	1004.01	0.18
308.15	0.2001	0.201	1007.78	0.19
308.15	0.2506	0.2585	1011.04	0.19
308.15	0.2585	0.2586	1011.53	0.19
318.15	0.0083	0.0121	990.94	0.19
318.15	0.025	0.0254	992.15	0.19
318.15	0.05	0.051	993.87	0.18
318.15	0.0999	0.1005	997.2	0.18
318.15	0.1486	0.1491	1000.09	0.17
318.15	0.2001	0.201	1003.8	0.18
318.15	0.2506	0.2585	1007.04	0.19
318.15	0.2585	0.2586	1007.5	0.19
328.15	0.0083	0.0121	986.42	0.2
328.15	0.025	0.0254	987.61	0.19
328.15	0.05	0.051	989.31	0.19
328.15	0.0999	0.1005	992.63	0.19
328.15	0.1486	0.1491	995.53	0.18
328.15	0.2001	0.201	999.17	0.17
328.15	0.2506	0.2585	1002.37	0.18
328.15	0.2585	0.2586	1002.84	0.18
338.15	0.0083	0.0121	981.33	0.21
338.15	0.025	0.0254	982.47	0.21
338.15	0.05	0.051	984.16	0.2
338.15	0.0999	0.1005	987.45	0.2
338.15	0.1486	0.1491	990.39	0.19
338.15	0.2001	0.201	994.03	0.18
338.15	0.2506	0.2585	997.16	0.18
338.15	0.2585	0.2586	997.61	0.18
348.15	0.0083	0.0121	975.6	0.22
348.15	0.025	0.0254	976.75	0.22
348.15	0.05	0.051	978.46	0.21
348.15	0.0999	0.1005	981.75	0.21
348.15	0.1486	0.1491	984.7	0.2
348.15	0.2001	0.201	988.37	0.2
348.15	0.2506	0.2585	991.43	0.19
348.15	0.2585	0.2586	992.01	0.19
358.15	0.0083	0.0121	969.39	0.23
358.15	0.025	0.0254	970.56	0.23
358.15	0.05	0.051	972.25	0.23
358.15	0.0999	0.1005	975.58	0.22
358.15	0.1486	0.1491	978.5	0.22
358.15	0.2001	0.201	982.18	0.21
358.15	0.2506	0.2585	985.19	0.2
358.15	0.2585	0.2586	985.76	0.2
368.15	0.0083	0.0121	962.67	0.25
368.15	0.025	0.0254	963.82	0.25
368.15	0.05	0.051	965.6	0.24
368.15	0.0999	0.1005	968.92	0.24
368.15	0.1486	0.1491	971.84	0.23
368.15	0.2001	0.201	975.47	0.22
368.15	0.2506	0.2585	978.61	0.22
368.15	0.2585	0.2586	979	0.22

System: L-glutamic acid + hydrogen chloride + water; phases: Liquid
Fixed: Pressure, kPa = 350
Property: Molar heat capacity at constant pressure, J/K/mol (Liquid); method: LDSC:UFactor:0.2
Temperature, K	Molality, mol/kg of L-glutamic acid	Molality, mol/kg of hydrogen chloride	Molar heat capacity at constant pressure, J/K/mol	uncertainty
278.15	0.0148	0.0148	75.62892	0.3033
278.15	0.0301	0.0302	75.66525	0.3022
278.15	0.05	0.0502	75.64096	0.3031
278.15	0.1002	0.1005	75.58556	0.3016
278.15	0.3	0.3009	75.42122	0.3009
278.15	0.6022	0.604	75.36583	0.3016
278.15	0.9544	0.9573	75.54028	0.3029
283.15	0.0148	0.0148	75.47546	0.3015
283.15	0.0301	0.0302	75.50602	0.3022
283.15	0.05	0.0502	75.49396	0.3013
283.15	0.1002	0.1005	75.4649	0.3016
283.15	0.3	0.3009	75.38549	0.3009
283.15	0.6022	0.604	75.48724	0.3016
283.15	0.9544	0.9573	75.79	0.3029
288.15	0.0148	0.0148	75.37977	0.3015
288.15	0.0301	0.0302	75.40106	0.3022
288.15	0.05	0.0502	75.39778	0.3013
288.15	0.1002	0.1005	75.38812	0.3016
288.15	0.3	0.3009	75.37421	0.3009
288.15	0.6022	0.604	75.57536	0.3016
288.15	0.9544	0.9573	75.96603	0.3029
293.15	0.0148	0.0148	75.31658	0.3015
293.15	0.0301	0.0302	75.3323	0.3022
293.15	0.05	0.0502	75.33244	0.3013
293.15	0.1002	0.1005	75.33877	0.3016
293.15	0.3	0.3009	75.37985	0.3009
293.15	0.6022	0.604	75.65565	0.3035
293.15	0.9544	0.9573	76.11136	0.305
298.15	0.0148	0.0148	75.27325	0.3015
298.15	0.0301	0.0302	75.28887	0.3004
298.15	0.05	0.0502	75.29433	0.3013
298.15	0.1002	0.1005	75.31134	0.3016
298.15	0.3	0.3009	75.39489	0.3009
298.15	0.6022	0.604	75.72419	0.3035
298.15	0.9544	0.9573	76.22599	0.305
303.15	0.0148	0.0148	75.24617	0.3015
303.15	0.0301	0.0302	75.26173	0.3004
303.15	0.05	0.0502	75.27256	0.3013
303.15	0.1002	0.1005	75.29855	0.3016
303.15	0.3	0.3009	75.41558	0.3009
303.15	0.6022	0.604	75.78882	0.3035
303.15	0.9544	0.9573	76.32833	0.305
308.15	0.0148	0.0148	75.23533	0.3015
308.15	0.0301	0.0302	75.25268	0.3004
308.15	0.05	0.0502	75.2653	0.3013
308.15	0.1002	0.1005	75.29855	0.3016
308.15	0.3	0.3009	75.44566	0.3009
308.15	0.6022	0.604	75.85344	0.3035
308.15	0.9544	0.9573	76.42044	0.305
313.15	0.0148	0.0148	75.23714	0.3015
313.15	0.0301	0.0302	75.25449	0.3004
313.15	0.05	0.0502	75.26893	0.3013
313.15	0.1002	0.1005	75.30952	0.3016
313.15	0.3	0.3009	75.47763	0.3028
313.15	0.6022	0.604	75.91219	0.3035
313.15	0.9544	0.9573	76.50641	0.307
318.15	0.0148	0.0148	75.25339	0.3015
318.15	0.0301	0.0302	75.27078	0.3004
318.15	0.05	0.0502	75.28707	0.3013
318.15	0.1002	0.1005	75.33145	0.3016
318.15	0.3	0.3009	75.519	0.3028
318.15	0.6022	0.604	75.97093	0.3035
318.15	0.9544	0.9573	76.58215	0.307
323.15	0.0148	0.0148	75.27686	0.3015
323.15	0.0301	0.0302	75.2943	0.3004
323.15	0.05	0.0502	75.31248	0.3013
323.15	0.1002	0.1005	75.3607	0.3016
323.15	0.3	0.3009	75.56789	0.3028
323.15	0.6022	0.604	76.02968	0.3035
323.15	0.9544	0.9573	76.65788	0.307
328.15	0.0148	0.0148	75.30936	0.3015
328.15	0.0301	0.0302	75.32868	0.3022
328.15	0.05	0.0502	75.34878	0.3013
328.15	0.1002	0.1005	75.39909	0.3016
328.15	0.3	0.3009	75.62055	0.3028
328.15	0.6022	0.604	76.09235	0.3035
328.15	0.9544	0.9573	76.73157	0.307
333.15	0.0148	0.0148	75.35088	0.3015
333.15	0.0301	0.0302	75.3703	0.3022
333.15	0.05	0.0502	75.39052	0.3013
333.15	0.1002	0.1005	75.44297	0.3016
333.15	0.3	0.3009	75.67696	0.3028
333.15	0.6022	0.604	76.15893	0.3055
333.15	0.9544	0.9573	76.8114	0.307
338.15	0.0148	0.0148	75.39963	0.3015
338.15	0.0301	0.0302	75.42097	0.3022
338.15	0.05	0.0502	75.44133	0.3013
338.15	0.1002	0.1005	75.49598	0.3016
338.15	0.3	0.3009	75.74278	0.3028
338.15	0.6022	0.604	76.23138	0.3055
338.15	0.9544	0.9573	76.89327	0.307
343.15	0.0148	0.0148	75.4556	0.3015
343.15	0.0301	0.0302	75.47887	0.3022
343.15	0.05	0.0502	75.49941	0.3013
343.15	0.1002	0.1005	75.55631	0.3016
343.15	0.3	0.3009	75.81235	0.3028
343.15	0.6022	0.604	76.3058	0.3055
343.15	0.9544	0.9573	76.97515	0.307
348.15	0.0148	0.0148	75.51879	0.3015
348.15	0.0301	0.0302	75.54402	0.3022
348.15	0.05	0.0502	75.56655	0.3031
348.15	0.1002	0.1005	75.62395	0.3016
348.15	0.3	0.3009	75.89133	0.3028
348.15	0.6022	0.604	76.38609	0.3055
348.15	0.9544	0.9573	77.06316	0.3091
353.15	0.0148	0.0148	75.5892	0.3015
353.15	0.0301	0.0302	75.61821	0.3022
353.15	0.05	0.0502	75.63915	0.3031
353.15	0.1002	0.1005	75.6989	0.3035
353.15	0.3	0.3009	75.97595	0.3046
353.15	0.6022	0.604	76.47421	0.3055
353.15	0.9544	0.9573	77.16141	0.3091
358.15	0.0148	0.0148	75.67045	0.3033
358.15	0.0301	0.0302	75.69783	0.3022
358.15	0.05	0.0502	75.719	0.3031
358.15	0.1002	0.1005	75.77933	0.3035
358.15	0.3	0.3009	76.06809	0.3046
358.15	0.6022	0.604	76.56625	0.3055
358.15	0.9544	0.9573	77.26171	0.3091
363.15	0.0148	0.0148	75.75711	0.3033
363.15	0.0301	0.0302	75.78468	0.304
363.15	0.05	0.0502	75.80611	0.3031
363.15	0.1002	0.1005	75.86891	0.3035
363.15	0.3	0.3009	76.16776	0.3046
363.15	0.6022	0.604	76.67004	0.3074
363.15	0.9544	0.9573	77.37634	0.3091
368.15	0.0148	0.0148	75.8528	0.3033
368.15	0.0301	0.0302	75.87878	0.304
368.15	0.05	0.0502	75.90229	0.3031
368.15	0.1002	0.1005	75.96397	0.3035
368.15	0.3	0.3009	76.27494	0.3046
368.15	0.6022	0.604	76.7797	0.3074
368.15	0.9544	0.9573	77.49506	0.3091
373.15	0.0148	0.0148	75.95571	0.3033
373.15	0.0301	0.0302	75.98192	0.304
373.15	0.05	0.0502	76.00574	0.3049
373.15	0.1002	0.1005	76.06817	0.3035
373.15	0.3	0.3009	76.39153	0.3046
373.15	0.6022	0.604	76.89328	0.3074
373.15	0.9544	0.9573	77.62196	0.3111
378.15	0.0148	0.0148	76.06946	0.3051
378.15	0.0301	0.0302	76.09592	0.304
378.15	0.05	0.0502	76.11825	0.3049
378.15	0.1002	0.1005	76.18151	0.3053
378.15	0.3	0.3009	76.52128	0.3065
378.15	0.6022	0.604	77.01861	0.3074
378.15	0.9544	0.9573	77.75706	0.3111
383.15	0.0148	0.0148	76.19042	0.3051
383.15	0.0301	0.0302	76.21535	0.304
383.15	0.05	0.0502	76.23803	0.3049
383.15	0.1002	0.1005	76.30216	0.3053
383.15	0.3	0.3009	76.66232	0.3065
383.15	0.6022	0.604	77.14981	0.3094
383.15	0.9544	0.9573	77.89625	0.3111
388.15	0.0148	0.0148	76.32403	0.3051
388.15	0.0301	0.0302	76.34383	0.3058
388.15	0.05	0.0502	76.36688	0.3049
388.15	0.1002	0.1005	76.4283	0.3053
388.15	0.3	0.3009	76.81651	0.3065
388.15	0.6022	0.604	77.27318	0.3094
388.15	0.9544	0.9573	78.0252	0.3111
393.15	0.0148	0.0148	76.46485	0.3051
393.15	0.0301	0.0302	76.47592	0.3058
393.15	0.05	0.0502	76.49573	0.3067
393.15	0.1002	0.1005	76.55078	0.3071
393.15	0.3	0.3009	76.97635	0.3084
393.15	0.6022	0.604	77.33585	0.3094
393.15	0.9544	0.9573	78.06409	0.3132

System: L-glutamic acid + hydrogen chloride + water; phases: Liquid
Fixed: Pressure, kPa = 350
Property: Mass density, kg/m3 (Liquid); method: VIBTUB:UFactor:4
Temperature, K	Molality, mol/kg of L-glutamic acid	Molality, mol/kg of hydrogen chloride	Mass density, kg/m3	uncertainty
278.15	0.0148	0.0148	1001.33	0.17
278.15	0.0301	0.0302	1002.29	0.17
278.15	0.05	0.0502	1003.71	0.18
278.15	0.1002	0.1005	1007.34	0.18
278.15	0.3	0.3009	1021.22	0.21
278.15	0.6022	0.604	1040.14	0.25
278.15	0.9544	0.9573	1060.74	0.3
278.15	0.05	0.0502	1003.61	0.18
283.15	0.0148	0.0148	1001.02	0.17
283.15	0.0301	0.0302	1001.98	0.17
283.15	0.05	0.0502	1003.37	0.18
283.15	0.1002	0.1005	1006.96	0.18
283.15	0.3	0.3009	1020.57	0.21
283.15	0.6022	0.604	1039.26	0.25
283.15	0.9544	0.9573	1059.57	0.3
283.15	0.05	0.0502	1003.28	0.18
288.15	0.0148	0.0148	1000.4	0.17
288.15	0.0301	0.0302	1001.35	0.17
288.15	0.05	0.0502	1002.72	0.17
288.15	0.1002	0.1005	1006.28	0.18
288.15	0.3	0.3009	1019.64	0.21
288.15	0.6022	0.604	1038.14	0.25
288.15	0.9544	0.9573	1058.25	0.3
288.15	0.05	0.0502	1002.65	0.17
298.15	0.0148	0.0148	998.3	0.17
298.15	0.0301	0.0302	999.25	0.17
298.15	0.05	0.0502	1000.59	0.17
298.15	0.1002	0.1005	1004.06	0.18
298.15	0.3	0.3009	1017.08	0.2
298.15	0.6022	0.604	1035.21	0.25
298.15	0.9544	0.9573	1054.88	0.29
298.15	0.05	0.0502	1000.52	0.17
308.15	0.0148	0.0148	995.25	0.18
308.15	0.0301	0.0302	996.21	0.18
308.15	0.05	0.0502	997.52	0.17
308.15	0.1002	0.1005	1000.93	0.17
308.15	0.3	0.3009	1013.69	0.2
308.15	0.6022	0.604	1031.58	0.24
308.15	0.9544	0.9573	1050.91	0.28
308.15	0.05	0.0502	997.45	0.17
318.15	0.0148	0.0148	991.41	0.19
318.15	0.0301	0.0302	992.37	0.19
318.15	0.05	0.0502	993.65	0.18
318.15	0.1002	0.1005	997.02	0.18
318.15	0.3	0.3009	1009.62	0.19
318.15	0.6022	0.604	1027.26	0.23
318.15	0.9544	0.9573	1046.41	0.28
318.15	0.05	0.0502	993.59	0.18
328.15	0.0148	0.0148	986.88	0.2
328.15	0.0301	0.0302	987.83	0.19
328.15	0.05	0.0502	989.13	0.19
328.15	0.1002	0.1005	992.41	0.19
328.15	0.3	0.3009	1004.9	0.18
328.15	0.6022	0.604	1022.41	0.22
328.15	0.9544	0.9573	1041.41	0.27
328.15	0.05	0.0502	989.07	0.19
338.15	0.0148	0.0148	981.75	0.21
338.15	0.0301	0.0302	982.68	0.21
338.15	0.05	0.0502	983.99	0.2
338.15	0.1002	0.1005	987.22	0.2
338.15	0.3	0.3009	999.64	0.17
338.15	0.6022	0.604	1017.04	0.21
338.15	0.9544	0.9573	1035.92	0.26
338.15	0.05	0.0502	983.93	0.2
348.15	0.0148	0.0148	976.04	0.22
348.15	0.0301	0.0302	976.98	0.22
348.15	0.05	0.0502	978.27	0.21
348.15	0.1002	0.1005	981.44	0.21
348.15	0.3	0.3009	993.84	0.19
348.15	0.6022	0.604	1011.18	0.2
348.15	0.9544	0.9573	1029.91	0.24
348.15	0.05	0.0502	978.23	0.21
358.15	0.0148	0.0148	969.81	0.23
358.15	0.0301	0.0302	970.74	0.23
358.15	0.05	0.0502	972.06	0.23
358.15	0.1002	0.1005	975.17	0.22
358.15	0.3	0.3009	987.5	0.2
358.15	0.6022	0.604	1004.76	0.19
358.15	0.9544	0.9573	1023.25	0.23
358.15	0.05	0.0502	971.98	0.23
368.15	0.0148	0.0148	963.07	0.25
368.15	0.0301	0.0302	964	0.25
368.15	0.05	0.0502	965.29	0.24
368.15	0.1002	0.1005	968.4	0.24
368.15	0.3	0.3009	980.55	0.21
368.15	0.6022	0.604	997.63	0.18
368.15	0.9544	0.9573	1016.03	0.22
368.15	0.05	0.0502	965.2	0.24

System: L-aminosuccinic acid + sodium hydroxide + water; phases: Liquid
Fixed: Pressure, kPa = 350
Property: Molar heat capacity at constant pressure, J/K/mol (Liquid); method: LDSC:UFactor:0.2
Temperature, K	Molality, mol/kg of L-aminosuccinic acid	Molality, mol/kg of sodium hydroxide	Molar heat capacity at constant pressure, J/K/mol	uncertainty
278.15	0.015	0.015	75.66983	0.3033
278.15	0.03	0.03	75.61862	0.3021
278.15	0.07	0.0701	75.49003	0.3019
278.15	0.1502	0.1504	75.36074	0.3015
278.15	0.3005	0.3008	75.15918	0.3
278.15	0.6002	0.6008	75.08512	0.2998
278.15	0.9955	0.9965	75.42811	0.3018
283.15	0.015	0.015	75.50375	0.3015
283.15	0.03	0.03	75.46848	0.3021
283.15	0.07	0.0701	75.37181	0.3019
283.15	0.1502	0.1504	75.27801	0.3015
283.15	0.3005	0.3008	75.15168	0.3
283.15	0.6002	0.6008	75.18829	0.3017
283.15	0.9955	0.9965	75.61569	0.3018
288.15	0.015	0.015	75.39543	0.3015
288.15	0.03	0.03	75.36899	0.3021
288.15	0.07	0.0701	75.29724	0.3019
288.15	0.1502	0.1504	75.23573	0.3015
288.15	0.3005	0.3008	75.16855	0.3
288.15	0.6002	0.6008	75.28951	0.3017
288.15	0.9955	0.9965	75.78899	0.3038
293.15	0.015	0.015	75.32322	0.3015
293.15	0.03	0.03	75.30386	0.3021
293.15	0.07	0.0701	75.25177	0.3019
293.15	0.1502	0.1504	75.21735	0.3015
293.15	0.3005	0.3008	75.19855	0.3
293.15	0.6002	0.6008	75.38879	0.3017
293.15	0.9955	0.9965	75.9521	0.3038
298.15	0.015	0.015	75.27809	0.3015
298.15	0.03	0.03	75.26588	0.3003
298.15	0.07	0.0701	75.22994	0.3001
298.15	0.1502	0.1504	75.21735	0.3015
298.15	0.3005	0.3008	75.23792	0.3019
298.15	0.6002	0.6008	75.48417	0.3017
298.15	0.9955	0.9965	76.0989	0.3038
303.15	0.015	0.015	75.25101	0.3015
303.15	0.03	0.03	75.24417	0.3003
303.15	0.07	0.0701	75.21903	0.3001
303.15	0.1502	0.1504	75.22654	0.3015
303.15	0.3005	0.3008	75.27917	0.3019
303.15	0.6002	0.6008	75.57566	0.3017
303.15	0.9955	0.9965	76.23346	0.3058
308.15	0.015	0.015	75.24018	0.3015
308.15	0.03	0.03	75.23874	0.3003
308.15	0.07	0.0701	75.22267	0.3001
308.15	0.1502	0.1504	75.24492	0.3015
308.15	0.3005	0.3008	75.32792	0.3019
308.15	0.6002	0.6008	75.66326	0.3017
308.15	0.9955	0.9965	76.35987	0.3058
313.15	0.015	0.015	75.24199	0.3015
313.15	0.03	0.03	75.24417	0.3003
313.15	0.07	0.0701	75.23722	0.3001
313.15	0.1502	0.1504	75.2725	0.3015
313.15	0.3005	0.3008	75.37854	0.3019
313.15	0.6002	0.6008	75.74697	0.3037
313.15	0.9955	0.9965	76.47813	0.3058
318.15	0.015	0.015	75.25643	0.3015
318.15	0.03	0.03	75.26226	0.3003
318.15	0.07	0.0701	75.26268	0.3019
318.15	0.1502	0.1504	75.30927	0.3015
318.15	0.3005	0.3008	75.43292	0.3019
318.15	0.6002	0.6008	75.83067	0.3037
318.15	0.9955	0.9965	76.59231	0.3058
323.15	0.015	0.015	75.2799	0.3015
323.15	0.03	0.03	75.28758	0.3003
323.15	0.07	0.0701	75.29724	0.3019
323.15	0.1502	0.1504	75.34971	0.3015
323.15	0.3005	0.3008	75.49104	0.3019
323.15	0.6002	0.6008	75.91243	0.3037
323.15	0.9955	0.9965	76.70444	0.3058
328.15	0.015	0.015	75.3142	0.3015
328.15	0.03	0.03	75.32376	0.3021
328.15	0.07	0.0701	75.33907	0.3019
328.15	0.1502	0.1504	75.39935	0.3015
328.15	0.3005	0.3008	75.55291	0.3019
328.15	0.6002	0.6008	75.99419	0.3037
328.15	0.9955	0.9965	76.8125	0.3079
333.15	0.015	0.015	75.35572	0.3015
333.15	0.03	0.03	75.36718	0.3021
333.15	0.07	0.0701	75.38636	0.3019
333.15	0.1502	0.1504	75.45266	0.3015
333.15	0.3005	0.3008	75.61854	0.3019
333.15	0.6002	0.6008	76.07789	0.3037
333.15	0.9955	0.9965	76.91852	0.3079
338.15	0.015	0.015	75.40626	0.3015
338.15	0.03	0.03	75.41783	0.3021
338.15	0.07	0.0701	75.44092	0.3019
338.15	0.1502	0.1504	75.51333	0.3015
338.15	0.3005	0.3008	75.68791	0.3019
338.15	0.6002	0.6008	76.1616	0.3056
338.15	0.9955	0.9965	77.02251	0.3079
343.15	0.015	0.015	75.46403	0.3015
343.15	0.03	0.03	75.47752	0.3021
343.15	0.07	0.0701	75.50458	0.3019
343.15	0.1502	0.1504	75.57952	0.3015
343.15	0.3005	0.3008	75.76103	0.3037
343.15	0.6002	0.6008	76.24725	0.3056
343.15	0.9955	0.9965	77.12649	0.3079
348.15	0.015	0.015	75.52902	0.3015
348.15	0.03	0.03	75.54264	0.3021
348.15	0.07	0.0701	75.57369	0.3019
348.15	0.1502	0.1504	75.65121	0.3033
348.15	0.3005	0.3008	75.83978	0.3037
348.15	0.6002	0.6008	76.33485	0.3056
348.15	0.9955	0.9965	77.23047	0.3099
353.15	0.015	0.015	75.60123	0.3033
353.15	0.03	0.03	75.615	0.3021
353.15	0.07	0.0701	75.65008	0.3019
353.15	0.1502	0.1504	75.72843	0.3033
353.15	0.3005	0.3008	75.92228	0.3037
353.15	0.6002	0.6008	76.42439	0.3056
353.15	0.9955	0.9965	77.33446	0.3099
358.15	0.015	0.015	75.68066	0.3033
358.15	0.03	0.03	75.6964	0.3021
358.15	0.07	0.0701	75.73192	0.3037
358.15	0.1502	0.1504	75.80932	0.3033
358.15	0.3005	0.3008	76.00665	0.3037
358.15	0.6002	0.6008	76.51588	0.3056
358.15	0.9955	0.9965	77.43844	0.3099
363.15	0.015	0.015	75.76731	0.3033
363.15	0.03	0.03	75.78323	0.3039
363.15	0.07	0.0701	75.81741	0.3037
363.15	0.1502	0.1504	75.8994	0.3033
363.15	0.3005	0.3008	76.09852	0.3037
363.15	0.6002	0.6008	76.61127	0.3056
363.15	0.9955	0.9965	77.5465	0.3099
368.15	0.015	0.015	75.86299	0.3033
368.15	0.03	0.03	75.8791	0.3039
368.15	0.07	0.0701	75.9138	0.3037
368.15	0.1502	0.1504	75.995	0.3033
368.15	0.3005	0.3008	76.19602	0.3056
368.15	0.6002	0.6008	76.71055	0.3076
368.15	0.9955	0.9965	77.65456	0.3099
373.15	0.015	0.015	75.96588	0.3033
373.15	0.03	0.03	75.9804	0.3039
373.15	0.07	0.0701	76.01565	0.3037
373.15	0.1502	0.1504	76.09611	0.3052
373.15	0.3005	0.3008	76.29727	0.3056
373.15	0.6002	0.6008	76.81372	0.3076
373.15	0.9955	0.9965	77.76466	0.3119
378.15	0.015	0.015	76.07961	0.3051
378.15	0.03	0.03	76.09437	0.3039
378.15	0.07	0.0701	76.1266	0.3037
378.15	0.1502	0.1504	76.20826	0.3052
378.15	0.3005	0.3008	76.40789	0.3056
378.15	0.6002	0.6008	76.92467	0.3076
378.15	0.9955	0.9965	77.88087	0.3119
383.15	0.015	0.015	76.19876	0.3051
383.15	0.03	0.03	76.21376	0.3057
383.15	0.07	0.0701	76.24664	0.3056
383.15	0.1502	0.1504	76.32592	0.3052
383.15	0.3005	0.3008	76.52414	0.3056
383.15	0.6002	0.6008	77.03758	0.3076
383.15	0.9955	0.9965	78.00117	0.3119
388.15	0.015	0.015	76.33054	0.3051
388.15	0.03	0.03	76.34581	0.3057
388.15	0.07	0.0701	76.37759	0.3056
388.15	0.1502	0.1504	76.45093	0.3052
388.15	0.3005	0.3008	76.64601	0.3075
388.15	0.6002	0.6008	77.15632	0.3095
388.15	0.9955	0.9965	78.12758	0.3119
393.15	0.015	0.015	76.47135	0.3051
393.15	0.03	0.03	76.48509	0.3057
393.15	0.07	0.0701	76.51763	0.3056
393.15	0.1502	0.1504	76.58513	0.307
393.15	0.3005	0.3008	76.77726	0.3075
393.15	0.6002	0.6008	77.27701	0.3095
393.15	0.9955	0.9965	78.26214	0.314

System: L-aminosuccinic acid + sodium hydroxide + water; phases: Liquid
Fixed: Pressure, kPa = 350
Property: Mass density, kg/m3 (Liquid); method: VIBTUB:UFactor:4
Temperature, K	Molality, mol/kg of L-aminosuccinic acid	Molality, mol/kg of sodium hydroxide	Mass density, kg/m3	uncertainty
278.15	0.015	0.015	1001.62	0.17
278.15	0.03	0.03	1003.06	0.17
278.15	0.07	0.0701	1006.9	0.18
278.15	0.1502	0.1504	1014.46	0.2
278.15	0.3005	0.3008	1028.15	0.23
278.15	0.6002	0.6008	1053.71	0.28
278.15	0.9955	0.9965	1084.37	0.36
283.15	0.015	0.015	1001.34	0.17
283.15	0.03	0.03	1002.71	0.17
283.15	0.07	0.0701	1006.54	0.18
283.15	0.1502	0.1504	1013.98	0.2
283.15	0.3005	0.3008	1027.41	0.23
283.15	0.6002	0.6008	1052.69	0.28
283.15	0.9955	0.9965	1083.1	0.35
288.15	0.015	0.015	1000.72	0.17
288.15	0.03	0.03	1001.99	0.17
288.15	0.07	0.0701	1005.84	0.18
288.15	0.1502	0.1504	1013.19	0.2
288.15	0.3005	0.3008	1026.46	0.22
288.15	0.6002	0.6008	1051.48	0.28
288.15	0.9955	0.9965	1081.62	0.35
298.15	0.015	0.015	998.62	0.17
298.15	0.03	0.03	999.8	0.17
298.15	0.07	0.0701	1003.62	0.18
298.15	0.1502	0.1504	1010.82	0.19
298.15	0.3005	0.3008	1023.77	0.22
298.15	0.6002	0.6008	1048.42	0.27
298.15	0.9955	0.9965	1078.12	0.34
308.15	0.015	0.015	995.67	0.18
308.15	0.03	0.03	996.71	0.18
308.15	0.07	0.0701	1000.57	0.17
308.15	0.1502	0.1504	1007.64	0.19
308.15	0.3005	0.3008	1020.43	0.21
308.15	0.6002	0.6008	1044.71	0.27
308.15	0.9955	0.9965	1074.01	0.33
318.15	0.015	0.015	991.78	0.19
318.15	0.03	0.03	992.85	0.18
318.15	0.07	0.0701	996.65	0.18
318.15	0.1502	0.1504	1003.63	0.18
318.15	0.3005	0.3008	1016.29	0.2
318.15	0.6002	0.6008	1040.31	0.26
318.15	0.9955	0.9965	1069.39	0.33
328.15	0.015	0.015	987.23	0.2
328.15	0.03	0.03	988.27	0.19
328.15	0.07	0.0701	992.07	0.19
328.15	0.1502	0.1504	999.01	0.17
328.15	0.3005	0.3008	1011.58	0.2
328.15	0.6002	0.6008	1035.43	0.25
328.15	0.9955	0.9965	1064.33	0.32
338.15	0.015	0.015	982.03	0.21
338.15	0.03	0.03	983.17	0.2
338.15	0.07	0.0701	986.87	0.2
338.15	0.1502	0.1504	993.8	0.18
338.15	0.3005	0.3008	1006.31	0.19
338.15	0.6002	0.6008	1030.07	0.24
338.15	0.9955	0.9965	1058.86	0.3
348.15	0.015	0.015	976.32	0.22
348.15	0.03	0.03	977.47	0.22
348.15	0.07	0.0701	981.16	0.21
348.15	0.1502	0.1504	988.06	0.2
348.15	0.3005	0.3008	1000.57	0.18
348.15	0.6002	0.6008	1024.24	0.23
348.15	0.9955	0.9965	1052.99	0.29
358.15	0.015	0.015	970.04	0.23
358.15	0.03	0.03	971.3	0.23
358.15	0.07	0.0701	974.89	0.22
358.15	0.1502	0.1504	981.82	0.21
358.15	0.3005	0.3008	994.4	0.19
358.15	0.6002	0.6008	1018	0.21
358.15	0.9955	0.9965	1046.77	0.28
368.15	0.015	0.015	963.33	0.25
368.15	0.03	0.03	964.67	0.24
368.15	0.07	0.0701	968.16	0.24
368.15	0.1502	0.1504	975.1	0.22
368.15	0.3005	0.3008	987.77	0.2
368.15	0.6002	0.6008	1011.31	0.2
368.15	0.9955	0.9965	1040.1	0.27

System: L-glutamic acid + sodium hydroxide + water; phases: Liquid
Fixed: Pressure, kPa = 350
Property: Molar heat capacity at constant pressure, J/K/mol (Liquid); method: LDSC:UFactor:0.2
Temperature, K	Molality, mol/kg of L-glutamic acid	Molality, mol/kg of sodium hydroxide	Molar heat capacity at constant pressure, J/K/mol	uncertainty
278.15	0.02	0.02	75.67763	0.3036
278.15	0.04	0.0401	75.64251	0.3027
278.15	0.0802	0.0804	75.59052	0.3027
278.15	0.1501	0.1504	75.3948	0.3021
278.15	0.2978	0.2984	75.35477	0.3011
278.15	0.6	0.6012	75.44864	0.3021
278.15	0.995	0.997	76.10437	0.3053
283.15	0.02	0.02	75.51681	0.3018
283.15	0.04	0.0401	75.50477	0.3027
283.15	0.0802	0.0804	75.47383	0.3027
283.15	0.1501	0.1504	75.3469	0.3021
283.15	0.2978	0.2984	75.37735	0.3011
283.15	0.6	0.6012	75.59967	0.3021
283.15	0.995	0.997	76.34162	0.3053
288.15	0.02	0.02	75.4102	0.3018
288.15	0.04	0.0401	75.4069	0.3009
288.15	0.0802	0.0804	75.39361	0.3008
288.15	0.1501	0.1504	75.33032	0.3021
288.15	0.2978	0.2984	75.41499	0.3011
288.15	0.6	0.6012	75.7507	0.3021
288.15	0.995	0.997	76.56237	0.3053
293.15	0.02	0.02	75.33973	0.3018
293.15	0.04	0.0401	75.34165	0.3009
293.15	0.0802	0.0804	75.34438	0.3008
293.15	0.1501	0.1504	75.33032	0.3021
293.15	0.2978	0.2984	75.46203	0.3011
293.15	0.6	0.6012	75.88996	0.304
293.15	0.995	0.997	76.76867	0.3074
298.15	0.02	0.02	75.29817	0.3018
298.15	0.04	0.0401	75.3054	0.3009
298.15	0.0802	0.0804	75.3225	0.3008
298.15	0.1501	0.1504	75.34138	0.3021
298.15	0.2978	0.2984	75.5166	0.303
298.15	0.6	0.6012	76.01746	0.304
298.15	0.995	0.997	76.94816	0.3074
303.15	0.02	0.02	75.27107	0.3018
303.15	0.04	0.0401	75.28365	0.3009
303.15	0.0802	0.0804	75.31338	0.3008
303.15	0.1501	0.1504	75.3598	0.3021
303.15	0.2978	0.2984	75.57117	0.303
303.15	0.6	0.6012	76.13318	0.304
303.15	0.995	0.997	77.11321	0.3095
308.15	0.02	0.02	75.26203	0.3018
308.15	0.04	0.0401	75.28003	0.3009
308.15	0.0802	0.0804	75.32067	0.3008
308.15	0.1501	0.1504	75.38743	0.3021
308.15	0.2978	0.2984	75.62951	0.303
308.15	0.6	0.6012	76.24498	0.304
308.15	0.995	0.997	77.26794	0.3095
313.15	0.02	0.02	75.26564	0.3018
313.15	0.04	0.0401	75.28547	0.3009
313.15	0.0802	0.0804	75.33526	0.3008
313.15	0.1501	0.1504	75.42243	0.3021
313.15	0.2978	0.2984	75.68972	0.303
313.15	0.6	0.6012	76.34894	0.306
313.15	0.995	0.997	77.41235	0.3095
318.15	0.02	0.02	75.28191	0.3018
318.15	0.04	0.0401	75.3054	0.3009
318.15	0.0802	0.0804	75.36261	0.3008
318.15	0.1501	0.1504	75.46665	0.3021
318.15	0.2978	0.2984	75.75558	0.303
318.15	0.6	0.6012	76.4529	0.306
318.15	0.995	0.997	77.55058	0.3095
323.15	0.02	0.02	75.3054	0.3018
323.15	0.04	0.0401	75.33259	0.3009
323.15	0.0802	0.0804	75.39543	0.3008
323.15	0.1501	0.1504	75.51454	0.3021
323.15	0.2978	0.2984	75.82333	0.303
323.15	0.6	0.6012	76.55489	0.306
323.15	0.995	0.997	77.68467	0.3115
328.15	0.02	0.02	75.34154	0.3018
328.15	0.04	0.0401	75.37065	0.3009
328.15	0.0802	0.0804	75.43919	0.3027
328.15	0.1501	0.1504	75.56797	0.3021
328.15	0.2978	0.2984	75.89483	0.303
328.15	0.6	0.6012	76.65492	0.306
328.15	0.995	0.997	77.81465	0.3115
333.15	0.02	0.02	75.3831	0.3018
333.15	0.04	0.0401	75.41415	0.3009
333.15	0.0802	0.0804	75.48842	0.3027
333.15	0.1501	0.1504	75.62692	0.3021
333.15	0.2978	0.2984	75.96822	0.303
333.15	0.6	0.6012	76.753	0.3079
333.15	0.995	0.997	77.93843	0.3115
338.15	0.02	0.02	75.43369	0.3018
338.15	0.04	0.0401	75.46852	0.3027
338.15	0.0802	0.0804	75.54494	0.3027
338.15	0.1501	0.1504	75.69139	0.3021
338.15	0.2978	0.2984	76.04537	0.3048
338.15	0.6	0.6012	76.85107	0.3079
338.15	0.995	0.997	78.06222	0.3115
343.15	0.02	0.02	75.49332	0.3018
343.15	0.04	0.0401	75.53014	0.3027
343.15	0.0802	0.0804	75.61058	0.3027
343.15	0.1501	0.1504	75.75955	0.304
343.15	0.2978	0.2984	76.12817	0.3048
343.15	0.6	0.6012	76.94914	0.3079
343.15	0.995	0.997	78.18187	0.3136
348.15	0.02	0.02	75.55837	0.3018
348.15	0.04	0.0401	75.5972	0.3027
348.15	0.0802	0.0804	75.68169	0.3027
348.15	0.1501	0.1504	75.83508	0.304
348.15	0.2978	0.2984	76.21285	0.3048
348.15	0.6	0.6012	77.04917	0.3079
348.15	0.995	0.997	78.30153	0.3136
353.15	0.02	0.02	75.63246	0.3018
353.15	0.04	0.0401	75.67151	0.3027
353.15	0.0802	0.0804	75.75827	0.3027
353.15	0.1501	0.1504	75.91614	0.304
353.15	0.2978	0.2984	76.30129	0.3048
353.15	0.6	0.6012	77.14921	0.3079
353.15	0.995	0.997	78.42119	0.3136
358.15	0.02	0.02	75.71197	0.3036
358.15	0.04	0.0401	75.75125	0.3027
358.15	0.0802	0.0804	75.84214	0.3027
358.15	0.1501	0.1504	76.00272	0.304
358.15	0.2978	0.2984	76.3935	0.3048
358.15	0.6	0.6012	77.25316	0.3099
358.15	0.995	0.997	78.54085	0.3136
363.15	0.02	0.02	75.7987	0.3036
363.15	0.04	0.0401	75.84006	0.3027
363.15	0.0802	0.0804	75.92966	0.3045
363.15	0.1501	0.1504	76.09299	0.304
363.15	0.2978	0.2984	76.48947	0.3067
363.15	0.6	0.6012	77.35908	0.3099
363.15	0.995	0.997	78.66257	0.3156
368.15	0.02	0.02	75.89447	0.3036
368.15	0.04	0.0401	75.93612	0.3045
368.15	0.0802	0.0804	76.02811	0.3045
368.15	0.1501	0.1504	76.19062	0.304
368.15	0.2978	0.2984	76.59108	0.3067
368.15	0.6	0.6012	77.46696	0.3099
368.15	0.995	0.997	78.78429	0.3156
373.15	0.02	0.02	75.99747	0.3036
373.15	0.04	0.0401	76.03943	0.3045
373.15	0.0802	0.0804	76.13022	0.3045
373.15	0.1501	0.1504	76.29378	0.3058
373.15	0.2978	0.2984	76.69646	0.3067
373.15	0.6	0.6012	77.57876	0.3099
373.15	0.995	0.997	78.90807	0.3156
378.15	0.02	0.02	76.1095	0.3036
378.15	0.04	0.0401	76.15361	0.3045
378.15	0.0802	0.0804	76.24509	0.3045
378.15	0.1501	0.1504	76.40616	0.3058
378.15	0.2978	0.2984	76.81125	0.3067
378.15	0.6	0.6012	77.69841	0.3099
378.15	0.995	0.997	79.03804	0.3156
383.15	0.02	0.02	76.23057	0.3054
383.15	0.04	0.0401	76.27323	0.3045
383.15	0.0802	0.0804	76.36543	0.3063
383.15	0.1501	0.1504	76.5259	0.3058
383.15	0.2978	0.2984	76.9298	0.3086
383.15	0.6	0.6012	77.82002	0.3119
383.15	0.995	0.997	79.17008	0.3177
388.15	0.02	0.02	76.36067	0.3054
388.15	0.04	0.0401	76.40372	0.3063
388.15	0.0802	0.0804	76.49488	0.3063
388.15	0.1501	0.1504	76.65485	0.3058
388.15	0.2978	0.2984	77.05776	0.3086
388.15	0.6	0.6012	77.94947	0.3119
388.15	0.995	0.997	79.30624	0.3177
393.15	0.02	0.02	76.50161	0.3054
393.15	0.04	0.0401	76.5469	0.3063
393.15	0.0802	0.0804	76.6371	0.3063
393.15	0.1501	0.1504	76.79117	0.3076
393.15	0.2978	0.2984	77.19512	0.3086
393.15	0.6	0.6012	78.08089	0.3119
393.15	0.995	0.997	79.44447	0.3177

System: L-glutamic acid + sodium hydroxide + water; phases: Liquid
Fixed: Pressure, kPa = 350
Property: Mass density, kg/m3 (Liquid); method: VIBTUB:UFactor:4
Temperature, K	Molality, mol/kg of L-glutamic acid	Molality, mol/kg of sodium hydroxide	Mass density, kg/m3	uncertainty
278.15	0.02	0.02	1002.16	0.17
278.15	0.04	0.0401	1004.02	0.18
278.15	0.0802	0.0804	1007.87	0.18
278.15	0.1501	0.1504	1014.16	0.2
278.15	0.2978	0.2984	1027.44	0.23
278.15	0.6	0.6012	1052.61	0.28
278.15	0.995	0.997	1082.49	0.35
283.15	0.02	0.02	1001.86	0.17
283.15	0.04	0.0401	1003.69	0.18
283.15	0.0802	0.0804	1007.44	0.18
283.15	0.1501	0.1504	1013.68	0.2
283.15	0.2978	0.2984	1026.77	0.22
283.15	0.6	0.6012	1051.65	0.28
283.15	0.995	0.997	1081.18	0.35
288.15	0.02	0.02	1001.23	0.17
288.15	0.04	0.0401	1003.05	0.17
288.15	0.0802	0.0804	1006.75	0.18
288.15	0.1501	0.1504	1012.95	0.2
288.15	0.2978	0.2984	1025.86	0.22
288.15	0.6	0.6012	1050.5	0.28
288.15	0.995	0.997	1079.73	0.35
298.15	0.02	0.02	999.11	0.17
298.15	0.04	0.0401	1000.85	0.17
298.15	0.0802	0.0804	1004.53	0.18
298.15	0.1501	0.1504	1010.59	0.19
298.15	0.2978	0.2984	1023.26	0.22
298.15	0.6	0.6012	1047.48	0.27
298.15	0.995	0.997	1076.28	0.34
308.15	0.02	0.02	996.06	0.18
308.15	0.04	0.0401	997.8	0.17
308.15	0.0802	0.0804	1001.4	0.17
308.15	0.1501	0.1504	1007.37	0.18
308.15	0.2978	0.2984	1019.8	0.21
308.15	0.6	0.6012	1043.7	0.26
308.15	0.995	0.997	1072.21	0.33
318.15	0.02	0.02	992.19	0.19
318.15	0.04	0.0401	993.91	0.18
318.15	0.0802	0.0804	997.48	0.18
318.15	0.1501	0.1504	1003.41	0.18
318.15	0.2978	0.2984	1015.71	0.2
318.15	0.6	0.6012	1039.42	0.26
318.15	0.995	0.997	1067.69	0.32
328.15	0.02	0.02	987.67	0.19
328.15	0.04	0.0401	989.33	0.19
328.15	0.0802	0.0804	992.91	0.18
328.15	0.1501	0.1504	998.78	0.17
328.15	0.2978	0.2984	1011.03	0.19
328.15	0.6	0.6012	1034.56	0.25
328.15	0.995	0.997	1062.64	0.31
338.15	0.02	0.02	982.53	0.21
338.15	0.04	0.0401	984.17	0.2
338.15	0.0802	0.0804	987.74	0.2
338.15	0.1501	0.1504	993.57	0.18
338.15	0.2978	0.2984	1005.78	0.18
338.15	0.6	0.6012	1029.19	0.24
338.15	0.995	0.997	1057.16	0.3
348.15	0.02	0.02	976.81	0.22
348.15	0.04	0.0401	978.48	0.21
348.15	0.0802	0.0804	982.01	0.21
348.15	0.1501	0.1504	987.84	0.2
348.15	0.2978	0.2984	1000	0.17
348.15	0.6	0.6012	1023.37	0.22
348.15	0.995	0.997	1051.3	0.29
358.15	0.02	0.02	970.58	0.23
358.15	0.04	0.0401	972.24	0.23
358.15	0.0802	0.0804	975.8	0.22
358.15	0.1501	0.1504	981.61	0.21
358.15	0.2978	0.2984	993.79	0.19
358.15	0.6	0.6012	1017.11	0.21
358.15	0.995	0.997	1045.01	0.28
368.15	0.02	0.02	963.84	0.25
368.15	0.04	0.0401	965.54	0.24
368.15	0.0802	0.0804	969.08	0.24
368.15	0.1501	0.1504	974.93	0.22
368.15	0.2978	0.2984	987.15	0.2
368.15	0.6	0.6012	1010.47	0.2
368.15	0.995	0.997	1038.39	0.27
