Measured thermophysical data. The heat capacity and thermodynamic functions of cerussite
Source: J. Chem. Thermodyn., 2012, 10.1016/j.jct.2011.10.014
Compound 1: lead(II) carbonate, CO3Pb, InChI=1S/CH2O3.Pb/c2-1(3)4;/h(H2,2,3,4);/q;+2/p-2, purity 99.944%

System: lead(II) carbonate; phases: Crystal
Fixed: Pressure, kPa = 101.325
Property: Molar heat capacity at constant pressure, J/K/mol (Crystal); method: Vacuum adiabatic calorimetry
Temperature, K	Molar heat capacity at constant pressure, J/K/mol	uncertainty
4.3849	0.051996	0.008124
4.4188	0.055502	0.008147
4.738	0.06322	0.008202
4.754	0.063775	0.008208
5.0905	0.08024	0.008319
5.1037	0.080191	0.008319
5.3421	0.097257	0.008438
5.363	0.099538	0.008453
5.5847	0.1145	0.00856
5.6123	0.11627	0.00857
5.8299	0.13157	0.00878
5.8679	0.1342	0.00882
6.0782	0.15185	0.00916
6.1263	0.15544	0.00923
6.4128	0.18934	0.00991
6.4709	0.19281	0.00999
6.8378	0.24142	0.01106
6.8991	0.25603	0.01139
7.2672	0.30725	0.01262
7.3401	0.322	0.01298
7.6994	0.3863	0.0146
7.7798	0.40134	0.01498
8.1343	0.48087	0.01709
8.2221	0.50053	0.01761
8.5746	0.58817	0.01999
8.6676	0.60605	0.02047
9.0151	0.71057	0.02336
9.1083	0.74781	0.02438
9.4584	0.84997	0.02726
9.5578	0.89018	0.02838
9.903	1.0105	0.0318
10.009	1.0547	0.033
10.572	1.286	0.0396
10.682	1.3297	0.0408
11.458	1.6949	0.0513
11.572	1.7514	0.0529
12.357	2.1554	0.0645
12.472	2.2159	0.0662
13.272	2.6544	0.0788
13.385	2.7462	0.0815
14.194	3.2443	0.0958
14.313	3.3298	0.0982
15.126	3.8665	0.1136
15.25	3.9622	0.1164
16.069	4.5105	0.1321
16.199	4.595	0.1345
17.026	5.1616	0.1508
17.158	5.2758	0.1541
17.988	5.902	0.172
18.12	6.0104	0.1751
18.954	6.6353	0.193
19.088	6.7467	0.1962
19.928	7.3704	0.214
20.062	7.4665	0.2168
21.407	8.5211	0.2469
21.538	8.6393	0.2503
23.391	10.077	0.291
23.526	10.189	0.294
25.397	11.683	0.337
27.409	13.324	0.384
29.426	14.959	0.43
31.446	16.548	0.476
33.464	18.134	0.521
35.479	19.729	0.567
36.705	20.705	0.595
37.494	21.325	0.613
38.504	22.117	0.635
40.512	23.648	0.125
42.519	25.247	0.133
44.531	26.661	0.139
46.538	28.074	0.146
48.546	29.487	0.153
50.551	30.942	0.16
52.554	32.415	0.167
54.558	33.8	0.173
56.562	35.046	0.179
58.567	36.13	0.184
60.521	37.481	0.191
62.395	38.608	0.196
64.201	39.647	0.201
65.946	40.662	0.206
67.631	41.567	0.21
69.27	42.352	0.214
71.591	43.588	0.22
74.623	45.087	0.227
77.666	46.509	0.234
79.897	47.552	0.239
80.715	47.854	0.143
83.039	48.896	0.145
86.104	50.137	0.148
89.176	51.327	0.151
92.252	52.451	0.213
95.337	53.498	0.214
98.43	54.489	0.216
101.53	55.499	0.218
104.63	56.352	0.22
107.75	57.224	0.221
110.87	58.111	0.223
114	58.887	0.224
117.14	59.635	0.226
120.28	60.411	0.227
123.43	61.11	0.228
126.59	61.801	0.23
129.77	62.497	0.231
132.94	63.148	0.232
136.13	63.79	0.233
139.31	64.433	0.235
142.51	65.031	0.236
145.71	65.611	0.237
148.92	66.186	0.238
152.13	66.836	0.239
155.35	67.348	0.24
158.57	67.875	0.241
161.81	68.401	0.242
165.05	68.985	0.243
168.31	69.493	0.244
171.58	70.047	0.245
174.85	70.513	0.246
178.14	70.921	0.247
181.44	71.384	0.248
184.74	71.871	0.249
188.04	72.414	0.25
191.34	72.91	0.251
194.61	73.404	0.252
197.88	73.877	0.253
201.13	74.301	0.254
204.38	74.739	0.255
207.61	75.109	0.255
210.84	75.517	0.256
214.06	75.82	0.257
217.25	76.334	0.258
220.45	76.685	0.258
223.63	77.068	0.259
226.8	77.368	0.26
229.94	77.92	0.261
233.13	78.351	0.262
236.26	78.83	0.263
239.37	79.239	0.263
242.47	79.615	0.264
245.56	79.926	0.265
247.36	80.253	0.265
247.44	80.028	0.265
248.53	80.254	0.265
248.62	80.457	0.266
249.63	80.356	0.266
250.32	80.373	0.266
250.72	80.396	0.266
251.68	80.907	0.267
251.81	80.668	0.266
252.9	80.663	0.266
253.25	80.994	0.267
253.98	80.8	0.267
254.73	81.204	0.267
255.06	81.128	0.267
255.71	81.102	0.267
256.15	81.105	0.267
256.2	81.286	0.267
256.35	81.169	0.267
257	81.19	0.267
257.23	81.198	0.267
257.66	81.192	0.267
257.75	81.55	0.268
258.31	81.422	0.268
258.32	81.329	0.268
258.97	81.782	0.268
259.12	81.621	0.268
259.4	81.467	0.268
259.66	81.566	0.268
260.33	81.489	0.268
260.47	81.779	0.268
260.76	82.183	0.269
260.93	82.3	0.27
261	81.893	0.269
261.55	81.783	0.269
261.69	82.091	0.269
262.03	82.18	0.269
262.39	82.041	0.269
262.62	82.878	0.271
262.63	81.916	0.269
263.17	81.792	0.268
263.27	82.556	0.27
263.7	82.234	0.269
263.78	82.711	0.27
263.85	82.116	0.269
263.9	82.691	0.27
264.53	82.15	0.269
264.54	82.73	0.27
264.79	82.468	0.27
264.95	82.641	0.27
265.18	82.862	0.271
265.2	82.168	0.269
265.82	82.907	0.271
265.86	82.446	0.27
265.88	82.298	0.27
266.47	83.024	0.271
266.56	82.656	0.27
266.78	83.224	0.271
266.94	82.575	0.27
267.12	83.34	0.272
267.27	82.399	0.27
267.77	83.481	0.272
267.85	83	0.271
267.95	82.619	0.27
268.01	82.761	0.27
268.42	83.685	0.272
268.63	82.708	0.27
269.07	83.961	0.273
269.07	83.001	0.271
269.31	82.904	0.271
269.73	83.985	0.273
269.75	84.216	0.273
269.99	83.231	0.271
270.14	83.499	0.272
270.38	84.121	0.273
270.68	83.446	0.272
270.74	83.865	0.273
271.04	84.03	0.273
271.2	83.782	0.273
271.36	84.035	0.273
271.7	84.685	0.275
272.07	84.589	0.279
272.26	84.681	0.276
272.43	85.867	0.277
272.67	88.343	0.282
272.77	85.635	0.276
273.1	94.332	0.294
273.3	90.007	0.285
273.43	87.854	0.281
273.58	87.5	0.28
273.76	86.34	0.278
274.21	85.213	0.276
274.36	85.106	0.275
274.43	85.567	0.276
274.92	84.776	0.274
275.09	85.533	0.276
275.43	85.372	0.276
275.61	85.082	0.275
275.62	85.947	0.277
275.76	86.019	0.277
276.3	85.694	0.276
276.44	86.064	0.277
276.47	85.956	0.277
276.49	86.54	0.278
276.98	85.662	0.276
277.13	85.857	0.277
277.55	87.209	0.279
277.67	85.561	0.276
277.8	86.126	0.277
278.35	85.608	0.276
278.49	85.512	0.276
278.57	85.332	0.276
278.64	85.794	0.277
279.04	84.803	0.275
279.16	84.953	0.275
279.34	85.021	0.275
279.74	85.507	0.276
279.74	84.583	0.274
279.84	84.462	0.274
280.48	84.245	0.273
280.51	84.403	0.274
280.87	84.455	0.274
281.17	84.409	0.274
281.18	84.61	0.274
281.61	84.919	0.275
281.86	84.625	0.274
281.87	84.511	0.274
282.22	84.711	0.274
282.54	84.792	0.275
283.3	84.948	0.275
283.98	85.163	0.275
284.55	85.289	0.276
284.68	85.427	0.276
285.39	85.189	0.275
286.07	85.272	0.275
286.75	85.405	0.276
287.43	85.38	0.276
287.49	85.629	0.276
288.12	85.331	0.276
288.8	85.509	0.276
289.49	85.708	0.276
290.41	86	0.277
293.33	86.397	0.278
296.23	86.777	0.279
299.12	87.183	0.279
302	87.588	0.28
304.88	87.951	0.281
307.76	88.29	0.282
310.62	88.631	0.282
313.49	88.997	0.283
316.35	89.338	0.284

System: lead(II) carbonate; phases: Crystal
Fixed: Pressure, kPa = 101.325
Property: Molar heat capacity at constant pressure, J/K/mol (Crystal); method: Vacuum adiabatic calorimetry
Temperature, K	Molar heat capacity at constant pressure, J/K/mol	uncertainty
5	0.0763	0.0109
10	1.048	0.0185
15	3.7765	0.0359
20	7.42	0.0521
25	11.38	0.06
30	15.38	0.07
35	19.37	0.08
40	23.28	0.09
45	27.01	0.09
50	30.59	0.1
55	33.98	0.11
60	37.15	0.11
65	40.1	0.12
70	42.8	0.13
75	45.29	0.13
80	47.58	0.14
85	49.68	0.14
90	51.61	0.25
95	53.38	0.25
100	55	0.26
110	57.87	0.26
120	60.33	0.26
130	62.53	0.26
140	64.55	0.26
150	66.42	0.27
160	68.14	0.27
170	69.74	0.27
180	71.28	0.27
190	72.72	0.27
200	74.07	0.27
210	75.37	0.28
220	76.66	0.28
230	77.94	0.28
240	79.27	0.28
250	80.62	0.28
260	81.98	0.28
270	83.334	0.283
273.15	83.77	0.28
280	84.69	0.28
290	86.01	0.29
298.15	87.07	0.27
300	87.3	0.29
310	88.56	0.29
320	89.76	0.29

System: lead(II) carbonate; phases: Crystal
Fixed: Pressure, kPa = 101.325
Property: Molar enthalpy, kJ/mol (Crystal); method: Vacuum adiabatic calorimetry
Temperature, K	Molar enthalpy, kJ/mol	uncertainty
5	8.37e-05	5.09e-05
10	0.002188	0.000118
15	0.01366	0.00024
20	0.04146	0.00044
25	0.0884	0.00066
30	0.1553	0.0015
35	0.2422	0.0019
40	0.3488	0.0023
45	0.4746	0.0028
50	0.6187	0.0033
55	0.7802	0.0038
60	0.9581	0.0043
65	1.1513	0.0049
70	1.3587	0.0055
75	1.579	0.0062
80	1.8112	0.0068
85	2.0544	0.0075
90	2.3077	0.0203
95	2.5702	0.0216
100	2.8412	0.0228
110	3.4059	0.0254
120	3.9972	0.028
130	4.6116	0.0306
140	5.2472	0.0333
150	5.9022	0.0359
160	6.5751	0.0386
170	7.2646	0.0413
180	7.9698	0.044
190	8.6899	0.0467
200	9.4239	0.0494
210	10.171	0.052
220	10.931	0.055
230	11.704	0.058
240	12.49	0.06
250	13.288	0.063
260	14.103	0.066
270	14.929	0.069
273.15	15.193	0.07
280	15.7695	0.0718
290	16.623	0.075
298.15	17.328	0.064
300	17.49	0.077
310	18.369	0.08
320	19.261	0.083

System: lead(II) carbonate; phases: Crystal
Fixed: Pressure, kPa = 101.325
Property: Molar entropy, J/K/mol (Crystal); method: Vacuum adiabatic calorimetry
Temperature, K	Molar entropy, J/K/mol	uncertainty
5	0.0215	0.0153
10	0.2771	0.0183
15	1.17	0.027
20	2.745	0.038
25	4.823	0.048
30	7.25	0.082
35	9.921	0.09
40	12.76	0.1
45	15.72	0.11
50	18.76	0.12
55	21.83	0.13
60	24.93	0.14
65	28.02	0.14
70	31.09	0.15
75	34.13	0.16
80	37.12	0.17
85	40.07	0.18
90	42.97	0.36
95	45.81	0.37
100	48.59	0.37
110	53.97	0.38
120	59.11	0.39
130	64.03	0.4
140	68.74	0.4
150	73.25	0.41
160	77.6	0.42
170	81.78	0.42
180	85.81	0.43
190	89.7	0.43
200	93.46	0.44
210	97.11	0.45
220	100.6	0.5
230	104.1	0.5
240	107.4	0.5
250	110.7	0.5
260	113.9	0.5
270	117	0.5
273.15	118	0.5
280	120.1	0.5
290	123	0.5
298.15	125.4	0.7
300	126	0.5
310	128.9	0.5
320	131.7	0.5
