Measured thermophysical data. Isothermal compressibility and internal pressure studies of some non-electrolytes in aqueous solutions at low temperatures
Source: J. Chem. Thermodyn., 2007, 10.1016/j.jct.2006.08.007
Compound 1: dimethylformamide, C3H7NO, InChI=1S/C3H7NO/c1-4(2)3-5/h3H,1-2H3
Compound 2: 1,4-dioxane, C4H8O2, InChI=1S/C4H8O2/c1-2-6-4-3-5-1/h1-4H2
Compound 3: acetonitrile, C2H3N, InChI=1S/C2H3N/c1-2-3/h1H3
Compound 4: tetrahydrofuran, C4H8O, InChI=1S/C4H8O/c1-2-4-5-3-1/h1-4H2
Compound 5: water, H2O, InChI=1S/H2O/h1H2

System: dimethylformamide + water; phases: Liquid
Fixed: Pressure, kPa = 101
Fixed: Temperature, K = 279.15
Property: Speed of sound, m/s (Liquid); method: LVPAI:UFactor:8
Mole fraction of dimethylformamide	Speed of sound, m/s	uncertainty
0	1430.4	12
0.023	1511.6	12.6
0.0485	1578.6	13
0.0714	1625	13.3
0.0972	1664.6	13.5
0.2457	1748	14.1
0.3865	1714.6	14
0.5924	1646	13.8
0.844	1564	13.6

System: dimethylformamide + water; phases: Liquid
Fixed: Pressure, kPa = 101
Fixed: Temperature, K = 279.15
Property: Mass density, kg/m3 (Liquid); method: PYCNOM:UFactor:8
Mole fraction of dimethylformamide	Mass density, kg/m3	uncertainty
0	999.9	3.1
0.023	1000.9	3.2
0.0485	1002.9	3.2
0.0714	1005.2	3.3
0.0972	1007.3	3.4
0.2457	1009.7	3.9
0.3865	1002.2	4.5
0.5924	986.6	5.7
0.844	970	7.6

System: 1,4-dioxane + water; phases: Liquid
Fixed: Pressure, kPa = 101
Fixed: Temperature, K = 279.15
Property: Speed of sound, m/s (Liquid); method: LVPAI:UFactor:8
Mole fraction of 1,4-dioxane	Speed of sound, m/s	uncertainty
0	1430.4	12
0.018	1490	12.4
0.048	1544.4	12.8
0.077	1580	13
0.096	1590.4	13.1
0.24	1587.6	13.1
0.387	1531.6	12.9
0.595	1479.4	12.8

System: 1,4-dioxane + water; phases: Liquid
Fixed: Pressure, kPa = 101
Fixed: Temperature, K = 279.15
Property: Mass density, kg/m3 (Liquid); method: PYCNOM:UFactor:8
Mole fraction of 1,4-dioxane	Mass density, kg/m3	uncertainty
0	999.9	3.1
0.018	1008.9	3.2
0.048	1021	3.3
0.077	1031.1	3.4
0.096	1035.1	3.5
0.24	1051.2	4.1
0.387	1052.8	4.9
0.595	1051.7	6.3

System: acetonitrile + water; phases: Liquid
Fixed: Pressure, kPa = 101
Fixed: Temperature, K = 279.15
Property: Speed of sound, m/s (Liquid); method: LVPAI:UFactor:8
Mole fraction of acetonitrile	Speed of sound, m/s	uncertainty
0	1430.4	12
0.053	1540	12.7
0.091	1549.6	12.8
0.146	1511.8	12.6
0.187	1476.2	12.4
0.296	1451	12.3
0.376	1425	12.2
0.518	1387.2	12.1
0.692	1352	12.1
0.889	1321	12.2

System: acetonitrile + water; phases: Liquid
Fixed: Pressure, kPa = 101
Fixed: Temperature, K = 279.15
Property: Mass density, kg/m3 (Liquid); method: PYCNOM:UFactor:8
Mole fraction of acetonitrile	Mass density, kg/m3	uncertainty
0	999.9	3.1
0.053	986.6	3.2
0.091	974.3	3.2
0.146	955.5	3.3
0.187	941.9	3.3
0.296	909.5	3.6
0.376	888.4	3.8
0.518	859	4.2
0.692	831.5	4.9
0.889	807.2	5.9

System: tetrahydrofuran + water; phases: Liquid
Fixed: Pressure, kPa = 101
Fixed: Temperature, K = 279.15
Property: Speed of sound, m/s (Liquid); method: LVPAI:UFactor:8
Mole fraction of tetrahydrofuran	Speed of sound, m/s	uncertainty
0	1433	12.1
0.046	1571.5	12.9
0.086	1610.7	13.2
0.19	1554	12.9
0.33	1474.2	12.5
0.54	1420.7	12.4
0.74	1396.7	12.4

System: tetrahydrofuran + water; phases: Liquid
Fixed: Pressure, kPa = 101
Fixed: Temperature, K = 279.15
Property: Mass density, kg/m3 (Liquid); method: PYCNOM:UFactor:16
Mole fraction of tetrahydrofuran	Mass density, kg/m3	uncertainty
0	999.9	5.8
0.046	996.6	5.9
0.086	994.4	5.9
0.19	979	6.2
0.33	970.5	6.7
0.54	934	7.4
0.74	919.2	8.6
