Measured thermophysical data. Excess Molar Volumes of (propiophenone + benzene, or toluene, or ethylbenzene, or butylbenzene) at temperatures 298.15 K and 328.15 K
Source: J. Chem. Thermodyn., 2005, 10.1016/j.jct.2005.01.007
Compound 1: ethyl phenyl ketone, C9H10O, InChI=1S/C9H10O/c1-2-9(10)8-6-4-3-5-7-8/h3-7H,2H2,1H3, purity 99%
Compound 2: benzene, C6H6, InChI=1S/C6H6/c1-2-4-6-5-3-1/h1-6H, purity 99.7%
Compound 3: toluene, C7H8, InChI=1S/C7H8/c1-7-5-3-2-4-6-7/h2-6H,1H3, purity 99.9%
Compound 4: ethylbenzene, C8H10, InChI=1S/C8H10/c1-2-8-6-4-3-5-7-8/h3-7H,2H2,1H3, purity 99%
Compound 5: butylbenzene, C10H14, InChI=1S/C10H14/c1-2-3-7-10-8-5-4-6-9-10/h4-6,8-9H,2-3,7H2,1H3, purity 99%

System: ethyl phenyl ketone; phases: Liquid
Property: Refractive index (Na D-line) (Liquid); method: Standard Abbe refractometry
Temperature, K	Pressure, kPa	Refractive index (Na D-line)	uncertainty
298.15	101.325	1.5245	0.0007

System: ethyl phenyl ketone; phases: Liquid
Fixed: Pressure, kPa = 101
Property: Mass density, kg/m3 (Liquid); method: VIBTUB:UFactor:4
Temperature, K	Mass density, kg/m3	uncertainty
298.15	1005.24	0.22
298.15	1005.26	0.22
298.15	1005.29	0.22
328.15	979.46	0.24
328.15	979.48	0.24
328.15	979.5	0.24
328.15	979.54	0.24

System: benzene; phases: Liquid
Property: Refractive index (Na D-line) (Liquid); method: Standard Abbe refractometry
Temperature, K	Pressure, kPa	Refractive index (Na D-line)	uncertainty
298.15	101.325	1.4979	0.0007

System: benzene; phases: Liquid
Fixed: Pressure, kPa = 101
Property: Mass density, kg/m3 (Liquid); method: VIBTUB:UFactor:4
Temperature, K	Mass density, kg/m3	uncertainty
298.15	873.62	0.42
328.15	841.52	0.48

System: toluene; phases: Liquid
Property: Refractive index (Na D-line) (Liquid); method: Standard Abbe refractometry
Temperature, K	Pressure, kPa	Refractive index (Na D-line)	uncertainty
298.15	101.325	1.4941	0.0007

System: toluene; phases: Liquid
Fixed: Pressure, kPa = 101
Property: Mass density, kg/m3 (Liquid); method: VIBTUB:UFactor:4
Temperature, K	Mass density, kg/m3	uncertainty
298.15	862.25	0.44
328.15	834.25	0.5

System: ethylbenzene; phases: Liquid
Property: Refractive index (Na D-line) (Liquid); method: Standard Abbe refractometry
Temperature, K	Pressure, kPa	Refractive index (Na D-line)	uncertainty
298.15	101.325	1.4931	0.0007

System: ethylbenzene; phases: Liquid
Fixed: Pressure, kPa = 101
Property: Mass density, kg/m3 (Liquid); method: VIBTUB:UFactor:4
Temperature, K	Mass density, kg/m3	uncertainty
298.15	862.26	0.46
328.15	835.86	0.51

System: butylbenzene; phases: Liquid
Property: Refractive index (Na D-line) (Liquid); method: Standard Abbe refractometry
Temperature, K	Pressure, kPa	Refractive index (Na D-line)	uncertainty
298.15	101.325	1.4874	0.0007

System: butylbenzene; phases: Liquid
Fixed: Pressure, kPa = 101
Property: Mass density, kg/m3 (Liquid); method: VIBTUB:UFactor:4
Temperature, K	Mass density, kg/m3	uncertainty
298.15	856.23	0.48
328.15	832.29	0.52

System: benzene + ethyl phenyl ketone; phases: Liquid
Fixed: Pressure, kPa = 101
Property: Mass density, kg/m3 (Liquid); method: VIBTUB:UFactor:4
Temperature, K	Mole fraction of benzene	Mass density, kg/m3	uncertainty
298.15	0	1005.24	0.22
298.15	0.10793	995.49	0.21
298.15	0.19818	986.83	0.22
298.15	0.27248	979.24	0.23
298.15	0.36911	968.74	0.25
298.15	0.4557	958.59	0.27
298.15	0.52053	950.57	0.28
298.15	0.62776	936.19	0.3
298.15	0.74406	919.01	0.33
298.15	0.81981	906.77	0.35
298.15	0.89664	893.38	0.38
298.15	1	873.62	0.42
328.15	0	979.46	0.24
328.15	0.10793	969.44	0.26
328.15	0.19818	960.49	0.27
328.15	0.27248	952.7	0.28
328.15	0.36911	941.82	0.3
328.15	0.4557	931.35	0.32
328.15	0.52053	922.98	0.33
328.15	0.62776	907.95	0.36
328.15	0.74406	889.82	0.39
328.15	0.81981	876.8	0.41
328.15	0.89664	862.6	0.44
328.15	1	841.52	0.48

System: ethyl phenyl ketone + toluene; phases: Liquid
Fixed: Pressure, kPa = 101
Property: Mass density, kg/m3 (Liquid); method: VIBTUB:UFactor:4
Temperature, K	Mole fraction of toluene	Mass density, kg/m3	uncertainty
298.15	0	1005.26	0.22
298.15	0.09253	995.05	0.21
298.15	0.18716	984.09	0.23
298.15	0.27773	973.13	0.24
298.15	0.36341	962.24	0.26
298.15	0.45473	950.09	0.28
298.15	0.55716	935.66	0.31
298.15	0.64025	923.36	0.33
298.15	0.72034	910.9	0.35
298.15	0.82777	893.2	0.38
298.15	0.90986	878.86	0.41
298.15	1	862.25	0.44
328.15	0	979.48	0.24
328.15	0.09253	969.14	0.26
328.15	0.18716	958.07	0.27
328.15	0.27773	946.96	0.29
328.15	0.36341	935.91	0.31
328.15	0.45473	923.57	0.33
328.15	0.55716	908.94	0.36
328.15	0.64025	896.42	0.38
328.15	0.72034	883.78	0.4
328.15	0.82777	865.77	0.44
328.15	0.90986	851.18	0.46
328.15	1	834.25	0.5

System: ethyl phenyl ketone + ethylbenzene; phases: Liquid
Fixed: Pressure, kPa = 101
Property: Mass density, kg/m3 (Liquid); method: VIBTUB:UFactor:4
Temperature, K	Mole fraction of ethylbenzene	Mass density, kg/m3	uncertainty
298.15	0	1005.29	0.22
298.15	0.1025	992.18	0.23
298.15	0.1878	981.02	0.24
298.15	0.27409	969.49	0.26
298.15	0.36677	956.85	0.29
298.15	0.44912	945.37	0.31
298.15	0.55037	930.94	0.33
298.15	0.63587	918.44	0.36
298.15	0.72464	905.22	0.38
298.15	0.83098	888.99	0.41
298.15	0.90932	876.76	0.43
298.15	1	862.26	0.46
328.15	0	979.5	0.24
328.15	0.1025	966.3	0.27
328.15	0.1878	955.11	0.29
328.15	0.27409	943.55	0.31
328.15	0.36677	930.84	0.33
328.15	0.44912	919.32	0.36
328.15	0.55037	904.84	0.38
328.15	0.63587	892.32	0.4
328.15	0.72464	879.02	0.43
328.15	0.83098	862.68	0.46
328.15	0.90932	850.4	0.48
328.15	1	835.86	0.51

System: ethyl phenyl ketone + butylbenzene; phases: Liquid
Fixed: Pressure, kPa = 101
Property: Mass density, kg/m3 (Liquid); method: VIBTUB:UFactor:4
Temperature, K	Mole fraction of butylbenzene	Mass density, kg/m3	uncertainty
298.15	0	1005.29	0.22
298.15	0.0906	989.98	0.23
298.15	0.18418	974.56	0.26
298.15	0.27389	960.14	0.29
298.15	0.36876	945.31	0.32
298.15	0.45306	932.45	0.34
298.15	0.55188	917.76	0.37
298.15	0.6164	908.4	0.38
298.15	0.71105	894.97	0.41
298.15	0.80529	881.97	0.43
298.15	0.90439	868.69	0.46
298.15	1	856.23	0.48
328.15	0	979.54	0.24
328.15	0.0906	964.4	0.27
328.15	0.18418	949.13	0.3
328.15	0.27389	934.89	0.33
328.15	0.36876	920.21	0.36
328.15	0.45306	907.51	0.38
328.15	0.55188	893	0.41
328.15	0.6164	883.77	0.43
328.15	0.71105	870.51	0.45
328.15	0.80529	857.68	0.48
328.15	0.90439	844.57	0.5
328.15	1	832.29	0.52
