Measured thermophysical data. Thermodynamic properties of L-threonine
Source: J. Chem. Thermodyn., 2018, 10.1016/j.jct.2017.09.022
Compound 1: carbon dioxide, CO2, InChI=1S/CO2/c2-1-3
Compound 2: nitrogen, N2, InChI=1S/N2/c1-2
Compound 3: water, H2O, InChI=1S/H2O/h1H2
Compound 4: oxygen, O2, InChI=1S/O2/c1-2
Compound 5: L-threonine, C4H9NO3, InChI=1S/C4H9NO3/c1-2(6)3(5)4(7)8/h2-3,6H,5H2,1H3,(H,7,8)/t2-,3+/m1/s1, purity 99.3%

System: L-threonine; phases: Crystal
Fixed: Pressure, kPa = 101.325
Property: Molar heat capacity at constant pressure, J/K/mol (Crystal); method: Small (less than 1 g) adiabatic calorimetry
Temperature, K	Molar heat capacity at constant pressure, J/K/mol	uncertainty
5	0.06402134046	0.0166289196
10	0.5154965076	0.0249433794
15	2.2781619852	0.0914590578
20	5.3461976514	0.2244904146
25	9.478484172	0.166289196
30	14.217726258	0.249433794
35	19.040112942	0.332578392
40	23.613065832	0.332578392
45	28.019729526	0.498867588
50	32.343248622	0.498867588
60	40.574563824	0.665156784
70	48.057577644	0.83144598
80	53.545121112	0.83144598
90	59.282098374	0.41572299
100	65.26850943	0.498867588
110	70.839197496	0.582012186
120	76.160451768	0.582012186
130	81.232272246	0.665156784
140	86.220948126	0.665156784
150	90.960190212	0.665156784
160	95.6162877	0.665156784
170	100.18924059	0.83144598
180	104.595904284	0.83144598
190	109.002567978	0.83144598
200	113.326087074	0.83144598
210	117.566461572	0.83144598
220	121.80683607	0.83144598
230	126.130355166	0.997735176
240	130.370729664	0.997735176
250	134.69424876	0.997735176
260	138.934623258	0.997735176
270	143.258142354	0.997735176
280	147.58166145	0.997735176
290	151.822035948	0.997735176
298.15	155.314109064	1.164024372
300	155.979265848	1.164024372
310	159.554483562	1.164024372
320	163.462279668	1.164024372
330	166.871208186	1.164024372
340	170.612715096	1.164024372
350	174.936234192	1.164024372
360	178.7608857	1.164024372
370	182.252958816	1.330313568

System: L-threonine; phases: Crystal
Fixed: Pressure, kPa = 101.325
Property: Molar enthalpy function {Hm(T)-Hm(0)}/T, J/K/mol (Crystal); method: Small (less than 1 g) adiabatic calorimetry
Temperature, K	Molar enthalpy function {Hm(T)-Hm(0)}/T, J/K/mol	uncertainty
5	0.01579747362	0.01579747362
10	0.12970557288	0.0207861495
15	0.51466506162	0.0540439887
20	1.3136846484	0.1330313568
25	2.49433794	0.166289196
30	4.074085302	0.249433794
35	5.903266458	0.41572299
40	7.815592212	0.498867588
45	9.811062564	0.665156784
50	11.889677514	0.83144598
60	15.963762816	1.080879774
70	20.037848118	0.41572299
80	23.862499626	0.498867588
90	27.520861938	0.665156784
100	31.012935054	0.498867588
110	34.338718974	0.498867588
120	37.581358296	0.498867588
130	40.74085302	0.498867588
140	43.817203146	0.582012186
150	46.810408674	0.582012186
160	49.720469604	0.665156784
170	52.547385936	0.665156784
180	55.374302268	0.665156784
190	58.034929404	0.748301382
200	60.69555654	0.748301382
210	63.273039078	0.748301382
220	65.850521616	0.83144598
230	68.428004154	0.83144598
240	70.922342094	0.498867588
250	73.333535436	0.582012186
260	75.827873376	0.582012186
270	78.239066718	0.582012186
280	80.65026006	0.582012186
290	82.978308804	0.665156784
298.15	84.890634558	0.665156784
300	85.389502146	0.665156784
310	87.71755089	0.665156784
320	89.962455036	0.665156784
330	92.29050378	0.665156784
340	94.535407926	0.665156784
350	96.780312072	0.748301382
360	99.025216218	0.748301382
370	101.186975766	0.748301382

System: L-threonine; phases: Crystal
Fixed: Pressure, kPa = 101.325
Property: Molar entropy, J/K/mol (Crystal); method: Small (less than 1 g) adiabatic calorimetry
Temperature, K	Molar entropy, J/K/mol	uncertainty
5	0.02161759548	0.02411193342
10	0.1746036558	0.0332578392
15	0.6734712438	0.1080879774
20	1.7127787188	0.249433794
25	3.32578392	0.249433794
30	5.487543468	0.498867588
35	8.065026006	0.748301382
40	10.891942338	0.997735176
45	13.885147866	1.24716897
50	17.127787188	1.496602764
60	23.69621043	2.161759548
70	30.597212064	0.997735176
80	37.331924502	1.24716897
90	43.983492342	1.579747362
100	50.551915584	1.330313568
110	57.037194228	1.413458166
120	63.439328274	1.080879774
130	69.675173124	1.24716897
140	75.911017974	1.330313568
150	82.063718226	1.496602764
160	88.050129282	1.579747362
170	93.95339574	1.579747362
180	99.856662198	1.746036558
190	105.59363946	1.829181156
200	111.330616722	1.995470352
210	116.901304788	1.995470352
220	122.471992854	2.161759548
230	128.04268092	2.244904146
240	133.44707979	1.579747362
250	138.85147866	1.66289196
260	144.25587753	1.746036558
270	149.577131802	1.829181156
280	154.815241476	1.829181156
290	160.136495748	1.995470352
298.15	164.376870246	1.995470352
300	165.291460824	1.995470352
310	170.529570498	1.912325754
320	175.601390976	1.912325754
330	180.673211454	1.912325754
340	185.745031932	1.995470352
350	190.733707812	1.995470352
360	195.722383692	1.995470352
370	200.711059572	2.161759548

System: L-threonine; phases: Crystal
Fixed: Pressure, kPa = 101.325
Property: Molar heat capacity at constant pressure, J/K/mol (Crystal); method: Small (less than 1 g) adiabatic calorimetry
Temperature, K	Molar heat capacity at constant pressure, J/K/mol	uncertainty
7.37	0.20037848118	0.01912325754
7.65	0.23031053646	0.01995470352
8.44	0.30680356662	0.02244904146
9.19	0.39576828648	0.0249433794
9.43	0.4406663694	0.02660627136
9.67	0.4739242086	0.02826916332
9.9	0.49221602016	0.0291006093
10.18	0.57286628022	0.03159494724
10.51	0.66432533802	0.03575217714
10.84	0.72418944858	0.0374150691
11.17	0.81564850638	0.041572299
11.5	0.91292768604	0.04489808292
11.83	0.99690373002	0.04905531282
12.17	1.11330616722	0.05321254272
12.51	1.2430117401	0.0582012186
12.84	1.35276260946	0.06318989448
13.18	1.48080529038	0.06817857036
13.53	1.61882532306	0.07316724624
13.87	1.76017113966	0.0789873681
14.22	1.91315719998	0.08563893594
14.57	2.06531181432	0.0914590578
14.92	2.23742113218	0.09811062564
15.27	2.37710405682	0.1039307475
15.62	2.56667374026	0.11141376132
15.97	2.76538932948	0.11972822112
16.32	2.9848910682	0.1288741269
16.68	3.15201171018	0.13552569474
17.04	3.35405308332	0.14384015454
17.4	3.60182398536	0.1538175063
17.76	3.80719114242	0.1621319661
18.11	4.06327650426	0.17210931786
18.48	4.28527258092	0.18125522364
18.83	4.52057179326	0.19040112942
19.2	4.80326342646	0.20204137314
19.56	5.0510343285	0.2120187249
19.93	5.33123162376	0.22365896862
20.52	5.73780870798	0.11473954524
21.27	6.3023605284	0.12388545102
22.01	6.89019283626	0.13386280278
22.77	7.51544021322	0.14384015454
23.52	8.15731650978	0.15464895228
24.28	8.8216418478	0.166289196
25.04	9.5449998504	0.1746036558
25.8	10.2766723128	0.1912325754
26.57	10.9418290968	0.1995470352
27.34	11.6236148004	0.207861495
28.11	12.3137149638	0.2161759548
28.88	13.0869597252	0.2328048744
29.66	13.8352611072	0.2411193342
30.44	14.6251347882	0.2660627136
31.22	15.38175063	0.2826916332
32.01	16.1799387708	0.291006093
32.79	16.9365546126	0.2993205528
33.58	17.6765415348	0.3159494724
34.37	18.374956158	0.3242639322
35.15	19.164829839	0.3408928518
35.94	19.871558922	0.3492073116
36.73	20.6281747638	0.3658362312
37.52	21.3598472262	0.374150691
38.32	22.0582618494	0.3824651508
39.11	22.7899343118	0.3990940704
39.9	23.4550910958	0.4074085302
40.69	24.2033924778	0.41572299
41.48	24.9516938598	0.4323519096
42.28	25.650108483	0.4406663694
43.08	26.3817809454	0.457295289
43.88	27.0885100284	0.4656097488
44.68	27.8284969506	0.4739242086
45.48	28.518597114	0.4905531282
46.27	29.2170117372	0.498867588
47.07	29.9237408202	0.5154965076
47.87	30.5639542248	0.5238109674
48.67	31.1709097902	0.5321254272
49.47	31.8526954938	0.540439887
50.27	32.5012233582	0.5570688066
51.07	33.1248078432	0.5653832664
51.88	33.8315369262	0.5736977262
52.68	34.5299515494	0.5903266458
53.48	35.2782529314	0.5986411056
54.29	36.1429567506	0.6152700252
55.09	36.916201512	0.623584485
55.9	37.7393330322	0.6402134046
56.7	38.3462885976	0.6485278644
57.51	38.8950429444	0.6568423242
58.32	39.2109924168	0.665156784
59.12	39.7514323038	0.6734712438
59.93	40.3833312486	0.6817857036
60.74	41.0069157336	0.6901001634
61.55	41.6388146784	0.6984146232
62.35	42.2540847036	0.7150435428
63.15	42.8776691886	0.7233580026
63.96	43.8670899048	0.7399869222
64.76	44.4657310104	0.748301382
65.57	44.981227518	0.7566158418
66.38	45.5466107844	0.7649303016
67.19	46.0870506714	0.7732447614
67.99	46.6690628574	0.7815592212
68.8	47.2427605836	0.789873681
69.61	47.683426953	0.7981881408
70.54	48.307011438	0.8065026006
71.58	49.138457418	0.8231315202
72.63	49.7038406844	0.83144598
73.67	50.3274251694	0.8397604398
74.72	50.7847204584	0.8480748996
75.77	51.341789265	0.8563893594
76.82	51.9570592902	0.873018279
77.87	52.5141280968	0.8813327388
78.92	53.0795113632	0.8896471986
79.65	53.0296246044	0.8896471986
79.97	53.6615235492	0.8979616584
80.45	53.5201777326	0.8979616584
81.02	54.3100514136	0.9062761182
81.25	53.960844102	0.9062761182
82.06	54.8671202202	0.914590578
82.06	54.4763406096	0.914590578
82.86	54.9668937378	0.9229050378
83.11	55.5239625444	0.9312194976
83.66	55.415874567	0.9229050378
84.17	56.1558614892	0.9395339574
84.46	55.8814843158	0.9312194976
85.26	56.3387796048	0.4323519096
86.06	56.870905032	0.4406663694
86.86	57.3780870798	0.4406663694
87.65	57.8603257482	0.4406663694
88.45	58.325935497	0.4489808292
89.25	58.7749163262	0.4489808292
90.05	59.2322116152	0.4739242086
90.85	59.7227647434	0.4739242086
91.64	60.1883744922	0.4739242086
92.44	60.737128839	0.4822386684
93.24	61.3025121054	0.4822386684
94.04	61.7681218542	0.4905531282
94.84	62.192159304	0.4905531282
95.63	62.649454593	0.4905531282
96.43	63.1150643418	0.498867588
97.23	63.6388753092	0.498867588
98.02	64.1626862766	0.5071820478
98.82	64.6199815656	0.5071820478
99.62	65.0357045556	0.5071820478
100.5	65.5262576838	0.5154965076
101.45	66.1165843296	0.5154965076
102.41	66.6071374578	0.5154965076
103.36	67.1143195056	0.5238109674
104.32	67.6713883122	0.5238109674
105.27	68.2035137394	0.5321254272
106.22	68.7855259254	0.5321254272
107.18	69.3509091918	0.540439887
108.13	69.8331478602	0.540439887
109.09	70.3569588276	0.540439887
110.05	70.797625197	0.5487543468
111	71.3214361644	0.5487543468
111.95	71.9367061896	0.5570688066
112.91	72.418944858	0.5570688066
113.86	72.9510702852	0.5570688066
114.82	73.4333089536	0.5653832664
115.77	73.9654343808	0.5653832664
116.72	74.3562139914	0.5653832664
117.68	74.9215972578	0.5736977262
118.63	75.495294984	0.5736977262
119.59	75.8943890544	0.582012186
120.53	76.3516843434	0.582012186
121.49	76.8006651726	0.582012186
122.44	77.449193037	0.5903266458
123.39	77.9148027858	0.5903266458
124.35	78.2972679366	0.5903266458
125.3	78.8044499844	0.5986411056
126.25	79.2700597332	0.5986411056
127.21	79.81881408	0.6069555654
128.16	80.2594804494	0.6069555654
129.11	80.7832914168	0.6069555654
130.07	81.2572156254	0.6152700252
131.02	81.6978819948	0.6152700252
131.97	82.1136049848	0.6152700252
132.93	82.7205605502	0.623584485
133.87	83.144598	0.665156784
134.82	83.726610186	0.665156784
135.76	84.142333176	0.665156784
136.71	84.558056166	0.665156784
137.66	85.22321295	0.665156784
138.61	85.63893594	0.665156784
139.56	85.971514332	0.665156784
140.51	86.553526518	0.665156784
141.46	87.052394106	0.665156784
142.41	87.468117096	0.665156784
143.36	87.800695488	0.665156784
144.31	88.382707674	0.665156784
145.26	88.798430664	0.665156784
146.21	89.131009056	0.665156784
147.15	89.629876644	0.665156784
148.1	90.128744232	0.665156784
149.05	90.62761182	0.665156784
150	90.960190212	0.665156784
150.93	91.375913202	0.665156784
151.88	91.87478079	0.665156784
152.83	92.207359182	0.665156784
153.78	92.789371368	0.665156784
154.71	93.205094358	0.665156784
155.66	93.703961946	0.665156784
156.61	94.202829534	0.665156784
157.55	94.535407926	0.665156784
158.5	94.867986318	0.665156784
159.44	95.366853906	0.665156784
160.38	95.699432298	0.748301382
161.33	96.115155288	0.748301382
162.27	96.697167474	0.748301382
163.21	97.029745866	0.748301382
164.16	97.528613454	0.748301382
165.1	98.027481042	0.748301382
166.02	98.360059434	0.748301382
166.96	98.775782424	0.748301382
167.9	99.108360816	0.748301382
168.84	99.690373002	0.748301382
169.78	100.022951394	0.748301382
170.72	100.438674384	0.748301382
171.66	100.854397374	0.748301382
172.6	101.270120364	0.748301382
173.54	101.602698756	0.748301382
174.48	102.101566344	0.748301382
175.42	102.600433932	0.748301382
176.34	103.016156922	0.748301382
177.28	103.431879912	0.748301382
178.21	103.764458304	0.748301382
179.15	104.34647049	0.748301382
180.08	104.595904284	0.748301382
180.99	104.928482676	0.748301382
181.93	105.344205666	0.748301382
182.86	105.843073254	0.748301382
183.79	106.341940842	0.748301382
184.73	106.674519234	0.748301382
185.66	107.090242224	0.748301382
186.59	107.505965214	0.748301382
187.52	107.921688204	0.748301382
188.45	108.254266596	0.83144598
189.38	108.753134184	0.83144598
190.32	109.085712576	0.83144598
191.25	109.501435566	0.83144598
192.18	110.000303154	0.83144598
193.1	110.249736948	0.83144598
194.03	110.665459938	0.83144598
194.96	111.081182928	0.83144598
195.86	111.496905918	0.83144598
196.79	111.82948431	0.83144598
197.72	112.328351898	0.83144598
198.65	112.66093029	0.83144598
199.57	112.993508682	0.83144598
200.62	113.49237627	0.83144598
201.78	114.074388456	0.83144598
202.93	114.573256044	0.83144598
204.09	115.072123632	0.83144598
205.25	115.654135818	0.83144598
206.41	116.153003406	0.83144598
207.57	116.568726396	0.83144598
208.73	117.067593984	0.83144598
209.9	117.566461572	0.83144598
211.06	118.06532916	0.83144598
212.23	118.647341346	0.83144598
213.35	119.063064336	0.83144598
214.52	119.561931924	0.83144598
215.69	119.977654914	0.83144598
216.86	120.476522502	0.83144598
218.03	120.892245492	0.83144598
219.2	121.474257678	0.914590578
220.37	121.973125266	0.914590578
221.54	122.555137452	0.914590578
222.71	122.970860442	0.914590578
223.89	123.46972803	0.914590578
225.06	123.968595618	0.914590578
226.24	124.550607804	0.914590578
227.41	125.049475392	0.914590578
228.59	125.465198382	0.914590578
229.77	125.96406597	0.914590578
230.95	126.37978896	0.914590578
232.1	126.961801146	0.914590578
233.28	127.543813332	0.914590578
234.46	128.292114714	0.914590578
235.64	128.624693106	0.914590578
236.82	129.040416096	0.914590578
238	129.622428282	0.914590578
239.18	130.038151272	0.914590578
240.37	130.53701886	0.914590578
241.55	131.035886448	0.914590578
242.74	131.451609438	0.914590578
243.92	132.033621624	0.914590578
245.11	132.532489212	0.914590578
246.3	132.948212202	0.914590578
247.49	133.613368986	0.997735176
248.68	134.029091976	0.997735176
249.87	134.527959564	0.997735176
251.05	134.943682554	0.997735176
252.25	135.359405544	0.997735176
253.44	135.858273132	0.997735176
254.64	136.689719112	0.997735176
255.83	137.105442102	0.997735176
257.02	137.936888082	0.997735176
258.22	138.43575567	0.997735176
259.42	138.768334062	0.997735176
260.62	139.26720165	0.997735176
261.82	139.849213836	0.997735176
263.02	140.348081424	0.997735176
264.22	140.680659816	0.997735176
265.42	141.428961198	0.997735176
266.63	142.010973384	0.997735176
267.84	142.426696374	0.997735176
269.05	142.925563962	0.997735176
270.25	143.341286952	0.997735176
271.46	144.089588334	0.997735176
272.67	144.422166726	0.997735176
273.88	145.170468108	0.997735176
275.09	145.5030465	0.997735176
276.3	145.91876949	0.997735176
277.52	146.417637078	1.080879774
278.73	146.833360068	1.080879774
279.95	147.498516852	1.080879774
281.17	147.914239842	1.080879774
282.39	148.496252028	1.080879774
283.61	148.995119616	1.080879774
284.84	149.493987204	1.080879774
286.06	149.992854792	1.080879774
287.29	150.574866978	1.080879774
288.48	151.156879164	1.080879774
289.71	151.73889135	1.080879774
290.94	152.237758938	1.080879774
292.17	152.653481928	1.080879774
293.4	153.568072506	1.080879774
294.63	153.651217104	1.080879774
295.86	154.399518486	1.080879774
297.1	154.815241476	1.080879774
298.33	155.397253662	1.080879774
299.57	155.979265848	1.080879774
301.28	156.31184424	1.080879774
303.43	157.14329022	1.080879774
305.56	157.9747362	1.080879774
307.69	158.556748386	1.080879774
309.8	159.554483562	1.164024372
311.9	160.302784944	1.164024372
313.99	161.134230924	1.164024372
316.05	161.882532306	1.164024372
318.12	162.797122884	1.164024372
320.16	163.545424266	1.164024372
322.2	164.21058105	1.164024372
324.22	164.875737834	1.164024372
326.23	165.707183814	1.164024372
328.22	166.289196	1.164024372
330.18	166.954352784	1.164024372
332.14	167.53636497	1.164024372
333.96	168.201521754	1.164024372
335.89	168.949823136	1.164024372
337.81	169.698124518	1.164024372
339.72	170.363281302	1.164024372
341.6	171.27787188	1.164024372
343.43	172.358751654	1.24716897
345.28	172.774474644	1.24716897
347.12	173.689065222	1.24716897
348.93	174.437366604	1.24716897
350.73	175.185667986	1.24716897
352.45	175.85082477	1.24716897
354.22	176.68227075	1.24716897
355.96	177.347427534	1.24716897
357.68	177.92943972	1.24716897
359.39	178.594596504	1.24716897
361.08	179.259753288	1.24716897
362.43	179.59233168	1.24716897
364.01	180.174343866	1.24716897
365.64	180.83950065	1.24716897
367.26	181.172079042	1.24716897
368.85	181.837235826	1.24716897
370.42	182.50239261	1.24716897
371.97	182.834971002	1.24716897

Reaction: -1 L-threonine + 4 carbon dioxide + .5 nitrogen + 4.5 water + -4.75 oxygen
Property: Specific internal energy of reaction at constant volume, J/g
-17516.2
