Measured thermophysical data. Measurement and correlation of the (p, rho, T) behavior of liquid propylene glycol at temperatures from (272.7 to 393.0) K and pressures up to 91.4 MPa
Source: J. Chem. Thermodyn., 2019, 10.1016/j.jct.2018.10.016
Compound 1: 1,2-propanediol, C3H8O2, InChI=1S/C3H8O2/c1-3(5)2-4/h3-5H,2H2,1H3, purity 98.8%

System: 1,2-propanediol; phases: Liquid
Property: Mass density, kg/m3 (Liquid); method: Vibrating tube method
Temperature, K	Pressure, kPa	Mass density, kg/m3	uncertainty
272.695	5240	1054.19	1.81
272.681	10290	1056.38	1.82
272.675	15270	1058.53	1.82
272.716	20360	1060.64	1.82
272.726	30580	1064.73	1.83
272.734	50680	1072.45	1.85
272.766	71000	1079.68	1.87
272.744	91400	1086.61	1.89
272.764	50810	1072.51	1.85
272.78	15370	1058.52	1.82
293.177	5180	1039.1	1.81
293.18	10100	1041.39	1.81
293.181	15210	1043.73	1.81
293.18	20190	1045.96	1.82
293.18	30240	1050.35	1.82
293.183	50550	1058.66	1.84
293.183	70760	1066.35	1.85
293.184	90990	1073.55	1.88
293.18	50680	1058.72	1.84
293.178	15310	1043.77	1.81
313.124	5120	1024.21	1.81
313.126	10070	1026.73	1.81
313.126	15110	1029.21	1.81
313.125	20290	1031.71	1.81
313.128	30290	1036.38	1.82
313.124	50710	1045.31	1.83
313.122	71030	1053.5	1.84
313.123	91240	1061.08	1.86
313.122	50990	1045.42	1.83
313.124	15580	1029.43	1.81
352.991	5010	993.23	1.8
352.995	10100	996.26	1.8
352.995	15280	999.29	1.81
352.991	20210	1002.06	1.8
352.994	30360	1007.57	1.81
352.995	50610	1017.74	1.81
352.992	70750	1027.01	1.82
352.993	91060	1035.61	1.83
352.993	50620	1017.76	1.81
352.993	15390	999.36	1.81
392.94	5080	959.54	1.8
392.945	10090	963.15	1.81
392.954	15190	966.67	1.81
392.957	20230	970.02	1.81
392.966	30430	976.54	1.81
392.948	50730	988.44	1.81
392.94	70890	999.07	1.8
392.942	90950	1008.71	1.81
392.95	50820	988.49	1.81
392.96	15180	966.75	1.81
283.21	5190	1046.44	1.81
283.193	10060	1048.67	1.81
283.171	15100	1050.92	1.82
283.167	20200	1053.13	1.82
283.168	30530	1057.48	1.83
283.176	50550	1065.43	1.84
283.194	70990	1072.96	1.86
283.182	91270	1079.99	1.88
283.179	50490	1065.4	1.84
283.169	15140	1050.94	1.82
298.117	5090	1035.37	1.81
298.119	10070	1037.74	1.81
298.116	15240	1040.15	1.81
298.116	20170	1042.4	1.82
298.118	30300	1046.89	1.82
298.117	50590	1055.32	1.83
298.113	70930	1063.17	1.85
298.116	91050	1070.41	1.87
298.115	50650	1055.35	1.83
298.116	15160	1040.11	1.81
333.051	5260	1009.12	1.81
333.051	10050	1011.76	1.81
333.05	15120	1014.46	1.81
333.053	20250	1017.1	1.81
333.054	30400	1022.19	1.81
333.054	50610	1031.67	1.82
333.055	70910	1040.39	1.83
333.055	91130	1048.43	1.85
333.056	51080	1031.87	1.82
333.057	15210	1014.48	1.81
373.336	10320	980.11	1.8
373.338	15330	983.26	1.81
373.342	20360	986.4	1.81
373.341	30530	992.32	1.81
373.343	50610	1003.25	1.81
373.343	70990	1013.23	1.81
373.345	91190	1022.41	1.82
373.345	50860	1003.34	1.81
373.345	15540	983.34	1.81
373.347	5160	976.65	1.8
313.031	5190	1024.2	1.81
313.031	10100	1026.69	1.81
313.03	15280	1029.25	1.81
313.031	20240	1031.64	1.81
313.029	30440	1036.4	1.82
313.029	50660	1045.24	1.83
313.03	70960	1053.42	1.84
313.031	91090	1061	1.86
313.03	50710	1045.28	1.83
313.029	15210	1029.23	1.81
