Measured thermophysical data. Phase equilibrium measurements and thermodynamic modeling of binary mixtures containing a diesel compound n-dodecane + biodiesel compounds: Ethyl dodecanoate and ethyl octanoate
Source: J. Chem. Thermodyn., 2017, 10.1016/j.jct.2017.06.003
Compound 1: ethyl octanoate, C10H20O2, InChI=1S/C10H20O2/c1-3-5-6-7-8-9-10(11)12-4-2/h3-9H2,1-2H3, purity 99%
Compound 2: ethyl dodecanoate, C14H28O2, InChI=1S/C14H28O2/c1-3-5-6-7-8-9-10-11-12-13-14(15)16-4-2/h3-13H2,1-2H3, purity 99%
Compound 3: dodecane, C12H26, InChI=1S/C12H26/c1-3-5-7-9-11-12-10-8-6-4-2/h3-12H2,1-2H3, purity 99%

System: ethyl dodecanoate + dodecane; phases: Liquid, Gas
Property: Vapor or sublimation pressure, kPa (Liquid); method: Closed cell (Static) method
Temperature, K	Mole fraction of ethyl dodecanoate	Vapor or sublimation pressure, kPa	uncertainty
373.15	0.0989	1.873	0.024
373.15	0.3088	1.522	0.021
373.15	0.4977	1.246	0.031
373.15	0.6967	0.838	0.021
373.15	0.9006	0.375	0.023
383.15	0.0989	2.952	0.03
383.15	0.3088	2.399	0.026
383.15	0.4977	1.982	0.024
383.15	0.6967	1.336	0.02
383.15	0.9006	0.612	0.016
393.15	0.0989	4.521	0.041
393.15	0.3088	3.671	0.034
393.15	0.4977	3.044	0.03
393.15	0.6967	2.061	0.024
393.15	0.9006	0.974	0.026
403.15	0.0989	6.743	0.055
403.15	0.3088	5.468	0.046
403.15	0.4977	4.531	0.041
403.15	0.6967	3.092	0.03
403.15	0.9006	1.517	0.022
413.15	0.0989	9.82	0.076
413.15	0.3088	7.948	0.064
413.15	0.4977	6.558	0.054
413.15	0.6967	4.521	0.041
413.15	0.9006	2.313	0.026
423.15	0.0989	13.993	0.106
423.15	0.3088	11.3	0.087
423.15	0.4977	9.256	0.073
423.15	0.6967	6.455	0.053
423.15	0.9006	3.458	0.033
433.15	0.0989	19.544	0.145
433.15	0.3088	15.742	0.117
433.15	0.4977	12.771	0.096
433.15	0.6967	9.024	0.071
433.15	0.9006	5.078	0.044
443.15	0.0989	26.801	0.194
443.15	0.3088	21.527	0.159
443.15	0.4977	17.265	0.128
443.15	0.6967	12.37	0.094
443.15	0.9006	7.331	0.06
453.15	0.0989	36.139	0.259
453.15	0.3088	28.939	0.21
453.15	0.4977	22.909	0.167
453.15	0.6967	16.659	0.124
453.15	0.9006	10.418	0.081

System: ethyl octanoate + dodecane; phases: Liquid, Gas
Property: Vapor or sublimation pressure, kPa (Liquid); method: Closed cell (Static) method
Temperature, K	Mole fraction of ethyl octanoate	Vapor or sublimation pressure, kPa	uncertainty
373.15	0.1081	2.541	0.028
373.15	0.3007	2.65	0.028
373.15	0.4858	2.677	0.028
373.15	0.699	2.714	0.028
373.15	0.893	2.694	0.028
383.15	0.1081	3.915	0.036
383.15	0.3007	4.105	0.037
383.15	0.4858	4.155	0.037
383.15	0.699	4.206	0.038
383.15	0.893	4.155	0.037
393.15	0.1081	5.859	0.05
393.15	0.3007	6.165	0.05
393.15	0.4858	6.257	0.052
393.15	0.699	6.337	0.052
393.15	0.893	6.255	0.052
403.15	0.1081	8.537	0.068
403.15	0.3007	9.005	0.071
403.15	0.4858	9.171	0.073
403.15	0.699	9.31	0.073
403.15	0.893	9.208	0.073
413.15	0.1081	12.143	0.092
413.15	0.3007	12.828	0.096
413.15	0.4858	13.115	0.099
413.15	0.699	13.365	0.101
413.15	0.893	13.278	0.101
423.15	0.1081	16.901	0.126
423.15	0.3007	17.867	0.133
423.15	0.4858	18.342	0.136
423.15	0.699	18.787	0.138
423.15	0.893	18.788	0.138
433.15	0.1081	23.061	0.168
433.15	0.3007	24.381	0.177
433.15	0.4858	25.139	0.182
433.15	0.699	25.905	0.189
433.15	0.893	26.122	0.19
443.15	0.1081	30.901	0.224
443.15	0.3007	32.654	0.235
443.15	0.4858	33.825	0.243
443.15	0.699	35.095	0.252
443.15	0.893	35.733	0.257
453.15	0.1081	40.727	0.291
453.15	0.3007	42.996	0.307
453.15	0.4858	44.75	0.319
453.15	0.699	46.777	0.333
453.15	0.893	48.15	0.342
