Measured thermophysical data. Experimental determination of diffusion and mass transfer of boron oxide in molten slag for metallurgical grade silicon purification
Source: J. Chem. Thermodyn., 2018, 10.1016/j.jct.2017.11.018
Compound 1: calcium monoxide, CaO, InChI=1S/Ca.O/q+2;-2, purity 98%
Compound 2: silicon dioxide, O2Si, InChI=1S/O2Si/c1-3-2, purity 99%
Compound 3: boron oxide (B2O3), B2O3, InChI=1S/B2O3/c3-1-5-2-4, purity 99%

System: calcium monoxide + silicon dioxide + boron oxide (B2O3); phases: Liquid
Property: Tracer diffusion coefficient, m2/s of boron oxide (B2O3) (Liquid); method: capillary-bath diffusion device
Mole fraction of boron oxide (B2O3)	Pressure, kPa	Temperature, K	Solvent: Mass fraction of calcium monoxide	Tracer diffusion coefficient, m2/s of boron oxide (B2O3)	uncertainty
0	100	1723	0.37	5.24	1.36
