Measured thermophysical data. Thermodynamic properties of L-tryptophan
Source: J. Chem. Thermodyn., 2017, 10.1016/j.jct.2016.09.041
Compound 1: carbon dioxide, CO2, InChI=1S/CO2/c2-1-3
Compound 2: nitrogen, N2, InChI=1S/N2/c1-2
Compound 3: water, H2O, InChI=1S/H2O/h1H2
Compound 4: oxygen, O2, InChI=1S/O2/c1-2
Compound 5: L-tryptophan, C11H12N2O2, InChI=1S/C11H12N2O2/c12-9(11(14)15)5-7-6-13-10-4-2-1-3-8(7)10/h1-4,6,9,13H,5,12H2,(H,14,15)/t9-/m0/s1, purity 99.7%

System: L-tryptophan; phases: Crystal
Property: Mass density, kg/m3 (Crystal); method: Estimated from volume and mass a tablet
Temperature, K	Pressure, kPa	Mass density, kg/m3	uncertainty
298.15	101.325	1080	22

System: L-tryptophan; phases: Crystal 2, Crystal 1, Gas
Property: Triple point temperature, K (Crystal 2); method: Adiabatic calorimetry
Triple point temperature, K	uncertainty
79.2	0.2

System: L-tryptophan; phases: Crystal
Fixed: Pressure, kPa = 101.325
Property: Molar heat capacity at constant pressure, J/K/mol (Crystal); method: Small (less than 1 g) adiabatic calorimetry
Temperature, K	Molar heat capacity at constant pressure, J/K/mol	uncertainty
5	0.656843288	0.04157236
10	4.48981488	0.16628944
15	10.06051112	0.33257888
20	16.54579928	0.66515776
25	22.94794272	0.4157236
30	29.35008616	0.4157236
35	35.336506	0.49886832
40	40.82405752	0.58201304
45	45.89588544	0.4157236
50	50.55198976	0.4157236
60	60.03048784	0.58201304
70	68.67753872	0.58201304
79.2	75.99427408	0.74830248

System: L-tryptophan; phases: Crystal
Fixed: Pressure, kPa = 101.325
Property: Molar enthalpy function {Hm(T)-Hm(0)}/T, J/K/mol (Crystal); method: Small (less than 1 g) adiabatic calorimetry
Temperature, K	Molar enthalpy function {Hm(T)-Hm(0)}/T, J/K/mol	uncertainty
5	0.174603912	0.024943416
10	1.238856328	0.116402608
15	3.226015136	0.108088136
20	5.745300152	0.116402608
25	8.56390616	0.16628944
30	11.47397136	0.16628944
35	14.46718128	0.24943416
40	17.4603912	0.24943416
45	20.28731168	0.24943416
50	23.11423216	0.24943416
60	28.43549424	0.24943416
70	33.59046688	0.4157236
79.2	38.08028176	0.4157236

System: L-tryptophan; phases: Crystal
Fixed: Pressure, kPa = 101.325
Property: Molar entropy, J/K/mol (Crystal); method: Small (less than 1 g) adiabatic calorimetry
Temperature, K	Molar entropy, J/K/mol	uncertainty
5	0.224490744	0.033257888
10	1.6628944	0.24943416
15	4.48981488	0.24943416
20	8.314472	0.24943416
25	12.63799744	0.33257888
30	17.4603912	0.49886832
35	22.4490744	0.58201304
40	27.52090232	0.58201304
45	32.59273024	0.58201304
50	37.66455816	0.58201304
60	47.72506928	0.58201304
70	57.70243568	0.8314472
79.2	66.59892072	1.08088136

System: L-tryptophan; phases: Crystal 1
Fixed: Pressure, kPa = 101.325
Property: Molar heat capacity at constant pressure, J/K/mol (Crystal 1); method: Small (less than 1 g) adiabatic calorimetry
Temperature, K	Molar heat capacity at constant pressure, J/K/mol	uncertainty
79.2	71.00559088	0.49886832
80	71.0887356	0.49886832
90	79.56949704	0.49886832
100	86.8862324	0.49886832
110	93.70409944	0.49886832
120	100.43882176	0.58201304
130	107.2566888	0.66515776
140	114.15770056	0.66515776
150	121.05871232	0.66515776
160	128.0428688	0.74830248
170	135.02702528	0.74830248
180	141.92803704	0.74830248
190	148.91219352	0.8314472
200	156.06263944	0.91459192
210	163.21308536	0.91459192
220	170.28038656	0.91459192
230	177.76341136	0.91459192
240	185.24643616	0.91459192
250	192.81260568	1.08088136
260	200.3787752	1.08088136
270	208.02808944	1.08088136
280	215.7605484	1.08088136
290	223.82558624	1.16402608
298.15	228.98055888	1.2471708
300	230.3108744	1.2471708
310	237.04559672	1.2471708
320	243.6140296	1.33031552
330	250.51504136	1.33031552
340	257.99806616	1.33031552
350	265.97995928	1.33031552
360	273.71241824	1.49660496
370	279.61569336	1.49660496

System: L-tryptophan; phases: Crystal 1
Fixed: Pressure, kPa = 101.325
Property: Molar enthalpy function {Hm(T)-Hm(0)}/T, J/K/mol (Crystal 1); method: Small (less than 1 g) adiabatic calorimetry
Temperature, K	Molar enthalpy function {Hm(T)-Hm(0)}/T, J/K/mol	uncertainty
79.2	38.08028176	0.4157236
80	38.41286064	0.4157236
90	42.57009664	0.4157236
100	46.64418792	0.4157236
110	50.55198976	0.58201304
120	54.4597916	0.58201304
130	58.28444872	0.58201304
140	62.02596112	0.58201304
150	65.76747352	0.74830248
160	69.4258412	0.74830248
170	73.08420888	0.74830248
180	76.692689728	0.756616952
190	80.309485048	0.906277448
200	83.89302248	0.91459192
210	87.55139016	0.91459192
220	91.12661312	0.91459192
230	94.70183608	0.91459192
240	98.36020376	1.08088136
250	101.93542672	1.08088136
260	105.5937944	1.08088136
270	109.25216208	1.08088136
280	112.91052976	1.08088136
290	116.56889744	1.2471708
298.15	119.56210736	1.2471708
300	120.31040984	1.2471708
310	123.96877752	1.2471708
320	127.54400048	1.2471708
330	131.20236816	1.2471708
340	134.77759112	1.41346024
350	138.4359588	1.41346024
360	142.09432648	1.41346024
370	145.75269416	1.41346024

System: L-tryptophan; phases: Crystal 1
Fixed: Pressure, kPa = 101.325
Property: Molar entropy, J/K/mol (Crystal 1); method: Small (less than 1 g) adiabatic calorimetry
Temperature, K	Molar entropy, J/K/mol	uncertainty
79.2	66.59892072	1.08088136
80	67.26407848	1.08088136
90	76.16056352	1.16402608
100	84.89075912	1.41346024
110	93.53781	1.41346024
120	102.01857144	1.41346024
130	110.24989872	1.41346024
140	118.481226	1.91232856
150	126.62940856	1.91232856
160	134.61130168	2.16176272
170	142.5931948	2.16176272
180	150.4919432	2.41119688
190	158.3906916	2.41119688
200	166.20629528	2.41119688
210	174.02189896	2.66063104
220	181.75435792	2.66063104
230	189.48681688	2.9100652
240	197.21927584	3.15949936
250	204.86859008	3.15949936
260	212.60104904	3.40893352
270	220.333508	3.40893352
280	228.06596696	3.49207824
290	235.7152812	3.65836768
298.15	242.03427992	3.7415124
300	243.44774016	3.7415124
310	251.0970544	3.99094656
320	258.74636864	3.99094656
330	266.31253816	4.24038072
340	273.87870768	4.24038072
350	281.52802192	4.48981488
360	289.09419144	4.48981488
370	296.66036096	4.73924904

System: L-tryptophan; phases: Crystal
Fixed: Pressure, kPa = 101.325
Property: Molar heat capacity at constant pressure, J/K/mol (Crystal); method: Small (less than 1 g) adiabatic calorimetry
Temperature, K	Molar heat capacity at constant pressure, J/K/mol	uncertainty
7.14	1.91232856	0.091459192
7.31	2.028731168	0.099773664
7.49	2.253221912	0.099773664
7.66	2.219964024	0.099773664
7.83	2.344681104	0.108088136
8.01	2.510970544	0.116402608
8.17	2.718832344	0.12471708
8.33	2.893436256	0.133031552
8.49	3.026467808	0.133031552
8.64	3.117927	0.141346024
8.8	3.192757248	0.141346024
8.95	3.500392712	0.157974968
9.1	3.49207824	0.157974968
9.25	3.78308476	0.16628944
9.39	4.024204448	0.174603912
9.54	4.040833392	0.174603912
9.69	4.140607056	0.182918384
9.83	4.340154384	0.191232856
9.98	4.506443824	0.199547328
10.17	4.65610432	0.199547328
10.41	4.888909536	0.2078618
10.66	5.080142392	0.216176272
10.9	5.36283444	0.232805216
11.14	5.712042264	0.24943416
11.39	5.978105368	0.257748632
11.63	6.15270928	0.257748632
11.88	6.418772384	0.274377576
12.12	6.767980208	0.29100652
12.37	7.009099896	0.299320992
12.62	7.325049832	0.307635464
12.87	7.591112936	0.324264408
13.12	7.873804984	0.33257888
13.37	8.131553616	0.340893352
13.62	8.48076144	0.357522296
13.87	8.696937712	0.365836768
14.12	8.987944232	0.382465712
14.37	9.370409944	0.390780184
14.63	9.611529632	0.399094656
14.89	9.993995344	0.4157236
15.14	10.243429504	0.424038072
15.4	10.542750496	0.440667016
15.65	10.85038596	0.45729596
15.91	11.257795088	0.473924904
16.17	11.590373968	0.482239376
16.42	11.93126732	0.49886832
16.68	12.313733032	0.515497264
16.94	12.59642508	0.523811736
17.2	12.879117128	0.532126208
17.46	13.228324952	0.548755152
17.72	13.63573408	0.565384096
17.98	13.9267406	0.573698568
18.24	14.284262896	0.590327512
18.5	14.558640472	0.598641984
18.77	14.982678544	0.615270928
19.04	15.265370592	0.631899872
19.3	15.67277972	0.648528816
19.56	16.105132264	0.66515776
19.82	16.354566424	0.673472232
20.09	16.745346608	0.282692048
20.64	17.319045176	0.29100652
21.4	18.33341076	0.307635464
22.16	19.272946096	0.324264408
22.93	20.24573932	0.33257888
23.7	21.210218072	0.349207824
24.47	22.266156016	0.365836768
25.24	23.36366632	0.37415124
26.01	24.353088488	0.390780184
26.79	25.259365936	0.399094656
27.56	26.173957856	0.407409128
28.34	27.18832344	0.424038072
29.12	28.152802192	0.432352544
29.9	29.125595416	0.448981488
30.69	30.198162304	0.465610432
31.47	31.22084236	0.473924904
32.25	32.160377696	0.490553848
33.04	33.141485392	0.49886832
33.83	34.039448368	0.515497264
34.62	34.904153456	0.523811736
35.41	35.810430904	0.54044068
36.19	36.725022824	0.557069624
36.98	37.556470024	0.565384096
37.77	38.404546168	0.573698568
38.56	39.2858802	0.590327512
39.36	40.192157648	0.606956456
40.15	40.915516712	0.390780184
40.94	41.771907328	0.399094656
41.73	42.603354528	0.407409128
42.53	43.434801728	0.4157236
43.32	44.31613576	0.424038072
44.11	45.139268488	0.432352544
44.91	45.945772272	0.440667016
45.71	46.694074752	0.440667016
46.51	47.367546984	0.448981488
47.31	48.090906048	0.45729596
48.11	48.706176976	0.45729596
48.9	49.38796368	0.465610432
49.7	50.028178024	0.473924904
50.5	50.809738392	0.482239376
51.3	51.50815404	0.482239376
52.1	52.372859128	0.490553848
52.9	53.353966824	0.49886832
53.7	54.343388992	0.507182792
54.5	55.432584824	0.515497264
55.3	55.648761096	0.523811736
56.1	56.388749104	0.523811736
56.9	57.228510776	0.532126208
57.7	57.95186984	0.54044068
58.51	58.683543376	0.548755152
59.31	59.415216912	0.557069624
60.12	60.146890448	0.557069624
60.92	60.878563984	0.565384096
61.73	61.601923048	0.573698568
62.52	62.325282112	0.58201304
63.32	63.580767384	0.590327512
64.13	64.212667256	0.598641984
64.93	64.877825016	0.598641984
65.73	65.318492032	0.606956456
66.54	65.983649792	0.606956456
67.34	66.532404944	0.615270928
68.15	67.09778904	0.6235854
68.95	67.912607296	0.6235854
69.75	68.586079528	0.631899872
70.56	69.101576792	0.640214344
71.35	69.775049024	0.640214344
72.16	70.2572884	0.648528816
72.96	70.814358024	0.648528816
73.76	71.512773672	0.656843288
74.56	72.194560376	0.66515776
75.36	72.759944472	0.66515776
76.16	73.54150484	0.673472232
76.96	74.190033656	0.681786704
77.76	74.880134832	0.690101176
78.56	75.503720232	0.690101176
79.37	76.152249048	0.698415648

System: L-tryptophan; phases: Crystal 1
Fixed: Pressure, kPa = 101.325
Property: Molar heat capacity at constant pressure, J/K/mol (Crystal 1); method: Small (less than 1 g) adiabatic calorimetry
Temperature, K	Molar heat capacity at constant pressure, J/K/mol	uncertainty
80.17	71.346484232	0.432352544
80.98	72.019956464	0.432352544
81.79	72.776573416	0.440667016
82.59	73.5830772	0.440667016
80.19	71.221767152	0.432352544
80.99	72.00332752	0.432352544
81.79	72.651856336	0.440667016
82.59	73.474989064	0.440667016
83.4	74.08194552	0.448981488
84.2	74.772046696	0.448981488
85	75.41226104	0.45729596
85.8	76.16056352	0.45729596
86.6	77.016954136	0.465610432
87.4	77.549080344	0.465610432
88.21	78.205923632	0.465610432
89.01	78.754678784	0.473924904
89.81	79.336691824	0.473924904
90.61	80.118252192	0.490553848
91.41	80.6503784	0.490553848
92.22	81.074416472	0.490553848
93.02	81.81440448	0.49886832
93.82	82.47956224	0.49886832
94.62	83.078204224	0.49886832
95.43	83.5604436	0.49886832
96.23	84.05931192	0.49886832
97.03	84.89075912	0.49886832
97.83	85.55591688	0.49886832
98.64	86.0547852	0.49886832
99.44	86.38736408	0.49886832
100.24	86.96937712	0.49886832
101.04	87.55139016	0.49886832
101.84	88.1334032	0.49886832
102.65	88.71541624	0.49886832
103.45	89.380574	0.49886832
104.25	89.71315288	0.49886832
105.05	90.37831064	0.49886832
105.85	91.0434684	0.58201304
106.65	91.459192	0.58201304
107.45	91.8749156	0.58201304
108.25	92.54007336	0.58201304
109.05	93.1220864	0.58201304
109.85	93.62095472	0.58201304
110.66	94.20296776	0.58201304
111.46	94.7849808	0.58201304
112.26	95.2007044	0.58201304
113.06	95.86586216	0.58201304
113.86	96.36473048	0.58201304
114.66	96.61416464	0.58201304
115.47	97.36246712	0.58201304
116.27	97.695046	0.58201304
117.07	98.60963792	0.58201304
117.87	99.10850624	0.58201304
118.67	99.69051928	0.58201304
119.47	100.27253232	0.58201304
120.28	100.85454536	0.58201304
121.08	101.18712424	0.58201304
121.88	101.852282	0.58201304
122.68	102.2680056	0.58201304
123.49	102.76687392	0.58201304
124.29	103.18259752	0.58201304
125.09	103.84775528	0.58201304
125.89	104.51291304	0.58201304
126.7	105.01178136	0.58201304
127.5	105.51064968	0.58201304
128.3	106.17580744	0.58201304
129.1	106.67467576	0.58201304
129.91	107.2566888	0.58201304
130.71	107.83870184	0.58201304
131.51	108.33757016	0.66515776
132.31	108.75329376	0.66515776
133.12	109.25216208	0.66515776
133.92	109.66788568	0.66515776
134.72	110.49933288	0.66515776
135.52	111.08134592	0.66515776
136.33	111.66335896	0.66515776
137.13	112.16222728	0.66515776
137.93	112.74424032	0.66515776
138.74	113.32625336	0.66515776
139.54	113.82512168	0.66515776
140.34	114.32399	0.66515776
141.14	114.7397136	0.66515776
141.95	115.48801608	0.66515776
142.75	116.07002912	0.66515776
143.55	116.56889744	0.66515776
144.35	117.2340552	0.66515776
145.16	117.6497788	0.66515776
145.96	118.31493656	0.66515776
146.76	118.73066016	0.66515776
147.56	119.3126732	0.66515776
148.37	119.81154152	0.66515776
149.17	120.64298872	0.66515776
149.97	121.14185704	0.66515776
150.77	121.55758064	0.66515776
151.57	122.2227384	0.66515776
152.38	122.97104088	0.66515776
153.18	123.22047504	0.66515776
153.98	123.63619864	0.66515776
154.78	124.55079056	0.66515776
155.58	124.80022472	0.66515776
156.38	125.5485272	0.74830248
157.18	126.13054024	0.74830248
157.98	126.46311912	0.74830248
158.79	127.46085576	0.74830248
159.59	127.95972408	0.74830248
160.39	128.12601352	0.74830248
161.19	128.95746072	0.74830248
161.99	129.62261848	0.74830248
162.79	130.20463152	0.74830248
163.59	130.78664456	0.74830248
164.39	131.28551288	0.74830248
165.19	131.70123648	0.74830248
166	131.95067064	0.74830248
166.8	132.69897312	0.74830248
167.6	133.4472756	0.74830248
168.39	134.02928864	0.74830248
169.19	134.61130168	0.74830248
169.99	135.19331472	0.74830248
170.79	135.60903832	0.74830248
171.59	136.19105136	0.74830248
172.39	136.52363024	0.74830248
173.19	137.10564328	0.74830248
173.99	137.6045116	0.74830248
174.79	138.10337992	0.74830248
175.59	138.76853768	0.74830248
176.39	139.18426128	0.74830248
177.19	140.0988532	0.74830248
177.99	140.5145768	0.74830248
178.79	141.01344512	0.74830248
179.59	141.59545816	0.74830248
180.38	142.09432648	0.74830248
181.18	142.67633952	0.8314472
181.97	143.34149728	0.8314472
182.76	143.8403656	0.8314472
183.57	144.58866808	0.8314472
184.36	144.92124696	0.8314472
185.16	145.58640472	0.8314472
185.96	146.16841776	0.8314472
186.75	146.66728608	0.8314472
187.55	147.24929912	0.8314472
188.34	147.66502272	0.8314472
189.14	148.49646992	0.8314472
189.93	149.16162768	0.8314472
190.73	149.57735128	0.8314472
191.53	149.90993016	0.8314472
192.32	150.4919432	0.8314472
193.12	151.07395624	0.8314472
193.9	151.90540344	0.8314472
194.7	152.40427176	0.8314472
195.49	152.81999536	0.8314472
196.29	153.23571896	0.8314472
197.08	153.817732	0.8314472
197.87	154.39974504	0.8314472
198.67	155.23119224	0.8314472
199.46	155.64691584	0.8314472
200.26	156.3120736	0.8314472
201.25	156.89408664	0.8314472
202.45	157.80867856	0.8314472
203.66	158.64012576	0.8314472
204.86	159.55471768	0.8314472
206.06	160.30302016	0.91459192
207.27	161.3007568	0.91459192
208.48	162.21534872	0.91459192
209.68	162.9636512	0.91459192
210.89	163.87824312	0.91459192
212.09	164.54340088	0.91459192
213.3	165.54113752	0.91459192
214.51	166.20629528	0.91459192
215.73	166.95459776	0.91459192
216.93	167.9523344	0.91459192
218.14	169.28264992	0.91459192
219.36	170.19724184	0.91459192
220.57	170.8623996	0.91459192
221.79	171.61070208	0.91459192
223	172.77472816	0.91459192
224.22	173.68932008	0.91459192
225.43	174.10504368	0.91459192
226.65	175.10278032	0.91459192
227.87	176.34995112	0.91459192
229.09	177.18139832	0.99773664
230.31	178.01284552	0.99773664
231.54	179.09372688	0.99773664
232.76	179.75888464	0.99773664
233.98	180.59033184	0.99773664
235.21	181.6712132	0.99773664
236.43	182.75209456	0.99773664
237.66	183.66668648	0.99773664
238.88	184.49813368	0.99773664
240.11	185.4127256	0.99773664
241.34	186.2441728	0.99773664
242.57	187.32505416	0.99773664
243.8	188.07335664	0.99773664
245.03	188.7385144	0.99773664
246.26	190.06882992	0.99773664
247.5	190.8171324	0.99773664
248.75	191.98115848	0.99773664
249.99	192.56317152	0.99773664
251.23	193.7271976	0.99773664
252.46	194.80807896	1.08088136
253.7	195.72267088	1.08088136
254.94	196.72040752	1.08088136
256.18	197.63499944	1.08088136
257.43	198.46644664	1.08088136
258.67	199.29789384	1.08088136
259.92	200.29563048	1.08088136
261.16	201.12707768	1.08088136
262.41	202.0416696	1.08088136
263.66	203.03940624	1.08088136
264.91	204.1202876	1.08088136
266.17	204.86859008	1.08088136
267.42	206.03261616	1.08088136
268.69	207.19664224	1.08088136
269.95	208.19437888	1.08088136
271.21	208.85953664	1.08088136
272.47	210.02356272	1.08088136
273.73	210.7718652	1.08088136
274.99	211.6033124	1.16402608
276.25	212.93362792	1.16402608
277.51	213.84821984	1.16402608
278.78	214.5133776	1.16402608
280.05	215.84369312	1.16402608
281.32	216.75828504	1.16402608
282.59	217.4234428	1.16402608
283.86	218.50432416	1.16402608
285.13	219.83463968	1.16402608
286.41	220.16721856	1.16402608
287.69	221.5806788	1.16402608
288.96	222.74470488	1.16402608
290.24	223.49300736	1.16402608
291.52	224.57388872	1.16402608
292.8	225.15590176	1.16402608
294.08	226.40307256	1.16402608
295.36	227.48395392	1.16402608
296.65	227.73338808	1.16402608
297.93	228.89741416	1.2471708
299.23	229.64571664	1.2471708
300.76	230.56030856	1.2471708
302.42	231.39175576	1.2471708
304.07	232.805216	1.2471708
305.72	234.21867624	1.2471708
307.35	235.2995576	1.2471708
308.99	236.29729424	1.2471708
310.61	237.3781756	1.2471708
312.22	239.20735944	1.2471708
313.83	240.03880664	1.2471708
315.43	240.53767496	1.2471708
317.02	241.61855632	1.2471708
318.6	242.86572712	1.2471708
320.17	243.78031904	1.2471708
321.71	244.27918736	1.2471708
323.27	246.27466064	1.33031552
324.81	246.9398184	1.33031552
326.3	247.85441032	1.33031552
327.82	248.93529168	1.33031552
329.34	250.01617304	1.33031552
330.82	251.18019912	1.33031552
332.31	252.42736992	1.33031552
333.79	253.50825128	1.33031552
335.26	254.09026432	1.33031552
336.72	255.17114568	1.33031552
338.17	256.66775064	1.33031552
339.59	256.41831648	1.33031552
341.01	258.66322392	1.33031552
342.42	259.91039472	1.33031552
343.82	260.90813136	1.33031552
345.21	262.15530216	1.41346024
346.6	263.23618352	1.41346024
347.91	263.90134128	1.41346024
349.09	265.81366984	1.41346024
350.43	266.8945512	1.41346024
351.76	268.05857728	1.41346024
353.08	269.05631392	1.41346024
354.39	269.47203752	1.41346024
355.67	270.13719528	1.41346024
356.94	271.30122136	1.41346024
358.2	272.7146816	1.41346024
359.46	273.5461288	1.41346024
360.69	274.04499712	1.41346024
361.93	275.12587848	1.41346024
363.07	275.87418096	1.41346024
364.26	276.53933872	1.41346024
365.45	277.2876412	1.41346024
366.62	277.95279896	1.41346024
367.71	277.86965424	1.41346024
368.55	278.86739088	1.41346024
369.68	279.86512752	1.49660496
370.81	278.61795672	1.41346024
371.9	280.61343	1.49660496
372.99	281.52802192	1.49660496

System: L-tryptophan; phases: Crystal
Fixed: Pressure, kPa = 101.325
Property: Molar heat capacity at constant pressure, J/K/mol (Crystal); method: Small (less than 1 g) adiabatic calorimetry
Temperature, K	Molar heat capacity at constant pressure, J/K/mol	uncertainty
74.557	72.193	0.664
75.357	72.756	0.669
76.157	73.545	0.676
76.959	74.193	0.681
77.761	74.878	0.86
78.563	75.502	0.693
79.365	76.156	0.71
77.815	74.179	0.681
78.874	75.624	0.708
78.269	74.935	0.691
79.327	76.015	0.707
77.922	74.316	0.685
78.446	75.013	0.692
78.844	74.994	0.688
79.241	75.755	0.705
77.906	74.865	0.688
78.425	75.316	0.695
78.823	75.438	0.707
79.221	75.325	0.691

System: L-tryptophan; phases: Crystal 1
Fixed: Pressure, kPa = 101.325
Property: Molar heat capacity at constant pressure, J/K/mol (Crystal 1); method: Small (less than 1 g) adiabatic calorimetry
Temperature, K	Molar heat capacity at constant pressure, J/K/mol	uncertainty
80.175	71.35	0.575
80.983	72.023	0.465
81.786	72.777	0.529
82.588	73.584	0.58
79.676	70.628	0.65
80.477	71.268	0.503
81.279	72.062	0.449
82.08	72.956	0.454
82.882	73.569	0.466
83.684	74.244	0.448
84.486	74.979	0.452
85.288	75.623	0.454
80.135	70.969	0.483
80.942	71.853	0.491
81.743	72.459	0.439
82.545	73.181	0.441
83.346	73.998	0.445
84.147	74.796	0.451
84.949	75.463	0.454
79.639	70.287	0.655
80.036	70.542	0.427
80.433	70.981	0.502
80.831	71.167	0.431
81.228	71.92	0.448
81.626	72.551	0.439
82.024	72.796	0.453
82.422	73.438	0.443
82.82	73.796	0.444
83.219	74.057	0.447
79.619	70.636	0.65
80.016	71.258	0.432
80.413	71.601	0.432
80.811	72.022	0.438
81.209	72.512	0.438
81.606	72.571	0.439
82.004	72.929	0.44

Reaction: -1 L-tryptophan + 11 carbon dioxide + 1 nitrogen + 6 water + -13 oxygen
Property: Specific internal energy of reaction at constant volume, J/g
-27552.3
