Measured thermophysical data. Liquid heat capacity of the solvent system (piperazine + n-methyldiethanolamine + water)
Source: J. Chem. Thermodyn., 2010, 10.1016/j.jct.2009.07.005
Compound 1: piperazine, C4H10N2, InChI=1S/C4H10N2/c1-2-6-4-3-5-1/h5-6H,1-4H2, purity 99%
Compound 2: N-methyldiethanolamine, C5H13NO2, InChI=1S/C5H13NO2/c1-6(2-4-7)3-5-8/h7-8H,2-5H2,1H3, purity 99%
Compound 3: water, H2O, InChI=1S/H2O/h1H2, purity 99.9%

System: piperazine; phases: Liquid
Fixed: Pressure, kPa = 101.325
Property: Molar heat capacity at constant pressure, J/K/mol (Liquid); method: Small sample (50 mg) DSC
Temperature, K	Molar heat capacity at constant pressure, J/K/mol	uncertainty
393.2	216.3	4
398.2	218.7	4
403.2	220.5	4.1
408.2	222.8	4.1
413.2	225	4.1

System: piperazine + water; phases: Liquid
Fixed: Pressure, kPa = 101
Property: Excess molar heat capacity, J/K/mol (Liquid); method: Small sample (50 mg) DSC
Temperature, K	Mole fraction of piperazine	Excess molar heat capacity, J/K/mol	uncertainty
303.2	0.05	2.16	0.24
303.2	0.1	3.88	0.28
303.2	0.15	5.53	0.31
303.2	0.2	7.95	0.36
308.2	0.05	2.37	0.25
308.2	0.1	4.28	0.29
308.2	0.15	6.13	0.32
308.2	0.2	8.65	0.37
313.2	0.05	2.58	0.25
313.2	0.1	4.68	0.29
313.2	0.15	6.73	0.34
313.2	0.2	9.35	0.39
318.2	0.05	2.78	0.26
318.2	0.1	5.08	0.3
318.2	0.15	7.33	0.35
318.2	0.2	10.05	0.4
323.2	0.05	2.99	0.26
323.2	0.1	5.58	0.31
323.2	0.15	7.93	0.36
323.2	0.2	10.75	0.42
328.2	0.05	3.2	0.26
328.2	0.1	5.98	0.32
328.2	0.15	8.53	0.37
328.2	0.2	11.45	0.43
333.2	0.05	3.41	0.27
333.2	0.1	6.38	0.33
333.2	0.15	9.03	0.38
333.2	0.2	12.25	0.45
338.2	0.05	3.62	0.27
338.2	0.1	6.78	0.34
338.2	0.15	9.53	0.39
338.2	0.2	12.95	0.46
343.2	0.05	3.83	0.28
343.2	0.1	7.18	0.34
343.2	0.15	10.13	0.4
343.2	0.2	13.65	0.47
348.2	0.05	4.04	0.28
348.2	0.1	7.58	0.35
348.2	0.15	10.63	0.41
348.2	0.2	14.35	0.49
353.2	0.05	4.25	0.29
353.2	0.1	7.98	0.36
353.2	0.15	11.23	0.43
353.2	0.2	15.05	0.5

System: piperazine + water; phases: Liquid
Fixed: Pressure, kPa = 101
Property: Molar heat capacity at constant pressure, J/K/mol (Liquid); method: Small sample (50 mg) DSC
Temperature, K	Mole fraction of piperazine	Molar heat capacity at constant pressure, J/K/mol	uncertainty
303.2	0.05	82.5	2.9
303.2	0.1	89.4	2.9
303.2	0.15	96.1	2.9
303.2	0.2	103.7	3
308.2	0.05	82.8	2.9
308.2	0.1	90	2.9
308.2	0.15	97	2.9
308.2	0.2	104.8	3
313.2	0.05	83.2	2.9
313.2	0.1	90.6	2.9
313.2	0.15	98	2.9
313.2	0.2	105.9	3
318.2	0.05	83.5	2.9
318.2	0.1	91.2	2.9
318.2	0.15	98.9	3
318.2	0.2	107.1	3
323.2	0.05	83.8	2.9
323.2	0.1	92	2.9
323.2	0.15	99.9	3
323.2	0.2	108.2	3
328.2	0.05	84.2	2.9
328.2	0.1	92.6	2.9
328.2	0.15	100.8	3
328.2	0.2	109.4	3
333.2	0.05	84.5	2.9
333.2	0.1	93.3	2.9
333.2	0.15	101.7	3
333.2	0.2	110.6	3
338.2	0.05	84.9	2.9
338.2	0.1	93.9	2.9
338.2	0.15	102.5	3
338.2	0.2	111.8	3
343.2	0.05	85.3	2.9
343.2	0.1	94.6	2.9
343.2	0.15	103.5	3
343.2	0.2	113	3.1
348.2	0.05	85.6	2.9
348.2	0.1	95.2	2.9
348.2	0.15	104.4	3
348.2	0.2	114.1	3.1
353.2	0.05	86	2.9
353.2	0.1	95.9	2.9
353.2	0.15	105.3	3
353.2	0.2	115.3	3.1

System: N-methyldiethanolamine + piperazine; phases: Liquid
Fixed: Pressure, kPa = 101
Property: Excess molar heat capacity, J/K/mol (Liquid); method: Small sample (50 mg) DSC
Temperature, K	Mole fraction of piperazine	Excess molar heat capacity, J/K/mol	uncertainty
303.2	0.1	2.3	0.25
303.2	0.2	3.92	0.28
303.2	0.3	5.4	0.31
303.2	0.4	6.21	0.32
308.2	0.1	2.46	0.25
308.2	0.2	4.22	0.28
308.2	0.3	5.73	0.31
308.2	0.4	6.61	0.33
313.2	0.1	2.63	0.25
313.2	0.2	4.52	0.29
313.2	0.3	6.06	0.32
313.2	0.4	7.01	0.34
318.2	0.1	2.79	0.26
318.2	0.2	4.82	0.3
318.2	0.3	6.4	0.33
318.2	0.4	7.41	0.35
323.2	0.1	2.97	0.26
323.2	0.2	5.11	0.3
323.2	0.3	6.74	0.34
323.2	0.4	7.82	0.36
328.2	0.1	3.12	0.26
328.2	0.2	5.51	0.31
328.2	0.3	7.06	0.34
328.2	0.4	8.22	0.36
333.2	0.1	3.29	0.27
333.2	0.2	5.82	0.32
333.2	0.3	7.41	0.35
333.2	0.4	8.62	0.37
338.2	0.1	3.46	0.27
338.2	0.2	6.1	0.32
338.2	0.3	7.73	0.35
338.2	0.4	9.02	0.38
343.2	0.1	3.63	0.27
343.2	0.2	6.4	0.33
343.2	0.3	8.06	0.36
343.2	0.4	9.42	0.39
348.2	0.1	3.79	0.28
348.2	0.2	6.7	0.33
348.2	0.3	8.39	0.37
348.2	0.4	9.83	0.4
353.2	0.1	3.95	0.28
353.2	0.2	6.99	0.34
353.2	0.3	8.72	0.37
353.2	0.4	10.23	0.4

System: N-methyldiethanolamine + piperazine; phases: Liquid
Fixed: Pressure, kPa = 101
Property: Molar heat capacity at constant pressure, J/K/mol (Liquid); method: Small sample (50 mg) DSC
Temperature, K	Mole fraction of piperazine	Molar heat capacity at constant pressure, J/K/mol	uncertainty
303.2	0.1	264.4	4.6
303.2	0.2	256.6	4.5
303.2	0.3	248.7	4.4
303.2	0.4	240.1	4.3
308.2	0.1	267.7	4.6
308.2	0.2	260	4.5
308.2	0.3	252	4.4
308.2	0.4	243.3	4.3
313.2	0.1	271.1	4.6
313.2	0.2	263.3	4.5
313.2	0.3	255.2	4.5
313.2	0.4	246.6	4.4
318.2	0.1	274.4	4.7
318.2	0.2	266.7	4.6
318.2	0.3	258.5	4.5
318.2	0.4	249.8	4.4
323.2	0.1	277.7	4.7
323.2	0.2	270	4.6
323.2	0.3	261.8	4.5
323.2	0.4	253	4.4
328.2	0.1	281	4.8
328.2	0.2	273.5	4.7
328.2	0.3	265.1	4.6
328.2	0.4	256.3	4.5
333.2	0.1	284.4	4.8
333.2	0.2	276.8	4.7
333.2	0.3	268.4	4.6
333.2	0.4	259.5	4.5
338.2	0.1	287.7	4.8
338.2	0.2	280.2	4.7
338.2	0.3	271.6	4.6
338.2	0.4	262.7	4.5
343.2	0.1	291.1	4.9
343.2	0.2	283.5	4.8
343.2	0.3	274.9	4.7
343.2	0.4	266	4.6
348.2	0.1	294.4	4.9
348.2	0.2	286.9	4.8
348.2	0.3	278.2	4.7
348.2	0.4	269.2	4.6
353.2	0.1	297.7	5
353.2	0.2	290.2	4.9
353.2	0.3	281.4	4.8
353.2	0.4	272.4	4.6

System: N-methyldiethanolamine + piperazine + water; phases: Liquid
Fixed: Pressure, kPa = 101
Property: Excess molar heat capacity, J/K/mol (Liquid); method: Small sample (50 mg) DSC
Temperature, K	Mole fraction of water	Mole fraction of piperazine	Excess molar heat capacity, J/K/mol	uncertainty
303.2	0.6	0.08	5.88	0.32
303.2	0.6	0.16	10.71	0.42
303.2	0.6	0.24	12.48	0.45
303.2	0.7	0.06	5.2	0.31
303.2	0.7	0.12	7.39	0.35
303.2	0.7	0.18	9.7	0.4
303.2	0.7	0.24	9.4	0.39
303.2	0.8	0.04	4	0.28
303.2	0.8	0.08	6.31	0.33
303.2	0.8	0.12	6.9	0.34
303.2	0.8	0.16	7	0.34
303.2	0.9	0.02	2.1	0.24
303.2	0.9	0.04	2.8	0.26
303.2	0.9	0.06	3.21	0.26
303.2	0.9	0.08	4.01	0.28
308.2	0.6	0.08	6.52	0.33
308.2	0.6	0.16	11.42	0.43
308.2	0.6	0.24	13.26	0.47
308.2	0.7	0.06	5.92	0.32
308.2	0.7	0.12	8.12	0.36
308.2	0.7	0.18	10.44	0.41
308.2	0.7	0.24	10.25	0.41
308.2	0.8	0.04	4.62	0.29
308.2	0.8	0.08	6.93	0.34
308.2	0.8	0.12	7.57	0.35
308.2	0.8	0.16	7.73	0.36
308.2	0.9	0.02	2.47	0.25
308.2	0.9	0.04	3.22	0.26
308.2	0.9	0.06	3.61	0.27
308.2	0.9	0.08	4.42	0.29
313.2	0.6	0.08	7.15	0.34
313.2	0.6	0.16	12.14	0.44
313.2	0.6	0.24	14.06	0.48
313.2	0.7	0.06	6.64	0.33
313.2	0.7	0.12	8.84	0.38
313.2	0.7	0.18	11.17	0.42
313.2	0.7	0.24	11.1	0.42
313.2	0.8	0.04	5.41	0.31
313.2	0.8	0.08	7.55	0.35
313.2	0.8	0.12	8.24	0.37
313.2	0.8	0.16	8.46	0.37
313.2	0.9	0.02	2.84	0.26
313.2	0.9	0.04	3.64	0.27
313.2	0.9	0.06	4.01	0.28
313.2	0.9	0.08	4.82	0.3
318.2	0.6	0.08	7.79	0.36
318.2	0.6	0.16	12.7	0.46
318.2	0.6	0.24	14.84	0.5
318.2	0.7	0.06	7.35	0.35
318.2	0.7	0.12	9.56	0.39
318.2	0.7	0.18	11.91	0.44
318.2	0.7	0.24	11.94	0.44
318.2	0.8	0.04	6	0.32
318.2	0.8	0.08	8.17	0.36
318.2	0.8	0.12	8.91	0.38
318.2	0.8	0.16	9.2	0.39
318.2	0.9	0.02	3.21	0.26
318.2	0.9	0.04	4.06	0.28
318.2	0.9	0.06	4.41	0.29
318.2	0.9	0.08	5.22	0.3
323.2	0.6	0.08	8.43	0.37
323.2	0.6	0.16	13.66	0.47
323.2	0.6	0.24	15.62	0.51
323.2	0.7	0.06	8.06	0.36
323.2	0.7	0.12	10.27	0.41
323.2	0.7	0.18	12.65	0.45
323.2	0.7	0.24	12.78	0.46
323.2	0.8	0.04	6.63	0.33
323.2	0.8	0.08	8.78	0.38
323.2	0.8	0.12	9.57	0.39
323.2	0.8	0.16	9.93	0.4
323.2	0.9	0.02	3.57	0.27
323.2	0.9	0.04	4.47	0.29
323.2	0.9	0.06	4.8	0.3
323.2	0.9	0.08	5.61	0.31
328.2	0.6	0.08	9.06	0.38
328.2	0.6	0.16	14.36	0.49
328.2	0.6	0.24	16.4	0.53
328.2	0.7	0.06	8.78	0.38
328.2	0.7	0.12	10.97	0.42
328.2	0.7	0.18	13.38	0.47
328.2	0.7	0.24	13.62	0.47
328.2	0.8	0.04	7.3	0.35
328.2	0.8	0.08	9.4	0.39
328.2	0.8	0.12	10.24	0.41
328.2	0.8	0.16	10.66	0.41
328.2	0.9	0.02	3.93	0.28
328.2	0.9	0.04	4.88	0.3
328.2	0.9	0.06	5.19	0.3
328.2	0.9	0.08	6	0.32
333.2	0.6	0.08	9.7	0.39
333.2	0.6	0.16	15.06	0.5
333.2	0.6	0.24	17.84	0.56
333.2	0.7	0.06	9.49	0.39
333.2	0.7	0.12	11.69	0.43
333.2	0.7	0.18	14.1	0.48
333.2	0.7	0.24	14.45	0.49
333.2	0.8	0.04	7.8	0.36
333.2	0.8	0.08	10.01	0.4
333.2	0.8	0.12	10.9	0.42
333.2	0.8	0.16	11.4	0.43
333.2	0.9	0.02	4.29	0.29
333.2	0.9	0.04	5.29	0.31
333.2	0.9	0.06	5.57	0.31
333.2	0.9	0.08	6.38	0.33
338.2	0.6	0.08	10.32	0.41
338.2	0.6	0.16	15.77	0.52
338.2	0.6	0.24	18.47	0.57
338.2	0.7	0.06	10.2	0.41
338.2	0.7	0.12	12.41	0.45
338.2	0.7	0.18	14.84	0.5
338.2	0.7	0.24	15.29	0.51
338.2	0.8	0.04	8.52	0.37
338.2	0.8	0.08	10.62	0.41
338.2	0.8	0.12	11.56	0.43
338.2	0.8	0.16	12.13	0.44
338.2	0.9	0.02	4.66	0.29
338.2	0.9	0.04	5.7	0.31
338.2	0.9	0.06	5.95	0.32
338.2	0.9	0.08	6.77	0.34
343.2	0.6	0.08	10.93	0.42
343.2	0.6	0.16	16.47	0.53
343.2	0.6	0.24	19.09	0.58
343.2	0.7	0.06	10.95	0.42
343.2	0.7	0.12	13.12	0.46
343.2	0.7	0.18	15.58	0.51
343.2	0.7	0.24	16.13	0.52
343.2	0.8	0.04	9.15	0.38
343.2	0.8	0.08	11.23	0.43
343.2	0.8	0.12	12.22	0.45
343.2	0.8	0.16	12.86	0.46
343.2	0.9	0.02	5.02	0.3
343.2	0.9	0.04	6.11	0.32
343.2	0.9	0.06	6.34	0.33
343.2	0.9	0.08	7.16	0.34
348.2	0.6	0.08	11.54	0.43
348.2	0.6	0.16	17.17	0.54
348.2	0.6	0.24	19.72	0.59
348.2	0.7	0.06	11.68	0.43
348.2	0.7	0.12	13.83	0.48
348.2	0.7	0.18	16.33	0.53
348.2	0.7	0.24	16.97	0.54
348.2	0.8	0.04	9.54	0.39
348.2	0.8	0.08	11.83	0.44
348.2	0.8	0.12	12.88	0.46
348.2	0.8	0.16	13.6	0.47
348.2	0.9	0.02	5.38	0.31
348.2	0.9	0.04	6.52	0.33
348.2	0.9	0.06	6.73	0.34
348.2	0.9	0.08	7.53	0.35
353.2	0.6	0.08	12.15	0.44
353.2	0.6	0.16	17.83	0.56
353.2	0.6	0.24	20.36	0.61
353.2	0.7	0.06	12.4	0.45
353.2	0.7	0.12	14.53	0.49
353.2	0.7	0.18	17.07	0.54
353.2	0.7	0.24	17.8	0.56
353.2	0.8	0.04	9.99	0.4
353.2	0.8	0.08	12.43	0.45
353.2	0.8	0.12	13.54	0.47
353.2	0.8	0.16	14.34	0.49
353.2	0.9	0.02	5.74	0.32
353.2	0.9	0.04	6.93	0.34
353.2	0.9	0.06	7.12	0.34
353.2	0.9	0.08	7.91	0.36

System: N-methyldiethanolamine + piperazine + water; phases: Liquid
Fixed: Pressure, kPa = 101
Property: Molar heat capacity at constant pressure, J/K/mol (Liquid); method: Small sample (50 mg) DSC
Temperature, K	Mole fraction of water	Mole fraction of piperazine	Molar heat capacity at constant pressure, J/K/mol	uncertainty
303.2	0.6	0.08	152.1	3.4
303.2	0.6	0.16	149.4	3.4
303.2	0.6	0.24	143.7	3.3
303.2	0.7	0.06	133.7	3.2
303.2	0.7	0.12	130.2	3.2
303.2	0.7	0.18	126.9	3.2
303.2	0.7	0.24	121	3.1
303.2	0.8	0.04	114.7	3.1
303.2	0.8	0.08	113.3	3.1
303.2	0.8	0.12	110.1	3
303.2	0.8	0.16	106.5	3
303.2	0.9	0.02	95.1	2.9
303.2	0.9	0.04	93.9	2.9
303.2	0.9	0.06	92.5	2.9
303.2	0.9	0.08	91.4	2.9
308.2	0.6	0.08	154	3.4
308.2	0.6	0.16	151.3	3.4
308.2	0.6	0.24	145.5	3.3
308.2	0.7	0.06	135.3	3.2
308.2	0.7	0.12	131.8	3.2
308.2	0.7	0.18	128.4	3.2
308.2	0.7	0.24	122.5	3.1
308.2	0.8	0.04	116	3.1
308.2	0.8	0.08	114.5	3.1
308.2	0.8	0.12	111.3	3
308.2	0.8	0.16	107.7	3
308.2	0.9	0.02	95.8	2.9
308.2	0.9	0.04	94.6	2.9
308.2	0.9	0.06	93.1	2.9
308.2	0.9	0.08	92	2.9
313.2	0.6	0.08	155.8	3.4
313.2	0.6	0.16	153.1	3.4
313.2	0.6	0.24	147.3	3.3
313.2	0.7	0.06	137	3.2
313.2	0.7	0.12	133.4	3.2
313.2	0.7	0.18	129.9	3.2
313.2	0.7	0.24	124.1	3.1
313.2	0.8	0.04	117.4	3.1
313.2	0.8	0.08	115.7	3.1
313.2	0.8	0.12	112.5	3
313.2	0.8	0.16	108.9	3
313.2	0.9	0.02	96.5	2.9
313.2	0.9	0.04	95.3	2.9
313.2	0.9	0.06	93.8	2.9
313.2	0.9	0.08	92.7	2.9
318.2	0.6	0.08	157.7	3.4
318.2	0.6	0.16	154.8	3.4
318.2	0.6	0.24	149.2	3.3
318.2	0.7	0.06	138.6	3.3
318.2	0.7	0.12	135	3.2
318.2	0.7	0.18	131.5	3.2
318.2	0.7	0.24	125.7	3.2
318.2	0.8	0.04	118.6	3.1
318.2	0.8	0.08	116.9	3.1
318.2	0.8	0.12	113.7	3.1
318.2	0.8	0.16	110.1	3
318.2	0.9	0.02	97.1	2.9
318.2	0.9	0.04	96	2.9
318.2	0.9	0.06	94.5	2.9
318.2	0.9	0.08	93.3	2.9
323.2	0.6	0.08	159.6	3.4
323.2	0.6	0.16	156.9	3.4
323.2	0.6	0.24	151	3.4
323.2	0.7	0.06	140.2	3.3
323.2	0.7	0.12	136.5	3.2
323.2	0.7	0.18	133	3.2
323.2	0.7	0.24	127.2	3.2
323.2	0.8	0.04	119.9	3.1
323.2	0.8	0.08	118.1	3.1
323.2	0.8	0.12	114.9	3.1
323.2	0.8	0.16	111.3	3
323.2	0.9	0.02	97.8	2.9
323.2	0.9	0.04	96.8	2.9
323.2	0.9	0.06	95.1	2.9
323.2	0.9	0.08	94	2.9
328.2	0.6	0.08	161.4	3.5
328.2	0.6	0.16	158.8	3.4
328.2	0.6	0.24	152.9	3.4
328.2	0.7	0.06	141.9	3.3
328.2	0.7	0.12	138.1	3.3
328.2	0.7	0.18	134.6	3.2
328.2	0.7	0.24	128.8	3.2
328.2	0.8	0.04	121.1	3.1
328.2	0.8	0.08	119.3	3.1
328.2	0.8	0.12	116.1	3.1
328.2	0.8	0.16	112.6	3
328.2	0.9	0.02	98.5	3
328.2	0.9	0.04	97.5	2.9
328.2	0.9	0.06	95.8	2.9
328.2	0.9	0.08	94.6	2.9
333.2	0.6	0.08	163.3	3.5
333.2	0.6	0.16	160.6	3.5
333.2	0.6	0.24	155.4	3.4
333.2	0.7	0.06	143.6	3.3
333.2	0.7	0.12	139.7	3.3
333.2	0.7	0.18	136.1	3.2
333.2	0.7	0.24	130.4	3.2
333.2	0.8	0.04	122.3	3.1
333.2	0.8	0.08	120.5	3.1
333.2	0.8	0.12	117.3	3.1
333.2	0.8	0.16	113.8	3.1
333.2	0.9	0.02	99.2	3
333.2	0.9	0.04	98.2	2.9
333.2	0.9	0.06	96.5	2.9
333.2	0.9	0.08	95.3	2.9
338.2	0.6	0.08	165.2	3.5
338.2	0.6	0.16	162.5	3.5
338.2	0.6	0.24	157.1	3.4
338.2	0.7	0.06	145.2	3.3
338.2	0.7	0.12	141.3	3.3
338.2	0.7	0.18	137.6	3.2
338.2	0.7	0.24	132	3.2
338.2	0.8	0.04	123.7	3.1
338.2	0.8	0.08	121.7	3.1
338.2	0.8	0.12	118.6	3.1
338.2	0.8	0.16	115.1	3.1
338.2	0.9	0.02	99.9	3
338.2	0.9	0.04	98.9	3
338.2	0.9	0.06	97.2	2.9
338.2	0.9	0.08	95.9	2.9
343.2	0.6	0.08	167.1	3.5
343.2	0.6	0.16	164.4	3.5
343.2	0.6	0.24	158.7	3.4
343.2	0.7	0.06	146.9	3.3
343.2	0.7	0.12	142.9	3.3
343.2	0.7	0.18	139.2	3.3
343.2	0.7	0.24	133.6	3.2
343.2	0.8	0.04	124.9	3.1
343.2	0.8	0.08	122.9	3.1
343.2	0.8	0.12	119.8	3.1
343.2	0.8	0.16	116.3	3.1
343.2	0.9	0.02	100.6	3
343.2	0.9	0.04	99.7	3
343.2	0.9	0.06	97.8	2.9
343.2	0.9	0.08	96.6	2.9
348.2	0.6	0.08	168.9	3.5
348.2	0.6	0.16	166.2	3.5
348.2	0.6	0.24	160.5	3.5
348.2	0.7	0.06	148.6	3.3
348.2	0.7	0.12	144.5	3.3
348.2	0.7	0.18	140.8	3.3
348.2	0.7	0.24	135.2	3.2
348.2	0.8	0.04	126.4	3.2
348.2	0.8	0.08	124.1	3.1
348.2	0.8	0.12	120	3.1
348.2	0.8	0.16	117.6	3.1
348.2	0.9	0.02	101.4	3
348.2	0.9	0.04	100.4	3
348.2	0.9	0.06	98.6	3
348.2	0.9	0.08	97.3	2.9
353.2	0.6	0.08	170.8	3.6
353.2	0.6	0.16	168.1	3.5
353.2	0.6	0.24	162.2	3.5
353.2	0.7	0.06	150.3	3.4
353.2	0.7	0.12	146.1	3.3
353.2	0.7	0.18	142.3	3.3
353.2	0.7	0.24	136.7	3.2
353.2	0.8	0.04	127.9	3.2
353.2	0.8	0.08	125.3	3.1
353.2	0.8	0.12	122.2	3.1
353.2	0.8	0.16	118.8	3.1
353.2	0.9	0.02	102.1	3
353.2	0.9	0.04	101.2	3
353.2	0.9	0.06	99.3	3
353.2	0.9	0.08	97.9	2.9
