Measured thermophysical data. A systematic study on physicochemical and transport properties of imidazolium-based ionic liquids with gamma-butyrolactone
Source: J. Chem. Thermodyn., 2018, 10.1016/j.jct.2017.10.004
Compound 1: .gamma.-butyrolactone, C4H6O2, InChI=1S/C4H6O2/c5-4-2-1-3-6-4/h1-3H2, purity 99%
Compound 2: 1,3-dimethylimidazolium bis((trifluoromethyl)sulfonyl)amide, C7H9F6N3O4S2, InChI=1S/C5H9N2.C2F6NO4S2/c1-6-3-4-7(2)5-6;3-1(4,5)14(10,11)9-15(12,13)2(6,7)8/h3-5H,1-2H3;/q+1;-1, purity 99%

System: 1,3-dimethylimidazolium bis((trifluoromethyl)sulfonyl)amide; phases: Liquid
Fixed: Pressure, kPa = 100
Property: Mass density, kg/m3 (Liquid); method: Vibrating tube method
Temperature, K	Mass density, kg/m3	uncertainty
298.15	1575.422	4.65
303.15	1570.247	4.65
308.15	1565.007	4.649
313.15	1559.73	4.648
318.15	1554.491	4.648
323.15	1549.34	4.647

System: 1,3-dimethylimidazolium bis((trifluoromethyl)sulfonyl)amide; phases: Liquid
Fixed: Pressure, kPa = 100
Property: Viscosity, Pa*s (Liquid); method: Capillary tube (Ostwald; Ubbelohde) method
Temperature, K	Viscosity, Pa*s	uncertainty
298.15	0.03943	0.0016
303.15	0.03251	0.00132
308.15	0.02747	0.00111
313.15	0.02343	0.00095
318.15	0.02025	0.00082
323.15	0.01772	0.00072

System: 1,3-dimethylimidazolium bis((trifluoromethyl)sulfonyl)amide; phases: Liquid
Fixed: Pressure, kPa = 100
Property: Electrical conductivity, S/m (Liquid); method: Alternating current cell with electrodes
Temperature, K	Electrical conductivity, S/m	uncertainty
298.15	0.774	0.023
303.15	0.915	0.027
308.15	1.057	0.032
313.15	1.198	0.036
318.15	1.352	0.041
323.15	1.514	0.045

System: .gamma.-butyrolactone + 1,3-dimethylimidazolium bis((trifluoromethyl)sulfonyl)amide; phases: Liquid
Fixed: Pressure, kPa = 100
Property: Mass density, kg/m3 (Liquid); method: Vibrating tube method
Temperature, K	Mole fraction of 1,3-dimethylimidazolium bis((trifluoromethyl)sulfonyl)amide	Mass density, kg/m3	uncertainty
298.15	0	1124.59	4.61
298.15	0.05124	1190.03	4.94
298.15	0.09948	1240.94	4.83
298.15	0.15513	1289.73	4.78
298.15	0.20073	1323.77	4.72
298.15	0.29913	1383.3	4.7
298.15	0.40023	1430.37	4.68
298.15	0.49982	1467.09	4.66
298.15	0.6127	1500.46	4.66
298.15	0.70094	1522	4.66
298.15	0.80021	1542.63	4.65
298.15	0.89967	1560.16	4.65
298.15	1	1575.42	4.65
303.15	0	1119.68	4.61
303.15	0.05124	1185.01	4.94
303.15	0.09948	1235.89	4.83
303.15	0.15513	1284.67	4.78
303.15	0.20073	1318.66	4.72
303.15	0.29913	1378.16	4.7
303.15	0.40023	1425.2	4.67
303.15	0.49982	1461.93	4.66
303.15	0.6127	1495.28	4.66
303.15	0.70094	1516.83	4.65
303.15	0.80021	1537.44	4.65
303.15	0.89967	1554.97	4.65
303.15	1	1570.25	4.65
308.15	0	1114.78	4.61
308.15	0.05124	1180.03	4.93
308.15	0.09948	1230.85	4.83
308.15	0.15513	1279.57	4.78
308.15	0.20073	1313.53	4.72
308.15	0.29913	1372.98	4.7
308.15	0.40023	1419.99	4.67
308.15	0.49982	1456.71	4.66
308.15	0.6127	1490.05	4.66
308.15	0.70094	1511.6	4.65
308.15	0.80021	1532.21	4.65
308.15	0.89967	1549.75	4.65
308.15	1	1565.01	4.65
313.15	0	1109.87	4.61
313.15	0.05124	1175.06	4.93
313.15	0.09948	1225.8	4.83
313.15	0.15513	1274.45	4.78
313.15	0.20073	1308.37	4.72
313.15	0.29913	1367.77	4.7
313.15	0.40023	1414.76	4.67
313.15	0.49982	1451.46	4.66
313.15	0.6127	1484.8	4.66
313.15	0.70094	1506.34	4.65
313.15	0.80021	1526.95	4.65
313.15	0.89967	1544.49	4.65
313.15	1	1559.73	4.65
318.15	0	1104.96	4.61
318.15	0.05124	1170.08	4.93
318.15	0.09948	1220.75	4.83
318.15	0.15513	1269.35	4.78
318.15	0.20073	1303.25	4.72
318.15	0.29913	1362.59	4.69
318.15	0.40023	1409.55	4.67
318.15	0.49982	1446.23	4.66
318.15	0.6127	1479.57	4.66
318.15	0.70094	1501.11	4.65
318.15	0.80021	1521.73	4.65
318.15	0.89967	1539.27	4.65
318.15	1	1554.49	4.65
323.15	0	1100.05	4.61
323.15	0.05124	1165.1	4.93
323.15	0.09948	1215.71	4.83
323.15	0.15513	1264.27	4.78
323.15	0.20073	1298.14	4.72
323.15	0.29913	1357.45	4.69
323.15	0.40023	1404.4	4.67
323.15	0.49982	1441.07	4.66
323.15	0.6127	1474.41	4.66
323.15	0.70094	1495.96	4.65
323.15	0.80021	1516.59	4.65
323.15	0.89967	1534.13	4.65
323.15	1	1549.34	4.65

System: .gamma.-butyrolactone + 1,3-dimethylimidazolium bis((trifluoromethyl)sulfonyl)amide; phases: Liquid
Fixed: Pressure, kPa = 100
Property: Viscosity, Pa*s (Liquid); method: Capillary tube (Ostwald; Ubbelohde) method
Temperature, K	Mole fraction of 1,3-dimethylimidazolium bis((trifluoromethyl)sulfonyl)amide	Viscosity, Pa*s	uncertainty
298.15	0	0.00171	7e-05
298.15	0.05124	0.00227	9e-05
298.15	0.09948	0.00286	0.00012
298.15	0.15513	0.00361	0.00015
298.15	0.20073	0.00444	0.00018
298.15	0.29913	0.00656	0.00027
298.15	0.40023	0.00939	0.00038
298.15	0.49982	0.01279	0.00052
298.15	0.6127	0.01769	0.00072
298.15	0.70094	0.02205	0.0009
298.15	0.80021	0.02752	0.00112
298.15	0.89967	0.03341	0.00136
298.15	1	0.03943	0.0016
303.15	0	0.00158	6e-05
303.15	0.05124	0.00208	9e-05
303.15	0.09948	0.00261	0.00011
303.15	0.15513	0.00324	0.00013
303.15	0.20073	0.004	0.00016
303.15	0.29913	0.00581	0.00024
303.15	0.40023	0.00835	0.00034
303.15	0.49982	0.01104	0.00045
303.15	0.6127	0.01509	0.00061
303.15	0.70094	0.01861	0.00076
303.15	0.80021	0.0229	0.00093
303.15	0.89967	0.02766	0.00112
303.15	1	0.03251	0.00132
308.15	0	0.00147	6e-05
308.15	0.05124	0.00185	8e-05
308.15	0.09948	0.00239	0.0001
308.15	0.15513	0.00302	0.00012
308.15	0.20073	0.00362	0.00015
308.15	0.29913	0.00523	0.00021
308.15	0.40023	0.0073	0.0003
308.15	0.49982	0.0097	0.0004
308.15	0.6127	0.01298	0.00053
308.15	0.70094	0.016	0.00065
308.15	0.80021	0.01953	0.00079
308.15	0.89967	0.02346	0.00095
308.15	1	0.02747	0.00111
313.15	0	0.00137	6e-05
313.15	0.05124	0.00171	7e-05
313.15	0.09948	0.0022	9e-05
313.15	0.15513	0.00277	0.00011
313.15	0.20073	0.0033	0.00014
313.15	0.29913	0.0047	0.00019
313.15	0.40023	0.0065	0.00027
313.15	0.49982	0.0086	0.00035
313.15	0.6127	0.01146	0.00047
313.15	0.70094	0.01389	0.00056
313.15	0.80021	0.01686	0.00068
313.15	0.89967	0.02008	0.00082
313.15	1	0.02343	0.00095
318.15	0	0.00128	5e-05
318.15	0.05124	0.00162	7e-05
318.15	0.09948	0.00204	8e-05
318.15	0.15513	0.00257	0.00011
318.15	0.20073	0.00303	0.00012
318.15	0.29913	0.00427	0.00017
318.15	0.40023	0.00581	0.00024
318.15	0.49982	0.00764	0.00031
318.15	0.6127	0.01005	0.00041
318.15	0.70094	0.01218	0.0005
318.15	0.80021	0.01475	0.0006
318.15	0.89967	0.01745	0.00071
318.15	1	0.02025	0.00082
323.15	0	0.0012	5e-05
323.15	0.05124	0.00152	6e-05
323.15	0.09948	0.00189	8e-05
323.15	0.15513	0.00239	0.0001
323.15	0.20073	0.00279	0.00011
323.15	0.29913	0.00389	0.00016
323.15	0.40023	0.0053	0.00022
323.15	0.49982	0.00682	0.00028
323.15	0.6127	0.00892	0.00036
323.15	0.70094	0.01071	0.00044
323.15	0.80021	0.0129	0.00052
323.15	0.89967	0.01517	0.00062
323.15	1	0.01772	0.00072

System: .gamma.-butyrolactone + 1,3-dimethylimidazolium bis((trifluoromethyl)sulfonyl)amide; phases: Liquid
Fixed: Pressure, kPa = 100
Property: Electrical conductivity, S/m (Liquid); method: Alternating current cell with electrodes
Temperature, K	Mole fraction of 1,3-dimethylimidazolium bis((trifluoromethyl)sulfonyl)amide	Electrical conductivity, S/m	uncertainty
298.15	0.05124	1.131	0.037
298.15	0.09948	1.576	0.048
298.15	0.15513	1.745	0.052
298.15	0.20073	1.773	0.053
298.15	0.29913	1.729	0.052
298.15	0.40023	1.6	0.048
298.15	0.49982	1.471	0.044
298.15	0.6127	1.292	0.039
298.15	0.70094	1.165	0.035
298.15	0.80021	1.048	0.032
298.15	0.89967	0.905	0.027
298.15	1	0.774	0.023
303.15	0.05124	1.223	0.04
303.15	0.09948	1.715	0.052
303.15	0.15513	1.902	0.057
303.15	0.20073	1.937	0.058
303.15	0.29913	1.898	0.057
303.15	0.40023	1.76	0.053
303.15	0.49982	1.627	0.049
303.15	0.6127	1.453	0.044
303.15	0.70094	1.316	0.04
303.15	0.80021	1.194	0.036
303.15	0.89967	1.041	0.031
303.15	1	0.915	0.027
308.15	0.05124	1.316	0.043
308.15	0.09948	1.846	0.056
308.15	0.15513	2.056	0.062
308.15	0.20073	2.092	0.063
308.15	0.29913	2.067	0.062
308.15	0.40023	1.925	0.058
308.15	0.49982	1.788	0.054
308.15	0.6127	1.607	0.048
308.15	0.70094	1.467	0.044
308.15	0.80021	1.341	0.04
308.15	0.89967	1.179	0.035
308.15	1	1.057	0.032
313.15	0.05124	1.404	0.046
313.15	0.09948	1.976	0.06
313.15	0.15513	2.193	0.066
313.15	0.20073	2.25	0.068
313.15	0.29913	2.23	0.067
313.15	0.40023	2.087	0.063
313.15	0.49982	1.948	0.059
313.15	0.6127	1.756	0.053
313.15	0.70094	1.612	0.048
313.15	0.80021	1.481	0.045
313.15	0.89967	1.324	0.04
313.15	1	1.198	0.036
318.15	0.05124	1.499	0.049
318.15	0.09948	2.117	0.065
318.15	0.15513	2.355	0.071
318.15	0.20073	2.421	0.073
318.15	0.29913	2.4	0.072
318.15	0.40023	2.248	0.067
318.15	0.49982	2.122	0.064
318.15	0.6127	1.92	0.058
318.15	0.70094	1.77	0.053
318.15	0.80021	1.647	0.049
318.15	0.89967	1.485	0.045
318.15	1	1.352	0.041
323.15	0.05124	1.593	0.052
323.15	0.09948	2.25	0.069
323.15	0.15513	2.514	0.076
323.15	0.20073	2.592	0.078
323.15	0.29913	2.589	0.078
323.15	0.40023	2.452	0.074
323.15	0.49982	2.307	0.069
323.15	0.6127	2.109	0.063
323.15	0.70094	1.962	0.059
323.15	0.80021	1.824	0.055
323.15	0.89967	1.67	0.05
323.15	1	1.514	0.045
