Measured thermophysical data. Excess and deviation properties for the binary mixtures of methylcyclohexane with benzene, toluene, p-xylene, mesitylene, and anisole at T = (298.15, 303.15, and 308.15) K
Source: J. Chem. Thermodyn., 2006, 10.1016/j.jct.2005.12.005
Compound 1: benzene, C6H6, InChI=1S/C6H6/c1-2-4-6-5-3-1/h1-6H, purity 99.8%
Compound 2: toluene, C7H8, InChI=1S/C7H8/c1-7-5-3-2-4-6-7/h2-6H,1H3, purity 99.5%
Compound 3: methylcyclohexane, C7H14, InChI=1S/C7H14/c1-7-5-3-2-4-6-7/h7H,2-6H2,1H3, purity 99%
Compound 4: 1,4-dimethylbenzene, C8H10, InChI=1S/C8H10/c1-7-3-5-8(2)6-4-7/h3-6H,1-2H3, purity 98.5%
Compound 5: 1,3,5-trimethylbenzene, C9H12, InChI=1S/C9H12/c1-7-4-8(2)6-9(3)5-7/h4-6H,1-3H3, purity 98%
Compound 6: anisole, C7H8O, InChI=1S/C7H8O/c1-8-7-5-3-2-4-6-7/h2-6H,1H3, purity 99%

System: benzene; phases: Liquid
Fixed: Pressure, kPa = 101.325
Property: Refractive index (Na D-line) (Liquid); method: ABBE::UFactor:3
Temperature, K	Refractive index (Na D-line)	uncertainty
298.15	1.4971	0.0009
303.15	1.4936	0.0009
308.15	1.4903	0.0009

System: benzene; phases: Liquid
Fixed: Pressure, kPa = 101
Property: Viscosity, Pa*s (Liquid); method: CAPTUB::UFactor:2
Temperature, K	Viscosity, Pa*s	uncertainty
298.15	0.000602	8e-06
303.15	0.00056	8e-06
308.15	0.000523	7e-06

System: benzene; phases: Liquid
Property: Speed of sound, m/s (Liquid); method: Sing-around technique in a fixed-path interferometer
Temperature, K	Pressure, kPa	Speed of sound, m/s	uncertainty
298.15	101	1302	5

System: benzene; phases: Liquid
Fixed: Pressure, kPa = 101
Property: Mass density, kg/m3 (Liquid); method: VIBTUB::UFactor:6
Temperature, K	Mass density, kg/m3	uncertainty
298.15	873.4	0.5
303.15	868.1	0.5
308.15	862.7	0.5

System: toluene; phases: Liquid
Fixed: Pressure, kPa = 101.325
Property: Refractive index (Na D-line) (Liquid); method: ABBE::UFactor:3
Temperature, K	Refractive index (Na D-line)	uncertainty
298.15	1.4931	0.0009
303.15	1.4902	0.0009
308.15	1.4874	0.0009

System: toluene; phases: Liquid
Fixed: Pressure, kPa = 101
Property: Viscosity, Pa*s (Liquid); method: CAPTUB::UFactor:2
Temperature, K	Viscosity, Pa*s	uncertainty
298.15	0.000559	8e-06
303.15	0.000526	7e-06
308.15	0.000497	7e-06

System: toluene; phases: Liquid
Property: Speed of sound, m/s (Liquid); method: Sing-around technique in a fixed-path interferometer
Temperature, K	Pressure, kPa	Speed of sound, m/s	uncertainty
298.15	101	1314	5

System: toluene; phases: Liquid
Fixed: Pressure, kPa = 101
Property: Mass density, kg/m3 (Liquid); method: VIBTUB::UFactor:6
Temperature, K	Mass density, kg/m3	uncertainty
298.15	862.3	0.5
303.15	857.6	0.6
308.15	852.9	0.6

System: methylcyclohexane; phases: Liquid
Fixed: Pressure, kPa = 101.325
Property: Refractive index (Na D-line) (Liquid); method: ABBE:UFactor:3
Temperature, K	Refractive index (Na D-line)	uncertainty
298.15	1.4217	0.001
303.15	1.4192	0.001
308.15	1.4163	0.001

System: methylcyclohexane; phases: Liquid
Fixed: Pressure, kPa = 101
Property: Viscosity, Pa*s (Liquid); method: CAPTUB:UFactor:2
Temperature, K	Viscosity, Pa*s	uncertainty
298.15	0.000676	9e-06
303.15	0.000631	9e-06
308.15	0.00059	8e-06

System: methylcyclohexane; phases: Liquid
Property: Speed of sound, m/s (Liquid); method: Sing-around technique in a fixed-path interferometer
Temperature, K	Pressure, kPa	Speed of sound, m/s	uncertainty
298.15	101	1217	5

System: methylcyclohexane; phases: Liquid
Fixed: Pressure, kPa = 101
Property: Mass density, kg/m3 (Liquid); method: VIBTUB:UFactor:6
Temperature, K	Mass density, kg/m3	uncertainty
298.15	765	0.9
303.15	760.7	0.9
308.15	756.3	0.9

System: 1,4-dimethylbenzene; phases: Liquid
Fixed: Pressure, kPa = 101.325
Property: Refractive index (Na D-line) (Liquid); method: ABBE::UFactor:3
Temperature, K	Refractive index (Na D-line)	uncertainty
298.15	1.4926	0.001
303.15	1.4893	0.001
308.15	1.4867	0.001

System: 1,4-dimethylbenzene; phases: Liquid
Fixed: Pressure, kPa = 101
Property: Viscosity, Pa*s (Liquid); method: CAPTUB::UFactor:2
Temperature, K	Viscosity, Pa*s	uncertainty
298.15	0.000611	9e-06
303.15	0.000572	9e-06
308.15	0.00054	8e-06

System: 1,4-dimethylbenzene; phases: Liquid
Property: Speed of sound, m/s (Liquid); method: Sing-around technique in a fixed-path interferometer
Temperature, K	Pressure, kPa	Speed of sound, m/s	uncertainty
298.15	101	1326	6

System: 1,4-dimethylbenzene; phases: Liquid
Fixed: Pressure, kPa = 101
Property: Mass density, kg/m3 (Liquid); method: VIBTUB::UFactor:6
Temperature, K	Mass density, kg/m3	uncertainty
298.15	856.7	0.9
303.15	852.3	0.9
308.15	848	0.9

System: 1,3,5-trimethylbenzene; phases: Liquid
Fixed: Pressure, kPa = 101.325
Property: Refractive index (Na D-line) (Liquid); method: ABBE::UFactor:8
Temperature, K	Refractive index (Na D-line)	uncertainty
298.15	1.496	0.0025
303.15	1.4936	0.0025
308.15	1.4913	0.0025

System: 1,3,5-trimethylbenzene; phases: Liquid
Fixed: Pressure, kPa = 101
Property: Viscosity, Pa*s (Liquid); method: CAPTUB::UFactor:2
Temperature, K	Viscosity, Pa*s	uncertainty
298.15	0.000667	1.1e-05
303.15	0.000622	1e-05
308.15	0.000586	1e-05

System: 1,3,5-trimethylbenzene; phases: Liquid
Property: Speed of sound, m/s (Liquid); method: Sing-around technique in a fixed-path interferometer
Temperature, K	Pressure, kPa	Speed of sound, m/s	uncertainty
298.15	101	1346	6

System: 1,3,5-trimethylbenzene; phases: Liquid
Fixed: Pressure, kPa = 101
Property: Mass density, kg/m3 (Liquid); method: VIBTUB::UFactor:6
Temperature, K	Mass density, kg/m3	uncertainty
298.15	861.2	1.1
303.15	857.1	1.1
308.15	853	1.1

System: anisole; phases: Liquid
Fixed: Pressure, kPa = 101.325
Property: Refractive index (Na D-line) (Liquid); method: ABBE::UFactor:8
Temperature, K	Refractive index (Na D-line)	uncertainty
298.15	1.5136	0.0025
303.15	1.5112	0.0025
308.15	1.5088	0.0025

System: anisole; phases: Liquid
Fixed: Pressure, kPa = 101
Property: Viscosity, Pa*s (Liquid); method: CAPTUB::UFactor:2
Temperature, K	Viscosity, Pa*s	uncertainty
298.15	0.001008	1.3e-05
303.15	0.000929	1.2e-05
308.15	0.000861	1.2e-05

System: anisole; phases: Liquid
Property: Speed of sound, m/s (Liquid); method: Sing-around technique in a fixed-path interferometer
Temperature, K	Pressure, kPa	Speed of sound, m/s	uncertainty
298.15	101	1410	6

System: anisole; phases: Liquid
Fixed: Pressure, kPa = 101
Property: Mass density, kg/m3 (Liquid); method: VIBTUB::UFactor:6
Temperature, K	Mass density, kg/m3	uncertainty
298.15	989.2	0.4
303.15	984.5	0.4
308.15	979.8	0.4

System: benzene + methylcyclohexane; phases: Liquid
Fixed: Pressure, kPa = 101
Property: Viscosity, Pa*s (Liquid); method: CAPTUB:UFactor:2
Temperature, K	Mole fraction of methylcyclohexane	Viscosity, Pa*s	uncertainty
298.15	0	0.000602	8e-06
298.15	0.104	0.000584	8e-06
298.15	0.2045	0.000566	8e-06
298.15	0.302	0.000561	8e-06
298.15	0.4006	0.000556	8e-06
298.15	0.5007	0.000559	8e-06
298.15	0.6004	0.000571	8e-06
298.15	0.7056	0.000597	8e-06
298.15	0.8033	0.000617	9e-06
298.15	0.8982	0.000647	9e-06
298.15	1	0.000676	9e-06
303.15	0	0.00056	8e-06
303.15	0.104	0.000546	8e-06
303.15	0.2045	0.00053	7e-06
303.15	0.302	0.000527	7e-06
303.15	0.4006	0.000523	7e-06
303.15	0.5007	0.000527	7e-06
303.15	0.6004	0.000537	8e-06
303.15	0.7056	0.000564	8e-06
303.15	0.8033	0.000583	1.1e-05
303.15	0.8982	0.000607	9e-06
303.15	1	0.000631	9e-06
308.15	0	0.000523	7e-06
308.15	0.104	0.000509	7e-06
308.15	0.2045	0.000494	7e-06
308.15	0.302	0.000492	7e-06
308.15	0.4006	0.00049	7e-06
308.15	0.5007	0.000496	7e-06
308.15	0.6004	0.000504	7e-06
308.15	0.7056	0.000531	8e-06
308.15	0.8033	0.000549	8e-06
308.15	0.8982	0.000567	8e-06
308.15	1	0.00059	8e-06

System: benzene + methylcyclohexane; phases: Liquid
Fixed: Pressure, kPa = 101
Property: Refractive index (Na D-line) (Liquid); method: ABBE:UFactor:3
Temperature, K	Mole fraction of methylcyclohexane	Refractive index (Na D-line)	uncertainty
298.15	0	1.4971	0.0009
298.15	0.104	1.484	0.0009
298.15	0.2045	1.4728	0.0009
298.15	0.302	1.4628	0.0009
298.15	0.4006	1.455	0.0009
298.15	0.5007	1.4475	0.0009
298.15	0.6004	1.441	0.0009
298.15	0.7056	1.4341	0.0009
298.15	0.8033	1.429	0.0009
298.15	0.8982	1.4245	0.0009
298.15	1	1.4217	0.001
303.15	0	1.4936	0.0009
303.15	0.104	1.481	0.0009
303.15	0.2045	1.4702	0.0009
303.15	0.302	1.4604	0.0009
303.15	0.4006	1.4524	0.0009
303.15	0.5007	1.4448	0.0009
303.15	0.6004	1.4384	0.0009
303.15	0.7056	1.4316	0.0009
303.15	0.8033	1.4262	0.0009
303.15	0.8982	1.4219	0.0009
303.15	1	1.4192	0.001
308.15	0	1.4903	0.0009
308.15	0.104	1.4779	0.0009
308.15	0.2045	1.4675	0.0009
308.15	0.302	1.458	0.0009
308.15	0.4006	1.4499	0.0009
308.15	0.5007	1.4422	0.0009
308.15	0.6004	1.4357	0.0009
308.15	0.7056	1.4292	0.0009
308.15	0.8033	1.4235	0.0009
308.15	0.8982	1.4192	0.0009
308.15	1	1.4163	0.001

System: benzene + methylcyclohexane; phases: Liquid
Fixed: Temperature, K = 298.15
Fixed: Pressure, kPa = 101
Property: Speed of sound, m/s (Liquid); method: Sing-around technique in a fixed-path interferometer
Mole fraction of methylcyclohexane	Speed of sound, m/s	uncertainty
0	1302	5
0.104	1293	5
0.2045	1284	5
0.302	1276	5
0.4006	1267	5
0.5007	1259	5
0.6004	1250	5
0.7056	1242	5
0.8033	1234	5
0.8982	1225	5
1	1217	5

System: benzene + methylcyclohexane; phases: Liquid
Fixed: Pressure, kPa = 101
Property: Mass density, kg/m3 (Liquid); method: VIBTUB:UFactor:6
Temperature, K	Mole fraction of methylcyclohexane	Mass density, kg/m3	uncertainty
298.15	0	873.4	0.5
298.15	0.104	855.9	0.5
298.15	0.2045	840.8	0.6
298.15	0.302	827.6	0.6
298.15	0.4006	815.8	0.7
298.15	0.5007	805	0.7
298.15	0.6004	795.3	0.7
298.15	0.7056	785.9	0.8
298.15	0.8033	778.5	0.8
298.15	0.8982	771.4	0.8
298.15	1	765	0.9
303.15	0	868.1	0.5
303.15	0.104	850.7	0.6
303.15	0.2045	835.8	0.6
303.15	0.302	822.7	0.6
303.15	0.4006	811	0.7
303.15	0.5007	800.3	0.7
303.15	0.6004	790.6	0.7
303.15	0.7056	781.4	0.8
303.15	0.8033	774	0.8
303.15	0.8982	767	0.8
303.15	1	760.7	0.9
308.15	0	862.7	0.5
308.15	0.104	845.5	0.6
308.15	0.2045	830.7	0.6
308.15	0.302	817.8	0.6
308.15	0.4006	806.2	0.7
308.15	0.5007	795.6	0.7
308.15	0.6004	786	0.7
308.15	0.7056	776.8	0.8
308.15	0.8033	769.5	0.8
308.15	0.8982	762.6	0.8
308.15	1	756.3	0.9

System: methylcyclohexane + toluene; phases: Liquid
Fixed: Pressure, kPa = 101
Property: Viscosity, Pa*s (Liquid); method: CAPTUB:UFactor:2
Temperature, K	Mole fraction of methylcyclohexane	Viscosity, Pa*s	uncertainty
298.15	0	0.000559	8e-06
298.15	0.1027	0.000551	8e-06
298.15	0.205	0.000547	8e-06
298.15	0.3034	0.000548	8e-06
298.15	0.4043	0.000556	8e-06
298.15	0.5031	0.000564	8e-06
298.15	0.5988	0.000577	8e-06
298.15	0.7061	0.000592	8e-06
298.15	0.8005	0.000614	9e-06
298.15	0.8984	0.000643	9e-06
298.15	1	0.000676	9e-06
303.15	0	0.000526	7e-06
303.15	0.1027	0.00052	7e-06
303.15	0.205	0.000518	7e-06
303.15	0.3034	0.000517	7e-06
303.15	0.4043	0.000523	7e-06
303.15	0.5031	0.000532	8e-06
303.15	0.5988	0.000544	8e-06
303.15	0.7061	0.000558	8e-06
303.15	0.8005	0.000577	8e-06
303.15	0.8984	0.000603	9e-06
303.15	1	0.000631	9e-06
308.15	0	0.000497	7e-06
308.15	0.1027	0.00049	7e-06
308.15	0.205	0.000489	7e-06
308.15	0.3034	0.000487	7e-06
308.15	0.4043	0.000491	7e-06
308.15	0.5031	0.0005	7e-06
308.15	0.5988	0.00051	7e-06
308.15	0.7061	0.000524	8e-06
308.15	0.8005	0.00054	8e-06
308.15	0.8984	0.000563	8e-06
308.15	1	0.00059	8e-06

System: methylcyclohexane + toluene; phases: Liquid
Fixed: Pressure, kPa = 101
Property: Refractive index (Na D-line) (Liquid); method: ABBE:UFactor:3
Temperature, K	Mole fraction of methylcyclohexane	Refractive index (Na D-line)	uncertainty
298.15	0	1.4931	0.0009
298.15	0.1027	1.4838	0.0009
298.15	0.205	1.475	0.0009
298.15	0.3034	1.4666	0.0009
298.15	0.4043	1.4586	0.0009
298.15	0.5031	1.4511	0.0009
298.15	0.5988	1.4443	0.0009
298.15	0.7061	1.4373	0.0009
298.15	0.8005	1.4315	0.0009
298.15	0.8984	1.4261	0.001
298.15	1	1.4217	0.001
303.15	0	1.4902	0.0009
303.15	0.1027	1.4811	0.0009
303.15	0.205	1.4723	0.0009
303.15	0.3034	1.4641	0.0009
303.15	0.4043	1.4561	0.0009
303.15	0.5031	1.4486	0.0009
303.15	0.5988	1.4418	0.0009
303.15	0.7061	1.4347	0.0009
303.15	0.8005	1.4289	0.0009
303.15	0.8984	1.4234	0.001
303.15	1	1.4192	0.001
308.15	0	1.4874	0.0009
308.15	0.1027	1.4783	0.0009
308.15	0.205	1.4696	0.0009
308.15	0.3034	1.4615	0.0009
308.15	0.4043	1.4537	0.0009
308.15	0.5031	1.4461	0.0009
308.15	0.5988	1.4392	0.0009
308.15	0.7061	1.4321	0.0009
308.15	0.8005	1.4263	0.0009
308.15	0.8984	1.4208	0.001
308.15	1	1.4163	0.001

System: methylcyclohexane + toluene; phases: Liquid
Fixed: Temperature, K = 298.15
Fixed: Pressure, kPa = 101
Property: Speed of sound, m/s (Liquid); method: Sing-around technique in a fixed-path interferometer
Mole fraction of methylcyclohexane	Speed of sound, m/s	uncertainty
0	1314	5
0.1027	1304	5
0.205	1295	5
0.3034	1285	5
0.4043	1275	5
0.5031	1266	5
0.5988	1256	5
0.7061	1246	5
0.8005	1237	5
0.8984	1227	5
1	1217	5

System: methylcyclohexane + toluene; phases: Liquid
Fixed: Pressure, kPa = 101
Property: Mass density, kg/m3 (Liquid); method: VIBTUB:UFactor:6
Temperature, K	Mole fraction of methylcyclohexane	Mass density, kg/m3	uncertainty
298.15	0	862.3	0.5
298.15	0.1027	849.5	0.6
298.15	0.205	837.5	0.6
298.15	0.3034	826.6	0.7
298.15	0.4043	816	0.7
298.15	0.5031	806.3	0.7
298.15	0.5988	797.3	0.7
298.15	0.7061	787.8	0.8
298.15	0.8005	780	0.8
298.15	0.8984	772.4	0.8
298.15	1	765	0.9
303.15	0	857.6	0.6
303.15	0.1027	844.9	0.6
303.15	0.205	832.9	0.6
303.15	0.3034	822	0.7
303.15	0.4043	811.5	0.7
303.15	0.5031	801.8	0.7
303.15	0.5988	792.8	0.8
303.15	0.7061	783.4	0.8
303.15	0.8005	775.6	0.8
303.15	0.8984	768	0.8
303.15	1	760.7	0.9
308.15	0	852.9	0.6
308.15	0.1027	840.3	0.6
308.15	0.205	828.3	0.6
308.15	0.3034	817.5	0.7
308.15	0.4043	807	0.7
308.15	0.5031	797.3	0.7
308.15	0.5988	788.4	0.8
308.15	0.7061	779	0.8
308.15	0.8005	771.2	0.8
308.15	0.8984	763.7	0.8
308.15	1	756.3	0.9

System: 1,4-dimethylbenzene + methylcyclohexane; phases: Liquid
Fixed: Pressure, kPa = 101
Property: Viscosity, Pa*s (Liquid); method: CAPTUB:UFactor:2
Temperature, K	Mole fraction of methylcyclohexane	Viscosity, Pa*s	uncertainty
298.15	0	0.000611	9e-06
298.15	0.0993	0.000597	9e-06
298.15	0.2037	0.00059	9e-06
298.15	0.3028	0.000587	9e-06
298.15	0.4047	0.000586	9e-06
298.15	0.5382	0.000593	9e-06
298.15	0.6035	0.000597	9e-06
298.15	0.703	0.000608	9e-06
298.15	0.8037	0.000625	9e-06
298.15	0.8981	0.000646	9e-06
298.15	1	0.000676	9e-06
303.15	0	0.000572	9e-06
303.15	0.0993	0.000566	9e-06
303.15	0.2037	0.000557	9e-06
303.15	0.3028	0.000553	8e-06
303.15	0.4047	0.000553	8e-06
303.15	0.5382	0.000559	8e-06
303.15	0.6035	0.000562	8e-06
303.15	0.703	0.000573	8e-06
303.15	0.8037	0.000588	9e-06
303.15	0.8981	0.000607	9e-06
303.15	1	0.000631	9e-06
308.15	0	0.00054	8e-06
308.15	0.0993	0.000536	8e-06
308.15	0.2037	0.000523	8e-06
308.15	0.3028	0.00052	8e-06
308.15	0.4047	0.00052	8e-06
308.15	0.5382	0.000525	8e-06
308.15	0.6035	0.000528	8e-06
308.15	0.703	0.000537	8e-06
308.15	0.8037	0.00055	8e-06
308.15	0.8981	0.000569	8e-06
308.15	1	0.00059	8e-06

System: 1,4-dimethylbenzene + methylcyclohexane; phases: Liquid
Fixed: Pressure, kPa = 101
Property: Refractive index (Na D-line) (Liquid); method: ABBE:UFactor:3
Temperature, K	Mole fraction of methylcyclohexane	Refractive index (Na D-line)	uncertainty
298.15	0	1.4926	0.001
298.15	0.0993	1.4848	0.001
298.15	0.2037	1.4767	0.001
298.15	0.3028	1.469	0.001
298.15	0.4047	1.4615	0.001
298.15	0.5382	1.4519	0.001
298.15	0.6035	1.4473	0.001
298.15	0.703	1.4405	0.001
298.15	0.8037	1.4338	0.001
298.15	0.8981	1.4279	0.001
298.15	1	1.4217	0.001
303.15	0	1.4893	0.001
303.15	0.0993	1.482	0.001
303.15	0.2037	1.4743	0.001
303.15	0.3028	1.4668	0.001
303.15	0.4047	1.4594	0.001
303.15	0.5382	1.4498	0.001
303.15	0.6035	1.4451	0.001
303.15	0.703	1.4384	0.001
303.15	0.8037	1.4314	0.001
303.15	0.8981	1.4253	0.001
303.15	1	1.4192	0.001
308.15	0	1.4867	0.001
308.15	0.0993	1.4793	0.001
308.15	0.2037	1.4718	0.001
308.15	0.3028	1.4646	0.001
308.15	0.4047	1.4572	0.001
308.15	0.5382	1.4476	0.001
308.15	0.6035	1.443	0.001
308.15	0.703	1.4362	0.001
308.15	0.8037	1.429	0.001
308.15	0.8981	1.4228	0.001
308.15	1	1.4163	0.001

System: 1,4-dimethylbenzene + methylcyclohexane; phases: Liquid
Fixed: Temperature, K = 298.15
Fixed: Pressure, kPa = 101
Property: Speed of sound, m/s (Liquid); method: Sing-around technique in a fixed-path interferometer
Mole fraction of methylcyclohexane	Speed of sound, m/s	uncertainty
0	1326	6
0.0993	1315	6
0.2037	1303	5
0.3028	1293	5
0.4047	1282	5
0.5382	1268	5
0.6035	1261	5
0.703	1250	5
0.8037	1239	5
0.8981	1228	5
1	1217	5

System: 1,4-dimethylbenzene + methylcyclohexane; phases: Liquid
Fixed: Pressure, kPa = 101
Property: Mass density, kg/m3 (Liquid); method: VIBTUB:UFactor:6
Temperature, K	Mole fraction of methylcyclohexane	Mass density, kg/m3	uncertainty
298.15	0	856.7	0.9
298.15	0.0993	846.6	0.8
298.15	0.2037	836.2	0.8
298.15	0.3028	826.4	0.8
298.15	0.4047	816.7	0.8
298.15	0.5382	804.2	0.8
298.15	0.6035	798.3	0.8
298.15	0.703	789.5	0.8
298.15	0.8037	780.8	0.8
298.15	0.8981	773	0.9
298.15	1	765	0.9
303.15	0	852.3	0.9
303.15	0.0993	842.3	0.9
303.15	0.2037	831.8	0.9
303.15	0.3028	822.1	0.9
303.15	0.4047	812.3	0.9
303.15	0.5382	799.9	0.9
303.15	0.6035	794	0.9
303.15	0.703	785.1	0.9
303.15	0.8037	776.5	0.9
303.15	0.8981	768.7	0.9
303.15	1	760.7	0.9
308.15	0	848	0.9
308.15	0.0993	837.9	0.9
308.15	0.2037	827.5	0.9
308.15	0.3028	817.8	0.9
308.15	0.4047	808	0.9
308.15	0.5382	795.5	0.9
308.15	0.6035	789.6	0.9
308.15	0.703	780.8	0.9
308.15	0.8037	772.2	0.9
308.15	0.8981	764.4	0.9
308.15	1	756.3	0.9

System: 1,3,5-trimethylbenzene + methylcyclohexane; phases: Liquid
Fixed: Pressure, kPa = 101
Property: Viscosity, Pa*s (Liquid); method: CAPTUB:UFactor:2
Temperature, K	Mole fraction of methylcyclohexane	Viscosity, Pa*s	uncertainty
298.15	0	0.000667	1.1e-05
298.15	0.1007	0.000653	1.1e-05
298.15	0.1993	0.000638	1e-05
298.15	0.3035	0.000629	1e-05
298.15	0.4063	0.000622	1e-05
298.15	0.4974	0.00062	9e-06
298.15	0.6085	0.000621	9e-06
298.15	0.7027	0.000627	9e-06
298.15	0.7973	0.000638	9e-06
298.15	0.902	0.000654	9e-06
298.15	1	0.000676	9e-06
303.15	0	0.000622	1e-05
303.15	0.1007	0.000612	1e-05
303.15	0.1993	0.0006	1e-05
303.15	0.3035	0.000592	9e-06
303.15	0.4063	0.000584	9e-06
303.15	0.4974	0.000603	3e-05
303.15	0.6085	0.000582	9e-06
303.15	0.7027	0.000588	9e-06
303.15	0.7973	0.000598	9e-06
303.15	0.902	0.000622	9e-06
303.15	1	0.000631	9e-06
308.15	0	0.000586	1e-05
308.15	0.1007	0.000577	1e-05
308.15	0.1993	0.000569	9e-06
308.15	0.3035	0.000559	9e-06
308.15	0.4063	0.000553	9e-06
308.15	0.4974	0.000547	9e-06
308.15	0.6085	0.000548	8e-06
308.15	0.7027	0.000553	8e-06
308.15	0.7973	0.000566	8e-06
308.15	0.902	0.000575	8e-06
308.15	1	0.00059	8e-06

System: 1,3,5-trimethylbenzene + methylcyclohexane; phases: Liquid
Fixed: Pressure, kPa = 101
Property: Refractive index (Na D-line) (Liquid); method: ABBE:UFactor:8
Temperature, K	Mole fraction of methylcyclohexane	Refractive index (Na D-line)	uncertainty
298.15	0	1.496	0.0025
298.15	0.1007	1.489	0.0025
298.15	0.1993	1.4817	0.0025
298.15	0.3035	1.474	0.0025
298.15	0.4063	1.4663	0.0025
298.15	0.4974	1.4593	0.0025
298.15	0.6085	1.4508	0.0025
298.15	0.7027	1.4436	0.0025
298.15	0.7973	1.4363	0.0025
298.15	0.902	1.4285	0.0025
298.15	1	1.4217	0.0025
303.15	0	1.4936	0.0025
303.15	0.1007	1.4865	0.0025
303.15	0.1993	1.4809	0.0025
303.15	0.3035	1.473	0.0025
303.15	0.4063	1.4647	0.0025
303.15	0.4974	1.4565	0.0025
303.15	0.6085	1.4529	0.008
303.15	0.7027	1.4421	0.0025
303.15	0.7973	1.4347	0.0025
303.15	0.902	1.4265	0.0025
303.15	1	1.4192	0.0025
308.15	0	1.4913	0.0025
308.15	0.1007	1.4843	0.0025
308.15	0.1993	1.4771	0.0025
308.15	0.3035	1.4692	0.0025
308.15	0.4063	1.4614	0.0025
308.15	0.4974	1.4544	0.0025
308.15	0.6085	1.4459	0.0025
308.15	0.7027	1.4386	0.0025
308.15	0.7973	1.4312	0.0025
308.15	0.902	1.4233	0.0025
308.15	1	1.4163	0.0025

System: 1,3,5-trimethylbenzene + methylcyclohexane; phases: Liquid
Fixed: Temperature, K = 298.15
Fixed: Pressure, kPa = 101
Property: Speed of sound, m/s (Liquid); method: Sing-around technique in a fixed-path interferometer
Mole fraction of methylcyclohexane	Speed of sound, m/s	uncertainty
0	1346	6
0.1007	1328	6
0.1993	1312	6
0.3035	1295	6
0.4063	1280	5
0.4974	1267	5
0.6085	1253	5
0.7027	1244	5
0.7973	1235	5
0.902	1225	5
1	1217	5

System: 1,3,5-trimethylbenzene + methylcyclohexane; phases: Liquid
Fixed: Pressure, kPa = 101
Property: Mass density, kg/m3 (Liquid); method: VIBTUB:UFactor:6
Temperature, K	Mole fraction of methylcyclohexane	Mass density, kg/m3	uncertainty
298.15	0	861.2	1.1
298.15	0.1007	851.6	1.1
298.15	0.1993	842	1
298.15	0.3035	832	1
298.15	0.4063	822	0.9
298.15	0.4974	813.1	0.9
298.15	0.6085	802.2	0.9
298.15	0.7027	793.1	0.9
298.15	0.7973	784	0.9
298.15	0.902	774.1	0.9
298.15	1	765	0.9
303.15	0	857.1	1.1
303.15	0.1007	847.5	1.1
303.15	0.1993	837.9	1
303.15	0.3035	827.9	1
303.15	0.4063	817.9	1
303.15	0.4974	808.9	0.9
303.15	0.6085	798.1	0.9
303.15	0.7027	788.9	0.9
303.15	0.7973	779.7	0.9
303.15	0.902	769.8	0.9
303.15	1	760.7	0.9
308.15	0	853	1.1
308.15	0.1007	843.3	1.1
308.15	0.1993	833.8	1
308.15	0.3035	823.7	1
308.15	0.4063	813.7	1
308.15	0.4974	804.8	0.9
308.15	0.6085	793.9	0.9
308.15	0.7027	784.7	0.9
308.15	0.7973	775.5	0.9
308.15	0.902	765.6	0.9
308.15	1	756.3	0.9

System: anisole + methylcyclohexane; phases: Liquid
Fixed: Pressure, kPa = 101
Property: Viscosity, Pa*s (Liquid); method: CAPTUB:UFactor:2
Temperature, K	Mole fraction of methylcyclohexane	Viscosity, Pa*s	uncertainty
298.15	0	0.001008	1.3e-05
298.15	0.1025	0.000924	1.2e-05
298.15	0.2009	0.000854	1.2e-05
298.15	0.3006	0.000793	1.1e-05
298.15	0.406	0.00075	1e-05
298.15	0.5043	0.000717	1e-05
298.15	0.6058	0.000689	1e-05
298.15	0.7026	0.000675	9e-06
298.15	0.8023	0.000667	9e-06
298.15	0.9053	0.000666	9e-06
298.15	1	0.000676	9e-06
303.15	0	0.000929	1.2e-05
303.15	0.1025	0.000905	6e-05
303.15	0.2009	0.000792	1.1e-05
303.15	0.3006	0.000734	1e-05
303.15	0.406	0.000694	1e-05
303.15	0.5043	0.000664	9e-06
303.15	0.6058	0.000645	9e-06
303.15	0.7026	0.000634	9e-06
303.15	0.8023	0.000621	9e-06
303.15	0.9053	0.000622	9e-06
303.15	1	0.000631	9e-06
308.15	0	0.000861	1.2e-05
308.15	0.1025	0.000808	1.1e-05
308.15	0.2009	0.000737	1e-05
308.15	0.3006	0.000693	1e-05
308.15	0.406	0.000654	9e-06
308.15	0.5043	0.000627	9e-06
308.15	0.6058	0.000605	9e-06
308.15	0.7026	0.000593	9e-06
308.15	0.8023	0.000584	8e-06
308.15	0.9053	0.000583	8e-06
308.15	1	0.00059	8e-06

System: anisole + methylcyclohexane; phases: Liquid
Fixed: Pressure, kPa = 101
Property: Refractive index (Na D-line) (Liquid); method: ABBE:UFactor:8
Temperature, K	Mole fraction of methylcyclohexane	Refractive index (Na D-line)	uncertainty
298.15	0	1.5136	0.0025
298.15	0.1025	1.5023	0.0025
298.15	0.2009	1.4917	0.0025
298.15	0.3006	1.4813	0.0025
298.15	0.406	1.4706	0.0025
298.15	0.5043	1.4609	0.0025
298.15	0.6058	1.4516	0.0025
298.15	0.7026	1.4431	0.0025
298.15	0.8023	1.4351	0.0025
298.15	0.9053	1.4278	0.0025
298.15	1	1.4217	0.0025
303.15	0	1.5112	0.0025
303.15	0.1025	1.5036	0.0025
303.15	0.2009	1.489	0.0025
303.15	0.3006	1.4801	0.0025
303.15	0.406	1.4701	0.0025
303.15	0.5043	1.4586	0.0025
303.15	0.6058	1.4497	0.0025
303.15	0.7026	1.4408	0.0025
303.15	0.8023	1.4323	0.0025
303.15	0.9053	1.4242	0.0025
303.15	1	1.4192	0.0025
308.15	0	1.5088	0.0025
308.15	0.1025	1.4978	0.0025
308.15	0.2009	1.487	0.0025
308.15	0.3006	1.4766	0.0025
308.15	0.406	1.4659	0.0025
308.15	0.5043	1.4563	0.0025
308.15	0.6058	1.4467	0.0025
308.15	0.7026	1.4382	0.0025
308.15	0.8023	1.4301	0.0025
308.15	0.9053	1.4226	0.0025
308.15	1	1.4163	0.0025

System: anisole + methylcyclohexane; phases: Liquid
Fixed: Temperature, K = 298.15
Fixed: Pressure, kPa = 101
Property: Speed of sound, m/s (Liquid); method: Sing-around technique in a fixed-path interferometer
Mole fraction of methylcyclohexane	Speed of sound, m/s	uncertainty
0	1410	6
0.1025	1391	6
0.2009	1372	6
0.3006	1352	6
0.406	1333	5
0.5043	1314	5
0.6058	1294	5
0.7026	1275	5
0.8023	1256	5
0.9053	1236	5
1	1217	5

System: anisole + methylcyclohexane; phases: Liquid
Fixed: Pressure, kPa = 101
Property: Mass density, kg/m3 (Liquid); method: VIBTUB:UFactor:6
Temperature, K	Mole fraction of methylcyclohexane	Mass density, kg/m3	uncertainty
298.15	0	989.2	0.4
298.15	0.1025	962.1	0.5
298.15	0.2009	936.5	0.5
298.15	0.3006	911.8	0.6
298.15	0.406	886.7	0.6
298.15	0.5043	864.4	0.7
298.15	0.6058	842.2	0.7
298.15	0.7026	821.9	0.7
298.15	0.8023	801.8	0.8
298.15	0.9053	782.1	0.8
298.15	1	765	0.9
303.15	0	984.5	0.4
303.15	0.1025	957.4	0.5
303.15	0.2009	931.8	0.5
303.15	0.3006	907.2	0.6
303.15	0.406	882.2	0.6
303.15	0.5043	860.1	0.7
303.15	0.6058	837.8	0.7
303.15	0.7026	817.3	0.8
303.15	0.8023	797.4	0.8
303.15	0.9053	777.8	0.8
303.15	1	760.7	0.9
308.15	0	979.8	0.4
308.15	0.1025	952.7	0.5
308.15	0.2009	927.2	0.5
308.15	0.3006	902.6	0.6
308.15	0.406	877.6	0.6
308.15	0.5043	855.4	0.7
308.15	0.6058	833.3	0.7
308.15	0.7026	813	0.8
308.15	0.8023	792.9	0.8
308.15	0.9053	773.4	0.8
308.15	1	756.3	0.9
