Measured thermophysical data. Experimental and modeling vapor-liquid equilibrium for the binary systems {ethanol(1) + glycerol(2)} and {tert-butanol(1) + glycerol(2)} at high pressures
Source: J. Chem. Thermodyn., 2018, 10.1016/j.jct.2018.03.023
Compound 1: glycerol, C3H8O3, InChI=1S/C3H8O3/c4-1-3(6)2-5/h3-6H,1-2H2, purity 99.5%
Compound 2: ethanol, C2H6O, InChI=1S/C2H6O/c1-2-3/h3H,2H2,1H3, purity 99.5%
Compound 3: 2-methylpropan-2-ol, C4H10O, InChI=1S/C4H10O/c1-4(2,3)5/h5H,1-3H3, purity 99.5%

System: ethanol + glycerol; phases: Liquid, Gas
Property: Vapor or sublimation pressure, kPa (Liquid); method: Closed cell (Static) method
Temperature, K	Mole fraction of ethanol	Vapor or sublimation pressure, kPa	uncertainty
423.15	0.5	530	300
423.15	0.6	590	300
423.15	0.71	660	300
423.15	0.78	730	300
423.15	0.83	780	300
423.15	0.91	1010	300
423.15	0.97	780	300
448.15	0.5	1010	300
448.15	0.6	1180	300
448.15	0.71	1300	300
448.15	0.78	1400	300
448.15	0.83	1420	300
448.15	0.91	1580	300
448.15	0.97	1550	300
473.15	0.5	1420	300
473.15	0.6	1810	300
473.15	0.71	2080	300
473.15	0.78	2250	300
473.15	0.83	2270	310
473.15	0.91	2820	310
473.15	0.97	2810	310
498.15	0.5	2420	300
498.15	0.6	2790	310
498.15	0.71	3220	310
498.15	0.78	3450	310
498.15	0.83	3480	320
498.15	0.91	4370	310
498.15	0.97	4360	310
523.15	0.5	3600	310
523.15	0.6	4290	310
523.15	0.71	4820	310
523.15	0.78	5390	310
523.15	0.83	5440	310
523.15	0.91	5240	300

System: 2-methylpropan-2-ol + glycerol; phases: Liquid, Gas
Property: Vapor or sublimation pressure, kPa (Liquid); method: Closed cell (Static) method
Temperature, K	Mole fraction of 2-methylpropan-2-ol	Vapor or sublimation pressure, kPa	uncertainty
423.15	0.5	520	300
423.15	0.6	620	300
423.15	0.71	540	300
423.15	0.78	630	300
423.15	0.83	630	300
423.15	0.91	670	300
423.15	0.97	730	300
448.15	0.5	820	300
448.15	0.6	1090	300
448.15	0.71	990	300
448.15	0.78	1050	300
448.15	0.83	1110	300
448.15	0.91	1220	300
448.15	0.97	1290	300
473.15	0.5	1050	300
473.15	0.6	1270	440
473.15	0.71	1350	300
473.15	0.78	1540	300
473.15	0.83	1740	300
473.15	0.91	1880	300
473.15	0.97	2070	310
498.15	0.5	1780	300
498.15	0.6	2060	300
498.15	0.71	2490	300
498.15	0.78	2430	300
498.15	0.83	2630	300
498.15	0.91	2830	310
498.15	0.97	3230	630
523.15	0.5	3220	420
523.15	0.6	3400	600
523.15	0.71	3400	530
523.15	0.78	3650	300
523.15	0.83	3610	310
523.15	0.91	4450	320
