Measured thermophysical data. Diffusion in ternary aqueous {L-dopa + (NaSO3)n-beta-cyclodextrin} solutions using the pseudo-binary approximation
Source: J. Chem. Thermodyn., 2018, 10.1016/j.jct.2018.03.014
Compound 1: water, H2O, InChI=1S/H2O/h1H2
Compound 2: 2-aminoacetic acid, C2H5NO2, InChI=1S/C2H5NO2/c3-1-2(4)5/h1,3H2,(H,4,5), purity 99%

System: 2-aminoacetic acid + water; phases: Liquid
Fixed: Pressure, kPa = 101.3
Fixed: Temperature, K = 298.15
Property: Binary diffusion coefficient, m2/s (Liquid); method: Taylor dispersion method
Amount concentration (molarity), mol/dm3 of 2-aminoacetic acid	Binary diffusion coefficient, m2/s	uncertainty
0.005	1.063e-09	0.035
0.1	1.041e-09	0.04
