Measured thermophysical data. Densities, excess molar volume, isothermal compressibility, and isobaric expansivity of (dimethyl carbonate + n-hexane) systems at temperatures (293.15 to 313.15) K and pressures from 0.1 MPa up to 40 MPa
Source: J. Chem. Thermodyn., 2010, 10.1016/j.jct.2010.06.011
Compound 1: dimethyl carbonate, C3H6O3, InChI=1S/C3H6O3/c1-5-3(4)6-2/h1-2H3, purity 99.5%
Compound 2: hexane, C6H14, InChI=1S/C6H14/c1-3-5-6-4-2/h3-6H2,1-2H3, purity 99.5%

System: dimethyl carbonate; phases: Liquid
Property: Mass density, kg/m3 (Liquid); method: Vibrating tube method
Pressure, kPa	Temperature, K	Mass density, kg/m3	uncertainty
100	293.15	1069.8	0.3
100	298.15	1063.2	0.3
100	303.15	1056.5	0.3
100	308.15	1049.8	0.3
100	313.15	1043	0.3
5000	293.15	1074.4	0.3
5000	298.15	1068	0.3
5000	303.15	1061.3	0.3
5000	308.15	1054.6	0.3
5000	313.15	1048.1	0.3
10000	293.15	1078.6	0.3
10000	298.15	1072.4	0.3
10000	303.15	1066	0.3
10000	308.15	1059.4	0.3
10000	313.15	1053	0.3
20000	293.15	1086.9	0.3
20000	298.15	1080.8	0.3
20000	303.15	1074.7	0.3
20000	308.15	1068.5	0.3
20000	313.15	1062.3	0.3
30000	293.15	1094.5	0.3
30000	298.15	1088.7	0.3
30000	303.15	1082.9	0.3
30000	308.15	1077	0.3
30000	313.15	1071	0.3
40000	293.15	1101.9	0.4
40000	298.15	1096.2	0.4
40000	303.15	1090.4	0.4
40000	308.15	1084.8	0.3
40000	313.15	1079	0.3

System: hexane; phases: Liquid
Property: Mass density, kg/m3 (Liquid); method: Vibrating tube method
Pressure, kPa	Temperature, K	Mass density, kg/m3	uncertainty
100	293.15	659.4	0.3
100	298.15	654.9	0.3
100	303.15	650.2	0.3
100	308.15	645.7	0.3
100	313.15	640.9	0.3
5000	293.15	664.8	0.3
5000	298.15	660.4	0.3
5000	303.15	655.8	0.3
5000	308.15	651.5	0.3
5000	313.15	647	0.3
10000	293.15	669.7	0.4
10000	298.15	665.5	0.4
10000	303.15	661.2	0.4
10000	308.15	657	0.4
10000	313.15	652.8	0.4
20000	293.15	678.7	0.5
20000	298.15	674.8	0.5
20000	303.15	670.8	0.5
20000	308.15	666.9	0.5
20000	313.15	663.1	0.5
30000	293.15	686.9	0.6
30000	298.15	683.2	0.6
30000	303.15	679.3	0.6
30000	308.15	675.8	0.6
30000	313.15	672.1	0.6
40000	293.15	694.3	0.7
40000	298.15	690.7	0.7
40000	303.15	687	0.7
40000	308.15	683.6	0.7
40000	313.15	680.2	0.7

System: hexane + dimethyl carbonate; phases: Liquid
Property: Mass density, kg/m3 (Liquid); method: Vibrating tube method
Mole fraction of dimethyl carbonate	Pressure, kPa	Temperature, K	Mass density, kg/m3	uncertainty
0	100	293.15	659.4	0.3
0	100	298.15	654.9	0.3
0	100	303.15	650.2	0.3
0	100	308.15	645.7	0.3
0	100	313.15	640.9	0.3
0	5000	293.15	664.8	0.3
0	5000	298.15	660.4	0.3
0	5000	303.15	655.8	0.3
0	5000	308.15	651.5	0.3
0	5000	313.15	647	0.3
0	10000	293.15	669.7	0.4
0	10000	298.15	665.5	0.4
0	10000	303.15	661.2	0.4
0	10000	308.15	657	0.4
0	10000	313.15	652.8	0.4
0	20000	293.15	678.7	0.5
0	20000	298.15	674.8	0.5
0	20000	303.15	670.8	0.5
0	20000	308.15	666.9	0.5
0	20000	313.15	663.1	0.5
0	30000	293.15	686.9	0.6
0	30000	298.15	683.2	0.6
0	30000	303.15	679.3	0.6
0	30000	308.15	675.8	0.6
0	30000	313.15	672.1	0.6
0	40000	293.15	694.3	0.7
0	40000	298.15	690.7	0.7
0	40000	303.15	687	0.7
0	40000	308.15	683.6	0.7
0	40000	313.15	680.2	0.7
0.1	100	293.15	684.2	0.3
0.1	100	298.15	679.5	0.3
0.1	100	303.15	674.6	0.3
0.1	100	308.15	669.8	0.3
0.1	100	313.15	664.8	0.3
0.1	5000	293.15	689.7	0.3
0.1	5000	298.15	685.1	0.3
0.1	5000	303.15	680.3	0.3
0.1	5000	308.15	675.7	0.3
0.1	5000	313.15	671.1	0.3
0.1	10000	293.15	694.6	0.4
0.1	10000	298.15	690.3	0.3
0.1	10000	303.15	685.7	0.4
0.1	10000	308.15	681.4	0.4
0.1	10000	313.15	677	0.3
0.1	20000	293.15	703.9	0.4
0.1	20000	298.15	699.8	0.4
0.1	20000	303.15	695.6	0.4
0.1	20000	308.15	691.5	0.4
0.1	20000	313.15	687.5	0.4
0.1	30000	293.15	712.2	0.5
0.1	30000	298.15	708.4	0.5
0.1	30000	303.15	704.3	0.5
0.1	30000	308.15	700.6	0.5
0.1	30000	313.15	696.7	0.5
0.1	40000	293.15	719.8	0.6
0.1	40000	298.15	716	0.6
0.1	40000	303.15	712.2	0.6
0.1	40000	308.15	708.6	0.6
0.1	40000	313.15	705	0.6
0.2	100	293.15	712	0.3
0.2	100	298.15	707	0.3
0.2	100	303.15	701.9	0.3
0.2	100	308.15	696.9	0.3
0.2	100	313.15	691.7	0.3
0.2	5000	293.15	717.6	0.4
0.2	5000	298.15	712.8	1.1
0.2	5000	303.15	707.7	0.3
0.2	5000	308.15	703	1.3
0.2	5000	313.15	698	0.9
0.2	10000	293.15	722.6	0.4
0.2	10000	298.15	718	0.4
0.2	10000	303.15	713.3	0.4
0.2	10000	308.15	708.7	0.4
0.2	10000	313.15	704.1	0.3
0.2	20000	293.15	732	0.4
0.2	20000	298.15	727.7	0.4
0.2	20000	303.15	723.3	0.4
0.2	20000	308.15	719	0.4
0.2	20000	313.15	714.7	0.4
0.2	30000	293.15	740.4	0.5
0.2	30000	298.15	736.4	0.5
0.2	30000	303.15	732.2	0.5
0.2	30000	308.15	728.3	0.5
0.2	30000	313.15	724.2	0.5
0.2	40000	293.15	748.1	0.6
0.2	40000	298.15	744.2	0.6
0.2	40000	303.15	740.2	0.6
0.2	40000	308.15	736.4	0.6
0.2	40000	313.15	732.6	0.6
0.3	100	293.15	742.7	0.3
0.3	100	298.15	737.5	0.3
0.3	100	303.15	732.2	0.3
0.3	100	308.15	727	0.3
0.3	100	313.15	721.5	0.3
0.3	5000	293.15	748.3	1.5
0.3	5000	298.15	743.3	1.6
0.3	5000	303.15	738	2.1
0.3	5000	308.15	733.1	0.8
0.3	5000	313.15	727.8	2.5
0.3	10000	293.15	753.3	0.3
0.3	10000	298.15	748.6	0.4
0.3	10000	303.15	743.6	0.4
0.3	10000	308.15	738.8	0.4
0.3	10000	313.15	733.9	0.4
0.3	20000	293.15	762.8	0.4
0.3	20000	298.15	758.3	0.4
0.3	20000	303.15	753.7	0.4
0.3	20000	308.15	749.3	0.4
0.3	20000	313.15	744.7	0.4
0.3	30000	293.15	771.3	0.5
0.3	30000	298.15	767.2	0.5
0.3	30000	303.15	762.7	0.5
0.3	30000	308.15	758.7	0.5
0.3	30000	313.15	754.3	0.5
0.3	40000	293.15	779.2	0.5
0.3	40000	298.15	775.1	0.5
0.3	40000	303.15	770.9	0.5
0.3	40000	308.15	766.9	0.5
0.3	40000	313.15	762.9	0.5
0.4	100	293.15	776.5	0.3
0.4	100	298.15	771.1	0.3
0.4	100	303.15	765.6	0.3
0.4	100	308.15	760.2	0.3
0.4	100	313.15	754.5	0.3
0.4	5000	293.15	782.1	1.6
0.4	5000	298.15	776.9	1.8
0.4	5000	303.15	771.5	0.9
0.4	5000	308.15	766.3	0.5
0.4	5000	313.15	760.9	0.7
0.4	10000	293.15	787.2	0.4
0.4	10000	298.15	782.2	0.4
0.4	10000	303.15	777.1	0.3
0.4	10000	308.15	772	0.3
0.4	10000	313.15	767	0.3
0.4	20000	293.15	796.7	0.4
0.4	20000	298.15	792	0.4
0.4	20000	303.15	787.2	0.4
0.4	20000	308.15	782.6	0.4
0.4	20000	313.15	777.9	0.4
0.4	30000	293.15	805.3	0.4
0.4	30000	298.15	800.9	0.4
0.4	30000	303.15	796.3	0.4
0.4	30000	308.15	792.1	0.4
0.4	30000	313.15	787.5	0.4
0.4	40000	293.15	813.2	0.5
0.4	40000	298.15	808.9	0.5
0.4	40000	303.15	804.6	0.5
0.4	40000	308.15	800.4	0.5
0.4	40000	313.15	796.3	0.5
0.5	100	293.15	813.8	0.4
0.5	100	298.15	808.2	0.3
0.5	100	303.15	802.5	0.3
0.5	100	308.15	796.9	0.3
0.5	100	313.15	791	0.3
0.5	5000	293.15	819.4	0.4
0.5	5000	298.15	814	0.4
0.5	5000	303.15	808.3	0.4
0.5	5000	308.15	802.9	0.4
0.5	5000	313.15	797.4	0.3
0.5	10000	293.15	824.5	0.4
0.5	10000	298.15	819.3	0.4
0.5	10000	303.15	813.9	0.4
0.5	10000	308.15	808.7	0.4
0.5	10000	313.15	803.4	0.4
0.5	20000	293.15	834	0.4
0.5	20000	298.15	829.1	0.4
0.5	20000	303.15	824.1	0.4
0.5	20000	308.15	819.2	0.4
0.5	20000	313.15	814.3	0.4
0.5	30000	293.15	842.6	0.4
0.5	30000	298.15	838	0.4
0.5	30000	303.15	833.3	0.4
0.5	30000	308.15	828.8	0.4
0.5	30000	313.15	824	0.4
0.5	40000	293.15	850.6	0.5
0.5	40000	298.15	846.1	0.5
0.5	40000	303.15	841.6	0.5
0.5	40000	308.15	837.2	0.5
0.5	40000	313.15	832.8	0.5
0.6	100	293.15	855	0.4
0.6	100	298.15	849.2	0.3
0.6	100	303.15	843.3	0.3
0.6	100	308.15	837.4	0.3
0.6	100	313.15	831.4	0.3
0.6	5000	293.15	860.5	0.4
0.6	5000	298.15	854.9	0.3
0.6	5000	303.15	849.5	0.3
0.6	5000	308.15	843.8	0.3
0.6	5000	313.15	837.6	0.3
0.6	10000	293.15	865.5	0.4
0.6	10000	298.15	860.2	0.3
0.6	10000	303.15	855	0.3
0.6	10000	308.15	849.5	0.3
0.6	10000	313.15	843.7	0.3
0.6	20000	293.15	875	0.4
0.6	20000	298.15	869.9	0.4
0.6	20000	303.15	865	0.4
0.6	20000	308.15	859.9	0.4
0.6	20000	313.15	854.5	0.4
0.6	30000	293.15	883.6	0.4
0.6	30000	298.15	878.8	0.4
0.6	30000	303.15	874.1	0.4
0.6	30000	308.15	869.4	0.4
0.6	30000	313.15	864.1	0.4
0.6	40000	293.15	891.5	0.4
0.6	40000	298.15	886.9	0.4
0.6	40000	303.15	882.3	0.4
0.6	40000	308.15	877.7	0.4
0.6	40000	313.15	872.9	0.4
0.7	100	293.15	900.5	0.4
0.7	100	298.15	894.5	0.3
0.7	100	303.15	888.5	0.3
0.7	100	308.15	882.5	0.3
0.7	100	313.15	876.3	0.3
0.7	5000	293.15	905.9	0.8
0.7	5000	298.15	900.2	1.1
0.7	5000	303.15	894.5	1.9
0.7	5000	308.15	888.6	1.5
0.7	5000	313.15	882.4	1
0.7	10000	293.15	910.9	0.3
0.7	10000	298.15	905.3	0.3
0.7	10000	303.15	899.9	0.3
0.7	10000	308.15	894.2	0.3
0.7	10000	313.15	888.3	0.3
0.7	20000	293.15	920.2	0.3
0.7	20000	298.15	914.9	0.3
0.7	20000	303.15	909.8	0.3
0.7	20000	308.15	904.4	0.3
0.7	20000	313.15	898.9	0.3
0.7	30000	293.15	928.7	0.3
0.7	30000	298.15	923.7	0.3
0.7	30000	303.15	918.7	0.3
0.7	30000	308.15	913.8	0.3
0.7	30000	313.15	908.5	0.3
0.7	40000	293.15	936.6	0.4
0.7	40000	298.15	931.7	0.3
0.7	40000	303.15	926.9	0.3
0.7	40000	308.15	922.1	0.3
0.7	40000	313.15	917.2	0.3
0.8	100	293.15	951.6	0.4
0.8	100	298.15	945.4	0.3
0.8	100	303.15	939.1	0.3
0.8	100	308.15	932.8	0.3
0.8	100	313.15	926.4	0.3
0.8	5000	293.15	956.8	0.7
0.8	5000	298.15	950.8	0.3
0.8	5000	303.15	944.8	0.3
0.8	5000	308.15	938.7	0.4
0.8	5000	313.15	932.2	0.3
0.8	10000	293.15	961.6	0.3
0.8	10000	298.15	955.8	0.3
0.8	10000	303.15	950	0.3
0.8	10000	308.15	944.1	0.3
0.8	10000	313.15	937.9	0.3
0.8	20000	293.15	970.7	0.3
0.8	20000	298.15	965.1	0.3
0.8	20000	303.15	959.7	0.3
0.8	20000	308.15	954.1	0.3
0.8	20000	313.15	948.2	0.3
0.8	30000	293.15	978.9	0.3
0.8	30000	298.15	973.7	0.3
0.8	30000	303.15	968.5	0.3
0.8	30000	308.15	963.2	0.3
0.8	30000	313.15	957.6	0.3
0.8	40000	293.15	986.8	0.3
0.8	40000	298.15	981.6	0.3
0.8	40000	303.15	976.5	0.3
0.8	40000	308.15	971.5	0.3
0.8	40000	313.15	966.1	0.2
0.9	100	293.15	1008.5	0.3
0.9	100	298.15	1002.1	0.3
0.9	100	303.15	995.7	0.3
0.9	100	308.15	989.2	0.3
0.9	100	313.15	982.5	0.3
0.9	5000	293.15	1013.4	0.3
0.9	5000	298.15	1007.3	0.3
0.9	5000	303.15	1000.9	0.3
0.9	5000	308.15	994.6	0.3
0.9	5000	313.15	988	0.3
0.9	10000	293.15	1018	0.3
0.9	10000	298.15	1012	0.3
0.9	10000	303.15	1005.9	0.3
0.9	10000	308.15	999.7	0.3
0.9	10000	313.15	993.4	0.3
0.9	20000	293.15	1026.7	0.3
0.9	20000	298.15	1020.8	0.3
0.9	20000	303.15	1015.1	0.3
0.9	20000	308.15	1009.3	0.3
0.9	20000	313.15	1003.2	0.3
0.9	30000	293.15	1034.6	0.3
0.9	30000	298.15	1029.1	0.3
0.9	30000	303.15	1023.6	0.3
0.9	30000	308.15	1018.1	0.3
0.9	30000	313.15	1012.2	0.3
0.9	40000	293.15	1042.3	0.3
0.9	40000	298.15	1036.9	0.3
0.9	40000	303.15	1031.4	0.3
0.9	40000	308.15	1026.1	0.3
0.9	40000	313.15	1020.6	0.3
0.95	100	293.15	1038.4	0.3
0.95	100	298.15	1032	0.3
0.95	100	303.15	1025.4	0.3
0.95	100	308.15	1018.8	0.3
0.95	100	313.15	1012.1	0.3
0.95	5000	293.15	1043.2	0.3
0.95	5000	298.15	1036.9	0.3
0.95	5000	303.15	1030.4	0.3
0.95	5000	308.15	1023.8	0.3
0.95	5000	313.15	1017.4	0.3
0.95	10000	293.15	1047.6	0.3
0.95	10000	298.15	1041.5	0.3
0.95	10000	303.15	1035.2	0.3
0.95	10000	308.15	1028.8	0.3
0.95	10000	313.15	1022.5	0.3
0.95	20000	293.15	1056.1	0.3
0.95	20000	298.15	1050.2	0.3
0.95	20000	303.15	1044.2	0.3
0.95	20000	308.15	1038.1	0.3
0.95	20000	313.15	1032.1	0.3
0.95	30000	293.15	1063.9	0.3
0.95	30000	298.15	1058.2	0.3
0.95	30000	303.15	1052.6	0.3
0.95	30000	308.15	1046.8	0.3
0.95	30000	313.15	1041	0.3
0.95	40000	293.15	1071.5	0.3
0.95	40000	298.15	1065.9	0.3
0.95	40000	303.15	1060.2	0.3
0.95	40000	308.15	1054.7	0.3
0.95	40000	313.15	1049.1	0.3
1	100	293.15	1069.8	0.3
1	100	298.15	1063.2	0.3
1	100	303.15	1056.5	0.3
1	100	308.15	1049.8	0.3
1	100	313.15	1043	0.3
1	5000	293.15	1074.4	0.3
1	5000	298.15	1068	0.3
1	5000	303.15	1061.3	0.3
1	5000	308.15	1054.6	0.3
1	5000	313.15	1048.1	0.3
1	10000	293.15	1078.6	0.3
1	10000	298.15	1072.4	0.3
1	10000	303.15	1066	0.3
1	10000	308.15	1059.4	0.3
1	10000	313.15	1053	0.3
1	20000	293.15	1086.9	0.3
1	20000	298.15	1080.8	0.3
1	20000	303.15	1074.7	0.3
1	20000	308.15	1068.5	0.3
1	20000	313.15	1062.3	0.3
1	30000	293.15	1094.5	0.3
1	30000	298.15	1088.7	0.3
1	30000	303.15	1082.9	0.3
1	30000	308.15	1077	0.3
1	30000	313.15	1071	0.3
1	40000	293.15	1101.9	0.4
1	40000	298.15	1096.2	0.4
1	40000	303.15	1090.4	0.4
1	40000	308.15	1084.8	0.3
1	40000	313.15	1079	0.3

System: hexane + dimethyl carbonate; phases: Liquid
Property: Excess molar volume, m3/mol (Liquid); method: Calculated with densities of this investigation
Mole fraction of dimethyl carbonate	Pressure, kPa	Temperature, K	Excess molar volume, m3/mol	uncertainty
0	100	293.15	0	1e-08
0	100	298.15	0	1e-08
0	100	303.15	0	1e-08
0	100	308.15	0	1e-08
0	100	313.15	0	1e-08
0	5000	293.15	0	1e-08
0	5000	298.15	0	1e-08
0	5000	303.15	0	1e-08
0	5000	308.15	0	1e-08
0	5000	313.15	0	1e-08
0	10000	293.15	0	1e-08
0	10000	298.15	0	1e-08
0	10000	303.15	0	1e-08
0	10000	308.15	0	1e-08
0	10000	313.15	0	1e-08
0	20000	293.15	0	1e-08
0	20000	298.15	0	1e-08
0	20000	303.15	0	1e-08
0	20000	308.15	0	1e-08
0	20000	313.15	0	1e-08
0	30000	293.15	0	1e-08
0	30000	298.15	0	1e-08
0	30000	303.15	0	1e-08
0	30000	308.15	0	1e-08
0	30000	313.15	0	1e-08
0	40000	293.15	0	1e-08
0	40000	298.15	0	1e-08
0	40000	303.15	0	1e-08
0	40000	308.15	0	1e-08
0	40000	313.15	0	1e-08
0.1	100	293.15	4.84e-07	1.02e-08
0.1	100	298.15	5.038e-07	9.6e-09
0.1	100	303.15	5.202e-07	9.7e-09
0.1	100	308.15	5.419e-07	9.9e-09
0.1	100	313.15	5.566e-07	1.03e-08
0.1	5000	293.15	4.686e-07	9.6e-09
0.1	5000	298.15	4.855e-07	9.5e-09
0.1	5000	303.15	4.996e-07	9.6e-09
0.1	5000	308.15	5.195e-07	9.7e-09
0.1	5000	313.15	5.334e-07	9.9e-09
0.1	10000	293.15	4.536e-07	9.5e-09
0.1	10000	298.15	4.695e-07	9.4e-09
0.1	10000	303.15	4.82e-07	9.4e-09
0.1	10000	308.15	4.991e-07	9.6e-09
0.1	10000	313.15	5.095e-07	9.7e-09
0.1	20000	293.15	4.266e-07	9.3e-09
0.1	20000	298.15	4.391e-07	9.1e-09
0.1	20000	303.15	4.483e-07	9.2e-09
0.1	20000	308.15	4.616e-07	9.3e-09
0.1	20000	313.15	4.686e-07	9.4e-09
0.1	30000	293.15	4.035e-07	9.1e-09
0.1	30000	298.15	4.131e-07	9e-09
0.1	30000	303.15	4.198e-07	9e-09
0.1	30000	308.15	4.306e-07	9.1e-09
0.1	30000	313.15	4.378e-07	9.2e-09
0.1	40000	293.15	3.848e-07	9.2e-09
0.1	40000	298.15	3.916e-07	8.8e-09
0.1	40000	303.15	3.958e-07	8.9e-09
0.1	40000	308.15	4.044e-07	8.9e-09
0.1	40000	313.15	4.101e-07	9.2e-09
0.2	100	293.15	7.408e-07	1.17e-08
0.2	100	298.15	7.71e-07	1.17e-08
0.2	100	303.15	8.014e-07	1.19e-08
0.2	100	308.15	8.348e-07	1.22e-08
0.2	100	313.15	8.655e-07	1.24e-08
0.2	5000	293.15	7.172e-07	1.14e-08
0.2	5000	298.15	7.43e-07	1.14e-08
0.2	5000	303.15	7.696e-07	1.17e-08
0.2	5000	308.15	8.003e-07	1.19e-08
0.2	5000	313.15	8.294e-07	1.21e-08
0.2	10000	293.15	6.943e-07	1.12e-08
0.2	10000	298.15	7.186e-07	1.12e-08
0.2	10000	303.15	7.425e-07	1.14e-08
0.2	10000	308.15	7.689e-07	1.17e-08
0.2	10000	313.15	7.921e-07	1.18e-08
0.2	20000	293.15	6.528e-07	1.08e-08
0.2	20000	298.15	6.72e-07	1.09e-08
0.2	20000	303.15	6.906e-07	1.1e-08
0.2	20000	308.15	7.111e-07	1.12e-08
0.2	20000	313.15	7.285e-07	1.13e-08
0.2	30000	293.15	6.176e-07	1.05e-08
0.2	30000	298.15	6.323e-07	1.05e-08
0.2	30000	303.15	6.467e-07	1.07e-08
0.2	30000	308.15	6.634e-07	1.08e-08
0.2	30000	313.15	6.776e-07	1.09e-08
0.2	40000	293.15	5.89e-07	1.03e-08
0.2	40000	298.15	5.993e-07	1.03e-08
0.2	40000	303.15	6.098e-07	1.04e-08
0.2	40000	308.15	6.23e-07	1.05e-08
0.2	40000	313.15	6.346e-07	1.06e-08
0.3	100	293.15	8.725e-07	1.28e-08
0.3	100	298.15	9.082e-07	1.29e-08
0.3	100	303.15	9.432e-07	1.32e-08
0.3	100	308.15	9.826e-07	1.35e-08
0.3	100	313.15	1.021e-06	1.38e-08
0.3	5000	293.15	8.448e-07	1.24e-08
0.3	5000	298.15	8.752e-07	1.26e-08
0.3	5000	303.15	9.058e-07	1.28e-08
0.3	5000	308.15	9.419e-07	1.32e-08
0.3	5000	313.15	9.884e-07	1.35e-08
0.3	10000	293.15	8.178e-07	1.22e-08
0.3	10000	298.15	8.464e-07	1.23e-08
0.3	10000	303.15	8.739e-07	1.25e-08
0.3	10000	308.15	9.049e-07	1.28e-08
0.3	10000	313.15	9.441e-07	1.31e-08
0.3	20000	293.15	7.689e-07	1.17e-08
0.3	20000	298.15	7.916e-07	1.18e-08
0.3	20000	303.15	8.128e-07	1.2e-08
0.3	20000	308.15	8.37e-07	1.22e-08
0.3	20000	313.15	8.683e-07	1.25e-08
0.3	30000	293.15	7.274e-07	1.14e-08
0.3	30000	298.15	7.447e-07	1.14e-08
0.3	30000	303.15	7.612e-07	1.16e-08
0.3	30000	308.15	7.808e-07	1.17e-08
0.3	30000	313.15	8.075e-07	1.19e-08
0.3	40000	293.15	6.937e-07	1.11e-08
0.3	40000	298.15	7.059e-07	1.11e-08
0.3	40000	303.15	7.177e-07	1.12e-08
0.3	40000	308.15	7.333e-07	1.13e-08
0.3	40000	313.15	7.563e-07	1.15e-08
0.4	100	293.15	8.997e-07	1.3e-08
0.4	100	298.15	9.365e-07	1.31e-08
0.4	100	303.15	9.752e-07	1.35e-08
0.4	100	308.15	1.0159e-06	1.38e-08
0.4	100	313.15	1.0588e-06	1.41e-08
0.4	5000	293.15	8.711e-07	1.26e-08
0.4	5000	298.15	9.024e-07	1.28e-08
0.4	5000	303.15	9.366e-07	1.31e-08
0.4	5000	308.15	9.739e-07	1.34e-08
0.4	5000	313.15	1.0146e-06	1.37e-08
0.4	10000	293.15	8.433e-07	1.24e-08
0.4	10000	298.15	8.728e-07	1.25e-08
0.4	10000	303.15	9.036e-07	1.28e-08
0.4	10000	308.15	9.356e-07	1.31e-08
0.4	10000	313.15	9.691e-07	1.33e-08
0.4	20000	293.15	7.929e-07	1.19e-08
0.4	20000	298.15	8.162e-07	1.2e-08
0.4	20000	303.15	8.404e-07	1.22e-08
0.4	20000	308.15	8.654e-07	1.25e-08
0.4	20000	313.15	8.913e-07	1.27e-08
0.4	30000	293.15	7.501e-07	1.15e-08
0.4	30000	298.15	7.68e-07	1.16e-08
0.4	30000	303.15	7.87e-07	1.18e-08
0.4	30000	308.15	8.073e-07	1.2e-08
0.4	30000	313.15	8.289e-07	1.21e-08
0.4	40000	293.15	7.154e-07	1.13e-08
0.4	40000	298.15	7.279e-07	1.13e-08
0.4	40000	303.15	7.421e-07	1.14e-08
0.4	40000	308.15	7.581e-07	1.15e-08
0.4	40000	313.15	7.763e-07	1.17e-08
0.5	100	293.15	8.478e-07	1.25e-08
0.5	100	298.15	8.824e-07	1.26e-08
0.5	100	303.15	9.189e-07	1.3e-08
0.5	100	308.15	9.573e-07	1.33e-08
0.5	100	313.15	9.967e-07	1.36e-08
0.5	5000	293.15	8.208e-07	1.22e-08
0.5	5000	298.15	8.503e-07	1.24e-08
0.5	5000	303.15	8.825e-07	1.26e-08
0.5	5000	308.15	9.177e-07	1.29e-08
0.5	5000	313.15	9.551e-07	1.32e-08
0.5	10000	293.15	7.946e-07	1.19e-08
0.5	10000	298.15	8.224e-07	1.21e-08
0.5	10000	303.15	8.514e-07	1.24e-08
0.5	10000	308.15	8.816e-07	1.26e-08
0.5	10000	313.15	9.122e-07	1.28e-08
0.5	20000	293.15	7.471e-07	1.15e-08
0.5	20000	298.15	7.691e-07	1.16e-08
0.5	20000	303.15	7.919e-07	1.18e-08
0.5	20000	308.15	8.154e-07	1.2e-08
0.5	20000	313.15	8.39e-07	1.22e-08
0.5	30000	293.15	7.068e-07	1.12e-08
0.5	30000	298.15	7.236e-07	1.13e-08
0.5	30000	303.15	7.416e-07	1.14e-08
0.5	30000	308.15	7.607e-07	1.16e-08
0.5	30000	313.15	7.803e-07	1.17e-08
0.5	40000	293.15	6.741e-07	1.09e-08
0.5	40000	298.15	6.859e-07	1.1e-08
0.5	40000	303.15	6.992e-07	1.11e-08
0.5	40000	308.15	7.144e-07	1.12e-08
0.5	40000	313.15	7.308e-07	1.13e-08
0.6	100	293.15	7.387e-07	1.15e-08
0.6	100	298.15	7.689e-07	1.17e-08
0.6	100	303.15	7.988e-07	1.19e-08
0.6	100	308.15	8.321e-07	1.22e-08
0.6	100	313.15	8.661e-07	1.24e-08
0.6	5000	293.15	7.153e-07	1.13e-08
0.6	5000	298.15	7.409e-07	1.14e-08
0.6	5000	303.15	7.752e-07	1.17e-08
0.6	5000	308.15	7.937e-07	1.19e-08
0.6	5000	313.15	8.3e-07	1.22e-08
0.6	10000	293.15	6.924e-07	1.11e-08
0.6	10000	298.15	7.166e-07	1.12e-08
0.6	10000	303.15	7.433e-07	1.15e-08
0.6	10000	308.15	7.69e-07	1.17e-08
0.6	10000	313.15	7.927e-07	1.18e-08
0.6	20000	293.15	6.51e-07	1.07e-08
0.6	20000	298.15	6.702e-07	1.08e-08
0.6	20000	303.15	6.804e-07	1.09e-08
0.6	20000	308.15	6.912e-07	1.1e-08
0.6	20000	313.15	7.291e-07	1.14e-08
0.6	30000	293.15	6.158e-07	1.04e-08
0.6	30000	298.15	6.305e-07	1.05e-08
0.6	30000	303.15	6.58e-07	1.08e-08
0.6	30000	308.15	6.71e-07	1.08e-08
0.6	30000	313.15	6.871e-07	1.1e-08
0.6	40000	293.15	5.874e-07	1.02e-08
0.6	40000	298.15	5.976e-07	1.03e-08
0.6	40000	303.15	5.874e-07	1.02e-08
0.6	40000	308.15	6.001e-07	1.03e-08
0.6	40000	313.15	6.351e-07	1.06e-08
0.7	100	293.15	5.817e-07	1.03e-08
0.7	100	298.15	6.054e-07	1.03e-08
0.7	100	303.15	6.177e-07	1.04e-08
0.7	100	308.15	6.435e-07	1.07e-08
0.7	100	313.15	6.673e-07	1.08e-08
0.7	5000	293.15	5.432e-07	9.9e-09
0.7	5000	298.15	5.634e-07	1e-08
0.7	5000	303.15	5.632e-07	1e-08
0.7	5000	308.15	5.856e-07	1.03e-08
0.7	5000	313.15	6.395e-07	1.07e-08
0.7	10000	293.15	5.452e-07	1e-08
0.7	10000	298.15	5.643e-07	1e-08
0.7	10000	303.15	5.478e-07	9.9e-09
0.7	10000	308.15	5.945e-07	1.03e-08
0.7	10000	313.15	6.108e-07	1.04e-08
0.7	20000	293.15	5.126e-07	9.7e-09
0.7	20000	298.15	5.277e-07	9.8e-09
0.7	20000	303.15	5.326e-07	9.8e-09
0.7	20000	308.15	5.479e-07	9.9e-09
0.7	20000	313.15	5.617e-07	1e-08
0.7	30000	293.15	4.849e-07	9.5e-09
0.7	30000	298.15	4.965e-07	9.5e-09
0.7	30000	303.15	5.02e-07	9.6e-09
0.7	30000	308.15	5.124e-07	9.6e-09
0.7	30000	313.15	5.224e-07	9.7e-09
0.7	40000	293.15	4.625e-07	9.4e-09
0.7	40000	298.15	4.706e-07	9.3e-09
0.7	40000	303.15	4.625e-07	9.3e-09
0.7	40000	308.15	4.725e-07	9.4e-09
0.7	40000	313.15	4.893e-07	9.5e-09
0.8	100	293.15	3.437e-07	8.6e-09
0.8	100	298.15	3.578e-07	8.6e-09
0.8	100	303.15	3.779e-07	8.8e-09
0.8	100	308.15	3.937e-07	8.9e-09
0.8	100	313.15	4.123e-07	9e-09
0.8	5000	293.15	3.328e-07	8.6e-09
0.8	5000	298.15	3.447e-07	8.5e-09
0.8	5000	303.15	3.328e-07	8.5e-09
0.8	5000	308.15	3.461e-07	8.6e-09
0.8	5000	313.15	3.951e-07	9e-09
0.8	10000	293.15	3.221e-07	8.5e-09
0.8	10000	298.15	3.334e-07	8.5e-09
0.8	10000	303.15	3.221e-07	8.5e-09
0.8	10000	308.15	3.336e-07	8.6e-09
0.8	10000	313.15	3.774e-07	8.8e-09
0.8	20000	293.15	3.029e-07	8.5e-09
0.8	20000	298.15	3.118e-07	8.5e-09
0.8	20000	303.15	3.029e-07	8.5e-09
0.8	20000	308.15	3.119e-07	8.5e-09
0.8	20000	313.15	3.471e-07	8.6e-09
0.8	30000	293.15	2.865e-07	8.4e-09
0.8	30000	298.15	2.834e-07	8.4e-09
0.8	30000	303.15	2.965e-07	8.5e-09
0.8	30000	308.15	3.139e-07	8.5e-09
0.8	30000	313.15	3.228e-07	8.5e-09
0.8	40000	293.15	2.733e-07	8.4e-09
0.8	40000	298.15	2.781e-07	8.4e-09
0.8	40000	303.15	2.733e-07	8.4e-09
0.8	40000	308.15	2.792e-07	8.4e-09
0.8	40000	313.15	3.023e-07	8.5e-09
0.9	100	293.15	8.16e-08	8e-09
0.9	100	298.15	8.49e-08	7.9e-09
0.9	100	303.15	9.26e-08	8e-09
0.9	100	308.15	9.65e-08	8e-09
0.9	100	313.15	1.066e-07	8.2e-09
0.9	5000	293.15	7.9e-08	8e-09
0.9	5000	298.15	8.18e-08	7.9e-09
0.9	5000	303.15	7.9e-08	7.9e-09
0.9	5000	308.15	8.21e-08	8e-09
0.9	5000	313.15	1.022e-07	8.1e-09
0.9	10000	293.15	7.64e-08	8e-09
0.9	10000	298.15	7.91e-08	7.9e-09
0.9	10000	303.15	7.64e-08	7.9e-09
0.9	10000	308.15	7.92e-08	7.9e-09
0.9	10000	313.15	9.76e-08	8.1e-09
0.9	20000	293.15	7.19e-08	7.9e-09
0.9	20000	298.15	7.4e-08	7.9e-09
0.9	20000	303.15	7.59e-08	7.9e-09
0.9	20000	308.15	7.89e-08	7.9e-09
0.9	20000	313.15	8.98e-08	8e-09
0.9	30000	293.15	6.8e-08	7.9e-09
0.9	30000	298.15	6.96e-08	7.9e-09
0.9	30000	303.15	7.2e-08	7.9e-09
0.9	30000	308.15	7.7e-08	7.9e-09
0.9	30000	313.15	8.35e-08	8e-09
0.9	40000	293.15	6.49e-08	8e-09
0.9	40000	298.15	6.6e-08	7.9e-09
0.9	40000	303.15	6.49e-08	7.9e-09
0.9	40000	308.15	6.63e-08	7.9e-09
0.9	40000	313.15	7.82e-08	8.1e-09
0.95	100	293.15	2.99e-08	7.8e-09
0.95	100	298.15	3.29e-08	7.8e-09
0.95	100	303.15	3.48e-08	7.8e-09
0.95	100	308.15	3.58e-08	7.8e-09
0.95	100	313.15	3.64e-08	7.8e-09
0.95	5000	293.15	2.84e-08	7.8e-09
0.95	5000	298.15	3.1e-08	7.8e-09
0.95	5000	303.15	3.24e-08	7.8e-09
0.95	5000	308.15	3.42e-08	7.8e-09
0.95	5000	313.15	3.51e-08	7.8e-09
0.95	10000	293.15	2.68e-08	7.8e-09
0.95	10000	298.15	2.96e-08	7.8e-09
0.95	10000	303.15	3.1e-08	7.8e-09
0.95	10000	308.15	3.27e-08	7.8e-09
0.95	10000	313.15	3.36e-08	7.8e-09
0.95	20000	293.15	2.53e-08	7.8e-09
0.95	20000	298.15	2.82e-08	7.8e-09
0.95	20000	303.15	2.98e-08	7.8e-09
0.95	20000	308.15	3.15e-08	7.8e-09
0.95	20000	313.15	3.19e-08	7.8e-09
0.95	30000	293.15	2.41e-08	7.8e-09
0.95	30000	298.15	2.68e-08	7.8e-09
0.95	30000	303.15	2.79e-08	7.8e-09
0.95	30000	308.15	3.01e-08	7.8e-09
0.95	30000	313.15	3.07e-08	7.8e-09
0.95	40000	293.15	2.25e-08	7.8e-09
0.95	40000	298.15	2.53e-08	7.8e-09
0.95	40000	303.15	2.65e-08	7.8e-09
0.95	40000	308.15	2.84e-08	7.8e-09
0.95	40000	313.15	2.94e-08	7.8e-09
1	100	293.15	0	1e-08
1	100	298.15	0	1e-08
1	100	303.15	0	1e-08
1	100	308.15	0	1e-08
1	100	313.15	0	1e-08
1	5000	293.15	0	1e-08
1	5000	298.15	0	1e-08
1	5000	303.15	0	1e-08
1	5000	308.15	0	1e-08
1	5000	313.15	0	1e-08
1	10000	293.15	0	1e-08
1	10000	298.15	0	1e-08
1	10000	303.15	0	1e-08
1	10000	308.15	0	1e-08
1	10000	313.15	0	1e-08
1	20000	293.15	0	1e-08
1	20000	298.15	0	1e-08
1	20000	303.15	0	1e-08
1	20000	308.15	0	1e-08
1	20000	313.15	0	1e-08
1	30000	293.15	0	1e-08
1	30000	298.15	0	1e-08
1	30000	303.15	0	1e-08
1	30000	308.15	0	1e-08
1	30000	313.15	0	1e-08
1	40000	293.15	0	1e-08
1	40000	298.15	0	1e-08
1	40000	303.15	0	1e-08
1	40000	308.15	0	1e-08
1	40000	313.15	0	1e-08

System: hexane + dimethyl carbonate; phases: Liquid
Property: Isothermal compressibility, 1/kPa (Liquid); method: Calculated from densities of this investigation
Mole fraction of dimethyl carbonate	Pressure, kPa	Temperature, K	Isothermal compressibility, 1/kPa	uncertainty
0	100	293.15	1.696e-06	6.896e-08
0	100	298.15	1.771e-06	7.2e-08
0	100	303.15	1.839e-06	7.477e-08
0	100	308.15	1.926e-06	7.835e-08
0	100	313.15	2.052e-06	8.351e-08
0	5000	293.15	1.549e-06	6.296e-08
0	5000	298.15	1.611e-06	6.549e-08
0	5000	303.15	1.671e-06	6.793e-08
0	5000	308.15	1.743e-06	7.089e-08
0	5000	313.15	1.841e-06	7.492e-08
0	10000	293.15	1.423e-06	5.783e-08
0	10000	298.15	1.475e-06	5.995e-08
0	10000	303.15	1.528e-06	6.211e-08
0	10000	308.15	1.588e-06	6.457e-08
0	10000	313.15	1.665e-06	6.774e-08
0	20000	293.15	1.225e-06	4.977e-08
0	20000	298.15	1.263e-06	5.133e-08
0	20000	303.15	1.306e-06	5.308e-08
0	20000	308.15	1.35e-06	5.487e-08
0	20000	313.15	1.399e-06	5.691e-08
0	30000	293.15	1.075e-06	4.367e-08
0	30000	298.15	1.103e-06	4.482e-08
0	30000	303.15	1.14e-06	4.633e-08
0	30000	308.15	1.173e-06	4.767e-08
0	30000	313.15	1.206e-06	4.903e-08
0	40000	293.15	9.58e-07	3.892e-08
0	40000	298.15	9.8e-07	3.982e-08
0	40000	303.15	1.011e-06	4.108e-08
0	40000	308.15	1.038e-06	4.218e-08
0	40000	313.15	1.06e-06	4.307e-08
0.1	100	293.15	1.66e-06	6.751e-08
0.1	100	298.15	1.737e-06	7.062e-08
0.1	100	303.15	1.805e-06	7.339e-08
0.1	100	308.15	1.89e-06	7.689e-08
0.1	100	313.15	2.016e-06	8.203e-08
0.1	5000	293.15	1.519e-06	6.175e-08
0.1	5000	298.15	1.583e-06	6.435e-08
0.1	5000	303.15	1.643e-06	6.679e-08
0.1	5000	308.15	1.714e-06	6.971e-08
0.1	5000	313.15	1.811e-06	7.368e-08
0.1	10000	293.15	1.398e-06	5.682e-08
0.1	10000	298.15	1.452e-06	5.902e-08
0.1	10000	303.15	1.505e-06	6.118e-08
0.1	10000	308.15	1.565e-06	6.363e-08
0.1	10000	313.15	1.642e-06	6.678e-08
0.1	20000	293.15	1.206e-06	4.901e-08
0.1	20000	298.15	1.245e-06	5.06e-08
0.1	20000	303.15	1.289e-06	5.239e-08
0.1	20000	308.15	1.334e-06	5.422e-08
0.1	20000	313.15	1.382e-06	5.619e-08
0.1	30000	293.15	1.06e-06	4.307e-08
0.1	30000	298.15	1.09e-06	4.43e-08
0.1	30000	303.15	1.127e-06	4.58e-08
0.1	30000	308.15	1.162e-06	4.722e-08
0.1	30000	313.15	1.194e-06	4.853e-08
0.1	40000	293.15	9.46e-07	3.844e-08
0.1	40000	298.15	9.69e-07	3.938e-08
0.1	40000	303.15	1.001e-06	4.068e-08
0.1	40000	308.15	1.029e-06	4.181e-08
0.1	40000	313.15	1.051e-06	4.27e-08
0.2	100	293.15	1.613e-06	6.56e-08
0.2	100	298.15	1.689e-06	6.867e-08
0.2	100	303.15	1.757e-06	7.144e-08
0.2	100	308.15	1.839e-06	7.481e-08
0.2	100	313.15	1.958e-06	7.966e-08
0.2	5000	293.15	1.479e-06	6.013e-08
0.2	5000	298.15	1.542e-06	6.269e-08
0.2	5000	303.15	1.602e-06	6.513e-08
0.2	5000	308.15	1.672e-06	6.8e-08
0.2	5000	313.15	1.765e-06	7.18e-08
0.2	10000	293.15	1.363e-06	5.54e-08
0.2	10000	298.15	1.416e-06	5.756e-08
0.2	10000	303.15	1.47e-06	5.976e-08
0.2	10000	308.15	1.529e-06	6.217e-08
0.2	10000	313.15	1.604e-06	6.524e-08
0.2	20000	293.15	1.179e-06	4.791e-08
0.2	20000	298.15	1.218e-06	4.95e-08
0.2	20000	303.15	1.262e-06	5.129e-08
0.2	20000	308.15	1.307e-06	5.313e-08
0.2	20000	313.15	1.356e-06	5.514e-08
0.2	30000	293.15	1.038e-06	4.218e-08
0.2	30000	298.15	1.068e-06	4.34e-08
0.2	30000	303.15	1.105e-06	4.491e-08
0.2	30000	308.15	1.141e-06	4.637e-08
0.2	30000	313.15	1.174e-06	4.772e-08
0.2	40000	293.15	9.28e-07	3.771e-08
0.2	40000	298.15	9.51e-07	3.865e-08
0.2	40000	303.15	9.83e-07	3.995e-08
0.2	40000	308.15	1.012e-06	4.112e-08
0.2	40000	313.15	1.035e-06	4.205e-08
0.3	100	293.15	1.556e-06	6.328e-08
0.3	100	298.15	1.631e-06	6.631e-08
0.3	100	303.15	1.696e-06	6.896e-08
0.3	100	308.15	1.776e-06	7.224e-08
0.3	100	313.15	1.878e-06	7.641e-08
0.3	5000	293.15	1.43e-06	5.814e-08
0.3	5000	298.15	1.492e-06	6.066e-08
0.3	5000	303.15	1.55e-06	6.301e-08
0.3	5000	308.15	1.618e-06	6.58e-08
0.3	5000	313.15	1.701e-06	6.919e-08
0.3	10000	293.15	1.321e-06	5.37e-08
0.3	10000	298.15	1.373e-06	5.581e-08
0.3	10000	303.15	1.425e-06	5.793e-08
0.3	10000	308.15	1.484e-06	6.034e-08
0.3	10000	313.15	1.552e-06	6.312e-08
0.3	20000	293.15	1.146e-06	4.657e-08
0.3	20000	298.15	1.184e-06	4.812e-08
0.3	20000	303.15	1.227e-06	4.987e-08
0.3	20000	308.15	1.272e-06	5.17e-08
0.3	20000	313.15	1.32e-06	5.367e-08
0.3	30000	293.15	1.011e-06	4.108e-08
0.3	30000	298.15	1.041e-06	4.231e-08
0.3	30000	303.15	1.077e-06	4.377e-08
0.3	30000	308.15	1.114e-06	4.527e-08
0.3	30000	313.15	1.149e-06	4.67e-08
0.3	40000	293.15	9.05e-07	3.677e-08
0.3	40000	298.15	9.28e-07	3.771e-08
0.3	40000	303.15	9.6e-07	3.902e-08
0.3	40000	308.15	9.9e-07	4.023e-08
0.3	40000	313.15	1.017e-06	4.132e-08
0.4	100	293.15	1.489e-06	6.056e-08
0.4	100	298.15	1.562e-06	6.351e-08
0.4	100	303.15	1.626e-06	6.611e-08
0.4	100	308.15	1.701e-06	6.919e-08
0.4	100	313.15	1.809e-06	7.359e-08
0.4	5000	293.15	1.372e-06	5.578e-08
0.4	5000	298.15	1.433e-06	5.826e-08
0.4	5000	303.15	1.49e-06	6.057e-08
0.4	5000	308.15	1.554e-06	6.32e-08
0.4	5000	313.15	1.64e-06	6.671e-08
0.4	10000	293.15	1.27e-06	5.162e-08
0.4	10000	298.15	1.321e-06	5.37e-08
0.4	10000	303.15	1.373e-06	5.581e-08
0.4	10000	308.15	1.429e-06	5.81e-08
0.4	10000	313.15	1.498e-06	6.092e-08
0.4	20000	293.15	1.106e-06	4.494e-08
0.4	20000	298.15	1.143e-06	4.646e-08
0.4	20000	303.15	1.186e-06	4.821e-08
0.4	20000	308.15	1.23e-06	5e-08
0.4	20000	313.15	1.276e-06	5.188e-08
0.4	30000	293.15	9.79e-07	3.978e-08
0.4	30000	298.15	1.008e-06	4.097e-08
0.4	30000	303.15	1.044e-06	4.243e-08
0.4	30000	308.15	1.079e-06	4.385e-08
0.4	30000	313.15	1.111e-06	4.516e-08
0.4	40000	293.15	8.79e-07	3.572e-08
0.4	40000	298.15	9.01e-07	3.661e-08
0.4	40000	303.15	9.32e-07	3.788e-08
0.4	40000	308.15	9.62e-07	3.909e-08
0.4	40000	313.15	9.85e-07	4.002e-08
0.5	100	293.15	1.413e-06	5.747e-08
0.5	100	298.15	1.483e-06	6.03e-08
0.5	100	303.15	1.543e-06	6.273e-08
0.5	100	308.15	1.612e-06	6.557e-08
0.5	100	313.15	1.713e-06	6.969e-08
0.5	5000	293.15	1.306e-06	5.31e-08
0.5	5000	298.15	1.365e-06	5.549e-08
0.5	5000	303.15	1.418e-06	5.765e-08
0.5	5000	308.15	1.479e-06	6.015e-08
0.5	5000	313.15	1.56e-06	6.346e-08
0.5	10000	293.15	1.212e-06	4.927e-08
0.5	10000	298.15	1.262e-06	5.13e-08
0.5	10000	303.15	1.31e-06	5.325e-08
0.5	10000	308.15	1.364e-06	5.546e-08
0.5	10000	313.15	1.429e-06	5.812e-08
0.5	20000	293.15	1.06e-06	4.308e-08
0.5	20000	298.15	1.096e-06	4.455e-08
0.5	20000	303.15	1.137e-06	4.622e-08
0.5	20000	308.15	1.18e-06	4.796e-08
0.5	20000	313.15	1.224e-06	4.976e-08
0.5	30000	293.15	9.42e-07	3.828e-08
0.5	30000	298.15	9.69e-07	3.938e-08
0.5	30000	303.15	1.004e-06	4.081e-08
0.5	30000	308.15	1.039e-06	4.223e-08
0.5	30000	313.15	1.07e-06	4.349e-08
0.5	40000	293.15	8.47e-07	3.442e-08
0.5	40000	298.15	8.68e-07	3.527e-08
0.5	40000	303.15	8.99e-07	3.654e-08
0.5	40000	308.15	9.29e-07	3.775e-08
0.5	40000	313.15	9.51e-07	3.864e-08
0.6	100	293.15	1.327e-06	5.398e-08
0.6	100	298.15	1.393e-06	5.671e-08
0.6	100	303.15	1.516e-06	6.17e-08
0.6	100	308.15	1.581e-06	6.425e-08
0.6	100	313.15	1.604e-06	6.516e-08
0.6	5000	293.15	1.231e-06	5.005e-08
0.6	5000	298.15	1.286e-06	5.232e-08
0.6	5000	303.15	1.377e-06	5.601e-08
0.6	5000	308.15	1.434e-06	5.828e-08
0.6	5000	313.15	1.467e-06	5.961e-08
0.6	10000	293.15	1.146e-06	4.659e-08
0.6	10000	298.15	1.193e-06	4.851e-08
0.6	10000	303.15	1.26e-06	5.124e-08
0.6	10000	308.15	1.31e-06	5.324e-08
0.6	10000	313.15	1.349e-06	5.482e-08
0.6	20000	293.15	1.008e-06	4.096e-08
0.6	20000	298.15	1.042e-06	4.235e-08
0.6	20000	303.15	1.076e-06	4.373e-08
0.6	20000	308.15	1.117e-06	4.541e-08
0.6	20000	313.15	1.163e-06	4.729e-08
0.6	30000	293.15	8.99e-07	3.653e-08
0.6	30000	298.15	9.25e-07	3.758e-08
0.6	30000	303.15	9.39e-07	3.816e-08
0.6	30000	308.15	9.73e-07	3.956e-08
0.6	30000	313.15	1.022e-06	4.157e-08
0.6	40000	293.15	8.11e-07	3.295e-08
0.6	40000	298.15	8.31e-07	3.376e-08
0.6	40000	303.15	8.33e-07	3.384e-08
0.6	40000	308.15	8.62e-07	3.505e-08
0.6	40000	313.15	9.11e-07	3.705e-08
0.7	100	293.15	1.23e-06	5.004e-08
0.7	100	298.15	1.292e-06	5.257e-08
0.7	100	303.15	1.381e-06	5.617e-08
0.7	100	308.15	1.437e-06	5.841e-08
0.7	100	313.15	1.478e-06	6.006e-08
0.7	5000	293.15	1.146e-06	4.66e-08
0.7	5000	298.15	1.198e-06	4.872e-08
0.7	5000	303.15	1.267e-06	5.152e-08
0.7	5000	308.15	1.318e-06	5.357e-08
0.7	5000	313.15	1.36e-06	5.527e-08
0.7	10000	293.15	1.071e-06	4.354e-08
0.7	10000	298.15	1.115e-06	4.533e-08
0.7	10000	303.15	1.169e-06	4.753e-08
0.7	10000	308.15	1.215e-06	4.939e-08
0.7	10000	313.15	1.257e-06	5.109e-08
0.7	20000	293.15	9.48e-07	3.853e-08
0.7	20000	298.15	9.8e-07	3.983e-08
0.7	20000	303.15	1.012e-06	4.113e-08
0.7	20000	308.15	1.051e-06	4.272e-08
0.7	20000	313.15	1.093e-06	4.444e-08
0.7	30000	293.15	8.5e-07	3.454e-08
0.7	30000	298.15	8.74e-07	3.551e-08
0.7	30000	303.15	8.92e-07	3.625e-08
0.7	30000	308.15	9.26e-07	3.764e-08
0.7	30000	313.15	9.66e-07	3.928e-08
0.7	40000	293.15	7.7e-07	3.129e-08
0.7	40000	298.15	7.89e-07	3.205e-08
0.7	40000	303.15	7.97e-07	3.238e-08
0.7	40000	308.15	8.27e-07	3.362e-08
0.7	40000	313.15	8.66e-07	3.521e-08
0.8	100	293.15	1.118e-06	4.548e-08
0.8	100	298.15	1.174e-06	4.777e-08
0.8	100	303.15	1.261e-06	5.129e-08
0.8	100	308.15	1.306e-06	5.307e-08
0.8	100	313.15	1.337e-06	5.432e-08
0.8	5000	293.15	1.048e-06	4.261e-08
0.8	5000	298.15	1.095e-06	4.454e-08
0.8	5000	303.15	1.163e-06	4.729e-08
0.8	5000	308.15	1.206e-06	4.901e-08
0.8	5000	313.15	1.239e-06	5.035e-08
0.8	10000	293.15	9.85e-07	4.004e-08
0.8	10000	298.15	1.025e-06	4.168e-08
0.8	10000	303.15	1.077e-06	4.379e-08
0.8	10000	308.15	1.118e-06	4.544e-08
0.8	10000	313.15	1.153e-06	4.686e-08
0.8	20000	293.15	8.79e-07	3.572e-08
0.8	20000	298.15	9.08e-07	3.69e-08
0.8	20000	303.15	9.39e-07	3.817e-08
0.8	20000	308.15	9.76e-07	3.967e-08
0.8	20000	313.15	1.012e-06	4.114e-08
0.8	30000	293.15	7.93e-07	3.222e-08
0.8	30000	298.15	8.15e-07	3.312e-08
0.8	30000	303.15	8.33e-07	3.385e-08
0.8	30000	308.15	8.66e-07	3.52e-08
0.8	30000	313.15	9.02e-07	3.667e-08
0.8	40000	293.15	7.23e-07	2.938e-08
0.8	40000	298.15	7.4e-07	3.006e-08
0.8	40000	303.15	7.48e-07	3.039e-08
0.8	40000	308.15	7.78e-07	3.163e-08
0.8	40000	313.15	8.13e-07	3.305e-08
0.9	100	293.15	9.93e-07	4.037e-08
0.9	100	298.15	1.042e-06	4.238e-08
0.9	100	303.15	1.095e-06	4.451e-08
0.9	100	308.15	1.129e-06	4.589e-08
0.9	100	313.15	1.174e-06	4.771e-08
0.9	5000	293.15	9.37e-07	3.809e-08
0.9	5000	298.15	9.79e-07	3.981e-08
0.9	5000	303.15	1.024e-06	4.163e-08
0.9	5000	308.15	1.058e-06	4.3e-08
0.9	5000	313.15	1.099e-06	4.468e-08
0.9	10000	293.15	8.87e-07	3.606e-08
0.9	10000	298.15	9.23e-07	3.752e-08
0.9	10000	303.15	9.61e-07	3.906e-08
0.9	10000	308.15	9.95e-07	4.044e-08
0.9	10000	313.15	1.031e-06	4.191e-08
0.9	20000	293.15	8.01e-07	3.255e-08
0.9	20000	298.15	8.27e-07	3.361e-08
0.9	20000	303.15	8.55e-07	3.475e-08
0.9	20000	308.15	8.89e-07	3.613e-08
0.9	20000	313.15	9.19e-07	3.735e-08
0.9	30000	293.15	7.3e-07	2.966e-08
0.9	30000	298.15	7.49e-07	3.044e-08
0.9	30000	303.15	7.71e-07	3.134e-08
0.9	30000	308.15	8.03e-07	3.264e-08
0.9	30000	313.15	8.28e-07	3.365e-08
0.9	40000	293.15	6.7e-07	2.723e-08
0.9	40000	298.15	6.84e-07	2.779e-08
0.9	40000	303.15	7.01e-07	2.849e-08
0.9	40000	308.15	7.32e-07	2.975e-08
0.9	40000	313.15	7.54e-07	3.064e-08
0.95	100	293.15	9.43e-07	3.833e-08
0.95	100	298.15	9.69e-07	3.938e-08
0.95	100	303.15	1.005e-06	4.084e-08
0.95	100	308.15	1.028e-06	4.178e-08
0.95	100	313.15	1.07e-06	4.353e-08
0.95	5000	293.15	8.91e-07	3.623e-08
0.95	5000	298.15	9.26e-07	3.764e-08
0.95	5000	303.15	9.61e-07	3.906e-08
0.95	5000	308.15	9.87e-07	4.012e-08
0.95	5000	313.15	1.032e-06	4.195e-08
0.95	10000	293.15	8.26e-07	3.356e-08
0.95	10000	298.15	8.59e-07	3.492e-08
0.95	10000	303.15	8.98e-07	3.651e-08
0.95	10000	308.15	9.38e-07	3.813e-08
0.95	10000	313.15	9.68e-07	3.935e-08
0.95	20000	293.15	7.72e-07	3.138e-08
0.95	20000	298.15	7.95e-07	3.23e-08
0.95	20000	303.15	8.03e-07	3.264e-08
0.95	20000	308.15	8.56e-07	3.479e-08
0.95	20000	313.15	8.66e-07	3.518e-08
0.95	30000	293.15	7.01e-07	2.848e-08
0.95	30000	298.15	7.12e-07	2.893e-08
0.95	30000	303.15	7.29e-07	2.966e-08
0.95	30000	308.15	7.93e-07	3.223e-08
0.95	30000	313.15	7.83e-07	3.181e-08
0.95	40000	293.15	6.34e-07	2.576e-08
0.95	40000	298.15	6.55e-07	2.662e-08
0.95	40000	303.15	6.74e-07	2.739e-08
0.95	40000	308.15	7.02e-07	2.853e-08
0.95	40000	313.15	7.2e-07	2.926e-08
1	100	293.15	8.67e-07	3.526e-08
1	100	298.15	9.1e-07	3.7e-08
1	100	303.15	9.43e-07	3.832e-08
1	100	308.15	9.68e-07	3.935e-08
1	100	313.15	1.014e-06	4.123e-08
1	5000	293.15	8.26e-07	3.358e-08
1	5000	298.15	8.63e-07	3.508e-08
1	5000	303.15	8.94e-07	3.633e-08
1	5000	308.15	9.21e-07	3.743e-08
1	5000	313.15	9.6e-07	3.903e-08
1	10000	293.15	7.89e-07	3.207e-08
1	10000	298.15	8.2e-07	3.333e-08
1	10000	303.15	8.49e-07	3.451e-08
1	10000	308.15	8.77e-07	3.565e-08
1	10000	313.15	9.11e-07	3.703e-08
1	20000	293.15	7.22e-07	2.934e-08
1	20000	298.15	7.46e-07	3.032e-08
1	20000	303.15	7.71e-07	3.134e-08
1	20000	308.15	8.02e-07	3.26e-08
1	20000	313.15	8.27e-07	3.361e-08
1	30000	293.15	6.66e-07	2.706e-08
1	30000	298.15	6.84e-07	2.78e-08
1	30000	303.15	7.07e-07	2.874e-08
1	30000	308.15	7.38e-07	2.999e-08
1	30000	313.15	7.57e-07	3.076e-08
1	40000	293.15	6.19e-07	2.515e-08
1	40000	298.15	6.31e-07	2.564e-08
1	40000	303.15	6.52e-07	2.651e-08
1	40000	308.15	6.84e-07	2.78e-08
1	40000	313.15	6.98e-07	2.836e-08

System: hexane + dimethyl carbonate; phases: Liquid
Property: Isobaric coefficient of expansion, 1/K (Liquid); method: Calculated from densities of this investigation
Mole fraction of dimethyl carbonate	Pressure, kPa	Temperature, K	Isobaric coefficient of expansion, 1/K	uncertainty
0	100	293.15	0.001368	3.4e-05
0	100	298.15	0.001405	3.4e-05
0	100	303.15	0.001425	3.5e-05
0	100	308.15	0.001452	3.6e-05
0	100	313.15	0.001468	3.6e-05
0	5000	293.15	0.001318	3.2e-05
0	5000	298.15	0.001353	3.3e-05
0	5000	303.15	0.001372	3.4e-05
0	5000	308.15	0.001398	3.4e-05
0	5000	313.15	0.001405	3.4e-05
0	10000	293.15	0.001254	3.1e-05
0	10000	298.15	0.001277	3.1e-05
0	10000	303.15	0.001286	3.2e-05
0	10000	308.15	0.001295	3.2e-05
0	10000	313.15	0.001306	3.2e-05
0	20000	293.15	0.001149	2.8e-05
0	20000	298.15	0.001171	2.9e-05
0	20000	303.15	0.001178	2.9e-05
0	20000	308.15	0.001187	2.9e-05
0	20000	313.15	0.001199	2.9e-05
0	30000	293.15	0.001077	2.6e-05
0	30000	298.15	0.001102	2.7e-05
0	30000	303.15	0.001107	2.7e-05
0	30000	308.15	0.001114	2.7e-05
0	30000	313.15	0.001125	2.8e-05
0	40000	293.15	0.001037	2.5e-05
0	40000	298.15	0.001047	2.6e-05
0	40000	303.15	0.001055	2.6e-05
0	40000	308.15	0.001061	2.6e-05
0	40000	313.15	0.001072	2.6e-05
0.1	100	293.15	0.001384	3.4e-05
0.1	100	298.15	0.001416	3.5e-05
0.1	100	303.15	0.001438	3.5e-05
0.1	100	308.15	0.001463	3.6e-05
0.1	100	313.15	0.001488	3.6e-05
0.1	5000	293.15	0.001331	3.3e-05
0.1	5000	298.15	0.001365	3.3e-05
0.1	5000	303.15	0.001383	3.4e-05
0.1	5000	308.15	0.001403	3.4e-05
0.1	5000	313.15	0.001419	3.5e-05
0.1	10000	293.15	0.001266	3.1e-05
0.1	10000	298.15	0.001283	3.1e-05
0.1	10000	303.15	0.001295	3.2e-05
0.1	10000	308.15	0.001308	3.2e-05
0.1	10000	313.15	0.001319	3.2e-05
0.1	20000	293.15	0.001165	2.9e-05
0.1	20000	298.15	0.001186	2.9e-05
0.1	20000	303.15	0.001193	2.9e-05
0.1	20000	308.15	0.001201	2.9e-05
0.1	20000	313.15	0.001217	3e-05
0.1	30000	293.15	0.001088	2.7e-05
0.1	30000	298.15	0.001115	2.7e-05
0.1	30000	303.15	0.001115	2.7e-05
0.1	30000	308.15	0.001123	2.8e-05
0.1	30000	313.15	0.001139	2.8e-05
0.1	40000	293.15	0.001043	2.6e-05
0.1	40000	298.15	0.001061	2.6e-05
0.1	40000	303.15	0.001062	2.6e-05
0.1	40000	308.15	0.001073	2.6e-05
0.1	40000	313.15	0.001084	2.7e-05
0.2	100	293.15	0.0014	3.4e-05
0.2	100	298.15	0.001429	3.5e-05
0.2	100	303.15	0.001445	3.5e-05
0.2	100	308.15	0.001473	3.6e-05
0.2	100	313.15	0.001504	3.7e-05
0.2	5000	293.15	0.001336	3.3e-05
0.2	5000	298.15	0.001369	3.4e-05
0.2	5000	303.15	0.001389	3.4e-05
0.2	5000	308.15	0.001414	3.5e-05
0.2	5000	313.15	0.001437	3.5e-05
0.2	10000	293.15	0.001273	3.1e-05
0.2	10000	298.15	0.001295	3.2e-05
0.2	10000	303.15	0.001309	3.2e-05
0.2	10000	308.15	0.001319	3.2e-05
0.2	10000	313.15	0.001335	3.3e-05
0.2	20000	293.15	0.001175	2.9e-05
0.2	20000	298.15	0.001196	2.9e-05
0.2	20000	303.15	0.001203	2.9e-05
0.2	20000	308.15	0.001215	3e-05
0.2	20000	313.15	0.001228	3e-05
0.2	30000	293.15	0.001096	2.7e-05
0.2	30000	298.15	0.001118	2.7e-05
0.2	30000	303.15	0.001122	2.7e-05
0.2	30000	308.15	0.001136	2.8e-05
0.2	30000	313.15	0.001154	2.8e-05
0.2	40000	293.15	0.001049	2.6e-05
0.2	40000	298.15	0.001062	2.6e-05
0.2	40000	303.15	0.001067	2.6e-05
0.2	40000	308.15	0.001081	2.6e-05
0.2	40000	313.15	0.001095	2.7e-05
0.3	100	293.15	0.001404	3.4e-05
0.3	100	298.15	0.001424	3.5e-05
0.3	100	303.15	0.001447	3.5e-05
0.3	100	308.15	0.001472	3.6e-05
0.3	100	313.15	0.001515	3.7e-05
0.3	5000	293.15	0.001338	3.3e-05
0.3	5000	298.15	0.001364	3.3e-05
0.3	5000	303.15	0.00139	3.4e-05
0.3	5000	308.15	0.001417	3.5e-05
0.3	5000	313.15	0.001451	3.6e-05
0.3	10000	293.15	0.001278	3.1e-05
0.3	10000	298.15	0.001296	3.2e-05
0.3	10000	303.15	0.001318	3.2e-05
0.3	10000	308.15	0.001333	3.3e-05
0.3	10000	313.15	0.001352	3.3e-05
0.3	20000	293.15	0.00118	2.9e-05
0.3	20000	298.15	0.0012	2.9e-05
0.3	20000	303.15	0.001211	3e-05
0.3	20000	308.15	0.001224	3e-05
0.3	20000	313.15	0.001235	3e-05
0.3	30000	293.15	0.001103	2.7e-05
0.3	30000	298.15	0.001121	2.7e-05
0.3	30000	303.15	0.001131	2.8e-05
0.3	30000	308.15	0.001145	2.8e-05
0.3	30000	313.15	0.001167	2.9e-05
0.3	40000	293.15	0.001058	2.6e-05
0.3	40000	298.15	0.001066	2.6e-05
0.3	40000	303.15	0.001073	2.6e-05
0.3	40000	308.15	0.001085	2.7e-05
0.3	40000	313.15	0.001098	2.7e-05
0.4	100	293.15	0.001391	3.4e-05
0.4	100	298.15	0.001414	3.5e-05
0.4	100	303.15	0.001443	3.5e-05
0.4	100	308.15	0.001461	3.6e-05
0.4	100	313.15	0.001511	3.7e-05
0.4	5000	293.15	0.00133	3.3e-05
0.4	5000	298.15	0.001354	3.3e-05
0.4	5000	303.15	0.001374	3.4e-05
0.4	5000	308.15	0.001405	3.4e-05
0.4	5000	313.15	0.001439	3.5e-05
0.4	10000	293.15	0.001278	3.1e-05
0.4	10000	298.15	0.001291	3.2e-05
0.4	10000	303.15	0.001313	3.2e-05
0.4	10000	308.15	0.001328	3.3e-05
0.4	10000	313.15	0.001349	3.3e-05
0.4	20000	293.15	0.001175	2.9e-05
0.4	20000	298.15	0.001194	2.9e-05
0.4	20000	303.15	0.001207	3e-05
0.4	20000	308.15	0.00122	3e-05
0.4	20000	313.15	0.001229	3e-05
0.4	30000	293.15	0.001097	2.7e-05
0.4	30000	298.15	0.001114	2.7e-05
0.4	30000	303.15	0.001125	2.8e-05
0.4	30000	308.15	0.001141	2.8e-05
0.4	30000	313.15	0.001164	2.9e-05
0.4	40000	293.15	0.001057	2.6e-05
0.4	40000	298.15	0.001063	2.6e-05
0.4	40000	303.15	0.001069	2.6e-05
0.4	40000	308.15	0.001079	2.6e-05
0.4	40000	313.15	0.001093	2.7e-05
0.5	100	293.15	0.001376	3.4e-05
0.5	100	298.15	0.001398	3.4e-05
0.5	100	303.15	0.001422	3.5e-05
0.5	100	308.15	0.001443	3.5e-05
0.5	100	313.15	0.001477	3.6e-05
0.5	5000	293.15	0.001318	3.2e-05
0.5	5000	298.15	0.001337	3.3e-05
0.5	5000	303.15	0.001352	3.3e-05
0.5	5000	308.15	0.001386	3.4e-05
0.5	5000	313.15	0.001418	3.5e-05
0.5	10000	293.15	0.001271	3.1e-05
0.5	10000	298.15	0.00127	3.1e-05
0.5	10000	303.15	0.001302	3.2e-05
0.5	10000	308.15	0.001318	3.2e-05
0.5	10000	313.15	0.001339	3.3e-05
0.5	20000	293.15	0.001172	2.9e-05
0.5	20000	298.15	0.001189	2.9e-05
0.5	20000	303.15	0.001201	2.9e-05
0.5	20000	308.15	0.001214	3e-05
0.5	20000	313.15	0.001223	3e-05
0.5	30000	293.15	0.001091	2.7e-05
0.5	30000	298.15	0.00111	2.7e-05
0.5	30000	303.15	0.001115	2.7e-05
0.5	30000	308.15	0.001137	2.8e-05
0.5	30000	313.15	0.00116	2.8e-05
0.5	40000	293.15	0.001056	2.6e-05
0.5	40000	298.15	0.001054	2.6e-05
0.5	40000	303.15	0.001068	2.6e-05
0.5	40000	308.15	0.001075	2.6e-05
0.5	40000	313.15	0.001089	2.7e-05
0.6	100	293.15	0.001357	3.3e-05
0.6	100	298.15	0.001378	3.4e-05
0.6	100	303.15	0.001399	3.4e-05
0.6	100	308.15	0.001417	3.5e-05
0.6	100	313.15	0.001443	3.5e-05
0.6	5000	293.15	0.001297	3.2e-05
0.6	5000	298.15	0.001317	3.2e-05
0.6	5000	303.15	0.001333	3.3e-05
0.6	5000	308.15	0.001366	3.3e-05
0.6	5000	313.15	0.001389	3.4e-05
0.6	10000	293.15	0.001249	3.1e-05
0.6	10000	298.15	0.001249	3.1e-05
0.6	10000	303.15	0.001286	3.2e-05
0.6	10000	308.15	0.001303	3.2e-05
0.6	10000	313.15	0.001328	3.3e-05
0.6	20000	293.15	0.001163	2.8e-05
0.6	20000	298.15	0.001175	2.9e-05
0.6	20000	303.15	0.001185	2.9e-05
0.6	20000	308.15	0.001203	2.9e-05
0.6	20000	313.15	0.001215	3e-05
0.6	30000	293.15	0.001086	2.7e-05
0.6	30000	298.15	0.001096	2.7e-05
0.6	30000	303.15	0.001109	2.7e-05
0.6	30000	308.15	0.00113	2.8e-05
0.6	30000	313.15	0.001153	2.8e-05
0.6	40000	293.15	0.001047	2.6e-05
0.6	40000	298.15	0.001049	2.6e-05
0.6	40000	303.15	0.001061	2.6e-05
0.6	40000	308.15	0.001071	2.6e-05
0.6	40000	313.15	0.001085	2.7e-05
0.7	100	293.15	0.001333	3.3e-05
0.7	100	298.15	0.001346	3.3e-05
0.7	100	303.15	0.001364	3.3e-05
0.7	100	308.15	0.001382	3.4e-05
0.7	100	313.15	0.001411	3.5e-05
0.7	5000	293.15	0.001275	3.1e-05
0.7	5000	298.15	0.001288	3.2e-05
0.7	5000	303.15	0.001307	3.2e-05
0.7	5000	308.15	0.001342	3.3e-05
0.7	5000	313.15	0.001355	3.3e-05
0.7	10000	293.15	0.001227	3e-05
0.7	10000	298.15	0.001235	3e-05
0.7	10000	303.15	0.001259	3.1e-05
0.7	10000	308.15	0.001282	3.1e-05
0.7	10000	313.15	0.001303	3.2e-05
0.7	20000	293.15	0.001154	2.8e-05
0.7	20000	298.15	0.001164	2.9e-05
0.7	20000	303.15	0.001175	2.9e-05
0.7	20000	308.15	0.001194	2.9e-05
0.7	20000	313.15	0.001206	3e-05
0.7	30000	293.15	0.001077	2.6e-05
0.7	30000	298.15	0.001087	2.7e-05
0.7	30000	303.15	0.001098	2.7e-05
0.7	30000	308.15	0.001126	2.8e-05
0.7	30000	313.15	0.001147	2.8e-05
0.7	40000	293.15	0.001041	2.6e-05
0.7	40000	298.15	0.001046	2.6e-05
0.7	40000	303.15	0.001055	2.6e-05
0.7	40000	308.15	0.001067	2.6e-05
0.7	40000	313.15	0.00108	2.6e-05
0.8	100	293.15	0.001303	3.2e-05
0.8	100	298.15	0.001318	3.2e-05
0.8	100	303.15	0.001336	3.3e-05
0.8	100	308.15	0.001353	3.3e-05
0.8	100	313.15	0.001374	3.4e-05
0.8	5000	293.15	0.001254	3.1e-05
0.8	5000	298.15	0.001262	3.1e-05
0.8	5000	303.15	0.001281	3.1e-05
0.8	5000	308.15	0.001313	3.2e-05
0.8	5000	313.15	0.001325	3.2e-05
0.8	10000	293.15	0.001206	3e-05
0.8	10000	298.15	0.001214	3e-05
0.8	10000	303.15	0.001237	3e-05
0.8	10000	308.15	0.001269	3.1e-05
0.8	10000	313.15	0.001281	3.1e-05
0.8	20000	293.15	0.001142	2.8e-05
0.8	20000	298.15	0.001158	2.8e-05
0.8	20000	303.15	0.001166	2.9e-05
0.8	20000	308.15	0.001182	2.9e-05
0.8	20000	313.15	0.001196	2.9e-05
0.8	30000	293.15	0.001069	2.6e-05
0.8	30000	298.15	0.001078	2.6e-05
0.8	30000	303.15	0.001095	2.7e-05
0.8	30000	308.15	0.001121	2.7e-05
0.8	30000	313.15	0.00114	2.8e-05
0.8	40000	293.15	0.001037	2.5e-05
0.8	40000	298.15	0.001044	2.6e-05
0.8	40000	303.15	0.001052	2.6e-05
0.8	40000	308.15	0.001062	2.6e-05
0.8	40000	313.15	0.001074	2.6e-05
0.9	100	293.15	0.001269	3.1e-05
0.9	100	298.15	0.001287	3.2e-05
0.9	100	303.15	0.001303	3.2e-05
0.9	100	308.15	0.001326	3.2e-05
0.9	100	313.15	0.001344	3.3e-05
0.9	5000	293.15	0.001224	3e-05
0.9	5000	298.15	0.001241	3e-05
0.9	5000	303.15	0.001262	3.1e-05
0.9	5000	308.15	0.001287	3.2e-05
0.9	5000	313.15	0.001295	3.2e-05
0.9	10000	293.15	0.001179	2.9e-05
0.9	10000	298.15	0.001196	2.9e-05
0.9	10000	303.15	0.001223	3e-05
0.9	10000	308.15	0.001246	3.1e-05
0.9	10000	313.15	0.001257	3.1e-05
0.9	20000	293.15	0.001131	2.8e-05
0.9	20000	298.15	0.001146	2.8e-05
0.9	20000	303.15	0.001152	2.8e-05
0.9	20000	308.15	0.001176	2.9e-05
0.9	20000	313.15	0.001187	2.9e-05
0.9	30000	293.15	0.001063	2.6e-05
0.9	30000	298.15	0.001079	2.6e-05
0.9	30000	303.15	0.001091	2.7e-05
0.9	30000	308.15	0.001115	2.7e-05
0.9	30000	313.15	0.001132	2.8e-05
0.9	40000	293.15	0.001036	2.5e-05
0.9	40000	298.15	0.001043	2.6e-05
0.9	40000	303.15	0.00105	2.6e-05
0.9	40000	308.15	0.001056	2.6e-05
0.9	40000	313.15	0.001068	2.6e-05
0.95	100	293.15	0.001248	3.1e-05
0.95	100	298.15	0.001266	3.1e-05
0.95	100	303.15	0.001287	3.2e-05
0.95	100	308.15	0.001305	3.2e-05
0.95	100	313.15	0.001324	3.2e-05
0.95	5000	293.15	0.001208	3e-05
0.95	5000	298.15	0.001232	3e-05
0.95	5000	303.15	0.001251	3.1e-05
0.95	5000	308.15	0.00127	3.1e-05
0.95	5000	313.15	0.001282	3.1e-05
0.95	10000	293.15	0.001165	2.9e-05
0.95	10000	298.15	0.001191	2.9e-05
0.95	10000	303.15	0.001214	3e-05
0.95	10000	308.15	0.001234	3e-05
0.95	10000	313.15	0.001244	3e-05
0.95	20000	293.15	0.001117	2.7e-05
0.95	20000	298.15	0.001133	2.8e-05
0.95	20000	303.15	0.001148	2.8e-05
0.95	20000	308.15	0.001172	2.9e-05
0.95	20000	313.15	0.001181	2.9e-05
0.95	30000	293.15	0.001061	2.6e-05
0.95	30000	298.15	0.001069	2.6e-05
0.95	30000	303.15	0.001088	2.7e-05
0.95	30000	308.15	0.001108	2.7e-05
0.95	30000	313.15	0.001126	2.8e-05
0.95	40000	293.15	0.001035	2.5e-05
0.95	40000	298.15	0.001042	2.6e-05
0.95	40000	303.15	0.001048	2.6e-05
0.95	40000	308.15	0.001052	2.6e-05
0.95	40000	313.15	0.001063	2.6e-05
1	100	293.15	0.001234	3e-05
1	100	298.15	0.001251	3.1e-05
1	100	303.15	0.001268	3.1e-05
1	100	308.15	0.001289	3.2e-05
1	100	313.15	0.001304	3.2e-05
1	5000	293.15	0.001196	2.9e-05
1	5000	298.15	0.001219	3e-05
1	5000	303.15	0.00124	3e-05
1	5000	308.15	0.001262	3.1e-05
1	5000	313.15	0.00127	3.1e-05
1	10000	293.15	0.00115	2.8e-05
1	10000	298.15	0.001179	2.9e-05
1	10000	303.15	0.001206	3e-05
1	10000	308.15	0.001224	3e-05
1	10000	313.15	0.001232	3e-05
1	20000	293.15	0.001113	2.7e-05
1	20000	298.15	0.001129	2.8e-05
1	20000	303.15	0.001145	2.8e-05
1	20000	308.15	0.001169	2.9e-05
1	20000	313.15	0.001177	2.9e-05
1	30000	293.15	0.00106	2.6e-05
1	30000	298.15	0.001071	2.6e-05
1	30000	303.15	0.001086	2.7e-05
1	30000	308.15	0.001105	2.7e-05
1	30000	313.15	0.001123	2.8e-05
1	40000	293.15	0.001035	2.5e-05
1	40000	298.15	0.001042	2.6e-05
1	40000	303.15	0.001047	2.6e-05
1	40000	308.15	0.00105	2.6e-05
1	40000	313.15	0.001061	2.6e-05
