Measured thermophysical data. Phase equilibrium properties of binary and ternary systems containing di-isopropyl ether + 1-butanol + benzene at 313.15 K
Source: J. Chem. Thermodyn., 2006, 10.1016/j.jct.2005.07.004
Compound 1: diisopropyl ether, C6H14O, InChI=1S/C6H14O/c1-5(2)7-6(3)4/h5-6H,1-4H3, purity 99%
Compound 2: benzene, C6H6, InChI=1S/C6H6/c1-2-4-6-5-3-1/h1-6H, purity 99.5%
Compound 3: butan-1-ol, C4H10O, InChI=1S/C4H10O/c1-2-3-4-5/h5H,2-4H2,1H3, purity 99.9%

System: diisopropyl ether; phases: Liquid, Gas
Fixed: Temperature, K = 313.15
Property: Vapor or sublimation pressure, kPa (Liquid); method: Closed cell (Static) method
Vapor or sublimation pressure, kPa	uncertainty
37.091	0.141
37.126	0.141
37.116	0.141

System: benzene; phases: Liquid, Gas
Fixed: Temperature, K = 313.15
Property: Vapor or sublimation pressure, kPa (Liquid); method: Closed cell (Static) method
Vapor or sublimation pressure, kPa	uncertainty
24.372	0.097
24.398	0.097
24.385	0.097
24.393	0.097

System: butan-1-ol; phases: Liquid, Gas
Fixed: Temperature, K = 313.15
Property: Vapor or sublimation pressure, kPa (Liquid); method: Closed cell (Static) method
Vapor or sublimation pressure, kPa	uncertainty
2.49	0.024
2.492	0.024
2.51	0.024
2.505	0.024

System: butan-1-ol + diisopropyl ether; phases: Liquid, Gas
Fixed: Temperature, K = 313.15
Property: Vapor or sublimation pressure, kPa (Liquid); method: Closed cell (Static) method
Mole fraction of diisopropyl ether	Vapor or sublimation pressure, kPa	uncertainty
0	2.49	0.024
0.0591	6.973	0.082
0.101	9.837	0.081
0.148	12.729	0.081
0.2012	15.573	0.084
0.2491	17.828	0.087
0.3005	19.943	0.091
0.3006	19.931	0.086
0.3503	21.756	0.095
0.3993	23.301	0.099
0.4003	23.361	0.099
0.4482	24.743	0.102
0.4487	24.74	0.102
0.498	26.029	0.106
0.4983	26.052	0.106
0.5486	27.238	0.109
0.549	27.257	0.11
0.5991	28.357	0.113
0.5993	28.343	0.113
0.6491	29.381	0.116
0.6992	30.395	0.119
0.6996	30.391	0.119
0.7494	31.369	0.123
0.7998	32.362	0.126
0.8504	33.396	0.13
0.9016	34.525	0.134
0.952	35.772	0.139
1	37.091	0.141

System: butan-1-ol + benzene; phases: Liquid, Gas
Fixed: Temperature, K = 313.15
Property: Vapor or sublimation pressure, kPa (Liquid); method: Closed cell (Static) method
Mole fraction of benzene	Vapor or sublimation pressure, kPa	uncertainty
0	2.492	0.024
0.059	6.418	0.072
0.108	9.176	0.07
0.151	11.265	0.069
0.198	13.232	0.071
0.2559	15.244	0.074
0.3023	16.58	0.076
0.3533	17.825	0.078
0.4027	18.835	0.081
0.4028	18.833	0.081
0.4501	19.658	0.082
0.4519	19.673	0.082
0.4997	20.383	0.084
0.5019	20.402	0.084
0.5497	21.004	0.087
0.5506	21.005	0.087
0.5999	21.548	0.088
0.6001	21.541	0.088
0.6497	22.034	0.09
0.7001	22.452	0.091
0.7502	22.831	0.092
0.801	23.176	0.093
0.8591	23.516	0.095
0.9108	23.834	0.096
0.9547	24.138	0.097
1	24.372	0.097

System: butan-1-ol + benzene; phases: Liquid, Gas
Fixed: Temperature, K = 313.15
Property: Vapor or sublimation pressure, kPa (Liquid); method: Closed cell (Static) method
Mole fraction of butan-1-ol	Vapor or sublimation pressure, kPa	uncertainty
0.3006	22.455	0.091
0.6922	16.79	0.077

System: benzene + diisopropyl ether; phases: Liquid, Gas
Fixed: Temperature, K = 313.15
Property: Vapor or sublimation pressure, kPa (Liquid); method: Closed cell (Static) method
Mole fraction of diisopropyl ether	Vapor or sublimation pressure, kPa	uncertainty
0	24.398	0.097
0.0504	25.442	0.103
0.1011	26.387	0.106
0.1498	27.221	0.108
0.1994	28.019	0.111
0.2497	28.77	0.113
0.2998	29.481	0.116
0.3032	29.508	0.116
0.35	30.155	0.118
0.3992	30.785	0.12
0.3992	30.794	0.12
0.4489	31.4	0.121
0.4501	31.405	0.121
0.4991	31.988	0.123
0.5003	31.995	0.123
0.549	32.563	0.126
0.5499	32.565	0.126
0.5986	33.113	0.127
0.6005	33.127	0.127
0.6485	33.642	0.129
0.6991	34.184	0.131
0.7	34.197	0.131
0.7493	34.698	0.133
0.7978	35.174	0.134
0.8508	35.707	0.136
0.9078	36.253	0.138
0.964	36.79	0.14
0.9999	37.131	0.141
1	37.126	0.141

System: butan-1-ol + benzene + diisopropyl ether; phases: Liquid, Gas
Fixed: Temperature, K = 313.15
Property: Vapor or sublimation pressure, kPa (Liquid); method: Closed cell (Static) method
Mole fraction of diisopropyl ether	Mole fraction of butan-1-ol	Vapor or sublimation pressure, kPa	uncertainty
0	0	24.385	0.097
0	0.3006	22.455	0.091
0	0.6922	16.79	0.077
0	1	2.51	0.024
0.0001	0	24.393	0.097
0.0001	1	2.505	0.024
0.0328	0.6695	17.568	0.137
0.0336	0.2905	22.978	0.11
0.0516	0.2851	23.261	0.095
0.0569	0.6528	18.184	0.085
0.1044	0.6199	19.391	0.083
0.1139	0.2663	24.236	0.098
0.1489	0.2558	24.78	0.1
0.1516	0.5003	22.057	0.092
0.1548	0.5849	20.676	0.087
0.1648	0.3829	23.72	0.096
0.1666	0.4505	22.933	0.095
0.1806	0.4195	23.483	0.096
0.182	0.4	23.733	0.097
0.1945	0.4518	23.239	0.095
0.1972	0.3498	24.469	0.099
0.1988	0.5544	21.774	0.09
0.1999	0.2404	25.565	0.103
0.2106	0.4895	22.908	0.094
0.2123	0.3	25.15	0.101
0.224	0.5206	22.588	0.094
0.2274	0.2502	25.802	0.103
0.2406	0.5594	22.13	0.092
0.2425	0.2003	26.44	0.105
0.2485	0.52	22.932	0.095
0.2517	0.2249	26.352	0.105
0.2557	0.5945	21.66	0.091
0.2578	0.1497	27.096	0.108
0.2707	0.6296	21.128	0.09
0.2729	0.0999	27.786	0.11
0.2855	0.6643	20.551	0.088
0.2881	0.0497	28.576	0.117
0.2904	0.6754	20.358	0.087
0.2953	0.0259	29.023	0.114
0.298	0.4857	24.025	0.098
0.2991	0.2106	27.045	0.108
0.3006	0.6994	19.931	0.086
0.3032	0	29.508	0.116
0.348	0.4511	25.073	0.101
0.3491	0.1955	27.775	0.11
0.3497	0.5004	24.369	0.099
0.35	0.1505	28.211	0.111
0.3846	0.1654	28.464	0.112
0.3847	0.4505	25.462	0.102
0.3962	0.1814	28.452	0.112
0.3987	0.416	26.083	0.104
0.4198	0.1805	28.71	0.113
0.4198	0.4003	26.474	0.106
0.4497	0.1653	29.215	0.115
0.4503	0.3803	27.063	0.108
0.4545	0.3507	27.404	0.109
0.4547	0.1956	28.949	0.114
0.4893	0.2105	29.178	0.115
0.4897	0.3004	28.305	0.112
0.4985	0.3469	27.941	0.11
0.4999	0.1502	29.925	0.117
0.5237	0.2518	29.148	0.114
0.5247	0.2257	29.394	0.115
0.5594	0.2407	29.606	0.116
0.5598	0.2003	30.032	0.118
0.5951	0.256	29.817	0.117
0.5954	0.1494	30.939	0.121
0.6308	0.0989	31.907	0.124
0.631	0.2715	30.022	0.117
0.6643	0.2859	30.205	0.118
0.6653	0.0496	32.963	0.128
0.6818	0.2934	30.29	0.118
0.6832	0.024	33.577	0.129
0.6992	0.3008	30.395	0.119
0.7	0	34.197	0.131
0.9999	0	37.131	0.141
1	0	37.116	0.141
