Measured thermophysical data. Thermodynamic studies of some non-electrolytes in aqueous solutions at low temperatures
Source: J. Chem. Thermodyn., 2008, 10.1016/j.jct.2007.06.007
Compound 1: ethane-1,2-diamine, C2H8N2, InChI=1S/C2H8N2/c3-1-2-4/h1-4H2
Compound 2: water, H2O, InChI=1S/H2O/h1H2
Compound 3: dimethyl sulfoxide, C2H6OS, InChI=1S/C2H6OS/c1-4(2)3/h1-2H3

System: ethane-1,2-diamine + water; phases: Liquid
Fixed: Pressure, kPa = 101
Fixed: Temperature, K = 275.15
Property: Molar heat capacity at constant pressure, J/K/mol (Liquid); method: Large sample (1 g) DSC
Mole fraction of ethane-1,2-diamine	Molar heat capacity at constant pressure, J/K/mol	uncertainty
0.0073	75.0306	4.6173
0.03	72.5615	4.4724
0.0565	73.741	4.5476
0.0955	76.9876	4.7374
0.3055	99.4685	6.1435
0.496	120.865	7.4666
0.732	147.29	9.0805

System: ethane-1,2-diamine + water; phases: Liquid
Fixed: Pressure, kPa = 101
Property: Speed of sound, m/s (Liquid); method: FPINT:UFactor:32
Temperature, K	Mole fraction of ethane-1,2-diamine	Speed of sound, m/s	uncertainty
275.15	0	1415	22.5
275.15	0.0073	1442	22.9
275.15	0.03	1538	24.1
275.15	0.0565	1621	25.1
275.15	0.0955	1754	26.7
275.15	0.3055	2057	32.6
275.15	0.496	1982	29.7
275.15	0.732	1869.6	28.4
277.15	0	1424.6	22.6
277.15	0.0073	1451	23
277.15	0.03	1536	24
277.15	0.0565	1626.4	25.1
277.15	0.0955	1756.4	26.8
277.15	0.3055	2048.6	30.4
277.15	0.496	1967	29.5
277.15	0.732	1874	28.5
279.15	0	1430.4	22.7
279.15	0.0073	1458.6	23.1
279.15	0.03	1550.4	24.2
279.15	0.0565	1630	25.2
279.15	0.0955	1756.6	26.8
279.15	0.3055	2038.6	30.3
279.15	0.496	1970	29.5
279.15	0.732	1860	28.3
281.15	0	1441.6	22.9
281.15	0.0073	1467	23.2
281.15	0.03	1554	24.2
281.15	0.0565	1635.6	25.3
281.15	0.0955	1755.4	26.8
281.15	0.3055	2031	30.2
281.15	0.496	1957	29.4
281.15	0.732	1853	28.2
283.15	0	1448	22.9
283.15	0.0073	1473	23.2
283.15	0.03	1557	24.3
283.15	0.0565	1630.6	25.2
283.15	0.0955	1751	26.7
283.15	0.3055	2020.4	32.5
283.15	0.496	1939.4	29.2
283.15	0.732	1840	28.1

System: ethane-1,2-diamine + water; phases: Liquid
Fixed: Pressure, kPa = 101
Property: Mass density, kg/m3 (Liquid); method: Pycnometric method
Temperature, K	Mole fraction of ethane-1,2-diamine	Mass density, kg/m3	uncertainty
275.15	0	999.9	0.6
275.15	0.0073	999.5	0.6
275.15	0.03	998.5	0.8
275.15	0.0565	1000	0.8
275.15	0.0955	1002.5	0.9
275.15	0.3055	1008.7	3.9
275.15	0.496	981.8	2.7
275.15	0.732	947.7	4.2
277.15	0	1000	1
277.15	0.0073	999.5	0.6
277.15	0.03	998.3	0.7
277.15	0.0565	999.5	0.8
277.15	0.0955	1001.9	0.9
277.15	0.3055	1007.4	1.8
277.15	0.496	980.3	2.7
277.15	0.732	945.6	4.1
279.15	0	999.9	0.6
279.15	0.0073	999.4	0.6
279.15	0.03	998.2	0.7
279.15	0.0565	999	0.8
279.15	0.0955	1001.2	0.9
279.15	0.3055	1005.5	1.8
279.15	0.496	977.8	2.7
279.15	0.732	943.4	4.1
281.15	0	999.9	0.6
281.15	0.0073	999.2	0.6
281.15	0.03	997.9	0.7
281.15	0.0565	998.4	0.8
281.15	0.0955	1000.5	0.9
281.15	0.3055	1004	1.7
281.15	0.496	976.1	2.6
281.15	0.732	941	4.1
283.15	0	999.7	0.6
283.15	0.0073	999	0.6
283.15	0.03	996.7	0.6
283.15	0.0565	997.8	0.7
283.15	0.0955	999.8	0.9
283.15	0.3055	1002.1	4.6
283.15	0.496	974.6	2.7
283.15	0.732	938.8	4.1

System: dimethyl sulfoxide + water; phases: Liquid
Fixed: Pressure, kPa = 101
Fixed: Temperature, K = 275.15
Property: Molar heat capacity at constant pressure, J/K/mol (Liquid); method: Large sample (1 g) DSC
Mole fraction of dimethyl sulfoxide	Molar heat capacity at constant pressure, J/K/mol	uncertainty
0.0506	78.2279	4.8221
0.1011	86.8564	5.3487
0.2003	100.872	6.2218
0.3011	106.004	6.5372
0.3984	103.112	6.337
0.4868	109.787	6.7612
0.6967	131.481	8.0865

System: dimethyl sulfoxide + water; phases: Liquid
Fixed: Pressure, kPa = 101
Property: Speed of sound, m/s (Liquid); method: FPINT:UFactor:32
Temperature, K	Mole fraction of dimethyl sulfoxide	Speed of sound, m/s	uncertainty
275.15	0	1415	22.5
275.15	0.0506	1555.4	24.3
275.15	0.1011	1661	25.7
275.15	0.2003	1754	26.8
275.15	0.3011	1771	27
275.15	0.3984	1743	26.7
275.15	0.4868	1701.6	26.2
275.15	0.6967	1631	25.5
277.15	0	1424.6	22.6
277.15	0.0506	1554.4	24.3
277.15	0.1011	1662.4	25.6
277.15	0.2003	1748	26.7
277.15	0.3011	1758.6	26.9
277.15	0.3984	1726	26.5
277.15	0.4868	1699	26.2
277.15	0.6967	1629.6	25.4
279.15	0	1430.4	22.7
279.15	0.0506	1556.4	24.3
279.15	0.1011	1662.4	25.6
279.15	0.2003	1748	26.7
279.15	0.3011	1759	26.8
279.15	0.3984	1722	26.4
279.15	0.4868	1692	26.1
279.15	0.6967	1620	25.3
281.15	0	1441.6	22.9
281.15	0.0506	1573.4	24.5
281.15	0.1011	1661.6	25.6
281.15	0.2003	1749.6	26.7
281.15	0.3011	1753.4	26.8
281.15	0.3984	1724.4	26.5
281.15	0.4868	1678.8	25.9
281.15	0.6967	1609	25.2
283.15	0	1448	22.9
283.15	0.0506	1567.4	24.5
283.15	0.1011	1659.4	25.7
283.15	0.2003	1735.4	26.8
283.15	0.3011	1740.4	26.7
283.15	0.3984	1717	26.4
283.15	0.4868	1681.4	26
283.15	0.6967	1606.4	25.2

System: dimethyl sulfoxide + water; phases: Liquid
Fixed: Pressure, kPa = 101
Property: Mass density, kg/m3 (Liquid); method: Pycnometric method
Temperature, K	Mole fraction of dimethyl sulfoxide	Mass density, kg/m3	uncertainty
275.15	0	999.9	0.6
275.15	0.0506	1028.9	0.8
275.15	0.1011	1053.6	1.3
275.15	0.2003	1087.7	2.1
275.15	0.3011	1106.3	2.5
275.15	0.3984	1158.3	2.7
275.15	0.4868	1119	3.4
275.15	0.6967	1120.4	5.3
277.15	0	1000	1
277.15	0.0506	1028.4	0.8
277.15	0.1011	1052.8	1
277.15	0.2003	1086.8	1.5
277.15	0.3011	1105.1	2
277.15	0.3984	1113.7	2.7
277.15	0.4868	1116.8	3.3
277.15	0.6967	1119	5.3
279.15	0	999.9	0.6
279.15	0.0506	1027.8	0.8
279.15	0.1011	1051.5	1
279.15	0.2003	1085.1	1.5
279.15	0.3011	1103.5	2
279.15	0.3984	1111.9	2.6
279.15	0.4868	1115.6	3.3
279.15	0.6967	1116.6	5.3
281.15	0	999.9	0.6
281.15	0.0506	1027.1	0.8
281.15	0.1011	1050.7	1
281.15	0.2003	1084	1.4
281.15	0.3011	1102.3	2
281.15	0.3984	1110.6	2.6
281.15	0.4868	1112.6	3.3
281.15	0.6967	1115.3	5.2
283.15	0	999.7	0.6
283.15	0.0506	1026.5	0.9
283.15	0.1011	1050	1.6
283.15	0.2003	1082.4	2.6
283.15	0.3011	1101	2.6
283.15	0.3984	1108.6	2.8
283.15	0.4868	1111.1	3.3
283.15	0.6967	1113	5.2
