Measured thermophysical data. Estimation and confirmation of the thermodynamic stability relationships of the enantiotropic polymorphs of glycolide
Source: J. Chem. Thermodyn., 2018, 10.1016/j.jct.2017.10.011
Compound 1: 1,4-dioxane-2,5-dione, C4H4O4, InChI=1S/C4H4O4/c5-3-1-7-4(6)2-8-3/h1-2H2, purity 98%
Compound 2: ethyl acetate, C4H8O2, InChI=1S/C4H8O2/c1-3-6-4(2)5/h3H2,1-2H3, purity 99.5%
Compound 3: propan-1-ol, C3H8O, InChI=1S/C3H8O/c1-2-3-4/h4H,2-3H2,1H3, purity 99.8%
Compound 4: propan-2-ol, C3H8O, InChI=1S/C3H8O/c1-3(2)4/h3-4H,1-2H3, purity 99.7%
Compound 5: ethanol, C2H6O, InChI=1S/C2H6O/c1-2-3/h3H,2H2,1H3, purity 99.7%
Compound 6: butan-1-ol, C4H10O, InChI=1S/C4H10O/c1-2-3-4-5/h5H,2-4H2,1H3, purity 99.5%

System: 1,4-dioxane-2,5-dione; phases: Crystal 2, Crystal 1, Air at 1 atmosphere
Property: Triple point temperature, K (Crystal 2); method: DSC
Triple point temperature, K	uncertainty
317.51	2.12

System: 1,4-dioxane-2,5-dione; phases: Crystal 2, Crystal 1, Air at 1 atmosphere
Property: Molar enthalpy of transition or fusion, kJ/mol (Crystal 2); method: DSC
Molar enthalpy of transition or fusion, kJ/mol	uncertainty
1.764	0.206

System: ethyl acetate + 1,4-dioxane-2,5-dione; phases: Liquid, Crystal 2
Property: Mole fraction of 1,4-dioxane-2,5-dione (Liquid); method: Gravimetric method
Temperature, K	Pressure, kPa	Mole fraction of 1,4-dioxane-2,5-dione	uncertainty
310.15	100	0.124	0.012

System: propan-1-ol + 1,4-dioxane-2,5-dione; phases: Liquid, Crystal 2
Property: Mole fraction of 1,4-dioxane-2,5-dione (Liquid); method: Gravimetric method
Temperature, K	Pressure, kPa	Mole fraction of 1,4-dioxane-2,5-dione	uncertainty
310.15	100	0.00731	0.00073

System: propan-2-ol + 1,4-dioxane-2,5-dione; phases: Liquid, Crystal 2
Property: Mole fraction of 1,4-dioxane-2,5-dione (Liquid); method: Gravimetric method
Temperature, K	Pressure, kPa	Mole fraction of 1,4-dioxane-2,5-dione	uncertainty
310.15	100	0.00792	0.00079

System: ethanol + 1,4-dioxane-2,5-dione; phases: Liquid, Crystal 2
Property: Mole fraction of 1,4-dioxane-2,5-dione (Liquid); method: Gravimetric method
Temperature, K	Pressure, kPa	Mole fraction of 1,4-dioxane-2,5-dione	uncertainty
310.15	100	0.013	0.0013

System: butan-1-ol + 1,4-dioxane-2,5-dione; phases: Liquid, Crystal 2
Property: Mole fraction of 1,4-dioxane-2,5-dione (Liquid); method: Gravimetric method
Temperature, K	Pressure, kPa	Mole fraction of 1,4-dioxane-2,5-dione	uncertainty
310.15	100	0.00608	0.00061
