Measured thermophysical data. Experimental and topological determination of the pressure-temperature phase diagram of morniflumate, a pharmaceutical ingredient with anti-inflammatory properties
Source: J. Chem. Thermodyn., 2017, 10.1016/j.jct.2017.05.022
Compound 1: 2-morpholinoethyl 2-((3-(trifluoromethyl)phenyl)amino)nicotinate, C19H20F3N3O3, InChI=1S/C19H20F3N3O3/c20-19(21,22)14-3-1-4-15(13-14)24-17-16(5-2-6-23-17)18(26)28-12-9-25-7-10-27-11-8-25/h1-6,13H,7-12H2,(H,23,24), purity 99%

System: 2-morpholinoethyl 2-((3-(trifluoromethyl)phenyl)amino)nicotinate; phases: Crystal, Liquid, Air at 1 atmosphere
Property: Normal melting temperature, K (Crystal); method: DTA
Normal melting temperature, K	uncertainty
348.1	0.9

System: 2-morpholinoethyl 2-((3-(trifluoromethyl)phenyl)amino)nicotinate; phases: Crystal, Liquid, Air at 1 atmosphere
Property: Molar enthalpy of transition or fusion, kJ/mol (Crystal); method: DSC
Molar enthalpy of transition or fusion, kJ/mol	uncertainty
35.34659022624	1.46289019952

System: 2-morpholinoethyl 2-((3-(trifluoromethyl)phenyl)amino)nicotinate; phases: Glass, Liquid, Air at 1 atmosphere
Property: Triple point temperature, K (Glass); method: DSC
Triple point temperature, K	uncertainty
249.4	1.2

System: 2-morpholinoethyl 2-((3-(trifluoromethyl)phenyl)amino)nicotinate; phases: Crystal, Liquid
Property: Solid-liquid equilibrium temperature, K (Crystal); method: DTA
Pressure, kPa	Solid-liquid equilibrium temperature, K	uncertainty
100	348.1	0.8
32000	358.5	3.1
58000	366.9	3.1
79000	374.5	3.1
115000	382.7	3.1
140000	390.7	3.1
155000	396	3.1
201000	403.7	3.1
244000	421.5	3.1

System: 2-morpholinoethyl 2-((3-(trifluoromethyl)phenyl)amino)nicotinate; phases: Crystal
Fixed: Pressure, kPa = 101.325
Property: Specific volume, m3/kg (Crystal); method: X-ray diffraction
Temperature, K	Specific volume, m3/kg	uncertainty
100	0.0006857	1.05e-06
150	0.00069118	1.06e-06
200	0.00069682	1.06e-06
320	0.00071445	1.08e-06
330	0.00071558	1.08e-06
335	0.00071705	1.08e-06
340	0.00071766	1.09e-06
125	0.0006872	1.05e-06
175	0.00069301	1.06e-06
225	0.00069955	1.06e-06
250	0.00070353	1.07e-06
273	0.0007063	1.07e-06
298.2	0.00071154	1.08e-06
315	0.00071346	1.08e-06
325	0.00071471	1.08e-06
332	0.00071657	1.09e-06
337	0.00071711	1.08e-06
342	0.0007184	1.08e-06
347	0.0007192	1.08e-06

System: 2-morpholinoethyl 2-((3-(trifluoromethyl)phenyl)amino)nicotinate; phases: Liquid
Fixed: Pressure, kPa = 101.325
Property: Mass density, kg/m3 (Liquid); method: Vibrating tube method
Temperature, K	Mass density, kg/m3	uncertainty
362.65	1227.4	0.4
360.15	1229.7	0.4
357.65	1231.9	0.4
355.16	1234.2	0.4
352.65	1236.4	0.4
350.15	1238.7	0.4
347.65	1240.9	0.4
345.15	1243.2	0.4
342.65	1245.4	0.5
340.15	1247.7	0.5
337.65	1249.9	0.5
335.15	1252.2	0.5
333.15	1254	0.5
330.65	1256.2	0.5
328.15	1258.4	0.5
325.65	1260.6	0.5
323.15	1262.9	0.5
