Measured thermophysical data. High pressure densities and derived thermodynamic properties for the (n-heptane + n-octane + ethanol) ternary system
Source: J. Chem. Thermodyn., 2017, 10.1016/j.jct.2016.11.005
Compound 1: heptane, C7H16, InChI=1S/C7H16/c1-3-5-7-6-4-2/h3-7H2,1-2H3, purity 99%
Compound 2: octane, C8H18, InChI=1S/C8H18/c1-3-5-7-8-6-4-2/h3-8H2,1-2H3, purity 99%
Compound 3: ethanol, C2H6O, InChI=1S/C2H6O/c1-2-3/h3H,2H2,1H3, purity 99.9%

System: ethanol + octane + heptane; phases: Liquid
Property: Mass density, kg/m3 (Liquid); method: Vibrating tube method
Mole fraction of heptane	Mole fraction of octane	Temperature, K	Pressure, kPa	Mass density, kg/m3	uncertainty
0.0401	0.7999	293.15	100	705.78	1.71
0.0401	0.7999	293.15	1000	706.54	1.71
0.0401	0.7999	293.15	5000	709.85	1.72
0.0401	0.7999	293.15	10000	713.83	1.73
0.0401	0.7999	293.15	15000	717.64	1.74
0.0401	0.7999	293.15	20000	721.28	1.75
0.0401	0.7999	293.15	25000	724.74	1.76
0.0401	0.7999	293.15	30000	728.03	1.77
0.0401	0.7999	293.15	35000	731.15	1.78
0.0401	0.7999	293.15	40000	734.1	1.8
0.0401	0.7999	303.15	100	697.42	1.71
0.0401	0.7999	303.15	1000	698.24	1.71
0.0401	0.7999	303.15	5000	701.78	1.72
0.0401	0.7999	303.15	10000	706.03	1.73
0.0401	0.7999	303.15	15000	710.08	1.74
0.0401	0.7999	303.15	20000	713.94	1.75
0.0401	0.7999	303.15	25000	717.6	1.8
0.0401	0.7999	303.15	30000	721.06	1.77
0.0401	0.7999	303.15	35000	724.33	1.78
0.0401	0.7999	303.15	40000	727.39	1.8
0.0401	0.7999	313.15	100	688.89	1.71
0.0401	0.7999	313.15	1000	689.76	1.71
0.0401	0.7999	313.15	5000	693.56	1.72
0.0401	0.7999	313.15	10000	698.1	1.7
0.0401	0.7999	313.15	15000	702.41	1.74
0.0401	0.7999	313.15	20000	706.51	1.75
0.0401	0.7999	313.15	25000	710.38	1.76
0.0401	0.7999	313.15	30000	714.03	1.77
0.0401	0.7999	313.15	35000	717.45	1.79
0.0401	0.7999	313.15	40000	720.66	1.8
0.0401	0.7999	323.15	100	680.13	1.71
0.0401	0.7999	323.15	1000	681.11	1.71
0.0401	0.7999	323.15	5000	685.28	1.72
0.0401	0.7999	323.15	10000	690.17	1.73
0.0401	0.7999	323.15	15000	694.73	1.74
0.0401	0.7999	323.15	20000	699.01	1.75
0.0401	0.7999	323.15	25000	703.03	1.76
0.0401	0.7999	323.15	30000	706.85	1.77
0.0401	0.7999	323.15	35000	710.48	1.79
0.0401	0.7999	323.15	40000	713.99	1.8
0.0401	0.7999	333.15	100	671.31	1.71
0.0401	0.7999	333.15	1000	672.33	1.71
0.0401	0.7999	333.15	5000	676.73	1.72
0.0401	0.7999	333.15	10000	681.96	1.73
0.0401	0.7999	333.15	15000	686.88	1.74
0.0401	0.7999	333.15	20000	691.5	1.8
0.0401	0.7999	333.15	25000	695.8	1.8
0.0401	0.7999	333.15	30000	699.8	1.8
0.0401	0.7999	333.15	35000	703.5	1.8
0.0401	0.7999	333.15	40000	706.89	1.81
0.0401	0.7999	353.15	1000	654.14	1.72
0.0401	0.7999	353.15	5000	659.21	1.72
0.0401	0.7999	353.15	10000	665.22	1.73
0.0401	0.7999	353.15	15000	670.85	1.74
0.0401	0.7999	353.15	20000	676.11	1.75
0.0401	0.7999	353.15	25000	681	1.8
0.0401	0.7999	353.15	30000	685.52	1.78
0.0401	0.7999	353.15	35000	689.66	1.8
0.0401	0.7999	353.15	40000	693.43	1.81
0.0401	0.7999	373.15	1000	635.23	2.71
0.0401	0.7999	373.15	5000	641.14	2.71
0.0401	0.7999	373.15	10000	648.09	2.72
0.0401	0.7999	373.15	15000	654.58	2.73
0.0401	0.7999	373.15	20000	660.58	2.74
0.0401	0.7999	373.15	25000	666.11	2.75
0.0401	0.7999	373.15	30000	671.16	2.76
0.0401	0.7999	373.15	35000	675.74	2.77
0.0401	0.7999	373.15	40000	679.84	2.78
0.08	0.6	293.15	100	710.84	1.71
0.08	0.6	293.15	1000	711.61	1.71
0.08	0.6	293.15	5000	714.97	1.72
0.08	0.6	293.15	10000	719.01	1.72
0.08	0.6	293.15	15000	722.87	1.73
0.08	0.6	293.15	20000	726.55	1.74
0.08	0.6	293.15	25000	730.06	1.75
0.08	0.6	293.15	30000	733.39	1.76
0.08	0.6	293.15	35000	736.54	1.77
0.08	0.6	293.15	40000	739.52	1.78
0.08	0.6	303.15	100	702.33	1.71
0.08	0.6	303.15	1000	703.16	1.71
0.08	0.6	303.15	5000	706.74	1.72
0.08	0.6	303.15	10000	711.04	1.72
0.08	0.6	303.15	15000	715.15	1.73
0.08	0.6	303.15	20000	719.05	1.74
0.08	0.6	303.15	25000	722.76	1.75
0.08	0.6	303.15	30000	726.27	1.76
0.08	0.6	303.15	35000	729.58	1.77
0.08	0.6	303.15	40000	732.7	1.8
0.08	0.6	313.15	100	693.65	1.71
0.08	0.6	313.15	1000	694.53	1.71
0.08	0.6	313.15	5000	698.37	1.72
0.08	0.6	313.15	10000	702.97	1.72
0.08	0.6	313.15	15000	707.34	1.73
0.08	0.6	313.15	20000	711.49	1.74
0.08	0.6	313.15	25000	715.41	1.75
0.08	0.6	313.15	30000	719.1	1.8
0.08	0.6	313.15	35000	722.57	1.78
0.08	0.6	313.15	40000	725.81	1.79
0.08	0.6	323.15	100	684.72	1.71
0.08	0.6	323.15	1000	685.68	1.71
0.08	0.6	323.15	5000	689.8	1.7
0.08	0.6	323.15	10000	694.73	1.72
0.08	0.6	323.15	15000	699.4	1.7
0.08	0.6	323.15	20000	703.81	1.74
0.08	0.6	323.15	25000	707.97	1.76
0.08	0.6	323.15	30000	711.87	1.77
0.08	0.6	323.15	35000	715.51	1.78
0.08	0.6	323.15	40000	718.9	1.8
0.08	0.6	333.15	100	675.63	1.71
0.08	0.6	333.15	1000	676.66	1.71
0.08	0.6	333.15	5000	681.1	1.7
0.08	0.6	333.15	10000	686.39	1.73
0.08	0.6	333.15	15000	691.38	1.74
0.08	0.6	333.15	20000	696.08	1.75
0.08	0.6	333.15	25000	700.49	1.76
0.08	0.6	333.15	30000	704.6	1.8
0.08	0.6	333.15	35000	708.41	1.78
0.08	0.6	333.15	40000	711.94	1.8
0.08	0.6	353.15	1000	657.79	1.71
0.08	0.6	353.15	5000	662.97	1.72
0.08	0.6	353.15	10000	669.1	1.7
0.08	0.6	353.15	15000	674.84	1.74
0.08	0.6	353.15	20000	680.2	1.8
0.08	0.6	353.15	25000	685.18	1.76
0.08	0.6	353.15	30000	689.78	1.78
0.08	0.6	353.15	35000	693.98	1.79
0.08	0.6	353.15	40000	697.81	1.81
0.08	0.6	373.15	1000	637.8	2.7
0.08	0.6	373.15	5000	643.91	2.71
0.08	0.6	373.15	10000	651.09	2.72
0.08	0.6	373.15	15000	657.77	2.73
0.08	0.6	373.15	20000	663.94	2.73
0.08	0.6	373.15	25000	669.6	2.7
0.08	0.6	373.15	30000	674.75	2.75
0.08	0.6	373.15	35000	679.39	2.76
0.08	0.6	373.15	40000	683.52	2.77
0.12	0.4	293.15	100	718.63	1.71
0.12	0.4	293.15	1000	719.42	1.71
0.12	0.4	293.15	5000	722.83	1.71
0.12	0.4	293.15	10000	726.92	1.72
0.12	0.4	293.15	15000	730.84	1.73
0.12	0.4	293.15	20000	734.58	1.73
0.12	0.4	293.15	25000	738.14	1.74
0.12	0.4	293.15	30000	741.52	1.75
0.12	0.4	293.15	35000	744.72	1.76
0.12	0.4	293.15	40000	747.74	1.77
0.12	0.4	303.15	100	709.9	1.7
0.12	0.4	303.15	1000	710.74	1.71
0.12	0.4	303.15	5000	714.4	1.7
0.12	0.4	303.15	10000	718.78	1.72
0.12	0.4	303.15	15000	722.96	1.73
0.12	0.4	303.15	20000	726.92	1.74
0.12	0.4	303.15	25000	730.69	1.75
0.12	0.4	303.15	30000	734.24	1.76
0.12	0.4	303.15	35000	737.59	1.77
0.12	0.4	303.15	40000	740.73	1.78
0.12	0.4	313.15	100	701.14	1.71
0.12	0.4	313.15	1000	702.04	1.71
0.12	0.4	313.15	5000	705.93	1.71
0.12	0.4	313.15	10000	710.6	1.7
0.12	0.4	313.15	15000	715.03	1.73
0.12	0.4	313.15	20000	719.24	1.74
0.12	0.4	313.15	25000	723.21	1.75
0.12	0.4	313.15	30000	726.95	1.76
0.12	0.4	313.15	35000	730.46	1.77
0.12	0.4	313.15	40000	733.75	1.78
0.12	0.4	323.15	100	692.09	1.71
0.12	0.4	323.15	1000	693.06	1.71
0.12	0.4	323.15	5000	697.24	1.71
0.12	0.4	323.15	10000	702.23	1.72
0.12	0.4	323.15	15000	706.96	1.73
0.12	0.4	323.15	20000	711.43	1.74
0.12	0.4	323.15	25000	715.64	1.75
0.12	0.4	323.15	30000	719.59	1.76
0.12	0.4	323.15	35000	723.27	1.77
0.12	0.4	323.15	40000	726.69	1.78
0.12	0.4	333.15	100	682.82	1.71
0.12	0.4	333.15	1000	683.85	1.71
0.12	0.4	333.15	5000	688.34	1.72
0.12	0.4	333.15	10000	693.69	1.72
0.12	0.4	333.15	15000	698.74	1.73
0.12	0.4	333.15	20000	703.5	1.7
0.12	0.4	333.15	25000	707.97	1.75
0.12	0.4	333.15	30000	712.15	1.76
0.12	0.4	333.15	35000	716.03	1.78
0.12	0.4	333.15	40000	719.62	1.79
0.12	0.4	353.15	1000	664.29	1.71
0.12	0.4	353.15	5000	669.51	1.72
0.12	0.4	353.15	10000	675.71	1.72
0.12	0.4	353.15	15000	681.52	1.73
0.12	0.4	353.15	20000	686.96	1.74
0.12	0.4	353.15	25000	692.01	1.76
0.12	0.4	353.15	30000	696.68	1.77
0.12	0.4	353.15	35000	700.98	1.78
0.12	0.4	353.15	40000	704.89	1.8
0.12	0.4	373.15	1000	644.28	2.71
0.12	0.4	373.15	5000	650.26	2.71
0.12	0.4	373.15	10000	657.34	2.72
0.12	0.4	373.15	15000	663.96	2.72
0.12	0.4	373.15	20000	670.13	2.73
0.12	0.4	373.15	25000	675.86	2.74
0.12	0.4	373.15	30000	681.13	2.75
0.12	0.4	373.15	35000	685.95	2.76
0.12	0.4	373.15	40000	690.33	2.77
0.16	0.1999	293.15	100	729.36	1.71
0.16	0.1999	293.15	1000	730.15	1.71
0.16	0.1999	293.15	5000	733.61	1.71
0.16	0.1999	293.15	10000	737.77	1.72
0.16	0.1999	293.15	15000	741.74	1.72
0.16	0.1999	293.15	20000	745.54	1.73
0.16	0.1999	293.15	25000	749.15	1.74
0.16	0.1999	293.15	30000	752.59	1.75
0.16	0.1999	293.15	35000	755.84	1.76
0.16	0.1999	293.15	40000	758.92	1.76
0.16	0.1999	303.15	100	720.62	1.71
0.16	0.1999	303.15	1000	721.47	1.71
0.16	0.1999	303.15	5000	725.16	1.71
0.16	0.1999	303.15	10000	729.59	1.72
0.16	0.1999	303.15	15000	733.82	1.72
0.16	0.1999	303.15	20000	737.84	1.73
0.16	0.1999	303.15	25000	741.65	1.74
0.16	0.1999	303.15	30000	745.26	1.75
0.16	0.1999	303.15	35000	748.66	1.76
0.16	0.1999	303.15	40000	751.86	1.77
0.16	0.1999	313.15	100	711.72	1.71
0.16	0.1999	313.15	1000	712.63	1.71
0.16	0.1999	313.15	5000	716.57	1.71
0.16	0.1999	313.15	10000	721.3	1.7
0.16	0.1999	313.15	15000	725.79	1.72
0.16	0.1999	313.15	20000	730.06	1.73
0.16	0.1999	313.15	25000	734.09	1.74
0.16	0.1999	313.15	30000	737.88	1.75
0.16	0.1999	313.15	35000	741.45	1.76
0.16	0.1999	313.15	40000	744.79	1.77
0.16	0.1999	323.15	100	702.55	1.71
0.16	0.1999	323.15	1000	703.52	1.71
0.16	0.1999	323.15	5000	707.75	1.71
0.16	0.1999	323.15	10000	712.81	1.72
0.16	0.1999	323.15	15000	717.6	1.7
0.16	0.1999	323.15	20000	722.13	1.73
0.16	0.1999	323.15	25000	726.4	1.7
0.16	0.1999	323.15	30000	730.4	1.8
0.16	0.1999	323.15	35000	734.15	1.76
0.16	0.1999	323.15	40000	737.63	1.78
0.16	0.1999	333.15	100	693.14	1.71
0.16	0.1999	333.15	1000	694.19	1.71
0.16	0.1999	333.15	5000	698.74	1.71
0.16	0.1999	333.15	10000	704.15	1.72
0.16	0.1999	333.15	15000	709.27	1.73
0.16	0.1999	333.15	20000	714.09	1.74
0.16	0.1999	333.15	25000	718.61	1.75
0.16	0.1999	333.15	30000	722.83	1.76
0.16	0.1999	333.15	35000	726.75	1.77
0.16	0.1999	333.15	40000	730.37	1.78
0.16	0.1999	353.15	1000	674.4	1.7
0.16	0.1999	353.15	5000	679.73	1.71
0.16	0.1999	353.15	10000	686.02	1.72
0.16	0.1999	353.15	15000	691.92	1.73
0.16	0.1999	353.15	20000	697.43	1.74
0.16	0.1999	353.15	25000	702.54	1.75
0.16	0.1999	353.15	30000	707.25	1.76
0.16	0.1999	353.15	35000	711.57	1.77
0.16	0.1999	353.15	40000	715.49	1.79
0.16	0.1999	373.15	1000	653.2	2.7
0.16	0.1999	373.15	5000	659.44	2.71
0.16	0.1999	373.15	10000	666.78	2.72
0.16	0.1999	373.15	15000	673.62	2.72
0.16	0.1999	373.15	20000	679.95	2.73
0.16	0.1999	373.15	25000	685.79	2.74
0.16	0.1999	373.15	30000	691.11	2.74
0.16	0.1999	373.15	35000	695.94	2.75
0.16	0.1999	373.15	40000	700.26	2.76
0.12	0.7999	293.15	100	702.23	1.71
0.12	0.7999	293.15	1000	702.99	1.71
0.12	0.7999	293.15	5000	706.32	1.72
0.12	0.7999	293.15	10000	710.32	1.73
0.12	0.7999	293.15	15000	714.12	1.74
0.12	0.7999	293.15	20000	717.75	1.75
0.12	0.7999	293.15	25000	721.18	1.76
0.12	0.7999	293.15	30000	724.43	1.77
0.12	0.7999	293.15	35000	727.5	1.8
0.12	0.7999	293.15	40000	730.37	1.8
0.12	0.7999	303.15	100	693.91	1.71
0.12	0.7999	303.15	1000	694.72	1.72
0.12	0.7999	303.15	5000	698.25	1.72
0.12	0.7999	303.15	10000	702.49	1.73
0.12	0.7999	303.15	15000	706.54	1.74
0.12	0.7999	303.15	20000	710.39	1.75
0.12	0.7999	303.15	25000	714.04	1.76
0.12	0.7999	303.15	30000	717.5	1.8
0.12	0.7999	303.15	35000	720.77	1.79
0.12	0.7999	303.15	40000	723.84	1.8
0.12	0.7999	313.15	100	685.47	1.71
0.12	0.7999	313.15	1000	686.34	1.72
0.12	0.7999	313.15	5000	690.12	1.72
0.12	0.7999	313.15	10000	694.65	1.73
0.12	0.7999	313.15	15000	698.95	1.74
0.12	0.7999	313.15	20000	703.03	1.75
0.12	0.7999	313.15	25000	706.89	1.76
0.12	0.7999	313.15	30000	710.52	1.78
0.12	0.7999	313.15	35000	713.93	1.79
0.12	0.7999	313.15	40000	717.12	1.81
0.12	0.7999	323.15	100	676.86	1.71
0.12	0.7999	323.15	1000	677.8	1.7
0.12	0.7999	323.15	5000	681.85	1.72
0.12	0.7999	323.15	10000	686.69	1.73
0.12	0.7999	323.15	15000	691.28	1.74
0.12	0.7999	323.15	20000	695.61	1.75
0.12	0.7999	323.15	25000	699.7	1.8
0.12	0.7999	323.15	30000	703.54	1.78
0.12	0.7999	323.15	35000	707.12	1.79
0.12	0.7999	323.15	40000	710.46	1.81
0.12	0.7999	333.15	100	668.16	1.71
0.12	0.7999	333.15	1000	669.17	1.72
0.12	0.7999	333.15	5000	673.5	1.7
0.12	0.7999	333.15	10000	678.68	1.73
0.12	0.7999	333.15	15000	683.56	1.74
0.12	0.7999	333.15	20000	688.17	1.75
0.12	0.7999	333.15	25000	692.5	1.8
0.12	0.7999	333.15	30000	696.54	1.78
0.12	0.7999	333.15	35000	700.31	1.8
0.12	0.7999	333.15	40000	703.79	1.81
0.12	0.7999	353.15	1000	651.39	1.72
0.12	0.7999	353.15	5000	656.39	1.72
0.12	0.7999	353.15	10000	662.32	1.73
0.12	0.7999	353.15	15000	667.89	1.75
0.12	0.7999	353.15	20000	673.11	1.76
0.12	0.7999	353.15	25000	677.97	1.77
0.12	0.7999	353.15	30000	682.47	1.79
0.12	0.7999	353.15	35000	686.61	1.8
0.12	0.7999	353.15	40000	690.39	1.82
0.12	0.7999	373.15	1000	633.27	2.71
0.12	0.7999	373.15	5000	639.05	2.72
0.12	0.7999	373.15	10000	645.87	2.72
0.12	0.7999	373.15	15000	652.23	2.73
0.12	0.7999	373.15	20000	658.14	2.74
0.12	0.7999	373.15	25000	663.59	2.75
0.12	0.7999	373.15	30000	668.59	2.76
0.12	0.7999	373.15	35000	673.13	2.77
0.12	0.7999	373.15	40000	677.22	2.78
0.2399	0.6	293.15	100	702.34	1.71
0.2399	0.6	293.15	1000	703.11	1.71
0.2399	0.6	293.15	5000	706.47	1.72
0.2399	0.6	293.15	10000	710.52	1.73
0.2399	0.6	293.15	15000	714.38	1.74
0.2399	0.6	293.15	20000	718.07	1.75
0.2399	0.6	293.15	25000	721.57	1.76
0.2399	0.6	293.15	30000	724.9	1.8
0.2399	0.6	293.15	35000	728.05	1.78
0.2399	0.6	293.15	40000	731.02	1.79
0.2399	0.6	303.15	100	693.62	1.71
0.2399	0.6	303.15	1000	694.45	1.71
0.2399	0.6	303.15	5000	698.06	1.72
0.2399	0.6	303.15	10000	702.39	1.73
0.2399	0.6	303.15	15000	706.51	1.74
0.2399	0.6	303.15	20000	710.42	1.75
0.2399	0.6	303.15	25000	714.13	1.76
0.2399	0.6	303.15	30000	717.63	1.77
0.2399	0.6	303.15	35000	720.93	1.78
0.2399	0.6	303.15	40000	724.02	1.8
0.2399	0.6	313.15	100	685.08	1.71
0.2399	0.6	313.15	1000	685.97	1.71
0.2399	0.6	313.15	5000	689.81	1.72
0.2399	0.6	313.15	10000	694.41	1.73
0.2399	0.6	313.15	15000	698.79	1.74
0.2399	0.6	313.15	20000	702.93	1.75
0.2399	0.6	313.15	25000	706.86	1.76
0.2399	0.6	313.15	30000	710.55	1.77
0.2399	0.6	313.15	35000	714.02	1.79
0.2399	0.6	313.15	40000	717.26	1.8
0.2399	0.6	323.15	100	676.27	1.71
0.2399	0.6	323.15	1000	677.22	1.72
0.2399	0.6	323.15	5000	681.36	1.72
0.2399	0.6	323.15	10000	686.3	1.7
0.2399	0.6	323.15	15000	690.98	1.74
0.2399	0.6	323.15	20000	695.4	1.8
0.2399	0.6	323.15	25000	699.55	1.76
0.2399	0.6	323.15	30000	703.45	1.78
0.2399	0.6	323.15	35000	707.08	1.79
0.2399	0.6	323.15	40000	710.46	1.81
0.2399	0.6	333.15	100	667.37	1.71
0.2399	0.6	333.15	1000	668.39	1.72
0.2399	0.6	333.15	5000	672.82	1.72
0.2399	0.6	333.15	10000	678.1	1.7
0.2399	0.6	333.15	15000	683.08	1.74
0.2399	0.6	333.15	20000	687.78	1.75
0.2399	0.6	333.15	25000	692.18	1.76
0.2399	0.6	333.15	30000	696.3	1.8
0.2399	0.6	333.15	35000	700.12	1.79
0.2399	0.6	333.15	40000	703.65	1.81
0.2399	0.6	353.15	1000	650.08	1.72
0.2399	0.6	353.15	5000	655.2	1.7
0.2399	0.6	353.15	10000	661.28	1.73
0.2399	0.6	353.15	15000	666.98	1.74
0.2399	0.6	353.15	20000	672.31	1.76
0.2399	0.6	353.15	25000	677.27	1.77
0.2399	0.6	353.15	30000	681.86	1.78
0.2399	0.6	353.15	35000	686.07	1.8
0.2399	0.6	353.15	40000	689.91	1.82
0.2399	0.6	373.15	1000	631	2.7
0.2399	0.6	373.15	5000	636.99	2.71
0.2399	0.6	373.15	10000	644.04	2.72
0.2399	0.6	373.15	15000	650.62	2.73
0.2399	0.6	373.15	20000	656.71	2.74
0.2399	0.6	373.15	25000	662.33	2.75
0.2399	0.6	373.15	30000	667.47	2.76
0.2399	0.6	373.15	35000	672.13	2.77
0.2399	0.6	373.15	40000	676.31	2.78
0.36	0.4	293.15	100	702.36	1.71
0.36	0.4	293.15	1000	703.15	1.72
0.36	0.4	293.15	5000	706.57	1.72
0.36	0.4	293.15	10000	710.68	1.72
0.36	0.4	293.15	15000	714.6	1.7
0.36	0.4	293.15	20000	718.35	1.74
0.36	0.4	293.15	25000	721.91	1.75
0.36	0.4	293.15	30000	725.29	1.77
0.36	0.4	293.15	35000	728.49	1.78
0.36	0.4	293.15	40000	731.5	1.8
0.36	0.4	303.15	100	693.75	1.71
0.36	0.4	303.15	1000	694.6	1.7
0.36	0.4	303.15	5000	698.27	1.72
0.36	0.4	303.15	10000	702.66	1.73
0.36	0.4	303.15	15000	706.85	1.73
0.36	0.4	303.15	20000	710.84	1.74
0.36	0.4	303.15	25000	714.61	1.76
0.36	0.4	303.15	30000	718.17	1.77
0.36	0.4	303.15	35000	721.53	1.78
0.36	0.4	303.15	40000	724.68	1.79
0.36	0.4	313.15	100	685	1.7
0.36	0.4	313.15	1000	685.9	1.7
0.36	0.4	313.15	5000	689.84	1.72
0.36	0.4	313.15	10000	694.54	1.73
0.36	0.4	313.15	15000	699.01	1.74
0.36	0.4	313.15	20000	703.24	1.75
0.36	0.4	313.15	25000	707.24	1.76
0.36	0.4	313.15	30000	710.99	1.77
0.36	0.4	313.15	35000	714.52	1.78
0.36	0.4	313.15	40000	717.8	1.8
0.36	0.4	323.15	100	676.01	1.71
0.36	0.4	323.15	1000	676.99	1.72
0.36	0.4	323.15	5000	681.22	1.72
0.36	0.4	323.15	10000	686.26	1.73
0.36	0.4	323.15	15000	691.03	1.74
0.36	0.4	323.15	20000	695.54	1.75
0.36	0.4	323.15	25000	699.77	1.76
0.36	0.4	323.15	30000	703.74	1.77
0.36	0.4	323.15	35000	707.44	1.79
0.36	0.4	323.15	40000	710.86	1.8
0.36	0.4	333.15	100	666.83	1.71
0.36	0.4	333.15	1000	667.89	1.72
0.36	0.4	333.15	5000	672.44	1.72
0.36	0.4	333.15	10000	677.86	1.73
0.36	0.4	333.15	15000	682.98	1.74
0.36	0.4	333.15	20000	687.78	1.75
0.36	0.4	333.15	25000	692.28	1.76
0.36	0.4	333.15	30000	696.47	1.78
0.36	0.4	333.15	35000	700.35	1.79
0.36	0.4	333.15	40000	703.92	1.81
0.36	0.4	353.15	1000	648.98	1.71
0.36	0.4	353.15	5000	654.28	1.72
0.36	0.4	353.15	10000	660.55	1.73
0.36	0.4	353.15	15000	666.42	1.74
0.36	0.4	353.15	20000	671.89	1.75
0.36	0.4	353.15	25000	676.97	1.77
0.36	0.4	353.15	30000	681.66	1.78
0.36	0.4	353.15	35000	685.95	1.8
0.36	0.4	353.15	40000	689.85	1.81
0.36	0.4	373.15	1000	629.07	2.71
0.36	0.4	373.15	5000	635.27	2.71
0.36	0.4	373.15	10000	642.57	2.72
0.36	0.4	373.15	15000	649.36	2.73
0.36	0.4	373.15	20000	655.65	2.74
0.36	0.4	373.15	25000	661.43	2.75
0.36	0.4	373.15	30000	666.7	2.8
0.36	0.4	373.15	35000	671.47	2.77
0.36	0.4	373.15	40000	675.73	2.78
0.4799	0.2	293.15	100	702.84	1.71
0.4799	0.2	293.15	1000	703.64	1.72
0.4799	0.2	293.15	5000	707.13	1.72
0.4799	0.2	293.15	10000	711.32	1.72
0.4799	0.2	293.15	15000	715.32	1.73
0.4799	0.2	293.15	20000	719.13	1.74
0.4799	0.2	293.15	25000	722.76	1.75
0.4799	0.2	293.15	30000	726.19	1.76
0.4799	0.2	293.15	35000	729.44	1.77
0.4799	0.2	293.15	40000	732.49	1.79
0.4799	0.2	303.15	100	694.01	1.71
0.4799	0.2	303.15	1000	694.88	1.72
0.4799	0.2	303.15	5000	698.62	1.72
0.4799	0.2	303.15	10000	703.11	1.72
0.4799	0.2	303.15	15000	707.38	1.73
0.4799	0.2	303.15	20000	711.43	1.74
0.4799	0.2	303.15	25000	715.26	1.75
0.4799	0.2	303.15	30000	718.88	1.76
0.4799	0.2	303.15	35000	722.27	1.78
0.4799	0.2	303.15	40000	725.45	1.79
0.4799	0.2	313.15	100	685.1	1.7
0.4799	0.2	313.15	1000	686.02	1.72
0.4799	0.2	313.15	5000	690.04	1.72
0.4799	0.2	313.15	10000	694.85	1.72
0.4799	0.2	313.15	15000	699.4	1.7
0.4799	0.2	313.15	20000	703.71	1.74
0.4799	0.2	313.15	25000	707.77	1.76
0.4799	0.2	313.15	30000	711.58	1.77
0.4799	0.2	313.15	35000	715.15	1.78
0.4799	0.2	313.15	40000	718.47	1.79
0.4799	0.2	323.15	100	675.92	1.71
0.4799	0.2	323.15	1000	676.92	1.72
0.4799	0.2	323.15	5000	681.25	1.72
0.4799	0.2	323.15	10000	686.41	1.73
0.4799	0.2	323.15	15000	691.29	1.74
0.4799	0.2	323.15	20000	695.88	1.75
0.4799	0.2	323.15	25000	700.19	1.76
0.4799	0.2	323.15	30000	704.21	1.77
0.4799	0.2	323.15	35000	707.95	1.78
0.4799	0.2	323.15	40000	711.41	1.8
0.4799	0.2	333.15	100	666.56	1.72
0.4799	0.2	333.15	1000	667.63	1.72
0.4799	0.2	333.15	5000	672.3	1.7
0.4799	0.2	333.15	10000	677.84	1.73
0.4799	0.2	333.15	15000	683.06	1.74
0.4799	0.2	333.15	20000	687.96	1.75
0.4799	0.2	333.15	25000	692.53	1.76
0.4799	0.2	333.15	30000	696.78	1.77
0.4799	0.2	333.15	35000	700.72	1.79
0.4799	0.2	333.15	40000	704.33	1.8
0.4799	0.2	353.15	1000	648.01	1.71
0.4799	0.2	353.15	5000	653.54	1.72
0.4799	0.2	353.15	10000	660.06	1.73
0.4799	0.2	353.15	15000	666.14	1.74
0.4799	0.2	353.15	20000	671.78	1.75
0.4799	0.2	353.15	25000	676.97	1.76
0.4799	0.2	353.15	30000	681.73	1.78
0.4799	0.2	353.15	35000	686.05	1.79
0.4799	0.2	353.15	40000	689.93	1.81
0.4799	0.2	373.15	1000	627.54	2.71
0.4799	0.2	373.15	5000	633.98	2.71
0.4799	0.2	373.15	10000	641.53	2.72
0.4799	0.2	373.15	15000	648.54	2.73
0.4799	0.2	373.15	20000	655.02	2.74
0.4799	0.2	373.15	25000	660.95	2.74
0.4799	0.2	373.15	30000	666.34	2.75
0.4799	0.2	373.15	35000	671.19	2.76
0.4799	0.2	373.15	40000	675.49	2.78
0.18	0.7999	293.15	100	699.93	1.71
0.18	0.7999	293.15	1000	700.69	1.72
0.18	0.7999	293.15	5000	704	1.72
0.18	0.7999	293.15	10000	707.97	1.73
0.18	0.7999	293.15	15000	711.78	1.74
0.18	0.7999	293.15	20000	715.41	1.75
0.18	0.7999	293.15	25000	718.86	1.76
0.18	0.7999	293.15	30000	722.14	1.78
0.18	0.7999	293.15	35000	725.25	1.79
0.18	0.7999	293.15	40000	728.18	1.8
0.18	0.7999	303.15	100	691.71	1.72
0.18	0.7999	303.15	1000	692.52	1.72
0.18	0.7999	303.15	5000	696.06	1.72
0.18	0.7999	303.15	10000	700.3	1.7
0.18	0.7999	303.15	15000	704.34	1.74
0.18	0.7999	303.15	20000	708.18	1.75
0.18	0.7999	303.15	25000	711.83	1.76
0.18	0.7999	303.15	30000	715.28	1.78
0.18	0.7999	303.15	35000	718.53	1.79
0.18	0.7999	303.15	40000	721.58	1.81
0.18	0.7999	313.15	100	683.37	1.72
0.18	0.7999	313.15	1000	684.24	1.72
0.18	0.7999	313.15	5000	688.02	1.72
0.18	0.7999	313.15	10000	692.55	1.73
0.18	0.7999	313.15	15000	696.84	1.74
0.18	0.7999	313.15	20000	700.92	1.75
0.18	0.7999	313.15	25000	704.77	1.77
0.18	0.7999	313.15	30000	708.39	1.78
0.18	0.7999	313.15	35000	711.8	1.8
0.18	0.7999	313.15	40000	714.97	1.81
0.18	0.7999	323.15	100	674.9	1.72
0.18	0.7999	323.15	1000	675.84	1.72
0.18	0.7999	323.15	5000	679.89	1.72
0.18	0.7999	323.15	10000	684.73	1.73
0.18	0.7999	323.15	15000	689.31	1.74
0.18	0.7999	323.15	20000	693.63	1.76
0.18	0.7999	323.15	25000	697.7	1.8
0.18	0.7999	323.15	30000	701.52	1.78
0.18	0.7999	323.15	35000	705.08	1.8
0.18	0.7999	323.15	40000	708.39	1.81
0.18	0.7999	333.15	100	666.39	1.72
0.18	0.7999	333.15	1000	667.39	1.72
0.18	0.7999	333.15	5000	671.73	1.72
0.18	0.7999	333.15	10000	676.9	1.7
0.18	0.7999	333.15	15000	681.78	1.74
0.18	0.7999	333.15	20000	686.37	1.76
0.18	0.7999	333.15	25000	690.68	1.77
0.18	0.7999	333.15	30000	694.7	1.8
0.18	0.7999	333.15	35000	698.42	1.8
0.18	0.7999	333.15	40000	701.86	1.82
0.18	0.7999	353.15	1000	650.13	1.72
0.18	0.7999	353.15	5000	655.14	1.72
0.18	0.7999	353.15	10000	661.07	1.74
0.18	0.7999	353.15	15000	666.63	1.75
0.18	0.7999	353.15	20000	671.82	1.76
0.18	0.7999	353.15	25000	676.64	1.77
0.18	0.7999	353.15	30000	681.09	1.79
0.18	0.7999	353.15	35000	685.17	1.81
0.18	0.7999	353.15	40000	688.87	1.82
0.18	0.7999	373.15	1000	632.48	2.71
0.18	0.7999	373.15	5000	638.26	2.72
0.18	0.7999	373.15	10000	645.06	2.72
0.18	0.7999	373.15	15000	651.39	2.73
0.18	0.7999	373.15	20000	657.25	2.74
0.18	0.7999	373.15	25000	662.65	2.75
0.18	0.7999	373.15	30000	667.59	2.76
0.18	0.7999	373.15	35000	672.06	2.77
0.18	0.7999	373.15	40000	676.06	2.78
0.36	0.6	293.15	100	696.98	1.71
0.36	0.6	293.15	1000	697.75	1.72
0.36	0.6	293.15	5000	701.1	1.7
0.36	0.6	293.15	10000	705.13	1.73
0.36	0.6	293.15	15000	708.98	1.74
0.36	0.6	293.15	20000	712.65	1.75
0.36	0.6	293.15	25000	716.15	1.76
0.36	0.6	293.15	30000	719.46	1.78
0.36	0.6	293.15	35000	722.6	1.8
0.36	0.6	293.15	40000	725.55	1.8
0.36	0.6	303.15	100	688.63	1.71
0.36	0.6	303.15	1000	689.45	1.72
0.36	0.6	303.15	5000	693.04	1.72
0.36	0.6	303.15	10000	697.35	1.73
0.36	0.6	303.15	15000	701.45	1.74
0.36	0.6	303.15	20000	705.35	1.75
0.36	0.6	303.15	25000	709.04	1.76
0.36	0.6	303.15	30000	712.53	1.78
0.36	0.6	303.15	35000	715.82	1.79
0.36	0.6	303.15	40000	718.9	1.8
0.36	0.6	313.15	100	680.15	1.71
0.36	0.6	313.15	1000	681.04	1.72
0.36	0.6	313.15	5000	684.88	1.72
0.36	0.6	313.15	10000	689.48	1.73
0.36	0.6	313.15	15000	693.85	1.74
0.36	0.6	313.15	20000	697.99	1.75
0.36	0.6	313.15	25000	701.89	1.77
0.36	0.6	313.15	30000	705.56	1.78
0.36	0.6	313.15	35000	709	1.8
0.36	0.6	313.15	40000	712.21	1.81
0.36	0.6	323.15	100	671.55	1.72
0.36	0.6	323.15	1000	672.5	1.7
0.36	0.6	323.15	5000	676.63	1.72
0.36	0.6	323.15	10000	681.55	1.73
0.36	0.6	323.15	15000	686.2	1.7
0.36	0.6	323.15	20000	690.59	1.76
0.36	0.6	323.15	25000	694.71	1.77
0.36	0.6	323.15	30000	698.57	1.78
0.36	0.6	323.15	35000	702.16	1.8
0.36	0.6	323.15	40000	705.49	1.81
0.36	0.6	333.15	100	662.81	1.72
0.36	0.6	333.15	1000	663.84	1.72
0.36	0.6	333.15	5000	668.28	1.72
0.36	0.6	333.15	10000	673.55	1.73
0.36	0.6	333.15	15000	678.53	1.74
0.36	0.6	333.15	20000	683.2	1.8
0.36	0.6	333.15	25000	687.58	1.77
0.36	0.6	333.15	30000	691.65	1.79
0.36	0.6	333.15	35000	695.42	1.8
0.36	0.6	333.15	40000	698.89	1.82
0.36	0.6	353.15	1000	646.16	1.72
0.36	0.6	353.15	5000	651.31	1.72
0.36	0.6	353.15	10000	657.39	1.74
0.36	0.6	353.15	15000	663.07	1.75
0.36	0.6	353.15	20000	668.36	1.76
0.36	0.6	353.15	25000	673.24	1.78
0.36	0.6	353.15	30000	677.73	1.79
0.36	0.6	353.15	35000	681.83	1.81
0.36	0.6	353.15	40000	685.52	1.83
0.36	0.6	373.15	1000	627.99	2.71
0.36	0.6	373.15	5000	634.01	2.72
0.36	0.6	373.15	10000	641.06	2.72
0.36	0.6	373.15	15000	647.6	2.7
0.36	0.6	373.15	20000	653.61	2.74
0.36	0.6	373.15	25000	659.09	2.75
0.36	0.6	373.15	30000	664.06	2.76
0.36	0.6	373.15	35000	668.51	2.77
0.36	0.6	373.15	40000	672.43	2.79
0.5399	0.4	293.15	100	693.97	1.71
0.5399	0.4	293.15	1000	694.75	1.72
0.5399	0.4	293.15	5000	698.16	1.72
0.5399	0.4	293.15	10000	702.26	1.73
0.5399	0.4	293.15	15000	706.17	1.74
0.5399	0.4	293.15	20000	709.9	1.8
0.5399	0.4	293.15	25000	713.45	1.76
0.5399	0.4	293.15	30000	716.81	1.78
0.5399	0.4	293.15	35000	719.99	1.79
0.5399	0.4	293.15	40000	722.98	1.8
0.5399	0.4	303.15	100	685.5	1.7
0.5399	0.4	303.15	1000	686.35	1.72
0.5399	0.4	303.15	5000	690	1.7
0.5399	0.4	303.15	10000	694.37	1.73
0.5399	0.4	303.15	15000	698.54	1.74
0.5399	0.4	303.15	20000	702.5	1.8
0.5399	0.4	303.15	25000	706.24	1.76
0.5399	0.4	303.15	30000	709.78	1.78
0.5399	0.4	303.15	35000	713.11	1.79
0.5399	0.4	303.15	40000	716.23	1.81
0.5399	0.4	313.15	100	676.9	1.7
0.5399	0.4	313.15	1000	677.8	1.7
0.5399	0.4	313.15	5000	681.71	1.72
0.5399	0.4	313.15	10000	686.39	1.73
0.5399	0.4	313.15	15000	690.83	1.74
0.5399	0.4	313.15	20000	695.04	1.75
0.5399	0.4	313.15	25000	699.01	1.77
0.5399	0.4	313.15	30000	702.74	1.78
0.5399	0.4	313.15	35000	706.25	1.8
0.5399	0.4	313.15	40000	709.52	1.81
0.5399	0.4	323.15	100	668.11	1.71
0.5399	0.4	323.15	1000	669.08	1.72
0.5399	0.4	323.15	5000	673.29	1.72
0.5399	0.4	323.15	10000	678.31	1.73
0.5399	0.4	323.15	15000	683.06	1.74
0.5399	0.4	323.15	20000	687.54	1.76
0.5399	0.4	323.15	25000	691.74	1.77
0.5399	0.4	323.15	30000	695.68	1.78
0.5399	0.4	323.15	35000	699.34	1.8
0.5399	0.4	323.15	40000	702.77	1.81
0.5399	0.4	333.15	100	659.2	1.7
0.5399	0.4	333.15	1000	660.26	1.72
0.5399	0.4	333.15	5000	664.81	1.72
0.5399	0.4	333.15	10000	670.21	1.73
0.5399	0.4	333.15	15000	675.29	1.74
0.5399	0.4	333.15	20000	680.05	1.76
0.5399	0.4	333.15	25000	684.48	1.77
0.5399	0.4	333.15	30000	688.59	1.79
0.5399	0.4	333.15	35000	692.38	1.8
0.5399	0.4	333.15	40000	695.85	1.82
0.5399	0.4	353.15	1000	642.12	1.72
0.5399	0.4	353.15	5000	647.39	1.72
0.5399	0.4	353.15	10000	653.62	1.74
0.5399	0.4	353.15	15000	659.44	1.75
0.5399	0.4	353.15	20000	664.86	1.76
0.5399	0.4	353.15	25000	669.87	1.78
0.5399	0.4	353.15	30000	674.49	1.79
0.5399	0.4	353.15	35000	678.69	1.81
0.5399	0.4	353.15	40000	682.49	1.83
0.5399	0.4	373.15	1000	623.45	2.71
0.5399	0.4	373.15	5000	629.63	2.72
0.5399	0.4	373.15	10000	636.87	2.72
0.5399	0.4	373.15	15000	643.59	2.73
0.5399	0.4	373.15	20000	649.77	2.74
0.5399	0.4	373.15	25000	655.43	2.75
0.5399	0.4	373.15	30000	660.55	2.76
0.5399	0.4	373.15	35000	665.15	2.77
0.5399	0.4	373.15	40000	669.22	2.79
0.7199	0.2	293.15	100	690.68	1.71
0.7199	0.2	293.15	1000	691.48	1.72
0.7199	0.2	293.15	5000	694.95	1.72
0.7199	0.2	293.15	10000	699.11	1.73
0.7199	0.2	293.15	15000	703.09	1.74
0.7199	0.2	293.15	20000	706.87	1.75
0.7199	0.2	293.15	25000	710.47	1.76
0.7199	0.2	293.15	30000	713.88	1.78
0.7199	0.2	293.15	35000	717.1	1.8
0.7199	0.2	293.15	40000	720.13	1.8
0.7199	0.2	303.15	100	682.09	1.71
0.7199	0.2	303.15	1000	682.95	1.72
0.7199	0.2	303.15	5000	686.68	1.72
0.7199	0.2	303.15	10000	691.14	1.73
0.7199	0.2	303.15	15000	695.38	1.74
0.7199	0.2	303.15	20000	699.4	1.8
0.7199	0.2	303.15	25000	703.21	1.76
0.7199	0.2	303.15	30000	706.8	1.8
0.7199	0.2	303.15	35000	710.17	1.79
0.7199	0.2	303.15	40000	713.33	1.81
0.7199	0.2	313.15	100	673.35	1.71
0.7199	0.2	313.15	1000	674.27	1.72
0.7199	0.2	313.15	5000	678.28	1.72
0.7199	0.2	313.15	10000	683.06	1.73
0.7199	0.2	313.15	15000	687.59	1.74
0.7199	0.2	313.15	20000	691.87	1.75
0.7199	0.2	313.15	25000	695.9	1.8
0.7199	0.2	313.15	30000	699.67	1.78
0.7199	0.2	313.15	35000	703.2	1.8
0.7199	0.2	313.15	40000	706.47	1.81
0.7199	0.2	323.15	100	664.42	1.71
0.7199	0.2	323.15	1000	665.41	1.72
0.7199	0.2	323.15	5000	669.72	1.72
0.7199	0.2	323.15	10000	674.85	1.73
0.7199	0.2	323.15	15000	679.7	1.7
0.7199	0.2	323.15	20000	684.26	1.76
0.7199	0.2	323.15	25000	688.54	1.77
0.7199	0.2	323.15	30000	692.53	1.78
0.7199	0.2	323.15	35000	696.24	1.8
0.7199	0.2	323.15	40000	699.67	1.82
0.7199	0.2	333.15	100	655.34	1.72
0.7199	0.2	333.15	1000	656.42	1.72
0.7199	0.2	333.15	5000	661.08	1.72
0.7199	0.2	333.15	10000	666.6	1.7
0.7199	0.2	333.15	15000	671.79	1.74
0.7199	0.2	333.15	20000	676.64	1.76
0.7199	0.2	333.15	25000	681.17	1.77
0.7199	0.2	333.15	30000	685.36	1.79
0.7199	0.2	333.15	35000	689.22	1.8
0.7199	0.2	333.15	40000	692.74	1.82
0.7199	0.2	353.15	1000	637.96	1.72
0.7199	0.2	353.15	5000	643.35	1.72
0.7199	0.2	353.15	10000	649.71	1.74
0.7199	0.2	353.15	15000	655.66	1.75
0.7199	0.2	353.15	20000	661.18	1.76
0.7199	0.2	353.15	25000	666.29	1.78
0.7199	0.2	353.15	30000	670.97	1.79
0.7199	0.2	353.15	35000	675.23	1.81
0.7199	0.2	353.15	40000	679.08	1.83
0.7199	0.2	373.15	1000	618.81	2.71
0.7199	0.2	373.15	5000	625.12	2.72
0.7199	0.2	373.15	10000	632.53	2.72
0.7199	0.2	373.15	15000	639.4	2.7
0.7199	0.2	373.15	20000	645.72	2.74
0.7199	0.2	373.15	25000	651.51	2.75
0.7199	0.2	373.15	30000	656.76	2.76
0.7199	0.2	373.15	35000	661.48	2.77
0.7199	0.2	373.15	40000	665.65	2.79
