Measured thermophysical data. Boiling temperature measurement for water, methanol, ethanol, and their  binary mixtures in the presence of a hydrochloric or acetic salt  of mono-, di-, or tri-ethanolamine at 101.3 kPa
Source: J. Chem. Thermodyn., 2009, 10.1016/j.jct.2008.10.001
Compound 1: ethanol, C2H6O, InChI=1S/C2H6O/c1-2-3/h3H,2H2,1H3, purity 99%
Compound 2: methanol, CH4O, InChI=1S/CH4O/c1-2/h2H,1H3, purity 99%
Compound 3: water, H2O, InChI=1S/H2O/h1H2
Compound 4: 2-hydroxyethylammonium acetate, C4H11NO3, InChI=1S/C2H7NO.C2H4O2/c3-1-2-4;1-2(3)4/h4H,1-3H2;1H3,(H,3,4), purity 98%
Compound 5: 2,2'-azanediylbis(ethanol) acetate, C6H15NO4, InChI=1S/C4H11NO2.C2H4O2/c6-3-1-5-2-4-7;1-2(3)4/h5-7H,1-4H2;1H3,(H,3,4), purity 98%
Compound 6: triethanolammonium acetate, C8H19NO5, InChI=1S/C6H15NO3.C2H4O2/c8-4-1-7(2-5-9)3-6-10;1-2(3)4/h8-10H,1-6H2;1H3,(H,3,4), purity 98%
Compound 7: bis(2-hydroxyethyl)ammonium chloride, C4H12ClNO2, InChI=1S/C4H11NO2.ClH/c6-3-1-5-2-4-7;/h5-7H,1-4H2;1H, purity 98%

System: water + 2-hydroxyethylammonium acetate; phases: Liquid, Gas
Fixed: Pressure, kPa = 101.3
Property: Boiling temperature at pressure P, K (Liquid); method: Ebulliometric method (Recirculating still)
Mole fraction of water	Boiling temperature at pressure P, K	uncertainty
0.9949	373.28	0.09
0.9908	373.43	0.09
0.9787	373.85	0.09
0.9575	374.58	0.09
0.9437	375.06	0.09
0.926	375.73	0.09
0.9005	376.73	0.09

System: water + 2,2'-azanediylbis(ethanol) acetate; phases: Liquid, Gas
Fixed: Pressure, kPa = 101.3
Property: Boiling temperature at pressure P, K (Liquid); method: Ebulliometric method (Recirculating still)
Mole fraction of water	Boiling temperature at pressure P, K	uncertainty
0.9942	373.31	0.09
0.9936	373.33	0.09
0.9851	373.59	0.09
0.9671	374.13	0.09
0.9421	374.92	0.09
0.9144	375.9	0.09
0.8935	376.75	0.09

System: water + triethanolammonium acetate; phases: Liquid, Gas
Fixed: Pressure, kPa = 101.3
Property: Boiling temperature at pressure P, K (Liquid); method: Ebulliometric method (Recirculating still)
Mole fraction of water	Boiling temperature at pressure P, K	uncertainty
0.9969	373.3	0.09
0.9949	373.42	0.09
0.9911	373.63	0.09
0.9779	374.3	0.09
0.9595	375.4	0.09
0.9441	376.28	0.09
0.9177	377.81	0.09

System: water + bis(2-hydroxyethyl)ammonium chloride; phases: Liquid, Gas
Fixed: Pressure, kPa = 101.3
Property: Boiling temperature at pressure P, K (Liquid); method: Ebulliometric method (Recirculating still)
Mole fraction of water	Boiling temperature at pressure P, K	uncertainty
0.9933	373.5	0.09
0.9821	374.08	0.09
0.9684	374.83	0.09
0.9584	375.43	0.09
0.9424	376.35	0.09
0.9264	377.36	0.09
0.9072	378.66	0.09

System: ethanol + 2-hydroxyethylammonium acetate; phases: Liquid, Gas
Fixed: Pressure, kPa = 101.3
Property: Boiling temperature at pressure P, K (Liquid); method: Ebulliometric method (Recirculating still)
Mole fraction of ethanol	Boiling temperature at pressure P, K	uncertainty
0.9766	352.21	0.1
0.9416	353.31	0.1
0.9157	354.1	0.1
0.8478	356.3	0.1
0.7866	358.59	0.1
0.7413	360.46	0.1
0.7121	361.8	0.1

System: ethanol + 2,2'-azanediylbis(ethanol) acetate; phases: Liquid, Gas
Fixed: Pressure, kPa = 101.3
Property: Boiling temperature at pressure P, K (Liquid); method: Ebulliometric method (Recirculating still)
Mole fraction of ethanol	Boiling temperature at pressure P, K	uncertainty
0.9884	351.74	0.1
0.9672	352.29	0.1
0.9333	353.11	0.1
0.8857	354.09	0.1
0.845	355.01	0.1
0.8031	356.05	0.1
0.7778	356.74	0.1

System: ethanol + triethanolammonium acetate; phases: Liquid, Gas
Fixed: Pressure, kPa = 101.3
Property: Boiling temperature at pressure P, K (Liquid); method: Ebulliometric method (Recirculating still)
Mole fraction of ethanol	Boiling temperature at pressure P, K	uncertainty
0.989	351.77	0.1
0.9673	352.4	0.1
0.9417	353.07	0.1
0.9063	353.86	0.1
0.8721	354.61	0.1
0.8387	355.31	0.1
0.815	355.8	0.1

System: ethanol + bis(2-hydroxyethyl)ammonium chloride; phases: Liquid, Gas
Fixed: Pressure, kPa = 101.3
Property: Boiling temperature at pressure P, K (Liquid); method: Ebulliometric method (Recirculating still)
Mole fraction of ethanol	Boiling temperature at pressure P, K	uncertainty
0.9801	351.95	0.1
0.9434	352.49	0.1
0.9125	352.88	0.1
0.8589	353.46	0.1
0.8079	354.03	0.1
0.7729	354.42	0.1
0.7389	354.88	0.1

System: methanol + 2-hydroxyethylammonium acetate; phases: Liquid, Gas
Fixed: Pressure, kPa = 101.3
Property: Boiling temperature at pressure P, K (Liquid); method: Ebulliometric method (Recirculating still)
Mole fraction of methanol	Boiling temperature at pressure P, K	uncertainty
0.9862	338.16	0.1
0.973	338.57	0.1
0.9352	339.78	0.1
0.8981	341.02	0.1
0.852	342.66	0.1
0.8066	344.4	0.1
0.7523	346.63	0.1

System: methanol + 2,2'-azanediylbis(ethanol) acetate; phases: Liquid, Gas
Fixed: Pressure, kPa = 101.3
Property: Boiling temperature at pressure P, K (Liquid); method: Ebulliometric method (Recirculating still)
Mole fraction of methanol	Boiling temperature at pressure P, K	uncertainty
0.9912	337.93	0.1
0.9834	338.13	0.1
0.9595	338.74	0.1
0.9266	339.62	0.1
0.8987	340.39	0.1
0.8696	341.22	0.1
0.8395	342.12	0.1

System: methanol + triethanolammonium acetate; phases: Liquid, Gas
Fixed: Pressure, kPa = 101.3
Property: Boiling temperature at pressure P, K (Liquid); method: Ebulliometric method (Recirculating still)
Mole fraction of methanol	Boiling temperature at pressure P, K	uncertainty
0.9921	337.96	0.1
0.9883	338.09	0.1
0.9791	338.4	0.1
0.9583	339.09	0.1
0.9328	339.96	0.1
0.9051	340.93	0.1
0.8907	341.46	0.1

System: methanol + bis(2-hydroxyethyl)ammonium chloride; phases: Liquid, Gas
Fixed: Pressure, kPa = 101.3
Property: Boiling temperature at pressure P, K (Liquid); method: Ebulliometric method (Recirculating still)
Mole fraction of methanol	Boiling temperature at pressure P, K	uncertainty
0.9918	337.96	0.1
0.9727	338.47	0.1
0.9439	339.24	0.1
0.9283	339.67	0.1
0.9019	340.42	0.1
0.8781	341.15	0.1
0.8318	342.72	0.1

System: ethanol + water + 2-hydroxyethylammonium acetate; phases: Liquid, Gas
Fixed: Pressure, kPa = 101.3
Property: Boiling temperature at pressure P, K (Liquid); method: Ebulliometric method (Recirculating still)
Mole fraction of water	Mole fraction of ethanol	Boiling temperature at pressure P, K	uncertainty
0.2144	0.6522	354.21	0.1
0.4036	0.4951	354.53	0.09
0.6002	0.3319	355.06	0.09
0.7036	0.246	355.91	0.09
0.7802	0.1825	356.76	0.09
0.8298	0.1413	357.88	0.09
0.869	0.1088	358.98	0.09

System: ethanol + water + triethanolammonium acetate; phases: Liquid, Gas
Fixed: Pressure, kPa = 101.3
Property: Boiling temperature at pressure P, K (Liquid); method: Ebulliometric method (Recirculating still)
Mole fraction of water	Mole fraction of ethanol	Boiling temperature at pressure P, K	uncertainty
0.1896	0.7363	354.08	0.1
0.4474	0.502	354.41	0.09
0.5784	0.383	354.98	0.09
0.6945	0.2776	355.84	0.09
0.7646	0.2138	356.69	0.09
0.8245	0.1595	357.82	0.09
0.8628	0.1247	358.92	0.09

System: ethanol + methanol + 2,2'-azanediylbis(ethanol) acetate; phases: Liquid, Gas
Fixed: Pressure, kPa = 101.3
Property: Boiling temperature at pressure P, K (Liquid); method: Ebulliometric method (Recirculating still)
Mole fraction of ethanol	Mole fraction of methanol	Boiling temperature at pressure P, K	uncertainty
0.0959	0.8298	341.02	0.1
0.1876	0.7457	342.04	0.1
0.3125	0.631	343.43	0.1
0.4156	0.5364	344.6	0.1
0.5132	0.4468	345.72	0.1
0.605	0.3626	346.8	0.1
0.676	0.2973	347.65	0.1

System: ethanol + methanol + triethanolammonium acetate; phases: Liquid, Gas
Fixed: Pressure, kPa = 101.3
Property: Boiling temperature at pressure P, K (Liquid); method: Ebulliometric method (Recirculating still)
Mole fraction of ethanol	Mole fraction of methanol	Boiling temperature at pressure P, K	uncertainty
0.0519	0.8843	341.53	0.1
0.1255	0.8157	342.22	0.1
0.2225	0.7252	343.19	0.1
0.3426	0.6132	344.39	0.1
0.4448	0.5178	345.45	0.1
0.5238	0.4441	346.28	0.1
0.5923	0.3803	347.04	0.1

System: ethanol + water + bis(2-hydroxyethyl)ammonium chloride; phases: Liquid, Gas
Fixed: Pressure, kPa = 101.3
Property: Boiling temperature at pressure P, K (Liquid); method: Ebulliometric method (Recirculating still)
Mole fraction of water	Mole fraction of ethanol	Boiling temperature at pressure P, K	uncertainty
0.1298	0.7582	353.53	0.1
0.4146	0.5101	353.72	0.09
0.5898	0.3574	354.5	0.09
0.6847	0.2747	355.29	0.09
0.7586	0.2103	356.21	0.09
0.8205	0.1564	357.49	0.09

System: ethanol + methanol + 2-hydroxyethylammonium acetate; phases: Liquid, Gas
Fixed: Pressure, kPa = 101.3
Property: Boiling temperature at pressure P, K (Liquid); method: Ebulliometric method (Recirculating still)
Mole fraction of ethanol	Mole fraction of methanol	Boiling temperature at pressure P, K	uncertainty
0.0842	0.8073	342.48	0.1
0.1831	0.7202	343.4	0.1
0.3088	0.6094	344.62	0.1
0.4014	0.5278	345.51	0.1
0.5279	0.4162	346.7	0.1
0.6093	0.3445	347.5	0.1
0.6783	0.2836	348.27	0.1

System: ethanol + methanol + bis(2-hydroxyethyl)ammonium chloride; phases: Liquid, Gas
Fixed: Pressure, kPa = 101.3
Property: Boiling temperature at pressure P, K (Liquid); method: Ebulliometric method (Recirculating still)
Mole fraction of ethanol	Mole fraction of methanol	Boiling temperature at pressure P, K	uncertainty
0.347	0.5451	345.39	0.1
0.4616	0.4494	346.48	0.1
0.5245	0.3969	347.04	0.1
0.6108	0.3249	347.85	0.1
0.6972	0.2528	348.64	0.1
0.7644	0.1966	349.25	0.1
