Measured thermophysical data. Thermophysical properties of binary mixtures of triethoxysilane, methyltriethoxysilane, vinyltriethoxysilane and 3-mercaptopropyltriethoxysilane with ethylbenzene at various temperatures
Source: J. Chem. Thermodyn., 2014, 10.1016/j.jct.2014.03.003
Compound 1: triethoxysilane, C6H16O3Si, InChI=1S/C6H16O3Si/c1-4-7-10(8-5-2)9-6-3/h10H,4-6H2,1-3H3
Compound 2: triethoxy(methyl)silane, C7H18O3Si, InChI=1S/C7H18O3Si/c1-5-8-11(4,9-6-2)10-7-3/h5-7H2,1-4H3
Compound 3: ethenyl(triethoxy)silane, C8H18O3Si, InChI=1S/C8H18O3Si/c1-5-9-12(8-4,10-6-2)11-7-3/h8H,4-7H2,1-3H3
Compound 4: 3-(triethoxysilyl)-1-propanethiol, C9H22O3SSi, InChI=1S/C9H22O3SSi/c1-4-10-14(11-5-2,12-6-3)9-7-8-13/h13H,4-9H2,1-3H3
Compound 5: ethylbenzene, C8H10, InChI=1S/C8H10/c1-2-8-6-4-3-5-7-8/h3-7H,2H2,1H3

System: triethoxysilane; phases: Liquid
Fixed: Pressure, kPa = 100.705
Property: Mass density, kg/m3 (Liquid); method: Vibrating tube method
Temperature, K	Mass density, kg/m3	uncertainty
288.15	900.61	1.02
298.15	889.82	1.02
308.15	878.86	1.02
318.15	867.78	1.02
328.15	856.6	1.02

System: triethoxysilane; phases: Liquid
Fixed: Pressure, kPa = 101.325
Property: Refractive index (Na D-line) (Liquid); method: Standard Abbe refractometry
Temperature, K	Refractive index (Na D-line)	uncertainty
288.15	1.37933	0.00036
298.15	1.37445	0.00036
308.15	1.36969	0.00036
318.15	1.36479	0.00036
328.15	1.35981	0.00036

System: triethoxy(methyl)silane; phases: Liquid
Fixed: Pressure, kPa = 100.705
Property: Mass density, kg/m3 (Liquid); method: Vibrating tube method
Temperature, K	Mass density, kg/m3	uncertainty
288.15	900.23	1.01
298.15	889.62	1.01
308.15	878.98	1.01
318.15	868.22	1.01
328.15	857.21	1.01

System: triethoxy(methyl)silane; phases: Liquid
Fixed: Pressure, kPa = 101.325
Property: Refractive index (Na D-line) (Liquid); method: Standard Abbe refractometry
Temperature, K	Refractive index (Na D-line)	uncertainty
288.15	1.38553	0.00032
298.15	1.38068	0.00032
308.15	1.37592	0.00032
318.15	1.37106	0.00032
328.15	1.36612	0.00032

System: ethenyl(triethoxy)silane; phases: Liquid
Fixed: Pressure, kPa = 100.705
Property: Mass density, kg/m3 (Liquid); method: Vibrating tube method
Temperature, K	Mass density, kg/m3	uncertainty
288.15	914.92	1
298.15	904.77	1
308.15	894.48	1.01
318.15	884.08	1.01
328.15	873.61	1.01

System: ethenyl(triethoxy)silane; phases: Liquid
Fixed: Pressure, kPa = 101.325
Property: Refractive index (Na D-line) (Liquid); method: Standard Abbe refractometry
Temperature, K	Refractive index (Na D-line)	uncertainty
288.15	1.40143	0.00032
298.15	1.39664	0.00032
308.15	1.39187	0.00032
318.15	1.3871	0.00032
328.15	1.38226	0.00032

System: 3-(triethoxysilyl)-1-propanethiol; phases: Liquid
Fixed: Pressure, kPa = 100.705
Property: Mass density, kg/m3 (Liquid); method: Vibrating tube method
Temperature, K	Mass density, kg/m3	uncertainty
293.15	984.06	1.01
288.15	988.81	1
298.15	979.35	1
308.15	969.92	1
318.15	960.43	1.01
328.15	950.9	1.01

System: 3-(triethoxysilyl)-1-propanethiol; phases: Liquid
Fixed: Pressure, kPa = 101.325
Property: Refractive index (Na D-line) (Liquid); method: Standard Abbe refractometry
Temperature, K	Refractive index (Na D-line)	uncertainty
293.15	1.43772	0.00033
288.15	1.43994	0.00033
298.15	1.43546	0.00033
308.15	1.43099	0.00033
318.15	1.42652	0.00033
328.15	1.42206	0.00033

System: ethylbenzene; phases: Liquid
Fixed: Pressure, kPa = 100.705
Property: Mass density, kg/m3 (Liquid); method: Vibrating tube method
Temperature, K	Mass density, kg/m3	uncertainty
288.15	871.33	1.02
298.15	862.59	1.02
308.15	853.77	1.02
318.15	844.89	1.02
328.15	835.94	1.02

System: ethylbenzene; phases: Liquid
Fixed: Pressure, kPa = 101.325
Property: Refractive index (Na D-line) (Liquid); method: Standard Abbe refractometry
Temperature, K	Refractive index (Na D-line)	uncertainty
288.15	1.49838	0.00037
298.15	1.49299	0.00037
308.15	1.48749	0.00037
318.15	1.48207	0.00037
328.15	1.47656	0.00037

System: ethylbenzene + 3-(triethoxysilyl)-1-propanethiol; phases: Liquid
Fixed: Pressure, kPa = 100.705
Property: Mass density, kg/m3 (Liquid); method: Vibrating tube method
Temperature, K	Mole fraction of 3-(triethoxysilyl)-1-propanethiol	Mass density, kg/m3	uncertainty
288.15	0	871.33	1.02
288.15	0.0498	882.63	1.02
288.15	0.1006	893.08	1.02
288.15	0.1514	902.61	1.02
288.15	0.1996	910.8	1.02
288.15	0.2501	918.75	1.02
288.15	0.2998	925.95	1.02
288.15	0.3514	932.85	1.01
288.15	0.4006	938.92	1.01
288.15	0.4505	944.67	1.01
288.15	0.5058	950.61	1.01
288.15	0.5504	955.06	1.01
288.15	0.5976	959.52	1.01
288.15	0.6488	964.05	1.01
288.15	0.7017	968.47	1.01
288.15	0.7471	972.02	1.01
288.15	0.8	975.93	1.01
288.15	0.8478	979.26	1.01
288.15	0.9026	982.9	1.01
288.15	0.948	985.69	1
288.15	1	988.81	1
298.15	0	862.59	1.02
298.15	0.0498	873.79	1.02
298.15	0.1006	884.14	1.02
298.15	0.1514	893.61	1.02
298.15	0.1996	901.75	1.02
298.15	0.2501	909.65	1.02
298.15	0.2998	916.81	1.02
298.15	0.3514	923.67	1.01
298.15	0.4006	929.71	1.01
298.15	0.4505	935.43	1.01
298.15	0.5058	941.33	1.01
298.15	0.5504	945.77	1.01
298.15	0.5976	950.2	1.01
298.15	0.6488	954.71	1.01
298.15	0.7017	959.11	1.01
298.15	0.7471	962.64	1.01
298.15	0.8	966.52	1.01
298.15	0.8478	969.84	1.01
298.15	0.9026	973.47	1.01
298.15	0.948	976.27	1.01
298.15	1	979.35	1
308.15	0	853.77	1.02
308.15	0.0498	864.9	1.02
308.15	0.1006	875.18	1.02
308.15	0.1514	884.56	1.02
308.15	0.1996	892.68	1.02
308.15	0.2501	900.53	1.02
308.15	0.2998	907.65	1.02
308.15	0.3514	914.48	1.01
308.15	0.4006	920.49	1.01
308.15	0.4505	926.18	1.01
308.15	0.5058	932.05	1.01
308.15	0.5504	936.46	1.01
308.15	0.5976	940.88	1.01
308.15	0.6488	945.36	1.01
308.15	0.7017	949.74	1.01
308.15	0.7471	953.25	1.01
308.15	0.8	957.11	1.01
308.15	0.8478	960.43	1.01
308.15	0.9026	964.03	1.01
308.15	0.948	966.83	1.01
308.15	1	969.92	1
318.15	0	844.89	1.02
318.15	0.0498	855.93	1.02
318.15	0.1006	866.15	1.02
318.15	0.1514	875.47	1.02
318.15	0.1996	883.54	1.02
318.15	0.2501	891.34	1.02
318.15	0.2998	898.43	1.02
318.15	0.3514	905.23	1.01
318.15	0.4006	911.21	1.01
318.15	0.4505	916.88	1.01
318.15	0.5058	922.71	1.01
318.15	0.5504	927.11	1.01
318.15	0.5976	931.5	1.01
318.15	0.6488	935.97	1.01
318.15	0.7017	940.32	1.01
318.15	0.7471	943.83	1.01
318.15	0.8	947.67	1.01
318.15	0.8478	950.98	1.01
318.15	0.9026	954.56	1.01
318.15	0.948	957.36	1.01
318.15	1	960.43	1.01
328.15	0	835.94	1.02
328.15	0.0498	846.91	1.02
328.15	0.1006	857.06	1.02
328.15	0.1514	866.32	1.02
328.15	0.1996	874.36	1.02
328.15	0.2501	882.11	1.02
328.15	0.2998	889.16	1.02
328.15	0.3514	895.92	1.02
328.15	0.4006	901.89	1.01
328.15	0.4505	907.53	1.01
328.15	0.5058	913.34	1.01
328.15	0.5504	917.72	1.01
328.15	0.5976	922.09	1.01
328.15	0.6488	926.55	1.01
328.15	0.7017	930.86	1.01
328.15	0.7471	934.36	1.01
328.15	0.8	938.2	1.01
328.15	0.8478	941.49	1.01
328.15	0.9026	945.05	1.01
328.15	0.948	947.85	1.01
328.15	1	950.9	1.01

System: ethylbenzene + 3-(triethoxysilyl)-1-propanethiol; phases: Liquid
Fixed: Pressure, kPa = 100.705
Property: Refractive index (Na D-line) (Liquid); method: Standard Abbe refractometry
Mole fraction of 3-(triethoxysilyl)-1-propanethiol	Temperature, K	Refractive index (Na D-line)	uncertainty
0	288.15	1.49838	0.00037
0.0498	288.15	1.49287	0.00037
0.1006	288.15	1.48777	0.00037
0.1514	288.15	1.48308	0.00036
0.1996	288.15	1.47904	0.00036
0.2501	288.15	1.47506	0.00036
0.2998	288.15	1.4715	0.00035
0.3514	288.15	1.46805	0.00035
0.4006	288.15	1.46505	0.00035
0.4505	288.15	1.46218	0.00035
0.5058	288.15	1.4592	0.00035
0.5504	288.15	1.45697	0.00034
0.5976	288.15	1.45473	0.00034
0.6488	288.15	1.45249	0.00034
0.7017	288.15	1.45021	0.00034
0.7471	288.15	1.44843	0.00034
0.8	288.15	1.44646	0.00033
0.8478	288.15	1.44479	0.00033
0.9026	288.15	1.44294	0.00033
0.948	288.15	1.44152	0.00033
1	288.15	1.43994	0.00033
0	298.15	1.49299	0.00037
0.0498	298.15	1.48761	0.00037
0.1006	298.15	1.48259	0.00037
0.1514	298.15	1.478	0.00036
0.1996	298.15	1.47402	0.00036
0.2501	298.15	1.47009	0.00036
0.2998	298.15	1.46661	0.00035
0.3514	298.15	1.46321	0.00035
0.4006	298.15	1.46024	0.00035
0.4505	298.15	1.45743	0.00035
0.5058	298.15	1.45447	0.00035
0.5504	298.15	1.45229	0.00034
0.5976	298.15	1.45007	0.00034
0.6488	298.15	1.44783	0.00034
0.7017	298.15	1.44562	0.00034
0.7471	298.15	1.44386	0.00034
0.8	298.15	1.4419	0.00033
0.8478	298.15	1.44023	0.00033
0.9026	298.15	1.43841	0.00033
0.948	298.15	1.43701	0.00033
1	298.15	1.43546	0.00033
0	308.15	1.48749	0.00037
0.0498	308.15	1.48227	0.00037
0.1006	308.15	1.47734	0.00037
0.1514	308.15	1.4728	0.00036
0.1996	308.15	1.46888	0.00036
0.2501	308.15	1.46507	0.00036
0.2998	308.15	1.46162	0.00035
0.3514	308.15	1.45827	0.00035
0.4006	308.15	1.45535	0.00035
0.4505	308.15	1.45258	0.00035
0.5058	308.15	1.4497	0.00035
0.5504	308.15	1.44753	0.00034
0.5976	308.15	1.44535	0.00034
0.6488	308.15	1.44316	0.00034
0.7017	308.15	1.44098	0.00034
0.7471	308.15	1.43923	0.00034
0.8	308.15	1.43734	0.00033
0.8478	308.15	1.4357	0.00033
0.9026	308.15	1.43392	0.00033
0.948	308.15	1.43252	0.00033
1	308.15	1.43099	0.00033
0	318.15	1.48207	0.00037
0.0498	318.15	1.4769	0.00037
0.1006	318.15	1.47207	0.00037
0.1514	318.15	1.46765	0.00036
0.1996	318.15	1.46377	0.00036
0.2501	318.15	1.46002	0.00036
0.2998	318.15	1.45667	0.00035
0.3514	318.15	1.45337	0.00035
0.4006	318.15	1.45051	0.00035
0.4505	318.15	1.44775	0.00035
0.5058	318.15	1.44493	0.00035
0.5504	318.15	1.44278	0.00034
0.5976	318.15	1.44068	0.00034
0.6488	318.15	1.43847	0.00034
0.7017	318.15	1.43637	0.00034
0.7471	318.15	1.43465	0.00034
0.8	318.15	1.43278	0.00033
0.8478	318.15	1.43117	0.00033
0.9026	318.15	1.42941	0.00033
0.948	318.15	1.42803	0.00033
1	318.15	1.42652	0.00033
0	328.15	1.47656	0.00037
0.0498	328.15	1.47153	0.00037
0.1006	328.15	1.46678	0.00036
0.1514	328.15	1.46244	0.00036
0.1996	328.15	1.45862	0.00036
0.2501	328.15	1.45499	0.00036
0.2998	328.15	1.45166	0.00035
0.3514	328.15	1.44844	0.00035
0.4006	328.15	1.44561	0.00035
0.4505	328.15	1.4429	0.00035
0.5058	328.15	1.44013	0.00035
0.5504	328.15	1.43805	0.00034
0.5976	328.15	1.43593	0.00034
0.6488	328.15	1.4338	0.00034
0.7017	328.15	1.43174	0.00034
0.7471	328.15	1.43004	0.00034
0.8	328.15	1.42819	0.00033
0.8478	328.15	1.4266	0.00033
0.9026	328.15	1.42489	0.00033
0.948	328.15	1.42353	0.00033
1	328.15	1.42206	0.00033

System: ethylbenzene + triethoxy(methyl)silane; phases: Liquid
Fixed: Pressure, kPa = 100.705
Property: Mass density, kg/m3 (Liquid); method: Vibrating tube method
Temperature, K	Mole fraction of triethoxy(methyl)silane	Mass density, kg/m3	uncertainty
288.15	0	871.29	1.02
288.15	0.05	874.11	1.02
288.15	0.0993	876.66	1.02
288.15	0.1505	879.08	1.02
288.15	0.1993	881.2	1.02
288.15	0.2507	883.27	1.02
288.15	0.3001	885.09	1.01
288.15	0.35	886.78	1.01
288.15	0.3993	888.33	1.01
288.15	0.4497	889.8	1.01
288.15	0.5007	891.18	1.01
288.15	0.5492	892.4	1.01
288.15	0.6005	893.59	1.01
288.15	0.6467	894.53	1.01
288.15	0.6991	895.52	1.01
288.15	0.7422	896.33	1.01
288.15	0.7993	897.34	1.01
288.15	0.8493	898.17	1.01
288.15	0.8993	898.95	1.01
288.15	1	900.23	1.01
298.15	0	862.49	1.02
298.15	0.05	865.19	1.02
298.15	0.0993	867.62	1.02
298.15	0.1505	869.92	1.02
298.15	0.1993	871.94	1.02
298.15	0.2507	873.89	1.02
298.15	0.3001	875.61	1.02
298.15	0.35	877.2	1.01
298.15	0.3993	878.64	1.01
298.15	0.4497	880.01	1.01
298.15	0.5007	881.3	1.01
298.15	0.5492	882.43	1.01
298.15	0.6005	883.54	1.01
298.15	0.6467	884.42	1.01
298.15	0.6991	885.33	1.01
298.15	0.7422	886.09	1.01
298.15	0.7993	887.02	1.01
298.15	0.8493	887.75	1.01
298.15	0.8993	888.48	1.01
298.15	1	889.62	1.01
308.15	0	853.74	1.02
308.15	0.05	856.29	1.02
308.15	0.0993	858.59	1.02
308.15	0.1505	860.77	1.02
308.15	0.1993	862.68	1.02
308.15	0.2507	864.51	1.02
308.15	0.3001	866.13	1.02
308.15	0.35	867.61	1.01
308.15	0.3993	868.96	1.01
308.15	0.4497	870.24	1.01
308.15	0.5007	871.43	1.01
308.15	0.5492	872.47	1.01
308.15	0.6005	873.49	1.01
308.15	0.6467	874.29	1.01
308.15	0.6991	875.12	1.01
308.15	0.7422	875.81	1.01
308.15	0.7993	876.65	1.01
308.15	0.8493	877.32	1.01
308.15	0.8993	877.97	1.01
308.15	1	878.98	1.01
318.15	0	844.85	1.02
318.15	0.05	847.27	1.02
318.15	0.0993	849.45	1.02
318.15	0.1505	851.51	1.02
318.15	0.1993	853.3	1.02
318.15	0.2507	855.03	1.02
318.15	0.3001	856.54	1.02
318.15	0.35	857.93	1.01
318.15	0.3993	859.15	1.01
318.15	0.4497	860.33	1.01
318.15	0.5007	861.43	1.01
318.15	0.5492	862.38	1.01
318.15	0.6005	863.31	1.01
318.15	0.6467	864.05	1.01
318.15	0.6991	864.8	1.01
318.15	0.7422	865.42	1.01
318.15	0.7993	866.19	1.01
318.15	0.8493	866.78	1.01
318.15	0.8993	867.35	1.01
318.15	1	868.22	1.01
328.15	0	835.9	1.02
328.15	0.05	838.18	1.02
328.15	0.0993	840.21	1.02
328.15	0.1505	842.13	1.02
328.15	0.1993	843.8	1.02
328.15	0.2507	845.39	1.02
328.15	0.3001	846.78	1.02
328.15	0.35	848.06	1.01
328.15	0.3993	849.21	1.01
328.15	0.4497	850.29	1.01
328.15	0.5007	851.28	1.01
328.15	0.5492	852.14	1.01
328.15	0.6005	852.98	1.01
328.15	0.6467	853.62	1.01
328.15	0.6991	854.28	1.01
328.15	0.7422	854.82	1.01
328.15	0.7993	855.46	1.01
328.15	0.8493	855.99	1.01
328.15	0.8993	856.48	1.01
328.15	1	857.21	1.01

System: ethylbenzene + triethoxy(methyl)silane; phases: Liquid
Fixed: Pressure, kPa = 100.705
Property: Refractive index (Na D-line) (Liquid); method: Standard Abbe refractometry
Mole fraction of triethoxy(methyl)silane	Temperature, K	Refractive index (Na D-line)	uncertainty
0	288.15	1.49804	0.00037
0.05	288.15	1.48937	0.00037
0.0993	288.15	1.48127	0.00037
0.1505	288.15	1.47329	0.00036
0.1993	288.15	1.46611	0.00036
0.2507	288.15	1.45889	0.00036
0.3001	288.15	1.45233	0.00035
0.35	288.15	1.44601	0.00035
0.3993	288.15	1.44009	0.00035
0.4497	288.15	1.43432	0.00034
0.5007	288.15	1.42873	0.00034
0.5492	288.15	1.42369	0.00034
0.6005	288.15	1.41857	0.00034
0.6467	288.15	1.41417	0.00034
0.6991	288.15	1.40936	0.00033
0.7422	288.15	1.40558	0.00033
0.7993	288.15	1.40077	0.00033
0.8493	288.15	1.39675	0.00033
0.8993	288.15	1.39288	0.00032
1	288.15	1.38553	0.00032
0	298.15	1.49275	0.00037
0.05	298.15	1.48406	0.00037
0.0993	298.15	1.47596	0.00037
0.1505	298.15	1.46801	0.00036
0.1993	298.15	1.46081	0.00036
0.2507	298.15	1.45365	0.00036
0.3001	298.15	1.44711	0.00035
0.35	298.15	1.44083	0.00035
0.3993	298.15	1.43497	0.00035
0.4497	298.15	1.42924	0.00034
0.5007	298.15	1.42366	0.00034
0.5492	298.15	1.41865	0.00034
0.6005	298.15	1.41356	0.00034
0.6467	298.15	1.40917	0.00034
0.6991	298.15	1.4044	0.00033
0.7422	298.15	1.40064	0.00033
0.7993	298.15	1.39586	0.00033
0.8493	298.15	1.39183	0.00033
0.8993	298.15	1.38801	0.00032
1	298.15	1.38068	0.00032
0	308.15	1.48714	0.00037
0.05	308.15	1.47863	0.00037
0.0993	308.15	1.47058	0.00037
0.1505	308.15	1.46267	0.00036
0.1993	308.15	1.45553	0.00036
0.2507	308.15	1.44838	0.00036
0.3001	308.15	1.44189	0.00035
0.35	308.15	1.43564	0.00035
0.3993	308.15	1.42981	0.00035
0.4497	308.15	1.42411	0.00034
0.5007	308.15	1.41858	0.00034
0.5492	308.15	1.41359	0.00034
0.6005	308.15	1.40854	0.00034
0.6467	308.15	1.40418	0.00034
0.6991	308.15	1.39944	0.00033
0.7422	308.15	1.39573	0.00033
0.7993	308.15	1.39094	0.00033
0.8493	308.15	1.38699	0.00033
0.8993	308.15	1.38316	0.00032
1	308.15	1.37592	0.00032
0	318.15	1.48164	0.00037
0.05	318.15	1.47314	0.00037
0.0993	318.15	1.46513	0.00037
0.1505	318.15	1.45724	0.00036
0.1993	318.15	1.45011	0.00036
0.2507	318.15	1.44299	0.00036
0.3001	318.15	1.43651	0.00035
0.35	318.15	1.43031	0.00035
0.3993	318.15	1.42456	0.00035
0.4497	318.15	1.41888	0.00034
0.5007	318.15	1.41338	0.00034
0.5492	318.15	1.40842	0.00034
0.6005	318.15	1.40342	0.00034
0.6467	318.15	1.3991	0.00034
0.6991	318.15	1.39437	0.00033
0.7422	318.15	1.39067	0.00033
0.7993	318.15	1.38596	0.00033
0.8493	318.15	1.38201	0.00033
0.8993	318.15	1.37824	0.00032
1	318.15	1.37106	0.00032
0	328.15	1.47611	0.00037
0.05	328.15	1.46774	0.00037
0.0993	328.15	1.45979	0.00037
0.1505	328.15	1.45196	0.00036
0.1993	328.15	1.44488	0.00036
0.2507	328.15	1.43784	0.00036
0.3001	328.15	1.4314	0.00035
0.35	328.15	1.42524	0.00035
0.3993	328.15	1.41943	0.00035
0.4497	328.15	1.4138	0.00034
0.5007	328.15	1.40831	0.00034
0.5492	328.15	1.4034	0.00034
0.6005	328.15	1.39841	0.00034
0.6467	328.15	1.39411	0.00033
0.6991	328.15	1.38939	0.00033
0.7422	328.15	1.3857	0.00033
0.7993	328.15	1.381	0.00033
0.8493	328.15	1.37708	0.00033
0.8993	328.15	1.37328	0.00032
1	328.15	1.36612	0.00032

System: ethenyl(triethoxy)silane + ethylbenzene; phases: Liquid
Fixed: Pressure, kPa = 100.705
Property: Mass density, kg/m3 (Liquid); method: Vibrating tube method
Temperature, K	Mole fraction of ethenyl(triethoxy)silane	Mass density, kg/m3	uncertainty
288.15	0	871.34	1.02
288.15	0.0501	875.31	1.02
288.15	0.1003	878.97	1.02
288.15	0.1502	882.35	1.02
288.15	0.1996	885.45	1.02
288.15	0.2483	888.27	1.02
288.15	0.3007	891.09	1.01
288.15	0.3501	893.57	1.01
288.15	0.4004	895.9	1.01
288.15	0.4484	897.99	1.01
288.15	0.501	900.15	1.01
288.15	0.5501	902.02	1.01
288.15	0.5894	903.43	1.01
288.15	0.6487	905.44	1.01
288.15	0.7	907.11	1.01
288.15	0.7494	908.54	1.01
288.15	0.7987	909.93	1.01
288.15	0.848	911.26	1.01
288.15	0.9032	912.66	1.01
288.15	0.9536	913.84	1
288.15	1	914.92	1
298.15	0	862.6	1.02
298.15	0.0501	866.46	1.02
298.15	0.1003	870.02	1.02
298.15	0.1502	873.3	1.02
298.15	0.1996	876.29	1.02
298.15	0.2483	879.02	1.02
298.15	0.3007	881.76	1.01
298.15	0.3501	884.14	1.01
298.15	0.4004	886.41	1.01
298.15	0.4484	888.45	1.01
298.15	0.501	890.51	1.01
298.15	0.5501	892.32	1.01
298.15	0.5894	893.65	1.01
298.15	0.6487	895.59	1.01
298.15	0.7	897.17	1.01
298.15	0.7494	898.6	1.01
298.15	0.7987	899.93	1.01
298.15	0.848	901.19	1.01
298.15	0.9032	902.51	1.01
298.15	0.9536	903.68	1
298.15	1	904.77	1
308.15	0	853.77	1.02
308.15	0.0501	857.52	1.02
308.15	0.1003	860.97	1.02
308.15	0.1502	864.15	1.02
308.15	0.1996	867.06	1.02
308.15	0.2483	869.71	1.02
308.15	0.3007	872.33	1.01
308.15	0.3501	874.63	1.01
308.15	0.4004	876.85	1.01
308.15	0.4484	878.81	1.01
308.15	0.501	880.79	1.01
308.15	0.5501	882.52	1.01
308.15	0.5894	883.8	1.01
308.15	0.6487	885.69	1.01
308.15	0.7	887.2	1.01
308.15	0.7494	888.57	1.01
308.15	0.7987	889.83	1.01
308.15	0.848	891.03	1.01
308.15	0.9032	892.31	1.01
308.15	0.9536	893.43	1.01
308.15	1	894.48	1.01
318.15	0	844.89	1.02
318.15	0.0501	848.52	1.02
318.15	0.1003	851.85	1.02
318.15	0.1502	854.93	1.02
318.15	0.1996	857.75	1.02
318.15	0.2483	860.31	1.02
318.15	0.3007	862.83	1.01
318.15	0.3501	865.05	1.01
318.15	0.4004	867.18	1.01
318.15	0.4484	869.1	1.01
318.15	0.501	870.97	1.01
318.15	0.5501	872.63	1.01
318.15	0.5894	873.87	1.01
318.15	0.6487	875.69	1.01
318.15	0.7	877.12	1.01
318.15	0.7494	878.44	1.01
318.15	0.7987	879.64	1.01
318.15	0.848	880.78	1.01
318.15	0.9032	882.01	1.01
318.15	0.9536	883.08	1.01
318.15	1	884.08	1.01
328.15	0	835.94	1.02
328.15	0.0501	839.45	1.02
328.15	0.1003	842.68	1.02
328.15	0.1502	845.65	1.02
328.15	0.1996	848.39	1.02
328.15	0.2483	850.84	1.02
328.15	0.3007	853.27	1.01
328.15	0.3501	855.4	1.01
328.15	0.4004	857.46	1.01
328.15	0.4484	859.26	1.01
328.15	0.501	861.11	1.01
328.15	0.5501	862.68	1.01
328.15	0.5894	863.9	1.01
328.15	0.6487	865.62	1.01
328.15	0.7	867	1.01
328.15	0.7494	868.26	1.01
328.15	0.7987	869.41	1.01
328.15	0.848	870.5	1.01
328.15	0.9032	871.67	1.01
328.15	0.9536	872.72	1.01
328.15	1	873.61	1.01

System: ethenyl(triethoxy)silane + ethylbenzene; phases: Liquid
Fixed: Pressure, kPa = 100.705
Property: Refractive index (Na D-line) (Liquid); method: Standard Abbe refractometry
Mole fraction of ethenyl(triethoxy)silane	Temperature, K	Refractive index (Na D-line)	uncertainty
0	288.15	1.49838	0.00037
0.0501	288.15	1.4905	0.00037
0.1003	288.15	1.48306	0.00036
0.1502	288.15	1.47614	0.00036
0.1996	288.15	1.46968	0.00036
0.2483	288.15	1.4637	0.00035
0.3007	288.15	1.45764	0.00035
0.3501	288.15	1.45198	0.00035
0.4004	288.15	1.44703	0.00034
0.4484	288.15	1.44233	0.00034
0.501	288.15	1.43741	0.00034
0.5501	288.15	1.43311	0.00034
0.5894	288.15	1.42976	0.00033
0.6487	288.15	1.42498	0.00033
0.7	288.15	1.42103	0.00033
0.7494	288.15	1.41745	0.00033
0.7987	288.15	1.41403	0.00032
0.848	288.15	1.41072	0.00032
0.9032	288.15	1.40686	0.00032
0.9536	288.15	1.40414	0.00032
1	288.15	1.40143	0.00032
0	298.15	1.49298	0.00037
0.0501	298.15	1.48516	0.00037
0.1003	298.15	1.47776	0.00036
0.1502	298.15	1.47087	0.00036
0.1996	298.15	1.46447	0.00036
0.2483	298.15	1.45852	0.00035
0.3007	298.15	1.45251	0.00035
0.3501	298.15	1.44718	0.00035
0.4004	298.15	1.44196	0.00034
0.4484	298.15	1.43728	0.00034
0.501	298.15	1.43242	0.00034
0.5501	298.15	1.4281	0.00034
0.5894	298.15	1.4248	0.00033
0.6487	298.15	1.42006	0.00033
0.7	298.15	1.41617	0.00033
0.7494	298.15	1.41258	0.00033
0.7987	298.15	1.40917	0.00032
0.848	298.15	1.40589	0.00032
0.9032	298.15	1.40246	0.00032
0.9536	298.15	1.39935	0.00032
1	298.15	1.39664	0.00032
0	308.15	1.48746	0.00037
0.0501	308.15	1.47972	0.00037
0.1003	308.15	1.47235	0.00036
0.1502	308.15	1.46551	0.00036
0.1996	308.15	1.45914	0.00036
0.2483	308.15	1.45324	0.00035
0.3007	308.15	1.44725	0.00035
0.3501	308.15	1.44195	0.00035
0.4004	308.15	1.43677	0.00034
0.4484	308.15	1.43214	0.00034
0.501	308.15	1.42729	0.00034
0.5501	308.15	1.42302	0.00034
0.5894	308.15	1.41973	0.00033
0.6487	308.15	1.41506	0.00033
0.7	308.15	1.4112	0.00033
0.7494	308.15	1.40763	0.00033
0.7987	308.15	1.40426	0.00032
0.848	308.15	1.40103	0.00032
0.9032	308.15	1.39766	0.00032
0.9536	308.15	1.39456	0.00032
1	308.15	1.39187	0.00032
0	318.15	1.48202	0.00037
0.0501	318.15	1.47428	0.00037
0.1003	318.15	1.46695	0.00036
0.1502	318.15	1.46014	0.00036
0.1996	318.15	1.45381	0.00036
0.2483	318.15	1.44794	0.00035
0.3007	318.15	1.442	0.00035
0.3501	318.15	1.43672	0.00035
0.4004	318.15	1.4316	0.00034
0.4484	318.15	1.42697	0.00034
0.501	318.15	1.42217	0.00034
0.5501	318.15	1.41795	0.00034
0.5894	318.15	1.41469	0.00033
0.6487	318.15	1.41005	0.00033
0.7	318.15	1.40624	0.00033
0.7494	318.15	1.40272	0.00033
0.7987	318.15	1.39937	0.00032
0.848	318.15	1.39617	0.00032
0.9032	318.15	1.39281	0.00032
0.9536	318.15	1.38976	0.00032
1	318.15	1.3871	0.00032
0	328.15	1.47651	0.00037
0.0501	328.15	1.4688	0.00037
0.1003	328.15	1.46151	0.00036
0.1502	328.15	1.45472	0.00036
0.1996	328.15	1.44844	0.00036
0.2483	328.15	1.4426	0.00035
0.3007	328.15	1.43669	0.00035
0.3501	328.15	1.43147	0.00035
0.4004	328.15	1.42637	0.00034
0.4484	328.15	1.42178	0.00034
0.501	328.15	1.41701	0.00034
0.5501	328.15	1.4128	0.00034
0.5894	328.15	1.40959	0.00033
0.6487	328.15	1.40498	0.00033
0.7	328.15	1.40121	0.00033
0.7494	328.15	1.39772	0.00033
0.7987	328.15	1.39441	0.00032
0.848	328.15	1.3912	0.00032
0.9032	328.15	1.38792	0.00032
0.9536	328.15	1.38491	0.00032
1	328.15	1.38226	0.00032

System: ethylbenzene + triethoxysilane; phases: Liquid
Fixed: Pressure, kPa = 100.705
Property: Mass density, kg/m3 (Liquid); method: Vibrating tube method
Temperature, K	Mole fraction of triethoxysilane	Mass density, kg/m3	uncertainty
288.15	0	871.31	1.02
288.15	0.05	874.04	1.02
288.15	0.101	876.56	1.02
288.15	0.1501	878.83	1.02
288.15	0.2009	881.02	1.02
288.15	0.2504	882.95	1.02
288.15	0.3008	884.8	1.02
288.15	0.3503	886.53	1.02
288.15	0.4003	888.12	1.02
288.15	0.4499	889.57	1.02
288.15	0.4991	890.93	1.02
288.15	0.5506	892.26	1.02
288.15	0.5999	893.42	1.02
288.15	0.65	894.56	1.02
288.15	0.704	895.7	1.02
288.15	0.7499	896.61	1.02
288.15	0.8003	897.51	1.02
288.15	0.8503	898.38	1.02
288.15	0.9005	899.18	1.02
288.15	1	900.61	1.02
298.15	0	862.59	1.02
298.15	0.05	865.16	1.02
298.15	0.101	867.55	1.02
298.15	0.1501	869.68	1.02
298.15	0.2009	871.73	1.02
298.15	0.2504	873.58	1.02
298.15	0.3008	875.31	1.02
298.15	0.3503	876.92	1.02
298.15	0.4003	878.39	1.02
298.15	0.4499	879.78	1.02
298.15	0.4991	881.04	1.02
298.15	0.5506	882.28	1.02
298.15	0.5999	883.34	1.02
298.15	0.65	884.38	1.02
298.15	0.704	885.42	1.02
298.15	0.7499	886.22	1.02
298.15	0.8003	887.06	1.02
298.15	0.8503	887.84	1.02
298.15	0.9005	888.55	1.02
298.15	1	889.82	1.02
308.15	0	853.76	1.02
308.15	0.05	856.18	1.02
308.15	0.101	858.43	1.02
308.15	0.1501	860.44	1.02
308.15	0.2009	862.36	1.02
308.15	0.2504	864.1	1.02
308.15	0.3008	865.71	1.02
308.15	0.3503	867.2	1.02
308.15	0.4003	868.57	1.02
308.15	0.4499	869.85	1.02
308.15	0.4991	871.02	1.02
308.15	0.5506	872.14	1.02
308.15	0.5999	873.11	1.02
308.15	0.65	874.05	1.02
308.15	0.704	874.99	1.02
308.15	0.7499	875.7	1.02
308.15	0.8003	876.45	1.02
308.15	0.8503	877.14	1.02
308.15	0.9005	877.76	1.02
308.15	1	878.86	1.02
318.15	0	844.88	1.02
318.15	0.05	847.15	1.02
318.15	0.101	849.27	1.02
318.15	0.1501	851.15	1.02
318.15	0.2009	852.94	1.02
318.15	0.2504	854.55	1.02
318.15	0.3008	856.05	1.02
318.15	0.3503	857.42	1.02
318.15	0.4003	858.68	1.02
318.15	0.4499	859.83	1.02
318.15	0.4991	860.9	1.02
318.15	0.5506	861.92	1.02
318.15	0.5999	862.78	1.02
318.15	0.65	863.63	1.02
318.15	0.704	864.46	1.02
318.15	0.7499	865.08	1.02
318.15	0.8003	865.73	1.02
318.15	0.8503	866.33	1.02
318.15	0.9005	866.86	1.02
318.15	1	867.78	1.02
328.15	0	835.93	1.02
328.15	0.05	838.06	1.02
328.15	0.101	840.04	1.02
328.15	0.1501	841.79	1.02
328.15	0.2009	843.45	1.02
328.15	0.2504	844.93	1.02
328.15	0.3008	846.31	1.02
328.15	0.3503	847.56	1.02
328.15	0.4003	848.7	1.02
328.15	0.4499	849.75	1.02
328.15	0.4991	850.71	1.02
328.15	0.5506	851.62	1.02
328.15	0.5999	852.38	1.02
328.15	0.65	853.11	1.02
328.15	0.704	853.83	1.02
328.15	0.7499	854.36	1.02
328.15	0.8003	854.92	1.02
328.15	0.8503	855.42	1.02
328.15	0.9005	855.86	1.02
328.15	1	856.6	1.02

System: ethylbenzene + triethoxysilane; phases: Liquid
Fixed: Pressure, kPa = 100.705
Property: Refractive index (Na D-line) (Liquid); method: Standard Abbe refractometry
Mole fraction of triethoxysilane	Temperature, K	Refractive index (Na D-line)	uncertainty
0	288.15	1.49814	0.00037
0.05	288.15	1.48957	0.00037
0.101	288.15	1.48125	0.00037
0.1501	288.15	1.47356	0.00037
0.2009	288.15	1.46601	0.00037
0.2504	288.15	1.45892	0.00037
0.3008	288.15	1.45199	0.00037
0.3503	288.15	1.44549	0.00037
0.4003	288.15	1.4392	0.00037
0.4499	288.15	1.43319	0.00037
0.4991	288.15	1.42744	0.00037
0.5506	288.15	1.42164	0.00036
0.5999	288.15	1.41628	0.00036
0.65	288.15	1.41106	0.00036
0.704	288.15	1.40563	0.00036
0.7499	288.15	1.4012	0.00036
0.8003	288.15	1.39648	0.00036
0.8503	288.15	1.39193	0.00036
0.9005	288.15	1.38763	0.00036
1	288.15	1.37933	0.00036
0	298.15	1.49277	0.00037
0.05	298.15	1.48427	0.00037
0.101	298.15	1.47598	0.00037
0.1501	298.15	1.46828	0.00037
0.2009	298.15	1.46078	0.00037
0.2504	298.15	1.45374	0.00037
0.3008	298.15	1.44683	0.00037
0.3503	298.15	1.44037	0.00037
0.4003	298.15	1.43409	0.00037
0.4499	298.15	1.4281	0.00037
0.4991	298.15	1.42238	0.00037
0.5506	298.15	1.41661	0.00036
0.5999	298.15	1.41129	0.00036
0.65	298.15	1.40608	0.00036
0.704	298.15	1.40068	0.00036
0.7499	298.15	1.39624	0.00036
0.8003	298.15	1.39155	0.00036
0.8503	298.15	1.38705	0.00036
0.9005	298.15	1.38272	0.00036
1	298.15	1.37445	0.00036
0	308.15	1.48712	0.00037
0.05	308.15	1.47881	0.00037
0.101	308.15	1.47058	0.00037
0.1501	308.15	1.46294	0.00037
0.2009	308.15	1.45548	0.00037
0.2504	308.15	1.44844	0.00037
0.3008	308.15	1.4416	0.00037
0.3503	308.15	1.43517	0.00037
0.4003	308.15	1.42892	0.00037
0.4499	308.15	1.42295	0.00037
0.4991	308.15	1.41727	0.00037
0.5506	308.15	1.41154	0.00036
0.5999	308.15	1.40626	0.00036
0.65	308.15	1.40108	0.00036
0.704	308.15	1.39572	0.00036
0.7499	308.15	1.39131	0.00036
0.8003	308.15	1.38664	0.00036
0.8503	308.15	1.38217	0.00036
0.9005	308.15	1.37786	0.00036
1	308.15	1.36969	0.00036
0	318.15	1.48164	0.00037
0.05	318.15	1.47338	0.00037
0.101	318.15	1.46521	0.00037
0.1501	318.15	1.45758	0.00037
0.2009	318.15	1.45017	0.00037
0.2504	318.15	1.44318	0.00037
0.3008	318.15	1.43636	0.00037
0.3503	318.15	1.42995	0.00037
0.4003	318.15	1.42372	0.00037
0.4499	318.15	1.4178	0.00037
0.4991	318.15	1.41213	0.00037
0.5506	318.15	1.40642	0.00036
0.5999	318.15	1.40117	0.00036
0.65	318.15	1.39602	0.00036
0.704	318.15	1.39068	0.00036
0.7499	318.15	1.3863	0.00036
0.8003	318.15	1.38166	0.00036
0.8503	318.15	1.37723	0.00036
0.9005	318.15	1.3729	0.00036
1	318.15	1.36479	0.00036
0	328.15	1.47621	0.00037
0.05	328.15	1.46799	0.00037
0.101	328.15	1.45983	0.00037
0.1501	328.15	1.45232	0.00037
0.2009	328.15	1.44484	0.00037
0.2504	328.15	1.43791	0.00037
0.3008	328.15	1.43113	0.00037
0.3503	328.15	1.42472	0.00037
0.4003	328.15	1.41849	0.00037
0.4499	328.15	1.41258	0.00037
0.4991	328.15	1.40694	0.00037
0.5506	328.15	1.40127	0.00036
0.5999	328.15	1.39603	0.00036
0.65	328.15	1.39088	0.00036
0.704	328.15	1.38559	0.00036
0.7499	328.15	1.38123	0.00036
0.8003	328.15	1.37662	0.00036
0.8503	328.15	1.37218	0.00036
0.9005	328.15	1.36788	0.00036
1	328.15	1.35981	0.00036
