Measured thermophysical data. Solubility determination and thermodynamic modelling of 3-amino-1,2,4-triazole in ten organic solvents from T = 283.15 K to T = 318.15 K and mixing properties of solutions
Source: J. Chem. Thermodyn., 2017, 10.1016/j.jct.2016.09.033
Compound 1: 3-amino-1,2,4-triazole, C2H4N4, InChI=1S/C2H4N4/c3-2-4-1-5-6-2/h1H,(H3,3,4,5,6), purity 98.1%
Compound 2: methanol, CH4O, InChI=1S/CH4O/c1-2/h2H,1H3, purity 99.6%
Compound 3: ethanol, C2H6O, InChI=1S/C2H6O/c1-2-3/h3H,2H2,1H3, purity 99.4%
Compound 4: propan-1-ol, C3H8O, InChI=1S/C3H8O/c1-2-3-4/h4H,2-3H2,1H3, purity 99.5%
Compound 5: propan-2-ol, C3H8O, InChI=1S/C3H8O/c1-3(2)4/h3-4H,1-2H3, purity 99.4%
Compound 6: ethyl acetate, C4H8O2, InChI=1S/C4H8O2/c1-3-6-4(2)5/h3H2,1-2H3, purity 99.5%
Compound 7: acetone, C3H6O, InChI=1S/C3H6O/c1-3(2)4/h1-2H3, purity 99.5%
Compound 8: acetonitrile, C2H3N, InChI=1S/C2H3N/c1-2-3/h1H3, purity 99.5%
Compound 9: 1,4-dioxane, C4H8O2, InChI=1S/C4H8O2/c1-2-6-4-3-5-1/h1-4H2, purity 99.4%
Compound 10: N-methylpyrrolidone, C5H9NO, InChI=1S/C5H9NO/c1-6-4-2-3-5(6)7/h2-4H2,1H3, purity 99.6%
Compound 11: butanone, C4H8O, InChI=1S/C4H8O/c1-3-4(2)5/h3H2,1-2H3, purity 99.5%

System: 3-amino-1,2,4-triazole + methanol; phases: Liquid, Crystal
Fixed: Pressure, kPa = 101.1
Property: Mole fraction of 3-amino-1,2,4-triazole (Liquid); method: Chromatography
Temperature, K	Mole fraction of 3-amino-1,2,4-triazole	uncertainty
283.15	0.03057	0.00147
285.65	0.0329	0.00158
288.15	0.03531	0.0017
290.65	0.03796	0.00182
293.15	0.04077	0.00196
295.65	0.04368	0.0021
298.15	0.04707	0.00226
300.65	0.05009	0.00241
303.15	0.05374	0.00258
305.65	0.0574	0.00276
308.15	0.06131	0.00295
310.65	0.0654	0.00314
313.15	0.07009	0.00337
315.65	0.07446	0.00358
318.15	0.07936	0.00381

System: 3-amino-1,2,4-triazole + ethanol; phases: Liquid, Crystal
Fixed: Pressure, kPa = 101.1
Property: Mole fraction of 3-amino-1,2,4-triazole (Liquid); method: Chromatography
Temperature, K	Mole fraction of 3-amino-1,2,4-triazole	uncertainty
283.15	0.01125	0.00054
285.65	0.0126	0.00061
288.15	0.01432	0.00069
290.65	0.01648	0.00079
293.15	0.01875	0.0009
295.65	0.02129	0.00102
298.15	0.02395	0.00115
300.65	0.02691	0.00129
303.15	0.03021	0.00145
305.65	0.03378	0.00162
308.15	0.03784	0.00182
310.65	0.04204	0.00202
313.15	0.04693	0.00226
315.65	0.05163	0.00248
318.15	0.05691	0.00274

System: 3-amino-1,2,4-triazole + acetonitrile; phases: Liquid, Crystal
Fixed: Pressure, kPa = 101.1
Property: Mole fraction of 3-amino-1,2,4-triazole (Liquid); method: Chromatography
Temperature, K	Mole fraction of 3-amino-1,2,4-triazole	uncertainty
283.15	0.0006102	2.94e-05
285.65	0.0007133	3.43e-05
288.15	0.0008714	4.2e-05
290.65	0.001056	5.1e-05
293.15	0.001271	6.1e-05
295.65	0.001528	7.4e-05
298.15	0.00185	8.9e-05
300.65	0.002243	0.000108
303.15	0.002728	0.000131
305.65	0.00327	0.000157
308.15	0.003845	0.000185
310.65	0.004528	0.000218
313.15	0.005285	0.000254
315.65	0.006144	0.000296
318.15	0.006982	0.000336

System: 3-amino-1,2,4-triazole + propan-1-ol; phases: Liquid, Crystal
Fixed: Pressure, kPa = 101.1
Property: Mole fraction of 3-amino-1,2,4-triazole (Liquid); method: Chromatography
Temperature, K	Mole fraction of 3-amino-1,2,4-triazole	uncertainty
283.15	0.005698	0.000275
285.65	0.007002	0.000337
288.15	0.008354	0.000402
290.65	0.009835	0.000473
293.15	0.01164	0.00056
295.65	0.0135	0.00065
298.15	0.01619	0.00078
300.65	0.01893	0.00091
303.15	0.02197	0.00106
305.65	0.02546	0.00122
308.15	0.02925	0.00141
310.65	0.03391	0.00163
313.15	0.03876	0.00186
315.65	0.04484	0.00216
318.15	0.05119	0.00246

System: 3-amino-1,2,4-triazole + propan-2-ol; phases: Liquid, Crystal
Fixed: Pressure, kPa = 101.1
Property: Mole fraction of 3-amino-1,2,4-triazole (Liquid); method: Chromatography
Temperature, K	Mole fraction of 3-amino-1,2,4-triazole	uncertainty
283.15	0.004229	0.000204
285.65	0.005151	0.000248
288.15	0.006336	0.000305
290.65	0.00755	0.000363
293.15	0.009116	0.000439
295.65	0.01108	0.00053
298.15	0.01346	0.00065
300.65	0.01613	0.00078
303.15	0.01914	0.00092
305.65	0.02171	0.00104
308.15	0.02587	0.00124
310.65	0.03044	0.00146
313.15	0.03503	0.00168
315.65	0.03983	0.00192
318.15	0.04532	0.00218

System: 3-amino-1,2,4-triazole + acetone; phases: Liquid, Crystal
Fixed: Pressure, kPa = 101.1
Property: Mole fraction of 3-amino-1,2,4-triazole (Liquid); method: Chromatography
Temperature, K	Mole fraction of 3-amino-1,2,4-triazole	uncertainty
283.15	0.004761	0.000229
285.65	0.005149	0.000247
288.15	0.005636	0.000271
290.65	0.006172	0.000297
293.15	0.006716	0.000323
295.65	0.007268	0.000349
298.15	0.00793	0.000381
300.65	0.008692	0.000418
303.15	0.009496	0.000456
305.65	0.01042	0.0005
308.15	0.0114	0.00055
310.65	0.01227	0.00059
313.15	0.01327	0.00064
315.65	0.01416	0.00068
318.15	0.01522	0.00073

System: 3-amino-1,2,4-triazole + ethyl acetate; phases: Liquid, Crystal
Fixed: Pressure, kPa = 101.1
Property: Mole fraction of 3-amino-1,2,4-triazole (Liquid); method: Chromatography
Temperature, K	Mole fraction of 3-amino-1,2,4-triazole	uncertainty
283.15	0.00147	7.1e-05
285.65	0.001683	8.1e-05
288.15	0.0019	9.1e-05
290.65	0.00213	0.000102
293.15	0.002371	0.000114
295.65	0.002629	0.000126
298.15	0.002857	0.000137
300.65	0.003133	0.000151
303.15	0.003445	0.000166
305.65	0.003829	0.000184
308.15	0.004209	0.000202
310.65	0.004581	0.00022
313.15	0.005028	0.000242
315.65	0.005485	0.000264
318.15	0.006022	0.000289

System: 3-amino-1,2,4-triazole + 1,4-dioxane; phases: Liquid, Crystal
Fixed: Pressure, kPa = 101.1
Property: Mole fraction of 3-amino-1,2,4-triazole (Liquid); method: Chromatography
Temperature, K	Mole fraction of 3-amino-1,2,4-triazole	uncertainty
288.15	0.003245	0.000156
290.65	0.003703	0.000178
293.15	0.004038	0.000194
295.65	0.004495	0.000216
298.15	0.005061	0.000243
300.65	0.005686	0.000273
303.15	0.006401	0.000308
305.65	0.007083	0.000341
308.15	0.007847	0.000377
310.65	0.008649	0.000416
313.15	0.009524	0.000458
315.65	0.01034	0.0005
318.15	0.01136	0.00055

System: 3-amino-1,2,4-triazole + N-methylpyrrolidone; phases: Liquid, Crystal
Fixed: Pressure, kPa = 101.1
Property: Mole fraction of 3-amino-1,2,4-triazole (Liquid); method: Chromatography
Temperature, K	Mole fraction of 3-amino-1,2,4-triazole	uncertainty
283.15	0.1451	0.007
285.65	0.1517	0.0073
288.15	0.1589	0.0076
290.65	0.1658	0.008
293.15	0.1727	0.0083
295.65	0.181	0.0087
298.15	0.1893	0.0091
300.65	0.198	0.0095
303.15	0.2062	0.0099
305.65	0.2155	0.0104
308.15	0.2248	0.0108
310.65	0.2343	0.0113
313.15	0.2444	0.0117
315.65	0.2553	0.0123
318.15	0.2673	0.0128

System: 3-amino-1,2,4-triazole + butanone; phases: Liquid, Crystal
Fixed: Pressure, kPa = 101.1
Property: Mole fraction of 3-amino-1,2,4-triazole (Liquid); method: Chromatography
Temperature, K	Mole fraction of 3-amino-1,2,4-triazole	uncertainty
283.15	0.001693	8.1e-05
285.65	0.001913	9.2e-05
288.15	0.002143	0.000103
290.65	0.002422	0.000116
293.15	0.00272	0.000131
295.65	0.003063	0.000147
298.15	0.003442	0.000166
300.65	0.003857	0.000185
303.15	0.004382	0.000211
305.65	0.004968	0.000239
308.15	0.005601	0.000269
310.65	0.006256	0.000301
313.15	0.006975	0.000335
315.65	0.007682	0.000369
318.15	0.008443	0.000406
