Measured thermophysical data. Application of Pitzer and six local composition models to correlate the mean ionic activity coefficients of aqueous 1-butyl-3-methylimidazolium bromide ionic liquid solutions obtained by EMF measurements
Source: J. Chem. Thermodyn., 2017, 10.1016/j.jct.2017.02.015
Compound 1: water, H2O, InChI=1S/H2O/h1H2
Compound 2: 1-butyl-3-methylimidazolium bromide, C8H15BrN2, InChI=1S/C8H15N2.BrH/c1-3-4-5-10-7-6-9(2)8-10;/h6-8H,3-5H2,1-2H3;1H/q+1;/p-1, purity 99%

System: water + 1-butyl-3-methylimidazolium bromide; phases: Liquid
Fixed: Pressure, kPa = 100
Property: Mean ionic activity coefficient of 1-butyl-3-methylimidazolium bromide (Liquid); method: Calculated from EMF cell potential
Temperature, K	Molality, mol/kg of 1-butyl-3-methylimidazolium bromide	Mean ionic activity coefficient of 1-butyl-3-methylimidazolium bromide	uncertainty
308.15	0.0094	0.8825	0.0241
308.15	0.0191	0.8292	0.0236
308.15	0.0361	0.7636	0.0236
308.15	0.0492	0.7265	0.0235
308.15	0.068	0.6809	0.0237
308.15	0.091	0.6371	0.024
308.15	0.1105	0.6084	0.0241
308.15	0.1389	0.576	0.0244
308.15	0.1609	0.5599	0.0245
308.15	0.1838	0.5467	0.0246
308.15	0.2107	0.5394	0.0247
318.15	0.0089	0.8894	0.0239
318.15	0.0186	0.8374	0.0232
318.15	0.0371	0.7732	0.0234
318.15	0.0498	0.7367	0.0234
318.15	0.0683	0.6916	0.0236
318.15	0.0903	0.6488	0.0239
318.15	0.111	0.6204	0.024
318.15	0.1386	0.5883	0.0243
318.15	0.1611	0.5726	0.0244
318.15	0.1847	0.5594	0.0245
318.15	0.2116	0.5522	0.0246
328.15	0.0084	0.8979	0.0237
328.15	0.0181	0.8468	0.023
328.15	0.0376	0.784	0.0231
328.15	0.0511	0.7482	0.0232
328.15	0.0697	0.7039	0.0235
328.15	0.0909	0.6614	0.0237
328.15	0.1119	0.6334	0.0239
328.15	0.139	0.6014	0.0242
328.15	0.1622	0.5858	0.0243
328.15	0.1837	0.5727	0.0244
328.15	0.2144	0.5657	0.0244
