Measured thermophysical data. Solubility and solution thermodynamics of glucose and fructose in three asymmetrical dicationic ionic liquids from 323.15 K to 353.15 K
Source: J. Chem. Thermodyn., 2019, 10.1016/j.jct.2019.105879
Compound 1: D-glucose, C6H12O6, InChI=1S/C6H12O6/c7-1-3(9)5(11)6(12)4(10)2-8/h1,3-6,8-12H,2H2/t3-,4+,5+,6+/m0/s1, purity 99.9%
Compound 2: D-fructose, C6H12O6, InChI=1S/C6H12O6/c7-1-3(9)5(11)6(12)4(10)2-8/h3,5-9,11-12H,1-2H2/t3-,5-,6-/m1/s1, purity 99%
Compound 3: 1-methyl-3-(3-(trimethylammonio)propyl)-1H-imidazolium bis(dicyanamide), C14H21N9, InChI=1S/C10H21N3.2C2N3/c1-11-7-8-12(10-11)6-5-9-13(2,3)4;2*3-1-5-2-4/h7-8,10H,5-6,9H2,1-4H3;;/q+2;2*-1, purity 99%
Compound 4: 1-methyl-1-(3-(trimethylammonio)propyl)piperidinium dicyanamide, C16H28N8, InChI=1S/C12H28N2.2C2N3/c1-13(2,3)9-8-12-14(4)10-6-5-7-11-14;2*3-1-5-2-4/h5-12H2,1-4H3;;/q+2;2*-1, purity 99%
Compound 5: 1-(3-(trimethylammonio)propyl)pyridinium dicyanamide, C15H20N8, InChI=1S/C11H20N2.2C2N3/c1-13(2,3)11-7-10-12-8-5-4-6-9-12;2*3-1-5-2-4/h4-6,8-9H,7,10-11H2,1-3H3;;/q+2;2*-1, purity 99%
Compound 6: 1-butyl-3-methylimidazolium dicyanamide, C10H15N5, InChI=1S/C8H15N2.C2N3/c1-3-4-5-10-7-6-9(2)8-10;3-1-5-2-4/h6-8H,3-5H2,1-2H3;/q+1;-1, purity 99%

System: D-glucose + 1-methyl-3-(3-(trimethylammonio)propyl)-1H-imidazolium bis(dicyanamide); phases: Liquid, Crystal
Fixed: Pressure, kPa = 100
Property: Mole fraction of D-glucose (Liquid); method: dinitrosalicyclic acid colorimetric method
Temperature, K	Mole fraction of D-glucose	uncertainty
323.15	0.4783	0.0192
328.15	0.5152	0.0194
333.15	0.5475	0.0181
338.15	0.5758	0.017
343.15	0.6002	0.016
348.15	0.6225	0.0152
353.15	0.6425	0.0144

System: D-glucose + 1-methyl-1-(3-(trimethylammonio)propyl)piperidinium dicyanamide; phases: Liquid, Crystal
Fixed: Pressure, kPa = 100
Property: Mole fraction of D-glucose (Liquid); method: dinitrosalicyclic acid colorimetric method
Temperature, K	Mole fraction of D-glucose	uncertainty
323.15	0.3311	0.0133
328.15	0.3466	0.0139
333.15	0.3605	0.0144
338.15	0.3723	0.0149
343.15	0.3838	0.0154
348.15	0.3962	0.0159
353.15	0.4072	0.0163

System: D-glucose + 1-(3-(trimethylammonio)propyl)pyridinium dicyanamide; phases: Liquid, Crystal
Fixed: Pressure, kPa = 100
Property: Mole fraction of D-glucose (Liquid); method: dinitrosalicyclic acid colorimetric method
Temperature, K	Mole fraction of D-glucose	uncertainty
323.15	0.225	0.009
328.15	0.2463	0.0099
333.15	0.2682	0.0107
338.15	0.2874	0.0115
343.15	0.3065	0.0123
348.15	0.3285	0.0132
353.15	0.3445	0.0138

System: D-fructose + 1-methyl-3-(3-(trimethylammonio)propyl)-1H-imidazolium bis(dicyanamide); phases: Liquid, Crystal
Fixed: Pressure, kPa = 100
Property: Mole fraction of D-fructose (Liquid); method: dinitrosalicyclic acid colorimetric method
Temperature, K	Mole fraction of D-fructose	uncertainty
323.15	0.6068	0.0158
328.15	0.6373	0.0146
333.15	0.6635	0.0135
338.15	0.6855	0.0127
343.15	0.7084	0.0118
348.15	0.7267	0.011
353.15	0.7432	0.0104

System: D-fructose + 1-methyl-1-(3-(trimethylammonio)propyl)piperidinium dicyanamide; phases: Liquid, Crystal
Fixed: Pressure, kPa = 100
Property: Mole fraction of D-fructose (Liquid); method: dinitrosalicyclic acid colorimetric method
Temperature, K	Mole fraction of D-fructose	uncertainty
323.15	0.3752	0.015
328.15	0.3952	0.0158
333.15	0.4136	0.0166
338.15	0.4308	0.0173
343.15	0.4496	0.018
348.15	0.4608	0.0185
353.15	0.4715	0.0189

System: D-fructose + 1-(3-(trimethylammonio)propyl)pyridinium dicyanamide; phases: Liquid, Crystal
Fixed: Pressure, kPa = 100
Property: Mole fraction of D-fructose (Liquid); method: dinitrosalicyclic acid colorimetric method
Temperature, K	Mole fraction of D-fructose	uncertainty
323.15	0.4116	0.0165
328.15	0.4398	0.0176
333.15	0.4665	0.0187
338.15	0.4924	0.0197
343.15	0.508	0.0197
348.15	0.5316	0.0188
353.15	0.5455	0.0182

System: D-glucose + 1-butyl-3-methylimidazolium dicyanamide; phases: Liquid, Crystal
Fixed: Pressure, kPa = 100
Property: Mole fraction of D-glucose (Liquid); method: dinitrosalicyclic acid colorimetric method
Temperature, K	Mole fraction of D-glucose	uncertainty
288.15	0.1436	0.0058
298.15	0.1674	0.0067
308.15	0.1929	0.0077
318.15	0.2285	0.0092
328.15	0.2518	0.0101
338.15	0.2793	0.0112
348.15	0.3192	0.0128
