Measured thermophysical data. Determination of the standard molar enthalpies of formation and heat capacities of Bi25FeO39 (s) and Bi2Fe4O9 (s) by calorimetry
Source: J. Chem. Thermodyn., 2018, 10.1016/j.jct.2017.11.015
Compound 1: iron, Fe, InChI=1S/Fe
Compound 2: bismuth, Bi, InChI=1S/Bi
Compound 3: oxygen, O2, InChI=1S/O2/c1-2
Compound 4: bismuth ferrite (Bi2Fe4O9), Bi2Fe4O9, InChI=1S/2Bi.4Fe.9O/q6*+3;9*-2, purity 99.99%
Compound 5: bismuth oxide, Bi2O3, InChI=1S/2Bi.3O/q2*+3;3*-2, purity 99.99%
Compound 6: ferric oxide, Fe2O3, InChI=1S/2Fe.3O/q2*+3;3*-2, purity 99.99%

System: bismuth ferrite (Bi2Fe4O9); phases: Crystal
Fixed: Pressure, kPa = 101.325
Property: Molar heat capacity at constant pressure, J/K/mol (Crystal); method: Small sample (50 mg) DSC
Temperature, K	Molar heat capacity at constant pressure, J/K/mol	uncertainty
313	308.3	11.8
353	327.5	11.9
403	340.5	12
453	348.8	12.1
503	354.1	12.1
553	356.8	12.1
603	360.3	12.1
653	363.6	12.1
703	363.9	12.1
753	364.7	12.1
773	366.3	12.2

System: bismuth oxide; phases: Crystal
Fixed: Pressure, kPa = 101.325
Property: Molar heat capacity at constant pressure, J/K/mol (Crystal); method: Small sample (50 mg) DSC
Temperature, K	Molar heat capacity at constant pressure, J/K/mol	uncertainty
333	115.4	3.8
353	117	3.9
403	120.1	4
453	122.4	4.1
503	124.6	4.1
553	126.5	4.2
603	128	4.2
653	129.7	4.3
703	131.4	4.4
753	132.7	4.4
778	133.2	4.4
803	133.3	4.4
813	133.5	4.4

System: bismuth oxide + ferric oxide; phases: Crystal of intercomponent compound 1
Fixed: Pressure, kPa = 100
Fixed: Amount ratio of solute to solvent of bismuth oxide = 25
Property: Molar heat capacity at constant pressure, J/K/mol (Crystal of intercomponent compound 1); method: Small sample (50 mg) DSC
Temperature, K	Molar heat capacity at constant pressure, J/K/mol	uncertainty
308	1355.9	53.5
353	1430.1	53.9
403	1482.3	54.1
453	1520.3	54.3
503	1543.9	54.5
553	1563.9	54.6
603	1587.1	54.7
653	1610.4	54.9
703	1628.1	55
753	1644.7	55.1
803	1658.4	55.1
818	1662.7	55.2

Reaction: -4 iron + -2 bismuth + 1 bismuth ferrite (Bi2Fe4O9) + -4.5 oxygen
Property: Molar enthalpy of reaction, kJ/mol
-2170
