Measured thermophysical data. Measurements of activity coefficients at infinite dilution of aromatic  and aliphatic hydrocarbons, alcohols, and water in the new ionic  liquid [EMIM][SCN] using GLC
Source: J. Chem. Thermodyn., 2008, 10.1016/j.jct.2008.01.004
Compound 1: 1-ethyl-3-methylimidazolium thiocyanate, C7H11N3S, InChI=1S/C6H11N2.CHNS/c1-3-8-5-4-7(2)6-8;2-1-3/h4-6H,3H2,1-2H3;3H/q+1;/p-1, purity 98%
Compound 2: hexane, C6H14, InChI=1S/C6H14/c1-3-5-6-4-2/h3-6H2,1-2H3
Compound 3: heptane, C7H16, InChI=1S/C7H16/c1-3-5-7-6-4-2/h3-7H2,1-2H3
Compound 4: octane, C8H18, InChI=1S/C8H18/c1-3-5-7-8-6-4-2/h3-8H2,1-2H3
Compound 5: nonane, C9H20, InChI=1S/C9H20/c1-3-5-7-9-8-6-4-2/h3-9H2,1-2H3
Compound 6: decane, C10H22, InChI=1S/C10H22/c1-3-5-7-9-10-8-6-4-2/h3-10H2,1-2H3
Compound 7: cyclopentane, C5H10, InChI=1S/C5H10/c1-2-4-5-3-1/h1-5H2
Compound 8: cyclohexane, C6H12, InChI=1S/C6H12/c1-2-4-6-5-3-1/h1-6H2
Compound 9: cycloheptane, C7H14, InChI=1S/C7H14/c1-2-4-6-7-5-3-1/h1-7H2
Compound 10: cyclooctane, C8H16, InChI=1S/C8H16/c1-2-4-6-8-7-5-3-1/h1-8H2
Compound 11: 1-pentene, C5H10, InChI=1S/C5H10/c1-3-5-4-2/h3H,1,4-5H2,2H3
Compound 12: hex-1-ene, C6H12, InChI=1S/C6H12/c1-3-5-6-4-2/h3H,1,4-6H2,2H3
Compound 13: 1-heptene, C7H14, InChI=1S/C7H14/c1-3-5-7-6-4-2/h3H,1,4-7H2,2H3
Compound 14: oct-1-ene, C8H16, InChI=1S/C8H16/c1-3-5-7-8-6-4-2/h3H,1,4-8H2,2H3
Compound 15: 1-pentyne, C5H8, InChI=1S/C5H8/c1-3-5-4-2/h1H,4-5H2,2H3
Compound 16: 1-hexyne, C6H10, InChI=1S/C6H10/c1-3-5-6-4-2/h1H,4-6H2,2H3
Compound 17: 1-heptyne, C7H12, InChI=1S/C7H12/c1-3-5-7-6-4-2/h1H,4-7H2,2H3
Compound 18: 1-octyne, C8H14, InChI=1S/C8H14/c1-3-5-7-8-6-4-2/h1H,4-8H2,2H3
Compound 19: benzene, C6H6, InChI=1S/C6H6/c1-2-4-6-5-3-1/h1-6H
Compound 20: toluene, C7H8, InChI=1S/C7H8/c1-7-5-3-2-4-6-7/h2-6H,1H3
Compound 21: ethylbenzene, C8H10, InChI=1S/C8H10/c1-2-8-6-4-3-5-7-8/h3-7H,2H2,1H3
Compound 22: 1,2-dimethylbenzene, C8H10, InChI=1S/C8H10/c1-7-5-3-4-6-8(7)2/h3-6H,1-2H3
Compound 23: 1,3-dimethylbenzene, C8H10, InChI=1S/C8H10/c1-7-4-3-5-8(2)6-7/h3-6H,1-2H3
Compound 24: 1,4-dimethylbenzene, C8H10, InChI=1S/C8H10/c1-7-3-5-8(2)6-4-7/h3-6H,1-2H3
Compound 25: methanol, CH4O, InChI=1S/CH4O/c1-2/h2H,1H3
Compound 26: ethanol, C2H6O, InChI=1S/C2H6O/c1-2-3/h3H,2H2,1H3
Compound 27: propan-1-ol, C3H8O, InChI=1S/C3H8O/c1-2-3-4/h4H,2-3H2,1H3
Compound 28: butan-1-ol, C4H10O, InChI=1S/C4H10O/c1-2-3-4-5/h5H,2-4H2,1H3
Compound 29: pentan-1-ol, C5H12O, InChI=1S/C5H12O/c1-2-3-4-5-6/h6H,2-5H2,1H3
Compound 30: water, H2O, InChI=1S/H2O/h1H2

System: hexane + 1-ethyl-3-methylimidazolium thiocyanate; phases: Liquid
Fixed: Pressure, kPa = 101
Fixed: Mole fraction of hexane = 0
Property: Activity coefficient of hexane (Liquid); method: Chromatography
Temperature, K	Activity coefficient of hexane	uncertainty
298.15	327	22
308.15	291	20
318.15	259	18
328.15	232	16
338.15	210	14

System: heptane + 1-ethyl-3-methylimidazolium thiocyanate; phases: Liquid
Fixed: Pressure, kPa = 101
Fixed: Mole fraction of heptane = 0
Property: Activity coefficient of heptane (Liquid); method: Chromatography
Temperature, K	Activity coefficient of heptane	uncertainty
298.15	475	33
308.15	434	30
318.15	398	27
328.15	365	25
338.15	337	23
348.15	315	22
358.15	294	20

System: octane + 1-ethyl-3-methylimidazolium thiocyanate; phases: Liquid
Fixed: Pressure, kPa = 101
Fixed: Mole fraction of octane = 0
Property: Activity coefficient of octane (Liquid); method: Chromatography
Temperature, K	Activity coefficient of octane	uncertainty
298.15	700	48
308.15	640	44
318.15	587	40
328.15	541	37
338.15	500	34
348.15	464	32
358.15	435	30

System: nonane + 1-ethyl-3-methylimidazolium thiocyanate; phases: Liquid
Fixed: Pressure, kPa = 101
Fixed: Mole fraction of nonane = 0
Property: Activity coefficient of nonane (Liquid); method: Chromatography
Temperature, K	Activity coefficient of nonane	uncertainty
298.15	996	69
308.15	915	63
318.15	842	58
328.15	778	54
338.15	721	50
348.15	672	46
358.15	628	43

System: decane + 1-ethyl-3-methylimidazolium thiocyanate; phases: Liquid
Fixed: Pressure, kPa = 101
Fixed: Mole fraction of decane = 0
Property: Activity coefficient of decane (Liquid); method: Chromatography
Temperature, K	Activity coefficient of decane	uncertainty
298.15	1341	92
308.15	1240	86
318.15	1155	80
328.15	1080	74
338.15	1010	70
348.15	948	65
358.15	892	61

System: cyclopentane + 1-ethyl-3-methylimidazolium thiocyanate; phases: Liquid
Fixed: Pressure, kPa = 101
Fixed: Mole fraction of cyclopentane = 0
Property: Activity coefficient of cyclopentane (Liquid); method: Chromatography
Temperature, K	Activity coefficient of cyclopentane	uncertainty
298.15	68.4	4.7
308.15	62.9	4.3
318.15	57.9	4
328.15	53.4	3.7
338.15	49.9	3.4
348.15	46.8	3.2
358.15	43.8	3

System: cyclohexane + 1-ethyl-3-methylimidazolium thiocyanate; phases: Liquid
Fixed: Pressure, kPa = 101
Fixed: Mole fraction of cyclohexane = 0
Property: Activity coefficient of cyclohexane (Liquid); method: Chromatography
Temperature, K	Activity coefficient of cyclohexane	uncertainty
298.15	113.9	7.8
308.15	103.2	7.1
318.15	93.5	6.4
328.15	85	5.8
338.15	78.4	5.4
348.15	72.6	5
358.15	67.7	4.6

System: cycloheptane + 1-ethyl-3-methylimidazolium thiocyanate; phases: Liquid
Fixed: Pressure, kPa = 101
Fixed: Mole fraction of cycloheptane = 0
Property: Activity coefficient of cycloheptane (Liquid); method: Chromatography
Temperature, K	Activity coefficient of cycloheptane	uncertainty
298.15	136.2	9.3
308.15	122.9	8.4
318.15	111.4	7.6
328.15	101.6	7
338.15	93.2	6.4
348.15	85.8	5.9
358.15	80.1	5.5

System: cyclooctane + 1-ethyl-3-methylimidazolium thiocyanate; phases: Liquid
Fixed: Pressure, kPa = 101
Fixed: Mole fraction of cyclooctane = 0
Property: Activity coefficient of cyclooctane (Liquid); method: Chromatography
Temperature, K	Activity coefficient of cyclooctane	uncertainty
298.15	189	13
308.15	169	12
318.15	152	10
328.15	137	9
338.15	125	9
348.15	114	8
358.15	106	7

System: 1-pentene + 1-ethyl-3-methylimidazolium thiocyanate; phases: Liquid
Fixed: Pressure, kPa = 101
Fixed: Mole fraction of 1-pentene = 0
Property: Activity coefficient of 1-pentene (Liquid); method: Chromatography
Temperature, K	Activity coefficient of 1-pentene	uncertainty
298.15	64.6	4.4
308.15	59.7	4.1
318.15	55.8	3.8
328.15	52	4
338.15	48.7	3.3

System: hex-1-ene + 1-ethyl-3-methylimidazolium thiocyanate; phases: Liquid
Fixed: Pressure, kPa = 101
Fixed: Mole fraction of hex-1-ene = 0
Property: Activity coefficient of hex-1-ene (Liquid); method: Chromatography
Temperature, K	Activity coefficient of hex-1-ene	uncertainty
298.15	104.5	7.2
308.15	96.9	6.6
318.15	90.9	6.2
328.15	85.1	5.8
338.15	80.2	5.5
348.15	75.5	5.2
358.15	71.7	4.9

System: 1-heptene + 1-ethyl-3-methylimidazolium thiocyanate; phases: Liquid
Fixed: Pressure, kPa = 101
Fixed: Mole fraction of 1-heptene = 0
Property: Activity coefficient of 1-heptene (Liquid); method: Chromatography
Temperature, K	Activity coefficient of 1-heptene	uncertainty
298.15	171	12
308.15	159	11
318.15	149	10
328.15	140	10
338.15	133	9
348.15	126	9
358.15	120	8

System: oct-1-ene + 1-ethyl-3-methylimidazolium thiocyanate; phases: Liquid
Fixed: Pressure, kPa = 101
Fixed: Mole fraction of oct-1-ene = 0
Property: Activity coefficient of oct-1-ene (Liquid); method: Chromatography
Temperature, K	Activity coefficient of oct-1-ene	uncertainty
298.15	277	19
308.15	255	18
318.15	238	16
328.15	221	15
338.15	206	14
348.15	193	13
358.15	183	13

System: 1-pentyne + 1-ethyl-3-methylimidazolium thiocyanate; phases: Liquid
Fixed: Pressure, kPa = 101
Fixed: Mole fraction of 1-pentyne = 0
Property: Activity coefficient of 1-pentyne (Liquid); method: Chromatography
Temperature, K	Activity coefficient of 1-pentyne	uncertainty
298.15	7.48	0.51
308.15	7.63	0.52
318.15	7.76	0.53
328.15	7.89	0.54
338.15	8.01	0.55
348.15	8.13	0.55
358.15	8.25	0.56

System: 1-hexyne + 1-ethyl-3-methylimidazolium thiocyanate; phases: Liquid
Fixed: Pressure, kPa = 101
Fixed: Mole fraction of 1-hexyne = 0
Property: Activity coefficient of 1-hexyne (Liquid); method: Chromatography
Temperature, K	Activity coefficient of 1-hexyne	uncertainty
298.15	12.08	0.82
308.15	12.24	0.84
318.15	12.4	0.8
328.15	12.55	0.86
338.15	12.69	0.87
348.15	12.82	0.88
358.15	12.95	0.88

System: 1-heptyne + 1-ethyl-3-methylimidazolium thiocyanate; phases: Liquid
Fixed: Pressure, kPa = 101
Fixed: Mole fraction of 1-heptyne = 0
Property: Activity coefficient of 1-heptyne (Liquid); method: Chromatography
Temperature, K	Activity coefficient of 1-heptyne	uncertainty
298.15	21.78	1.49
308.15	21.74	1.49
318.15	21.71	1.48
328.15	21.68	1.48
338.15	21.65	1.48
348.15	21.63	1.48
358.15	21.6	1.5

System: 1-octyne + 1-ethyl-3-methylimidazolium thiocyanate; phases: Liquid
Fixed: Pressure, kPa = 101
Fixed: Mole fraction of 1-octyne = 0
Property: Activity coefficient of 1-octyne (Liquid); method: Chromatography
Temperature, K	Activity coefficient of 1-octyne	uncertainty
298.15	38	3
308.15	37.4	2.6
318.15	36.8	2.5
328.15	36.3	2.5
338.15	35.8	2.4
348.15	35.4	2.4
358.15	34.9	2.4

System: benzene + 1-ethyl-3-methylimidazolium thiocyanate; phases: Liquid
Fixed: Pressure, kPa = 101
Fixed: Mole fraction of benzene = 0
Property: Activity coefficient of benzene (Liquid); method: Chromatography
Temperature, K	Activity coefficient of benzene	uncertainty
298.15	3.43	0.23
308.15	3.45	0.23
318.15	3.47	0.24
328.15	3.49	0.24
338.15	3.51	0.24
348.15	3.53	0.24
358.15	3.55	0.24
368.15	3.57	0.24

System: toluene + 1-ethyl-3-methylimidazolium thiocyanate; phases: Liquid
Fixed: Pressure, kPa = 101
Fixed: Mole fraction of toluene = 0
Property: Activity coefficient of toluene (Liquid); method: Chromatography
Temperature, K	Activity coefficient of toluene	uncertainty
298.15	6.01	0.41
308.15	6.04	0.41
318.15	6.07	0.41
328.15	6.1	0.4
338.15	6.12	0.42
348.15	6.15	0.42
358.15	6.17	0.42
368.15	6.2	0.4

System: ethylbenzene + 1-ethyl-3-methylimidazolium thiocyanate; phases: Liquid
Fixed: Pressure, kPa = 101
Fixed: Mole fraction of ethylbenzene = 0
Property: Activity coefficient of ethylbenzene (Liquid); method: Chromatography
Temperature, K	Activity coefficient of ethylbenzene	uncertainty
298.15	11.75	0.8
308.15	11.58	0.79
318.15	11.42	0.78
328.15	11.26	0.77
338.15	11.14	0.76
348.15	11.01	0.75
358.15	10.9	0.7
368.15	10.78	0.74

System: 1,2-dimethylbenzene + 1-ethyl-3-methylimidazolium thiocyanate; phases: Liquid
Fixed: Pressure, kPa = 101
Fixed: Mole fraction of 1,2-dimethylbenzene = 0
Property: Activity coefficient of 1,2-dimethylbenzene (Liquid); method: Chromatography
Temperature, K	Activity coefficient of 1,2-dimethylbenzene	uncertainty
298.15	8.24	0.56
308.15	8.28	0.56
318.15	8.32	0.57
328.15	8.36	0.57
338.15	8.4	0.6
348.15	8.43	0.58
358.15	8.46	0.58
368.15	8.5	0.6

System: 1,3-dimethylbenzene + 1-ethyl-3-methylimidazolium thiocyanate; phases: Liquid
Fixed: Pressure, kPa = 101
Fixed: Mole fraction of 1,3-dimethylbenzene = 0
Property: Activity coefficient of 1,3-dimethylbenzene (Liquid); method: Chromatography
Temperature, K	Activity coefficient of 1,3-dimethylbenzene	uncertainty
298.15	11.2	0.8
308.15	11.16	0.76
318.15	11.12	0.76
328.15	11.09	0.76
338.15	11.06	0.75
348.15	11.03	0.75
358.15	11	1
368.15	10.97	0.75

System: 1,4-dimethylbenzene + 1-ethyl-3-methylimidazolium thiocyanate; phases: Liquid
Fixed: Pressure, kPa = 101
Fixed: Mole fraction of 1,4-dimethylbenzene = 0
Property: Activity coefficient of 1,4-dimethylbenzene (Liquid); method: Chromatography
Temperature, K	Activity coefficient of 1,4-dimethylbenzene	uncertainty
298.15	10.18	0.69
308.15	10.2	0.7
318.15	10.23	0.7
328.15	10.25	0.7
338.15	10.28	0.7
348.15	10.3	0.7
358.15	10.32	0.7
368.15	10.34	0.71

System: methanol + 1-ethyl-3-methylimidazolium thiocyanate; phases: Liquid
Fixed: Pressure, kPa = 101
Fixed: Mole fraction of methanol = 0
Property: Activity coefficient of methanol (Liquid); method: Chromatography
Temperature, K	Activity coefficient of methanol	uncertainty
298.15	0.493	0.038
308.15	0.487	0.037
318.15	0.481	0.037
328.15	0.476	0.037
338.15	0.471	0.037
348.15	0.467	0.036
358.15	0.463	0.036
368.15	0.459	0.036

System: ethanol + 1-ethyl-3-methylimidazolium thiocyanate; phases: Liquid
Fixed: Pressure, kPa = 101
Fixed: Mole fraction of ethanol = 0
Property: Activity coefficient of ethanol (Liquid); method: Chromatography
Temperature, K	Activity coefficient of ethanol	uncertainty
298.15	1.009	0.063
308.15	0.977	0.061
318.15	0.946	0.06
328.15	0.919	0.058
338.15	0.893	0.057
348.15	0.87	0.06
358.15	0.85	0.05
368.15	0.83	0.05

System: propan-1-ol + 1-ethyl-3-methylimidazolium thiocyanate; phases: Liquid
Fixed: Pressure, kPa = 101
Fixed: Mole fraction of propan-1-ol = 0
Property: Activity coefficient of propan-1-ol (Liquid); method: Chromatography
Temperature, K	Activity coefficient of propan-1-ol	uncertainty
308.15	1.44	0.09
318.15	1.38	0.09
328.15	1.33	0.09
338.15	1.28	0.08
348.15	1.25	0.08
358.15	1.21	0.08
368.15	1.18	0.08

System: butan-1-ol + 1-ethyl-3-methylimidazolium thiocyanate; phases: Liquid
Fixed: Pressure, kPa = 101
Fixed: Mole fraction of butan-1-ol = 0
Property: Activity coefficient of butan-1-ol (Liquid); method: Chromatography
Temperature, K	Activity coefficient of butan-1-ol	uncertainty
308.15	2.23	0.15
318.15	2.13	0.14
328.15	2.05	0.14
338.15	1.96	0.13
348.15	1.89	0.13
358.15	1.82	0.12
368.15	1.77	0.12

System: pentan-1-ol + 1-ethyl-3-methylimidazolium thiocyanate; phases: Liquid
Fixed: Pressure, kPa = 101
Fixed: Mole fraction of pentan-1-ol = 0
Property: Activity coefficient of pentan-1-ol (Liquid); method: Chromatography
Temperature, K	Activity coefficient of pentan-1-ol	uncertainty
328.15	2.93	0.2
338.15	2.82	0.19
348.15	2.73	0.19
358.15	2.65	0.18
368.15	2.58	0.18

System: water + 1-ethyl-3-methylimidazolium thiocyanate; phases: Liquid
Fixed: Pressure, kPa = 101
Fixed: Mole fraction of water = 0
Property: Activity coefficient of water (Liquid); method: Chromatography
Temperature, K	Activity coefficient of water	uncertainty
328.15	0.273	0.03
338.15	0.275	0.03
348.15	0.277	0.03
358.15	0.279	0.03
368.15	0.281	0.03
