Measured thermophysical data. Densities and apparent molar volumes of aqueous LiI solutions at temperatures from (296 to 600) K and at pressures up to 30 MPa
Source: J. Chem. Thermodyn., 2004, 10.1016/j.jct.2004.06.001
Compound 1: lithium iodide, ILi, InChI=1S/HI.Li/h1H;/q;+1/p-1, purity 99.2%
Compound 2: water, H2O, InChI=1S/H2O/h1H2

System: water + lithium iodide; phases: Liquid
Property: Mass density, kg/m3 (Liquid); method: PIESOM
Temperature, K	Molality, mol/kg of lithium iodide	Pressure, kPa	Mass density, kg/m3	uncertainty
296.95	1.6046	2530	1145.62	0.71
296.95	1.6046	7845	1148.05	0.71
296.95	1.6046	17808	1152.57	0.74
296.95	1.6046	25811	1156.03	0.76
297.35	0.6621	2354	1061.06	0.65
297.35	0.6621	12415	1065.64	0.66
297.35	0.6621	21241	1069.52	0.69
297.35	0.6621	29243	1072.92	0.71
298.15	0.0906	101.325	1005.8	0.61
298.15	0.2832	101.325	1024.34	0.62
298.15	0.6621	101.325	1059.93	0.64
298.15	1.6046	101.325	1144.13	0.7
298.15	3.0886	101.325	1266.24	0.79
308.15	0.0906	101.325	1002.8	0.61
308.15	0.2832	101.325	1021.1	0.62
308.15	0.6621	101.325	1056.4	0.64
308.15	1.6046	101.325	1139.99	0.7
308.15	3.0886	101.325	1261.08	0.79
310.65	3.0886	2040	1260.87	0.79
310.65	3.0886	17475	1267.92	0.83
310.65	3.0886	24026	1270.75	0.85
313	0.2832	3020	1020.66	0.62
313	0.2832	10866	1024.09	0.64
313	0.2832	21163	1028.44	0.66
313	0.2832	31204	1032.59	0.7
313.75	0.0906	2275	1001.71	0.61
313.75	0.0906	12572	1006.16	0.63
313.75	0.0906	28596	1012.88	0.67
318.15	0.0906	101.325	998.97	0.61
318.15	0.2832	101.325	1017.22	0.62
318.15	0.6621	101.325	1052.27	0.64
318.15	1.6046	101.325	1135.39	0.7
318.15	3.0886	101.325	1255.57	0.79
328.15	0.0906	101.325	994.42	0.61
328.15	0.2832	101.325	1012.6	0.62
328.15	0.6621	101.325	1047.5	0.64
328.15	1.6046	101.325	1130.28	0.7
328.15	3.0886	101.325	1249.72	0.78
338.15	0.0906	101.325	989.22	0.61
338.15	0.2832	101.325	1007.35	0.62
338.15	0.6621	101.325	1042.13	0.64
338.15	1.6046	101.325	1124.64	0.7
338.15	3.0886	101.325	1243.52	0.78
348.15	0.0906	101.325	983.48	0.6
348.15	0.2832	101.325	1001.55	0.62
348.15	0.6621	101.325	1036.22	0.64
348.15	1.6046	101.325	1118.49	0.7
348.15	3.0886	101.325	1236.98	0.78
348.4	0.6621	2157	1037.06	0.64
348.4	0.6621	11670	1041.32	0.66
348.4	0.6621	23850	1046.48	0.7
348.4	0.6621	29910	1048.86	0.72
348.45	0.2832	3334	1002.87	0.62
348.45	0.2832	13808	1007.4	0.64
348.45	0.2832	22536	1011.08	0.67
348.45	0.2832	27851	1013.21	0.69
348.5	1.6046	3589	1119.98	0.7
348.5	1.6046	10787	1123.27	0.72
348.5	1.6046	21516	1128.02	0.75
348.5	1.6046	27694	1130.57	0.77
349.05	0.0906	2275	983.91	0.61
349.05	0.0906	7668	986.28	0.62
349.05	0.0906	16573	990.13	0.64
349.05	0.0906	21241	992.14	0.65
373.2	3.0886	6276	1222.39	0.79
373.2	3.0886	17358	1227.68	0.83
373.2	3.0886	24674	1230.96	0.86
398.15	0.0906	3432	949.25	0.6
398.15	0.0906	8728	951.87	0.61
398.15	0.0906	16181	955.54	0.64
398.15	0.0906	22710	958.45	0.66
398.15	0.6621	5511	1002.67	0.64
398.15	0.6621	15593	1007.74	0.67
398.15	0.6621	22554	1011.13	0.7
398.15	0.6621	29087	1013.99	0.72
398.2	1.6046	2942	1082.97	0.69
398.2	1.6046	10787	1087.05	0.72
398.2	1.6046	21025	1092.08	0.75
398.2	1.6046	28753	1095.49	0.78
398.3	0.2832	3511	967.1	0.61
398.3	0.2832	11925	971.24	0.64
398.3	0.2832	21398	975.83	0.67
398.3	0.2832	30636	979.93	0.7
448.15	0.2832	4903	922.17	0.6
448.15	0.2832	15593	928.54	0.64
448.15	0.2832	24340	933.52	0.67
448.15	3.0886	4570	1157.85	0.78
448.15	3.0886	14573	1163.98	0.81
448.15	3.0886	22869	1168.32	0.85
448.3	0.0906	3668	902.88	0.59
448.3	0.0906	7924	905.5	0.6
448.3	0.0906	15436	910.16	0.63
448.3	0.0906	21810	913.8	0.65
448.33	0.6621	4805	957.8	0.63
448.33	0.6621	15200	963.27	0.66
448.33	0.6621	24026	968.45	0.7
448.33	0.6621	28675	970.94	0.72
448.45	1.6046	3099	1038.18	0.68
448.45	1.6046	10375	1042.6	0.71
448.45	1.6046	25497	1050.41	0.77
472.53	0.2832	8081	897.8	0.61
472.53	0.2832	16985	904	0.64
472.53	0.2832	23614	908.3	0.66
474.75	1.6046	6943	1014.9	0.69
474.75	1.6046	13317	1020.2	0.71
474.75	1.6046	24595	1027	0.76
475	0.6621	6198	929.3	0.63
475	0.6621	15926	936.2	0.66
475	0.6621	24517	941.7	0.7
479.05	3.0886	7590	1129.2	0.78
479.05	3.0886	16907	1135.6	0.82
479.05	3.0886	21771	1138.5	0.84
521.05	0.6621	7924	872.4	0.61
521.05	0.6621	11846	876.3	0.63
521.05	0.6621	18221	882.3	0.65
522.63	0.2832	9473	834.6	0.59
522.63	0.2832	21516	846.6	0.64
522.63	0.2832	27047	851.1	0.66
522.91	1.6046	8493	961.6	0.68
522.91	1.6046	14867	967.1	0.71
522.91	1.6046	20050	971.2	0.73
523.15	3.0886	7178	1079.91	0.77
523.15	3.0886	12415	1084.49	0.79
523.15	3.0886	21810	1091.96	0.84
572.75	0.6621	12415	795.1	0.6
572.75	0.6621	19201	806	0.63
572.75	0.6621	24419	813.4	0.65
573.15	1.6046	11591	896.3	0.67
573.15	1.6046	16338	902.6	0.7
573.15	1.6046	20672	907.3	0.72
575.75	0.2832	15022	750.9	0.57
575.75	0.2832	19201	758.8	0.59
575.75	0.2832	24516	767.7	0.62
600.25	3.0886	12650	1019.35	0.79
600.25	3.0886	18534	1025.9	0.83
600.25	3.0886	22143	1029.61	0.85
