Measured thermophysical data. Partial molar volume and isentropic compressibility of symmetrical and asymmetrical quaternary ammonium bromides in aqueous solution
Source: J. Chem. Thermodyn., 2015, 10.1016/j.jct.2015.03.017
Compound 1: tetrabutylammonium bromide, C16H36BrN, InChI=1S/C16H36N.BrH/c1-5-9-13-17(14-10-6-2,15-11-7-3)16-12-8-4;/h5-16H2,1-4H3;1H/q+1;/p-1, purity 99%
Compound 2: tetra-iso-butyl ammonium bromide, C16H36BrN, InChI=1S/C16H36N.BrH/c1-13(2)9-17(10-14(3)4,11-15(5)6)12-16(7)8;/h13-16H,9-12H2,1-8H3;1H/q+1;/p-1
Compound 3: tetra-sec-butyl ammonium bromide, C16H36BrN, InChI=1S/C16H36N.BrH/c1-9-13(5)17(14(6)10-2,15(7)11-3)16(8)12-4;/h13-16H,9-12H2,1-8H3;1H/q+1;/p-1
Compound 4: N-butyl-N,N-bis(2-methylpropyl)-1-butanaminium bromide, C16H36BrN, InChI=1S/C16H36N.BrH/c1-7-9-11-17(12-10-8-2,13-15(3)4)14-16(5)6;/h15-16H,7-14H2,1-6H3;1H/q+1;/p-1
Compound 5: N-butyl-N,N-bis(1-methylpropyl)-1-butanaminium bromide, C16H36BrN, InChI=1S/C16H36N.BrH/c1-7-11-13-17(14-12-8-2,15(5)9-3)16(6)10-4;/h15-16H,7-14H2,1-6H3;1H/q+1;/p-1
Compound 6: water, H2O, InChI=1S/H2O/h1H2, purity 99.8%

System: tetrabutylammonium bromide + water; phases: Liquid
Fixed: Pressure, kPa = 74.66
Property: Mass density, kg/m3 (Liquid); method: Vibrating tube method
Temperature, K	Molality, mol/kg of tetrabutylammonium bromide	Mass density, kg/m3	uncertainty
278.15	0.011425	1000.267	0.11
278.15	0.02179	1000.551	0.11
278.15	0.025642	1000.659	0.109
278.15	0.037673	1000.968	0.11
278.15	0.045902	1001.188	0.11
278.15	0.058555	1001.547	0.11
278.15	0.071098	1001.863	0.11
278.15	0.079681	1002.092	0.111
278.15	0.090664	1002.418	0.111
278.15	0.100335	1002.67	0.11
283.15	0.011425	999.991	0.112
283.15	0.02179	1000.26	0.109
283.15	0.025642	1000.358	0.11
283.15	0.037673	1000.66	0.109
283.15	0.045902	1000.87	0.11
283.15	0.058555	1001.208	0.11
283.15	0.071098	1001.508	0.109
283.15	0.079681	1001.727	0.11
283.15	0.090664	1002.038	0.11
283.15	0.100335	1002.277	0.108
288.15	0.011425	999.38	0.112
288.15	0.02179	999.637	0.108
288.15	0.025642	999.733	0.11
288.15	0.037673	1000.02	0.109
288.15	0.045902	1000.227	0.11
288.15	0.058555	1000.541	0.109
288.15	0.071098	1000.826	0.109
288.15	0.079681	1001.037	0.11
288.15	0.090664	1001.331	0.11
288.15	0.100335	1001.536	0.108
293.15	0.011425	998.474	0.109
293.15	0.02179	998.721	0.109
293.15	0.025642	998.812	0.109
293.15	0.037673	999.087	0.109
293.15	0.045902	999.287	0.109
293.15	0.058555	999.585	0.109
293.15	0.071098	999.857	0.109
293.15	0.079681	1000.055	0.109
293.15	0.090664	1000.335	0.109
293.15	0.100335	1000.538	0.109

System: tetrabutylammonium bromide + water; phases: Liquid
Fixed: Pressure, kPa = 74.66
Fixed: Frequency, MHz = 3
Property: Speed of sound, m/s (Liquid); method: Sing-around technique in a fixed-path interferometer
Temperature, K	Molality, mol/kg of tetrabutylammonium bromide	Speed of sound, m/s	uncertainty
278.15	0.011425	1432	1.2
278.15	0.025642	1436.7	1.2
278.15	0.037673	1439.6	1.2
278.15	0.045902	1442.7	1.2
278.15	0.058555	1446.1	1.2
278.15	0.071098	1450	1.2
278.15	0.079681	1453	1.2
278.15	0.090664	1455.7	1.2
278.15	0.100335	1458	1.2
283.15	0.011425	1452.5	1.2
283.15	0.025642	1457.5	1.2
283.15	0.037673	1459.7	1.2
283.15	0.045902	1462.5	1.2
283.15	0.058555	1465.7	1.2
283.15	0.071098	1469.4	1.2
283.15	0.079681	1472.2	1.2
283.15	0.090664	1474.4	1.2
283.15	0.100335	1476.6	1.2
288.15	0.011425	1470.9	1.2
288.15	0.025642	1475.5	1.2
288.15	0.037673	1477.4	1.2
288.15	0.045902	1480.1	1.2
288.15	0.058555	1482.9	1.2
288.15	0.071098	1486.4	1.2
288.15	0.079681	1489.1	1.2
288.15	0.090664	1491	1.2
288.15	0.100335	1493	1.2
293.15	0.011425	1487.1	1.2
293.15	0.025642	1491.3	1.2
293.15	0.037673	1492.9	1.2
293.15	0.045902	1495.5	1.2
293.15	0.058555	1498.1	1.2
293.15	0.071098	1501.3	1.2
293.15	0.079681	1504	1.2
293.15	0.090664	1505.4	1.2
293.15	0.100335	1507.3	1.2
298.15	0.011425	1501.3	1.2
298.15	0.025642	1504.8	1.2
298.15	0.037673	1506.4	1.2
298.15	0.045902	1508.9	1.2
298.15	0.058555	1511.7	1.2
298.15	0.071098	1514.3	1.2
298.15	0.079681	1516.9	1.2
298.15	0.090664	1517.9	1.2
298.15	0.100335	1519.7	1.2

System: water + tetra-iso-butyl ammonium bromide; phases: Liquid
Fixed: Pressure, kPa = 74.66
Property: Mass density, kg/m3 (Liquid); method: Vibrating tube method
Temperature, K	Molality, mol/kg of tetra-iso-butyl ammonium bromide	Mass density, kg/m3	uncertainty
278.15	0.010224	1000.509	0.119
278.15	0.020208	1001.05	0.119
278.15	0.029831	1001.574	0.119
278.15	0.038474	1002.041	0.119
278.15	0.048292	1002.566	0.119
278.15	0.056208	1002.992	0.119
278.15	0.068882	1003.667	0.12
278.15	0.076656	1004.083	0.12
278.15	0.086231	1004.599	0.12
278.15	0.100177	1005.354	0.12
283.15	0.010224	1000.239	0.124
283.15	0.020208	1000.774	0.119
283.15	0.029831	1001.291	0.119
283.15	0.038474	1001.749	0.119
283.15	0.048292	1002.267	0.119
283.15	0.056208	1002.683	0.12
283.15	0.068882	1003.344	0.118
283.15	0.076656	1003.756	0.12
283.15	0.086231	1004.261	0.12
283.15	0.100177	1005.004	0.117
288.15	0.010224	999.634	0.123
288.15	0.020208	1000.164	0.119
288.15	0.029831	1000.671	0.119
288.15	0.038474	1001.124	0.119
288.15	0.048292	1001.633	0.118
288.15	0.056208	1002.043	0.119
288.15	0.068882	1002.696	0.118
288.15	0.076656	1003.101	0.119
288.15	0.086231	1003.595	0.12
288.15	0.100177	1004.332	0.117
293.15	0.010224	998.735	0.119
293.15	0.020208	999.258	0.118
293.15	0.029831	999.758	0.118
293.15	0.038474	1000.206	0.118
293.15	0.048292	1000.708	0.118
293.15	0.056208	1001.113	0.118
293.15	0.068882	1001.756	0.118
293.15	0.076656	1002.157	0.119
293.15	0.086231	1002.644	0.119
293.15	0.100177	1003.372	0.119

System: water + tetra-iso-butyl ammonium bromide; phases: Liquid
Fixed: Pressure, kPa = 74.66
Fixed: Frequency, MHz = 3
Property: Speed of sound, m/s (Liquid); method: Sing-around technique in a fixed-path interferometer
Temperature, K	Molality, mol/kg of tetra-iso-butyl ammonium bromide	Speed of sound, m/s	uncertainty
278.15	0.020208	1434	1.2
278.15	0.029831	1437	1.2
278.15	0.038474	1438.5	1.2
278.15	0.048292	1441.3	1.2
278.15	0.056208	1443.4	1.2
278.15	0.068882	1447	1.2
278.15	0.076656	1448.2	1.2
278.15	0.086231	1451.5	1.2
278.15	0.100177	1453.7	1.2
283.15	0.020208	1454.4	1.2
283.15	0.029831	1457	1.2
283.15	0.038474	1458.5	1.2
283.15	0.048292	1461.2	1.2
283.15	0.056208	1463.6	1.2
283.15	0.068882	1466.5	1.2
283.15	0.076656	1467.5	1.2
283.15	0.086231	1469.4	1.2
283.15	0.100177	1472.5	1.2
288.15	0.020208	1472.5	1.2
288.15	0.029831	1475	1.2
288.15	0.038474	1476.2	1.2
288.15	0.048292	1478.9	1.2
288.15	0.056208	1480.5	1.2
288.15	0.068882	1483.8	1.2
288.15	0.076656	1484.6	1.2
288.15	0.086231	1486.2	1.2
288.15	0.100177	1489.2	1.2
293.15	0.020208	1488.5	1.2
293.15	0.029831	1490.5	1.2
293.15	0.038474	1491.8	1.2
293.15	0.048292	1494.5	1.2
293.15	0.056208	1495.7	1.2
293.15	0.068882	1498.9	1.2
293.15	0.076656	1499.7	1.2
293.15	0.086231	1500.9	1.2
293.15	0.100177	1503.9	1.2
298.15	0.020208	1502.6	1.2
298.15	0.029831	1503.3	1.2
298.15	0.038474	1505.5	1.2
298.15	0.048292	1508.1	1.2
298.15	0.056208	1509.7	1.2
298.15	0.068882	1512.2	1.2
298.15	0.076656	1512.9	1.2
298.15	0.086231	1513.8	1.2
298.15	0.100177	1516.7	1.2

System: water + tetra-sec-butyl ammonium bromide; phases: Liquid
Fixed: Pressure, kPa = 74.66
Property: Mass density, kg/m3 (Liquid); method: Vibrating tube method
Temperature, K	Molality, mol/kg of tetra-sec-butyl ammonium bromide	Mass density, kg/m3	uncertainty
278.15	0.009699	1000.427	0.117
278.15	0.019807	1000.919	0.118
278.15	0.040663	1001.996	0.119
278.15	0.049825	1002.489	0.119
278.15	0.059796	1003.017	0.119
278.15	0.070274	1003.575	0.12
278.15	0.07997	1004.111	0.121
278.15	0.089844	1004.684	0.121
278.15	0.101799	1005.324	0.12
283.15	0.009699	1000.153	0.121
283.15	0.019807	1000.637	0.118
283.15	0.040663	1001.678	0.117
283.15	0.049825	1002.138	0.118
283.15	0.059796	1002.658	0.119
283.15	0.070274	1003.213	0.12
283.15	0.07997	1003.754	0.121
283.15	0.089844	1004.307	0.121
283.15	0.101799	1004.971	0.117
288.15	0.009699	999.553	0.12
288.15	0.019807	1000.026	0.117
288.15	0.040663	1001.038	0.117
288.15	0.049825	1001.499	0.118
288.15	0.059796	1001.998	0.118
288.15	0.070274	1002.547	0.119
288.15	0.07997	1003.078	0.12
288.15	0.089844	1003.606	0.12
288.15	0.101799	1004.265	0.117
293.15	0.009699	998.653	0.116
293.15	0.019807	999.127	0.116
293.15	0.040663	1000.121	0.117
293.15	0.049825	1000.591	0.118
293.15	0.059796	1001.081	0.118
293.15	0.070274	1001.633	0.119
293.15	0.07997	1002.124	0.119
293.15	0.089844	1002.636	0.12
293.15	0.101799	1003.283	0.12

System: water + tetra-sec-butyl ammonium bromide; phases: Liquid
Fixed: Pressure, kPa = 74.66
Fixed: Frequency, MHz = 3
Property: Speed of sound, m/s (Liquid); method: Sing-around technique in a fixed-path interferometer
Temperature, K	Molality, mol/kg of tetra-sec-butyl ammonium bromide	Speed of sound, m/s	uncertainty
278.15	0.009699	1429.9	1.2
278.15	0.019807	1432.6	1.2
278.15	0.030137	1435.2	1.2
278.15	0.040663	1438.2	1.2
278.15	0.049825	1440.2	1.2
278.15	0.059796	1443.3	1.2
278.15	0.070274	1445.7	1.2
278.15	0.07997	1448.5	1.2
278.15	0.089844	1451.4	1.2
278.15	0.101799	1454.9	1.2
283.15	0.009699	1450.7	1.2
283.15	0.019807	1453.1	1.2
283.15	0.030137	1455.5	1.2
283.15	0.040663	1458.2	1.2
283.15	0.049825	1460.1	1.2
283.15	0.059796	1463	1.2
283.15	0.070274	1465.7	1.2
283.15	0.07997	1468.4	1.2
283.15	0.089844	1471.3	1.2
283.15	0.101799	1474.9	1.2
288.15	0.009699	1469	1.2
288.15	0.019807	1471.2	1.2
288.15	0.030137	1473.4	1.2
288.15	0.040663	1475.9	1.2
288.15	0.049825	1477.6	1.2
288.15	0.059796	1480.4	1.2
288.15	0.070274	1483.2	1.2
288.15	0.07997	1485	1.2
288.15	0.089844	1488	1.2
288.15	0.101799	1490.9	1.2
293.15	0.009699	1485.1	1.2
293.15	0.019807	1487.4	1.2
293.15	0.030137	1489.2	1.2
293.15	0.040663	1491.5	1.2
293.15	0.049825	1493.1	1.2
293.15	0.059796	1495.4	1.2
293.15	0.070274	1497.7	1.2
293.15	0.07997	1499.7	1.2
293.15	0.089844	1501.6	1.2
293.15	0.101799	1504	1.2
298.15	0.009699	1499	1.2
298.15	0.019807	1500.9	1.2
298.15	0.030137	1503	1.2
298.15	0.040663	1505.2	1.2
298.15	0.049825	1506.5	1.2
298.15	0.059796	1508.3	1.2
298.15	0.070274	1510.9	1.2
298.15	0.07997	1512	1.2
298.15	0.089844	1514.2	1.2
298.15	0.101799	1516	1.2

System: N-butyl-N,N-bis(2-methylpropyl)-1-butanaminium bromide + water; phases: Liquid
Fixed: Pressure, kPa = 74.66
Property: Mass density, kg/m3 (Liquid); method: Vibrating tube method
Temperature, K	Molality, mol/kg of N-butyl-N,N-bis(2-methylpropyl)-1-butanaminium bromide	Mass density, kg/m3	uncertainty
278.15	0.010653	1000.501	0.118
278.15	0.019984	1000.984	0.118
278.15	0.028703	1001.438	0.118
278.15	0.038155	1001.925	0.119
278.15	0.049907	1002.553	0.119
278.15	0.05935	1003.048	0.119
278.15	0.068841	1003.537	0.119
278.15	0.08078	1004.181	0.12
278.15	0.092201	1004.773	0.12
278.15	0.104409	1005.43	0.12
283.15	0.010653	1000.232	0.124
283.15	0.019984	1000.712	0.118
283.15	0.028703	1001.162	0.118
283.15	0.038155	1001.648	0.119
283.15	0.049907	1002.266	0.118
283.15	0.05935	1002.753	0.119
283.15	0.068841	1003.245	0.119
283.15	0.08078	1003.879	0.119
283.15	0.092201	1004.473	0.119
283.15	0.104409	1005.113	0.116
288.15	0.010653	999.628	0.123
288.15	0.019984	1000.105	0.118
288.15	0.028703	1000.553	0.118
288.15	0.038155	1001.036	0.119
288.15	0.049907	1001.646	0.118
288.15	0.05935	1002.126	0.118
288.15	0.068841	1002.618	0.119
288.15	0.08078	1003.251	0.119
288.15	0.092201	1003.833	0.119
288.15	0.104409	1004.458	0.116
293.15	0.010653	998.731	0.118
293.15	0.019984	999.207	0.118
293.15	0.028703	999.654	0.118
293.15	0.038155	1000.135	0.118
293.15	0.049907	1000.741	0.118
293.15	0.05935	1001.218	0.118
293.15	0.068841	1001.707	0.119
293.15	0.08078	1002.334	0.119
293.15	0.092201	1002.911	0.118
293.15	0.104409	1003.531	0.119

System: N-butyl-N,N-bis(2-methylpropyl)-1-butanaminium bromide + water; phases: Liquid
Fixed: Pressure, kPa = 74.66
Fixed: Frequency, MHz = 3
Property: Speed of sound, m/s (Liquid); method: Sing-around technique in a fixed-path interferometer
Temperature, K	Molality, mol/kg of N-butyl-N,N-bis(2-methylpropyl)-1-butanaminium bromide	Speed of sound, m/s	uncertainty
278.15	0.010653	1431.7	1.2
278.15	0.019984	1433.3	1.2
278.15	0.028703	1435.3	1.2
278.15	0.049907	1440.2	1.2
278.15	0.05935	1443	1.2
278.15	0.068841	1446.3	1.2
278.15	0.08078	1449	1.2
278.15	0.092201	1451.4	1.2
278.15	0.104409	1453.6	1.2
283.15	0.010653	1452	1.2
283.15	0.019984	1453.7	1.2
283.15	0.028703	1455.5	1.2
283.15	0.049907	1460	1.2
283.15	0.05935	1462.6	1.2
283.15	0.068841	1465.8	1.2
283.15	0.08078	1468.1	1.2
283.15	0.092201	1470.1	1.2
283.15	0.104409	1472.4	1.2
288.15	0.010653	1469.2	1.2
288.15	0.019984	1471.8	1.2
288.15	0.028703	1473.4	1.2
288.15	0.049907	1477.6	1.2
288.15	0.05935	1479.9	1.2
288.15	0.068841	1483.1	1.2
288.15	0.08078	1485.2	1.2
288.15	0.092201	1486.8	1.2
288.15	0.104409	1488.9	1.2
293.15	0.010653	1485.3	1.2
293.15	0.019984	1487.8	1.2
293.15	0.028703	1489.1	1.2
293.15	0.049907	1493	1.2
293.15	0.05935	1495.1	1.2
293.15	0.068841	1498.3	1.2
293.15	0.08078	1500.2	1.2
293.15	0.092201	1501.5	1.2
293.15	0.104409	1503.4	1.2
298.15	0.010653	1499.3	1.2
298.15	0.019984	1501.8	1.2
298.15	0.028703	1502.9	1.2
298.15	0.049907	1506.5	1.2
298.15	0.05935	1508.5	1.2
298.15	0.068841	1511.6	1.2
298.15	0.08078	1513.4	1.2
298.15	0.092201	1514.3	1.2
298.15	0.104409	1516	1.2

System: water + N-butyl-N,N-bis(1-methylpropyl)-1-butanaminium bromide; phases: Liquid
Fixed: Pressure, kPa = 74.66
Property: Mass density, kg/m3 (Liquid); method: Vibrating tube method
Temperature, K	Molality, mol/kg of N-butyl-N,N-bis(1-methylpropyl)-1-butanaminium bromide	Mass density, kg/m3	uncertainty
278.15	0.011812	1000.578	0.119
278.15	0.020256	1001.026	0.119
278.15	0.031018	1001.601	0.119
278.15	0.040172	1002.102	0.12
278.15	0.050432	1002.658	0.12
278.15	0.059799	1003.171	0.12
278.15	0.06968	1003.709	0.12
278.15	0.081912	1004.371	0.12
278.15	0.09038	1004.848	0.121
278.15	0.103605	1005.564	0.12
283.15	0.011812	1000.305	0.125
283.15	0.020256	1000.747	0.119
283.15	0.031018	1001.316	0.119
283.15	0.040172	1001.809	0.12
283.15	0.050432	1002.359	0.12
283.15	0.059799	1002.873	0.12
283.15	0.06968	1003.406	0.12
283.15	0.081912	1004.063	0.12
283.15	0.09038	1004.533	0.121
283.15	0.103605	1005.248	0.117
288.15	0.011812	999.698	0.124
288.15	0.020256	1000.134	0.119
288.15	0.031018	1000.697	0.119
288.15	0.040172	1001.191	0.119
288.15	0.050432	1001.727	0.119
288.15	0.059799	1002.239	0.12
288.15	0.06968	1002.765	0.12
288.15	0.081912	1003.422	0.12
288.15	0.09038	1003.894	0.121
288.15	0.103605	1004.594	0.117
293.15	0.011812	998.799	0.118
293.15	0.020256	999.231	0.118
293.15	0.031018	999.791	0.119
293.15	0.040172	1000.278	0.119
293.15	0.050432	1000.811	0.119
293.15	0.059799	1001.319	0.119
293.15	0.06968	1001.839	0.119
293.15	0.081912	1002.497	0.12
293.15	0.09038	1002.957	0.12
293.15	0.103605	1003.665	0.12

System: water + N-butyl-N,N-bis(1-methylpropyl)-1-butanaminium bromide; phases: Liquid
Fixed: Pressure, kPa = 74.66
Fixed: Frequency, MHz = 3
Property: Speed of sound, m/s (Liquid); method: Sing-around technique in a fixed-path interferometer
Temperature, K	Molality, mol/kg of N-butyl-N,N-bis(1-methylpropyl)-1-butanaminium bromide	Speed of sound, m/s	uncertainty
278.15	0.011812	1431.4	1.2
278.15	0.020256	1433.3	1.2
278.15	0.031018	1435.8	1.2
278.15	0.040172	1438.2	1.2
278.15	0.050432	1440	1.2
278.15	0.059799	1442.6	1.2
278.15	0.06968	1445	1.2
278.15	0.081912	1447.4	1.2
278.15	0.09038	1450.6	1.2
278.15	0.103605	1453.5	1.2
283.15	0.011812	1452	1.2
283.15	0.020256	1453.8	1.2
283.15	0.031018	1456.1	1.2
283.15	0.040172	1458.3	1.2
283.15	0.050432	1459.8	1.2
283.15	0.059799	1462.2	1.2
283.15	0.06968	1464.4	1.2
283.15	0.081912	1466.7	1.2
283.15	0.09038	1469.6	1.2
283.15	0.103605	1472.2	1.2
288.15	0.011812	1470.2	1.2
288.15	0.020256	1472	1.2
288.15	0.031018	1474.1	1.2
288.15	0.040172	1476	1.2
288.15	0.050432	1477.4	1.2
288.15	0.059799	1479.5	1.2
288.15	0.06968	1481.6	1.2
288.15	0.081912	1483.7	1.2
288.15	0.09038	1486.4	1.2
288.15	0.103605	1488.9	1.2
293.15	0.011812	1486.2	1.2
293.15	0.020256	1488	1.2
293.15	0.031018	1489.9	1.2
293.15	0.040172	1491.6	1.2
293.15	0.050432	1492.9	1.2
293.15	0.059799	1494.8	1.2
293.15	0.06968	1496.6	1.2
293.15	0.081912	1498.7	1.2
293.15	0.09038	1501.1	1.2
293.15	0.103605	1503.7	1.2
298.15	0.011812	1500.2	1.2
298.15	0.020256	1502.1	1.2
298.15	0.031018	1503.9	1.2
298.15	0.040172	1505.3	1.2
298.15	0.050432	1506.4	1.2
298.15	0.059799	1508.4	1.2
298.15	0.06968	1509.9	1.2
298.15	0.081912	1511.8	1.2
298.15	0.09038	1514	1.2
298.15	0.103605	1516.5	1.2
