Measured thermophysical data. Thermodynamic solubility modelling, solvent effect and preferential solvation of naftopidil in aqueous co-solvent solutions of (n-propanol, ethanol, isopropanol and dimethyl sulfoxide)
Source: J. Chem. Thermodyn., 2019, 10.1016/j.jct.2019.02.016
Compound 1: Naftopidil, C24H28N2O3, InChI=1S/C24H28N2O3/c1-28-24-11-5-4-10-22(24)26-15-13-25(14-16-26)17-20(27)18-29-23-12-6-8-19-7-2-3-9-21(19)23/h2-12,20,27H,13-18H2,1H3, purity 98.3%
Compound 2: propan-2-ol, C3H8O, InChI=1S/C3H8O/c1-3(2)4/h3-4H,1-2H3, purity 99.5%
Compound 3: ethanol, C2H6O, InChI=1S/C2H6O/c1-2-3/h3H,2H2,1H3, purity 99.4%
Compound 4: dimethyl sulfoxide, C2H6OS, InChI=1S/C2H6OS/c1-4(2)3/h1-2H3, purity 99.4%
Compound 5: propan-1-ol, C3H8O, InChI=1S/C3H8O/c1-2-3-4/h4H,2-3H2,1H3, purity 99.5%
Compound 6: water, H2O, InChI=1S/H2O/h1H2

System: Naftopidil + propan-1-ol + water; phases: Liquid, Crystal
Fixed: Pressure, kPa = 101.2
Property: Mole fraction of Naftopidil (Liquid); method: Chromatography
Temperature, K	Solvent: Mass fraction of propan-1-ol	Mole fraction of Naftopidil	uncertainty
288.15	0	2.067e-06	1.94e-07
293.15	0	2.688e-06	2.53e-07
298.15	0	3.462e-06	3.26e-07
303.15	0	4.427e-06	4.16e-07
308.15	0	5.652e-06	5.32e-07
313.15	0	7.053e-06	6.63e-07
318.15	0	8.852e-06	8.32e-07
323.15	0	1.091e-05	1.03e-06
328.15	0	1.366e-05	1.28e-06
288.15	0.1	1.099e-05	1.03e-06
293.15	0.1	1.406e-05	1.32e-06
298.15	0.1	1.78e-05	1.67e-06
303.15	0.1	2.275e-05	2.14e-06
308.15	0.1	2.82e-05	2.65e-06
313.15	0.1	3.474e-05	3.27e-06
318.15	0.1	4.306e-05	4.05e-06
323.15	0.1	5.327e-05	5.01e-06
328.15	0.1	6.31e-05	5.94e-06
288.15	0.2	3.267e-05	3.07e-06
293.15	0.2	4.092e-05	3.85e-06
298.15	0.2	5.117e-05	4.81e-06
303.15	0.2	6.338e-05	5.96e-06
308.15	0.2	7.804e-05	7.34e-06
313.15	0.2	9.518e-05	8.95e-06
318.15	0.2	0.0001158	1.09e-05
323.15	0.2	0.0001401	1.32e-05
328.15	0.2	0.0001709	1.61e-05
288.15	0.3	6.645e-05	6.25e-06
293.15	0.3	8.151e-05	7.67e-06
298.15	0.3	0.0001003	9.4e-06
303.15	0.3	0.000122	1.15e-05
308.15	0.3	0.000148	1.39e-05
313.15	0.3	0.0001777	1.67e-05
318.15	0.3	0.0002127	2e-05
323.15	0.3	0.0002535	2.38e-05
328.15	0.3	0.0003018	2.84e-05
288.15	0.4	0.0001114	1.05e-05
293.15	0.4	0.0001355	1.27e-05
298.15	0.4	0.0001645	1.55e-05
303.15	0.4	0.0001981	1.86e-05
308.15	0.4	0.0002352	2.21e-05
313.15	0.4	0.0002809	2.64e-05
318.15	0.4	0.0003323	3.12e-05
323.15	0.4	0.0003901	3.67e-05
328.15	0.4	0.000461	4.34e-05
288.15	0.5	0.000174	1.64e-05
293.15	0.5	0.000209	1.97e-05
298.15	0.5	0.0002482	2.33e-05
303.15	0.5	0.0002937	2.76e-05
308.15	0.5	0.0003442	3.24e-05
313.15	0.5	0.0004048	3.81e-05
318.15	0.5	0.0004715	4.43e-05
323.15	0.5	0.0005451	5.13e-05
328.15	0.5	0.0006363	5.98e-05
288.15	0.6	0.0002421	2.28e-05
293.15	0.6	0.0002887	2.71e-05
298.15	0.6	0.0003399	3.2e-05
303.15	0.6	0.0003981	3.74e-05
308.15	0.6	0.0004686	4.41e-05
313.15	0.6	0.0005451	5.13e-05
318.15	0.6	0.0006366	5.99e-05
323.15	0.6	0.0007286	6.85e-05
328.15	0.6	0.0008418	7.92e-05
288.15	0.7	0.0003414	3.21e-05
293.15	0.7	0.000397	3.73e-05
298.15	0.7	0.0004658	4.38e-05
303.15	0.7	0.000544	5.12e-05
308.15	0.7	0.0006304	5.93e-05
313.15	0.7	0.0007263	6.83e-05
318.15	0.7	0.0008344	7.85e-05
323.15	0.7	0.0009477	8.91e-05
328.15	0.7	0.00108	0.000102
288.15	0.8	0.000463	4.35e-05
293.15	0.8	0.0005415	5.09e-05
298.15	0.8	0.0006314	5.94e-05
303.15	0.8	0.000728	6.85e-05
308.15	0.8	0.000845	7.95e-05
313.15	0.8	0.0009659	9.08e-05
318.15	0.8	0.001109	0.000104
323.15	0.8	0.00125	0.000118
328.15	0.8	0.00142	0.000134
288.15	0.9	0.0006578	6.19e-05
293.15	0.9	0.0007654	7.2e-05
298.15	0.9	0.0008757	8.23e-05
303.15	0.9	0.001005	9.5e-05
308.15	0.9	0.00115	0.000108
313.15	0.9	0.001327	0.000125
318.15	0.9	0.001502	0.000141
323.15	0.9	0.0017	0.00016
328.15	0.9	0.00193	0.000181
288.15	1	0.0008686	8.17e-05
293.15	1	0.001011	9.5e-05
298.15	1	0.001159	0.000109
303.15	1	0.001348	0.000127
308.15	1	0.001531	0.000144
313.15	1	0.001739	0.000164
318.15	1	0.00197	0.000185
323.15	1	0.002201	0.000207
328.15	1	0.0025	0.000235

System: Naftopidil + ethanol + water; phases: Liquid, Crystal
Fixed: Pressure, kPa = 101.2
Property: Mole fraction of Naftopidil (Liquid); method: Chromatography
Temperature, K	Solvent: Mass fraction of ethanol	Mole fraction of Naftopidil	uncertainty
288.15	0	2.067e-06	1.94e-07
293.15	0	2.688e-06	2.53e-07
298.15	0	3.462e-06	3.26e-07
303.15	0	4.427e-06	4.16e-07
308.15	0	5.652e-06	5.32e-07
313.15	0	7.053e-06	6.63e-07
318.15	0	8.852e-06	8.32e-07
323.15	0	1.091e-05	1.03e-06
328.15	0	1.366e-05	1.28e-06
288.15	0.1	6.58e-06	6.19e-07
293.15	0.1	8.37e-06	7.87e-07
298.15	0.1	1.058e-05	9.9e-07
303.15	0.1	1.328e-05	1.25e-06
308.15	0.1	1.661e-05	1.56e-06
313.15	0.1	2.037e-05	1.92e-06
318.15	0.1	2.514e-05	2.36e-06
323.15	0.1	3.05e-05	2.87e-06
328.15	0.1	3.75e-05	3.53e-06
288.15	0.2	1.956e-05	1.84e-06
293.15	0.2	2.441e-05	2.3e-06
298.15	0.2	3.032e-05	2.85e-06
303.15	0.2	3.734e-05	3.51e-06
308.15	0.2	4.585e-05	4.31e-06
313.15	0.2	5.532e-05	5.2e-06
318.15	0.2	6.716e-05	6.32e-06
323.15	0.2	8.031e-05	7.55e-06
328.15	0.2	9.704e-05	9.13e-06
288.15	0.3	5.204e-05	4.89e-06
293.15	0.3	6.38e-05	6e-06
298.15	0.3	7.799e-05	7.33e-06
303.15	0.3	9.449e-05	8.89e-06
308.15	0.3	0.000114	1.07e-05
313.15	0.3	0.0001356	1.28e-05
318.15	0.3	0.0001622	1.53e-05
323.15	0.3	0.0001914	1.8e-05
328.15	0.3	0.0002277	2.14e-05
288.15	0.4	0.000114	1.07e-05
293.15	0.4	0.0001377	1.29e-05
298.15	0.4	0.0001662	1.56e-05
303.15	0.4	0.0001987	1.87e-05
308.15	0.4	0.0002251	2.12e-05
313.15	0.4	0.0002778	2.61e-05
318.15	0.4	0.0003285	3.09e-05
323.15	0.4	0.0003836	3.61e-05
328.15	0.4	0.0004323	4.07e-05
288.15	0.5	0.0002191	2.06e-05
293.15	0.5	0.0002544	2.39e-05
298.15	0.5	0.0003122	2.94e-05
303.15	0.5	0.0003593	3.38e-05
308.15	0.5	0.0004012	3.77e-05
313.15	0.5	0.0004929	4.64e-05
318.15	0.5	0.000564	5.3e-05
323.15	0.5	0.0006512	6.12e-05
328.15	0.5	0.0007398	6.96e-05
288.15	0.6	0.000353	3.32e-05
293.15	0.6	0.0004178	3.93e-05
298.15	0.6	0.000485	4.56e-05
303.15	0.6	0.0005501	5.17e-05
308.15	0.6	0.0006649	6.25e-05
313.15	0.6	0.0007576	7.12e-05
318.15	0.6	0.000881	8.28e-05
323.15	0.6	0.0009949	9.36e-05
328.15	0.6	0.00111	0.000104
288.15	0.7	0.0005163	4.85e-05
293.15	0.7	0.0006203	5.83e-05
298.15	0.7	0.0007125	6.7e-05
303.15	0.7	0.0008103	7.62e-05
308.15	0.7	0.0009488	8.92e-05
313.15	0.7	0.001087	0.000102
318.15	0.7	0.001233	0.000116
323.15	0.7	0.001396	0.000131
328.15	0.7	0.001571	0.000148
288.15	0.8	0.0007533	7.08e-05
293.15	0.8	0.0008463	7.96e-05
298.15	0.8	0.001001	9.4e-05
303.15	0.8	0.001144	0.000108
308.15	0.8	0.001301	0.000122
313.15	0.8	0.001499	0.000141
318.15	0.8	0.001701	0.00016
323.15	0.8	0.00194	0.000182
328.15	0.8	0.002161	0.000203
288.15	0.9	0.001022	9.6e-05
293.15	0.9	0.001185	0.000111
298.15	0.9	0.00135	0.000127
303.15	0.9	0.001553	0.000146
308.15	0.9	0.001774	0.000167
313.15	0.9	0.002022	0.00019
318.15	0.9	0.002291	0.000215
323.15	0.9	0.002572	0.000242
328.15	0.9	0.002906	0.000273
288.15	1	0.001421	0.000134
293.15	1	0.001633	0.000154
298.15	1	0.001895	0.000178
303.15	1	0.002162	0.000203
308.15	1	0.00244	0.000229
313.15	1	0.002767	0.00026
318.15	1	0.003142	0.000295
323.15	1	0.003551	0.000334
328.15	1	0.00397	0.000373

System: Naftopidil + propan-2-ol + water; phases: Liquid, Crystal
Fixed: Pressure, kPa = 101.2
Property: Mole fraction of Naftopidil (Liquid); method: Chromatography
Temperature, K	Solvent: Mass fraction of propan-2-ol	Mole fraction of Naftopidil	uncertainty
288.15	0	2.067e-06	1.94e-07
293.15	0	2.688e-06	2.53e-07
298.15	0	3.462e-06	3.26e-07
303.15	0	4.427e-06	4.16e-07
308.15	0	5.652e-06	5.32e-07
313.15	0	7.053e-06	6.63e-07
318.15	0	8.852e-06	8.32e-07
323.15	0	1.091e-05	1.03e-06
328.15	0	1.366e-05	1.28e-06
288.15	0.1	3.579e-06	3.37e-07
293.15	0.1	4.6e-06	4.33e-07
298.15	0.1	5.87e-06	5.52e-07
303.15	0.1	7.439e-06	7e-07
308.15	0.1	9.4e-06	8.84e-07
313.15	0.1	1.163e-05	1.09e-06
318.15	0.1	1.446e-05	1.36e-06
323.15	0.1	1.767e-05	1.66e-06
328.15	0.1	2.194e-05	2.06e-06
288.15	0.2	7.87e-06	7.4e-07
293.15	0.2	9.98e-06	9.39e-07
298.15	0.2	1.255e-05	1.18e-06
303.15	0.2	1.569e-05	1.48e-06
308.15	0.2	1.954e-05	1.84e-06
313.15	0.2	2.39e-05	2.25e-06
318.15	0.2	2.934e-05	2.76e-06
323.15	0.2	3.544e-05	3.33e-06
328.15	0.2	4.348e-05	4.09e-06
288.15	0.3	1.906e-05	1.79e-06
293.15	0.3	2.375e-05	2.23e-06
298.15	0.3	2.941e-05	2.77e-06
303.15	0.3	3.623e-05	3.41e-06
308.15	0.3	4.444e-05	4.18e-06
313.15	0.3	5.361e-05	5.04e-06
318.15	0.3	6.489e-05	6.1e-06
323.15	0.3	7.737e-05	7.28e-06
328.15	0.3	9.37e-05	8.81e-06
288.15	0.4	4.282e-05	4.03e-06
293.15	0.4	5.254e-05	4.94e-06
298.15	0.4	6.415e-05	6.03e-06
303.15	0.4	7.796e-05	7.33e-06
308.15	0.4	9.425e-05	8.86e-06
313.15	0.4	0.0001123	1.06e-05
318.15	0.4	0.0001342	1.26e-05
323.15	0.4	0.0001581	1.49e-05
328.15	0.4	0.0001892	1.78e-05
288.15	0.5	8.909e-05	8.38e-06
293.15	0.5	0.0001064	1e-05
298.15	0.5	0.0001311	1.23e-05
303.15	0.5	0.0001559	1.47e-05
308.15	0.5	0.0001805	1.7e-05
313.15	0.5	0.0002148	2.02e-05
318.15	0.5	0.0002532	2.38e-05
323.15	0.5	0.0002927	2.75e-05
328.15	0.5	0.000347	3.26e-05
288.15	0.6	0.0001495	1.41e-05
293.15	0.6	0.0001799	1.69e-05
298.15	0.6	0.0002141	2.01e-05
303.15	0.6	0.0002565	2.41e-05
308.15	0.6	0.0002999	2.82e-05
313.15	0.6	0.0003496	3.29e-05
318.15	0.6	0.0004077	3.83e-05
323.15	0.6	0.000476	4.48e-05
328.15	0.6	0.0005593	5.26e-05
288.15	0.7	0.0002306	2.17e-05
293.15	0.7	0.000271	2.55e-05
298.15	0.7	0.000329	3.09e-05
303.15	0.7	0.0003852	3.62e-05
308.15	0.7	0.00044	4.14e-05
313.15	0.7	0.0005218	4.91e-05
318.15	0.7	0.0006071	5.71e-05
323.15	0.7	0.0007097	6.67e-05
328.15	0.7	0.0008296	7.8e-05
288.15	0.8	0.0003526	3.32e-05
293.15	0.8	0.0004147	3.9e-05
298.15	0.8	0.0004874	4.58e-05
303.15	0.8	0.000571	5.37e-05
308.15	0.8	0.0006632	6.24e-05
313.15	0.8	0.0007654	7.2e-05
318.15	0.8	0.0008823	8.3e-05
323.15	0.8	0.001021	9.6e-05
328.15	0.8	0.00117	0.00011
288.15	0.9	0.0005116	4.81e-05
293.15	0.9	0.000611	5.75e-05
298.15	0.9	0.0007152	6.73e-05
303.15	0.9	0.0008214	7.72e-05
308.15	0.9	0.0009333	8.78e-05
313.15	0.9	0.001081	0.000102
318.15	0.9	0.001219	0.000115
323.15	0.9	0.0014	0.000132
328.15	0.9	0.00158	0.000149
288.15	1	0.000714	6.71e-05
293.15	1	0.0008271	7.78e-05
298.15	1	0.0009591	9.02e-05
303.15	1	0.001109	0.000104
308.15	1	0.001268	0.000119
313.15	1	0.001451	0.000136
318.15	1	0.001649	0.000155
323.15	1	0.001861	0.000175
328.15	1	0.00213	0.0002

System: Naftopidil + dimethyl sulfoxide + water; phases: Liquid, Crystal
Fixed: Pressure, kPa = 101.2
Property: Mole fraction of Naftopidil (Liquid); method: Chromatography
Temperature, K	Solvent: Mass fraction of dimethyl sulfoxide	Mole fraction of Naftopidil	uncertainty
293.15	0	2.688e-06	2.53e-07
298.15	0	3.462e-06	3.26e-07
303.15	0	4.427e-06	4.16e-07
308.15	0	5.652e-06	5.32e-07
313.15	0	7.053e-06	6.63e-07
318.15	0	8.852e-06	8.32e-07
323.15	0	1.091e-05	1.03e-06
328.15	0	1.366e-05	1.28e-06
293.15	0.1	7.548e-05	7.16e-06
298.15	0.1	9.226e-05	8.68e-06
303.15	0.1	0.0001121	1.05e-05
308.15	0.1	0.0001362	1.28e-05
313.15	0.1	0.0001622	1.53e-05
318.15	0.1	0.0001943	1.83e-05
323.15	0.1	0.0002292	2.16e-05
328.15	0.1	0.0002745	2.6e-05
293.15	0.2	0.000554	5.21e-05
298.15	0.2	0.0006574	6.18e-05
303.15	0.2	0.0007759	7.3e-05
308.15	0.2	0.0009159	8.61e-05
313.15	0.2	0.00106	0.0001
318.15	0.2	0.001243	0.000117
323.15	0.2	0.00143	0.000134
328.15	0.2	0.001664	0.000157
293.15	0.3	0.001618	0.000152
298.15	0.3	0.00189	0.000178
303.15	0.3	0.002182	0.000205
308.15	0.3	0.002523	0.000237
313.15	0.3	0.002893	0.000272
318.15	0.3	0.003307	0.000311
323.15	0.3	0.003784	0.000356
328.15	0.3	0.004281	0.000403
293.15	0.4	0.002915	0.000274
298.15	0.4	0.003376	0.000317
303.15	0.4	0.003897	0.000366
308.15	0.4	0.004475	0.000421
313.15	0.4	0.005129	0.000482
318.15	0.4	0.00581	0.000546
323.15	0.4	0.006634	0.000624
328.15	0.4	0.00754	0.000709
293.15	0.5	0.004422	0.000416
298.15	0.5	0.005135	0.000483
303.15	0.5	0.00593	0.000558
308.15	0.5	0.006801	0.00064
313.15	0.5	0.007794	0.000733
318.15	0.5	0.008855	0.000833
323.15	0.5	0.01005	0.00095
328.15	0.5	0.01129	0.00106
293.15	0.6	0.006439	0.000605
298.15	0.6	0.007268	0.000683
303.15	0.6	0.008359	0.000786
308.15	0.6	0.009541	0.000897
313.15	0.6	0.0109	0.00102
318.15	0.6	0.01241	0.00117
323.15	0.6	0.01406	0.00132
328.15	0.6	0.01595	0.0015
293.15	0.7	0.00972	0.000914
298.15	0.7	0.01094	0.00103
303.15	0.7	0.01242	0.00117
308.15	0.7	0.01409	0.00132
313.15	0.7	0.01603	0.00151
318.15	0.7	0.01807	0.0017
323.15	0.7	0.02036	0.00191
328.15	0.7	0.02363	0.00222
293.15	0.8	0.01475	0.00139
298.15	0.8	0.01683	0.00158
303.15	0.8	0.01922	0.00181
308.15	0.8	0.02181	0.00205
313.15	0.8	0.02468	0.00232
318.15	0.8	0.02782	0.00262
323.15	0.8	0.03134	0.00295
328.15	0.8	0.03538	0.00333
293.15	0.9	0.02037	0.00192
298.15	0.9	0.02343	0.0022
303.15	0.9	0.02674	0.00251
308.15	0.9	0.0303	0.00285
313.15	0.9	0.03406	0.0032
318.15	0.9	0.03811	0.00358
323.15	0.9	0.04296	0.00404
328.15	0.9	0.04901	0.00461
293.15	1	0.02826	0.00266
298.15	1	0.03233	0.00304
303.15	1	0.0367	0.00345
308.15	1	0.0416	0.00391
313.15	1	0.04683	0.0044
318.15	1	0.05267	0.00495
323.15	1	0.05903	0.00555
328.15	1	0.066	0.00621

System: Naftopidil + water; phases: Liquid, Crystal
Fixed: Pressure, kPa = 101.2
Property: Mole fraction of Naftopidil (Liquid); method: Chromatography
Temperature, K	Mole fraction of Naftopidil	uncertainty
288.15	2.067e-06	1.94e-07
293.15	2.688e-06	2.53e-07
298.15	3.462e-06	3.26e-07
303.15	4.427e-06	4.16e-07
308.15	5.652e-06	5.32e-07
313.15	7.053e-06	6.63e-07
318.15	8.852e-06	8.32e-07
323.15	1.091e-05	1.03e-06
328.15	1.366e-05	1.28e-06

System: Naftopidil + propan-1-ol; phases: Liquid, Crystal
Fixed: Pressure, kPa = 101.2
Property: Mole fraction of Naftopidil (Liquid); method: Chromatography
Temperature, K	Mole fraction of Naftopidil	uncertainty
288.15	0.0008686	8.17e-05
293.15	0.001011	9.5e-05
298.15	0.001159	0.000109
303.15	0.001348	0.000127
308.15	0.001531	0.000144
313.15	0.001739	0.000164
318.15	0.00197	0.000185
323.15	0.002201	0.000207
328.15	0.0025	0.000235

System: Naftopidil + ethanol; phases: Liquid, Crystal
Fixed: Pressure, kPa = 101.2
Property: Mole fraction of Naftopidil (Liquid); method: Chromatography
Temperature, K	Mole fraction of Naftopidil	uncertainty
288.15	0.001421	0.000134
293.15	0.001633	0.000154
298.15	0.001895	0.000178
303.15	0.002162	0.000203
308.15	0.00244	0.000229
313.15	0.002767	0.00026
318.15	0.003142	0.000295
323.15	0.003551	0.000334
328.15	0.00397	0.000373

System: Naftopidil + propan-2-ol; phases: Liquid, Crystal
Fixed: Pressure, kPa = 101.2
Property: Mole fraction of Naftopidil (Liquid); method: Chromatography
Temperature, K	Mole fraction of Naftopidil	uncertainty
288.15	0.000714	6.71e-05
293.15	0.0008271	7.78e-05
298.15	0.0009591	9.02e-05
303.15	0.001109	0.000104
308.15	0.001268	0.000119
313.15	0.001451	0.000136
318.15	0.001649	0.000155
323.15	0.001861	0.000175
328.15	0.00213	0.0002

System: Naftopidil + dimethyl sulfoxide; phases: Liquid, Crystal
Fixed: Pressure, kPa = 101.2
Property: Mole fraction of Naftopidil (Liquid); method: Chromatography
Temperature, K	Mole fraction of Naftopidil	uncertainty
293.15	0.02826	0.00266
298.15	0.03233	0.00304
303.15	0.0367	0.00345
308.15	0.0416	0.00391
313.15	0.04683	0.0044
318.15	0.05267	0.00495
323.15	0.05903	0.00555
328.15	0.066	0.00621
