Measured thermophysical data. Ultrasound speeds and molar isentropic compressions of (3-ethoxypropane-1-amine + water) mixtures from T = (283.15 to 303.15) K
Source: J. Chem. Thermodyn., 2013, 10.1016/j.jct.2013.05.003
Compound 1: water, H2O, InChI=1S/H2O/h1H2, purity 99.8%
Compound 2: 3-ethoxy-1-propanamine, C5H13NO, InChI=1S/C5H13NO/c1-2-7-5-3-4-6/h2-6H2,1H3, purity 99%

System: water; phases: Liquid
Fixed: Pressure, kPa = 101.3
Property: Speed of sound, m/s (Liquid); method: Sing-around technique in a fixed-path interferometer
Temperature, K	Speed of sound, m/s	uncertainty
283.15	1447.28	1.27
288.15	1465.94	1.26
293.15	1482.36	1.26
298.15	1496.7	1.25
303.15	1509.14	1.25

System: 3-ethoxy-1-propanamine; phases: Liquid
Fixed: Pressure, kPa = 101.3
Property: Speed of sound, m/s (Liquid); method: Sing-around technique in a fixed-path interferometer
Temperature, K	Speed of sound, m/s	uncertainty
283.15	1386.42	1.61
288.15	1364.24	1.61
293.15	1342.05	1.6
298.15	1321.25	1.59
303.15	1300.44	1.59

System: 3-ethoxy-1-propanamine + water; phases: Liquid
Fixed: Pressure, kPa = 101.3
Property: Speed of sound, m/s (Liquid); method: FPINT:WF = 
Temperature, K	Mole fraction of 3-ethoxy-1-propanamine	Speed of sound, m/s	uncertainty
283.15	0	1447.28	1.27
283.15	0.0001081	1448.75	1.27
283.15	0.0003191	1450.02	1.27
283.15	0.0006252	1451.81	1.27
283.15	0.000707	1452.23	1.27
283.15	0.0009424	1453.68	1.27
283.15	0.001046	1454.25	1.27
283.15	0.0012843	1455.64	1.27
283.15	0.0019472	1459.5	1.27
283.15	0.0029116	1465.12	1.26
283.15	0.0039195	1470.92	1.26
283.15	0.0050977	1477.59	1.26
283.15	0.007456	1491.03	1.26
283.15	0.00981	1503.95	1.25
283.15	0.014804	1530.2	1.25
283.15	0.019563	1553.98	1.25
283.15	0.028319	1594.23	1.25
283.15	0.039136	1636.5	1.26
283.15	0.050821	1672.12	1.26
283.15	0.066736	1704.77	1.27
283.15	0.095356	1723.99	1.29
283.15	0.120903	1715.93	1.31
283.15	0.145154	1699.32	1.32
283.15	0.184444	1669.05	1.33
283.15	0.212076	1645.83	1.35
283.15	0.243763	1623.74	1.35
283.15	0.292341	1592.95	1.36
283.15	0.361002	1556.4	1.39
283.15	0.436854	1524.16	1.39
283.15	0.493727	1501.52	1.41
283.15	0.551304	1482.16	1.43
283.15	0.621429	1462.5	1.45
283.15	0.677529	1448.21	1.47
283.15	0.69433	1444.48	1.47
283.15	0.745811	1432.9	1.5
283.15	0.77334	1427.68	1.51
283.15	0.794733	1422.86	1.52
283.15	0.827596	1416.8	1.53
283.15	0.848775	1412.35	1.54
283.15	0.874404	1408.06	1.55
283.15	0.899316	1403.01	1.56
283.15	0.918855	1399.9	1.57
283.15	0.941083	1395.92	1.58
283.15	0.948584	1394.82	1.59
283.15	0.960131	1392.57	1.6
283.15	0.985043	1390.95	1.61
283.15	1	1386.42	1.61
288.15	0	1465.94	1.26
288.15	0.0001081	1466.35	1.27
288.15	0.0003191	1467.43	1.27
288.15	0.0006252	1469.07	1.27
288.15	0.0009424	1470.93	1.26
288.15	0.0012843	1472.56	1.27
288.15	0.0019472	1476.22	1.26
288.15	0.0029116	1481.35	1.26
288.15	0.0039195	1486.61	1.26
288.15	0.0050977	1492.76	1.26
288.15	0.007456	1505.01	1.25
288.15	0.00981	1516.68	1.25
288.15	0.014804	1540.64	1.25
288.15	0.019563	1562.9	1.25
288.15	0.028319	1599	1.25
288.15	0.039136	1636.74	1.26
288.15	0.050821	1668.01	1.27
288.15	0.066736	1695.68	1.28
288.15	0.095356	1709.34	1.31
288.15	0.120903	1700.42	1.32
288.15	0.145154	1682.58	1.32
288.15	0.184444	1651.62	1.33
288.15	0.212076	1627.74	1.33
288.15	0.243763	1604.41	1.34
288.15	0.292341	1574.97	1.34
288.15	0.361002	1535.73	1.36
288.15	0.436854	1504.5	1.38
288.15	0.493727	1480.95	1.4
288.15	0.551304	1461.9	1.42
288.15	0.621429	1441.54	1.44
288.15	0.677529	1426.89	1.46
288.15	0.69433	1423.36	1.47
288.15	0.745811	1411.32	1.49
288.15	0.794733	1401.1	1.51
288.15	0.827596	1395.09	1.53
288.15	0.848775	1390.72	1.53
288.15	0.899316	1381.54	1.56
288.15	0.918855	1377.95	1.57
288.15	0.93491	1374.95	1.58
288.15	0.943586	1373.52	1.58
288.15	0.955082	1371.34	1.58
288.15	0.960131	1370.44	1.59
288.15	0.974599	1367.55	1.6
288.15	0.975455	1367.81	1.6
288.15	0.985043	1366.19	1.61
288.15	1	1364.24	1.61
293.15	0	1482.36	1.26
293.15	0.0001081	1483.44	1.26
293.15	0.0003191	1484.45	1.26
293.15	0.0006252	1485.96	1.26
293.15	0.0009424	1486.88	1.26
293.15	0.0012843	1489.14	1.26
293.15	0.0019472	1491.73	1.26
293.15	0.0029116	1496.42	1.26
293.15	0.0039195	1501.24	1.26
293.15	0.0050977	1506.85	1.25
293.15	0.00981	1528.64	1.25
293.15	0.014804	1550.33	1.25
293.15	0.019563	1569.73	1.25
293.15	0.028319	1602.08	1.25
293.15	0.039136	1635.32	1.26
293.15	0.050821	1662.55	1.27
293.15	0.066736	1685.66	1.28
293.15	0.095356	1695.65	1.3
293.15	0.120903	1684.22	1.32
293.15	0.145154	1666.66	1.32
293.15	0.184444	1634.3	1.33
293.15	0.212076	1610.48	1.33
293.15	0.243763	1587.87	1.33
293.15	0.292341	1557.46	1.34
293.15	0.361002	1518.24	1.35
293.15	0.436854	1485.93	1.37
293.15	0.492962	1461.73	1.39
293.15	0.493727	1461.83	1.39
293.15	0.551304	1442.21	1.41
293.15	0.621429	1421.75	1.43
293.15	0.677529	1407.29	1.46
293.15	0.69433	1402.87	1.46
293.15	0.745811	1391.07	1.48
293.15	0.77334	1385.35	1.49
293.15	0.794733	1380.59	1.5
293.15	0.827596	1374.14	1.52
293.15	0.874404	1365.12	1.54
293.15	0.899316	1360.02	1.55
293.15	0.918855	1356.67	1.56
293.15	0.941083	1352.44	1.57
293.15	0.948584	1351.31	1.57
293.15	0.961298	1348.96	1.58
293.15	0.987118	1344.3	1.6
293.15	1	1342.05	1.6
298.15	0	1496.7	1.25
298.15	0.0001081	1497.15	1.25
298.15	0.0003191	1498.05	1.25
298.15	0.0006252	1499.36	1.25
298.15	0.0009424	1500.92	1.25
298.15	0.0012843	1502.25	1.25
298.15	0.0019472	1505.37	1.25
298.15	0.0029116	1509.6	1.25
298.15	0.0039195	1514.02	1.25
298.15	0.0050977	1518.96	1.25
298.15	0.00981	1538.77	1.25
298.15	0.014804	1558.42	1.25
298.15	0.019563	1575.96	1.25
298.15	0.028319	1604.72	1.25
298.15	0.039136	1633.66	1.25
298.15	0.050821	1657.23	1.27
298.15	0.066736	1676.16	1.28
298.15	0.095356	1681.6	1.3
298.15	0.120903	1668.29	1.31
298.15	0.145154	1650.17	1.32
298.15	0.184444	1617.31	1.32
298.15	0.212076	1593.38	1.32
298.15	0.243763	1569.87	1.33
298.15	0.292341	1539.37	1.34
298.15	0.361002	1499.24	1.35
298.15	0.436854	1466.9	1.37
298.15	0.492962	1442.55	1.39
298.15	0.493727	1442.62	1.39
298.15	0.551304	1422.74	1.41
298.15	0.621429	1402.04	1.43
298.15	0.677529	1386.67	1.45
298.15	0.69433	1383.1	1.46
298.15	0.745811	1370.8	1.48
298.15	0.77334	1365.16	1.49
298.15	0.794733	1360.19	1.5
298.15	0.827596	1353.56	1.51
298.15	0.848775	1349.27	1.52
298.15	0.874404	1344.59	1.54
298.15	0.899316	1339.34	1.55
298.15	0.918855	1335.62	1.56
298.15	0.941083	1331.76	1.57
298.15	0.948584	1330.68	1.57
298.15	0.961298	1327.94	1.58
298.15	0.974599	1325.68	1.59
298.15	0.987118	1321.51	1.59
298.15	1	1321.25	1.59
303.15	0	1509.14	1.25
303.15	0.0001081	1509.62	1.25
303.15	0.0003191	1510.38	1.25
303.15	0.0006252	1511.61	1.25
303.15	0.0009424	1512.84	1.25
303.15	0.0012843	1514.22	1.25
303.15	0.0019472	1516.84	1.25
303.15	0.0029116	1520.72	1.25
303.15	0.0039195	1524.73	1.25
303.15	0.0050977	1529.25	1.25
303.15	0.00981	1547.18	1.24
303.15	0.014804	1565	1.24
303.15	0.019563	1580.67	1.24
303.15	0.028319	1606.36	1.25
303.15	0.039136	1631.81	1.26
303.15	0.050821	1651.33	1.27
303.15	0.066736	1666.3	1.3
303.15	0.095356	1667.67	1.33
303.15	0.120903	1653.07	1.32
303.15	0.145154	1633.89	1.32
303.15	0.184444	1600.41	1.32
303.15	0.212076	1576.08	1.31
303.15	0.243763	1552.31	1.32
303.15	0.292341	1521.5	1.33
303.15	0.361002	1480.87	1.33
303.15	0.436854	1448.12	1.37
303.15	0.493727	1423.37	1.38
303.15	0.551304	1403.32	1.4
303.15	0.621429	1382.3	1.43
303.15	0.677529	1366.72	1.45
303.15	0.69433	1363.06	1.46
303.15	0.745811	1350.55	1.47
303.15	0.77334	1344.77	1.49
303.15	0.794733	1339.84	1.5
303.15	0.827596	1333.21	1.51
303.15	0.874404	1324.01	1.53
303.15	0.899316	1319.19	1.54
303.15	0.918855	1315.14	1.55
303.15	0.941083	1311.09	1.56
303.15	0.948584	1309.75	1.57
303.15	0.961298	1307.28	1.57
303.15	0.974599	1304.66	1.58
303.15	0.987118	1302.39	1.58
303.15	1	1300.44	1.59
