Measured thermophysical data. Solubility and thermodynamic properties of NH3 in choline chloride-based deep eutectic solvents
Source: J. Chem. Thermodyn., 2019, 10.1016/j.jct.2019.01.031
Compound 1: choline chloride, C5H14ClNO, InChI=1S/C5H14NO.ClH/c1-6(2,3)4-5-7;/h7H,4-5H2,1-3H3;1H/q+1;/p-1, purity 99%
Compound 2: glycerol, C3H8O3, InChI=1S/C3H8O3/c4-1-3(6)2-5/h3-6H,1-2H2, purity 99.5%
Compound 3: 1,2-ethanediol, C2H6O2, InChI=1S/C2H6O2/c3-1-2-4/h3-4H,1-2H2, purity 99%
Compound 4: methylurea, C2H6N2O, InChI=1S/C2H6N2O/c1-4-2(3)5/h1H3,(H3,3,4,5), purity 99%
Compound 5: 2,2,2-trifluoroacetamide, C2H2F3NO, InChI=1S/C2H2F3NO/c3-2(4,5)1(6)7/h(H2,6,7), purity 99%
Compound 6: ammonia, H3N, InChI=1S/H3N/h1H3, purity 99.99%

System: choline chloride + glycerol + ammonia; phases: Liquid, Gas
Fixed: Solvent: Mole fraction of choline chloride = 0.333
Property: Molality, mol/kg of ammonia (Liquid); method: Volumetric method
Temperature, K	Pressure, kPa	Molality, mol/kg of ammonia	uncertainty
303.15	23.1	1.288	0.087
303.15	70.1	3.095	0.138
303.15	162.1	5.916	0.245
303.15	231.1	7.764	0.318
303.15	305.4	9.606	0.392
303.15	336.5	10.51	0.43
303.15	372.6	11.34	0.46
303.15	433.4	12.98	0.53
303.15	523.8	15.38	0.62
313.15	23	0.575	0.04
313.15	57.5	1.395	0.074
313.15	90	2.119	0.093
313.15	132.3	3.024	0.128
313.15	184	4.105	0.169
313.15	249.8	5.452	0.224
313.15	357.4	7.849	0.32
313.15	453.8	9.639	0.391
313.15	568.4	11.61	0.47
323.15	9.9	0.29	0.029
323.15	27.9	0.642	0.043
323.15	67.3	1.356	0.063
323.15	105.7	2.014	0.085
323.15	172.7	2.858	0.118
323.15	242.1	3.781	0.155
323.15	298.4	4.76	0.194
323.15	393.9	6.185	0.251
323.15	517.1	7.935	0.322
333.15	30.5	0.388	0.027
333.15	68.1	0.844	0.041
333.15	109.3	1.341	0.058
333.15	152.4	1.856	0.078
333.15	220.6	2.662	0.109
333.15	276.9	3.311	0.135
333.15	327.6	3.879	0.158
333.15	405.3	4.649	0.189
333.15	511.3	5.737	0.233

System: choline chloride + 1,2-ethanediol + ammonia; phases: Liquid, Gas
Fixed: Solvent: Mole fraction of choline chloride = 0.333
Property: Molality, mol/kg of ammonia (Liquid); method: Volumetric method
Temperature, K	Pressure, kPa	Molality, mol/kg of ammonia	uncertainty
303.15	12.9	0.604	0.078
303.15	36	1.56	0.094
303.15	66.2	2.689	0.126
303.15	102.3	3.889	0.166
303.15	149.1	5.237	0.218
303.15	200.7	6.694	0.275
303.15	284.1	8.873	0.362
303.15	370.6	11.15	0.45
303.15	457.6	13.36	0.54
303.15	546.1	16.27	0.66
313.15	13.9	0.414	0.055
313.15	35.7	1.041	0.064
313.15	73	2.039	0.095
313.15	100.5	2.729	0.117
313.15	152.9	3.912	0.163
313.15	206.2	5.06	0.208
313.15	313.6	7.251	0.296
313.15	421.6	9.323	0.379
313.15	551.5	11.88	0.48
323.15	35	0.673	0.039
323.15	55.2	1.062	0.06
323.15	71.2	1.366	0.062
323.15	88.5	1.688	0.078
323.15	113.2	2.139	0.091
323.15	156.4	2.893	0.121
323.15	200.6	3.621	0.149
323.15	300.9	5.103	0.208
323.15	391.1	6.474	0.263
323.15	493	7.925	0.321
333.15	19.7	0.343	0.031
333.15	38.7	0.639	0.038
333.15	60	0.966	0.043
333.15	96.6	1.491	0.065
333.15	164.9	2.403	0.099
333.15	285.8	3.852	0.157
333.15	382.3	4.99	0.203
333.15	481.3	6.054	0.246

System: choline chloride + methylurea + ammonia; phases: Liquid, Gas
Fixed: Solvent: Mole fraction of choline chloride = 0.333
Property: Molality, mol/kg of ammonia (Liquid); method: Volumetric method
Temperature, K	Pressure, kPa	Molality, mol/kg of ammonia	uncertainty
313.15	52.8	0.707	0.037
313.15	90.2	1.191	0.053
313.15	147.2	1.902	0.08
313.15	205.7	2.594	0.107
313.15	259.1	3.276	0.134
313.15	338.6	4.064	0.165
313.15	413	4.936	0.201
313.15	519.6	6.215	0.252
323.15	51.3	0.46	0.024
323.15	107.4	0.929	0.04
323.15	161.4	1.396	0.058
323.15	235.1	2.049	0.084
323.15	305.9	2.707	0.11
323.15	394.3	3.391	0.138
323.15	518	4.593	0.187
333.15	56.2	0.319	0.017
333.15	89.5	0.519	0.024
333.15	143.3	0.865	0.037
333.15	237.8	1.473	0.061
333.15	304.3	1.92	0.078
333.15	396.4	2.563	0.104
333.15	492.6	3.199	0.13
333.15	568.7	3.75	0.152

System: choline chloride + 2,2,2-trifluoroacetamide + ammonia; phases: Liquid, Gas
Fixed: Solvent: Mole fraction of choline chloride = 0.333
Property: Molality, mol/kg of ammonia (Liquid); method: Volumetric method
Temperature, K	Pressure, kPa	Molality, mol/kg of ammonia	uncertainty
303.15	40.8	1.356	0.079
303.15	68.4	2.225	0.104
303.15	93	2.878	0.124
303.15	113.6	3.306	0.14
303.15	143.3	4.003	0.167
303.15	186.9	4.979	0.204
303.15	290.2	6.732	0.275
303.15	372.9	8.518	0.347
303.15	521.8	11.67	0.47
313.15	24.1	0.573	0.046
313.15	47.8	1.059	0.054
313.15	89.5	1.829	0.08
313.15	137.4	2.665	0.112
313.15	181.4	3.379	0.14
313.15	236.6	4.295	0.175
313.15	339.5	5.733	0.233
313.15	418.3	6.987	0.284
313.15	516.1	8.449	0.344
323.15	41.2	0.705	0.037
323.15	73.6	1.165	0.053
323.15	121.9	1.821	0.077
323.15	192.9	2.724	0.112
323.15	262	3.593	0.146
323.15	340.3	4.465	0.182
323.15	458.8	5.776	0.234
323.15	540.1	6.764	0.275
333.15	33.6	0.45	0.028
333.15	75.8	0.95	0.043
333.15	123.6	1.475	0.062
333.15	193.8	2.227	0.092
333.15	265	2.949	0.12
333.15	377.6	3.936	0.16
333.15	489.1	4.935	0.2
333.15	573.2	5.664	0.229
