Measured thermophysical data. A calorimetric investigation of A2[(UO2)2(WO5)O] compounds with A = K, Rb and Cs and calculated phase relations in the K2WO4-UO3-H2O and K2MoO4-K2WO4-UO3-H2O systems
Source: J. Chem. Thermodyn., 2017, 10.1016/j.jct.2017.03.039
Compound 1: potassium, K, InChI=1S/K
Compound 2: tungsten, W, InChI=1S/W
Compound 3: uranium, U, InChI=1S/U
Compound 4: oxygen, O2, InChI=1S/O2/c1-2
Compound 5: rubidium, Rb, InChI=1S/Rb
Compound 6: cesium, Cs, InChI=1S/Cs
Compound 7: potassium tungsten uranium oxide (K2WU2O10), K2O10U2W, InChI=1S/2K.10O.2U.W/q2*+1;;;;;;;2*-2;2*-1;2*+2;, purity 98%
Compound 8: rubidium tungsten uranium oxide (Rb2WU2O10), O10Rb2U2W, InChI=1S/10O.2Rb.2U.W/q;;;;;;2*-2;2*-1;2*+1;2*+2;, purity 98%
Compound 9: cesium tungsten uranium oxide (Cs2WU2O10), Cs2O10U2W, InChI=1S/2Cs.10O.2U.W/q2*+1;;;;;;;2*-2;2*-1;2*+2;, purity 98%

System: potassium tungsten uranium oxide (K2WU2O10); phases: Crystal
Fixed: Pressure, kPa = 101.325
Property: Molar heat capacity at constant pressure, J/K/mol (Crystal); method: Small (less than 1 g) adiabatic calorimetry
Temperature, K	Molar heat capacity at constant pressure, J/K/mol	uncertainty
20	11.03	0.23
40	50.83	0.35
50	74.55	0.43
70	119.26	0.58
90	149.6	0.65
110	176.65	0.74
130	199.63	0.82
150	219.48	0.88
170	236.78	0.94
190	251.98	0.99
210	265.44	1.04
230	277.49	1.08
250	288.39	1.12
270	298.35	1.15
273.15	299.85	1.16
290	307.55	1.18
298.15	311.11	1.2
300	311.91	1.2
320	320.23	1.23

System: potassium tungsten uranium oxide (K2WU2O10); phases: Crystal
Fixed: Pressure, kPa = 101.325
Property: Molar enthalpy, kJ/mol (Crystal); method: Small (less than 1 g) adiabatic calorimetry
Temperature, K	Molar enthalpy, kJ/mol	uncertainty
20	0.06	0.01
40	0.65	0.01
50	1.28	0.01
70	3.24	0.02
90	5.93	0.04
110	9.2	0.05
130	12.97	0.07
150	17.16	0.08
170	21.73	0.1
190	26.62	0.12
210	31.8	0.14
230	37.23	0.16
250	42.89	0.19
270	48.76	0.21
273.15	49.7	0.21
290	54.82	0.23
298.15	57.34	0.24
300	57.92	0.24
320	64.24	0.27

System: potassium tungsten uranium oxide (K2WU2O10); phases: Crystal
Fixed: Pressure, kPa = 101.325
Property: Molar entropy, J/K/mol (Crystal); method: Small (less than 1 g) adiabatic calorimetry
Temperature, K	Molar entropy, J/K/mol	uncertainty
20	3.94	0.12
40	22.98	0.27
50	36.85	0.37
70	69.34	0.55
90	103.02	0.75
110	135.75	0.92
130	167.17	1.08
150	197.16	1.24
170	225.71	1.39
190	252.9	1.54
210	278.79	1.68
230	303.49	1.81
250	327.08	1.93
270	349.66	2.05
273.15	353.13	2.07
290	371.31	2.17
298.15	379.88	2.22
300	381.81	2.23
320	402.21	2.34

System: potassium tungsten uranium oxide (K2WU2O10); phases: Crystal
Fixed: Pressure, kPa = 101.325
Property: Molar heat capacity at constant pressure, J/K/mol (Crystal); method: Small (less than 1 g) adiabatic calorimetry
Temperature, K	Molar heat capacity at constant pressure, J/K/mol	uncertainty
9.2	1.129	0.056
9.4	1.201	0.062
9.7	1.28	0.063
9.9	1.416	0.064
10.2	1.559	0.07
10.5	1.756	0.076
10.9	1.951	0.084
11.2	2.211	0.092
11.5	2.431	0.096
11.9	2.717	0.106
12.2	2.983	0.11
12.6	3.266	0.114
12.9	3.55	0.121
13.2	3.814	0.124
13.6	4.109	0.132
13.9	4.383	0.135
14.3	4.707	0.141
14.6	4.988	0.148
15	5.3	0.117
15.3	5.615	0.121
15.7	5.959	0.124
16.1	6.388	0.13
16.4	6.677	0.131
16.8	7.101	0.139
17.1	7.406	0.14
17.5	7.801	0.151
17.8	8.205	0.156
18.2	8.619	0.164
18.5	9.155	0.167
18.9	9.637	0.167
19.2	10.11	0.17
19.6	10.5	0.18
20	10.97	0.18
21	12.57	0.21
22.7	15.3	0.22
24.5	18.24	0.24
26.3	21.49	0.27
28.1	25.25	0.3
29.9	29.36	0.31
31.8	32.69	0.32
33.6	37.14	0.36
35.7	41.8	0.37
37.6	45.96	0.39
39.5	50.06	0.41
41.5	54.26	0.36
43.4	58.41	0.38
45.4	62.87	0.39
47.4	67.58	0.41
49.4	72.31	0.43
51.3	76.95	0.46
53.3	82.45	0.48
55.3	87.82	0.48
57.3	92.09	0.5
59.3	97.21	0.52
61.3	102.2	0.5
63.4	106.8	0.5
65.4	111	0.5
67.5	114.3	0.6
69.5	117.4	0.6
72	121.7	0.6
75.1	127.2	0.6
78.1	132	0.6
79.8	134.9	0.6
83.7	140.5	0.7
86.7	144.3	0.7
89.7	148.5	0.7
92.7	152.4	0.7
95.7	156.9	0.7
98.7	161.8	0.7
101.7	165.6	0.7
104.6	170.4	0.7
107.6	173.7	0.7
110.6	177.9	0.7
113.6	181.4	0.8
116.6	184.2	0.8
119.7	188.4	0.8
122.7	191.4	0.8
125.7	195	0.8
128.7	197.7	0.8
131.8	201.6	0.8
134.8	204.7	0.8
137.8	207.5	0.8
140.9	211.7	0.9
143.9	214.1	0.9
146.9	216.4	0.9
150	219.1	0.9
153	222	0.9
156.1	224.8	0.9
159.1	227.6	0.9
162.2	230.8	0.9
165.2	233.5	0.9
168.2	235.7	0.9
171.3	237.9	0.9
174.3	240.4	1
177.4	242.5	1
180.5	244.9	1
183.5	247.5	1
186.6	249.4	1
189.6	251.4	1
192.6	253.6	1
195.7	255.1	1
198.7	258.1	1
201.8	259.3	1
204.8	260.9	1
207.8	263	1
210.9	265.6	1
213.9	267.2	1
216.9	269.4	1.1
219.9	272.1	1.1
223	273.2	1.1
226	275.9	1.1
229	277.4	1.1
232	278.7	1.1
235	281	1.1
238	282.3	1.1
241	284	1.1
244	285.4	1.1
247	287.1	1.1
249.9	289.2	1.1
252.9	290.6	1.1
255.9	292.1	1.1
258.8	293.7	1.1
261.8	294.8	1.1
264.7	296.1	1.1
267.6	298.1	1.2
270.5	299.4	1.2
273.3	300.8	1.2
276.2	301.4	1.2
279.1	302.3	1.2
281.9	303.3	1.2
284.8	304.5	1.2
287.6	305.3	1.2
290.4	306.8	1.2
293.1	307.9	1.2
295.9	309.1	1.2
298.6	310	1.2
301.6	312	1.2
305.2	314.1	1.2
308.8	315.1	1.2
312.3	317.1	1.2
315.6	318.8	1.2
319	320.1	1.2
322.3	321.2	1.2
325.6	322.7	1.2
328.8	325.4	1.2

System: rubidium tungsten uranium oxide (Rb2WU2O10); phases: Crystal
Fixed: Pressure, kPa = 101.325
Property: Molar heat capacity at constant pressure, J/K/mol (Crystal); method: Small (less than 1 g) adiabatic calorimetry
Temperature, K	Molar heat capacity at constant pressure, J/K/mol	uncertainty
20	13.53	0.26
40	57.19	0.37
50	80.9	0.45
70	125.19	0.61
90	160.78	0.7
110	187.91	0.78
130	210.8	0.86
150	231.27	0.93
170	249.45	0.99
190	265.67	1.04
210	280.43	1.09
230	294.24	1.14
250	307.56	1.19
270	320.76	1.23
273.15	322.85	1.24
290	334.11	1.28
298.15	339.63	1.3
300	340.89	1.3
320	354.75	1.35

System: rubidium tungsten uranium oxide (Rb2WU2O10); phases: Crystal
Fixed: Pressure, kPa = 101.325
Property: Molar enthalpy, kJ/mol (Crystal); method: Small (less than 1 g) adiabatic calorimetry
Temperature, K	Molar enthalpy, kJ/mol	uncertainty
20	0.07	0.01
40	0.76	0.01
50	1.45	0.01
70	3.52	0.02
90	6.38	0.04
110	9.88	0.05
130	13.87	0.07
150	18.29	0.09
170	23.11	0.11
190	28.26	0.13
210	33.72	0.15
230	39.47	0.17
250	45.49	0.19
270	51.77	0.22
273.15	52.79	0.22
290	58.32	0.24
298.15	61.07	0.26
300	61.7	0.26
320	68.65	0.29

System: rubidium tungsten uranium oxide (Rb2WU2O10); phases: Crystal
Fixed: Pressure, kPa = 101.325
Property: Molar entropy, J/K/mol (Crystal); method: Small (less than 1 g) adiabatic calorimetry
Temperature, K	Molar entropy, J/K/mol	uncertainty
20	4.71	0.14
40	26.72	0.3
50	42.03	0.4
70	76.51	0.6
90	112.23	0.8
110	147.25	0.98
130	180.53	1.16
150	212.16	1.32
170	242.24	1.48
190	270.89	1.63
210	298.21	1.78
230	324.35	1.92
250	349.43	2.05
270	373.6	2.18
273.15	377.33	2.2
290	396.99	2.31
298.15	406.33	2.36
300	408.43	2.37
320	430.87	2.49

System: rubidium tungsten uranium oxide (Rb2WU2O10); phases: Crystal
Fixed: Pressure, kPa = 101.325
Property: Molar heat capacity at constant pressure, J/K/mol (Crystal); method: Small (less than 1 g) adiabatic calorimetry
Temperature, K	Molar heat capacity at constant pressure, J/K/mol	uncertainty
8.9	1.006	0.068
9.2	1.173	0.074
9.4	1.318	0.074
9.7	1.523	0.081
10	1.664	0.084
10.3	1.883	0.094
10.6	2.171	0.099
10.9	2.411	0.109
11.2	2.725	0.114
11.6	3.049	0.121
11.9	3.351	0.129
12.3	3.685	0.128
12.6	4.031	0.137
12.9	4.376	0.141
13.3	4.619	0.149
13.6	4.945	0.153
14	5.303	0.159
14.3	5.668	0.171
14.7	6.08	0.18
15	6.43	0.14
15.4	6.86	0.15
15.7	7.25	0.15
16.1	7.66	0.16
16.4	8.08	0.16
16.8	8.59	0.17
17.1	9.01	0.18
17.5	9.58	0.18
17.8	10.1	0.19
18.2	10.59	0.19
18.6	11.24	0.2
18.9	11.72	0.2
19.3	12.31	0.21
19.6	12.81	0.22
20	13.49	0.23
21	15.38	0.24
22.8	18.53	0.26
24.5	21.99	0.29
26.3	25.68	0.31
28.1	29.62	0.33
29.9	33.68	0.34
31.8	37.73	0.35
33.7	41.59	0.38
37.7	51.67	0.44
39.8	57.2	0.47
41.8	61.7	0.4
43.7	66	0.4
45.7	70.5	0.4
47.6	75.3	0.4
49.6	79.9	0.5
51.6	84.2	0.5
53.5	89.3	0.5
55.5	93.9	0.5
57.5	98.3	0.5
59.4	102.8	0.5
61.4	107.2	0.5
63.4	111.5	0.6
65.4	115.6	0.6
67.3	119.6	0.6
68.4	122.3	0.6
70.8	126.7	0.6
73.2	131.5	0.6
76.2	135.8	0.6
79.1	140.6	0.7
81.7	145.5	0.7
83.6	150.1	0.7
86.6	154.8	0.7
89.6	159.6	0.7
92.6	163.6	0.7
95.6	168.8	0.7
98.6	174.1	0.7
101.6	177.6	0.7
104.5	182.2	0.8
107.5	185.4	0.8
110.5	188.9	0.8
113.5	192.8	0.8
116.5	194.6	0.8
119.6	199.1	0.8
122.6	202	0.8
125.6	205.6	0.8
128.6	209.1	0.9
131.7	213.2	0.9
134.7	215.2	0.9
137.7	218.4	0.9
140.8	222.4	0.9
143.8	225.5	0.9
146.8	227.8	0.9
149.9	231.3	0.9
152.9	233.8	0.9
156	237.9	0.9
159	239.7	1
162.1	242.6	1
165.1	245	1
168.2	246.9	1
171.2	250.5	1
174.3	253	1
177.4	255.5	1
180.4	258	1
183.5	261	1
186.5	263.3	1
189.6	266.1	1
192.6	268	1.1
195.7	270.7	1.1
198.7	273.4	1.1
201.8	274.4	1.1
204.8	276.1	1.1
207.9	278.9	1.1
210.9	281.2	1.1
213.9	282.2	1.1
217	284.6	1.1
220	287.1	1.1
223.1	289.4	1.1
226.1	292	1.1
229.2	293.2	1.1
232.2	295.8	1.1
235.2	297.5	1.2
238.2	300.4	1.2
241.2	301.6	1.2
244.3	304.4	1.2
247.3	305.7	1.2
250.3	307.4	1.2
253.3	309	1.2
256.2	311.3	1.2
259.2	313.2	1.2
262.2	315.3	1.2
265.2	317.6	1.2
268.1	319.5	1.2
271.1	321.8	1.2
274	324.2	1.2
276.9	325.7	1.2
279.8	327.5	1.3
282.7	329.8	1.3
285.6	332	1.3
288.5	333.6	1.3
291.4	334.8	1.3
294.2	336.4	1.3
297.1	338.2	1.3
299.9	340.4	1.3
303	342.6	1.3
306.8	345.5	1.3
310.5	348.3	1.3
314.1	350.4	1.3
317.7	353.6	1.3
321.3	355.6	1.4

System: cesium tungsten uranium oxide (Cs2WU2O10); phases: Crystal
Fixed: Pressure, kPa = 101.325
Property: Molar heat capacity at constant pressure, J/K/mol (Crystal); method: Small (less than 1 g) adiabatic calorimetry
Temperature, K	Molar heat capacity at constant pressure, J/K/mol	uncertainty
20	17.22	0.3
40	63.71	0.4
50	87.82	0.48
70	132.61	0.63
90	164.2	0.7
110	189.67	0.79
130	212.08	0.86
150	232.15	0.93
170	250.29	0.99
190	266.7	1.05
210	281.56	1.1
230	295.1	1.14
250	307.7	1.19
270	319.82	1.23
273.15	321.72	1.23
290	332.01	1.27
298.15	337.14	1.29
300	338.32	1.29
320	351.83	1.34

System: cesium tungsten uranium oxide (Cs2WU2O10); phases: Crystal
Fixed: Pressure, kPa = 101.325
Property: Molar enthalpy, kJ/mol (Crystal); method: Small (less than 1 g) adiabatic calorimetry
Temperature, K	Molar enthalpy, kJ/mol	uncertainty
20	0.1	0.01
40	0.89	0.01
50	1.65	0.02
70	3.87	0.02
90	6.86	0.04
110	10.41	0.05
130	14.43	0.07
150	18.87	0.09
170	23.7	0.11
190	28.87	0.13
210	34.36	0.15
230	40.13	0.17
250	46.16	0.2
270	52.43	0.22
273.15	53.44	0.23
290	58.95	0.25
298.15	61.68	0.26
300	62.3	0.26
320	69.2	0.29

System: cesium tungsten uranium oxide (Cs2WU2O10); phases: Crystal
Fixed: Pressure, kPa = 101.325
Property: Molar entropy, J/K/mol (Crystal); method: Small (less than 1 g) adiabatic calorimetry
Temperature, K	Molar entropy, J/K/mol	uncertainty
20	6.98	0.18
40	32.56	0.34
50	49.37	0.44
70	86.26	0.66
90	123.69	0.86
110	159.16	1.05
130	192.71	1.22
150	224.48	1.39
170	254.67	1.55
190	283.42	1.7
210	310.85	1.85
230	337.08	1.99
250	362.21	2.12
270	386.35	2.25
273.15	390.08	2.27
290	409.64	2.38
298.15	418.91	2.43
300	421	2.44
320	443.26	2.56

System: cesium tungsten uranium oxide (Cs2WU2O10); phases: Crystal
Fixed: Pressure, kPa = 101.325
Property: Molar heat capacity at constant pressure, J/K/mol (Crystal); method: Small (less than 1 g) adiabatic calorimetry
Temperature, K	Molar heat capacity at constant pressure, J/K/mol	uncertainty
6.2	0.671	0.037
6.5	0.723	0.04
6.7	0.783	0.042
6.9	0.848	0.045
7.1	0.911	0.05
7.4	0.991	0.056
7.6	1.096	0.064
7.9	1.234	0.07
8.1	1.402	0.081
8.4	1.575	0.09
8.6	1.805	0.099
8.9	2.035	0.108
9.1	2.303	0.112
9.4	2.542	0.122
9.6	2.793	0.124
9.9	3.081	0.133
10.2	3.368	0.132
10.5	3.721	0.142
10.8	4.06	0.15
11.2	4.43	0.16
11.5	4.83	0.17
11.9	5.33	0.18
12.2	5.72	0.19
12.5	6.19	0.19
12.9	6.56	0.2
13.2	7.01	0.2
13.6	7.34	0.21
13.9	7.79	0.22
14.3	8.25	0.23
14.6	8.65	0.24
15	9.1	0.17
15.3	9.6	0.18
15.7	10.07	0.18
16	10.56	0.19
16.4	11.11	0.2
16.8	11.63	0.21
17.1	12.15	0.21
17.5	12.82	0.22
17.8	13.4	0.23
18.2	13.99	0.23
18.5	14.48	0.24
18.9	15.23	0.24
19.3	15.8	0.24
19.6	16.46	0.26
20	17.14	0.26
21	19.27	0.28
22.8	22.79	0.3
24.6	26.56	0.33
26.4	30.59	0.35
28.2	34.78	0.37
30	39.03	0.36
31.9	43.17	0.41
34.2	50.1	0.44
36.4	55.07	0.45
38.3	59.83	0.48
40.2	64.51	0.4
42.2	68.95	0.41
44.2	73.55	0.43
46.1	78.29	0.46
48.1	83.31	0.47
50.1	87.97	0.48
52.1	92.44	0.5
54.1	97.74	0.52
56.1	102.4	0.5
58.1	107.1	0.5
60.2	111.6	0.6
62.2	116.1	0.6
64.2	120.6	0.6
66.3	125	0.6
68.3	129.3	0.6
70.4	133.5	0.6
72.9	137.9	0.7
75.9	143.5	0.7
78.9	148.8	0.7
79.8	149.9	0.7
83.8	156.2	0.7
86.8	159.7	0.7
89.8	164.1	0.7
92.8	167.6	0.7
95.8	171.9	0.7
98.8	175.5	0.7
101.8	179.4	0.8
104.7	183.4	0.8
107.7	187.2	0.8
110.7	190.8	0.8
113.7	194.6	0.8
116.7	197.9	0.8
119.7	200.4	0.8
122.8	203.7	0.8
125.8	207.2	0.8
128.8	210.7	0.9
131.8	214.1	0.9
134.9	217.3	0.9
137.9	220	0.9
140.9	223.4	0.9
144	226.3	0.9
147	229.4	0.9
150	232.4	0.9
153.1	234.9	0.9
156.1	237.8	0.9
159.2	240.6	1
162.2	243.5	1
165.2	246.2	1
168.3	249.1	1
171.3	251.7	1
174.4	254	1
177.5	256.9	1
180.5	259	1
183.6	261.7	1
186.6	264.2	1
189.7	266.5	1
192.7	268.6	1.1
195.8	271.3	1.1
198.8	273.4	1.1
201.9	275.4	1.1
204.9	277.4	1.1
208	279.8	1.1
211	282.2	1.1
214.1	284.2	1.1
217.1	286.3	1.1
220.1	288.2	1.1
223.2	290.5	1.1
226.2	293.3	1.1
229.3	294.7	1.1
232.3	297	1.2
235.3	298.7	1.2
238.4	300.3	1.2
241.4	302.1	1.2
244.4	304.4	1.2
247.4	306.2	1.2
250.4	308.2	1.2
253.5	310.1	1.2
256.5	311.6	1.2
259.4	313.7	1.2
262.4	315.6	1.2
265.4	317.4	1.2
268.4	319	1.2
271.4	320.4	1.2
274.3	322	1.2
277.3	323.7	1.2
280.2	325.7	1.2
283.2	327.7	1.3
286.1	329.5	1.3
289	331.5	1.3
291.9	333.4	1.3
294.8	335	1.3
297.6	336.7	1.3
300.5	338.3	1.3
303.7	340.9	1.3
307.5	343.4	1.3
311.2	345.7	1.3
314.9	348.5	1.3
320	351.7	1.3

Reaction: 1 potassium tungsten uranium oxide (K2WU2O10) + -2 potassium + -1 tungsten + -2 uranium + -5 oxygen
Property: Molar enthalpy of reaction, kJ/mol
-4185

Reaction: 1 rubidium tungsten uranium oxide (Rb2WU2O10) + -2 rubidium + -1 tungsten + -2 uranium + -5 oxygen
Property: Molar enthalpy of reaction, kJ/mol
-4185

Reaction: 1 cesium tungsten uranium oxide (Cs2WU2O10) + -1 tungsten + -2 cesium + -2 uranium + -5 oxygen
Property: Molar enthalpy of reaction, kJ/mol
-4198
