Measured thermophysical data. Crystal structure and thermochemical properties of 1-decylammonium  hydrochloride (C10H21NH3Cl)(s)
Source: J. Chem. Thermodyn., 2011, 10.1016/j.jct.2011.02.013
Compound 1: decylammonium chloride, C10H24ClN, InChI=1S/C10H23N.ClH/c1-2-3-4-5-6-7-8-9-10-11;/h2-11H2,1H3;1H
Compound 2: water, H2O, InChI=1S/H2O/h1H2

System: decylammonium chloride + water; phases: Liquid, Crystal
Fixed: Temperature, K = 298.15
Property: Molar enthalpy of solution, kJ/mol (Liquid); method: ISOPERIBOL
Molality, mol/kg of decylammonium chloride	Molar enthalpy of solution, kJ/mol	uncertainty
0.00054032	30.45681	3.0536
0.00105955	28.8808	1.4861
0.00155549	28.05588	0.994
0.00211134	27.59688	0.73248
0.00259063	27.38985	0.6039
0.00316645	27.28874	0.50438
0.0036524	27.24219	0.44758
0.00414168	27.22294	0.40472
0.0046709	27.2117	0.36827
0.00518681	27.22133	0.34309
0.00568274	27.2101	0.32185
0.00623859	27.21973	0.30454
0.0067778	27.21812	0.28931
0.00726375	27.2117	0.27899
0.00831221	27.22294	0.26084
0.00931407	27.22294	0.24905
0.01035254	27.22294	0.23922
0.0129587	27.23256	0.22379
