Measured thermophysical data. A study of densities and volumetric properties of binary mixtures of N-methyl-2-pyrrolidone with xylene at different temperatures and atmospheric pressure
Source: J. Chem. Thermodyn., 2007, 10.1016/j.jct.2006.11.003
Compound 1: 1,2-dimethylbenzene, C8H10, InChI=1S/C8H10/c1-7-5-3-4-6-8(7)2/h3-6H,1-2H3, purity 99.7%
Compound 2: 1,3-dimethylbenzene, C8H10, InChI=1S/C8H10/c1-7-4-3-5-8(2)6-7/h3-6H,1-2H3, purity 98%
Compound 3: 1,4-dimethylbenzene, C8H10, InChI=1S/C8H10/c1-7-3-5-8(2)6-4-7/h3-6H,1-2H3, purity 99%
Compound 4: N-methylpyrrolidone, C5H9NO, InChI=1S/C5H9NO/c1-6-4-2-3-5(6)7/h2-4H2,1H3, purity 99.7%

System: 1,2-dimethylbenzene; phases: Liquid
Property: Refractive index (Na D-line) (Liquid); method: Standard Abbe refractometry
Temperature, K	Pressure, kPa	Refractive index (Na D-line)	uncertainty
298.15	101.325	1.5057	0.0007

System: 1,2-dimethylbenzene; phases: Liquid
Fixed: Pressure, kPa = 101
Property: Mass density, kg/m3 (Liquid); method: VIBTUB:UFactor:8
Temperature, K	Mass density, kg/m3	uncertainty
293.15	879.84	0.64
298.15	875.73	0.65
303.15	871.48	0.66
313.15	863.03	0.69
323.15	854.51	0.72
333.15	845.91	0.74
343.15	837.23	0.77
353.15	828.47	0.8

System: 1,3-dimethylbenzene; phases: Liquid
Property: Refractive index (Na D-line) (Liquid); method: Standard Abbe refractometry
Temperature, K	Pressure, kPa	Refractive index (Na D-line)	uncertainty
298.15	101.325	1.4973	0.0008

System: 1,3-dimethylbenzene; phases: Liquid
Fixed: Pressure, kPa = 101
Property: Mass density, kg/m3 (Liquid); method: VIBTUB:UFactor:8
Temperature, K	Mass density, kg/m3	uncertainty
293.15	864.31	1.28
298.15	859.83	1.28
303.15	855.64	1.29
313.15	846.9	1.31
323.15	838.09	1.32
333.15	829.22	1.34
343.15	820.29	1.35
353.15	811.29	1.37

System: 1,4-dimethylbenzene; phases: Liquid
Property: Refractive index (Na D-line) (Liquid); method: Standard Abbe refractometry
Temperature, K	Pressure, kPa	Refractive index (Na D-line)	uncertainty
298.15	101.325	1.4958	0.0008

System: 1,4-dimethylbenzene; phases: Liquid
Fixed: Pressure, kPa = 101
Property: Mass density, kg/m3 (Liquid); method: VIBTUB:UFactor:8
Temperature, K	Mass density, kg/m3	uncertainty
293.15	860.95	0.83
298.15	856.58	0.84
303.15	852.3	0.85
313.15	848.23	10
323.15	834.76	0.9
343.15	816.87	0.95
353.15	807.81	0.98
333.15	825.86	1.2

System: N-methylpyrrolidone; phases: Liquid
Property: Refractive index (Na D-line) (Liquid); method: Standard Abbe refractometry
Temperature, K	Pressure, kPa	Refractive index (Na D-line)	uncertainty
298.15	101.325	1.4677	0.0007

System: N-methylpyrrolidone; phases: Liquid
Fixed: Pressure, kPa = 101
Property: Mass density, kg/m3 (Liquid); method: VIBTUB:UFactor:8
Temperature, K	Mass density, kg/m3	uncertainty
293.15	1032.66	0.48
298.15	1028.25	0.46
303.15	1023.42	0.44
313.15	1014.27	0.4
323.15	1005.62	0.37
333.15	996.28	0.36
343.15	987.39	0.4
353.15	978.62	0.43

System: 1,2-dimethylbenzene + N-methylpyrrolidone; phases: Liquid
Fixed: Pressure, kPa = 101
Property: Mass density, kg/m3 (Liquid); method: VIBTUB:UFactor:8
Temperature, K	Mole fraction of 1,2-dimethylbenzene	Mass density, kg/m3	uncertainty
293.15	0	1032.66	0.48
293.15	0.0478	1024.81	0.45
293.15	0.0865	1018.48	0.42
293.15	0.1584	1006.82	0.37
293.15	0.2266	995.89	0.36
293.15	0.2714	988.75	0.39
293.15	0.3393	978.06	0.44
293.15	0.387	970.61	0.47
293.15	0.4321	963.63	0.49
293.15	0.5011	953.04	0.54
293.15	0.5668	943.08	0.58
293.15	0.6297	933.64	0.61
293.15	0.7099	921.74	0.66
293.15	0.7859	910.6	0.7
293.15	0.8577	900.18	0.74
293.15	0.9388	888.55	0.79
293.15	1	879.84	0.82
303.15	0	1023.42	0.44
303.15	0.0565	1014.2	0.4
303.15	0.1122	1005.19	0.37
303.15	0.1895	992.78	0.37
303.15	0.2467	983.7	0.41
303.15	0.3239	971.56	0.46
303.15	0.3967	960.27	0.51
303.15	0.4565	951.08	0.54
303.15	0.5127	942.54	0.58
303.15	0.5655	934.58	0.61
303.15	0.6251	925.68	0.64
303.15	0.7076	913.5	0.69
303.15	0.7626	905.46	0.72
303.15	0.8498	892.86	0.77
303.15	0.9049	884.97	0.8
303.15	0.9639	876.58	0.84
303.15	1	871.48	0.86
313.15	0	1014.27	0.4
313.15	0.0485	1006.39	0.37
313.15	0.0922	999.35	0.35
313.15	0.1795	985.39	0.4
313.15	0.2368	976.31	0.44
313.15	0.3036	965.84	0.48
313.15	0.3679	955.86	0.52
313.15	0.4285	946.56	0.56
313.15	0.4894	937.31	0.6
313.15	0.5375	930.05	0.63
313.15	0.6034	920.22	0.67
313.15	0.673	909.94	0.71
313.15	0.7355	900.8	0.74
313.15	0.8196	888.65	0.79
313.15	0.8767	880.48	0.82
313.15	0.9289	873.06	0.85
313.15	1	863.03	0.89
323.15	0	1005.62	0.37
323.15	0.0478	997.82	0.35
323.15	0.1014	989.16	0.39
323.15	0.1603	979.74	0.43
323.15	0.2364	967.69	0.48
323.15	0.3026	957.34	0.52
323.15	0.3575	948.83	0.55
323.15	0.4244	938.56	0.59
323.15	0.4915	928.37	0.63
323.15	0.5582	918.35	0.67
323.15	0.6217	908.9	0.71
323.15	0.6735	901.26	0.74
323.15	0.7536	889.56	0.79
323.15	0.8206	879.9	0.82
323.15	0.8728	872.43	0.85
323.15	0.9511	861.36	0.9
323.15	1	854.51	0.93
333.15	0	996.28	0.36
333.15	0.0579	986.94	0.4
333.15	0.1023	979.83	0.43
333.15	0.1814	967.25	0.48
333.15	0.2556	955.59	0.52
333.15	0.3135	946.59	0.56
333.15	0.3815	936.11	0.6
333.15	0.4478	926.02	0.64
333.15	0.5014	917.94	0.68
333.15	0.5654	908.37	0.71
333.15	0.6122	901.45	0.74
333.15	0.6632	893.96	0.77
333.15	0.8105	872.67	0.85
333.15	0.8744	863.57	0.89
333.15	0.9214	856.93	0.92
333.15	0.9632	851.06	0.94
333.15	1	845.91	0.96
343.15	0	987.39	0.4
343.15	0.0462	979.94	0.43
343.15	0.1045	970.59	0.46
343.15	0.1614	961.55	0.5
343.15	0.2153	953.05	0.53
343.15	0.2864	941.94	0.58
343.15	0.3576	930.94	0.62
343.15	0.4102	922.9	0.66
343.15	0.4828	911.91	0.7
343.15	0.5477	902.2	0.74
343.15	0.6065	893.5	0.77
343.15	0.6735	883.68	0.81
343.15	0.7533	872.13	0.86
343.15	0.8095	864.07	0.89
343.15	0.8745	854.83	0.93
343.15	0.9407	845.51	0.96
343.15	1	837.23	1
353.15	0.0475	970.95	0.46
353.15	0.1037	961.94	0.5
353.15	0.1582	953.26	0.53
353.15	0.2167	944.03	0.57
353.15	0.2633	936.72	0.6
353.15	0.34	924.83	0.65
353.15	0.4067	914.62	0.69
353.15	0.4529	907.6	0.72
353.15	0.5184	897.76	0.76
353.15	0.5689	890.24	0.79
353.15	0.6322	880.91	0.82
353.15	0.7097	869.62	0.87
353.15	0.7859	858.64	0.91
353.15	0.8511	849.36	0.95
353.15	0.9354	837.48	1
353.15	1	828.47	1.03
353.15	0	978.62	0.43

System: 1,3-dimethylbenzene + N-methylpyrrolidone; phases: Liquid
Fixed: Pressure, kPa = 101
Property: Mass density, kg/m3 (Liquid); method: VIBTUB:UFactor:8
Temperature, K	Mole fraction of 1,3-dimethylbenzene	Mass density, kg/m3	uncertainty
293.15	0	1032.66	0.48
293.15	0.0451	1024.18	0.46
293.15	0.1145	1011.33	0.43
293.15	0.1874	998.07	0.43
293.15	0.2451	987.76	0.5
293.15	0.3258	973.58	0.61
293.15	0.3987	961	0.71
293.15	0.4657	949.63	0.8
293.15	0.5214	940.31	0.88
293.15	0.5985	927.59	1
293.15	0.6584	917.85	1.09
293.15	0.7214	907.73	1.19
293.15	0.7987	895.48	1.31
293.15	0.8547	886.71	1.4
293.15	0.9048	878.92	1.49
293.15	0.9597	870.47	1.58
293.15	1	864.31	1.65
303.15	0	1023.42	0.44
303.15	0.0541	1013.3	0.42
303.15	0.1134	1002.37	0.39
303.15	0.1954	987.52	0.47
303.15	0.2562	976.72	0.55
303.15	0.3214	965.31	0.63
303.15	0.3895	953.58	0.73
303.15	0.4487	943.53	0.81
303.15	0.5014	934.7	0.89
303.15	0.5782	922.02	1
303.15	0.6484	910.6	1.1
303.15	0.7154	899.86	1.21
303.15	0.7654	891.93	1.28
303.15	0.8241	882.72	1.38
303.15	0.8815	873.79	1.47
303.15	0.9465	863.8	1.58
303.15	1	855.64	1.67
313.15	0	1014.27	0.4
313.15	0.0487	1005.18	0.38
313.15	0.1151	992.96	0.41
313.15	0.1745	982.21	0.48
313.15	0.2495	968.86	0.57
313.15	0.3147	957.46	0.66
313.15	0.3851	945.34	0.75
313.15	0.4587	932.89	0.85
313.15	0.5185	922.93	0.94
313.15	0.6214	906.08	1.09
313.15	0.6785	896.89	1.18
313.15	0.7484	885.77	1.28
313.15	0.7945	878.53	1.36
313.15	0.8521	869.55	1.45
313.15	0.9021	861.83	1.53
313.15	0.9548	853.77	1.61
313.15	1	846.9	1.69
323.15	0	1005.62	0.37
323.15	0.0548	995.37	0.38
323.15	0.1154	984.22	0.45
323.15	0.1754	973.34	0.52
323.15	0.2354	962.63	0.59
323.15	0.2965	951.89	0.67
323.15	0.3551	941.73	0.74
323.15	0.4158	931.36	0.83
323.15	0.4814	920.31	0.92
323.15	0.5385	910.84	1
323.15	0.5821	903.68	1.06
323.15	0.6514	892.44	1.16
323.15	0.7085	883.3	1.25
323.15	0.7765	872.54	1.35
323.15	0.8512	860.88	1.47
323.15	0.9374	847.61	1.61
323.15	1	838.09	1.71
333.15	0	996.28	0.36
333.15	0.0451	987.86	0.41
333.15	0.1102	975.88	0.48
333.15	0.1985	959.95	0.58
333.15	0.2511	950.64	0.64
333.15	0.3201	938.59	0.73
333.15	0.3952	925.71	0.83
333.15	0.4625	914.36	0.92
333.15	0.5214	904.57	1
333.15	0.5985	891.95	1.11
333.15	0.6584	882.28	1.2
333.15	0.7121	873.71	1.28
333.15	0.7741	863.94	1.37
333.15	0.8351	854.42	1.47
333.15	0.8812	847.31	1.54
333.15	0.9487	836.99	1.65
333.15	1	829.22	1.73
343.15	0	987.39	0.4
343.15	0.0547	977.18	0.45
343.15	0.1241	964.43	0.53
343.15	0.1887	952.77	0.6
343.15	0.2654	939.18	0.7
343.15	0.3214	929.42	0.77
343.15	0.3985	916.19	0.87
343.15	0.4658	904.84	0.96
343.15	0.5214	895.6	1.04
343.15	0.5985	882.97	1.14
343.15	0.6541	874	1.22
343.15	0.7014	866.44	1.29
343.15	0.7654	856.33	1.39
343.15	0.8354	845.41	1.49
343.15	0.8924	836.63	1.58
343.15	0.9469	828.32	1.67
343.15	1	820.29	1.75
353.15	0	978.62	0.43
353.15	0.0544	968.44	0.49
353.15	0.1214	956.1	0.56
353.15	0.1958	942.64	0.65
353.15	0.2562	931.9	0.72
353.15	0.3214	920.5	0.8
353.15	0.3985	907.25	0.9
353.15	0.4515	898.28	0.97
353.15	0.5114	888.28	1.05
353.15	0.5941	874.69	1.17
353.15	0.6621	863.71	1.26
353.15	0.7214	854.26	1.35
353.15	0.7852	844.22	1.44
353.15	0.8471	834.59	1.54
353.15	0.8915	827.76	1.6
353.15	0.9565	817.85	1.7
353.15	1	811.29	1.77

System: 1,4-dimethylbenzene + N-methylpyrrolidone; phases: Liquid
Fixed: Pressure, kPa = 101
Property: Mass density, kg/m3 (Liquid); method: VIBTUB:UFactor:8
Temperature, K	Mole fraction of 1,4-dimethylbenzene	Mass density, kg/m3	uncertainty
293.15	0	1032.66	0.48
293.15	0.0511	1023.02	0.44
293.15	0.1204	1010.11	0.4
293.15	0.1985	995.8	0.39
293.15	0.2451	987.37	0.43
293.15	0.2987	977.77	0.48
293.15	0.3458	969.44	0.52
293.15	0.4012	959.72	0.57
293.15	0.4781	946.42	0.63
293.15	0.5314	937.3	0.68
293.15	0.5984	925.99	0.74
293.15	0.6558	916.4	0.78
293.15	0.7154	906.57	0.83
293.15	0.7841	895.34	0.89
293.15	0.8512	884.52	0.95
293.15	0.9254	872.69	1.01
293.15	1	860.95	1.07
303.15	0	1023.42	0.44
303.15	0.0645	1011.3	0.4
303.15	0.1151	1001.91	0.37
303.15	0.1814	989.76	0.41
303.15	0.2654	974.62	0.48
303.15	0.3214	964.66	0.53
303.15	0.3854	953.43	0.59
303.15	0.4515	941.97	0.65
303.15	0.5024	933.26	0.69
303.15	0.5685	922.06	0.74
303.15	0.6214	913.21	0.79
303.15	0.6754	904.26	0.83
303.15	0.7451	892.85	0.89
303.15	0.8114	882.12	0.95
303.15	0.8841	870.51	1.01
303.15	0.9514	859.89	1.06
303.15	1	852.3	1.1
313.15	0	1014.27	0.4
313.15	0.0521	1004.87	0.37
313.15	0.1142	993.77	0.38
313.15	0.1721	983.53	0.43
313.15	0.2302	973.36	0.48
313.15	0.3065	960.16	0.55
313.15	0.3615	950.77	0.59
313.15	0.4115	942.31	0.64
313.15	0.4841	930.18	0.7
313.15	0.5547	918.53	0.76
313.15	0.6208	907.77	0.81
313.15	0.7055	894.15	0.88
313.15	0.7805	882.26	0.94
313.15	0.8372	873.36	0.99
313.15	0.8947	864.42	1.03
313.15	0.9539	855.29	1.08
313.15	1	848.23	1.12
323.15	0	1005.62	0.37
323.15	0.0575	994.81	0.37
323.15	0.1247	982.32	0.43
323.15	0.2011	968.35	0.5
323.15	0.2784	954.42	0.56
323.15	0.338	943.85	0.62
323.15	0.4015	932.73	0.67
323.15	0.4697	920.97	0.73
323.15	0.5389	909.19	0.79
323.15	0.6003	898.9	0.84
323.15	0.6674	887.8	0.89
323.15	0.7245	878.46	0.94
323.15	0.7806	869.38	0.99
323.15	0.8341	860.82	1.03
323.15	0.8947	851.21	1.08
323.15	0.9481	842.83	1.12
323.15	1	834.76	1.17
333.15	0	996.28	0.36
333.15	0.0462	987.58	0.4
333.15	0.1025	977.11	0.45
333.15	0.1724	964.26	0.51
333.15	0.2354	952.85	0.56
333.15	0.2951	942.18	0.62
333.15	0.3658	929.72	0.68
333.15	0.4315	918.31	0.73
333.15	0.5007	906.49	0.79
333.15	0.5714	894.57	0.85
333.15	0.6378	883.55	0.9
333.15	0.7047	872.6	0.96
333.15	0.7533	864.73	1
333.15	0.8258	853.13	1.06
333.15	0.8846	843.83	1.11
333.15	0.9479	833.93	1.16
333.15	1	825.86	1.2
343.15	0	987.39	0.4
343.15	0.0675	974.69	0.45
343.15	0.1353	962.13	0.51
343.15	0.2024	949.85	0.57
343.15	0.2715	937.41	0.63
343.15	0.3376	925.68	0.69
343.15	0.4061	913.71	0.75
343.15	0.4719	902.38	0.8
343.15	0.5422	890.46	0.86
343.15	0.6103	879.09	0.92
343.15	0.6749	868.44	0.97
343.15	0.7405	857.78	1.02
343.15	0.8049	847.44	1.07
343.15	0.8674	837.54	1.13
343.15	0.9308	827.6	1.18
343.15	0.9788	820.15	1.21
343.15	1	816.87	1.23
353.15	0	978.62	0.43
353.15	0.0567	967.91	0.48
353.15	0.1134	957.31	0.53
353.15	0.1826	944.57	0.59
353.15	0.2527	931.85	0.65
353.15	0.3072	922.09	0.7
353.15	0.3857	908.27	0.76
353.15	0.4584	895.67	0.83
353.15	0.5036	887.95	0.86
353.15	0.5757	875.79	0.92
353.15	0.6382	865.4	0.97
353.15	0.7016	855.01	1.03
353.15	0.7613	845.35	1.07
353.15	0.8139	836.93	1.12
353.15	0.8846	825.75	1.17
353.15	0.9378	817.44	1.22
353.15	1	807.81	1.27
