Measured thermophysical data. Vapour pressures and heat capacity measurements on the C7 C9 secondary aliphatic alcohols
Source: J. Chem. Thermodyn., 2007, 10.1016/j.jct.2006.10.007
Compound 1: 2-heptanol, C7H16O, InChI=1S/C7H16O/c1-3-4-5-6-7(2)8/h7-8H,3-6H2,1-2H3
Compound 2: 4-heptanol, C7H16O, InChI=1S/C7H16O/c1-3-5-7(8)6-4-2/h7-8H,3-6H2,1-2H3
Compound 3: 2-octanol, C8H18O, InChI=1S/C8H18O/c1-3-4-5-6-7-8(2)9/h8-9H,3-7H2,1-2H3
Compound 4: 3-octanol, C8H18O, InChI=1S/C8H18O/c1-3-5-6-7-8(9)4-2/h8-9H,3-7H2,1-2H3
Compound 5: 4-octanol, C8H18O, InChI=1S/C8H18O/c1-3-5-7-8(9)6-4-2/h8-9H,3-7H2,1-2H3
Compound 6: 2-nonanol, C9H20O, InChI=1S/C9H20O/c1-3-4-5-6-7-8-9(2)10/h9-10H,3-8H2,1-2H3
Compound 7: 3-nonanol, C9H20O, InChI=1S/C9H20O/c1-3-5-6-7-8-9(10)4-2/h9-10H,3-8H2,1-2H3
Compound 8: 4-nonanol, C9H20O, InChI=1S/C9H20O/c1-3-5-6-8-9(10)7-4-2/h9-10H,3-8H2,1-2H3
Compound 9: 5-nonanol, C9H20O, InChI=1S/C9H20O/c1-3-5-7-9(10)8-6-4-2/h9-10H,3-8H2,1-2H3

System: 2-heptanol; phases: Liquid
Property: Molar heat capacity at constant pressure, J/K/mol (Liquid); method: Small sample (50 mg) DSC
Temperature, K	Pressure, kPa	Molar heat capacity at constant pressure, J/K/mol	uncertainty
298.15	101.325	298.6374438	12.7821474

System: 2-heptanol; phases: Liquid, Gas
Property: Vapor or sublimation pressure, kPa (Liquid); method: Transpiration method
Temperature, K	Vapor or sublimation pressure, kPa	uncertainty
274.9	0.01073	0.00058
276.9	0.01291	0.00098
277.2	0.01402	0.00102
278.8	0.01527	0.00153
279.1	0.01726	0.00158
280.7	0.01961	0.00101
281.7	0.02018	0.00111
283.7	0.02633	0.0014
285.5	0.02943	0.00157
286.7	0.03502	0.00185
288.5	0.03882	0.00204
289.7	0.04449	0.00236
291.5	0.0507	0.0027
292.7	0.05857	0.00314
294.4	0.06719	0.00362
295.8	0.07975	0.00421
297.4	0.0878	0.00457
298.6	0.09772	0.00509
300.3	0.1084	0.00582
301.7	0.131	0.00682
303.2	0.1361	0.00715
304.7	0.1637	0.00855
306.2	0.1732	0.00918
309.2	0.2293	0.01209
312.2	0.2887	0.01497

System: 4-heptanol; phases: Liquid
Property: Molar heat capacity at constant pressure, J/K/mol (Liquid); method: Small sample (50 mg) DSC
Temperature, K	Pressure, kPa	Molar heat capacity at constant pressure, J/K/mol	uncertainty
298.15	101.325	306.7715376	12.7821474

System: 4-heptanol; phases: Liquid, Gas
Property: Vapor or sublimation pressure, kPa (Liquid); method: Transpiration method
Temperature, K	Vapor or sublimation pressure, kPa	uncertainty
275.3	0.0155	0.00087
278.3	0.02133	0.00115
281.3	0.02847	0.00154
284.2	0.03865	0.00207
287.3	0.05094	0.00271
290.3	0.06715	0.00356
293.2	0.08619	0.00458
296.3	0.114	0.00597
299.2	0.1398	0.00742
302.2	0.1871	0.00992
305.3	0.2403	0.01258
308.2	0.2991	0.0157
311.2	0.3814	0.01984

System: 2-octanol; phases: Liquid
Property: Molar heat capacity at constant pressure, J/K/mol (Liquid); method: Small sample (50 mg) DSC
Temperature, K	Pressure, kPa	Molar heat capacity at constant pressure, J/K/mol	uncertainty
298.15	101.325	326.8720792	14.3250712

System: 2-octanol; phases: Liquid, Gas
Property: Vapor or sublimation pressure, kPa (Liquid); method: Transpiration method
Temperature, K	Vapor or sublimation pressure, kPa	uncertainty
283.8	0.00823	0.00045
288.3	0.01209	0.00064
291	0.01615	0.00088
293.6	0.02164	0.00108
294.2	0.02162	0.00111
295.2	0.0235	0.00127
297.2	0.0288	0.00159
299.4	0.03752	0.00197
300.2	0.03724	0.00196
302.4	0.0459	0.00242
303.2	0.04884	0.0027
305.4	0.06261	0.00331
306.1	0.06341	0.00345
308.4	0.08173	0.0043
309.1	0.08219	0.00427
311.3	0.09738	0.00513
312.2	0.1078	0.00581
314.3	0.1301	0.00677
315.2	0.1349	0.00708
317.3	0.1614	0.00845
318.2	0.1723	0.0091
320.3	0.2049	0.01077
323.2	0.255	0.01334
326.2	0.3201	0.01672
329.2	0.4004	0.02072

System: 3-octanol; phases: Liquid
Property: Molar heat capacity at constant pressure, J/K/mol (Liquid); method: Small sample (50 mg) DSC
Temperature, K	Pressure, kPa	Molar heat capacity at constant pressure, J/K/mol	uncertainty
298.15	101.325	339.8948712	14.3250712

System: 3-octanol; phases: Liquid, Gas
Property: Vapor or sublimation pressure, kPa (Liquid); method: Transpiration method
Temperature, K	Vapor or sublimation pressure, kPa	uncertainty
288.3	0.01566	0.00086
291.3	0.02099	0.00112
294.2	0.02709	0.00147
297.3	0.03789	0.00204
300.4	0.05021	0.00266
303.2	0.06346	0.00338
306.2	0.08378	0.00442
309.2	0.1059	0.00558
312.2	0.137	0.00718
315.2	0.1705	0.00891
318.2	0.2145	0.0113
321.2	0.2768	0.01453
324.2	0.3469	0.01796

System: 4-octanol; phases: Liquid
Property: Molar heat capacity at constant pressure, J/K/mol (Liquid); method: Small sample (50 mg) DSC
Temperature, K	Pressure, kPa	Molar heat capacity at constant pressure, J/K/mol	uncertainty
298.15	101.325	332.081196	14.3250712

System: 4-octanol; phases: Liquid, Gas
Property: Vapor or sublimation pressure, kPa (Liquid); method: Transpiration method
Temperature, K	Vapor or sublimation pressure, kPa	uncertainty
288.3	0.01769	0.00106
289.3	0.02063	0.00119
294.2	0.03113	0.00163
296.5	0.03856	0.00206
297.3	0.04258	0.00224
298.6	0.04607	0.00239
300.4	0.05242	0.00278
301.9	0.06171	0.00329
302.4	0.06373	0.00329
305.2	0.0864	0.0046
305.3	0.08762	0.00466
307.2	0.1015	0.00537
310.3	0.131	0.00687
313.2	0.164	0.00858
316.2	0.2054	0.01071
319.2	0.2555	0.01348
322.3	0.3363	0.0176

System: 2-nonanol; phases: Liquid
Property: Molar heat capacity at constant pressure, J/K/mol (Liquid); method: Small sample (50 mg) DSC
Temperature, K	Pressure, kPa	Molar heat capacity at constant pressure, J/K/mol	uncertainty
298.15	101.325	356.308615	14.42545

System: 2-nonanol; phases: Liquid, Gas
Property: Vapor or sublimation pressure, kPa (Liquid); method: Transpiration method
Temperature, K	Vapor or sublimation pressure, kPa	uncertainty
285.7	0.00293	0.00016
288.5	0.00378	0.00021
288.6	0.00388	0.00021
291.4	0.00518	0.00028
292.5	0.00624	0.00033
294.4	0.00698	0.00037
295.6	0.00842	0.00046
297.4	0.00962	0.00052
298.6	0.01134	0.0006
300.3	0.01251	0.00067
301.6	0.01504	0.00081
303.5	0.01719	0.00091
304.4	0.01928	0.0011
305.2	0.02173	0.00117
306.4	0.02365	0.00126
306.4	0.02251	0.00121
308.3	0.02847	0.00146
309.4	0.02834	0.00153
309.5	0.03083	0.00164
311.3	0.03659	0.00195
312.4	0.04083	0.00214
312.4	0.03907	0.00206
314.3	0.0464	0.00241
315.3	0.05061	0.0027
315.4	0.05109	0.00272
317.3	0.06025	0.00317
318.3	0.06547	0.00346
321.2	0.08188	0.00429
321.2	0.08489	0.00443
324.2	0.1034	0.00537

System: 3-nonanol; phases: Liquid
Property: Molar heat capacity at constant pressure, J/K/mol (Liquid); method: Small sample (50 mg) DSC
Temperature, K	Pressure, kPa	Molar heat capacity at constant pressure, J/K/mol	uncertainty
298.15	101.325	373.619155	15.867995

System: 3-nonanol; phases: Liquid, Gas
Property: Vapor or sublimation pressure, kPa (Liquid); method: Transpiration method
Temperature, K	Vapor or sublimation pressure, kPa	uncertainty
285.2	0.00394	0.00022
288.3	0.0053	0.00029
291.3	0.00725	0.00039
294.3	0.00979	0.00053
297.3	0.01321	0.0007
298.3	0.01453	0.00077
300.3	0.01722	0.00094
303.3	0.02369	0.00127
306.4	0.03121	0.00164
309.3	0.03916	0.00206
312.3	0.05053	0.00267
315.4	0.06582	0.00349
318.3	0.08576	0.00452
321.2	0.10745	0.00563
324.3	0.1365	0.00708

System: 4-nonanol; phases: Liquid
Property: Molar heat capacity at constant pressure, J/K/mol (Liquid); method: Small sample (50 mg) DSC
Temperature, K	Pressure, kPa	Molar heat capacity at constant pressure, J/K/mol	uncertainty
298.15	101.325	367.848975	15.867995

System: 4-nonanol; phases: Liquid, Gas
Property: Vapor or sublimation pressure, kPa (Liquid); method: Transpiration method
Temperature, K	Vapor or sublimation pressure, kPa	uncertainty
285	0.00392	0.00022
288.2	0.00568	0.00031
291.2	0.00749	0.00041
294.3	0.01043	0.00056
297.3	0.01356	0.00072
300.2	0.01796	0.00097
303.2	0.0242	0.00128
304.3	0.02621	0.00139
306.3	0.03126	0.00167
309.3	0.04089	0.00219
312.2	0.05462	0.0029
315.2	0.07001	0.00372
318.2	0.09198	0.00484
321.2	0.1153	0.00602
324.2	0.1438	0.00744

System: 5-nonanol; phases: Liquid
Property: Molar heat capacity at constant pressure, J/K/mol (Liquid); method: Small sample (50 mg) DSC
Temperature, K	Pressure, kPa	Molar heat capacity at constant pressure, J/K/mol	uncertainty
298.15	101.325	370.734065	15.867995

System: 5-nonanol; phases: Liquid, Gas
Property: Vapor or sublimation pressure, kPa (Liquid); method: Transpiration method
Temperature, K	Vapor or sublimation pressure, kPa	uncertainty
288.6	0.00577	0.00034
297.5	0.01342	0.0007
301.4	0.01994	0.00107
304.4	0.02703	0.00144
307.4	0.03515	0.00186
310.3	0.04539	0.00239
313.3	0.05742	0.00305
316.3	0.07607	0.00402
319.3	0.0965	0.00507
322.3	0.1227	0.00643
325.2	0.1535	0.00795
328.2	0.1843	0.00966
331.2	0.2406	0.01262
334.2	0.299	0.01545
