Measured thermophysical data. Density and volumetric properties of the aqueous solutions of urea at temperatures from T = (278 to 333) K and pressures up to 100 MPa
Source: J. Chem. Thermodyn., 2018, 10.1016/j.jct.2018.01.024
Compound 1: urea, CH4N2O, InChI=1S/CH4N2O/c2-1(3)4/h(H4,2,3,4), purity 99.5%
Compound 2: water, H2O, InChI=1S/H2O/h1H2

System: urea + water; phases: Liquid
Fixed: Pressure, kPa = 101
Property: Mass density, kg/m3 (Liquid); method: Vibrating tube method
Temperature, K	Molality, mol/kg of urea	Mass density, kg/m3	uncertainty
274.15	0	999.899	0.084
274.15	0.093	1001.57	0.08
274.15	0.1063	1001.81	0.08
274.15	0.141	1002.43	0.08
274.15	0.152	1002.62	0.08
274.15	0.1809	1003.14	0.08
274.15	0.2423	1004.22	0.08
274.15	0.4362	1007.6	0.08
274.15	0.5644	1009.79	0.08
274.15	1.0079	1017.11	0.09
274.15	1.609	1026.44	0.25
274.15	2.505	1039.26	0.25
275.15	0	999.94	0.084
275.15	0.093	1001.6	0.08
275.15	0.1063	1001.84	0.08
275.15	0.141	1002.45	0.08
275.15	0.152	1002.64	0.08
275.15	0.1809	1003.16	0.08
275.15	0.2423	1004.23	0.1
275.15	0.4362	1007.59	0.08
275.15	0.5644	1009.77	0.08
275.15	1.0079	1017.04	0.09
275.15	1.609	1026.31	0.25
275.15	2.505	1039.07	0.25
276.15	0	999.964	0.083
276.15	0.093	1001.61	0.08
276.15	0.1063	1001.85	0.08
276.15	0.141	1002.46	0.1
276.15	0.152	1002.65	0.1
276.15	0.1809	1003.16	0.08
276.15	0.2423	1004.22	0.08
276.15	0.4362	1007.56	0.08
276.15	0.5644	1009.73	0.08
276.15	1.0079	1016.96	0.09
276.15	1.609	1026.17	0.25
276.15	2.505	1038.86	0.22
277.15	0	999.972	0.096
277.15	0.093	1001.61	0.08
277.15	0.1063	1001.85	0.08
277.15	0.141	1002.45	0.08
277.15	0.152	1002.64	0.08
277.15	0.1809	1003.15	0.08
277.15	0.2423	1004.2	0.08
277.15	0.4362	1007.52	0.08
277.15	0.5644	1009.67	0.08
277.15	1.0079	1016.85	0.09
277.15	1.609	1026.02	0.25
277.15	2.505	1038.66	0.23
278.15	0	999.964	0.083
278.15	0.093	1001.59	0.08
278.15	0.1063	1001.82	0.08
278.15	0.141	1002.42	0.08
278.15	0.152	1002.61	0.08
278.15	0.1809	1003.12	0.08
278.15	0.2423	1004.17	0.08
278.15	0.4362	1007.46	0.08
278.15	0.5644	1009.6	0.08
278.15	1.0079	1016.74	0.09
278.15	1.609	1025.85	0.25
278.15	2.505	1038.42	0.24
278.15	3.376	1049.57	0.22
278.15	4.33	1060.83	0.21
278.15	5.39	1072.16	0.96
278.15	8	1096.24	0.87
278.15	9.9	1110.86	0.71
278.15	12.8	1129.78	0.67
279.15	0	999.94	0.083
279.15	0.093	1001.56	0.08
279.15	0.1063	1001.79	0.08
279.15	0.141	1002.39	0.08
279.15	0.152	1002.57	0.08
279.15	0.1809	1003.07	0.08
279.15	0.2423	1004.12	0.08
279.15	0.4362	1007.39	0.08
279.15	0.5644	1009.51	0.08
279.15	1.0079	1016.61	0.09
279.15	1.609	1025.68	0.25
279.15	2.505	1038.19	0.24
280.15	0	999.901	0.083
280.15	0.093	1001.51	0.08
280.15	0.1063	1001.74	0.08
280.15	0.141	1002.33	0.08
280.15	0.152	1002.52	0.08
280.15	0.1809	1003.02	0.08
280.15	0.2423	1004.06	0.08
280.15	0.4362	1007.31	0.08
280.15	0.5644	1009.42	0.08
280.15	1.0079	1016.48	0.09
280.15	1.609	1025.5	0.25
280.15	2.505	1037.95	0.22
281.15	0	999.848	0.083
281.15	0.093	1001.45	0.08
281.15	0.1063	1001.67	0.08
281.15	0.141	1002.26	0.08
281.15	0.152	1002.46	0.08
281.15	0.1809	1002.95	0.08
281.15	0.2423	1003.99	0.08
281.15	0.4362	1007.21	0.08
281.15	0.5644	1009.31	0.08
281.15	1.0079	1016.33	0.09
281.15	1.609	1025.3	0.25
281.15	2.505	1037.71	0.24
282.15	0	999.781	0.083
282.15	0.093	1001.37	0.08
282.15	0.1063	1001.6	0.08
282.15	0.141	1002.18	0.08
282.15	0.152	1002.37	0.08
282.15	0.1809	1002.86	0.08
282.15	0.2423	1003.89	0.08
282.15	0.4362	1007.1	0.08
282.15	0.5644	1009.18	0.08
282.15	1.0079	1016.17	0.09
282.15	1.609	1025.12	0.24
282.15	2.505	1037.45	0.24
283.15	0	999.699	0.083
283.15	0.093	1001.28	0.08
283.15	0.1063	1001.51	0.08
283.15	0.141	1002.09	0.08
283.15	0.152	1002.27	0.08
283.15	0.1809	1002.76	0.08
283.15	0.2423	1003.78	0.08
283.15	0.4362	1006.97	0.08
283.15	0.5644	1009.04	0.08
283.15	1.0079	1016	0.09
283.15	1.609	1024.89	0.25
283.15	2.505	1037.2	0.24
288.15	0	999.09	0.084
288.15	0.093	1000.63	0.09
288.15	0.1063	1000.85	0.08
288.15	0.141	1001.42	0.08
288.15	0.152	1001.6	0.08
288.15	0.1809	1002.08	0.08
288.15	0.2423	1003.08	0.08
288.15	0.4362	1006.2	0.08
288.15	0.5644	1008.22	0.08
288.15	1.0079	1015	0.09
288.15	1.609	1023.7	0.24
288.15	2.505	1035.73	0.23
288.15	3.376	1046.46	0.21
288.15	4.33	1057.3	0.2
288.15	5.39	1068.26	0.93
288.15	8	1091.62	0.85
288.15	9.9	1105.86	0.69
288.15	12.8	1124.47	0.65
298.15	0	997.043	0.085
298.15	0.093	998.52	0.09
298.15	0.1063	998.73	0.08
298.15	0.141	999.27	0.08
298.15	0.152	999.45	0.08
298.15	0.1809	999.9	0.08
298.15	0.2423	1000.86	0.08
298.15	0.4362	1003.84	0.08
298.15	0.5644	1005.78	0.08
298.15	1.0079	1012.3	0.09
298.15	1.609	1020.67	0.23
298.15	2.505	1032.29	0.22
298.15	3.376	1042.7	0.21
298.15	4.33	1053.2	0.2
298.15	5.39	1063.84	0.91
298.15	8	1086.63	0.83
298.15	9.9	1100.56	0.68
298.15	12.8	1118.82	0.64
308.15	0	994.029	0.087
308.15	0.093	995.45	0.09
308.15	0.1063	995.65	0.08
308.15	0.141	996.18	0.08
308.15	0.152	996.35	0.08
308.15	0.1809	996.79	0.08
308.15	0.2423	997.71	0.08
308.15	0.4362	1000.59	0.08
308.15	0.5644	1002.47	0.08
308.15	1.0079	1008.78	0.09
308.15	1.609	1016.91	0.23
308.15	2.505	1028.21	0.22
308.15	3.376	1038.34	0.2
308.15	4.33	1048.55	0.19
308.15	5.39	1058.96	0.89
308.15	8	1081.22	0.81
308.15	9.9	1094.97	0.67
308.15	12.8	1112.9	0.63
323.15	0	988.03	0.087
323.15	0.093	989.4	0.09
323.15	0.1063	989.59	0.09
323.15	0.141	990.1	0.09
323.15	0.152	990.26	0.08
323.15	0.1809	990.68	0.09
323.15	0.2423	991.57	0.09
323.15	0.4362	994.33	0.08
323.15	0.5644	996.13	0.08
323.15	1.0079	1002.19	0.08
323.15	1.609	1010.03	0.22
323.15	2.505	1020.95	0.21
323.15	3.376	1030.77	0.2
323.15	4.33	1040.72	0.19
323.15	5.39	1050.87	0.87
323.15	8	1072.6	0.79
323.15	9.9	1086.08	0.65
323.15	12.8	1103.59	0.61
333.15	0	983.191	0.087
333.15	0.093	984.53	0.09
333.15	0.1063	984.72	0.09
333.15	0.141	985.22	0.09
333.15	0.152	985.38	0.09
333.15	0.1809	985.79	0.09
333.15	0.2423	986.66	0.09
333.15	0.4362	989.38	0.09
333.15	0.5644	991.15	0.09
333.15	1.0079	997.11	0.08
333.15	1.609	1004.81	0.22
333.15	2.505	1015.53	0.21
333.15	3.376	1025.17	0.2
333.15	4.33	1034.98	0.19
333.15	5.39	1044.98	0.86
333.15	8	1066.38	0.78
333.15	9.9	1079.64	0.64
333.15	12.8	1096.9	0.61

System: urea + water; phases: Liquid
Property: Mass density, kg/m3 (Liquid); method: Constant-volume piezometry
Temperature, K	Pressure, kPa	Molality, mol/kg of urea	Mass density, kg/m3	uncertainty
278.15	10000	0	1004.78	0.18
278.15	25000	0	1011.88	0.26
278.15	50000	0	1023.2	0.45
278.15	75000	0	1033.92	0.66
278.15	100000	0	1044.08	0.87
278.15	10000	0.1809	1007.91	0.18
278.15	25000	0.1809	1014.96	0.26
278.15	50000	0.1809	1026.22	0.45
278.15	75000	0.1809	1036.88	0.66
278.15	100000	0.1809	1046.98	0.87
278.15	10000	0.4362	1012.23	0.18
278.15	25000	0.4362	1019.23	0.26
278.15	50000	0.4362	1030.39	0.46
278.15	75000	0.4362	1040.96	0.66
278.15	100000	0.4362	1050.97	0.87
278.15	10000	0.5644	1014.35	0.18
278.15	25000	0.5644	1021.32	0.26
278.15	50000	0.5644	1032.44	0.46
278.15	75000	0.5644	1042.96	0.66
278.15	100000	0.5644	1052.94	0.87
278.15	10000	1.609	1030.49	0.25
278.15	25000	1.609	1037.26	0.32
278.15	50000	1.609	1048.03	0.5
278.15	75000	1.609	1058.21	0.7
278.15	100000	1.609	1067.87	0.9
278.15	10000	2.505	1042.94	0.25
278.15	25000	2.505	1049.56	0.32
278.15	50000	2.505	1060.07	0.5
278.15	75000	2.505	1069.97	0.71
278.15	100000	2.505	1079.44	0.92
278.15	10000	3.376	1053.98	0.25
278.15	25000	3.376	1060.45	0.33
278.15	50000	3.376	1070.75	0.51
278.15	75000	3.376	1080.48	0.71
278.15	100000	3.376	1089.73	0.93
278.15	10000	5.39	1076.38	1.1
278.15	25000	5.39	1082.6	1.12
278.15	50000	5.39	1092.51	1.2
278.15	75000	5.39	1101.91	1.31
278.15	100000	5.39	1110.78	1.45
278.15	10000	8	1100.31	1.12
278.15	25000	8	1106.3	1.15
278.15	50000	8	1115.83	1.23
278.15	75000	8	1124.88	1.34
278.15	100000	8	1133.5	1.48
278.15	10000	10.99	1122.33	1.14
278.15	25000	10.99	1128.15	1.17
278.15	50000	10.99	1137.36	1.25
278.15	75000	10.99	1146.09	1.37
278.15	100000	10.99	1154.43	1.51
278.15	10000	12.8	1133.68	1.15
278.15	25000	12.8	1139.4	1.18
278.15	50000	12.8	1148.51	1.26
278.15	75000	12.8	1157.08	1.38
278.15	100000	12.8	1165.23	1.53
288.15	10000	0	1003.66	0.18
288.15	25000	0	1010.42	0.27
288.15	50000	0	1021.21	0.46
288.15	75000	0	1031.47	0.67
288.15	100000	0	1041.23	0.88
288.15	10000	0.1809	1006.62	0.18
288.15	25000	0.1809	1013.33	0.27
288.15	50000	0.1809	1024.08	0.47
288.15	75000	0.1809	1034.29	0.67
288.15	100000	0.1809	1043.99	0.88
288.15	10000	0.4362	1010.71	0.19
288.15	25000	0.4362	1017.37	0.27
288.15	50000	0.4362	1028.05	0.47
288.15	75000	0.4362	1038.17	0.67
288.15	100000	0.4362	1047.8	0.88
288.15	10000	0.5644	1012.73	0.19
288.15	25000	0.5644	1019.38	0.27
288.15	50000	0.5644	1029.99	0.47
288.15	75000	0.5644	1040.07	0.67
288.15	100000	0.5644	1049.66	0.88
288.15	10000	1.609	1028.1	0.25
288.15	25000	1.609	1034.57	0.33
288.15	50000	1.609	1044.87	0.51
288.15	75000	1.609	1054.62	0.71
288.15	100000	1.609	1063.93	0.91
288.15	10000	2.505	1040.04	0.26
288.15	25000	2.505	1046.37	0.33
288.15	50000	2.505	1056.4	0.51
288.15	75000	2.505	1065.93	0.71
288.15	100000	2.505	1075.04	0.92
288.15	10000	3.376	1050.69	0.26
288.15	25000	3.376	1056.91	0.34
288.15	50000	3.376	1066.74	0.52
288.15	75000	3.376	1076.06	0.72
288.15	100000	3.376	1085.01	0.93
288.15	10000	5.39	1072.37	1.09
288.15	25000	5.39	1078.39	1.12
288.15	50000	5.39	1087.86	1.2
288.15	75000	5.39	1096.81	1.31
288.15	100000	5.39	1105.48	1.45
288.15	10000	8	1095.6	1.12
288.15	25000	8	1101.46	1.14
288.15	50000	8	1110.67	1.22
288.15	75000	8	1119.36	1.34
288.15	100000	8	1127.8	1.48
288.15	10000	10.99	1117.15	1.14
288.15	25000	10.99	1122.84	1.17
288.15	50000	10.99	1131.87	1.25
288.15	75000	10.99	1140.4	1.37
288.15	100000	10.99	1148.53	1.51
288.15	10000	12.8	1128.28	1.15
288.15	25000	12.8	1133.9	1.18
288.15	50000	12.8	1142.81	1.26
288.15	75000	12.8	1151.22	1.38
288.15	100000	12.8	1159.2	1.53
298.15	10000	0	1001.46	0.19
298.15	25000	0	1007.99	0.28
298.15	50000	0	1018.44	0.47
298.15	75000	0	1028.38	0.68
298.15	100000	0	1037.86	0.88
298.15	10000	0.1809	1004.31	0.19
298.15	25000	0.1809	1010.8	0.28
298.15	50000	0.1809	1021.19	0.48
298.15	75000	0.1809	1031.09	0.68
298.15	100000	0.1809	1040.52	0.89
298.15	10000	0.4362	1008.22	0.19
298.15	25000	0.4362	1014.67	0.28
298.15	50000	0.4362	1025	0.48
298.15	75000	0.4362	1034.82	0.68
298.15	100000	0.4362	1044.19	0.89
298.15	10000	0.5644	1010.14	0.19
298.15	25000	0.5644	1016.58	0.28
298.15	50000	0.5644	1026.87	0.48
298.15	75000	0.5644	1036.66	0.68
298.15	100000	0.5644	1046	0.89
298.15	10000	1.609	1024.95	0.26
298.15	25000	1.609	1031.23	0.33
298.15	50000	1.609	1041.28	0.51
298.15	75000	1.609	1050.81	0.71
298.15	100000	1.609	1059.92	0.92
298.15	10000	2.505	1036.5	0.26
298.15	25000	2.505	1042.68	0.34
298.15	50000	2.505	1052.51	0.52
298.15	75000	2.505	1061.84	0.72
298.15	100000	2.505	1070.84	0.93
298.15	10000	3.376	1046.86	0.27
298.15	25000	3.376	1052.93	0.34
298.15	50000	3.376	1062.57	0.53
298.15	75000	3.376	1071.73	0.73
298.15	100000	3.376	1080.63	0.94
298.15	10000	5.39	1067.88	1.09
298.15	25000	5.39	1073.78	1.12
298.15	50000	5.39	1083.08	1.2
298.15	75000	5.39	1091.95	1.31
298.15	100000	5.39	1100.6	1.45
298.15	10000	8	1090.56	1.11
298.15	25000	8	1096.33	1.14
298.15	50000	8	1105.37	1.22
298.15	75000	8	1113.92	1.34
298.15	100000	8	1122.4	1.48
298.15	10000	10.99	1111.68	1.13
298.15	25000	10.99	1117.29	1.16
298.15	50000	10.99	1126.18	1.25
298.15	75000	10.99	1134.57	1.37
298.15	100000	10.99	1142.75	1.51
298.15	10000	12.8	1122.59	1.15
298.15	25000	12.8	1128.17	1.18
298.15	50000	12.8	1136.9	1.26
298.15	75000	12.8	1145.19	1.38
298.15	100000	12.8	1153.24	1.53
308.15	10000	0	998.36	0.2
308.15	25000	0	1004.74	0.29
308.15	50000	0	1014.97	0.48
308.15	75000	0	1024.71	0.69
308.15	100000	0	1034.01	0.89
308.15	10000	0.1809	1001.1	0.2
308.15	25000	0.1809	1007.46	0.29
308.15	50000	0.1809	1017.66	0.49
308.15	75000	0.1809	1027.35	0.69
308.15	100000	0.1809	1036.61	0.9
308.15	10000	0.4362	1004.89	0.2
308.15	25000	0.4362	1011.22	0.29
308.15	50000	0.4362	1021.35	0.49
308.15	75000	0.4362	1030.99	0.69
308.15	100000	0.4362	1040.2	0.9
308.15	10000	0.5644	1006.76	0.2
308.15	25000	0.5644	1013.08	0.29
308.15	50000	0.5644	1023.19	0.49
308.15	75000	0.5644	1032.8	0.69
308.15	100000	0.5644	1041.98	0.9
308.15	10000	1.609	1021.13	0.27
308.15	25000	1.609	1027.31	0.34
308.15	50000	1.609	1037.21	0.52
308.15	75000	1.609	1046.61	0.72
308.15	100000	1.609	1055.64	0.93
308.15	10000	2.505	1032.37	0.27
308.15	25000	2.505	1038.45	0.35
308.15	50000	2.505	1048.14	0.53
308.15	75000	2.505	1057.37	0.73
308.15	100000	2.505	1066.32	0.94
308.15	10000	3.376	1042.44	0.27
308.15	25000	3.376	1048.43	0.35
308.15	50000	3.376	1057.95	0.54
308.15	75000	3.376	1067.04	0.74
308.15	100000	3.376	1075.91	0.95
308.15	10000	5.39	1062.95	1.09
308.15	25000	5.39	1068.78	1.12
308.15	50000	5.39	1078.02	1.2
308.15	75000	5.39	1086.84	1.31
308.15	100000	5.39	1095.48	1.45
308.15	10000	8	1085.13	1.11
308.15	25000	8	1090.83	1.14
308.15	50000	8	1099.83	1.22
308.15	75000	8	1108.4	1.34
308.15	100000	8	1116.79	1.48
308.15	10000	10.99	1105.95	1.13
308.15	25000	10.99	1111.57	1.16
308.15	50000	10.99	1120.31	1.25
308.15	75000	10.99	1128.64	1.37
308.15	100000	10.99	1136.92	1.51
308.15	10000	12.8	1116.69	1.14
308.15	25000	12.8	1122.24	1.17
308.15	50000	12.8	1130.92	1.26
308.15	75000	12.8	1139.16	1.38
308.15	100000	12.8	1147.3	1.53
323.15	10000	0	992.3	0.21
323.15	25000	0	998.61	0.3
323.15	50000	0	1008.68	0.5
323.15	75000	0	1018.27	0.7
323.15	100000	0	1027.42	0.91
323.15	10000	0.1809	994.94	0.21
323.15	25000	0.1809	1001.22	0.3
323.15	50000	0.1809	1011.26	0.5
323.15	75000	0.1809	1020.8	0.7
323.15	100000	0.1809	1029.92	0.91
323.15	10000	0.4362	998.57	0.21
323.15	25000	0.4362	1004.83	0.3
323.15	50000	0.4362	1014.82	0.5
323.15	75000	0.4362	1024.31	0.7
323.15	100000	0.4362	1033.37	0.91
323.15	10000	0.5644	1000.36	0.21
323.15	25000	0.5644	1006.62	0.31
323.15	50000	0.5644	1016.57	0.5
323.15	75000	0.5644	1026.04	0.71
323.15	100000	0.5644	1035.08	0.91
323.15	10000	1.609	1014.19	0.27
323.15	25000	1.609	1020.35	0.35
323.15	50000	1.609	1030.14	0.54
323.15	75000	1.609	1039.38	0.74
323.15	100000	1.609	1048.25	0.94
323.15	10000	2.505	1025.05	0.28
323.15	25000	2.505	1031.14	0.36
323.15	50000	2.505	1040.78	0.54
323.15	75000	2.505	1049.87	0.74
323.15	100000	2.505	1058.62	0.95
323.15	10000	3.376	1034.82	0.28
323.15	25000	3.376	1040.83	0.36
323.15	50000	3.376	1050.36	0.55
323.15	75000	3.376	1059.32	0.75
323.15	100000	3.376	1067.97	0.96
323.15	10000	5.39	1054.83	1.08
323.15	25000	5.39	1060.7	1.11
323.15	50000	5.39	1069.99	1.2
323.15	75000	5.39	1078.73	1.31
323.15	100000	5.39	1087.2	1.45
323.15	10000	8	1076.49	1.1
323.15	25000	8	1082.18	1.13
323.15	50000	8	1091.23	1.22
323.15	75000	8	1099.84	1.34
323.15	100000	8	1108.07	1.48
323.15	10000	10.99	1096.87	1.12
323.15	25000	10.99	1102.45	1.16
323.15	50000	10.99	1111.32	1.25
323.15	75000	10.99	1119.74	1.37
323.15	100000	10.99	1127.82	1.51
323.15	10000	12.8	1107.38	1.14
323.15	25000	12.8	1112.95	1.17
323.15	50000	12.8	1121.73	1.26
323.15	75000	12.8	1130.01	1.38
323.15	100000	12.8	1138.03	1.53
