Measured thermophysical data. Thermodynamic properties of mixtures of N-methyl-2-pyrrolidinone and methanol at temperatures between 298.15 K and 343.15 K and pressures up to 60 MPa
Source: J. Chem. Thermodyn., 2009, 10.1016/j.jct.2008.08.003
Compound 1: N-methylpyrrolidone, C5H9NO, InChI=1S/C5H9NO/c1-6-4-2-3-5(6)7/h2-4H2,1H3, purity 99.9%
Compound 2: methanol, CH4O, InChI=1S/CH4O/c1-2/h2H,1H3, purity 99.9%

System: N-methylpyrrolidone; phases: Liquid
Fixed: Pressure, kPa = 100
Property: Molar heat capacity at constant pressure, J/K/mol (Liquid); method: Small sample (50 mg) DSC
Temperature, K	Molar heat capacity at constant pressure, J/K/mol	uncertainty
298.15	174.82760796	4.86733701
308.15	177.37527723	4.93672878
318.15	179.94277272	5.01603366
328.15	182.76800907	5.09533854
338.15	185.78159451	5.17464342
348.15	189.27100923	5.27377452

System: N-methylpyrrolidone; phases: Liquid
Property: Speed of sound, m/s (Liquid); method: Dual path-length method
Temperature, K	Pressure, kPa	Speed of sound, m/s	uncertainty
298.15	132	1542.88	3.09
298.15	1156	1546.21	3.1
298.15	4991	1557.8	3.12
298.15	9998	1573.62	3.15
298.15	14998	1590.39	3.19
298.15	19995	1606.89	3.22
298.15	25000	1621.77	3.25
298.15	29995	1637.6	3.28
298.15	35000	1654.41	3.31
298.15	39986	1668.76	3.34
298.15	45004	1684.87	3.37
298.15	50002	1699.8	3.4
298.15	55003	1714.27	3.43
298.15	59996	1727.51	3.46
313.15	108	1484.96	2.97
313.15	1004	1488.25	2.98
313.15	5000	1500.99	3.01
313.15	9997	1516.81	3.04
313.15	14995	1534.72	3.08
313.15	19993	1551.86	3.11
313.15	24994	1567.56	3.14
313.15	29991	1584.82	3.17
313.15	35001	1599.93	3.2
313.15	39993	1616.62	3.24
313.15	44994	1632.34	3.27
313.15	49987	1647.03	3.3
313.15	54990	1661.98	3.33
313.15	59995	1675.81	3.36
328.15	49	1430.23	2.87
328.15	1003	1431.76	2.87
328.15	4997	1445.1	2.9
328.15	9994	1462.93	2.93
328.15	14987	1480.11	2.97
328.15	20007	1499.94	3.01
328.15	24986	1515.73	3.04
328.15	29991	1533.03	3.07
328.15	35002	1550.13	3.11
328.15	40003	1566.4	3.14
328.15	44995	1583.63	3.17
328.15	49996	1598.08	3.2
328.15	55001	1614.73	3.23
328.15	59994	1629.1	3.26
343.15	34	1371.47	2.75
343.15	999	1374.74	2.76
343.15	4998	1390.37	2.79
343.15	10003	1409.81	2.83
343.15	14992	1427.77	2.86
343.15	19989	1446.2	2.9
343.15	24993	1465.12	2.94
343.15	29995	1483.45	2.97
343.15	34997	1501.12	3.01
343.15	39989	1516.94	3.04
343.15	44993	1534.26	3.07
343.15	50002	1551.38	3.11
343.15	54998	1567.07	3.14
343.15	59992	1582.45	3.17

System: methanol; phases: Liquid
Fixed: Pressure, kPa = 100
Property: Molar heat capacity at constant pressure, J/K/mol (Liquid); method: Small sample (50 mg) DSC
Temperature, K	Molar heat capacity at constant pressure, J/K/mol	uncertainty
298.15	81.168439752	2.26218735786
308.15	83.010846702	2.31339025014
318.15	85.510111782	2.380710198
328.15	88.64380569	2.47039536414
338.15	92.434357728	2.57619758586
348.15	96.881767896	2.69789257014

System: methanol; phases: Liquid
Property: Speed of sound, m/s (Liquid); method: Dual path-length method
Temperature, K	Pressure, kPa	Speed of sound, m/s	uncertainty
298.15	135	1101.54	2.22
298.15	998	1106.68	2.23
298.15	4999	1129.63	2.27
298.15	10002	1156.87	2.33
298.15	15002	1183.02	2.38
298.15	19991	1209.29	2.43
298.15	24996	1233.36	2.48
298.15	29991	1257.23	2.52
298.15	34998	1279.19	2.57
298.15	40002	1301.09	2.61
298.15	45002	1322.89	2.65
298.15	50004	1342.3	2.69
298.15	54997	1361.36	2.73
298.15	59998	1380.97	2.77
313.15	91	1052.16	2.12
313.15	1000	1057.68	2.13
313.15	5000	1082.08	2.18
313.15	10002	1112.22	2.24
313.15	15000	1140.22	2.29
313.15	20001	1166.96	2.35
313.15	25001	1192.16	2.4
313.15	30003	1217.37	2.45
313.15	35000	1241	2.49
313.15	39999	1263.57	2.54
313.15	44999	1287.4	2.58
313.15	49998	1306.62	2.62
313.15	54997	1326.41	2.66
313.15	59999	1346.82	2.7
328.15	165	1004.54	2.03
328.15	1000	1009.57	2.04
328.15	5000	1037.06	2.09
328.15	10001	1068.09	2.15
328.15	14999	1097.73	2.21
328.15	19998	1126.25	2.27
328.15	25000	1153.31	2.32
328.15	29999	1179.29	2.37
328.15	34998	1203.23	2.42
328.15	39994	1226.3	2.46
328.15	44998	1249.5	2.51
328.15	50000	1271.59	2.55
328.15	54999	1293.23	2.59
328.15	59990	1312.61	2.63
343.15	165	955.98	1.94
343.15	1001	962.46	1.95
343.15	4999	991.03	2.01
343.15	10007	1025.26	2.07
343.15	15001	1056.11	2.13
343.15	19997	1086.84	2.19
343.15	25000	1114.77	2.24
343.15	30002	1141.6	2.3
343.15	34992	1166.37	2.34
343.15	40002	1192.24	2.4
343.15	45000	1215.98	2.44
343.15	50004	1237.64	2.48
343.15	55000	1260.49	2.53
343.15	60002	1281.74	2.57

System: methanol + N-methylpyrrolidone; phases: Liquid
Fixed: Pressure, kPa = 100
Property: Molar heat capacity at constant pressure, J/K/mol (Liquid); method: Small sample (50 mg) DSC
Temperature, K	Mole fraction of N-methylpyrrolidone	Molar heat capacity at constant pressure, J/K/mol	uncertainty
298.15	0	81.16844	2.2622
298.15	0.1993	98.81359	2.752
298.15	0.3989	117.0489	3.2577
298.15	0.4991	127.0092	3.5384
298.15	0.5972	135.634	3.75
298.15	0.7964	153.6953	4.2821
298.15	1	174.8276	4.8673
308.15	0	83.01085	2.3134
308.15	0.1993	100.5574	2.802
308.15	0.3989	119.0541	3.3165
308.15	0.4991	129.224	3.5974
308.15	0.5972	137.7687	3.8361
308.15	0.7964	155.9603	4.342
308.15	1	177.3753	4.9367
318.15	0	85.51011	2.3807
318.15	0.1993	102.0061	2.8428
318.15	0.3989	120.9534	3.3695
318.15	0.4991	131.465	3.6629
318.15	0.5972	140.0184	3.901
318.15	0.7964	158.0971	4.4018
318.15	1	179.9428	5.016
328.15	0	88.64381	2.4704
328.15	0.1993	104.0678	2.8973
328.15	0.3989	122.9528	3.4224
328.15	0.4991	133.7912	3.7284
328.15	0.5972	142.2898	3.9659
328.15	0.7964	160.2168	4.4616
328.15	1	182.768	5.0953
338.15	0	92.43436	2.5762
338.15	0.1993	107.7599	3.0018
338.15	0.3989	125.4696	3.4929
338.15	0.4991	136.1894	3.794
338.15	0.5972	144.6261	4.0308
338.15	0.7964	162.0288	4.5129
338.15	1	185.7816	5.1746
348.15	0	96.88177	2.6979
348.15	0.1993	113.9951	3.1744
348.15	0.3989	128.7038	3.587
348.15	0.4991	138.7319	3.866
348.15	0.5972	146.8975	4.0885
348.15	0.7964	163.5331	4.5556
348.15	1	189.271	5.2738

System: methanol + N-methylpyrrolidone; phases: Liquid
Property: Speed of sound, m/s (Liquid); method: Dual path-length method
Temperature, K	Mole fraction of N-methylpyrrolidone	Pressure, kPa	Speed of sound, m/s	uncertainty
298.15	0	135	1101.54	2.22
298.15	0	998	1106.68	2.23
298.15	0	4999	1129.63	2.27
298.15	0	10002	1156.87	2.33
298.15	0	15002	1183.02	2.38
298.15	0	19991	1209.29	2.43
298.15	0	24996	1233.36	2.48
298.15	0	29991	1257.23	2.52
298.15	0	34998	1279.19	2.57
298.15	0	40002	1301.09	2.61
298.15	0	45002	1322.89	2.65
298.15	0	50004	1342.3	2.69
298.15	0	54997	1361.36	2.73
298.15	0	59998	1380.97	2.77
298.15	0.2016	129	1277.13	2.81
298.15	0.2016	1000	1281.18	2.68
298.15	0.2016	4997	1299.35	2.61
298.15	0.2016	9997	1321.51	2.65
298.15	0.2016	14993	1343.53	2.7
298.15	0.2016	19997	1365.85	2.74
298.15	0.2016	24998	1386.05	2.78
298.15	0.2016	29993	1406.37	2.82
298.15	0.2016	34990	1426.29	2.86
298.15	0.2016	39995	1444.7	2.9
298.15	0.2016	44995	1463.6	2.94
298.15	0.2016	50004	1481.91	2.97
298.15	0.2016	54994	1499.57	3.01
298.15	0.2016	60001	1516.51	3.04
298.15	0.3982	130	1386.21	2.82
298.15	0.3982	1000	1390.04	2.79
298.15	0.3982	4992	1406.04	2.83
298.15	0.3982	9984	1424.43	2.86
298.15	0.3982	14985	1444.86	2.9
298.15	0.3982	19986	1464.28	2.94
298.15	0.3982	25000	1483.15	2.98
298.15	0.3982	29984	1500.83	3.01
298.15	0.3982	34990	1518.94	3.05
298.15	0.3982	40000	1536.91	3.08
298.15	0.3982	44985	1554.1	3.12
298.15	0.3982	49996	1570.47	3.15
298.15	0.3982	54993	1585.93	3.18
298.15	0.3982	59994	1602.33	3.21
298.15	0.4931	131	1424.5	2.87
298.15	0.4931	999	1427.52	2.86
298.15	0.4931	5002	1441.82	2.9
298.15	0.4931	10027	1460.63	2.93
298.15	0.4931	15010	1478.86	2.97
298.15	0.4931	19995	1496.99	3
298.15	0.4931	24999	1516.14	3.04
298.15	0.4931	30000	1533.45	3.08
298.15	0.4931	35011	1550.56	3.11
298.15	0.4931	40004	1567.46	3.14
298.15	0.4931	45002	1584.72	3.18
298.15	0.4931	50004	1600.46	3.21
298.15	0.4931	55000	1617.17	3.24
298.15	0.4931	59999	1632.25	3.27
298.15	0.5889	132	1454.35	2.93
298.15	0.5889	1000	1458.03	2.92
298.15	0.5889	4993	1471.87	2.95
298.15	0.5889	10001	1489.83	2.99
298.15	0.5889	15006	1507.67	3.02
298.15	0.5889	19982	1525.36	3.06
298.15	0.5889	24976	1542.29	3.09
298.15	0.5889	29986	1560.21	3.13
298.15	0.5889	34994	1577.31	3.16
298.15	0.5889	39980	1594.17	3.19
298.15	0.5889	44995	1610.1	3.23
298.15	0.5889	49977	1625.69	3.26
298.15	0.5889	54994	1640.26	3.29
298.15	0.5889	59998	1656.45	3.32
298.15	0.7921	131	1506.61	3.04
298.15	0.7921	999	1510	3.03
298.15	0.7921	4993	1523.12	3.05
298.15	0.7921	9992	1539.42	3.08
298.15	0.7921	14998	1556.66	3.12
298.15	0.7921	19993	1573.68	3.15
298.15	0.7921	25006	1589.83	3.18
298.15	0.7921	29991	1606.31	3.22
298.15	0.7921	34995	1623.13	3.25
298.15	0.7921	40004	1637.65	3.28
298.15	0.7921	45000	1653.79	3.31
298.15	0.7921	50003	1668.86	3.34
298.15	0.7921	55009	1684.21	3.37
298.15	0.7921	60007	1698.42	3.4
298.15	1	132	1542.88	3.09
298.15	1	1156	1546.21	3.1
298.15	1	4991	1557.8	3.12
298.15	1	9998	1573.62	3.15
298.15	1	14998	1590.39	3.19
298.15	1	19995	1606.89	3.22
298.15	1	25000	1621.77	3.25
298.15	1	29995	1637.6	3.28
298.15	1	35000	1654.41	3.31
298.15	1	39986	1668.76	3.34
298.15	1	45004	1684.87	3.37
298.15	1	50002	1699.8	3.4
298.15	1	55003	1714.27	3.43
298.15	1	59996	1727.51	3.46
313.15	0	91	1052.16	2.12
313.15	0	1000	1057.68	2.13
313.15	0	5000	1082.08	2.18
313.15	0	10002	1112.22	2.24
313.15	0	15000	1140.22	2.29
313.15	0	20001	1166.96	2.35
313.15	0	25001	1192.16	2.4
313.15	0	30003	1217.37	2.45
313.15	0	35000	1241	2.49
313.15	0	39999	1263.57	2.54
313.15	0	44999	1287.4	2.58
313.15	0	49998	1306.62	2.62
313.15	0	54997	1326.41	2.66
313.15	0	59999	1346.82	2.7
313.15	0.2016	117	1228.17	2.61
313.15	0.2016	1012	1232.3	2.51
313.15	0.2016	5002	1249.48	2.51
313.15	0.2016	10005	1273.55	2.56
313.15	0.2016	15000	1295.24	2.6
313.15	0.2016	19998	1317.68	2.65
313.15	0.2016	24999	1339.13	2.69
313.15	0.2016	29998	1359.45	2.73
313.15	0.2016	34988	1379.93	2.77
313.15	0.2016	39991	1399.59	2.81
313.15	0.2016	44996	1419.31	2.85
313.15	0.2016	49978	1437.54	2.88
313.15	0.2016	54997	1457.62	2.92
313.15	0.2016	59987	1474.91	2.95
313.15	0.3982	107	1334.87	2.7
313.15	0.3982	1003	1337.53	2.69
313.15	0.3982	4996	1352.79	2.72
313.15	0.3982	9998	1372.59	2.76
313.15	0.3982	14983	1392.5	2.8
313.15	0.3982	19993	1412.01	2.84
313.15	0.3982	24996	1432.59	2.88
313.15	0.3982	29996	1452.2	2.92
313.15	0.3982	34990	1470.22	2.95
313.15	0.3982	39995	1488.14	2.99
313.15	0.3982	44999	1505.94	3.02
313.15	0.3982	49996	1523.59	3.06
313.15	0.3982	54995	1540.49	3.09
313.15	0.3982	59966	1557.16	3.12
313.15	0.4931	102	1371.27	2.76
313.15	0.4931	1030	1374.07	2.76
313.15	0.4931	5001	1389.22	2.79
313.15	0.4931	10003	1407.65	2.83
313.15	0.4931	15007	1427.58	2.87
313.15	0.4931	20009	1447.06	2.9
313.15	0.4931	25006	1464.94	2.94
313.15	0.4931	29996	1483.27	2.98
313.15	0.4931	34996	1500.95	3.01
313.15	0.4931	39993	1519.62	3.05
313.15	0.4931	45014	1537.01	3.08
313.15	0.4931	49994	1553.01	3.11
313.15	0.4931	54995	1569.95	3.15
313.15	0.4931	60007	1586.02	3.18
313.15	0.5889	103	1400.84	2.82
313.15	0.5889	1003	1404.75	2.81
313.15	0.5889	4998	1419.09	2.85
313.15	0.5889	9991	1437.3	2.88
313.15	0.5889	14985	1454.41	2.92
313.15	0.5889	19992	1473.55	2.96
313.15	0.5889	24989	1491.54	2.99
313.15	0.5889	29986	1508.85	3.02
313.15	0.5889	34988	1526	3.06
313.15	0.5889	39986	1543.53	3.09
313.15	0.5889	44988	1560.27	3.13
313.15	0.5889	49998	1576.14	3.16
313.15	0.5889	54995	1592.33	3.19
313.15	0.5889	60004	1608.87	3.22
313.15	0.7921	105	1452.4	2.93
313.15	0.7921	1002	1455.54	2.91
313.15	0.7921	4997	1468.26	2.94
313.15	0.7921	9998	1485.58	2.98
313.15	0.7921	14994	1502.18	3.01
313.15	0.7921	20007	1520.31	3.05
313.15	0.7921	24995	1537.71	3.08
313.15	0.7921	29995	1553.72	3.11
313.15	0.7921	35004	1571.29	3.15
313.15	0.7921	39998	1587.38	3.18
313.15	0.7921	45004	1603.17	3.21
313.15	0.7921	49988	1617.97	3.24
313.15	0.7921	54996	1633.72	3.27
313.15	0.7921	59988	1649.78	3.3
313.15	1	108	1484.96	2.97
313.15	1	1004	1488.25	2.98
313.15	1	5000	1500.99	3.01
313.15	1	9997	1516.81	3.04
313.15	1	14995	1534.72	3.08
313.15	1	19993	1551.86	3.11
313.15	1	24994	1567.56	3.14
313.15	1	29991	1584.82	3.17
313.15	1	35001	1599.93	3.2
313.15	1	39993	1616.62	3.24
313.15	1	44994	1632.34	3.27
313.15	1	49987	1647.03	3.3
313.15	1	54990	1661.98	3.33
313.15	1	59995	1675.81	3.36
328.15	0	165	1004.54	2.03
328.15	0	1000	1009.57	2.04
328.15	0	5000	1037.06	2.09
328.15	0	10001	1068.09	2.15
328.15	0	14999	1097.73	2.21
328.15	0	19998	1126.25	2.27
328.15	0	25000	1153.31	2.32
328.15	0	29999	1179.29	2.37
328.15	0	34998	1203.23	2.42
328.15	0	39994	1226.3	2.46
328.15	0	44998	1249.5	2.51
328.15	0	50000	1271.59	2.55
328.15	0	54999	1293.23	2.59
328.15	0	59990	1312.61	2.63
328.15	0.2016	109	1173.93	2.44
328.15	0.2016	1000	1177.7	2.39
328.15	0.2016	4998	1197.97	2.41
328.15	0.2016	9992	1221.18	2.46
328.15	0.2016	14987	1246.07	2.51
328.15	0.2016	20003	1270	2.55
328.15	0.2016	24998	1292.8	2.6
328.15	0.2016	29994	1314.72	2.64
328.15	0.2016	34996	1336.96	2.68
328.15	0.2016	39993	1357.22	2.72
328.15	0.2016	44994	1376.69	2.76
328.15	0.2016	49988	1396.73	2.8
328.15	0.2016	54979	1415.87	2.84
328.15	0.2016	59999	1433.5	2.87
328.15	0.3982	132	1277.45	2.58
328.15	0.3982	1007	1282.32	2.58
328.15	0.3982	4993	1297.17	2.61
328.15	0.3982	9990	1319.23	2.65
328.15	0.3982	14993	1340.27	2.69
328.15	0.3982	19984	1361.99	2.74
328.15	0.3982	24995	1383.49	2.78
328.15	0.3982	29986	1402.74	2.82
328.15	0.3982	34982	1421.54	2.85
328.15	0.3982	39986	1440.85	2.89
328.15	0.3982	44991	1459.63	2.93
328.15	0.3982	49990	1477.83	2.97
328.15	0.3982	54992	1495.12	3
328.15	0.3982	59999	1512.21	3.03
328.15	0.4931	102	1315.01	2.65
328.15	0.4931	993	1317.59	2.64
328.15	0.4931	5004	1333.26	2.68
328.15	0.4931	9991	1353.84	2.72
328.15	0.4931	15002	1374.6	2.76
328.15	0.4931	20015	1395.05	2.8
328.15	0.4931	24992	1414.62	2.84
328.15	0.4931	29995	1433.74	2.88
328.15	0.4931	35005	1452.33	2.91
328.15	0.4931	39995	1471.41	2.95
328.15	0.4931	44997	1488.8	2.99
328.15	0.4931	50016	1507.74	3.02
328.15	0.4931	55000	1523.7	3.06
328.15	0.4931	59992	1540	3.09
328.15	0.5889	104	1343.1	2.69
328.15	0.5889	1012	1345.77	2.7
328.15	0.5889	4986	1361.2	2.73
328.15	0.5889	9991	1380.77	2.77
328.15	0.5889	14994	1400.91	2.81
328.15	0.5889	19997	1420.65	2.85
328.15	0.5889	24989	1439.93	2.89
328.15	0.5889	29993	1458.68	2.93
328.15	0.5889	34998	1477.93	2.96
328.15	0.5889	39989	1494.92	3
328.15	0.5889	45004	1512.31	3.03
328.15	0.5889	49993	1529.53	3.07
328.15	0.5889	54992	1545.96	3.1
328.15	0.5889	60003	1563.35	3.13
328.15	0.7921	103	1394.23	2.8
328.15	0.7921	1002	1397.13	2.8
328.15	0.7921	5000	1411.79	2.83
328.15	0.7921	10004	1430.32	2.87
328.15	0.7921	15008	1449.33	2.91
328.15	0.7921	20012	1467.79	2.94
328.15	0.7921	24988	1485.64	2.98
328.15	0.7921	30002	1503.36	3.01
328.15	0.7921	35001	1520.95	3.05
328.15	0.7921	40003	1538.36	3.08
328.15	0.7921	45001	1554.38	3.11
328.15	0.7921	50011	1571.34	3.15
328.15	0.7921	54989	1587.43	3.18
328.15	0.7921	60004	1603.86	3.21
328.15	1	49	1430.23	2.87
328.15	1	1003	1431.76	2.87
328.15	1	4997	1445.1	2.9
328.15	1	9994	1462.93	2.93
328.15	1	14987	1480.11	2.97
328.15	1	20007	1499.94	3.01
328.15	1	24986	1515.73	3.04
328.15	1	29991	1533.03	3.07
328.15	1	35002	1550.13	3.11
328.15	1	40003	1566.4	3.14
328.15	1	44995	1583.63	3.17
328.15	1	49996	1598.08	3.2
328.15	1	55001	1614.73	3.23
328.15	1	59994	1629.1	3.26
343.15	0	165	955.98	1.94
343.15	0	1001	962.46	1.95
343.15	0	4999	991.03	2.01
343.15	0	10007	1025.26	2.07
343.15	0	15001	1056.11	2.13
343.15	0	19997	1086.84	2.19
343.15	0	25000	1114.77	2.24
343.15	0	30002	1141.6	2.3
343.15	0	34992	1166.37	2.34
343.15	0	40002	1192.24	2.4
343.15	0	45000	1215.98	2.44
343.15	0	50004	1237.64	2.48
343.15	0	55000	1260.49	2.53
343.15	0	60002	1281.74	2.57
343.15	0.2016	106	1121.82	2.46
343.15	0.2016	1003	1125.88	2.35
343.15	0.2016	4999	1147.31	2.31
343.15	0.2016	9989	1173.31	2.36
343.15	0.2016	14987	1199.46	2.41
343.15	0.2016	19995	1224.2	2.46
343.15	0.2016	24996	1248.06	2.51
343.15	0.2016	29996	1270.86	2.55
343.15	0.2016	34989	1292.86	2.6
343.15	0.2016	39992	1314.78	2.64
343.15	0.2016	44989	1335.69	2.68
343.15	0.2016	49992	1356.36	2.72
343.15	0.2016	54987	1375.8	2.76
343.15	0.2016	59988	1394.36	2.79
343.15	0.3982	122	1227.79	2.51
343.15	0.3982	999	1229.29	2.48
343.15	0.3982	4999	1246.75	2.51
343.15	0.3982	9998	1269.49	2.55
343.15	0.3982	14998	1291.43	2.6
343.15	0.3982	19991	1314.14	2.64
343.15	0.3982	24995	1338.55	2.69
343.15	0.3982	29993	1357.02	2.73
343.15	0.3982	34987	1376.94	2.77
343.15	0.3982	39982	1396.01	2.8
343.15	0.3982	44992	1416.11	2.84
343.15	0.3982	49994	1433.73	2.88
343.15	0.3982	54978	1452.33	2.91
343.15	0.3982	59988	1470.34	2.95
343.15	0.4931	127	1258.51	2.53
343.15	0.4931	997	1261.66	2.54
343.15	0.4931	5003	1279.24	2.57
343.15	0.4931	10010	1301.51	2.62
343.15	0.4931	15002	1323.71	2.66
343.15	0.4931	19994	1344.88	2.7
343.15	0.4931	25001	1365.83	2.74
343.15	0.4931	29995	1385.53	2.78
343.15	0.4931	34998	1405.81	2.82
343.15	0.4931	40008	1425.18	2.86
343.15	0.4931	45003	1443.03	2.9
343.15	0.4931	50007	1461.87	2.93
343.15	0.4931	55010	1480.11	2.97
343.15	0.4931	60006	1496.6	3
343.15	0.5889	109	1289.93	2.6
343.15	0.5889	1003	1293.23	2.59
343.15	0.5889	4996	1309.17	2.63
343.15	0.5889	10000	1329.87	2.67
343.15	0.5889	15004	1351.24	2.71
343.15	0.5889	19989	1370.52	2.75
343.15	0.5889	24989	1391.32	2.79
343.15	0.5889	29992	1410.78	2.83
343.15	0.5889	34985	1429.78	2.87
343.15	0.5889	39987	1448.27	2.9
343.15	0.5889	44994	1466.17	2.94
343.15	0.5889	49998	1484.52	2.98
343.15	0.5889	54990	1502.23	3.01
343.15	0.5889	59995	1518.07	3.04
343.15	0.7921	103	1339.69	2.71
343.15	0.7921	1004	1342.36	2.69
343.15	0.7921	5000	1357.71	2.72
343.15	0.7921	9997	1376.23	2.76
343.15	0.7921	14990	1396.23	2.8
343.15	0.7921	19998	1415.33	2.84
343.15	0.7921	25010	1435.47	2.88
343.15	0.7921	30006	1454.62	2.92
343.15	0.7921	35010	1472.68	2.95
343.15	0.7921	40001	1490.09	2.99
343.15	0.7921	44998	1507.92	3.02
343.15	0.7921	50007	1525.03	3.06
343.15	0.7921	55002	1540.77	3.09
343.15	0.7921	60004	1556.83	3.12
343.15	1	34	1371.47	2.75
343.15	1	999	1374.74	2.76
343.15	1	4998	1390.37	2.79
343.15	1	10003	1409.81	2.83
343.15	1	14992	1427.77	2.86
343.15	1	19989	1446.2	2.9
343.15	1	24993	1465.12	2.94
343.15	1	29995	1483.45	2.97
343.15	1	34997	1501.12	3.01
343.15	1	39989	1516.94	3.04
343.15	1	44993	1534.26	3.07
343.15	1	50002	1551.38	3.11
343.15	1	54998	1567.07	3.14
343.15	1	59992	1582.45	3.17
