Measured thermophysical data. The dissolution behavior and apparent thermodynamic analysis of temozolomide in pure and mixed solvents
Source: J. Chem. Thermodyn., 2019, 10.1016/j.jct.2018.11.026
Compound 1: Temozolomide, C6H6N6O2, InChI=1S/C6H6N6O2/c1-11-6(14)12-2-8-3(4(7)13)5(12)9-10-11/h2H,1H3,(H2,7,13), purity 99.6%
Compound 2: ethanol, C2H6O, InChI=1S/C2H6O/c1-2-3/h3H,2H2,1H3, purity 99.8%
Compound 3: propan-2-ol, C3H8O, InChI=1S/C3H8O/c1-3(2)4/h3-4H,1-2H3, purity 99.8%
Compound 4: methanol, CH4O, InChI=1S/CH4O/c1-2/h2H,1H3, purity 99.5%
Compound 5: propan-1-ol, C3H8O, InChI=1S/C3H8O/c1-2-3-4/h4H,2-3H2,1H3, purity 99.6%
Compound 6: ethyl acetate, C4H8O2, InChI=1S/C4H8O2/c1-3-6-4(2)5/h3H2,1-2H3, purity 99.5%
Compound 7: acetonitrile, C2H3N, InChI=1S/C2H3N/c1-2-3/h1H3, purity 99.6%
Compound 8: 1,4-dioxane, C4H8O2, InChI=1S/C4H8O2/c1-2-6-4-3-5-1/h1-4H2, purity 99.5%
Compound 9: acetone, C3H6O, InChI=1S/C3H6O/c1-3(2)4/h1-2H3, purity 99.5%
Compound 10: dimethylformamide, C3H7NO, InChI=1S/C3H7NO/c1-4(2)3-5/h3H,1-2H3, purity 99.6%
Compound 11: dimethyl sulfoxide, C2H6OS, InChI=1S/C2H6OS/c1-4(2)3/h1-2H3, purity 99.5%

System: Temozolomide + methanol; phases: Liquid, Crystal
Fixed: Pressure, kPa = 101.3
Property: Mole fraction of Temozolomide (Liquid); method: Chromatography
Temperature, K	Mole fraction of Temozolomide	uncertainty
293.15	0.000365	3.5e-05
298.15	0.000428	4.1e-05
303.15	0.000499	4.8e-05
308.15	0.000587	5.6e-05
313.15	0.000672	6.5e-05
318.15	0.000764	7.3e-05
323.15	0.000858	8.2e-05
328.15	0.00096	9e-05
333.15	0.001066	0.000102

System: Temozolomide + ethanol; phases: Liquid, Crystal
Fixed: Pressure, kPa = 101.3
Property: Mole fraction of Temozolomide (Liquid); method: Chromatography
Temperature, K	Mole fraction of Temozolomide	uncertainty
293.15	0.0001	1e-05
298.15	0.000135	1.3e-05
303.15	0.000174	1.7e-05
308.15	0.000216	2.1e-05
313.15	0.000267	2.6e-05
318.15	0.000326	3.1e-05
323.15	0.000395	3.8e-05
328.15	0.000474	4.6e-05
333.15	0.000557	5.3e-05

System: Temozolomide + propan-1-ol; phases: Liquid, Crystal
Fixed: Pressure, kPa = 101.3
Property: Mole fraction of Temozolomide (Liquid); method: Chromatography
Temperature, K	Mole fraction of Temozolomide	uncertainty
293.15	8.2e-05	8e-06
298.15	0.000112	1.1e-05
303.15	0.000148	1.4e-05
308.15	0.00019	1.8e-05
313.15	0.000241	2.3e-05
318.15	0.0003	2.9e-05
323.15	0.000365	3.5e-05
328.15	0.00044	4e-05
333.15	0.000519	5e-05

System: Temozolomide + propan-2-ol; phases: Liquid, Crystal
Fixed: Pressure, kPa = 101.3
Property: Mole fraction of Temozolomide (Liquid); method: Chromatography
Temperature, K	Mole fraction of Temozolomide	uncertainty
293.15	3.7e-05	4e-06
298.15	5.1e-05	5e-06
303.15	7.1e-05	7e-06
308.15	9.6e-05	9e-06
313.15	0.000126	1.2e-05
318.15	0.000165	1.6e-05
323.15	0.000209	2e-05
328.15	0.000258	2.5e-05
333.15	0.000317	3e-05

System: Temozolomide + acetone; phases: Liquid, Crystal
Fixed: Pressure, kPa = 101.3
Property: Mole fraction of Temozolomide (Liquid); method: Chromatography
Temperature, K	Mole fraction of Temozolomide	uncertainty
293.15	0.000504	4.8e-05
298.15	0.000584	5.6e-05
303.15	0.000669	6.4e-05
308.15	0.000761	7.3e-05
313.15	0.000853	8.2e-05
318.15	0.000942	9e-05
323.15	0.001048	0.000101
328.15	0.001151	0.000111
333.15	0.001268	0.000122

System: Temozolomide + acetonitrile; phases: Liquid, Crystal
Fixed: Pressure, kPa = 101.3
Property: Mole fraction of Temozolomide (Liquid); method: Chromatography
Temperature, K	Mole fraction of Temozolomide	uncertainty
293.15	0.000646	6.2e-05
298.15	0.000744	7.1e-05
303.15	0.000869	8.3e-05
308.15	0.001013	9.7e-05
313.15	0.001179	0.000113
318.15	0.001361	0.000131
323.15	0.001562	0.00015
328.15	0.00178	0.00017
333.15	0.002027	0.000195

System: Temozolomide + ethyl acetate; phases: Liquid, Crystal
Fixed: Pressure, kPa = 101.3
Property: Mole fraction of Temozolomide (Liquid); method: Chromatography
Temperature, K	Mole fraction of Temozolomide	uncertainty
293.15	0.00013	1.2e-05
298.15	0.000162	1.6e-05
303.15	0.000202	1.9e-05
308.15	0.000252	2.4e-05
313.15	0.0003	2.9e-05
318.15	0.000362	3.5e-05
323.15	0.000426	4.1e-05
328.15	0.000494	4.7e-05
333.15	0.000572	5.5e-05

System: Temozolomide + dimethyl sulfoxide; phases: Liquid, Crystal
Fixed: Pressure, kPa = 101.3
Property: Mole fraction of Temozolomide (Liquid); method: Chromatography
Temperature, K	Mole fraction of Temozolomide	uncertainty
293.15	0.007057	0.000678
298.15	0.008309	0.000798
303.15	0.01006	0.00097
308.15	0.012	0.00115
313.15	0.01424	0.00137
318.15	0.01644	0.00158
323.15	0.01901	0.00183
328.15	0.02157	0.00207
333.15	0.02445	0.00235

System: Temozolomide + 1,4-dioxane; phases: Liquid, Crystal
Fixed: Pressure, kPa = 101.3
Property: Mole fraction of Temozolomide (Liquid); method: Chromatography
Temperature, K	Mole fraction of Temozolomide	uncertainty
293.15	0.002486	0.000239
298.15	0.002749	0.000264
303.15	0.003016	0.00029
308.15	0.003313	0.000318
313.15	0.0036	0.000346
318.15	0.003913	0.000376
323.15	0.004292	0.000412
328.15	0.0047	0.000451
333.15	0.00518	0.0005

System: Temozolomide + dimethylformamide; phases: Liquid, Crystal
Fixed: Pressure, kPa = 101.3
Property: Mole fraction of Temozolomide (Liquid); method: Chromatography
Temperature, K	Mole fraction of Temozolomide	uncertainty
293.15	0.003656	0.000351
298.15	0.00422	0.000405
303.15	0.004824	0.000463
308.15	0.005458	0.000524
313.15	0.00625	0.0006
318.15	0.007125	0.000684
323.15	0.00811	0.000779
328.15	0.009116	0.000875
333.15	0.01026	0.00099

System: Temozolomide + ethanol + dimethylformamide; phases: Liquid, Crystal
Fixed: Pressure, kPa = 101.3
Property: Mole fraction of Temozolomide (Liquid); method: Chromatography
Temperature, K	Solvent: Mass fraction of dimethylformamide	Mole fraction of Temozolomide	uncertainty
293.15	0	0.0001	1e-05
298.15	0	0.000135	1.4e-05
303.15	0	0.000174	1.7e-05
308.15	0	0.000216	2.2e-05
313.15	0	0.000267	2.7e-05
318.15	0	0.000326	3.3e-05
323.15	0	0.000395	4e-05
328.15	0	0.000474	4.7e-05
333.15	0	0.000557	5.6e-05
293.15	0.2	0.000352	3.6e-05
298.15	0.2	0.000419	4.3e-05
303.15	0.2	0.000496	5e-05
308.15	0.2	0.000584	5.9e-05
313.15	0.2	0.000685	6.9e-05
318.15	0.2	0.000785	7.9e-05
323.15	0.2	0.000895	9e-05
328.15	0.2	0.00101	0.000102
333.15	0.2	0.001147	0.000116
293.15	0.4	0.000761	7.7e-05
298.15	0.4	0.000886	9e-05
303.15	0.4	0.001033	0.000105
308.15	0.4	0.001175	0.00012
313.15	0.4	0.001336	0.000137
318.15	0.4	0.001503	0.000154
323.15	0.4	0.001694	0.000174
328.15	0.4	0.001903	0.000195
333.15	0.4	0.002166	0.000222
293.15	0.6	0.001058	0.000107
298.15	0.6	0.001276	0.000129
303.15	0.6	0.00152	0.000154
308.15	0.6	0.001782	0.000181
313.15	0.6	0.002102	0.000213
318.15	0.6	0.002442	0.000248
323.15	0.6	0.0028	0.000284
328.15	0.6	0.003202	0.000325
333.15	0.6	0.003608	0.000366
293.15	0.7	0.001408	0.000143
298.15	0.7	0.001655	0.000168
303.15	0.7	0.001961	0.000199
308.15	0.7	0.00229	0.000232
313.15	0.7	0.002648	0.000268
318.15	0.7	0.003077	0.000311
323.15	0.7	0.003509	0.000354
328.15	0.7	0.003984	0.000402
333.15	0.7	0.004497	0.000454
293.15	0.8	0.001905	0.000192
298.15	0.8	0.00222	0.000224
303.15	0.8	0.002553	0.000257
308.15	0.8	0.002933	0.000295
313.15	0.8	0.003371	0.000339
318.15	0.8	0.003859	0.000388
323.15	0.8	0.004409	0.000443
328.15	0.8	0.004994	0.000502
333.15	0.8	0.00563	0.000566
293.15	0.9	0.002668	0.000267
298.15	0.9	0.003036	0.000304
303.15	0.9	0.003504	0.000351
308.15	0.9	0.004004	0.000401
313.15	0.9	0.004562	0.000457
318.15	0.9	0.005138	0.000515
323.15	0.9	0.005838	0.000585
328.15	0.9	0.006609	0.000662
333.15	0.9	0.00743	0.000745
293.15	1	0.003656	0.000366
298.15	1	0.00422	0.00042
303.15	1	0.004824	0.000483
308.15	1	0.005458	0.000546
313.15	1	0.00625	0.00063
318.15	1	0.007125	0.000713
323.15	1	0.00811	0.00081
328.15	1	0.009116	0.000912
333.15	1	0.01026	0.00103
