Measured thermophysical data. Self-association and thermodynamic behavior of etilefrine hydrochloride in aqueous electrolyte solution
Source: J. Chem. Thermodyn., 2014, 10.1016/j.jct.2014.07.017
Compound 1: water, H2O, InChI=1S/H2O/h1H2
Compound 2: 1-(3-hydroxyphenyl)-2-ethylaminoethanol hydrochloride, C10H16ClNO2, InChI=1S/C10H15NO2.ClH/c1-2-11-7-10(13)8-4-3-5-9(12)6-8;/h3-6,10-13H,2,7H2,1H3;1H, purity 98%
Compound 3: sodium chloride, ClNa, InChI=1S/ClH.Na/h1H;/q;+1/p-1, purity 99.5%

System: 1-(3-hydroxyphenyl)-2-ethylaminoethanol hydrochloride + sodium chloride + water; phases: Liquid
Fixed: Pressure, kPa = 100
Fixed: Temperature, K = 298.15
Property: Electrical conductivity, S/m (Liquid); method: Direct current cell with electrodes
Solvent: Molality, mol/kg of sodium chloride	Molality, mol/kg of 1-(3-hydroxyphenyl)-2-ethylaminoethanol hydrochloride	Electrical conductivity, S/m	uncertainty
0	0.010276	0.03	0.001
0	0.01115	0.033	0.001
0	0.01209	0.037	0.001
0	0.013128	0.041	0.001
0	0.014245	0.045	0.001
0	0.015457	0.051	0.001
0	0.016772	0.056	0.001
0	0.018199	0.061	0.001
0	0.01896	0.065	0.001
0	0.01974	0.068	0.001
0	0.02057	0.072	0.001
0	0.021427	0.075	0.001
0	0.022319	0.078	0.001
0	0.023249	0.082	0.001
0	0.024218	0.087	0.001
0	0.025227	0.09	0.001
0	0.026278	0.095	0.001
0	0.02737	0.101	0.001
0	0.028514	0.105	0.001
0	0.029702	0.109	0.001
0	0.03094	0.115	0.001
0	0.032222	0.12	0.001
0	0.03357	0.126	0.001
0	0.03497	0.132	0.001
0	0.03643	0.138	0.001
0	0.03795	0.145	0.002
0	0.03953	0.15	0.002
0	0.04117	0.155	0.002
0	0.04289	0.159	0.002
0	0.04468	0.165	0.002
0	0.04654	0.171	0.002
0	0.04848	0.177	0.002
0	0.0505	0.185	0.002
0	0.0526	0.191	0.002
0	0.05479	0.195	0.002
0	0.05708	0.203	0.002
0	0.05945	0.208	0.002
0	0.06193	0.216	0.002
0	0.06451	0.224	0.002
0	0.0672	0.232	0.002
0	0.07	0.241	0.002
0.025	0.004768	0.16	0.002
0.025	0.005185	0.163	0.002
0.025	0.005602	0.167	0.002
0.025	0.006065	0.171	0.002
0.025	0.00662	0.174	0.002
0.025	0.007176	0.179	0.002
0.025	0.007731	0.184	0.002
0.025	0.008425	0.188	0.002
0.025	0.00912	0.195	0.002
0.025	0.009907	0.2	0.002
0.025	0.01074	0.207	0.002
0.025	0.011666	0.214	0.002
0.025	0.012638	0.221	0.002
0.025	0.014907	0.24	0.002
0.025	0.016157	0.261	0.003
0.025	0.019074	0.268	0.003
0.025	0.020694	0.277	0.003
0.025	0.022453	0.287	0.003
0.025	0.024351	0.298	0.003
0.025	0.026435	0.31	0.003
0.025	0.027544	0.317	0.003
0.025	0.028657	0.322	0.003
0.025	0.029861	0.328	0.003
0.025	0.032407	0.341	0.003
0.05	0.004768	0.27	0.003
0.05	0.005185	0.274	0.003
0.05	0.005602	0.276	0.003
0.05	0.006065	0.28	0.003
0.05	0.00662	0.285	0.003
0.05	0.007176	0.29	0.003
0.05	0.007731	0.295	0.003
0.05	0.008425	0.3	0.003
0.05	0.00912	0.305	0.003
0.05	0.009907	0.311	0.003
0.05	0.01074	0.319	0.003
0.05	0.011666	0.324	0.003
0.05	0.012638	0.332	0.003
0.05	0.01375	0.343	0.003
0.05	0.014907	0.354	0.004
0.05	0.016157	0.375	0.004
0.05	0.018287	0.385	0.004
0.05	0.019861	0.393	0.004
0.05	0.021527	0.406	0.004
0.05	0.023379	0.418	0.004
0.05	0.02537	0.427	0.004
0.05	0.026435	0.433	0.004
0.05	0.027544	0.442	0.004
0.05	0.028657	0.447	0.005
0.05	0.029861	0.455	0.005
0.05	0.031111	0.461	0.005
0.075	0.004768	0.384	0.004
0.075	0.005185	0.386	0.004
0.075	0.005602	0.39	0.004
0.075	0.006065	0.394	0.004
0.075	0.00662	0.397	0.004
0.075	0.007176	0.402	0.004
0.075	0.007731	0.408	0.004
0.075	0.008425	0.411	0.004
0.075	0.00912	0.417	0.004
0.075	0.009907	0.422	0.004
0.075	0.01074	0.428	0.004
0.075	0.011666	0.434	0.004
0.075	0.012638	0.442	0.004
0.075	0.01375	0.449	0.005
0.075	0.014907	0.458	0.005
0.075	0.016157	0.473	0.005
0.075	0.019074	0.476	0.005
0.075	0.020694	0.485	0.005
0.075	0.022453	0.492	0.005
0.075	0.024351	0.5	0.005
0.075	0.026435	0.515	0.005
0.075	0.027544	0.519	0.005
0.075	0.028657	0.522	0.005
0.075	0.029861	0.53	0.005
0.075	0.031111	0.535	0.005
0.075	0.032407	0.542	0.005
0.1	0.004768	0.485	0.005
0.1	0.005185	0.487	0.005
0.1	0.005602	0.491	0.005
0.1	0.006065	0.495	0.005
0.1	0.00662	0.502	0.005
0.1	0.007176	0.51	0.005
0.1	0.007731	0.514	0.005
0.1	0.008425	0.52	0.005
0.1	0.00912	0.524	0.005
0.1	0.009907	0.527	0.005
0.1	0.01074	0.533	0.005
0.1	0.011666	0.543	0.005
0.1	0.012638	0.552	0.006
0.1	0.01375	0.561	0.006
0.1	0.014907	0.572	0.006
0.1	0.016157	0.594	0.006
0.1	0.019074	0.601	0.006
0.1	0.020694	0.612	0.006
0.1	0.024351	0.63	0.006
0.1	0.026435	0.64	0.006
0.1	0.027544	0.652	0.007
0.1	0.028657	0.659	0.007
0.1	0.029861	0.664	0.007
0.1	0.031111	0.67	0.007
0.1	0.032407	0.682	0.007

System: 1-(3-hydroxyphenyl)-2-ethylaminoethanol hydrochloride + water; phases: Liquid
Fixed: Pressure, kPa = 100
Fixed: Temperature, K = 298.15
Property: Electrical conductivity, S/m (Liquid); method: Direct current cell with electrodes
Molality, mol/kg of 1-(3-hydroxyphenyl)-2-ethylaminoethanol hydrochloride	Electrical conductivity, S/m	uncertainty
0.010276	0.03	0.001
0.01115	0.033	0.001
0.01209	0.037	0.001
0.013128	0.041	0.001
0.014245	0.045	0.001
0.015457	0.051	0.001
0.016772	0.056	0.001
0.018199	0.061	0.001
0.01896	0.065	0.001
0.01974	0.068	0.001
0.02057	0.072	0.001
0.021427	0.075	0.001
0.022319	0.078	0.001
0.023249	0.082	0.001
0.024218	0.087	0.001
0.025227	0.09	0.001
0.026278	0.095	0.001
0.02737	0.101	0.001
0.028514	0.105	0.001
0.029702	0.109	0.001
0.03094	0.115	0.001
0.032222	0.12	0.001
0.03357	0.126	0.001
0.03497	0.132	0.001
0.03643	0.138	0.001
0.03795	0.145	0.002
0.03953	0.15	0.002
0.04117	0.155	0.002
0.04289	0.159	0.002
0.04468	0.165	0.002
0.04654	0.171	0.002
0.04848	0.177	0.002
0.0505	0.185	0.002
0.0526	0.191	0.002
0.05479	0.195	0.002
0.05708	0.203	0.002
0.05945	0.208	0.002
0.06193	0.216	0.002
0.06451	0.224	0.002
0.0672	0.232	0.002
0.07	0.241	0.002
