Measured thermophysical data. Interactions of volatile organic compounds with the ionic liquids  1-butyl-1-methylpyrrolidinium tetracyanoborate and  1-butyl-1-methylpyrrolidinium bis(oxalato)borate
Source: J. Chem. Thermodyn., 2013, 10.1016/j.jct.2012.09.017
Compound 1: 1-butyl-1-methylpyrrolidinium tetracyanoborate, C13H20BN5, InChI=1S/C9H20N.C4BN4/c1-3-4-7-10(2)8-5-6-9-10;6-1-5(2-7,3-8)4-9/h3-9H2,1-2H3;/q+1;-1, purity 99%
Compound 2: 1-butyl-1-methylpyrrolidinium bis(oxalato)borate, C13H20BNO8, InChI=1S/C9H20N.C4BO8/c1-3-4-7-10(2)8-5-6-9-10;6-1-2(7)11-5(10-1)12-3(8)4(9)13-5/h3-9H2,1-2H3;/q+1;-1, purity 99%
Compound 3: heptane, C7H16, InChI=1S/C7H16/c1-3-5-7-6-4-2/h3-7H2,1-2H3, purity 98%
Compound 4: octane, C8H18, InChI=1S/C8H18/c1-3-5-7-8-6-4-2/h3-8H2,1-2H3, purity 98%
Compound 5: oct-1-ene, C8H16, InChI=1S/C8H16/c1-3-5-7-8-6-4-2/h3H,1,4-8H2,2H3, purity 98%
Compound 6: cyclohexane, C6H12, InChI=1S/C6H12/c1-2-4-6-5-3-1/h1-6H2, purity 98%
Compound 7: methylcyclohexane, C7H14, InChI=1S/C7H14/c1-7-5-3-2-4-6-7/h7H,2-6H2,1H3, purity 98%
Compound 8: ethylcyclohexane, C8H16, InChI=1S/C8H16/c1-2-8-6-4-3-5-7-8/h8H,2-7H2,1H3, purity 98%
Compound 9: benzene, C6H6, InChI=1S/C6H6/c1-2-4-6-5-3-1/h1-6H, purity 98%
Compound 10: toluene, C7H8, InChI=1S/C7H8/c1-7-5-3-2-4-6-7/h2-6H,1H3, purity 98%
Compound 11: ethylbenzene, C8H10, InChI=1S/C8H10/c1-2-8-6-4-3-5-7-8/h3-7H,2H2,1H3, purity 98%
Compound 12: 1,3-dimethylbenzene, C8H10, InChI=1S/C8H10/c1-7-4-3-5-8(2)6-7/h3-6H,1-2H3, purity 98%
Compound 13: methanol, CH4O, InChI=1S/CH4O/c1-2/h2H,1H3, purity 98%
Compound 14: ethanol, C2H6O, InChI=1S/C2H6O/c1-2-3/h3H,2H2,1H3, purity 98%
Compound 15: propan-1-ol, C3H8O, InChI=1S/C3H8O/c1-2-3-4/h4H,2-3H2,1H3, purity 98%
Compound 16: propan-2-ol, C3H8O, InChI=1S/C3H8O/c1-3(2)4/h3-4H,1-2H3, purity 98%
Compound 17: 1,2-dimethoxyethane, C4H10O2, InChI=1S/C4H10O2/c1-5-3-4-6-2/h3-4H2,1-2H3, purity 98%
Compound 18: diisopropyl ether, C6H14O, InChI=1S/C6H14O/c1-5(2)7-6(3)4/h5-6H,1-4H3, purity 98%
Compound 19: 2-methoxy-2-methylpropane, C5H12O, InChI=1S/C5H12O/c1-5(2,3)6-4/h1-4H3, purity 98%
Compound 20: tetrahydrofuran, C4H8O, InChI=1S/C4H8O/c1-2-4-5-3-1/h1-4H2, purity 98%
Compound 21: methyl ethanoate, C3H6O2, InChI=1S/C3H6O2/c1-3(4)5-2/h1-2H3, purity 98%
Compound 22: ethyl acetate, C4H8O2, InChI=1S/C4H8O2/c1-3-6-4(2)5/h3H2,1-2H3, purity 98%
Compound 23: acetone, C3H6O, InChI=1S/C3H6O/c1-3(2)4/h1-2H3, purity 98%
Compound 24: butanone, C4H8O, InChI=1S/C4H8O/c1-3-4(2)5/h3H2,1-2H3, purity 98%
Compound 25: dimethyl carbonate, C3H6O3, InChI=1S/C3H6O3/c1-5-3(4)6-2/h1-2H3, purity 98%
Compound 26: dichloromethane, CH2Cl2, InChI=1S/CH2Cl2/c2-1-3/h1H2, purity 98%
Compound 27: trichloromethane, CHCl3, InChI=1S/CHCl3/c2-1(3)4/h1H, purity 98%
Compound 28: 1-bromo-1-chloro-2,2,2-trifluoroethane, C2HBrClF3, InChI=1S/C2HBrClF3/c3-1(4)2(5,6)7/h1H, purity 98%
Compound 29: tetrachloromethane, CCl4, InChI=1S/CCl4/c2-1(3,4)5, purity 98%
Compound 30: nitromethane, CH3NO2, InChI=1S/CH3NO2/c1-2(3)4/h1H3, purity 98%
Compound 31: acetonitrile, C2H3N, InChI=1S/C2H3N/c1-2-3/h1H3, purity 98%
Compound 32: thiophene, C4H4S, InChI=1S/C4H4S/c1-2-4-5-3-1/h1-4H, purity 98%

System: 1-butyl-1-methylpyrrolidinium tetracyanoborate; phases: Liquid
Fixed: Pressure, kPa = 101.325
Property: Mass density, kg/m3 (Liquid); method: Vibrating tube method
Temperature, K	Mass density, kg/m3	uncertainty
283.15	986.48	0.29
293.15	979.5	0.29
303.15	972.59	0.29
313.15	965.77	0.29
323.15	959.04	0.29
333.15	952.4	0.29
343.15	945.83	0.29

System: 1-butyl-1-methylpyrrolidinium bis(oxalato)borate; phases: Liquid
Fixed: Pressure, kPa = 101.325
Property: Mass density, kg/m3 (Liquid); method: Vibrating tube method
Temperature, K	Mass density, kg/m3	uncertainty
328.15	1235.34	0.44
333.15	1231.29	0.44
338.15	1227.23	0.43
343.15	1223.19	0.43
348.15	1219.17	0.43
353.15	1215.17	0.42

System: heptane + 1-butyl-1-methylpyrrolidinium tetracyanoborate; phases: Liquid
Fixed: Pressure, kPa = 101
Fixed: Mole fraction of heptane = 0
Property: Activity coefficient of heptane (Liquid); method: Chromatography
Temperature, K	Activity coefficient of heptane	uncertainty
318.15	23.2	1.2
323.15	22.4	1.2
333.15	20.9	1.1
343.15	19.7	1
353.15	18.5	1

System: octane + 1-butyl-1-methylpyrrolidinium tetracyanoborate; phases: Liquid
Fixed: Pressure, kPa = 101
Fixed: Mole fraction of octane = 0
Property: Activity coefficient of octane (Liquid); method: Chromatography
Temperature, K	Activity coefficient of octane	uncertainty
318.15	33.2	1.7
323.15	31.8	1.6
333.15	29.4	1.5
343.15	27.4	1.4
353.15	25.6	1.3

System: oct-1-ene + 1-butyl-1-methylpyrrolidinium tetracyanoborate; phases: Liquid
Fixed: Pressure, kPa = 101
Fixed: Mole fraction of oct-1-ene = 0
Property: Activity coefficient of oct-1-ene (Liquid); method: Chromatography
Temperature, K	Activity coefficient of oct-1-ene	uncertainty
318.15	15.8	0.8
323.15	15.4	0.8
333.15	14.7	0.8
343.15	14	0.7
353.15	13.4	0.7

System: cyclohexane + 1-butyl-1-methylpyrrolidinium tetracyanoborate; phases: Liquid
Fixed: Pressure, kPa = 101
Fixed: Mole fraction of cyclohexane = 0
Property: Activity coefficient of cyclohexane (Liquid); method: Chromatography
Temperature, K	Activity coefficient of cyclohexane	uncertainty
318.15	8.51	0.44
323.15	8.26	0.43
333.15	7.83	0.4
343.15	7.44	0.38
353.15	7.11	0.37

System: methylcyclohexane + 1-butyl-1-methylpyrrolidinium tetracyanoborate; phases: Liquid
Fixed: Pressure, kPa = 101
Fixed: Mole fraction of methylcyclohexane = 0
Property: Activity coefficient of methylcyclohexane (Liquid); method: Chromatography
Temperature, K	Activity coefficient of methylcyclohexane	uncertainty
318.15	12.2	0.6
323.15	11.8	0.6
333.15	11.2	0.6
343.15	10.6	0.5
353.15	10.1	0.5

System: ethylcyclohexane + 1-butyl-1-methylpyrrolidinium tetracyanoborate; phases: Liquid
Fixed: Pressure, kPa = 101
Fixed: Mole fraction of ethylcyclohexane = 0
Property: Activity coefficient of ethylcyclohexane (Liquid); method: Chromatography
Temperature, K	Activity coefficient of ethylcyclohexane	uncertainty
318.15	17.6	0.9
323.15	17	0.9
333.15	15.8	0.8
343.15	14.8	0.8
353.15	13.9	0.7

System: benzene + 1-butyl-1-methylpyrrolidinium tetracyanoborate; phases: Liquid
Fixed: Pressure, kPa = 101
Fixed: Mole fraction of benzene = 0
Property: Activity coefficient of benzene (Liquid); method: Chromatography
Temperature, K	Activity coefficient of benzene	uncertainty
318.15	0.833	0.039
323.15	0.841	0.039
333.15	0.858	0.039
343.15	0.874	0.04
353.15	0.891	0.04

System: toluene + 1-butyl-1-methylpyrrolidinium tetracyanoborate; phases: Liquid
Fixed: Pressure, kPa = 101
Fixed: Mole fraction of toluene = 0
Property: Activity coefficient of toluene (Liquid); method: Chromatography
Temperature, K	Activity coefficient of toluene	uncertainty
318.15	1.13	0.05
323.15	1.15	0.05
333.15	1.17	0.05
343.15	1.19	0.05
353.15	1.22	0.06

System: ethylbenzene + 1-butyl-1-methylpyrrolidinium tetracyanoborate; phases: Liquid
Fixed: Pressure, kPa = 101
Fixed: Mole fraction of ethylbenzene = 0
Property: Activity coefficient of ethylbenzene (Liquid); method: Chromatography
Temperature, K	Activity coefficient of ethylbenzene	uncertainty
318.15	1.65	0.08
323.15	1.66	0.08
333.15	1.68	0.08
343.15	1.71	0.09
353.15	1.73	0.09

System: 1,3-dimethylbenzene + 1-butyl-1-methylpyrrolidinium tetracyanoborate; phases: Liquid
Fixed: Pressure, kPa = 101
Fixed: Mole fraction of 1,3-dimethylbenzene = 0
Property: Activity coefficient of 1,3-dimethylbenzene (Liquid); method: Chromatography
Temperature, K	Activity coefficient of 1,3-dimethylbenzene	uncertainty
318.15	1.63	0.08
323.15	1.64	0.08
333.15	1.66	0.08
343.15	1.69	0.08
353.15	1.72	0.09

System: methanol + 1-butyl-1-methylpyrrolidinium tetracyanoborate; phases: Liquid
Fixed: Pressure, kPa = 101
Fixed: Mole fraction of methanol = 0
Property: Activity coefficient of methanol (Liquid); method: Chromatography
Temperature, K	Activity coefficient of methanol	uncertainty
318.15	1.03	0.05
323.15	0.992	0.043
333.15	0.931	0.042
343.15	0.878	0.04
353.15	0.831	0.039

System: ethanol + 1-butyl-1-methylpyrrolidinium tetracyanoborate; phases: Liquid
Fixed: Pressure, kPa = 101
Fixed: Mole fraction of ethanol = 0
Property: Activity coefficient of ethanol (Liquid); method: Chromatography
Temperature, K	Activity coefficient of ethanol	uncertainty
318.15	1.32	0.06
323.15	1.27	0.06
333.15	1.17	0.05
343.15	1.09	0.05
353.15	1.02	0.05

System: propan-1-ol + 1-butyl-1-methylpyrrolidinium tetracyanoborate; phases: Liquid
Fixed: Pressure, kPa = 101
Fixed: Mole fraction of propan-1-ol = 0
Property: Activity coefficient of propan-1-ol (Liquid); method: Chromatography
Temperature, K	Activity coefficient of propan-1-ol	uncertainty
318.15	1.53	0.07
323.15	1.46	0.07
333.15	1.34	0.06
343.15	1.24	0.06
353.15	1.15	0.05

System: propan-2-ol + 1-butyl-1-methylpyrrolidinium tetracyanoborate; phases: Liquid
Fixed: Pressure, kPa = 101
Fixed: Mole fraction of propan-2-ol = 0
Property: Activity coefficient of propan-2-ol (Liquid); method: Chromatography
Temperature, K	Activity coefficient of propan-2-ol	uncertainty
318.15	1.55	0.08
323.15	1.48	0.07
333.15	1.35	0.06
343.15	1.25	0.06
353.15	1.16	0.05

System: 1,2-dimethoxyethane + 1-butyl-1-methylpyrrolidinium tetracyanoborate; phases: Liquid
Fixed: Pressure, kPa = 101
Fixed: Mole fraction of 1,2-dimethoxyethane = 0
Property: Activity coefficient of 1,2-dimethoxyethane (Liquid); method: Chromatography
Temperature, K	Activity coefficient of 1,2-dimethoxyethane	uncertainty
318.15	0.506	0.031
323.15	0.524	0.031
333.15	0.56	0.032
343.15	0.594	0.032
353.15	0.628	0.033

System: diisopropyl ether + 1-butyl-1-methylpyrrolidinium tetracyanoborate; phases: Liquid
Fixed: Pressure, kPa = 101
Fixed: Mole fraction of diisopropyl ether = 0
Property: Activity coefficient of diisopropyl ether (Liquid); method: Chromatography
Temperature, K	Activity coefficient of diisopropyl ether	uncertainty
318.15	5.87	0.3
323.15	5.88	0.3
333.15	5.86	0.3
343.15	5.85	0.3
353.15	5.84	0.3

System: 2-methoxy-2-methylpropane + 1-butyl-1-methylpyrrolidinium tetracyanoborate; phases: Liquid
Fixed: Pressure, kPa = 101
Fixed: Mole fraction of 2-methoxy-2-methylpropane = 0
Property: Activity coefficient of 2-methoxy-2-methylpropane (Liquid); method: Chromatography
Temperature, K	Activity coefficient of 2-methoxy-2-methylpropane	uncertainty
318.15	2.39	0.12
323.15	2.41	0.12
333.15	2.45	0.13
343.15	2.48	0.13
353.15	2.52	0.13

System: tetrahydrofuran + 1-butyl-1-methylpyrrolidinium tetracyanoborate; phases: Liquid
Fixed: Pressure, kPa = 101
Fixed: Mole fraction of tetrahydrofuran = 0
Property: Activity coefficient of tetrahydrofuran (Liquid); method: Chromatography
Temperature, K	Activity coefficient of tetrahydrofuran	uncertainty
318.15	0.622	0.033
323.15	0.632	0.033
333.15	0.65	0.034
343.15	0.667	0.034
353.15	0.683	0.034

System: methyl ethanoate + 1-butyl-1-methylpyrrolidinium tetracyanoborate; phases: Liquid
Fixed: Pressure, kPa = 101
Fixed: Mole fraction of methyl ethanoate = 0
Property: Activity coefficient of methyl ethanoate (Liquid); method: Chromatography
Temperature, K	Activity coefficient of methyl ethanoate	uncertainty
318.15	0.671	0.034
323.15	0.678	0.034
333.15	0.693	0.035
343.15	0.708	0.035
353.15	0.724	0.036

System: ethyl acetate + 1-butyl-1-methylpyrrolidinium tetracyanoborate; phases: Liquid
Fixed: Pressure, kPa = 101
Fixed: Mole fraction of ethyl acetate = 0
Property: Activity coefficient of ethyl acetate (Liquid); method: Chromatography
Temperature, K	Activity coefficient of ethyl acetate	uncertainty
318.15	0.942	0.042
323.15	0.949	0.042
333.15	0.967	0.043
343.15	0.982	0.043
353.15	1	0.04

System: acetone + 1-butyl-1-methylpyrrolidinium tetracyanoborate; phases: Liquid
Fixed: Pressure, kPa = 101
Fixed: Mole fraction of acetone = 0
Property: Activity coefficient of acetone (Liquid); method: Chromatography
Temperature, K	Activity coefficient of acetone	uncertainty
318.15	0.445	0.03
323.15	0.45	0.03
333.15	0.461	0.03
343.15	0.471	0.03
353.15	0.481	0.03

System: butanone + 1-butyl-1-methylpyrrolidinium tetracyanoborate; phases: Liquid
Fixed: Pressure, kPa = 101
Fixed: Mole fraction of butanone = 0
Property: Activity coefficient of butanone (Liquid); method: Chromatography
Temperature, K	Activity coefficient of butanone	uncertainty
318.15	0.546	0.031
323.15	0.551	0.031
333.15	0.564	0.032
343.15	0.575	0.032
353.15	0.588	0.032

System: dimethyl carbonate + 1-butyl-1-methylpyrrolidinium tetracyanoborate; phases: Liquid
Fixed: Pressure, kPa = 101
Fixed: Mole fraction of dimethyl carbonate = 0
Property: Activity coefficient of dimethyl carbonate (Liquid); method: Chromatography
Temperature, K	Activity coefficient of dimethyl carbonate	uncertainty
318.15	0.522	0.031
323.15	0.529	0.031
333.15	0.543	0.031
343.15	0.556	0.032
353.15	0.57	0.032

System: dichloromethane + 1-butyl-1-methylpyrrolidinium tetracyanoborate; phases: Liquid
Fixed: Pressure, kPa = 101
Fixed: Mole fraction of dichloromethane = 0
Property: Activity coefficient of dichloromethane (Liquid); method: Chromatography
Temperature, K	Activity coefficient of dichloromethane	uncertainty
318.15	0.536	0.031
323.15	0.542	0.031
333.15	0.59	0.03
343.15	0.574	0.032
353.15	0.59	0.032

System: trichloromethane + 1-butyl-1-methylpyrrolidinium tetracyanoborate; phases: Liquid
Fixed: Pressure, kPa = 101
Fixed: Mole fraction of trichloromethane = 0
Property: Activity coefficient of trichloromethane (Liquid); method: Chromatography
Temperature, K	Activity coefficient of trichloromethane	uncertainty
318.15	0.609	0.033
323.15	0.623	0.033
333.15	0.654	0.034
343.15	0.683	0.034
353.15	0.711	0.035

System: 1-bromo-1-chloro-2,2,2-trifluoroethane + 1-butyl-1-methylpyrrolidinium tetracyanoborate; phases: Liquid
Fixed: Pressure, kPa = 101
Fixed: Mole fraction of 1-bromo-1-chloro-2,2,2-trifluoroethane = 0
Property: Activity coefficient of 1-bromo-1-chloro-2,2,2-trifluoroethane (Liquid); method: Chromatography
Temperature, K	Activity coefficient of 1-bromo-1-chloro-2,2,2-trifluoroethane	uncertainty
318.15	0.842	0.039
323.15	0.869	0.04
333.15	0.923	0.041
343.15	0.977	0.043
353.15	1.03	0.05

System: tetrachloromethane + 1-butyl-1-methylpyrrolidinium tetracyanoborate; phases: Liquid
Fixed: Pressure, kPa = 101
Fixed: Mole fraction of tetrachloromethane = 0
Property: Activity coefficient of tetrachloromethane (Liquid); method: Chromatography
Temperature, K	Activity coefficient of tetrachloromethane	uncertainty
318.15	2.4	0.12
323.15	2.41	0.12
333.15	2.43	0.12
343.15	2.45	0.13
353.15	2.47	0.13

System: nitromethane + 1-butyl-1-methylpyrrolidinium tetracyanoborate; phases: Liquid
Fixed: Pressure, kPa = 101
Fixed: Mole fraction of nitromethane = 0
Property: Activity coefficient of nitromethane (Liquid); method: Chromatography
Temperature, K	Activity coefficient of nitromethane	uncertainty
318.15	0.427	0.029
323.15	0.427	0.029
333.15	0.429	0.029
343.15	0.431	0.029
353.15	0.433	0.029

System: acetonitrile + 1-butyl-1-methylpyrrolidinium tetracyanoborate; phases: Liquid
Fixed: Pressure, kPa = 101
Fixed: Mole fraction of acetonitrile = 0
Property: Activity coefficient of acetonitrile (Liquid); method: Chromatography
Temperature, K	Activity coefficient of acetonitrile	uncertainty
318.15	0.425	0.029
323.15	0.426	0.029
333.15	0.427	0.029
343.15	0.429	0.029
353.15	0.43	0.029

System: thiophene + 1-butyl-1-methylpyrrolidinium tetracyanoborate; phases: Liquid
Fixed: Pressure, kPa = 101
Fixed: Mole fraction of thiophene = 0
Property: Activity coefficient of thiophene (Liquid); method: Chromatography
Temperature, K	Activity coefficient of thiophene	uncertainty
318.15	0.681	0.034
323.15	0.688	0.035
333.15	0.703	0.035
343.15	0.718	0.035
353.15	0.733	0.036

System: heptane + 1-butyl-1-methylpyrrolidinium bis(oxalato)borate; phases: Liquid
Fixed: Pressure, kPa = 101
Fixed: Mole fraction of heptane = 0
Property: Activity coefficient of heptane (Liquid); method: Chromatography
Temperature, K	Activity coefficient of heptane	uncertainty
333.15	62.9	3.3
343.15	55.4	2.9
353.15	49.5	2.6
363.15	44.7	2.3
373.15	40.8	2.1

System: octane + 1-butyl-1-methylpyrrolidinium bis(oxalato)borate; phases: Liquid
Fixed: Pressure, kPa = 101
Fixed: Mole fraction of octane = 0
Property: Activity coefficient of octane (Liquid); method: Chromatography
Temperature, K	Activity coefficient of octane	uncertainty
333.15	88.8	4.6
343.15	77.7	4
353.15	69.3	3.6
363.15	61.9	3.2
373.15	56.1	2.9

System: oct-1-ene + 1-butyl-1-methylpyrrolidinium bis(oxalato)borate; phases: Liquid
Fixed: Pressure, kPa = 101
Fixed: Mole fraction of oct-1-ene = 0
Property: Activity coefficient of oct-1-ene (Liquid); method: Chromatography
Temperature, K	Activity coefficient of oct-1-ene	uncertainty
333.15	41.4	2.1
343.15	37.5	1.9
353.15	34.3	1.8
363.15	31.5	1.6
373.15	29.3	1.5

System: cyclohexane + 1-butyl-1-methylpyrrolidinium bis(oxalato)borate; phases: Liquid
Fixed: Pressure, kPa = 101
Fixed: Mole fraction of cyclohexane = 0
Property: Activity coefficient of cyclohexane (Liquid); method: Chromatography
Temperature, K	Activity coefficient of cyclohexane	uncertainty
333.15	20.2	1
343.15	17.9	0.9
353.15	16.2	0.8
363.15	14.7	0.8
373.15	13.6	0.7

System: methylcyclohexane + 1-butyl-1-methylpyrrolidinium bis(oxalato)borate; phases: Liquid
Fixed: Pressure, kPa = 101
Fixed: Mole fraction of methylcyclohexane = 0
Property: Activity coefficient of methylcyclohexane (Liquid); method: Chromatography
Temperature, K	Activity coefficient of methylcyclohexane	uncertainty
333.15	30	1.6
343.15	26.5	1.4
353.15	24	1.2
363.15	21.6	1.1
373.15	19.9	1

System: ethylcyclohexane + 1-butyl-1-methylpyrrolidinium bis(oxalato)borate; phases: Liquid
Fixed: Pressure, kPa = 101
Fixed: Mole fraction of ethylcyclohexane = 0
Property: Activity coefficient of ethylcyclohexane (Liquid); method: Chromatography
Temperature, K	Activity coefficient of ethylcyclohexane	uncertainty
333.15	41.8	2.2
343.15	36.9	1.9
353.15	33	1.7
363.15	29.7	1.5
373.15	27	1.4

System: benzene + 1-butyl-1-methylpyrrolidinium bis(oxalato)borate; phases: Liquid
Fixed: Pressure, kPa = 101
Fixed: Mole fraction of benzene = 0
Property: Activity coefficient of benzene (Liquid); method: Chromatography
Temperature, K	Activity coefficient of benzene	uncertainty
333.15	1.65	0.08
343.15	1.63	0.08
353.15	1.61	0.08
363.15	1.6	0.08
373.15	1.59	0.08

System: toluene + 1-butyl-1-methylpyrrolidinium bis(oxalato)borate; phases: Liquid
Fixed: Pressure, kPa = 101
Fixed: Mole fraction of toluene = 0
Property: Activity coefficient of toluene (Liquid); method: Chromatography
Temperature, K	Activity coefficient of toluene	uncertainty
333.15	2.57	0.13
343.15	2.52	0.13
353.15	2.47	0.13
363.15	2.43	0.12
373.15	2.4	0.12

System: ethylbenzene + 1-butyl-1-methylpyrrolidinium bis(oxalato)borate; phases: Liquid
Fixed: Pressure, kPa = 101
Fixed: Mole fraction of ethylbenzene = 0
Property: Activity coefficient of ethylbenzene (Liquid); method: Chromatography
Temperature, K	Activity coefficient of ethylbenzene	uncertainty
333.15	3.97	0.2
343.15	3.85	0.2
353.15	3.74	0.19
363.15	3.65	0.19
373.15	3.56	0.18

System: 1,3-dimethylbenzene + 1-butyl-1-methylpyrrolidinium bis(oxalato)borate; phases: Liquid
Fixed: Pressure, kPa = 101
Fixed: Mole fraction of 1,3-dimethylbenzene = 0
Property: Activity coefficient of 1,3-dimethylbenzene (Liquid); method: Chromatography
Temperature, K	Activity coefficient of 1,3-dimethylbenzene	uncertainty
333.15	3.96	0.2
343.15	3.84	0.2
353.15	3.73	0.19
363.15	3.64	0.19
373.15	3.55	0.18

System: methanol + 1-butyl-1-methylpyrrolidinium bis(oxalato)borate; phases: Liquid
Fixed: Pressure, kPa = 101
Fixed: Mole fraction of methanol = 0
Property: Activity coefficient of methanol (Liquid); method: Chromatography
Temperature, K	Activity coefficient of methanol	uncertainty
333.15	1.27	0.06
343.15	1.19	0.05
353.15	1.11	0.05
363.15	1.05	0.05
373.15	0.99	0.043

System: ethanol + 1-butyl-1-methylpyrrolidinium bis(oxalato)borate; phases: Liquid
Fixed: Pressure, kPa = 101
Fixed: Mole fraction of ethanol = 0
Property: Activity coefficient of ethanol (Liquid); method: Chromatography
Temperature, K	Activity coefficient of ethanol	uncertainty
333.15	1.92	0.1
343.15	1.75	0.09
353.15	1.61	0.08
363.15	1.49	0.07
373.15	1.38	0.07

System: propan-1-ol + 1-butyl-1-methylpyrrolidinium bis(oxalato)borate; phases: Liquid
Fixed: Pressure, kPa = 101
Fixed: Mole fraction of propan-1-ol = 0
Property: Activity coefficient of propan-1-ol (Liquid); method: Chromatography
Temperature, K	Activity coefficient of propan-1-ol	uncertainty
333.15	2.56	0.13
343.15	2.3	0.12
353.15	2.08	0.11
363.15	1.9	0.1
373.15	1.76	0.09

System: propan-2-ol + 1-butyl-1-methylpyrrolidinium bis(oxalato)borate; phases: Liquid
Fixed: Pressure, kPa = 101
Fixed: Mole fraction of propan-2-ol = 0
Property: Activity coefficient of propan-2-ol (Liquid); method: Chromatography
Temperature, K	Activity coefficient of propan-2-ol	uncertainty
333.15	2.66	0.14
343.15	2.38	0.12
353.15	2.16	0.11
363.15	1.98	0.1
373.15	1.83	0.09

System: 1,2-dimethoxyethane + 1-butyl-1-methylpyrrolidinium bis(oxalato)borate; phases: Liquid
Fixed: Pressure, kPa = 101
Fixed: Mole fraction of 1,2-dimethoxyethane = 0
Property: Activity coefficient of 1,2-dimethoxyethane (Liquid); method: Chromatography
Temperature, K	Activity coefficient of 1,2-dimethoxyethane	uncertainty
333.15	1.16	0.05
343.15	1.2	0.06
353.15	1.23	0.06
363.15	1.26	0.06
373.15	1.29	0.06

System: diisopropyl ether + 1-butyl-1-methylpyrrolidinium bis(oxalato)borate; phases: Liquid
Fixed: Pressure, kPa = 101
Fixed: Mole fraction of diisopropyl ether = 0
Property: Activity coefficient of diisopropyl ether (Liquid); method: Chromatography
Temperature, K	Activity coefficient of diisopropyl ether	uncertainty
333.15	18.4	1
343.15	17	0.9
353.15	16	0.8
363.15	15.1	0.8
373.15	14.4	0.7

System: 2-methoxy-2-methylpropane + 1-butyl-1-methylpyrrolidinium bis(oxalato)borate; phases: Liquid
Fixed: Pressure, kPa = 101
Fixed: Mole fraction of 2-methoxy-2-methylpropane = 0
Property: Activity coefficient of 2-methoxy-2-methylpropane (Liquid); method: Chromatography
Temperature, K	Activity coefficient of 2-methoxy-2-methylpropane	uncertainty
333.15	6.34	0.33
343.15	6.06	0.31
353.15	5.87	0.3
363.15	5.7	0.29
373.15	5.57	0.29

System: tetrahydrofuran + 1-butyl-1-methylpyrrolidinium bis(oxalato)borate; phases: Liquid
Fixed: Pressure, kPa = 101
Fixed: Mole fraction of tetrahydrofuran = 0
Property: Activity coefficient of tetrahydrofuran (Liquid); method: Chromatography
Temperature, K	Activity coefficient of tetrahydrofuran	uncertainty
333.15	1.13	0.05
343.15	1.14	0.05
353.15	1.15	0.05
363.15	1.15	0.05
373.15	1.16	0.05

System: methyl ethanoate + 1-butyl-1-methylpyrrolidinium bis(oxalato)borate; phases: Liquid
Fixed: Pressure, kPa = 101
Fixed: Mole fraction of methyl ethanoate = 0
Property: Activity coefficient of methyl ethanoate (Liquid); method: Chromatography
Temperature, K	Activity coefficient of methyl ethanoate	uncertainty
333.15	1.03	0.05
343.15	1.04	0.05
353.15	1.06	0.05
363.15	1.08	0.05
373.15	1.09	0.05

System: ethyl acetate + 1-butyl-1-methylpyrrolidinium bis(oxalato)borate; phases: Liquid
Fixed: Pressure, kPa = 101
Fixed: Mole fraction of ethyl acetate = 0
Property: Activity coefficient of ethyl acetate (Liquid); method: Chromatography
Temperature, K	Activity coefficient of ethyl acetate	uncertainty
333.15	1.75	0.09
343.15	1.74	0.09
353.15	1.74	0.09
363.15	1.73	0.09
373.15	1.73	0.09

System: acetone + 1-butyl-1-methylpyrrolidinium bis(oxalato)borate; phases: Liquid
Fixed: Pressure, kPa = 101
Fixed: Mole fraction of acetone = 0
Property: Activity coefficient of acetone (Liquid); method: Chromatography
Temperature, K	Activity coefficient of acetone	uncertainty
333.15	0.762	0.037
343.15	0.767	0.037
353.15	0.773	0.037
363.15	0.778	0.037
373.15	0.784	0.037

System: butanone + 1-butyl-1-methylpyrrolidinium bis(oxalato)borate; phases: Liquid
Fixed: Pressure, kPa = 101
Fixed: Mole fraction of butanone = 0
Property: Activity coefficient of butanone (Liquid); method: Chromatography
Temperature, K	Activity coefficient of butanone	uncertainty
333.15	1.13	0.05
343.15	1.12	0.05
353.15	1.11	0.05
363.15	1.11	0.05
373.15	1.1	0.05

System: dimethyl carbonate + 1-butyl-1-methylpyrrolidinium bis(oxalato)borate; phases: Liquid
Fixed: Pressure, kPa = 101
Fixed: Mole fraction of dimethyl carbonate = 0
Property: Activity coefficient of dimethyl carbonate (Liquid); method: Chromatography
Temperature, K	Activity coefficient of dimethyl carbonate	uncertainty
333.15	0.853	0.039
343.15	0.861	0.039
353.15	0.87	0.04
363.15	0.877	0.04
373.15	0.884	0.04

System: dichloromethane + 1-butyl-1-methylpyrrolidinium bis(oxalato)borate; phases: Liquid
Fixed: Pressure, kPa = 101
Fixed: Mole fraction of dichloromethane = 0
Property: Activity coefficient of dichloromethane (Liquid); method: Chromatography
Temperature, K	Activity coefficient of dichloromethane	uncertainty
333.15	0.745	0.036
343.15	0.76	0.037
353.15	0.774	0.037
363.15	0.789	0.037
373.15	0.803	0.038

System: trichloromethane + 1-butyl-1-methylpyrrolidinium bis(oxalato)borate; phases: Liquid
Fixed: Pressure, kPa = 101
Fixed: Mole fraction of trichloromethane = 0
Property: Activity coefficient of trichloromethane (Liquid); method: Chromatography
Temperature, K	Activity coefficient of trichloromethane	uncertainty
333.15	1	0.04
343.15	1.03	0.05
353.15	1.06	0.05
363.15	1.08	0.05
373.15	1.11	0.05

System: 1-bromo-1-chloro-2,2,2-trifluoroethane + 1-butyl-1-methylpyrrolidinium bis(oxalato)borate; phases: Liquid
Fixed: Pressure, kPa = 101
Fixed: Mole fraction of 1-bromo-1-chloro-2,2,2-trifluoroethane = 0
Property: Activity coefficient of 1-bromo-1-chloro-2,2,2-trifluoroethane (Liquid); method: Chromatography
Temperature, K	Activity coefficient of 1-bromo-1-chloro-2,2,2-trifluoroethane	uncertainty
333.15	1.61	0.08
343.15	1.66	0.08
353.15	1.72	0.09
363.15	1.77	0.09
373.15	1.82	0.09

System: tetrachloromethane + 1-butyl-1-methylpyrrolidinium bis(oxalato)borate; phases: Liquid
Fixed: Pressure, kPa = 101
Fixed: Mole fraction of tetrachloromethane = 0
Property: Activity coefficient of tetrachloromethane (Liquid); method: Chromatography
Temperature, K	Activity coefficient of tetrachloromethane	uncertainty
333.15	4.23	0.22
343.15	4.14	0.21
353.15	4.07	0.21
363.15	4	0.21
373.15	3.95	0.2

System: nitromethane + 1-butyl-1-methylpyrrolidinium bis(oxalato)borate; phases: Liquid
Fixed: Pressure, kPa = 101
Fixed: Mole fraction of nitromethane = 0
Property: Activity coefficient of nitromethane (Liquid); method: Chromatography
Temperature, K	Activity coefficient of nitromethane	uncertainty
333.15	0.416	0.029
343.15	0.423	0.029
353.15	0.43	0.029
363.15	0.436	0.029
373.15	0.441	0.029

System: acetonitrile + 1-butyl-1-methylpyrrolidinium bis(oxalato)borate; phases: Liquid
Fixed: Pressure, kPa = 101
Fixed: Mole fraction of acetonitrile = 0
Property: Activity coefficient of acetonitrile (Liquid); method: Chromatography
Temperature, K	Activity coefficient of acetonitrile	uncertainty
333.15	0.509	0.031
343.15	0.512	0.031
353.15	0.514	0.031
363.15	0.516	0.031
373.15	0.517	0.031

System: thiophene + 1-butyl-1-methylpyrrolidinium bis(oxalato)borate; phases: Liquid
Fixed: Pressure, kPa = 101
Fixed: Mole fraction of thiophene = 0
Property: Activity coefficient of thiophene (Liquid); method: Chromatography
Temperature, K	Activity coefficient of thiophene	uncertainty
333.15	1.13	0.05
343.15	1.12	0.05
353.15	1.12	0.05
363.15	1.13	0.05
373.15	1.13	0.05
