Measured thermophysical data. Volumetric properties, viscosity and refractive index of the protic ionic liquid, pyrrolidinium octanoate, in molecular solvents
Source: J. Chem. Thermodyn., 2010, 10.1016/j.jct.2010.01.013
Compound 1: pyrrolidinium octanoate, C12H25NO2, InChI=1S/C8H16O2.C4H9N/c1-2-3-4-5-6-7-8(9)10;1-2-4-5-3-1/h2-7H2,1H3,(H,9,10);5H,1-4H2
Compound 2: water, H2O, InChI=1S/H2O/h1H2, purity 99.9%
Compound 3: acetonitrile, C2H3N, InChI=1S/C2H3N/c1-2-3/h1H3
Compound 4: methanol, CH4O, InChI=1S/CH4O/c1-2/h2H,1H3
Compound 5: ethanol, C2H6O, InChI=1S/C2H6O/c1-2-3/h3H,2H2,1H3
Compound 6: butan-1-ol, C4H10O, InChI=1S/C4H10O/c1-2-3-4-5/h5H,2-4H2,1H3

System: pyrrolidinium octanoate; phases: Liquid
Fixed: Pressure, kPa = 101
Property: Mass density, kg/m3 (Liquid); method: Pycnometric method
Temperature, K	Mass density, kg/m3	uncertainty
298.15	945.2	20.5
308.15	938.4	20.5
318.15	933	20.5
328.15	924.9	20.5

System: pyrrolidinium octanoate; phases: Liquid
Property: Refractive index (Na D-line) (Liquid); method: Standard Abbe refractometry
Temperature, K	Pressure, kPa	Refractive index (Na D-line)	uncertainty
298.15	101	1.4581	0.018

System: pyrrolidinium octanoate; phases: Liquid
Fixed: Pressure, kPa = 101
Property: Viscosity, Pa*s (Liquid); method: unknown
Temperature, K	Viscosity, Pa*s	uncertainty
293.15	0.0722	0.01458
298.15	0.06271	0.01266
303.15	0.05021	0.01013
308.15	0.04289	0.00866
313.15	0.03527	0.00712

System: water; phases: Liquid
Property: Refractive index (Na D-line) (Liquid); method: Standard Abbe refractometry
Temperature, K	Pressure, kPa	Refractive index (Na D-line)	uncertainty
298.15	101	1.333	0.018

System: acetonitrile; phases: Liquid
Property: Refractive index (Na D-line) (Liquid); method: Standard Abbe refractometry
Temperature, K	Pressure, kPa	Refractive index (Na D-line)	uncertainty
298.15	101	1.359	0.018

System: methanol; phases: Liquid
Property: Refractive index (Na D-line) (Liquid); method: Standard Abbe refractometry
Temperature, K	Pressure, kPa	Refractive index (Na D-line)	uncertainty
298.15	101	1.329	0.018

System: ethanol; phases: Liquid
Property: Refractive index (Na D-line) (Liquid); method: Standard Abbe refractometry
Temperature, K	Pressure, kPa	Refractive index (Na D-line)	uncertainty
298.15	101	1.359	0.018

System: water + pyrrolidinium octanoate; phases: Liquid
Fixed: Pressure, kPa = 101
Property: Mass density, kg/m3 (Liquid); method: Pycnometric method
Temperature, K	Mole fraction of pyrrolidinium octanoate	Mass density, kg/m3	uncertainty
298.15	0	997.1	20
298.15	0.1002	990	20
298.15	0.2004	980.7	20
298.15	0.3014	971.3	20
298.15	0.4105	963.9	20
298.15	0.4947	958.6	20
298.15	0.5827	955.2	20.1
298.15	0.7022	950.6	20.1
298.15	0.7686	948.6	20.2
298.15	0.8533	947.2	20.3
298.15	1	945.2	20.5
308.15	0	994.1	20
308.15	0.1002	983.7	20
308.15	0.2004	973.9	20
308.15	0.3014	965.3	20
308.15	0.4105	958.2	20
308.15	0.4947	952.8	20
308.15	0.5827	949	20.1
308.15	0.7022	944.2	20.1
308.15	0.7686	942	20.2
308.15	0.8533	940.5	20.3
308.15	1	938.4	20.5
318.15	0	990.2	20
318.15	0.1002	978.3	20
318.15	0.2004	968.1	20
318.15	0.3014	960.6	20
318.15	0.4105	953.4	20
318.15	0.4947	948.5	20
318.15	0.5827	944.1	20.1
318.15	0.7022	939.2	20.1
318.15	0.7686	937.1	20.2
318.15	0.8533	935	20.3
318.15	1	933	20.5
328.15	0	985.7	20
328.15	0.1002	971.9	20
328.15	0.2004	961.3	20
328.15	0.3014	953	20
328.15	0.4105	945.8	20
328.15	0.4947	941	20.1
328.15	0.5827	936.7	20.1
328.15	0.7022	931.6	20.1
328.15	0.7686	929.3	20.2
328.15	0.8533	927.1	20.3
328.15	1	924.9	20.5

System: water + pyrrolidinium octanoate; phases: Liquid
Fixed: Temperature, K = 298.15
Fixed: Pressure, kPa = 101
Property: Refractive index (Na D-line) (Liquid); method: Standard Abbe refractometry
Mole fraction of pyrrolidinium octanoate	Refractive index (Na D-line)	uncertainty
0	1.333	0.018
0.1002	1.4014	0.018
0.2004	1.4346	0.018
0.3014	1.4485	0.018
0.4105	1.4534	0.018
0.4947	1.4555	0.018
0.5827	1.4604	0.018
0.7022	1.4657	0.018
0.7686	1.466	0.018
0.8533	1.4667	0.018
1	1.4581	0.018

System: water + pyrrolidinium octanoate; phases: Liquid
Fixed: Pressure, kPa = 101
Property: Viscosity, Pa*s (Liquid); method: unknown
Temperature, K	Mole fraction of pyrrolidinium octanoate	Viscosity, Pa*s	uncertainty
293.15	0	0.001002	0.000201
293.15	0.1001	0.0191	0.00382
293.15	0.1939	0.0306	0.00613
293.15	0.3059	0.0442	0.00885
293.15	0.3999	0.053	0.01062
293.15	0.5006	0.0587	0.01177
293.15	0.56	0.0613	0.0123
293.15	0.7293	0.0676	0.0136
293.15	0.8443	0.0706	0.01422
293.15	1	0.0722	0.01458
298.15	0	0.00089	0.000179
298.15	0.1001	0.017	0.0034
298.15	0.1939	0.0287	0.00575
298.15	0.3059	0.0387	0.00775
298.15	0.3999	0.0456	0.00914
298.15	0.5006	0.0502	0.01007
298.15	0.56	0.05177	0.01039
298.15	0.7293	0.05723	0.0115
298.15	0.8443	0.06069	0.01222
298.15	1	0.06271	0.01266
303.15	0	0.000797	0.00016
303.15	0.1001	0.01536	0.00308
303.15	0.1939	0.02252	0.00451
303.15	0.3059	0.03246	0.0065
303.15	0.3999	0.03747	0.00751
303.15	0.5006	0.04091	0.00821
303.15	0.56	0.04249	0.00853
303.15	0.7293	0.04605	0.00926
303.15	0.8443	0.04899	0.00987
303.15	1	0.05021	0.01013
308.15	0	0.000718	0.000144
308.15	0.1001	0.0135	0.0027
308.15	0.1939	0.01987	0.00398
308.15	0.3059	0.02864	0.00574
308.15	0.3999	0.03264	0.00654
308.15	0.5006	0.0355	0.00712
308.15	0.56	0.03688	0.0074
308.15	0.7293	0.03952	0.00795
308.15	0.8443	0.04204	0.00847
308.15	1	0.04289	0.00866
313.15	0	0.000651	0.000131
313.15	0.1001	0.01156	0.00232
313.15	0.1939	0.01709	0.00342
313.15	0.3059	0.02455	0.00492
313.15	0.3999	0.02765	0.00555
313.15	0.5006	0.02982	0.00598
313.15	0.56	0.03062	0.00615
313.15	0.7293	0.03272	0.00658
313.15	0.8443	0.03471	0.00699
313.15	1	0.03527	0.00712

System: acetonitrile + pyrrolidinium octanoate; phases: Liquid
Fixed: Pressure, kPa = 101
Property: Mass density, kg/m3 (Liquid); method: Pycnometric method
Temperature, K	Mole fraction of pyrrolidinium octanoate	Mass density, kg/m3	uncertainty
298.15	0	771.5	20
298.15	0.1608	853.4	20
298.15	0.2217	871.9	20
298.15	0.2825	886.7	20
298.15	0.4008	906.8	20
298.15	0.4839	916.5	20.1
298.15	0.6044	926.7	20.1
298.15	0.6918	932.1	20.2
298.15	0.7814	936.6	20.2
298.15	0.8331	938.8	20.3
298.15	0.9055	941.5	20.4
298.15	1	945.2	20.5
308.15	0	760	20
308.15	0.1608	841	20
308.15	0.2217	859.3	20
308.15	0.2825	874.4	20
308.15	0.4008	896.3	20.1
308.15	0.4839	907.1	20.1
308.15	0.6044	918.6	20.1
308.15	0.6918	924.2	20.2
308.15	0.7814	929.1	20.2
308.15	0.8331	931.5	20.3
308.15	0.9055	934.3	20.4
308.15	1	938.4	20.5
318.15	0	745	20
318.15	0.1608	826	20
318.15	0.2217	845.8	20
318.15	0.2825	862.2	20
318.15	0.4008	885.7	20.1
318.15	0.4839	897.8	20.1
318.15	0.6044	910.5	20.1
318.15	0.6918	917	20.2
318.15	0.7814	922.4	20.2
318.15	0.8331	925.1	20.3
318.15	0.9055	928.5	20.4
318.15	1	933	20.5
328.15	0	730	20
328.15	0.1608	811	20.1
328.15	0.2217	831	20
328.15	0.2825	847.5	20.1
328.15	0.4008	872.6	20.1
328.15	0.4839	885.5	20.1
328.15	0.6044	900.2	20.1
328.15	0.6918	907.6	20.2
328.15	0.7814	913.5	20.2
328.15	0.8331	916.4	20.3
328.15	0.9055	920.1	20.4
328.15	1	924.9	20.5

System: acetonitrile + pyrrolidinium octanoate; phases: Liquid
Fixed: Temperature, K = 298.15
Fixed: Pressure, kPa = 101
Property: Refractive index (Na D-line) (Liquid); method: Standard Abbe refractometry
Mole fraction of pyrrolidinium octanoate	Refractive index (Na D-line)	uncertainty
0	1.359	0.018
0.1608	1.4095	0.018
0.2217	1.4184	0.018
0.2825	1.4266	0.018
0.4008	1.4363	0.018
0.4839	1.4415	0.018
0.6044	1.4466	0.018
0.6918	1.4502	0.018
0.7814	1.4545	0.018
0.8331	1.456	0.018
0.9055	1.4581	0.018
1	1.4581	0.018

System: acetonitrile + pyrrolidinium octanoate; phases: Liquid
Fixed: Pressure, kPa = 101
Property: Viscosity, Pa*s (Liquid); method: unknown
Temperature, K	Mole fraction of pyrrolidinium octanoate	Viscosity, Pa*s	uncertainty
293.15	0	0.00035	7.1e-05
293.15	0.1601	0.00542	0.00109
293.15	0.2228	0.00671	0.00134
293.15	0.2843	0.00722	0.00145
293.15	0.3982	0.01137	0.00228
293.15	0.4849	0.01354	0.00272
293.15	0.609	0.01824	0.00367
293.15	0.6946	0.02441	0.00491
293.15	0.7891	0.0336	0.00676
293.15	0.9081	0.05193	0.01046
293.15	1	0.0722	0.01458
298.15	0	0.000333	6.7e-05
298.15	0.1601	0.00461	0.00092
298.15	0.2228	0.00642	0.00129
298.15	0.2843	0.0079	0.00158
298.15	0.3982	0.00998	0.002
298.15	0.4849	0.01208	0.00243
298.15	0.609	0.01632	0.00328
298.15	0.6946	0.02217	0.00446
298.15	0.7891	0.0305	0.00614
298.15	0.9081	0.04473	0.00902
298.15	1	0.06271	0.01266
303.15	0	0.000325	6.6e-05
303.15	0.1601	0.00337	0.00068
303.15	0.2228	0.00358	0.00072
303.15	0.2843	0.00531	0.00107
303.15	0.3982	0.00814	0.00163
303.15	0.4849	0.00996	0.002
303.15	0.609	0.01401	0.00282
303.15	0.6946	0.01735	0.00349
303.15	0.7891	0.02421	0.00487
303.15	0.9081	0.03595	0.00725
303.15	1	0.05021	0.01013
308.15	0	0.000292	5.9e-05
308.15	0.1601	0.00241	0.00048
308.15	0.2228	0.00339	0.00068
308.15	0.2843	0.00502	0.00101
308.15	0.3982	0.00788	0.00158
308.15	0.4849	0.00948	0.0019
308.15	0.609	0.01307	0.00263
308.15	0.6946	0.01579	0.00317
308.15	0.7891	0.02195	0.00442
308.15	0.9081	0.03054	0.00616
308.15	1	0.04289	0.00866
313.15	0	0.000279	5.7e-05
313.15	0.1601	0.00192	0.00039
313.15	0.2228	0.00299	0.0006
313.15	0.2843	0.00435	0.00087
313.15	0.3982	0.00659	0.00132
313.15	0.4849	0.00846	0.0017
313.15	0.609	0.0107	0.00215
313.15	0.6946	0.0142	0.00286
313.15	0.7891	0.01822	0.00367
313.15	0.9081	0.02569	0.00518
313.15	1	0.03527	0.00712

System: methanol + pyrrolidinium octanoate; phases: Liquid
Fixed: Pressure, kPa = 101
Property: Mass density, kg/m3 (Liquid); method: Pycnometric method
Temperature, K	Mole fraction of pyrrolidinium octanoate	Mass density, kg/m3	uncertainty
298.15	0	780	20
298.15	0.1018	851	20
298.15	0.2011	885.6	20
298.15	0.302	907.2	20
298.15	0.3851	918.5	20
298.15	0.5147	930.5	20.1
298.15	0.5969	935.7	20.1
298.15	0.7034	940.6	20.2
298.15	0.7902	943.4	20.3
298.15	0.8707	944.9	20.3
298.15	1	945.2	20.5
308.15	0	769.6	20
308.15	0.1018	841.9	20
308.15	0.2011	877.7	20
308.15	0.302	899.6	20
308.15	0.3851	911.3	20
308.15	0.5147	923.4	20.1
308.15	0.5969	928.8	20.1
308.15	0.7034	933.8	20.2
308.15	0.7902	936.4	20.3
308.15	0.8707	938.4	20.3
308.15	1	938.4	20.5
318.15	0	764	20
318.15	0.1018	836.8	20
318.15	0.2011	872.9	20
318.15	0.302	894.7	20
318.15	0.3851	906.2	20
318.15	0.5147	918.6	20.1
318.15	0.5969	923.8	20.1
318.15	0.7034	928.8	20.2
318.15	0.7902	931.3	20.2
318.15	0.8707	932.8	20.3
318.15	1	933	20.5
328.15	0	755.1	20
328.15	0.1018	828.3	20.1
328.15	0.2011	865	20
328.15	0.302	886.9	20
328.15	0.3851	898.8	20
328.15	0.5147	910.9	20.1
328.15	0.5969	916.1	20.1
328.15	0.7034	921.1	20.2
328.15	0.7902	923.7	20.2
328.15	0.8707	924.3	20.3
328.15	1	924.9	20.5

System: methanol + pyrrolidinium octanoate; phases: Liquid
Fixed: Temperature, K = 298.15
Fixed: Pressure, kPa = 101
Property: Refractive index (Na D-line) (Liquid); method: Standard Abbe refractometry
Mole fraction of pyrrolidinium octanoate	Refractive index (Na D-line)	uncertainty
0	1.329	0.018
0.1018	1.3844	0.018
0.2011	1.416	0.018
0.302	1.4275	0.018
0.3851	1.4344	0.018
0.5147	1.4377	0.018
0.5969	1.444	0.018
0.7034	1.4488	0.018
0.7902	1.455	0.018
0.8707	1.4565	0.018
1	1.4581	0.018

System: methanol + pyrrolidinium octanoate; phases: Liquid
Fixed: Pressure, kPa = 101
Property: Viscosity, Pa*s (Liquid); method: unknown
Temperature, K	Mole fraction of pyrrolidinium octanoate	Viscosity, Pa*s	uncertainty
293.15	0	0.000585	0.000118
293.15	0.1021	0.00458	0.00092
293.15	0.2025	0.0074	0.00148
293.15	0.3023	0.01073	0.00215
293.15	0.3896	0.01446	0.0029
293.15	0.5185	0.0226	0.00454
293.15	0.5972	0.028	0.00563
293.15	0.7086	0.03868	0.00778
293.15	0.7895	0.04737	0.00954
293.15	0.844	0.0552	0.01111
293.15	1	0.0722	0.01458
298.15	0	0.000544	0.000109
298.15	0.1021	0.0036	0.00072
298.15	0.2025	0.00653	0.00131
298.15	0.3023	0.01037	0.00208
298.15	0.3896	0.0131	0.00263
298.15	0.5185	0.01944	0.0039
298.15	0.5972	0.02457	0.00494
298.15	0.7086	0.03384	0.00681
298.15	0.7895	0.04118	0.00829
298.15	0.844	0.04818	0.00971
298.15	1	0.06271	0.01266
303.15	0	0.000507	0.000102
303.15	0.1021	0.0036	0.00072
303.15	0.2025	0.006	0.0012
303.15	0.3023	0.0089	0.00178
303.15	0.3896	0.01082	0.00217
303.15	0.5185	0.01584	0.00318
303.15	0.5972	0.0209	0.0042
303.15	0.7086	0.02767	0.00557
303.15	0.7895	0.03445	0.00694
303.15	0.844	0.0386	0.00778
303.15	1	0.05021	0.01013
308.15	0	0.000473	9.5e-05
308.15	0.1021	0.00408	0.00082
308.15	0.2025	0.00569	0.00114
308.15	0.3023	0.00864	0.00173
308.15	0.3896	0.01007	0.00202
308.15	0.5185	0.01533	0.00308
308.15	0.5972	0.01902	0.00382
308.15	0.7086	0.02421	0.00487
308.15	0.7895	0.02956	0.00595
308.15	0.844	0.03363	0.00677
308.15	1	0.04289	0.00866
313.15	0	0.000443	8.9e-05
313.15	0.1021	0.004	0.0008
313.15	0.2025	0.0054	0.00108
313.15	0.3023	0.00717	0.00144
313.15	0.3896	0.00915	0.00184
313.15	0.5185	0.01326	0.00266
313.15	0.5972	0.01569	0.00315
313.15	0.7086	0.02137	0.0043
313.15	0.7895	0.02539	0.00511
313.15	0.844	0.02841	0.00572
313.15	1	0.03527	0.00712

System: ethanol + pyrrolidinium octanoate; phases: Liquid
Fixed: Pressure, kPa = 101
Property: Mass density, kg/m3 (Liquid); method: Pycnometric method
Temperature, K	Mole fraction of pyrrolidinium octanoate	Mass density, kg/m3	uncertainty
298.15	0	790	20
298.15	0.1629	851.3	20
298.15	0.304	885.5	20
298.15	0.4282	906.9	20
298.15	0.5029	916.6	20.1
298.15	0.5882	925.4	20.1
298.15	0.6667	931.7	20.2
298.15	0.7345	935.8	20.2
298.15	0.8389	940.4	20.3
298.15	0.9156	942.8	20.4
298.15	1	945.2	20.5
308.15	0	776.7	20
308.15	0.1629	842	20
308.15	0.304	876.8	20
308.15	0.4282	899	20.1
308.15	0.5029	909.1	20.1
308.15	0.5882	918.5	20.1
308.15	0.6667	925.1	20.2
308.15	0.7345	929.6	20.2
308.15	0.8389	934.3	20.3
308.15	0.9156	936.5	20.4
308.15	1	938.4	20.5
318.15	0	765	20
318.15	0.1629	833.4	20
318.15	0.304	869.7	20
318.15	0.4282	891.9	20.1
318.15	0.5029	902.6	20.1
318.15	0.5882	912.2	20.1
318.15	0.6667	919	20.2
318.15	0.7345	923.8	20.2
318.15	0.8389	929.1	20.3
318.15	0.9156	931.9	20.4
318.15	1	933	20.5
328.15	0	757.9	20
328.15	0.1629	826.8	20
328.15	0.304	862.9	20
328.15	0.4282	884.6	20.1
328.15	0.5029	894.8	20.1
328.15	0.5882	904.4	20.1
328.15	0.6667	911.3	20.2
328.15	0.7345	916.1	20.2
328.15	0.8389	921.8	20.3
328.15	0.9156	924.3	20.4
328.15	1	924.9	20.5

System: ethanol + pyrrolidinium octanoate; phases: Liquid
Fixed: Temperature, K = 298.15
Fixed: Pressure, kPa = 101
Property: Refractive index (Na D-line) (Liquid); method: Standard Abbe refractometry
Mole fraction of pyrrolidinium octanoate	Refractive index (Na D-line)	uncertainty
0	1.359	0.018
0.1629	1.4045	0.018
0.304	1.4235	0.018
0.4282	1.4321	0.018
0.5029	1.4356	0.018
0.5882	1.4402	0.018
0.6667	1.443	0.018
0.7345	1.4442	0.018
0.8389	1.4515	0.018
0.9156	1.4551	0.018
1	1.4581	0.018

System: ethanol + pyrrolidinium octanoate; phases: Liquid
Fixed: Pressure, kPa = 101
Property: Viscosity, Pa*s (Liquid); method: unknown
Temperature, K	Mole fraction of pyrrolidinium octanoate	Viscosity, Pa*s	uncertainty
293.15	0	0.00121	0.000243
293.15	0.1638	0.0037	0.00074
293.15	0.3038	0.0082	0.00165
293.15	0.4308	0.014	0.00281
293.15	0.5046	0.01706	0.00342
293.15	0.5837	0.0231	0.00464
293.15	0.7453	0.0366	0.00736
293.15	0.838	0.0473	0.00952
293.15	0.9223	0.0582	0.01173
293.15	1	0.0722	0.01458
298.15	0	0.0011	0.000221
298.15	0.1638	0.00385	0.00077
298.15	0.3038	0.00702	0.00141
298.15	0.4308	0.01299	0.00261
298.15	0.5046	0.0163	0.00327
298.15	0.5837	0.0213	0.00428
298.15	0.7453	0.03408	0.00686
298.15	0.838	0.04423	0.00891
298.15	0.9223	0.0524	0.01056
298.15	1	0.06271	0.01266
303.15	0	0.001	0.000201
303.15	0.1638	0.003	0.0006
303.15	0.3038	0.0057	0.00114
303.15	0.4308	0.0105	0.00211
303.15	0.5046	0.01339	0.00269
303.15	0.5837	0.0176	0.00354
303.15	0.7453	0.02914	0.00586
303.15	0.838	0.0363	0.00731
303.15	0.9223	0.0427	0.00861
303.15	1	0.05021	0.01013
308.15	0	0.00091	0.000183
308.15	0.1638	0.0029	0.00058
308.15	0.3038	0.0073	0.00146
308.15	0.4308	0.01121	0.00225
308.15	0.5046	0.0145	0.00291
308.15	0.5837	0.0181	0.00364
308.15	0.7453	0.0254	0.00511
308.15	0.838	0.0313	0.0063
308.15	0.9223	0.0364	0.00734
308.15	1	0.04289	0.00866
313.15	0	0.00083	0.000167
313.15	0.1638	0.0027	0.00054
313.15	0.3038	0.0068	0.00136
313.15	0.4308	0.0098	0.00197
313.15	0.5046	0.01179	0.00237
313.15	0.5837	0.015	0.00301
313.15	0.7453	0.022	0.00443
313.15	0.838	0.0268	0.0054
313.15	0.9223	0.0303	0.00611
313.15	1	0.03527	0.00712

System: butan-1-ol + pyrrolidinium octanoate; phases: Liquid
Fixed: Temperature, K = 298.15
Fixed: Pressure, kPa = 101
Property: Mass density, kg/m3 (Liquid); method: Pycnometric method
Mole fraction of pyrrolidinium octanoate	Mass density, kg/m3	uncertainty
0	826.1	20
0.1203	843.3	20
0.1753	854.5	20
0.2568	872.3	20
0.331	888.1	20
0.4768	918.8	20.1
0.6272	943.1	20.1
0.7194	951.9	20.2
0.7988	956.7	20.3
0.8683	955.8	20.4
0.9497	952.9	20.5
1	945.2	20.5

System: butan-1-ol + pyrrolidinium octanoate; phases: Liquid
Fixed: Pressure, kPa = 101
Property: Viscosity, Pa*s (Liquid); method: unknown
Temperature, K	Mole fraction of pyrrolidinium octanoate	Viscosity, Pa*s	uncertainty
293.15	0	0.002924	0.000586
293.15	0.1198	0.00539	0.00108
293.15	0.2524	0.01082	0.00217
293.15	0.3299	0.01321	0.00265
293.15	0.4745	0.02251	0.00452
293.15	0.6187	0.03414	0.00686
293.15	0.7174	0.04435	0.00892
293.15	0.7912	0.05193	0.01045
293.15	0.9269	0.06575	0.01326
293.15	1	0.0722	0.01458
298.15	0	0.00256	0.000513
298.15	0.1198	0.0069	0.00138
298.15	0.2524	0.01082	0.00217
298.15	0.3299	0.014	0.00281
298.15	0.4745	0.0216	0.00434
298.15	0.6187	0.03039	0.00611
298.15	0.7174	0.03892	0.00783
298.15	0.7912	0.04489	0.00904
298.15	0.9269	0.05702	0.01149
298.15	1	0.06271	0.01266
303.15	0	0.002252	0.000451
303.15	0.1198	0.00475	0.00095
303.15	0.2524	0.00864	0.00173
303.15	0.3299	0.01115	0.00224
303.15	0.4745	0.017	0.00341
303.15	0.6187	0.0248	0.00499
303.15	0.7174	0.03123	0.00628
303.15	0.7912	0.03544	0.00714
303.15	0.9269	0.0454	0.00916
303.15	1	0.05021	0.01013
308.15	0	0.001991	0.000399
308.15	0.1198	0.00432	0.00087
308.15	0.2524	0.00779	0.00156
308.15	0.3299	0.01003	0.00201
308.15	0.4745	0.01495	0.003
308.15	0.6187	0.02143	0.00431
308.15	0.7174	0.02663	0.00536
308.15	0.7912	0.02997	0.00603
308.15	0.9269	0.03873	0.00781
308.15	1	0.04289	0.00866
313.15	0	0.001768	0.000354
313.15	0.1198	0.0036	0.00072
313.15	0.2524	0.0066	0.00132
313.15	0.3299	0.0085	0.00171
313.15	0.4745	0.013	0.00261
313.15	0.6187	0.0178	0.00358
313.15	0.7174	0.0215	0.00433
313.15	0.7912	0.0253	0.00509
313.15	0.9269	0.0317	0.00639
313.15	1	0.03527	0.00712
