Measured thermophysical data. Liquid viscosities for methyl hexanoate, methyl heptanoate, methyl caprylate, and methyl nonanoate at high pressures
Source: J. Chem. Thermodyn., 2019, 10.1016/j.jct.2019.02.026
Compound 1: methyl hexanoate, C7H14O2, InChI=1S/C7H14O2/c1-3-4-5-6-7(8)9-2/h3-6H2,1-2H3, purity 99%
Compound 2: methyl heptanoate, C8H16O2, InChI=1S/C8H16O2/c1-3-4-5-6-7-8(9)10-2/h3-7H2,1-2H3, purity 99%
Compound 3: methyl octanoate, C9H18O2, InChI=1S/C9H18O2/c1-3-4-5-6-7-8-9(10)11-2/h3-8H2,1-2H3, purity 99%
Compound 4: methyl nonanoate, C10H20O2, InChI=1S/C10H20O2/c1-3-4-5-6-7-8-9-10(11)12-2/h3-9H2,1-2H3, purity 99%
Compound 5: methyl dodecanoate, C13H26O2, InChI=1S/C13H26O2/c1-3-4-5-6-7-8-9-10-11-12-13(14)15-2/h3-12H2,1-2H3, purity 99%

System: methyl hexanoate; phases: Liquid
Property: Viscosity, Pa*s (Liquid); method: Falling or rolling sphere viscometry
Temperature, K	Pressure, kPa	Viscosity, Pa*s	uncertainty
294.86	105	0.00087	3e-05
294.75	5079	0.00092	3e-05
294.63	9980	0.00096	3e-05
294.34	15024	0.00101	3e-05
293.98	19999	0.00106	3e-05
293.48	25055	0.00111	4e-05
292.99	29973	0.00116	4e-05
303.12	107	0.00077	2e-05
303.09	5026	0.00081	3e-05
303.05	10031	0.00086	3e-05
303.01	15014	0.00089	3e-05
302.98	19967	0.00093	3e-05
302.89	24988	0.00097	3e-05
302.79	29963	0.00101	3e-05
312.74	103	0.00068	2e-05
312.7	4988	0.00071	2e-05
312.71	10033	0.00075	2e-05
312.69	15010	0.00078	2e-05
312.69	20046	0.00082	3e-05
312.62	24986	0.00085	3e-05
312.57	29951	0.00089	3e-05
322.29	98	0.00061	2e-05
322.29	5048	0.00064	2e-05
322.08	9972	0.00067	2e-05
322.32	15008	0.0007	2e-05
322.12	19979	0.00074	2e-05
322.14	24972	0.00077	2e-05
321.96	29975	0.0008	3e-05
331.89	9984	0.0006	2e-05
331.83	14994	0.00063	2e-05
331.93	20001	0.00066	2e-05
331.8	25008	0.00069	2e-05
331.74	30010	0.00072	2e-05
341.39	20015	0.00059	2e-05
341.41	25042	0.00062	2e-05
341.38	29965	0.00064	2e-05

System: methyl heptanoate; phases: Liquid
Property: Viscosity, Pa*s (Liquid); method: Falling or rolling sphere viscometry
Temperature, K	Pressure, kPa	Viscosity, Pa*s	uncertainty
294.2	107	0.00111	4e-05
294.13	4967	0.00117	4e-05
293.85	9970	0.00122	4e-05
293.58	14994	0.00128	4e-05
292.87	19994	0.00135	4e-05
292.56	25040	0.00142	4e-05
292.04	30028	0.0015	5e-05
303.15	102	0.00095	3e-05
303.12	5011	0.001	3e-05
303.08	10026	0.00105	3e-05
303.05	14993	0.0011	3e-05
303.02	19985	0.00115	4e-05
302.93	25017	0.0012	4e-05
302.83	29961	0.00124	4e-05
312.77	103	0.00083	3e-05
312.78	5010	0.00088	3e-05
312.65	10009	0.00092	3e-05
312.66	15001	0.00097	3e-05
312.62	20047	0.00101	3e-05
312.57	25001	0.00105	3e-05
312.49	29986	0.00109	3e-05
322.33	96	0.00073	2e-05
322.26	5004	0.00077	2e-05
322.23	10018	0.00081	3e-05
322.21	15004	0.00085	3e-05
322.17	19955	0.00089	3e-05
322.23	25027	0.00093	3e-05
322.09	29925	0.00097	3e-05
331.85	99	0.00065	2e-05
331.78	5007	0.00069	2e-05
331.78	9972	0.00072	2e-05
331.74	15035	0.00076	2e-05
331.67	19865	0.0008	3e-05
331.68	25041	0.00083	3e-05
331.56	30001	0.00087	3e-05
341.67	96	0.00058	2e-05
341.72	5062	0.00062	2e-05
341.68	10141	0.00065	2e-05
341.48	14961	0.00069	2e-05
341.81	20048	0.00072	2e-05
341.8	25032	0.00075	2e-05
341.73	29980	0.00078	2e-05
351.27	10077	0.00058	2e-05
351.26	14966	0.00061	2e-05
351.31	19977	0.00064	2e-05
351.49	24997	0.00067	2e-05
351.46	30010	0.0007	2e-05
361.37	20002	0.00058	2e-05
361.47	25022	0.00061	2e-05
361.24	29993	0.00064	2e-05

System: methyl octanoate; phases: Liquid
Property: Viscosity, Pa*s (Liquid); method: Falling or rolling sphere viscometry
Temperature, K	Pressure, kPa	Viscosity, Pa*s	uncertainty
295.62	102	0.00137	4e-05
295.48	5004	0.00143	5e-05
295.3	10017	0.0015	5e-05
295.22	14978	0.00158	5e-05
295.08	19995	0.00165	5e-05
294.79	25004	0.00173	5e-05
294.65	30063	0.00181	6e-05
303.16	98	0.00121	4e-05
303.13	5014	0.00127	4e-05
303.14	9987	0.00133	4e-05
303.13	15018	0.00139	4e-05
303.11	20009	0.00146	5e-05
303.1	25013	0.00152	5e-05
303.06	29942	0.00158	5e-05
312.51	101	0.00105	3e-05
312.49	5022	0.0011	3e-05
312.44	10045	0.00115	4e-05
312.47	15056	0.00121	4e-05
312.44	20035	0.00127	4e-05
312.4	25014	0.00132	4e-05
312.35	29980	0.00137	4e-05
322.09	103	0.00092	3e-05
322.02	5045	0.00097	3e-05
321.97	9991	0.00101	3e-05
322.11	14992	0.00106	3e-05
322.06	20031	0.00111	4e-05
321.89	25073	0.00116	4e-05
321.71	29998	0.00121	4e-05
331.87	108	0.00082	3e-05
331.62	5013	0.00086	3e-05
331.73	10033	0.00091	3e-05
331.72	15022	0.00095	3e-05
331.61	20038	0.001	3e-05
331.6	25035	0.00104	3e-05
331.51	29993	0.00108	3e-05
341.66	97	0.00072	2e-05
341.63	4984	0.00076	2e-05
341.64	10011	0.0008	3e-05
341.61	15013	0.00084	3e-05
341.62	20045	0.00088	3e-05
341.56	25026	0.00092	3e-05
341.44	29966	0.00096	3e-05
351.58	103	0.00064	2e-05
351.6	4996	0.00068	2e-05
351.64	10072	0.00072	2e-05
351.65	15006	0.00075	2e-05
351.7	19996	0.00079	3e-05
351.78	25021	0.00083	3e-05
351.62	29959	0.00087	3e-05
361.45	103	0.00058	2e-05
361.23	4990	0.00061	2e-05
361.2	9990	0.00064	2e-05
361.44	15037	0.00068	2e-05
361.41	19980	0.00072	2e-05
361.59	25011	0.00074	2e-05
361.74	29991	0.00078	2e-05

System: methyl nonanoate; phases: Liquid
Property: Viscosity, Pa*s (Liquid); method: Falling or rolling sphere viscometry
Temperature, K	Pressure, kPa	Viscosity, Pa*s	uncertainty
299.19	103	0.00156	5e-05
298.77	4957	0.00165	5e-05
298.42	9955	0.00173	5e-05
298.08	14977	0.00183	6e-05
297.81	20011	0.00193	6e-05
297.5	24979	0.00201	6e-05
297.15	30034	0.00211	7e-05
303.1	106	0.00146	5e-05
303.08	4961	0.00154	5e-05
303.01	9972	0.00162	5e-05
303.09	15047	0.00168	5e-05
303.09	19964	0.00176	6e-05
302.91	24994	0.00183	6e-05
302.95	30000	0.00191	6e-05
312.38	99	0.00126	4e-05
312.32	4993	0.00132	4e-05
312.28	9996	0.00138	4e-05
312.28	14963	0.00143	5e-05
312.27	19968	0.0015	5e-05
312.19	25005	0.00157	5e-05
312.06	29961	0.00165	5e-05
321.64	96	0.00108	3e-05
321.6	4982	0.00114	4e-05
321.56	10020	0.0012	4e-05
321.61	15017	0.00125	4e-05
321.49	19988	0.00131	4e-05
321.36	24985	0.00136	4e-05
321.26	29949	0.00142	4e-05
331.26	108	0.00094	3e-05
331.23	5027	0.00099	3e-05
331.13	9979	0.00104	3e-05
331.2	14998	0.00109	3e-05
330.94	19996	0.00114	4e-05
331.13	25032	0.00119	4e-05
330.93	30013	0.00124	4e-05
341.21	96	0.00081	3e-05
341.03	4962	0.00086	3e-05
341.06	10010	0.00091	3e-05
341.14	15019	0.00094	3e-05
340.91	19959	0.00099	3e-05
340.95	25015	0.00104	3e-05
340.96	30009	0.00108	3e-05
351.04	101	0.00071	2e-05
350.95	4985	0.00075	2e-05
350.88	9984	0.00079	3e-05
350.81	14959	0.00083	3e-05
350.86	20020	0.00087	3e-05
350.74	24964	0.00092	3e-05
350.73	29961	0.00096	3e-05
360.96	98	0.00062	2e-05
360.86	4959	0.00066	2e-05
360.82	9960	0.0007	2e-05
360.89	14997	0.00074	2e-05
360.71	19982	0.00077	2e-05
360.61	25005	0.00082	3e-05
360.67	29996	0.00085	3e-05

System: methyl dodecanoate; phases: Liquid
Property: Viscosity, Pa*s (Liquid); method: Falling or rolling sphere viscometry
Temperature, K	Pressure, kPa	Viscosity, Pa*s	uncertainty
303.04	110	0.00253	8e-05
303.04	10512	0.00285	9e-05
302.94	20178	0.00315	0.0001
302.7	30290	0.0036	0.00011
312.63	134	0.00209	7e-05
312.61	10214	0.00233	7e-05
312.5	20279	0.00259	8e-05
312.33	30212	0.00287	9e-05
331.66	132	0.00151	5e-05
331.51	10354	0.00167	5e-05
331.34	20420	0.00186	6e-05
331.07	29762	0.00204	6e-05
351.81	235	0.00114	4e-05
351.74	10090	0.00125	4e-05
351.57	20226	0.00137	4e-05
351.24	29906	0.00153	5e-05
362.23	2921	0.00105	3e-05
361.75	10141	0.00112	4e-05
361.6	19931	0.00125	4e-05
361.57	30100	0.00135	4e-05
