Measured thermophysical data. Speed of sound, density and derivative properties of binary mixtures HFE-7500 + Diisopropyl ether under high pressure
Source: J. Chem. Thermodyn., 2019, 10.1016/j.jct.2018.08.005
Compound 1: 2-trifluoromethyl-3-ethoxydodecafluorohexane, C9H5F15O, InChI=1S/C9H5F15O/c1-2-25-6(15,3(10,7(16,17)18)8(19,20)21)4(11,12)5(13,14)9(22,23)24/h2H2,1H3, purity 99.5%
Compound 2: diisopropyl ether, C6H14O, InChI=1S/C6H14O/c1-5(2)7-6(3)4/h5-6H,1-4H3, purity 99.5%

System: 2-trifluoromethyl-3-ethoxydodecafluorohexane; phases: Liquid
Fixed: Pressure, kPa = 100
Property: Molar heat capacity at constant pressure, J/K/mol (Liquid); method: DSC
Temperature, K	Molar heat capacity at constant pressure, J/K/mol	uncertainty
297.91	466.289490448	26.503132672
307.79	472.915273616	26.91724412
317.66	479.541056784	27.331355568
327.54	486.5809514	27.745467016
337.42	494.034957464	28.159578464
347.29	500.660740632	28.573689912
357.17	508.528858144	28.98780136
367.05	517.225198552	29.401912808
376.92	523.85098172	29.816024256
386.8	531.719099232	30.230135704

System: diisopropyl ether; phases: Liquid
Fixed: Pressure, kPa = 100
Property: Molar heat capacity at constant pressure, J/K/mol (Liquid); method: DSC
Temperature, K	Molar heat capacity at constant pressure, J/K/mol	uncertainty
290.5	211.5017532	12.05662168
295.44	213.44307364	12.2609712
300.38	215.28221932	12.36314596
305.32	217.32571452	12.46532072
310.26	219.36920972	12.56749548
315.2	221.41270492	12.66967024
320.13	223.45620012	12.771845
325.07	225.49969532	12.87401976
330.01	227.64536528	13.07836928
334.95	229.89321	13.18054404
339.89	232.03887996	13.2827188

System: 2-trifluoromethyl-3-ethoxydodecafluorohexane + diisopropyl ether; phases: Liquid
Fixed: Frequency, MHz = 3
Property: Speed of sound, m/s (Liquid); method: Pulse-echo method
Mole fraction of 2-trifluoromethyl-3-ethoxydodecafluorohexane	Temperature, K	Pressure, kPa	Speed of sound, m/s	uncertainty
0.25	293.15	100	802	2.3
0.25	293.15	20000	930.1	2.2
0.25	293.15	40000	1029.9	2.2
0.25	293.15	60000	1113.8	2.2
0.25	293.15	80000	1187.2	2.2
0.25	293.15	100000	1254	2.2
0.375	293.15	100	756.1	2.2
0.375	293.15	20000	879	2.2
0.375	293.15	40000	975.3	2.2
0.375	293.15	60000	1056.9	2.2
0.375	293.15	80000	1127.9	2.2
0.375	293.15	100000	1190.8	2.2
0.5	293.15	100	719.2	2.2
0.5	293.15	20000	839	2.2
0.5	293.15	40000	933	2.2
0.5	293.15	60000	1012.2	2.2
0.5	293.15	80000	1081.1	2.2
0.5	293.15	100000	1143	2.2
0.625	293.15	100	701.5	2.2
0.625	293.15	20000	818.1	2.1
0.625	293.15	40000	909.4	2.1
0.625	293.15	60000	988	2.1
0.625	293.15	80000	1056.3	2.2
0.625	293.15	100000	1116.9	2.2
0.75	293.15	100	686.9	2.2
0.75	293.15	20000	799.8	2.1
0.75	293.15	40000	888.3	2.2
0.75	293.15	60000	963.7	2.2
0.75	293.15	80000	1029.1	2.2
0.75	293.15	100000	1088.5	2.2
0.25	303.15	100	763.8	2.2
0.25	303.15	20000	898.1	2.2
0.25	303.15	40000	1001.7	2.2
0.25	303.15	60000	1089.1	2.2
0.25	303.15	80000	1164.4	2.2
0.25	303.15	100000	1231.9	2.2
0.375	303.15	20000	848.7	2.2
0.375	303.15	40000	948.6	2.2
0.375	303.15	60000	1032.1	2.2
0.375	303.15	80000	1104	2.2
0.375	303.15	100000	1170.1	2.2
0.5	303.15	100	687.9	2.2
0.5	303.15	20000	812.7	2.2
0.5	303.15	40000	909.1	2.2
0.5	303.15	60000	989.8	2.2
0.5	303.15	80000	1059.8	2.2
0.5	303.15	100000	1123	2.2
0.625	303.15	100	670.9	2.2
0.625	303.15	20000	793.7	2.2
0.625	303.15	40000	889.5	2.2
0.625	303.15	60000	969.5	2.2
0.625	303.15	100000	1101.7	2.2
0.75	303.15	100	656	2.2
0.75	303.15	20000	773.5	2.2
0.75	303.15	40000	864.7	2.2
0.75	303.15	60000	941.8	2.2
0.75	303.15	80000	1008.7	2.2
0.75	303.15	100000	1068.1	2.2
0.25	313.15	100	729.6	2.2
0.25	313.15	20000	870.2	2.2
0.25	313.15	40000	975.8	2.2
0.25	313.15	60000	1065.1	2.2
0.25	313.15	80000	1141.4	2.2
0.25	313.15	100000	1209.6	2.2
0.375	313.15	20000	821.7	2.2
0.375	313.15	40000	924.1	2.2
0.375	313.15	60000	1009.2	2.2
0.375	313.15	80000	1082.8	2.2
0.375	313.15	100000	1148.8	2.2
0.5	313.15	100	656.3	2.2
0.5	313.15	20000	786.8	2.2
0.5	313.15	40000	885.6	2.2
0.5	313.15	60000	967.9	2.2
0.5	313.15	80000	1039.3	2.2
0.5	313.15	100000	1102.9	2.2
0.625	313.15	100	641.2	2.2
0.625	313.15	20000	769.5	2.2
0.625	313.15	40000	866.8	2.2
0.625	313.15	60000	946.8	2.2
0.625	313.15	80000	1017.4	2.2
0.625	313.15	100000	1079.9	2.2
0.75	313.15	100	626.5	2.2
0.75	313.15	20000	749.4	2.2
0.75	313.15	40000	843.3	2.2
0.75	313.15	60000	921.7	2.2
0.75	313.15	80000	990.1	2.2
0.75	313.15	100000	1050.9	2.2
0.25	323.15	100	693.3	2.2
0.25	323.15	20000	841.6	2.2
0.25	323.15	40000	952.5	2.2
0.25	323.15	60000	1043.6	2.2
0.25	323.15	80000	1123.2	2.2
0.25	323.15	100000	1193.8	2.2
0.375	323.15	100	650	2.2
0.375	323.15	20000	794.7	2.2
0.375	323.15	40000	901	2.2
0.375	323.15	60000	987.7	2.2
0.375	323.15	80000	1063	2.2
0.375	323.15	100000	1129.2	2.2
0.5	323.15	100	624.3	2.2
0.5	323.15	20000	761.3	2.2
0.5	323.15	40000	862.9	2.2
0.5	323.15	60000	946.9	2.2
0.5	323.15	80000	1019.6	2.2
0.5	323.15	100000	1084.4	2.2
0.625	323.15	100	609.9	2.2
0.625	323.15	20000	745.2	2.2
0.625	323.15	40000	846.1	2.2
0.625	323.15	60000	927.8	2.2
0.625	323.15	80000	998.6	2.2
0.625	323.15	100000	1061.6	2.2
0.75	323.15	100	597.4	2.2
0.75	323.15	20000	726.1	2.2
0.75	323.15	40000	822.8	2.2
0.75	323.15	60000	902.5	2.1
0.75	323.15	80000	971.8	2.2
0.75	323.15	100000	1033.7	2.2
0.25	333.15	100	659.8	2.2
0.25	333.15	20000	816	2.2
0.25	333.15	40000	930.9	2.2
0.25	333.15	60000	1024.9	2.2
0.25	333.15	80000	1106.8	2.2
0.375	333.15	100	617.9	2.2
0.375	333.15	20000	769.7	2.2
0.375	333.15	40000	878.9	2.2
0.375	333.15	60000	968.2	2.2
0.375	333.15	80000	1044.5	2.2
0.375	333.15	100000	1111.7	2.2
0.5	333.15	100	593.4	2.2
0.5	333.15	20000	737.4	2.2
0.5	333.15	40000	842	2.2
0.5	333.15	60000	927.8	2.2
0.5	333.15	80000	1001.6	2.2
0.5	333.15	100000	1067.2	2.2
0.625	333.15	100	579.9	2.2
0.625	333.15	20000	720.8	2.2
0.625	333.15	40000	823.8	2.2
0.625	333.15	60000	907.5	2.2
0.625	333.15	80000	980	2.2
0.625	333.15	100000	1043.9	2.2
0.75	333.15	100	568.6	2.2
0.75	333.15	20000	703.1	2.2
0.75	333.15	40000	802.8	2.1
0.75	333.15	60000	884.3	2.1
0.75	333.15	80000	954.4	2.1
0.75	333.15	100000	1016.8	2.1
0.25	343.15	20000	792.6	2.2
0.25	343.15	40000	911.7	2.2
0.25	343.15	60000	1007.3	2.2
0.25	343.15	80000	1089.6	2.2
0.25	343.15	100000	1161.8	2.2
0.375	343.15	100	588	2.2
0.375	343.15	20000	745.6	2.2
0.375	343.15	40000	858.7	2.2
0.375	343.15	60000	949.5	2.2
0.375	343.15	80000	1026.7	2.2
0.375	343.15	100000	1095.1	2.1
0.5	343.15	100	563	2.2
0.5	343.15	20000	714	2.2
0.5	343.15	40000	822.8	2.1
0.5	343.15	60000	911	2.1
0.5	343.15	80000	987	2.1
0.5	343.15	100000	1054.1	2.1
0.625	343.15	100	550.5	2.2
0.625	343.15	20000	697.6	2.1
0.625	343.15	40000	803.3	2.1
0.625	343.15	60000	889.2	2.1
0.625	343.15	80000	963.1	2.1
0.625	343.15	100000	1028.7	2.1
0.75	343.15	100	540.2	2.2
0.75	343.15	20000	681.6	2.1
0.75	343.15	40000	783.8	2.1
0.75	343.15	60000	867	2.1
0.75	343.15	80000	938.2	2.1
0.75	343.15	100000	1001.7	2.1
0.25	353.15	20000	767.9	2.2
0.25	353.15	40000	889.5	2.2
0.25	353.15	60000	986.5	2.2
0.25	353.15	100000	1142.6	2.2
0.375	353.15	20000	724.5	2.1
0.375	353.15	40000	841.4	2.2
0.375	353.15	60000	935.6	2.1
0.375	353.15	80000	1015.6	2.1
0.5	353.15	20000	692.8	2.1
0.5	353.15	40000	804.5	2.1
0.5	353.15	60000	894	2.1
0.5	353.15	80000	971	2.1
0.5	353.15	100000	1039.1	2.1
0.625	353.15	20000	676.5	2.1
0.625	353.15	40000	785.2	2.2
0.625	353.15	60000	872.6	2.1
0.625	353.15	80000	947.8	2.1
0.625	353.15	100000	1014.4	2.1
0.75	353.15	100	512.6	2.2
0.75	353.15	20000	660.7	2.2
0.75	353.15	40000	765.7	2.2
0.75	353.15	60000	850.4	2.2
0.75	353.15	80000	923.1	2.1
0.75	353.15	100000	987.2	2.1

System: 2-trifluoromethyl-3-ethoxydodecafluorohexane + diisopropyl ether; phases: Liquid
Fixed: Pressure, kPa = 100
Property: Molar heat capacity at constant pressure, J/K/mol (Liquid); method: DSC
Temperature, K	Mole fraction of 2-trifluoromethyl-3-ethoxydodecafluorohexane	Molar heat capacity at constant pressure, J/K/mol	uncertainty
290.5	0	211.5017532	12.05662168
295.44	0	213.44307364	12.2609712
300.38	0	215.28221932	12.36314596
305.32	0	217.32571452	12.46532072
310.26	0	219.36920972	12.56749548
315.2	0	221.41270492	12.66967024
320.13	0	223.45620012	12.771845
325.07	0	225.49969532	12.87401976
330.01	0	227.64536528	13.07836928
334.95	0	229.89321	13.18054404
339.89	0	232.03887996	13.2827188
290.5	0.25	277.264596348	15.853986016
295.44	0.25	279.606662464	16.034144948
300.38	0.25	281.768569648	16.21430388
305.32	0.25	284.470953628	16.21430388
310.26	0.25	287.713814404	16.394462812
315.2	0.25	290.416198384	16.574621744
320.13	0.25	293.118582364	16.754780676
325.07	0.25	295.640807412	16.934939608
330.01	0.25	298.16303246	17.11509854
334.95	0.25	300.685257508	17.295257472
339.89	0.25	303.207482556	17.295257472
290.5	0.375	310.536992506	17.751232458
295.44	0.375	312.947653704	17.970383476
300.38	0.375	315.358314902	17.970383476
305.32	0.375	317.988127118	18.189534494
310.26	0.375	320.398788316	18.408685512
315.2	0.375	322.809449514	18.408685512
320.13	0.375	325.658412748	18.62783653
325.07	0.375	328.288224964	18.846987548
330.01	0.375	330.91803718	18.846987548
334.95	0.375	333.767000414	19.066138566
339.89	0.375	336.39681263	19.285289584
290.5	0.5	342.555899008	19.618875904
295.44	0.5	345.137330048	19.877019008
300.38	0.5	347.976904192	19.877019008
305.32	0.5	350.300192128	20.135162112
310.26	0.5	353.139766272	20.135162112
315.2	0.5	355.979340416	20.393305216
320.13	0.5	358.81891456	20.65144832
325.07	0.5	361.658488704	20.65144832
330.01	0.5	364.498062848	20.909591424
334.95	0.5	367.079493888	20.909591424
339.89	0.5	369.660924928	21.167734528
290.5	0.625	375.57888016	21.39373368
295.44	0.625	378.55023206	21.69086887
300.38	0.625	381.52158396	21.69086887
305.32	0.625	384.19580067	21.98800406
310.26	0.625	387.16715257	22.28513925
315.2	0.625	390.13850447	22.28513925
320.13	0.625	393.10985637	22.58227444
325.07	0.625	396.08120827	22.58227444
330.01	0.625	399.34969536	22.87940963
334.95	0.625	402.32104726	22.87940963
339.89	0.625	405.29239916	23.17654482
290.5	0.75	407.386258512	23.192782044
295.44	0.75	410.411403996	23.52890932
300.38	0.75	413.772676756	23.52890932
305.32	0.75	416.461694964	23.865036596
310.26	0.75	419.822967724	23.865036596
315.2	0.75	422.848113208	24.201163872
320.13	0.75	425.873258692	24.537291148
325.07	0.75	428.898404176	24.537291148
330.01	0.75	432.259676936	24.873418424
334.95	0.75	434.612567868	24.873418424
339.89	0.75	437.973840628	25.2095457
297.91	1	466.289490448	26.503132672
307.79	1	472.915273616	26.91724412
317.66	1	479.541056784	27.331355568
327.54	1	486.5809514	27.745467016
337.42	1	494.034957464	28.159578464
347.29	1	500.660740632	28.573689912
357.17	1	508.528858144	28.98780136
367.05	1	517.225198552	29.401912808
376.92	1	523.85098172	29.816024256
386.8	1	531.719099232	30.230135704

System: 2-trifluoromethyl-3-ethoxydodecafluorohexane + diisopropyl ether; phases: Liquid
Property: Mass density, kg/m3 (Liquid); method: Vibrating tube method
Mole fraction of 2-trifluoromethyl-3-ethoxydodecafluorohexane	Pressure, kPa	Temperature, K	Mass density, kg/m3	uncertainty
0.25	100	293.15	1053.2	0.8
0.25	10000	293.15	1071	0.8
0.25	20000	293.15	1086.1	0.8
0.25	30000	293.15	1099.4	0.8
0.25	40000	293.15	1111.2	0.8
0.25	50000	293.15	1122.1	0.8
0.25	60000	293.15	1132.1	0.9
0.25	70000	293.15	1141.5	0.9
0.25	80000	293.15	1150.2	1
0.25	90000	293.15	1158.4	1
0.25	100000	293.15	1166.2	1.1
0.25	110000	293.15	1173.5	1.1
0.25	120000	293.15	1180.7	1.2
0.25	130000	293.15	1187.4	1.3
0.25	140000	293.15	1193.8	1.4
0.375	100	293.15	1178.3	0.7
0.375	10000	293.15	1197.9	0.8
0.375	20000	293.15	1214.9	0.8
0.375	30000	293.15	1229.8	0.8
0.375	40000	293.15	1243.1	0.9
0.375	50000	293.15	1255.2	1
0.375	60000	293.15	1266.3	1.1
0.375	70000	293.15	1276.8	1.1
0.375	80000	293.15	1286.4	1.2
0.375	90000	293.15	1295.5	1.4
0.375	100000	293.15	1304.3	1.5
0.375	110000	293.15	1312.4	1.7
0.375	120000	293.15	1320.3	1.8
0.375	130000	293.15	1327.8	2
0.375	140000	293.15	1335.1	2.1
0.5	100	293.15	1289.5	0.8
0.5	10000	293.15	1310.6	0.8
0.5	20000	293.15	1328.9	0.8
0.5	30000	293.15	1344.9	0.9
0.5	40000	293.15	1359.3	1
0.5	50000	293.15	1372.4	1.1
0.5	60000	293.15	1384.4	1.3
0.5	70000	293.15	1395.6	1.4
0.5	80000	293.15	1406.1	1.6
0.5	90000	293.15	1416	1.8
0.5	100000	293.15	1425.3	2
0.5	110000	293.15	1434.1	2.2
0.5	120000	293.15	1442.6	2.4
0.5	130000	293.15	1450.7	2.6
0.5	140000	293.15	1458.3	2.8
0.625	100	293.15	1391.2	0.7
0.625	10000	293.15	1413.6	0.8
0.625	20000	293.15	1432.8	0.9
0.625	30000	293.15	1449.9	1
0.625	40000	293.15	1465.1	1.2
0.625	50000	293.15	1479	1.3
0.625	60000	293.15	1491.7	1.5
0.625	70000	293.15	1503.7	1.8
0.625	80000	293.15	1514.7	2
0.625	90000	293.15	1525.1	2.2
0.625	100000	293.15	1535	2.5
0.625	110000	293.15	1544.3	2.7
0.625	120000	293.15	1553.2	3
0.625	130000	293.15	1561.8	3.2
0.625	140000	293.15	1569.9	3.5
0.75	100	293.15	1478.4	0.8
0.75	10000	293.15	1501.4	0.8
0.75	20000	293.15	1521.4	1
0.75	30000	293.15	1539	1.1
0.75	40000	293.15	1554.8	1.3
0.75	50000	293.15	1569.2	1.5
0.75	60000	293.15	1582.4	1.8
0.75	70000	293.15	1594.8	2
0.75	80000	293.15	1606.3	2.3
0.75	90000	293.15	1617.1	2.6
0.75	100000	293.15	1627.3	2.9
0.75	110000	293.15	1637.1	3.2
0.75	120000	293.15	1646.4	3.4
0.75	130000	293.15	1655.3	3.7
0.75	140000	293.15	1663.8	4
0.25	100	303.15	1038.3	0.8
0.25	10000	303.15	1057.2	0.8
0.25	20000	303.15	1073.6	0.8
0.25	30000	303.15	1087.7	0.8
0.25	40000	303.15	1100.3	0.8
0.25	50000	303.15	1111.7	0.8
0.25	60000	303.15	1122.1	0.9
0.25	70000	303.15	1131.8	0.9
0.25	80000	303.15	1140.8	0.9
0.25	90000	303.15	1149.3	1
0.25	100000	303.15	1157.3	1
0.25	110000	303.15	1164.9	1.1
0.25	120000	303.15	1172.1	1.2
0.25	130000	303.15	1178.8	1.2
0.25	140000	303.15	1185.4	1.3
0.375	100	303.15	1161.8	0.8
0.375	10000	303.15	1183	0.8
0.375	20000	303.15	1201.2	0.8
0.375	30000	303.15	1217	0.8
0.375	40000	303.15	1231.1	0.9
0.375	50000	303.15	1243.8	1
0.375	60000	303.15	1255.4	1
0.375	70000	303.15	1266.2	1.1
0.375	80000	303.15	1276.1	1.2
0.375	90000	303.15	1285.5	1.3
0.375	100000	303.15	1294.3	1.5
0.375	110000	303.15	1302.8	1.6
0.375	120000	303.15	1310.8	1.8
0.375	130000	303.15	1318.4	1.9
0.375	140000	303.15	1325.9	2.1
0.5	100	303.15	1271.6	0.8
0.5	10000	303.15	1294.5	0.8
0.5	20000	303.15	1314.1	0.8
0.5	30000	303.15	1331.1	0.9
0.5	40000	303.15	1346.3	1
0.5	50000	303.15	1360	1.1
0.5	60000	303.15	1372.6	1.3
0.5	70000	303.15	1384.2	1.4
0.5	80000	303.15	1395.1	1.6
0.5	90000	303.15	1405.2	1.8
0.5	100000	303.15	1414.8	2
0.5	110000	303.15	1423.9	2.2
0.5	120000	303.15	1432.6	2.4
0.5	130000	303.15	1440.8	2.6
0.5	140000	303.15	1448.7	2.8
0.625	100	303.15	1372.4	0.8
0.625	10000	303.15	1396.6	0.8
0.625	20000	303.15	1417.3	0.9
0.625	30000	303.15	1435.3	1
0.625	40000	303.15	1451.3	1.2
0.625	50000	303.15	1465.8	1.3
0.625	60000	303.15	1479.2	1.5
0.625	70000	303.15	1491.4	1.7
0.625	80000	303.15	1502.8	2
0.625	90000	303.15	1513.6	2.2
0.625	100000	303.15	1523.7	2.4
0.625	110000	303.15	1533.3	2.7
0.625	120000	303.15	1542.4	2.9
0.625	130000	303.15	1551.2	3.2
0.625	140000	303.15	1559.5	3.4
0.75	100	303.15	1458.7	0.8
0.75	10000	303.15	1483.7	0.9
0.75	20000	303.15	1505.1	1
0.75	30000	303.15	1523.8	1.1
0.75	40000	303.15	1540.4	1.3
0.75	50000	303.15	1555.5	1.5
0.75	60000	303.15	1569.3	1.8
0.75	70000	303.15	1582.1	2
0.75	80000	303.15	1594	2.3
0.75	90000	303.15	1605.2	2.5
0.75	100000	303.15	1615.8	2.8
0.75	110000	303.15	1625.8	3.1
0.75	120000	303.15	1635.3	3.4
0.75	130000	303.15	1644.4	3.7
0.75	140000	303.15	1653.1	4
0.25	100	313.15	1022.4	0.8
0.25	10000	313.15	1042.9	0.8
0.25	20000	313.15	1060.3	0.8
0.25	30000	313.15	1075.3	0.8
0.25	40000	313.15	1088.5	0.8
0.25	50000	313.15	1100.5	0.8
0.25	60000	313.15	1111.4	0.8
0.25	70000	313.15	1121.5	0.9
0.25	80000	313.15	1130.9	0.9
0.25	90000	313.15	1139.7	1
0.25	100000	313.15	1148	1
0.25	110000	313.15	1156	1.1
0.25	120000	313.15	1163.3	1.1
0.25	130000	313.15	1170.4	1.2
0.25	140000	313.15	1177.2	1.3
0.375	100	313.15	1144.5	0.8
0.375	10000	313.15	1167.7	0.8
0.375	20000	313.15	1187.2	0.8
0.375	30000	313.15	1203.9	0.8
0.375	40000	313.15	1218.6	0.9
0.375	50000	313.15	1232	0.9
0.375	60000	313.15	1244.1	1
0.375	70000	313.15	1255	1.1
0.375	80000	313.15	1265.4	1.2
0.375	90000	313.15	1275.3	1.3
0.375	100000	313.15	1284.4	1.4
0.375	110000	313.15	1293.2	1.6
0.375	120000	313.15	1301.3	1.7
0.375	130000	313.15	1309.4	1.9
0.375	140000	313.15	1316.8	2
0.5	100	313.15	1253.4	0.8
0.5	10000	313.15	1278.3	0.8
0.5	20000	313.15	1299.2	0.8
0.5	30000	313.15	1317.2	0.9
0.5	40000	313.15	1333.1	1
0.5	50000	313.15	1347.4	1.1
0.5	60000	313.15	1360.5	1.2
0.5	70000	313.15	1372.6	1.4
0.5	80000	313.15	1383.8	1.5
0.5	90000	313.15	1394.3	1.7
0.5	100000	313.15	1404.2	1.9
0.5	110000	313.15	1413.7	2.1
0.5	120000	313.15	1422.4	2.3
0.5	130000	313.15	1431	2.5
0.5	140000	313.15	1439	2.7
0.625	100	313.15	1351.8	0.8
0.625	10000	313.15	1378.1	0.8
0.625	20000	313.15	1400.1	0.9
0.625	30000	313.15	1419.2	1
0.625	40000	313.15	1436	1.1
0.625	50000	313.15	1451.1	1.3
0.625	60000	313.15	1464.9	1.5
0.625	70000	313.15	1477.7	1.7
0.625	80000	313.15	1489.6	1.9
0.625	90000	313.15	1500.7	2.1
0.625	100000	313.15	1511.1	2.4
0.625	110000	313.15	1521.2	2.6
0.625	120000	313.15	1530.6	2.9
0.625	130000	313.15	1539.5	3.1
0.625	140000	313.15	1548.1	3.4
0.75	100	313.15	1438.4	0.8
0.75	10000	313.15	1465.4	0.8
0.75	20000	313.15	1488.1	1
0.75	30000	313.15	1507.8	1.1
0.75	40000	313.15	1525.3	1.3
0.75	50000	313.15	1541	1.5
0.75	60000	313.15	1555.4	1.7
0.75	70000	313.15	1568.7	2
0.75	80000	313.15	1581.1	2.2
0.75	90000	313.15	1592.6	2.5
0.75	100000	313.15	1603.5	2.8
0.75	110000	313.15	1614	3
0.75	120000	313.15	1623.6	3.3
0.75	130000	313.15	1633	3.6
0.75	140000	313.15	1641.9	3.9
0.25	100	323.15	1006.7	0.8
0.25	10000	323.15	1029	0.8
0.25	20000	323.15	1047.5	0.8
0.25	30000	323.15	1063.3	0.8
0.25	40000	323.15	1077.2	0.8
0.25	50000	323.15	1089.7	0.8
0.25	60000	323.15	1101	0.8
0.25	70000	323.15	1111.5	0.9
0.25	80000	323.15	1121.1	0.9
0.25	90000	323.15	1130.2	0.9
0.25	100000	323.15	1138.8	1
0.25	110000	323.15	1146.9	1
0.25	120000	323.15	1154.5	1.1
0.25	130000	323.15	1161.7	1.2
0.25	140000	323.15	1168.7	1.2
0.375	100	323.15	1127.2	0.8
0.375	10000	323.15	1152.3	0.8
0.375	20000	323.15	1173	0.8
0.375	30000	323.15	1190.5	0.8
0.375	40000	323.15	1206.1	0.9
0.375	50000	323.15	1220	0.9
0.375	60000	323.15	1232.6	1
0.375	70000	323.15	1244.2	1.1
0.375	80000	323.15	1255	1.2
0.375	90000	323.15	1265.1	1.3
0.375	100000	323.15	1274.5	1.4
0.375	110000	323.15	1283.5	1.5
0.375	120000	323.15	1291.9	1.7
0.375	130000	323.15	1299.9	1.8
0.375	140000	323.15	1307.7	2
0.5	100	323.15	1235	0.8
0.5	10000	323.15	1262	0.8
0.5	20000	323.15	1284.2	0.8
0.5	30000	323.15	1303.2	0.9
0.5	40000	323.15	1319.9	1
0.5	50000	323.15	1334.9	1.1
0.5	60000	323.15	1348.5	1.2
0.5	70000	323.15	1361	1.3
0.5	80000	323.15	1372.5	1.5
0.5	90000	323.15	1383.4	1.7
0.5	100000	323.15	1393.7	1.9
0.5	110000	323.15	1403.2	2.1
0.5	120000	323.15	1412.4	2.3
0.5	130000	323.15	1421.1	2.5
0.5	140000	323.15	1429.4	2.7
0.625	100	323.15	1332.2	0.8
0.625	10000	323.15	1360.8	0.8
0.625	20000	323.15	1384.2	0.9
0.625	30000	323.15	1404.3	1
0.625	40000	323.15	1421.9	1.1
0.625	50000	323.15	1437.6	1.3
0.625	60000	323.15	1452	1.4
0.625	70000	323.15	1465.1	1.6
0.625	80000	323.15	1477.3	1.9
0.625	90000	323.15	1488.8	2.1
0.625	100000	323.15	1499.6	2.3
0.625	110000	323.15	1509.8	2.6
0.625	120000	323.15	1519.5	2.8
0.625	130000	323.15	1528.7	3
0.625	140000	323.15	1537.4	3.3
0.75	100	323.15	1418.1	0.8
0.75	10000	323.15	1447.4	0.8
0.75	20000	323.15	1471.7	0.9
0.75	30000	323.15	1492.5	1.1
0.75	40000	323.15	1510.7	1.2
0.75	50000	323.15	1527.2	1.4
0.75	60000	323.15	1542.2	1.7
0.75	70000	323.15	1555.9	1.9
0.75	80000	323.15	1568.7	2.2
0.75	90000	323.15	1580.6	2.4
0.75	100000	323.15	1591.9	2.7
0.75	110000	323.15	1602.5	3
0.75	120000	323.15	1612.5	3.3
0.75	130000	323.15	1622.1	3.6
0.75	140000	323.15	1631.3	3.9
0.25	100	333.15	990.5	0.8
0.25	10000	333.15	1014.9	0.8
0.25	20000	333.15	1034.7	0.8
0.25	30000	333.15	1051.5	0.8
0.25	40000	333.15	1066.2	0.8
0.25	50000	333.15	1079.3	0.8
0.25	60000	333.15	1091.1	0.8
0.25	70000	333.15	1101.9	0.8
0.25	80000	333.15	1112	0.9
0.25	90000	333.15	1121.4	0.9
0.25	100000	333.15	1130.3	1
0.25	110000	333.15	1138.5	1
0.25	120000	333.15	1146.4	1.1
0.25	130000	333.15	1153.9	1.1
0.25	140000	333.15	1160.9	1.2
0.375	100	333.15	1109.5	0.8
0.375	10000	333.15	1137	0.8
0.375	20000	333.15	1159.2	0.8
0.375	30000	333.15	1177.9	0.8
0.375	40000	333.15	1194.2	0.9
0.375	50000	333.15	1208.8	0.9
0.375	60000	333.15	1222	1
0.375	70000	333.15	1234	1.1
0.375	80000	333.15	1244.9	1.1
0.375	90000	333.15	1255.4	1.2
0.375	100000	333.15	1265.1	1.4
0.375	110000	333.15	1274.2	1.5
0.375	120000	333.15	1282.9	1.6
0.375	130000	333.15	1291.2	1.8
0.375	140000	333.15	1299	1.9
0.5	100	333.15	1216.5	0.8
0.5	10000	333.15	1245.9	0.8
0.5	20000	333.15	1269.8	0.8
0.5	30000	333.15	1290	0.9
0.5	40000	333.15	1307.5	1
0.5	50000	333.15	1323.2	1.1
0.5	60000	333.15	1337.3	1.2
0.5	70000	333.15	1350.3	1.3
0.5	80000	333.15	1362.3	1.5
0.5	90000	333.15	1373.5	1.6
0.5	100000	333.15	1384	1.8
0.5	110000	333.15	1393.9	2
0.5	120000	333.15	1403.2	2.2
0.5	130000	333.15	1412.1	2.4
0.5	140000	333.15	1420.5	2.6
0.625	100	333.15	1312.3	0.8
0.625	10000	333.15	1343.3	0.8
0.625	20000	333.15	1368.5	0.9
0.625	30000	333.15	1389.8	1
0.625	40000	333.15	1408.4	1.1
0.625	50000	333.15	1424.9	1.2
0.625	60000	333.15	1439.9	1.4
0.625	70000	333.15	1453.7	1.6
0.625	80000	333.15	1466.4	1.8
0.625	90000	333.15	1478.4	2
0.625	100000	333.15	1489.4	2.3
0.625	110000	333.15	1499.9	2.5
0.625	120000	333.15	1509.7	2.7
0.625	130000	333.15	1519.2	3
0.625	140000	333.15	1528.1	3.2
0.75	100	333.15	1397.5	0.8
0.75	10000	333.15	1429.3	0.8
0.75	20000	333.15	1455.3	0.9
0.75	30000	333.15	1477.3	1.1
0.75	40000	333.15	1496.6	1.2
0.75	50000	333.15	1513.8	1.4
0.75	60000	333.15	1529.4	1.6
0.75	70000	333.15	1543.7	1.9
0.75	80000	333.15	1556.9	2.1
0.75	90000	333.15	1569.3	2.4
0.75	100000	333.15	1580.9	2.7
0.75	110000	333.15	1591.8	2.9
0.75	120000	333.15	1602.1	3.2
0.75	130000	333.15	1611.9	3.5
0.75	140000	333.15	1621.2	3.8
0.25	10000	343.15	1000.6	0.8
0.25	20000	343.15	1021.9	0.8
0.25	30000	343.15	1039.6	0.8
0.25	40000	343.15	1055.2	0.8
0.25	50000	343.15	1068.8	0.8
0.25	60000	343.15	1081.1	0.8
0.25	70000	343.15	1092.4	0.8
0.25	80000	343.15	1102.8	0.9
0.25	90000	343.15	1112.5	0.9
0.25	100000	343.15	1121.5	0.9
0.25	110000	343.15	1130.1	1
0.25	120000	343.15	1138.2	1
0.25	130000	343.15	1145.9	1.1
0.25	140000	343.15	1153.3	1.2
0.375	100	343.15	1091.4	0.8
0.375	10000	343.15	1121.3	0.8
0.375	20000	343.15	1145.1	0.8
0.375	30000	343.15	1164.8	0.8
0.375	40000	343.15	1182.1	0.8
0.375	50000	343.15	1197.3	0.9
0.375	60000	343.15	1210.9	1
0.375	70000	343.15	1223.4	1
0.375	80000	343.15	1234.9	1.1
0.375	90000	343.15	1245.7	1.2
0.375	100000	343.15	1255.8	1.3
0.375	110000	343.15	1265.3	1.4
0.375	120000	343.15	1274.2	1.6
0.375	130000	343.15	1282.7	1.7
0.375	140000	343.15	1290.7	1.9
0.5	100	343.15	1197	0.8
0.5	10000	343.15	1229.2	0.8
0.5	20000	343.15	1254.7	0.8
0.5	30000	343.15	1275.9	0.9
0.5	40000	343.15	1294.4	0.9
0.5	50000	343.15	1310.8	1
0.5	60000	343.15	1325.4	1.2
0.5	70000	343.15	1338.9	1.3
0.5	80000	343.15	1351.3	1.4
0.5	90000	343.15	1362.8	1.6
0.5	100000	343.15	1373.5	1.8
0.5	110000	343.15	1383.8	2
0.5	120000	343.15	1393.3	2.2
0.5	130000	343.15	1402.5	2.4
0.5	140000	343.15	1411.2	2.6
0.625	100	343.15	1291.8	0.8
0.625	10000	343.15	1325.6	0.8
0.625	20000	343.15	1352.4	0.9
0.625	30000	343.15	1374.8	0.9
0.625	40000	343.15	1394.4	1.1
0.625	50000	343.15	1411.7	1.2
0.625	60000	343.15	1427.3	1.4
0.625	70000	343.15	1441.4	1.6
0.625	80000	343.15	1454.6	1.8
0.625	90000	343.15	1466.8	2
0.625	100000	343.15	1478.2	2.2
0.625	110000	343.15	1489.1	2.5
0.625	120000	343.15	1499.3	2.7
0.625	130000	343.15	1509.1	2.9
0.625	140000	343.15	1518.2	3.2
0.75	100	343.15	1376.3	0.8
0.75	10000	343.15	1411.1	0.8
0.75	20000	343.15	1438.8	0.9
0.75	30000	343.15	1462	1
0.75	40000	343.15	1482.3	1.2
0.75	50000	343.15	1500.3	1.4
0.75	60000	343.15	1516.5	1.6
0.75	70000	343.15	1531.3	1.8
0.75	80000	343.15	1544.9	2.1
0.75	90000	343.15	1557.6	2.3
0.75	100000	343.15	1569.5	2.6
0.75	110000	343.15	1580.8	2.9
0.75	120000	343.15	1591.4	3.2
0.75	130000	343.15	1601.6	3.4
0.75	140000	343.15	1611.2	3.7
0.25	10000	353.15	986.5	0.8
0.25	20000	353.15	1009.3	0.8
0.25	30000	353.15	1028.2	0.8
0.25	40000	353.15	1044.4	0.8
0.25	50000	353.15	1058.7	0.8
0.25	60000	353.15	1071.6	0.8
0.25	70000	353.15	1083.3	0.8
0.25	80000	353.15	1094.2	0.8
0.25	90000	353.15	1104.1	0.9
0.25	100000	353.15	1113.4	0.9
0.25	110000	353.15	1122.1	1
0.25	120000	353.15	1130.4	1
0.25	130000	353.15	1138.3	1.1
0.25	140000	353.15	1145.6	1.1
0.375	10000	353.15	1105.6	0.8
0.375	20000	353.15	1131.2	0.8
0.375	30000	353.15	1152.3	0.8
0.375	40000	353.15	1170.2	0.8
0.375	50000	353.15	1186	0.9
0.375	60000	353.15	1200.3	0.9
0.375	70000	353.15	1213.3	1
0.375	80000	353.15	1225.2	1.1
0.375	90000	353.15	1236.2	1.2
0.375	100000	353.15	1246.6	1.3
0.375	110000	353.15	1256.3	1.4
0.375	120000	353.15	1265.4	1.5
0.375	130000	353.15	1274.2	1.7
0.375	140000	353.15	1282.4	1.8
0.5	10000	353.15	1212.9	0.8
0.5	20000	353.15	1240.1	0.8
0.5	30000	353.15	1262.7	0.8
0.5	40000	353.15	1281.9	0.9
0.5	50000	353.15	1298.8	1
0.5	60000	353.15	1314.2	1.1
0.5	70000	353.15	1328.1	1.2
0.5	80000	353.15	1340.9	1.4
0.5	90000	353.15	1352.7	1.6
0.5	100000	353.15	1363.8	1.7
0.5	110000	353.15	1374.2	1.9
0.5	120000	353.15	1384.1	2.1
0.5	130000	353.15	1393.5	2.3
0.5	140000	353.15	1402.4	2.5
0.625	100	353.15	1271.2	0.8
0.625	10000	353.15	1308.2	0.8
0.625	20000	353.15	1337	0.8
0.625	30000	353.15	1360.8	0.9
0.625	40000	353.15	1381.2	1
0.625	50000	353.15	1399.2	1.2
0.625	60000	353.15	1415.5	1.3
0.625	70000	353.15	1430.3	1.5
0.625	80000	353.15	1443.9	1.7
0.625	90000	353.15	1456.5	2
0.625	100000	353.15	1468.2	2.2
0.625	110000	353.15	1479.2	2.4
0.625	120000	353.15	1489.7	2.6
0.625	130000	353.15	1499.7	2.9
0.625	140000	353.15	1509	3.1
0.75	100	353.15	1355.1	0.8
0.75	10000	353.15	1393	0.8
0.75	20000	353.15	1422.7	0.9
0.75	30000	353.15	1447.4	1
0.75	40000	353.15	1468.5	1.2
0.75	50000	353.15	1487.3	1.3
0.75	60000	353.15	1504.2	1.6
0.75	70000	353.15	1519.5	1.8
0.75	80000	353.15	1533.7	2.1
0.75	90000	353.15	1546.8	2.3
0.75	100000	353.15	1559	2.6
0.75	110000	353.15	1570.4	2.8
0.75	120000	353.15	1581.4	3.1
0.75	130000	353.15	1591.7	3.4
0.75	140000	353.15	1601.4	3.7
0.25	10000	363.15	972.2	0.8
0.25	20000	363.15	996.8	0.7
0.25	30000	363.15	1016.8	0.7
0.25	40000	363.15	1033.8	0.8
0.25	50000	363.15	1048.7	0.8
0.25	60000	363.15	1062	0.8
0.25	70000	363.15	1074.1	0.8
0.25	80000	363.15	1085.2	0.8
0.25	90000	363.15	1095.5	0.9
0.25	100000	363.15	1105.1	0.9
0.25	110000	363.15	1114.2	0.9
0.25	120000	363.15	1122.7	1
0.25	130000	363.15	1130.7	1.1
0.25	140000	363.15	1138.4	1.1
0.375	10000	363.15	1089.6	0.8
0.375	20000	363.15	1117.1	0.8
0.375	30000	363.15	1139.3	0.8
0.375	40000	363.15	1158.1	0.8
0.375	50000	363.15	1174.8	0.9
0.375	60000	363.15	1189.6	0.9
0.375	70000	363.15	1203	1
0.375	80000	363.15	1215.5	1.1
0.375	90000	363.15	1227	1.2
0.375	100000	363.15	1237.5	1.3
0.375	110000	363.15	1247.5	1.4
0.375	120000	363.15	1257.1	1.5
0.375	130000	363.15	1265.9	1.6
0.375	140000	363.15	1274.6	1.8
0.5	10000	363.15	1196.4	0.8
0.5	20000	363.15	1225.6	0.8
0.5	30000	363.15	1249.3	0.8
0.5	40000	363.15	1269.5	0.9
0.5	50000	363.15	1287.3	1
0.5	60000	363.15	1303.1	1.1
0.5	70000	363.15	1317.5	1.2
0.5	80000	363.15	1330.8	1.4
0.5	90000	363.15	1343.1	1.5
0.5	100000	363.15	1354.5	1.7
0.5	110000	363.15	1365.3	1.9
0.5	120000	363.15	1375.4	2.1
0.5	130000	363.15	1385	2.3
0.5	140000	363.15	1394.2	2.5
0.625	10000	363.15	1290.3	0.8
0.625	20000	363.15	1321.2	0.8
0.625	30000	363.15	1346.4	0.9
0.625	40000	363.15	1367.8	1
0.625	50000	363.15	1386.6	1.2
0.625	60000	363.15	1403.4	1.3
0.625	70000	363.15	1418.6	1.5
0.625	80000	363.15	1432.6	1.7
0.625	90000	363.15	1445.6	1.9
0.625	100000	363.15	1457.8	2.1
0.625	110000	363.15	1469.1	2.4
0.625	120000	363.15	1479.8	2.6
0.625	130000	363.15	1490	2.8
0.625	140000	363.15	1499.7	3.1
0.75	10000	363.15	1374.4	0.8
0.75	20000	363.15	1406.2	0.9
0.75	30000	363.15	1432.1	1
0.75	40000	363.15	1454.3	1.1
0.75	50000	363.15	1473.8	1.3
0.75	60000	363.15	1491.2	1.5
0.75	70000	363.15	1507	1.8
0.75	80000	363.15	1521.5	2
0.75	90000	363.15	1534.9	2.3
0.75	100000	363.15	1547.4	2.5
0.75	110000	363.15	1559.3	2.8
0.75	120000	363.15	1570.4	3.1
0.75	130000	363.15	1580.9	3.3
0.75	140000	363.15	1591	3.6
0.25	10000	373.15	957.5	0.8
0.25	20000	373.15	983.8	0.7
0.25	30000	373.15	1005	0.7
0.25	40000	373.15	1022.8	0.7
0.25	50000	373.15	1038.4	0.8
0.25	60000	373.15	1052.3	0.8
0.25	70000	373.15	1064.8	0.8
0.25	80000	373.15	1076.3	0.8
0.25	90000	373.15	1086.9	0.8
0.25	100000	373.15	1096.9	0.9
0.25	110000	373.15	1106.1	0.9
0.25	120000	373.15	1114.8	1
0.25	130000	373.15	1123.1	1
0.25	140000	373.15	1130.8	1.1
0.375	10000	373.15	1074	0.8
0.375	20000	373.15	1103.6	0.8
0.375	30000	373.15	1127.2	0.8
0.375	40000	373.15	1147.1	0.8
0.375	50000	373.15	1164.3	0.8
0.375	60000	373.15	1179.7	0.9
0.375	70000	373.15	1193.7	1
0.375	80000	373.15	1206.4	1
0.375	90000	373.15	1218.3	1.1
0.375	100000	373.15	1229.2	1.2
0.375	110000	373.15	1239.6	1.3
0.375	120000	373.15	1249.3	1.5
0.375	130000	373.15	1258.3	1.6
0.375	140000	373.15	1267	1.7
0.5	10000	373.15	1179.6	0.8
0.5	20000	373.15	1210.9	0.8
0.5	30000	373.15	1236	0.8
0.5	40000	373.15	1257.2	0.9
0.5	50000	373.15	1275.8	1
0.5	60000	373.15	1292.2	1.1
0.5	70000	373.15	1307.2	1.2
0.5	80000	373.15	1320.8	1.3
0.5	90000	373.15	1333.5	1.5
0.5	100000	373.15	1345.3	1.7
0.5	110000	373.15	1356.2	1.8
0.5	120000	373.15	1366.6	2
0.5	130000	373.15	1376.4	2.2
0.5	140000	373.15	1385.7	2.4
0.625	10000	373.15	1272.3	0.8
0.625	20000	373.15	1305.3	0.8
0.625	30000	373.15	1331.8	0.9
0.625	40000	373.15	1354.2	1
0.625	50000	373.15	1373.8	1.1
0.625	60000	373.15	1391.2	1.3
0.625	70000	373.15	1407	1.5
0.625	80000	373.15	1421.5	1.7
0.625	90000	373.15	1435	1.9
0.625	100000	373.15	1447.4	2.1
0.625	110000	373.15	1459.1	2.3
0.625	120000	373.15	1470.1	2.5
0.625	130000	373.15	1480.5	2.8
0.625	140000	373.15	1490.4	3
0.75	10000	373.15	1355.8	0.8
0.75	20000	373.15	1389.8	0.9
0.75	30000	373.15	1417.3	1
0.75	40000	373.15	1440.5	1.1
0.75	50000	373.15	1460.8	1.3
0.75	60000	373.15	1478.9	1.5
0.75	70000	373.15	1495.3	1.7
0.75	80000	373.15	1510.3	2
0.75	90000	373.15	1524.3	2.2
0.75	100000	373.15	1537.2	2.5
0.75	110000	373.15	1549.4	2.7
0.75	120000	373.15	1560.8	3
0.75	130000	373.15	1571.6	3.3
0.75	140000	373.15	1581.8	3.6
0.25	10000	383.15	942.8	0.8
0.25	20000	383.15	971.3	0.7
0.25	30000	383.15	993.8	0.7
0.25	40000	383.15	1012.6	0.7
0.25	50000	383.15	1028.9	0.8
0.25	60000	383.15	1043.2	0.8
0.25	70000	383.15	1056.2	0.8
0.25	80000	383.15	1068.1	0.8
0.25	90000	383.15	1079	0.8
0.25	100000	383.15	1089.2	0.9
0.25	110000	383.15	1098.7	0.9
0.25	120000	383.15	1107.7	0.9
0.25	130000	383.15	1116.1	1
0.25	140000	383.15	1124.2	1.1
0.375	10000	383.15	1058	0.8
0.375	20000	383.15	1089.6	0.8
0.375	30000	383.15	1114.7	0.8
0.375	40000	383.15	1135.6	0.8
0.375	50000	383.15	1153.6	0.8
0.375	60000	383.15	1169.5	0.9
0.375	70000	383.15	1184	0.9
0.375	80000	383.15	1197.2	1
0.375	90000	383.15	1209.3	1.1
0.375	100000	383.15	1220.6	1.2
0.375	110000	383.15	1231.2	1.3
0.375	120000	383.15	1241.3	1.4
0.375	130000	383.15	1250.6	1.6
0.375	140000	383.15	1259.6	1.7
0.5	10000	383.15	1162.6	0.8
0.5	20000	383.15	1196.3	0.8
0.5	30000	383.15	1223	0.8
0.5	40000	383.15	1245.4	0.9
0.5	50000	383.15	1264.7	1
0.5	60000	383.15	1281.8	1.1
0.5	70000	383.15	1297.2	1.2
0.5	80000	383.15	1311.3	1.3
0.5	90000	383.15	1324.3	1.5
0.5	100000	383.15	1336.3	1.6
0.5	110000	383.15	1347.6	1.8
0.5	120000	383.15	1358.3	2
0.5	130000	383.15	1368.1	2.2
0.5	140000	383.15	1377.9	2.4
0.625	10000	383.15	1254.2	0.8
0.625	20000	383.15	1289.7	0.8
0.625	30000	383.15	1317.8	0.9
0.625	40000	383.15	1341.5	1
0.625	50000	383.15	1361.9	1.1
0.625	60000	383.15	1379.9	1.2
0.625	70000	383.15	1396.3	1.4
0.625	80000	383.15	1411.4	1.6
0.625	90000	383.15	1425	1.8
0.625	100000	383.15	1437.8	2
0.625	110000	383.15	1449.8	2.3
0.625	120000	383.15	1461.2	2.5
0.625	130000	383.15	1471.8	2.7
0.625	140000	383.15	1481.9	3
0.75	10000	383.15	1336.7	0.8
0.75	20000	383.15	1373.1	0.9
0.75	30000	383.15	1402	1
0.75	40000	383.15	1426.5	1.1
0.75	50000	383.15	1447.6	1.3
0.75	60000	383.15	1466.4	1.5
0.75	70000	383.15	1483.3	1.7
0.75	80000	383.15	1498.8	1.9
0.75	90000	383.15	1513.1	2.2
0.75	100000	383.15	1526.4	2.4
0.75	110000	383.15	1538.8	2.7
0.75	120000	383.15	1550.7	3
0.75	130000	383.15	1561.7	3.2
0.75	140000	383.15	1572.3	3.5
0.25	10000	393.15	927.9	0.8
0.25	20000	393.15	958.4	0.8
0.25	30000	393.15	982.1	0.8
0.25	40000	393.15	1001.8	0.7
0.25	50000	393.15	1018.7	0.8
0.25	60000	393.15	1033.7	0.8
0.25	70000	393.15	1047.2	0.8
0.25	80000	393.15	1059.3	0.8
0.25	90000	393.15	1070.8	0.8
0.25	100000	393.15	1081.3	0.8
0.25	110000	393.15	1091	0.9
0.25	120000	393.15	1100.3	0.9
0.25	130000	393.15	1108.9	1
0.25	140000	393.15	1117	1
0.375	10000	393.15	1041.6	0.8
0.375	20000	393.15	1075.7	0.8
0.375	30000	393.15	1102.2	0.8
0.375	40000	393.15	1124	0.8
0.375	50000	393.15	1142.7	0.8
0.375	60000	393.15	1159.3	0.9
0.375	70000	393.15	1174.3	0.9
0.375	80000	393.15	1187.7	1
0.375	90000	393.15	1200.4	1.1
0.375	100000	393.15	1211.9	1.2
0.375	110000	393.15	1222.8	1.3
0.375	120000	393.15	1233	1.4
0.375	130000	393.15	1242.6	1.5
0.375	140000	393.15	1251.6	1.7
0.5	10000	393.15	1145.1	0.8
0.5	20000	393.15	1181.2	0.8
0.5	30000	393.15	1209.4	0.8
0.5	40000	393.15	1232.7	0.9
0.5	50000	393.15	1252.8	1
0.5	60000	393.15	1270.5	1.1
0.5	70000	393.15	1286.5	1.2
0.5	80000	393.15	1300.8	1.3
0.5	90000	393.15	1314.4	1.4
0.5	100000	393.15	1326.8	1.6
0.5	110000	393.15	1338.4	1.8
0.5	120000	393.15	1349.4	1.9
0.5	130000	393.15	1359.7	2.1
0.5	140000	393.15	1369.3	2.3
0.625	10000	393.15	1235.9	0.8
0.625	20000	393.15	1273.8	0.8
0.625	30000	393.15	1303.4	0.9
0.625	40000	393.15	1328	1
0.625	50000	393.15	1349.1	1.1
0.625	60000	393.15	1368	1.2
0.625	70000	393.15	1385.1	1.4
0.625	80000	393.15	1400.3	1.6
0.625	90000	393.15	1414.7	1.8
0.625	100000	393.15	1428	2
0.625	110000	393.15	1440.1	2.2
0.625	120000	393.15	1451.6	2.5
0.625	130000	393.15	1462.5	2.7
0.625	140000	393.15	1472.9	2.9
0.75	10000	393.15	1317.8	0.8
0.75	20000	393.15	1356.7	0.9
0.75	30000	393.15	1387.3	1
0.75	40000	393.15	1412.8	1.1
0.75	50000	393.15	1434.8	1.2
0.75	60000	393.15	1454.2	1.4
0.75	70000	393.15	1471.7	1.7
0.75	80000	393.15	1487.5	1.9
0.75	90000	393.15	1502.4	2.1
0.75	100000	393.15	1516	2.4
0.75	110000	393.15	1528.7	2.6
0.75	120000	393.15	1540.7	2.9
0.75	130000	393.15	1552.1	3.2
0.75	140000	393.15	1562.7	3.4
