Measured thermophysical data. Mutual diffusion coefficients of n-butanol + n-heptane and n-pentanol + n-heptane from 288.15 K to 318.15 K
Source: J. Chem. Thermodyn., 2017, 10.1016/j.jct.2017.05.028
Compound 1: butan-1-ol, C4H10O, InChI=1S/C4H10O/c1-2-3-4-5/h5H,2-4H2,1H3, purity 99.5%
Compound 2: pentan-1-ol, C5H12O, InChI=1S/C5H12O/c1-2-3-4-5-6/h6H,2-5H2,1H3, purity 99.5%
Compound 3: heptane, C7H16, InChI=1S/C7H16/c1-3-5-7-6-4-2/h3-7H2,1-2H3, purity 99.5%

System: butan-1-ol + heptane; phases: Liquid
Fixed: Pressure, kPa = 101
Property: Binary diffusion coefficient, m2/s (Liquid); method: digital holographic interferometry
Temperature, K	Mass fraction of butan-1-ol	Binary diffusion coefficient, m2/s	uncertainty
288.15	0.05	1.856e-09	0.045
288.15	0.15	1.387e-09	0.034
288.15	0.25	1.035e-09	0.026
288.15	0.35	8.03e-10	0.02
288.15	0.45	6.87e-10	0.017
288.15	0.55	6.25e-10	0.015
288.15	0.65	6.28e-10	0.015
288.15	0.75	6.75e-10	0.016
288.15	0.85	7.03e-10	0.017
288.15	0.95	7.54e-10	0.018
298.15	0.05	2.093e-09	0.05
298.15	0.15	1.633e-09	0.04
298.15	0.25	1.259e-09	0.031
298.15	0.35	1.063e-09	0.026
298.15	0.45	9.24e-10	0.022
298.15	0.55	8.84e-10	0.021
298.15	0.65	8.71e-10	0.021
298.15	0.75	9.06e-10	0.022
298.15	0.85	9.54e-10	0.023
298.15	0.95	1.007e-09	0.024
308.15	0.05	2.403e-09	0.058
308.15	0.15	1.918e-09	0.046
308.15	0.25	1.566e-09	0.038
308.15	0.35	1.332e-09	0.032
308.15	0.45	1.19e-09	0.029
308.15	0.55	1.126e-09	0.027
308.15	0.65	1.108e-09	0.027
308.15	0.75	1.128e-09	0.027
308.15	0.85	1.202e-09	0.029
308.15	0.95	1.263e-09	0.03
318.15	0.05	2.727e-09	0.065
318.15	0.15	2.236e-09	0.054
318.15	0.25	1.865e-09	0.045
318.15	0.35	1.602e-09	0.039
318.15	0.45	1.486e-09	0.036
318.15	0.55	1.422e-09	0.034
318.15	0.65	1.403e-09	0.034
318.15	0.75	1.443e-09	0.035
318.15	0.85	1.479e-09	0.036
318.15	0.95	1.543e-09	0.037

System: pentan-1-ol + heptane; phases: Liquid
Fixed: Pressure, kPa = 101
Property: Binary diffusion coefficient, m2/s (Liquid); method: digital holographic interferometry
Temperature, K	Mass fraction of pentan-1-ol	Binary diffusion coefficient, m2/s	uncertainty
288.15	0.05	1.65e-09	0.04
288.15	0.15	1.19e-09	0.029
288.15	0.25	8.88e-10	0.022
288.15	0.35	7.12e-10	0.018
288.15	0.45	5.95e-10	0.015
288.15	0.55	5.43e-10	0.013
288.15	0.65	5.49e-10	0.013
288.15	0.75	5.77e-10	0.014
288.15	0.85	6.09e-10	0.015
288.15	0.95	6.5e-10	0.016
298.15	0.05	1.883e-09	0.045
298.15	0.15	1.432e-09	0.035
298.15	0.25	1.128e-09	0.028
298.15	0.35	9.36e-10	0.023
298.15	0.45	8.38e-10	0.02
298.15	0.55	7.8e-10	0.019
298.15	0.65	7.86e-10	0.019
298.15	0.75	8.09e-10	0.019
298.15	0.85	8.4e-10	0.02
298.15	0.95	8.76e-10	0.021
308.15	0.05	2.114e-09	0.051
308.15	0.15	1.691e-09	0.041
308.15	0.25	1.382e-09	0.034
308.15	0.35	1.182e-09	0.029
308.15	0.45	1.07e-09	0.026
308.15	0.55	1.021e-09	0.025
308.15	0.65	9.99e-10	0.024
308.15	0.75	1.042e-09	0.025
308.15	0.85	1.075e-09	0.026
308.15	0.95	1.125e-09	0.027
318.15	0.05	2.423e-09	0.058
318.15	0.15	1.963e-09	0.047
318.15	0.25	1.639e-09	0.04
318.15	0.35	1.422e-09	0.034
318.15	0.45	1.328e-09	0.032
318.15	0.55	1.287e-09	0.031
318.15	0.65	1.275e-09	0.031
318.15	0.75	1.312e-09	0.032
318.15	0.85	1.356e-09	0.033
318.15	0.95	1.379e-09	0.033
