Measured thermophysical data. Solubility of paroxetine hydrochloride hemi-hydrate in (water + acetone)
Source: J. Chem. Thermodyn., 2005, 10.1016/j.jct.2004.12.006
Compound 1: water, H2O, InChI=1S/H2O/h1H2
Compound 2: acetone, C3H6O, InChI=1S/C3H6O/c1-3(2)4/h1-2H3
Compound 3: benzoic acid, C7H6O2, InChI=1S/C7H6O2/c8-7(9)6-4-2-1-3-5-6/h1-5H,(H,8,9)
Compound 4: paroxetine hydrochloride hemihydrate, C38H44Cl2F2N2O7, InChI=1S/2C19H20FNO3.2ClH.H2O/c2*20-15-3-1-13(2-4-15)17-7-8-21-10-14(17)11-22-16-5-6-18-19(9-16)24-12-23-18;;;/h2*1-6,9,14,17,21H,7-8,10-12H2;2*1H;1H2/t2*14-,17-;;;/m00.../s1

System: paroxetine hydrochloride hemihydrate; phases: Crystal, Liquid, Air at 1 atmosphere
Property: Molar enthalpy of transition or fusion, kJ/mol (Crystal); method: DSC
Molar enthalpy of transition or fusion, kJ/mol	uncertainty
33.96	0.7

System: paroxetine hydrochloride hemihydrate; phases: Crystal, Liquid, Air at 1 atmosphere
Property: Normal melting temperature, K (Crystal); method: DTA
Normal melting temperature, K	uncertainty
399.8	0.7

System: benzoic acid + water; phases: Liquid, Crystal
Fixed: Pressure, kPa = 101
Property: Solid-liquid equilibrium temperature, K (Liquid); method: VISOBS
Mole fraction of benzoic acid	Solid-liquid equilibrium temperature, K	uncertainty
0.000503	298.15	0.16
0.000616	303.25	0.16
0.000743	308.45	0.16
0.000889	314.35	0.16
0.00108	320.05	0.16
0.00125	323.65	0.16
0.00135	325.95	0.16
0.00174	332.95	0.16
0.00231	340.05	0.16
0.00288	345.95	0.16
0.00374	352.05	0.16
0.00457	356.25	0.16
0.00566	360.55	0.16
0.0062	362.25	0.16
0.00701	364.25	0.16
0.00875	366.75	0.16
0.00955	368.15	0.16

System: acetone + paroxetine hydrochloride hemihydrate; phases: Liquid, Crystal
Fixed: Pressure, kPa = 101.3
Property: Mole fraction of paroxetine hydrochloride hemihydrate (Liquid); method: laser monitoring observation
Temperature, K	Mole fraction of paroxetine hydrochloride hemihydrate	uncertainty
294.45	3.41e-05	6.825e-06
299	4.03e-05	8.066e-06
303.45	4.586e-05	9.179e-06
308.5	5.0216e-05	1.005e-05
313.15	5.6478e-05	1.13e-05
318.15	6.1236e-05	1.226e-05
323.2	6.5684e-05	1.315e-05

System: water + paroxetine hydrochloride hemihydrate; phases: Liquid, Crystal
Fixed: Pressure, kPa = 101.3
Property: Mole fraction of paroxetine hydrochloride hemihydrate (Liquid); method: laser monitoring observation
Temperature, K	Mole fraction of paroxetine hydrochloride hemihydrate	uncertainty
294.45	5.984e-06	1.198e-06
299	6.983e-06	1.398e-06
303.45	8.975e-06	1.796e-06
308.5	1.3357e-05	2.674e-06
313.15	1.56e-05	3.122e-06
318.15	1.856e-05	3.715e-06
323.2	2.1023e-05	4.208e-06

System: acetone + water + paroxetine hydrochloride hemihydrate; phases: Liquid, Crystal
Fixed: Pressure, kPa = 101.3
Property: Mole fraction of paroxetine hydrochloride hemihydrate (Liquid); method: laser monitoring observation
Temperature, K	Solvent: Mole fraction of water	Mole fraction of paroxetine hydrochloride hemihydrate	uncertainty
294.45	0	3.41e-05	6.825e-06
294.45	0.3119	1.8266e-05	3.656e-06
294.45	0.5049	1.5273e-05	3.057e-06
294.45	0.6361	1.4412e-05	2.885e-06
294.45	0.7311	1.3744e-05	2.751e-06
294.45	0.8031	1.2437e-05	2.489e-06
294.45	0.8595	1.0921e-05	2.186e-06
294.45	0.9049	9.768e-06	1.955e-06
294.45	0.9466	8.274e-06	1.656e-06
294.45	0.9735	7.035e-06	1.408e-06
294.45	1	5.984e-06	1.198e-06
299	0	4.03e-05	8.066e-06
299	0.3119	2.1365e-05	4.276e-06
299	0.5049	1.6762e-05	3.355e-06
299	0.6361	1.6018e-05	3.206e-06
299	0.7311	1.5169e-05	3.036e-06
299	0.8031	1.4288e-05	2.86e-06
299	0.8595	1.283e-05	2.568e-06
299	0.9049	1.1493e-05	2.3e-06
299	0.9466	9.103e-06	1.822e-06
299	0.9735	8.043e-06	1.61e-06
299	1	6.983e-06	1.398e-06
303.45	0	4.586e-05	9.179e-06
303.45	0.3119	2.6885e-05	5.381e-06
303.45	0.5049	2.1998e-05	4.403e-06
303.45	0.6361	2.0628e-05	4.129e-06
303.45	0.7311	1.8946e-05	3.792e-06
303.45	0.8031	1.7859e-05	3.575e-06
303.45	0.8595	1.5845e-05	3.172e-06
303.45	0.9049	1.4527e-05	2.908e-06
303.45	0.9466	1.2467e-05	2.495e-06
303.45	0.9735	1.0533e-05	2.108e-06
303.45	1	8.975e-06	1.796e-06
308.5	0	5.0216e-05	1.005e-05
308.5	0.3119	3.1979e-05	6.401e-06
308.5	0.5049	2.8106e-05	5.626e-06
308.5	0.6361	2.5751e-05	5.154e-06
308.5	0.7311	2.3363e-05	4.676e-06
308.5	0.8031	2.0759e-05	4.155e-06
308.5	0.8595	1.8325e-05	3.668e-06
308.5	0.9049	1.7095e-05	3.422e-06
308.5	0.9466	1.6045e-05	3.212e-06
308.5	0.9735	1.452e-05	2.906e-06
308.5	1	1.3357e-05	2.674e-06
313.15	0	5.6478e-05	1.13e-05
313.15	0.3119	3.5897e-05	7.185e-06
313.15	0.5049	3.2744e-05	6.554e-06
313.15	0.6361	2.9679e-05	5.94e-06
313.15	0.7311	2.7136e-05	5.431e-06
313.15	0.8031	2.4513e-05	4.906e-06
313.15	0.8595	2.1998e-05	4.403e-06
313.15	0.9049	1.9974e-05	3.998e-06
313.15	0.9466	1.8087e-05	3.62e-06
313.15	0.9735	1.7021e-05	3.407e-06
313.15	1	1.56e-05	3.122e-06
318.15	0	6.1236e-05	1.226e-05
318.15	0.3119	4.0115e-05	8.029e-06
318.15	0.5049	3.7446e-05	7.495e-06
318.15	0.6361	3.3599e-05	6.725e-06
318.15	0.7311	3.1045e-05	6.214e-06
318.15	0.8031	2.8212e-05	5.647e-06
318.15	0.8595	2.4429e-05	4.89e-06
318.15	0.9049	2.2644e-05	4.532e-06
318.15	0.9466	2.1064e-05	4.216e-06
318.15	0.9735	1.9617e-05	3.927e-06
318.15	1	1.856e-05	3.715e-06
323.2	0	6.5684e-05	1.315e-05
323.2	0.3119	4.5534e-05	9.114e-06
323.2	0.5049	4.3572e-05	8.721e-06
323.2	0.6361	3.7635e-05	7.533e-06
323.2	0.7311	3.49e-05	6.986e-06
323.2	0.8031	3.1141e-05	6.233e-06
323.2	0.8595	2.7596e-05	5.524e-06
323.2	0.9049	2.5735e-05	5.151e-06
323.2	0.9466	2.3802e-05	4.764e-06
323.2	0.9735	2.2374e-05	4.478e-06
323.2	1	2.1023e-05	4.208e-06
