Measured thermophysical data. Experimental and theoretical investigation of solubility of carbon dioxide  in concentrated aqueous solution of 2-amino-2-methyl-1-propanol and piperazine
Source: J. Chem. Thermodyn., 2012, 10.1016/j.jct.2012.02.012
Compound 1: water, H2O, InChI=1S/H2O/h1H2
Compound 2: carbon dioxide, CO2, InChI=1S/CO2/c2-1-3, purity 99.9%
Compound 3: 2-amino-2-methylpropan-1-ol, C4H11NO, InChI=1S/C4H11NO/c1-4(2,5)3-6/h6H,3,5H2,1-2H3, purity 97%

System: carbon dioxide + 2-amino-2-methylpropan-1-ol + water; phases: Liquid, Gas
Property: Mole fraction of carbon dioxide (Liquid); method: Phase equilibration
Temperature, K	Pressure, kPa	Solvent: Mass fraction of 2-amino-2-methylpropan-1-ol	Mole fraction of carbon dioxide	uncertainty
303	0.268	0.4	0.033399432	0.002008
303	1.09	0.4	0.046207564	0.002788
303	2.864	0.4	0.058154339	0.003499
303	4.642	0.4	0.063599912	0.003843
303	7.917	0.4	0.069805537	0.004212
303	15.01	0.4	0.079364011	0.004808
303	24.54	0.4	0.089417749	0.005402
303	43.86	0.4	0.092459655	0.005617
303	60.26	0.4	0.095481306	0.005796
303	92.81	0.4	0.099543201	0.006017
303	173.9	0.4	0.10232662	0.006181
303	327.3	0.4	0.10452195	0.006348
303	458.7	0.4	0.1055681	0.006386
303	816.9	0.4	0.10746394	0.006502
303	1393	0.4	0.11010466	0.006801
313	0.31	0.4	0.029612651	0.001779
313	1.949	0.4	0.045126133	0.002713
313	4.642	0.4	0.057943629	0.003512
313	8.299	0.4	0.066402659	0.004009
313	14.1	0.4	0.068776984	0.004161
313	24.05	0.4	0.07643614	0.004635
313	41.95	0.4	0.085561747	0.005188
313	66.15	0.4	0.090499466	0.00546
313	131.1	0.4	0.096548673	0.005808
313	307.3	0.4	0.10232662	0.006182
313	504.1	0.4	0.10404562	0.006292
313	816.9	0.4	0.10604281	0.006446
313	1092	0.4	0.10708542	0.006518
313	1360	0.4	0.10878626	0.006676
313	1472	0.4	0.10850323	0.006707
318	0.909	0.5	0.04018193	0.002415
318	5.308	0.5	0.06727496	0.00409
318	27.62	0.5	0.095088628	0.005731
318	38.98	0.5	0.097833772	0.005877
318	58.82	0.5	0.1036798	0.006231
318	95.26	0.5	0.11356497	0.00682
318	180.9	0.5	0.12103182	0.007438
318	194	0.5	0.12671023	0.007795
323	0.753	0.4	0.027932564	0.001679
323	1.643	0.4	0.035171238	0.002115
323	2.043	0.4	0.039572466	0.002378
323	5.376	0.4	0.050508905	0.003043
323	14.32	0.4	0.061408336	0.003696
323	30.89	0.4	0.071548871	0.004315
323	51.07	0.4	0.080570121	0.004875
323	68.48	0.4	0.081171992	0.004977
323	75.58	0.4	0.084766732	0.005337
323	137.9	0.4	0.093436585	0.005629
323	256.2	0.4	0.1001205	0.006027
323	604.1	0.4	0.10270919	0.006202
323	709.3	0.4	0.10423621	0.006307
323	1022	0.4	0.10604281	0.006452
328	3.715	0.5	0.053018594	0.003192
328	15.46	0.5	0.072221702	0.004359
328	22.96	0.5	0.078403234	0.004731
328	28.51	0.5	0.084925489	0.005116
328	39.01	0.5	0.089547915	0.005386
328	57.69	0.5	0.097423063	0.005855
328	110.1	0.5	0.10784759	0.006489
