Measured thermophysical data. Enthalpies of formation of 5,6-dihydro-5-methyluracil  and 5,6-dihydro-6-methyluracil
Source: J. Chem. Thermodyn., 2013, 10.1016/j.jct.2013.05.002
Compound 1: carbon dioxide, CO2, InChI=1S/CO2/c2-1-3
Compound 2: nitrogen, N2, InChI=1S/N2/c1-2
Compound 3: water, H2O, InChI=1S/H2O/h1H2
Compound 4: oxygen, O2, InChI=1S/O2/c1-2
Compound 5: 5,6-dihydro-5-methyluracil, C5H8N2O2, InChI=1S/C5H8N2O2/c1-3-2-6-5(9)7-4(3)8/h3H,2H2,1H3,(H2,6,7,8,9), purity 98%
Compound 6: 5,6-dihydro-6-methyluracil, C5H8N2O2, InChI=1S/C5H8N2O2/c1-3-2-4(8)7-5(9)6-3/h3H,2H2,1H3,(H2,6,7,8,9), purity 99%

System: 5,6-dihydro-5-methyluracil; phases: Crystal, Gas
Property: Vapor or sublimation pressure, kPa (Crystal); method: Calculated from knudsen effusion weight loss
Temperature, K	Vapor or sublimation pressure, kPa	uncertainty
379.15	0.000138	7e-06
381.18	0.000168	8e-06
383.14	0.000198	1e-05
385.15	0.000243	1.2e-05
387.19	0.000301	1.5e-05
389.15	0.000364	1.8e-05
391.15	0.000442	2.2e-05
393.19	0.000538	2.7e-05
395.16	0.000632	3.2e-05
397.15	0.000786	3.9e-05
399.19	0.000906	4.5e-05
401.16	0.001106	0.000113
379.15	0.000131	7e-06
381.18	0.000163	8e-06
383.14	0.000197	1e-05
385.15	0.000242	1.2e-05
387.19	0.000298	1.5e-05
389.15	0.000359	1.8e-05
391.15	0.000427	2.1e-05
393.19	0.000521	2.6e-05
395.16	0.000633	3.2e-05
397.15	0.000756	3.8e-05
399.19	0.000951	4.8e-05
401.16	0.001104	0.000113
379.15	0.000127	6e-06
381.18	0.000157	8e-06
383.14	0.00019	1e-05
385.15	0.000234	1.2e-05
387.19	0.000287	1.4e-05
389.15	0.000346	1.7e-05
391.15	0.00042	2.1e-05
393.19	0.000508	2.5e-05
395.16	0.000613	3.1e-05
397.15	0.000737	3.7e-05
399.19	0.000882	4.4e-05
401.16	0.001068	0.000108

System: 5,6-dihydro-6-methyluracil; phases: Crystal, Gas
Property: Vapor or sublimation pressure, kPa (Crystal); method: Calculated from knudsen effusion weight loss
Temperature, K	Vapor or sublimation pressure, kPa	uncertainty
371.15	0.000152	8e-06
373.18	0.000171	9e-06
375.12	0.000211	1.1e-05
377.15	0.000262	1.3e-05
379.19	0.000326	1.6e-05
381.13	0.000395	2e-05
383.15	0.000482	2.4e-05
385.18	0.000581	2.9e-05
387.14	0.000692	3.5e-05
389.15	0.000846	4.2e-05
393.16	0.001202	0.000125
371.15	0.000144	7e-06
373.18	0.000181	9e-06
375.12	0.000218	1.1e-05
377.15	0.000258	1.3e-05
379.19	0.000302	1.5e-05
381.13	0.000386	1.9e-05
383.15	0.000464	2.3e-05
385.18	0.000573	2.9e-05
387.14	0.000688	3.4e-05
389.15	0.000835	4.2e-05
391.19	0.000994	5e-05
393.16	0.0012	0.000125
371.15	0.000139	7e-06
373.18	0.000171	9e-06
375.12	0.000211	1.1e-05
377.15	0.000253	1.3e-05
379.19	0.000311	1.6e-05
381.13	0.000378	1.9e-05
383.15	0.00045	2.3e-05
385.18	0.000545	2.7e-05
387.14	0.00067	3.4e-05
389.15	0.000796	4e-05
391.19	0.000966	4.8e-05
393.16	0.001159	0.00012

Reaction: -1 5,6-dihydro-5-methyluracil + 5 carbon dioxide + 1 nitrogen + 4 water + -6 oxygen
Property: Specific internal energy of reaction at constant volume, J/g
-20219.3

Reaction: -1 5,6-dihydro-6-methyluracil + 5 carbon dioxide + 1 nitrogen + 4 water + -6 oxygen
Property: Specific internal energy of reaction at constant volume, J/g
-20165.5
