Measured thermophysical data. Isopropanol dehydration via extractive distillation using low transition temperature mixtures as entrainers
Source: J. Chem. Thermodyn., 2015, 10.1016/j.jct.2015.02.003
Compound 1: propan-2-ol, C3H8O, InChI=1S/C3H8O/c1-3(2)4/h3-4H,1-2H3, purity 98%
Compound 2: 2-hydroxyethanoic acid, C2H4O3, InChI=1S/C2H4O3/c3-1-2(4)5/h3H,1H2,(H,4,5), purity 99%
Compound 3: (S)-2-hydroxypropanoic acid, C3H6O3, InChI=1S/C3H6O3/c1-2(4)3(5)6/h2,4H,1H3,(H,5,6)/t2-/m0/s1, purity 99%
Compound 4: choline chloride, C5H14ClNO, InChI=1S/C5H14NO.ClH/c1-6(2,3)4-5-7;/h7H,4-5H2,1-3H3;1H/q+1;/p-1, purity 98%
Compound 5: water, H2O, InChI=1S/H2O/h1H2, purity 99.9%

System: choline chloride + propan-2-ol + 2-hydroxyethanoic acid; phases: Liquid, Gas
Fixed: Solvent: Mole fraction of choline chloride = 0.25
Property: Boiling temperature at pressure P, K (Liquid); method: Ebulliometric method (Recirculating still)
Mole fraction of propan-2-ol	Pressure, kPa	Boiling temperature at pressure P, K	uncertainty
0.95	10	307.2	1.1
0.95	15	314.4	1.1
0.95	20	319.9	1
0.95	25	324.2	1
0.95	30	327.8	1
0.95	40	333.8	1
0.95	50	338.7	1
0.95	60	342.8	1
0.95	70	346.3	1
0.95	80	349.5	1
0.95	89.9	352.3	1
0.95	101.2	355.3	1
0.9	10	306.8	1.1
0.9	15	314	1.1
0.9	20	318.9	1
0.9	30	326.8	1
0.9	40	332.3	1
0.9	50	337.6	1
0.9	60	341.8	1
0.9	69.9	345.5	1
0.9	80	348.6	1
0.9	90	351.4	1
0.9	101.3	354.3	1
0.95	100	355.2	1
0.9	100	354.3	1

System: choline chloride + propan-2-ol + (S)-2-hydroxypropanoic acid; phases: Liquid, Gas
Fixed: Solvent: Mole fraction of choline chloride = 0.333
Property: Boiling temperature at pressure P, K (Liquid); method: Ebulliometric method (Recirculating still)
Mole fraction of propan-2-ol	Pressure, kPa	Boiling temperature at pressure P, K	uncertainty
0.95	10	307.2	1.1
0.95	15	314.4	1.1
0.95	20	319.7	1
0.95	25	324	1
0.95	30	327.6	1
0.95	40	333.3	1
0.95	49.8	338.2	1
0.95	60	342	1
0.95	69.9	345.6	1
0.95	80	348.5	1
0.95	90	351.8	1
0.95	99.9	354.2	1
0.9	10	307.3	1.1
0.9	15	314.4	1.1
0.9	20	319.7	1
0.9	30	327.8	1
0.9	40	333.7	1
0.9	50	338.5	1
0.9	60	342.5	1
0.9	70	346.1	1
0.9	80	349	1
0.9	89.9	352	1
0.9	100	354.5	1
0.95	100	354.6	1
0.9	100	353.6	1

System: choline chloride + 2-hydroxyethanoic acid + water; phases: Liquid, Gas
Fixed: Solvent: Mole fraction of choline chloride = 0.25
Property: Boiling temperature at pressure P, K (Liquid); method: Ebulliometric method (Recirculating still)
Mole fraction of water	Pressure, kPa	Boiling temperature at pressure P, K	uncertainty
0.95	10	320	1.1
0.95	15	328.1	1.1
0.95	20	333.8	1.1
0.95	25	338.7	1
0.95	30	342.2	1
0.95	40	349.3	1
0.95	50	354.8	1
0.95	60	359.3	1
0.95	70	363.2	1
0.95	80	366.7	1
0.95	90	369.7	1
0.95	101.3	372.8	1.1
0.9	10	319.7	1.1
0.9	15	327.3	1.1
0.9	20	333.3	1
0.9	30	341	1
0.9	40	349.1	1
0.9	50	354.5	1
0.9	60	358.9	1
0.9	70	363.2	1
0.9	80	366.3	1
0.9	90	369.8	1
0.9	100	371.8	1
0.95	100	372	1.1

System: choline chloride + (S)-2-hydroxypropanoic acid + water; phases: Liquid, Gas
Fixed: Solvent: Mole fraction of choline chloride = 0.333
Property: Boiling temperature at pressure P, K (Liquid); method: Ebulliometric method (Recirculating still)
Mole fraction of water	Pressure, kPa	Boiling temperature at pressure P, K	uncertainty
0.95	10	319.5	1.1
0.95	15	327.3	1.1
0.95	20	333.8	1.1
0.95	24.9	338.3	1
0.95	30	342.3	1
0.95	40	349.1	1
0.95	49.9	354.5	1
0.95	60	359.1	1
0.95	70	362.4	1
0.95	80	365.7	1
0.95	89.9	368.6	1
0.95	100	371.1	1
0.9	10	320.5	1.1
0.9	14.9	328.2	1.1
0.9	20	334.2	1
0.9	30	342.4	1
0.9	40	349.1	1
0.9	50	354.6	1
0.9	60	359.2	1
0.9	70	363.2	1
0.9	80	366.7	1
0.9	90	369.9	1
0.9	100	371.6	1
0.9	100	371.5	1
