Measured thermophysical data. Thermodynamics of complexation of aqueous 18-crown-6 with potassium ion: apparent molar volumes and apparent molar heat capacities of aqueous 18-crown-6 and of the (18-crown-6 + potassium chloride) complex at temperatures (278.15 to 393.15) K, at molalities (0.02 to 0.3) mol.kg-1, and at the pressure 0.35 MPa
Source: J. Chem. Thermodyn., 2004, 10.1016/j.jct.2004.07.027
Compound 1: 1,4,7,10,13,16-hexaoxacyclooctadecane, C12H24O6, InChI=1S/C12H24O6/c1-2-14-5-6-16-9-10-18-12-11-17-8-7-15-4-3-13-1/h1-12H2, purity 99.9%
Compound 2: potassium chloride, ClK, InChI=1S/ClH.K/h1H;/q;+1/p-1, purity 99.99%
Compound 3: water, H2O, InChI=1S/H2O/h1H2, purity 99.99%

System: water + 1,4,7,10,13,16-hexaoxacyclooctadecane; phases: Liquid
Fixed: Pressure, kPa = 350
Property: Apparent molar heat capacity, J/K/mol (Liquid); method: Extra sensitive DSC
Temperature, K	Molality, mol/kg of 1,4,7,10,13,16-hexaoxacyclooctadecane	Apparent molar heat capacity, J/K/mol	uncertainty
278.15	0.01001	748	17
278.15	0.02001	740.4	8.5
278.15	0.03002	741.5	5.7
278.15	0.0401	742.3	4.4
278.15	0.04995	746.2	3.5
278.15	0.06015	746.9	2.9
278.15	0.08002	744.3	2.2
278.15	0.12235	740.8	1.5
278.15	0.1472	738.5	1.2
278.15	0.19345	734.51	0.98
278.15	0.29255	725.83	0.69
283.15	0.01001	768	12
283.15	0.02001	764.2	6.1
283.15	0.03002	764.8	4.1
283.15	0.0401	765.6	3.1
283.15	0.04995	769.1	2.5
283.15	0.06015	769.3	2.1
283.15	0.08002	767.2	1.6
283.15	0.12235	764.3	1.1
283.15	0.1472	762.46	0.93
283.15	0.19345	759.11	0.76
283.15	0.29255	751.64	0.55
288.15	0.01001	788	11
288.15	0.02001	782.4	5.3
288.15	0.03002	783.2	3.5
288.15	0.0401	785.4	2.7
288.15	0.04995	788.8	2.2
288.15	0.06015	788.7	1.8
288.15	0.08002	786.6	1.4
288.15	0.12235	784.29	0.93
288.15	0.1472	782.67	0.83
288.15	0.19345	779.7	0.67
288.15	0.29255	773.51	0.48
293.15	0.01001	805.9	9.8
293.15	0.02001	800.2	4.8
293.15	0.03002	800.8	3.2
293.15	0.0401	803.3	2.5
293.15	0.04995	806.1	2
293.15	0.06015	806	1.7
293.15	0.08002	804.3	1.3
293.15	0.12235	802.22	0.86
293.15	0.1472	800.93	0.76
293.15	0.19345	798.36	0.61
293.15	0.29255	793.29	0.44
298.15	0.01001	820.2	9.5
298.15	0.02001	817	4.6
298.15	0.03002	817.3	3.1
298.15	0.0401	820	2.4
298.15	0.04995	822.2	1.9
298.15	0.06015	822.4	1.6
298.15	0.08002	820.7	1.2
298.15	0.12235	819.28	0.83
298.15	0.1472	818.39	0.77
298.15	0.19345	816.04	0.56
298.15	0.29255	811.91	0.4
303.15	0.01001	836.9	9.2
303.15	0.02001	832.9	4.4
303.15	0.03002	833.1	3
303.15	0.0401	836.5	2.3
303.15	0.04995	838.6	1.9
303.15	0.06015	838.4	1.5
303.15	0.08002	836.6	1.1
303.15	0.12235	835.6	0.8
303.15	0.1472	835.12	0.75
303.15	0.19345	832.91	0.55
303.15	0.29255	829.51	0.39
308.15	0.01001	852.1	9.3
308.15	0.02001	847.8	4.3
308.15	0.03002	848.2	2.9
308.15	0.0401	852.3	2.3
308.15	0.04995	853.8	1.9
308.15	0.06015	853.6	1.5
308.15	0.08002	852.2	1.1
308.15	0.12235	851.14	0.77
308.15	0.1472	850.86	0.75
308.15	0.19345	849	0.61
308.15	0.29255	846.24	0.43
313.15	0.01001	866.4	9
313.15	0.02001	862	4.3
313.15	0.03002	862.5	2.9
313.15	0.0401	867.6	2.3
313.15	0.04995	868.8	1.8
313.15	0.06015	868.4	1.5
313.15	0.08002	867.4	1.2
313.15	0.12235	866.13	0.76
313.15	0.1472	866.03	0.71
313.15	0.19345	864.46	0.66
313.15	0.29255	862.08	0.46
318.15	0.01001	881.2	9.1
318.15	0.02001	875.7	4.2
318.15	0.03002	875.9	2.8
318.15	0.0401	881.8	2.3
318.15	0.04995	882.5	1.8
318.15	0.06015	882.3	1.6
318.15	0.08002	881.7	1.2
318.15	0.12235	880.23	0.79
318.15	0.1472	880.31	0.7
318.15	0.19345	878.85	0.65
318.15	0.29255	876.99	0.45
323.15	0.01001	893	8.8
323.15	0.02001	888.8	4.2
323.15	0.03002	888.4	2.8
323.15	0.0401	894.9	2.2
323.15	0.04995	895.6	1.8
323.15	0.06015	895.5	1.5
323.15	0.08002	894.7	1.2
323.15	0.12235	893.76	0.74
323.15	0.1472	893.83	0.69
323.15	0.19345	892.3	0.64
323.15	0.29255	890.8	0.44
328.15	0.01001	904.7	8.3
328.15	0.02001	900.1	4.1
328.15	0.03002	900.3	2.8
328.15	0.0401	907.2	2.1
328.15	0.04995	907.7	1.7
328.15	0.06015	907.3	1.5
328.15	0.08002	906.8	1.1
328.15	0.12235	905.99	0.73
328.15	0.1472	906.11	0.7
328.15	0.19345	904.68	0.61
328.15	0.29255	903.37	0.42
333.15	0.01001	915.3	8.1
333.15	0.02001	910.7	4.1
333.15	0.03002	911	2.8
333.15	0.0401	918.1	2
333.15	0.04995	918.5	1.7
333.15	0.06015	918	1.5
333.15	0.08002	917.5	1.1
333.15	0.12235	916.74	0.72
333.15	0.1472	917.09	0.69
333.15	0.19345	915.79	0.6
333.15	0.29255	914.65	0.41
338.15	0.01001	925.2	8.3
338.15	0.02001	920.5	4.1
338.15	0.03002	920.9	2.7
338.15	0.0401	927.9	2.1
338.15	0.04995	928.1	1.7
338.15	0.06015	927.8	1.5
338.15	0.08002	927.2	1.1
338.15	0.12235	926.44	0.7
338.15	0.1472	926.89	0.67
338.15	0.19345	925.61	0.58
338.15	0.29255	924.48	0.4
343.15	0.01001	932.5	8.4
343.15	0.02001	929.1	4.1
343.15	0.03002	929.3	2.7
343.15	0.0401	936.1	2.1
343.15	0.04995	936.3	1.7
343.15	0.06015	936.3	1.5
343.15	0.08002	935.5	1.1
343.15	0.12235	934.88	0.7
343.15	0.1472	935.27	0.7
343.15	0.19345	934.03	0.58
343.15	0.29255	932.93	0.39
348.15	0.01001	939.9	8.4
348.15	0.02001	936.3	4.1
348.15	0.03002	936.4	2.7
348.15	0.0401	942.7	2.1
348.15	0.04995	943.1	1.7
348.15	0.06015	943.5	1.4
348.15	0.08002	942.4	1
348.15	0.12235	941.88	0.69
348.15	0.1472	942.17	0.71
348.15	0.19345	941.03	0.58
348.15	0.29255	939.88	0.4
353.15	0.01001	946.2	8.2
353.15	0.02001	942	4.1
353.15	0.03002	942.4	2.8
353.15	0.0401	949	2.1
353.15	0.04995	949.2	1.7
353.15	0.06015	949	1.4
353.15	0.08002	948.1	1
353.15	0.12235	947.6	0.69
353.15	0.1472	947.8	0.7
353.15	0.19345	946.84	0.58
353.15	0.29255	945.53	0.39
358.15	0.01001	951.4	8.2
358.15	0.02001	946.9	4.1
358.15	0.03002	947.4	2.8
358.15	0.0401	954.1	2.1
358.15	0.04995	954	1.7
358.15	0.06015	953.6	1.4
358.15	0.08002	952.9	1
358.15	0.12235	952.29	0.69
358.15	0.1472	952.42	0.69
358.15	0.19345	951.41	0.55
358.15	0.29255	949.82	0.37
363.15	0.01001	956.3	8.5
363.15	0.02001	950.6	4.1
363.15	0.03002	951.5	2.7
363.15	0.0401	957.7	2.1
363.15	0.04995	957.7	1.7
363.15	0.06015	957.3	1.4
363.15	0.08002	956.5	1.1
363.15	0.12235	955.71	0.72
363.15	0.1472	955.85	0.68
363.15	0.19345	954.72	0.51
363.15	0.29255	952.93	0.35
368.15	0.01001	958.6	8.2
368.15	0.02001	953.5	4.1
368.15	0.03002	954.4	2.7
368.15	0.0401	959.7	2.1
368.15	0.04995	960.2	1.6
368.15	0.06015	959.9	1.4
368.15	0.08002	959.2	1.1
368.15	0.12235	958.26	0.7
368.15	0.1472	958.12	0.65
368.15	0.19345	957	0.5
368.15	0.29255	954.88	0.34
373.15	0.01001	959.1	8.1
373.15	0.02001	955.6	4.1
373.15	0.03002	955.9	2.7
373.15	0.0401	960.6	2
373.15	0.04995	961.7	1.6
373.15	0.06015	961.5	1.4
373.15	0.08002	960.8	1
373.15	0.12235	959.82	0.7
373.15	0.1472	959.52	0.66
373.15	0.19345	958.21	0.49
373.15	0.29255	955.86	0.33
378.15	0.01001	960.1	8
378.15	0.02001	955.9	4.1
378.15	0.03002	957.7	2.8
378.15	0.0401	960.8	2
378.15	0.04995	962.6	1.6
378.15	0.06015	962.6	1.4
378.15	0.08002	961.5	1
378.15	0.12235	960.5	0.69
378.15	0.1472	960.13	0.68
378.15	0.19345	958.64	0.5
378.15	0.29255	956.01	0.34
383.15	0.01001	960.3	7.9
383.15	0.02001	956.3	4.2
383.15	0.03002	959.2	2.8
383.15	0.0401	959.6	2
383.15	0.04995	962.7	1.7
383.15	0.06015	962.5	1.4
383.15	0.08002	961.5	1
383.15	0.12235	960.35	0.68
383.15	0.1472	959.95	0.66
383.15	0.19345	958.25	0.5
383.15	0.29255	955.31	0.34
388.15	0.01001	958.8	8.2
388.15	0.02001	955.7	4.2
388.15	0.03002	959.9	2.8
388.15	0.0401	956.7	2.1
388.15	0.04995	962.3	1.8
388.15	0.06015	961.8	1.5
388.15	0.08002	960.8	1.1
388.15	0.12235	959.65	0.7
388.15	0.1472	959.06	0.7
388.15	0.19345	957.22	0.52
388.15	0.29255	954.17	0.35
393.15	0.01001	958.8	9.7
393.15	0.02001	954.7	4.2
393.15	0.03002	967.1	2.8
393.15	0.0401	951.9	2.4
393.15	0.04995	961.7	2.2
393.15	0.06015	961.2	1.8
393.15	0.08002	960.2	1.3
393.15	0.12235	958.56	0.75
393.15	0.1472	957.61	0.83
393.15	0.19345	955.72	0.55
393.15	0.29255	952.32	0.38

System: water + 1,4,7,10,13,16-hexaoxacyclooctadecane; phases: Liquid
Fixed: Pressure, kPa = 350
Property: Apparent molar volume, m3/mol (Liquid); method: Calculated with densities of this investigation
Temperature, K	Molality, mol/kg of 1,4,7,10,13,16-hexaoxacyclooctadecane	Apparent molar volume, m3/mol	uncertainty
278.15	0.01001	0.0002162	5.3e-06
278.15	0.02001	0.0002249	2.5e-06
278.15	0.03002	0.0002186	1.7e-06
278.15	0.0401	0.0002172	1.9e-06
278.15	0.04995	0.0002177	1.5e-06
278.15	0.06015	0.0002183	1.2e-06
278.15	0.08002	0.00021798	8.3e-07
278.15	0.12235	0.00021807	5.5e-07
278.15	0.1472	0.00021778	2.9e-07
278.15	0.19345	0.00021776	2.3e-07
278.15	0.29255	0.00021758	1.6e-07
283.15	0.01001	0.0002184	5e-06
283.15	0.02001	0.0002248	1.7e-06
283.15	0.03002	0.0002202	1.2e-06
283.15	0.0401	0.0002188	1.2e-06
283.15	0.04995	0.0002191	1e-06
283.15	0.06015	0.00021969	8.2e-07
283.15	0.08002	0.0002192	7.4e-07
283.15	0.12235	0.00021943	4.9e-07
283.15	0.1472	0.00021915	2.3e-07
283.15	0.19345	0.0002192	2e-07
283.15	0.29255	0.00021904	1.4e-07
288.15	0.01001	0.0002177	4e-06
288.15	0.02001	0.00022477	6.7e-07
288.15	0.03002	0.0002216	4.6e-07
288.15	0.0401	0.00021982	9e-07
288.15	0.04995	0.00022047	7.2e-07
288.15	0.06015	0.00022071	6e-07
288.15	0.08002	0.00022032	5.1e-07
288.15	0.12235	0.00022051	3.4e-07
288.15	0.1472	0.00022029	1.8e-07
288.15	0.19345	0.00022038	1.4e-07
288.15	0.29255	0.00022021	1.1e-07
298.15	0.01001	0.0002128	4e-06
298.15	0.02001	0.0002256	5.9e-07
298.15	0.03002	0.00022358	4.6e-07
298.15	0.0401	0.00022236	5.2e-07
298.15	0.04995	0.0002229	4.2e-07
298.15	0.06015	0.0002231	3.5e-07
298.15	0.08002	0.00022258	4.7e-07
298.15	0.12235	0.00022268	3.1e-07
298.15	0.1472	0.00022258	1.8e-07
298.15	0.19345	0.00022273	7e-08
298.15	0.29255	0.00022255	6e-08
308.15	0.01001	0.000216	4.6e-06
308.15	0.02001	0.00022678	3.1e-07
308.15	0.03002	0.0002258	3.1e-07
308.15	0.0401	0.00022442	6.4e-07
308.15	0.04995	0.00022527	5.2e-07
308.15	0.06015	0.00022519	4.3e-07
308.15	0.08002	0.00022466	5.4e-07
308.15	0.12235	0.00022464	3.6e-07
308.15	0.1472	0.00022481	3.2e-07
308.15	0.19345	0.00022488	5e-08
308.15	0.29255	0.00022472	5e-08
318.15	0.01001	0.0002198	4.4e-06
318.15	0.02001	0.00022809	2.9e-07
318.15	0.03002	0.00022747	5.7e-07
318.15	0.0401	0.00022623	4.2e-07
318.15	0.04995	0.00022712	3.4e-07
318.15	0.06015	0.00022704	2.9e-07
318.15	0.08002	0.00022677	4.5e-07
318.15	0.12235	0.00022667	3e-07
318.15	0.1472	0.00022688	2.9e-07
318.15	0.19345	0.00022718	1e-07
318.15	0.29255	0.00022684	8e-08
328.15	0.01001	0.0002222	5.2e-06
328.15	0.02001	0.0002313	1.2e-06
328.15	0.03002	0.00022914	4.3e-07
328.15	0.0401	0.00022877	5.3e-07
328.15	0.04995	0.00022955	4.3e-07
328.15	0.06015	0.00022905	3.6e-07
328.15	0.08002	0.00022885	5.5e-07
328.15	0.12235	0.00022858	3.6e-07
328.15	0.1472	0.00022893	2.3e-07
328.15	0.19345	0.00022931	1.9e-07
328.15	0.29255	0.00022897	1.3e-07
338.15	0.01001	0.0002275	4.2e-06
338.15	0.02001	0.0002331	2.2e-06
338.15	0.03002	0.0002314	1.3e-06
338.15	0.0401	0.00023114	6.1e-07
338.15	0.04995	0.00023198	4.9e-07
338.15	0.06015	0.00023108	4.1e-07
338.15	0.08002	0.00023096	4.7e-07
338.15	0.12235	0.0002307	3.1e-07
338.15	0.1472	0.00023103	1.9e-07
338.15	0.19345	0.00023124	1.5e-07
338.15	0.29255	0.00023109	1.1e-07
348.15	0.01001	0.0002303	4.9e-06
348.15	0.02001	0.0002352	1.5e-06
348.15	0.03002	0.00023419	9.4e-07
348.15	0.0401	0.0002335	4e-07
348.15	0.04995	0.00023397	3.2e-07
348.15	0.06015	0.00023327	2.7e-07
348.15	0.08002	0.00023293	3.5e-07
348.15	0.12235	0.00023303	2.3e-07
348.15	0.1472	0.00023328	2.5e-07
348.15	0.19345	0.00023356	1.8e-07
348.15	0.29255	0.00023339	1.3e-07
358.15	0.01001	0.0002339	3.6e-06
358.15	0.02001	0.00023537	6.5e-07
358.15	0.03002	0.00023681	5.5e-07
358.15	0.0401	0.00023601	8.5e-07
358.15	0.04995	0.00023583	6.8e-07
358.15	0.06015	0.00023526	5.7e-07
358.15	0.08002	0.00023502	2.9e-07
358.15	0.12235	0.00023523	1.9e-07
358.15	0.1472	0.00023561	3.6e-07
358.15	0.19345	0.00023594	1.5e-07
358.15	0.29255	0.00023563	1.1e-07
368.15	0.01001	0.0002374	3e-06
368.15	0.02001	0.00023705	2.7e-07
368.15	0.03002	0.00023862	4.3e-07
368.15	0.0401	0.0002394	1.2e-06
368.15	0.04995	0.0002391	1e-06
368.15	0.06015	0.00023794	8.4e-07
368.15	0.08002	0.00023773	3.4e-07
368.15	0.12235	0.00023739	2.3e-07
368.15	0.1472	0.00023805	2.1e-07
368.15	0.19345	0.00023811	1.5e-07
368.15	0.29255	0.000238	1.1e-07

System: potassium chloride + water + 1,4,7,10,13,16-hexaoxacyclooctadecane; phases: Liquid
Fixed: Pressure, kPa = 350
Property: Apparent molar heat capacity, J/K/mol (Liquid); method: Extra sensitive DSC
Temperature, K	Molality, mol/kg of 1,4,7,10,13,16-hexaoxacyclooctadecane	Molality, mol/kg of potassium chloride	Apparent molar heat capacity, J/K/mol	uncertainty
278.15	0.02018	0.02018	858	15
278.15	0.03102	0.03102	848.2	9.6
278.15	0.04034	0.04034	836.4	8
278.15	0.04981	0.04981	838.3	6.5
278.15	0.05974	0.05974	806.5	5
278.15	0.07963	0.07963	816.6	3.8
278.15	0.10001	0.10001	810.6	3
278.15	0.14067	0.14067	804.7	2.1
278.15	0.17994	0.17994	791.9	1.7
278.15	0.295	0.295	772.3	1.1
283.15	0.02018	0.02018	872	14
283.15	0.03102	0.03102	863.5	9.2
283.15	0.04034	0.04034	852.5	8
283.15	0.04981	0.04981	854.6	6.5
283.15	0.05974	0.05974	824.4	4.8
283.15	0.07963	0.07963	833.9	3.6
283.15	0.10001	0.10001	828.3	2.9
283.15	0.14067	0.14067	821.7	2.1
283.15	0.17994	0.17994	809.8	1.6
283.15	0.295	0.295	791.9	1.1
288.15	0.02018	0.02018	882	14
288.15	0.03102	0.03102	873.5	8.8
288.15	0.04034	0.04034	864.2	7.9
288.15	0.04981	0.04981	866.5	6.4
288.15	0.05974	0.05974	836.5	4.6
288.15	0.07963	0.07963	845.6	3.5
288.15	0.10001	0.10001	840.3	2.8
288.15	0.14067	0.14067	834	2
288.15	0.17994	0.17994	822.8	1.6
288.15	0.295	0.295	806.1	1
293.15	0.02018	0.02018	889	13
293.15	0.03102	0.03102	881.7	8.5
293.15	0.04034	0.04034	873.8	7.7
293.15	0.04981	0.04981	875.8	6.2
293.15	0.05974	0.05974	846.9	4.4
293.15	0.07963	0.07963	855.5	3.3
293.15	0.10001	0.10001	850.4	2.7
293.15	0.14067	0.14067	844.1	1.9
293.15	0.17994	0.17994	833.3	1.5
293.15	0.295	0.295	817.5	1
298.15	0.02018	0.02018	896	13
298.15	0.03102	0.03102	889.4	8.2
298.15	0.04034	0.04034	882.5	7.7
298.15	0.04981	0.04981	884.6	6.2
298.15	0.05974	0.05974	856.5	4.3
298.15	0.07963	0.07963	864.9	3.2
298.15	0.10001	0.10001	860	2.6
298.15	0.14067	0.14067	853.2	1.8
298.15	0.17994	0.17994	842.8	1.5
298.15	0.295	0.295	827.68	0.96
303.15	0.02018	0.02018	903	12
303.15	0.03102	0.03102	897.1	7.8
303.15	0.04034	0.04034	892	7.7
303.15	0.04981	0.04981	893.6	6.3
303.15	0.05974	0.05974	865.6	4.1
303.15	0.07963	0.07963	873.5	3.1
303.15	0.10001	0.10001	868.9	2.5
303.15	0.14067	0.14067	862.1	1.8
303.15	0.17994	0.17994	852	1.4
303.15	0.295	0.295	837.31	0.93
308.15	0.02018	0.02018	909	12
308.15	0.03102	0.03102	904.3	7.5
308.15	0.04034	0.04034	900.5	7.8
308.15	0.04981	0.04981	902.4	6.4
308.15	0.05974	0.05974	874.4	3.9
308.15	0.07963	0.07963	882.2	3
308.15	0.10001	0.10001	877.6	2.4
308.15	0.14067	0.14067	870.6	1.7
308.15	0.17994	0.17994	860.6	1.4
308.15	0.295	0.295	846.46	0.9
313.15	0.02018	0.02018	916	11
313.15	0.03102	0.03102	911.6	7.2
313.15	0.04034	0.04034	910	7.7
313.15	0.04981	0.04981	911.6	6.3
313.15	0.05974	0.05974	883.2	3.8
313.15	0.07963	0.07963	890.7	2.8
313.15	0.10001	0.10001	886.2	2.3
313.15	0.14067	0.14067	879.5	1.6
313.15	0.17994	0.17994	869.5	1.3
313.15	0.295	0.295	855.46	0.87
318.15	0.02018	0.02018	922	11
318.15	0.03102	0.03102	918.8	6.9
318.15	0.04034	0.04034	918.5	7.8
318.15	0.04981	0.04981	920	6.4
318.15	0.05974	0.05974	890.7	3.6
318.15	0.07963	0.07963	899.1	2.7
318.15	0.10001	0.10001	894.7	2.2
318.15	0.14067	0.14067	888.1	1.6
318.15	0.17994	0.17994	878.2	1.3
318.15	0.295	0.295	864.19	0.83
323.15	0.02018	0.02018	928	10
323.15	0.03102	0.03102	925.7	6.5
323.15	0.04034	0.04034	925.7	7.4
323.15	0.04981	0.04981	927.7	6
323.15	0.05974	0.05974	900	3.4
323.15	0.07963	0.07963	907.5	2.6
323.15	0.10001	0.10001	903.4	2.1
323.15	0.14067	0.14067	896.8	1.5
323.15	0.17994	0.17994	887.1	1.2
323.15	0.295	0.295	873.04	0.8
328.15	0.02018	0.02018	933.5	9.6
328.15	0.03102	0.03102	932.6	6.2
328.15	0.04034	0.04034	932.8	7
328.15	0.04981	0.04981	934.8	5.7
328.15	0.05974	0.05974	908.9	3.3
328.15	0.07963	0.07963	915.6	2.5
328.15	0.10001	0.10001	911.6	2
328.15	0.14067	0.14067	905.5	1.4
328.15	0.17994	0.17994	895.8	1.1
328.15	0.295	0.295	881.63	0.77
333.15	0.02018	0.02018	938.7	9.1
333.15	0.03102	0.03102	939	5.9
333.15	0.04034	0.04034	939.7	6.6
333.15	0.04981	0.04981	941.6	5.3
333.15	0.05974	0.05974	917	3.1
333.15	0.07963	0.07963	923.7	2.3
333.15	0.10001	0.10001	919.8	1.9
333.15	0.14067	0.14067	914	1.4
333.15	0.17994	0.17994	904.4	1.1
333.15	0.295	0.295	890.12	0.74
338.15	0.02018	0.02018	943.3	8.6
338.15	0.03102	0.03102	944.3	5.6
338.15	0.04034	0.04034	945.7	6
338.15	0.04981	0.04981	947.7	4.9
338.15	0.05974	0.05974	924.7	2.9
338.15	0.07963	0.07963	931.2	2.2
338.15	0.10001	0.10001	927.4	1.8
338.15	0.14067	0.14067	921.9	1.3
338.15	0.17994	0.17994	912.5	1
338.15	0.295	0.295	898.1	0.7
343.15	0.02018	0.02018	946.2	8.1
343.15	0.03102	0.03102	949	5.3
343.15	0.04034	0.04034	950.9	5.6
343.15	0.04981	0.04981	953	4.6
343.15	0.05974	0.05974	931.7	2.8
343.15	0.07963	0.07963	938	2.1
343.15	0.10001	0.10001	934.5	1.7
343.15	0.14067	0.14067	929.3	1.2
343.15	0.17994	0.17994	920.16	0.98
343.15	0.295	0.295	905.72	0.67
348.15	0.02018	0.02018	948.7	7.6
348.15	0.03102	0.03102	952.5	5
348.15	0.04034	0.04034	954.9	5.3
348.15	0.04981	0.04981	957.5	4.3
348.15	0.05974	0.05974	937.5	2.6
348.15	0.07963	0.07963	944.2	2
348.15	0.10001	0.10001	941.1	1.6
348.15	0.14067	0.14067	936	1.1
348.15	0.17994	0.17994	927.32	0.93
348.15	0.295	0.295	912.99	0.64
353.15	0.02018	0.02018	950.5	7.2
353.15	0.03102	0.03102	955.4	4.7
353.15	0.04034	0.04034	957.4	4.6
353.15	0.04981	0.04981	960.8	3.7
353.15	0.05974	0.05974	942.6	2.5
353.15	0.07963	0.07963	949.3	1.9
353.15	0.10001	0.10001	946.6	1.5
353.15	0.14067	0.14067	942.1	1.1
353.15	0.17994	0.17994	933.83	0.88
353.15	0.295	0.295	919.7	0.62
358.15	0.02018	0.02018	951.2	6.7
358.15	0.03102	0.03102	957.2	4.4
358.15	0.04034	0.04034	959.8	4.2
358.15	0.04981	0.04981	963.9	3.4
358.15	0.05974	0.05974	946.2	2.3
358.15	0.07963	0.07963	953.7	1.7
358.15	0.10001	0.10001	951.5	1.4
358.15	0.14067	0.14067	947.7	1
358.15	0.17994	0.17994	939.74	0.83
358.15	0.295	0.295	925.87	0.6
363.15	0.02018	0.02018	951.1	6.3
363.15	0.03102	0.03102	957.7	4.1
363.15	0.04034	0.04034	960.5	3.9
363.15	0.04981	0.04981	965.4	3.2
363.15	0.05974	0.05974	949	2.2
363.15	0.07963	0.07963	956.9	1.6
363.15	0.10001	0.10001	955.1	1.3
363.15	0.14067	0.14067	952.17	0.96
363.15	0.17994	0.17994	944.74	0.79
363.15	0.295	0.295	931.31	0.58
368.15	0.02018	0.02018	948.6	5.8
368.15	0.03102	0.03102	956.6	3.8
368.15	0.04034	0.04034	960.4	3.6
368.15	0.04981	0.04981	965.5	2.9
368.15	0.05974	0.05974	950.8	2
368.15	0.07963	0.07963	958.9	1.5
368.15	0.10001	0.10001	957.8	1.2
368.15	0.14067	0.14067	955.44	0.88
368.15	0.17994	0.17994	948.54	0.73
368.15	0.295	0.295	935.65	0.55
373.15	0.02018	0.02018	945.7	5.2
373.15	0.03102	0.03102	955	3.4
373.15	0.04034	0.04034	958.4	3.1
373.15	0.04981	0.04981	964.3	2.6
373.15	0.05974	0.05974	951.4	1.8
373.15	0.07963	0.07963	960.3	1.4
373.15	0.10001	0.10001	959.8	1.1
373.15	0.14067	0.14067	957.89	0.82
373.15	0.17994	0.17994	951.47	0.68
373.15	0.295	0.295	939.4	0.52
378.15	0.02018	0.02018	941.8	4.8
378.15	0.03102	0.03102	952	3.1
378.15	0.04034	0.04034	955.8	2.8
378.15	0.04981	0.04981	961.9	2.3
378.15	0.05974	0.05974	950.3	1.7
378.15	0.07963	0.07963	960.1	1.3
378.15	0.10001	0.10001	960.1	1
378.15	0.14067	0.14067	959.15	0.76
378.15	0.17994	0.17994	953.25	0.64
378.15	0.295	0.295	941.92	0.49
383.15	0.02018	0.02018	937.5	4.3
383.15	0.03102	0.03102	948.3	2.8
383.15	0.04034	0.04034	952.2	2.5
383.15	0.04981	0.04981	958.5	2
383.15	0.05974	0.05974	948	1.5
383.15	0.07963	0.07963	959	1.2
383.15	0.10001	0.10001	959.54	0.96
383.15	0.14067	0.14067	959.31	0.69
383.15	0.17994	0.17994	953.9	0.58
383.15	0.295	0.295	943.53	0.46
388.15	0.02018	0.02018	932.5	3.8
388.15	0.03102	0.03102	943.6	2.5
388.15	0.04034	0.04034	947.1	2.4
388.15	0.04981	0.04981	953.5	1.9
388.15	0.05974	0.05974	944.8	1.3
388.15	0.07963	0.07963	956.7	1.1
388.15	0.10001	0.10001	957.97	0.87
388.15	0.14067	0.14067	958.16	0.63
388.15	0.17994	0.17994	953.31	0.54
388.15	0.295	0.295	943.66	0.43
393.15	0.02018	0.02018	926	3.2
393.15	0.03102	0.03102	937.9	2.1
393.15	0.04034	0.04034	939.3	2.8
393.15	0.04981	0.04981	947.6	2.3
393.15	0.05974	0.05974	940.6	1.2
393.15	0.07963	0.07963	953.34	0.88
393.15	0.10001	0.10001	955.4	0.74
393.15	0.14067	0.14067	956.25	0.57
393.15	0.17994	0.17994	951.7	0.49
393.15	0.295	0.295	943.82	0.41

System: potassium chloride + water + 1,4,7,10,13,16-hexaoxacyclooctadecane; phases: Liquid
Fixed: Pressure, kPa = 350
Property: Apparent molar volume, m3/mol (Liquid); method: Calculated with densities of this investigation
Temperature, K	Molality, mol/kg of 1,4,7,10,13,16-hexaoxacyclooctadecane	Molality, mol/kg of potassium chloride	Apparent molar volume, m3/mol	uncertainty
278.15	0.02018	0.02018	0.0002539	2e-06
278.15	0.03102	0.03102	0.0002481	4.3e-06
278.15	0.04034	0.04034	0.0002538	1.9e-06
278.15	0.04981	0.04981	0.0002535	1.9e-06
278.15	0.05974	0.05974	0.0002521	2.3e-06
278.15	0.07963	0.07963	0.0002553	9.7e-07
278.15	0.10001	0.10001	0.0002555	1.4e-06
278.15	0.14067	0.14067	0.00025863	4.8e-07
278.15	0.17994	0.17994	0.00025615	4.3e-07
278.15	0.295	0.295	0.00025594	3.5e-07
283.15	0.02018	0.02018	0.0002543	3.1e-06
283.15	0.03102	0.03102	0.0002502	4.3e-06
283.15	0.04034	0.04034	0.0002549	1.5e-06
283.15	0.04981	0.04981	0.0002543	1.6e-06
283.15	0.05974	0.05974	0.0002535	2.2e-06
283.15	0.07963	0.07963	0.00025598	7.5e-07
283.15	0.10001	0.10001	0.0002563	1.4e-06
283.15	0.14067	0.14067	0.0002593	4.3e-07
283.15	0.17994	0.17994	0.00025718	4.6e-07
283.15	0.295	0.295	0.00025706	3.6e-07
288.15	0.02018	0.02018	0.0002548	2.7e-06
288.15	0.03102	0.03102	0.0002518	4.6e-06
288.15	0.04034	0.04034	0.0002554	1.1e-06
288.15	0.04981	0.04981	0.000255	1.5e-06
288.15	0.05974	0.05974	0.0002548	2.4e-06
288.15	0.07963	0.07963	0.0002569	5.5e-07
288.15	0.10001	0.10001	0.0002572	1.5e-06
288.15	0.14067	0.14067	0.00025995	3.9e-07
288.15	0.17994	0.17994	0.00025822	4.2e-07
288.15	0.295	0.295	0.00025814	3.1e-07
298.15	0.02018	0.02018	0.0002574	2.1e-06
298.15	0.03102	0.03102	0.0002541	5.2e-06
298.15	0.04034	0.04034	0.0002578	1e-06
298.15	0.04981	0.04981	0.00025658	1.5e-06
298.15	0.05974	0.05974	0.0002569	2.7e-06
298.15	0.07963	0.07963	0.00025909	5.2e-07
298.15	0.10001	0.10001	0.0002588	1.6e-06
298.15	0.14067	0.14067	0.0002616	4.1e-07
298.15	0.17994	0.17994	0.00026016	3.9e-07
298.15	0.295	0.295	0.00026018	2.9e-07
308.15	0.02018	0.02018	0.0002593	2.3e-06
308.15	0.03102	0.03102	0.0002572	4.4e-06
308.15	0.04034	0.04034	0.0002597	1.1e-06
308.15	0.04981	0.04981	0.0002585	2e-06
308.15	0.05974	0.05974	0.0002591	2.3e-06
308.15	0.07963	0.07963	0.00026068	5.6e-07
308.15	0.10001	0.10001	0.0002606	1.4e-06
308.15	0.14067	0.14067	0.00026307	3.4e-07
308.15	0.17994	0.17994	0.00026186	2.8e-07
308.15	0.295	0.295	0.00026197	2.2e-07
318.15	0.02018	0.02018	0.0002597	4e-07
318.15	0.03102	0.03102	0.0002603	3.5e-06
318.15	0.04034	0.04034	0.00026057	1.6e-07
318.15	0.04981	0.04981	0.00026	2.7e-06
318.15	0.05974	0.05974	0.0002613	1.8e-06
318.15	0.07963	0.07963	0.00026239	1.1e-07
318.15	0.10001	0.10001	0.0002623	1.1e-06
318.15	0.14067	0.14067	0.00026457	3.5e-07
318.15	0.17994	0.17994	0.00026348	3.8e-07
318.15	0.295	0.295	0.00026374	2.7e-07
328.15	0.02018	0.02018	0.000262	1.9e-06
328.15	0.03102	0.03102	0.0002636	2.7e-06
328.15	0.04034	0.04034	0.0002623	6.8e-07
328.15	0.04981	0.04981	0.0002622	2.2e-06
328.15	0.05974	0.05974	0.0002637	1.4e-06
328.15	0.07963	0.07963	0.00026412	3.6e-07
328.15	0.10001	0.10001	0.00026439	8.7e-07
328.15	0.14067	0.14067	0.00026621	3.5e-07
328.15	0.17994	0.17994	0.00026502	3.5e-07
328.15	0.295	0.295	0.00026557	2.4e-07
338.15	0.02018	0.02018	0.0002627	2.5e-06
338.15	0.03102	0.03102	0.0002654	1.9e-06
338.15	0.04034	0.04034	0.0002635	1.3e-06
338.15	0.04981	0.04981	0.0002635	2.5e-06
338.15	0.05974	0.05974	0.0002663	1e-06
338.15	0.07963	0.07963	0.0002653	6.4e-07
338.15	0.10001	0.10001	0.00026607	6.1e-07
338.15	0.14067	0.14067	0.00026736	2.7e-07
338.15	0.17994	0.17994	0.00026662	2.2e-07
338.15	0.295	0.295	0.00026718	1.7e-07
348.15	0.02018	0.02018	0.0002644	2.4e-06
348.15	0.03102	0.03102	0.00026613	2.6e-07
348.15	0.04034	0.04034	0.0002641	1.3e-06
348.15	0.04981	0.04981	0.0002647	2.9e-06
348.15	0.05974	0.05974	0.00026742	1.7e-07
348.15	0.07963	0.07963	0.00026676	6.5e-07
348.15	0.10001	0.10001	0.00026757	1.4e-07
348.15	0.14067	0.14067	0.00026857	3.3e-07
348.15	0.17994	0.17994	0.00026833	2.7e-07
348.15	0.295	0.295	0.00026898	1.9e-07
358.15	0.02018	0.02018	0.0002663	1.4e-06
358.15	0.03102	0.03102	0.0002689	1.4e-07
358.15	0.04034	0.04034	0.000266	1.2e-06
358.15	0.04981	0.04981	0.0002653	2.5e-06
358.15	0.05974	0.05974	0.00026907	1.3e-07
358.15	0.07963	0.07963	0.00026794	6.4e-07
358.15	0.10001	0.10001	0.00026952	1.2e-07
358.15	0.14067	0.14067	0.00026999	3.4e-07
358.15	0.17994	0.17994	0.00026992	2.8e-07
358.15	0.295	0.295	0.00027063	1.9e-07
368.15	0.02018	0.02018	0.00026752	7.9e-07
368.15	0.03102	0.03102	0.00026828	5.8e-07
368.15	0.04034	0.04034	0.0002671	1.2e-06
368.15	0.04981	0.04981	0.0002657	2.4e-06
368.15	0.05974	0.05974	0.00027031	3.2e-07
368.15	0.07963	0.07963	0.00026966	6.4e-07
368.15	0.10001	0.10001	0.00027157	2.1e-07
368.15	0.14067	0.14067	0.00027139	4.7e-07
368.15	0.17994	0.17994	0.00027152	3.7e-07
368.15	0.295	0.295	0.0002723	2.4e-07
