Measured thermophysical data. Binodal curve measurements for (water + propionic acid + dichloromethane) ternary system by cloud point method
Source: J. Chem. Thermodyn., 2009, 10.1016/j.jct.2009.02.004
Compound 1: propanoic acid, C3H6O2, InChI=1S/C3H6O2/c1-2-3(4)5/h2H2,1H3,(H,4,5)
Compound 2: dichloromethane, CH2Cl2, InChI=1S/CH2Cl2/c2-1-3/h1H2
Compound 3: water, H2O, InChI=1S/H2O/h1H2

System: dichloromethane + propanoic acid + water; phases: Liquid mixture 2, Liquid mixture 1
Fixed: Pressure, kPa = 101
Property: Mass fraction of water (Liquid mixture 2); method: Titration method
Property: Mass fraction of water (Liquid mixture 1); method: Titration method
Property: Mass fraction of propanoic acid (Liquid mixture 1); method: Titration method
Temperature, K	Mass fraction of propanoic acid	Mass fraction of water	uncertainty	Mass fraction of water	uncertainty	Mass fraction of propanoic acid	uncertainty
277.15	0.285	0.0215	0.0007	0.81	0.0059	0.1677	
277.15	0.1965	0.0163	0.0005	0.8604	0.0043	0.1125	
277.15	0.0811	0.0075	0.0002	0.9052	0.0032	0.0715	
277.15	0.098	0.0094	0.0003	0.9035	0.0033	0.0762	
284.15	0.34	0.027	0.0008	0.7678	0.0072	0.201	
284.15	0.31	0.024	0.0007	0.78	0.0068	0.1823	
284.15	0.242	0.0208	0.0006	0.8207	0.0056	0.1506	
284.15	0.1094	0.0105	0.0003	0.884	0.0037	0.09	
294.15	0.442	0.204	0.0066	0.623	0.0117	0.3192	
294.15	0.3766	0.069	0.0025	0.7268	0.0085	0.2399	
294.15	0.346	0.0405	0.0013	0.7518	0.0077	0.2154	
294.15	0.262	0.0219	0.0007	0.7995	0.0062	0.1701	

System: dichloromethane + propanoic acid + water; phases: Liquid mixture 1, Liquid mixture 2
Fixed: Pressure, kPa = 101
Property: Mass fraction of water (Liquid mixture 1); method: Titration method
Mass fraction of propanoic acid	Temperature, K	Mass fraction of water	uncertainty
0.0025	277.15	0	0.0001
0.003	284.15	0	0.0001
0.0035	294.15	0	0.0001
0.0135	294.15	0.2084	0.0065
0.0158	294.15	0.2274	0.007
0.0168	277.15	0.1382	0.0044
0.0181	294.15	0.2417	0.0075
0.02	277.15	0.2315	0.0072
0.0216	294.15	0.2606	0.0081
0.0226	284.15	0.3294	0.0102
0.0259	294.15	0.2837	0.0088
0.0273	284.15	0.3391	0.0105
0.03	294.15	0.3005	0.0093
0.0315	277.15	0.3812	0.0118
0.0352	294.15	0.3166	0.0098
0.0358	277.15	0.3987	0.0124
0.0379	277.15	0.4065	0.0126
0.0404	277.15	0.4123	0.0128
0.0412	294.15	0.3316	0.0103
0.0431	277.15	0.4197	0.013
0.0435	284.15	0.3645	0.0113
0.0481	284.15	0.3757	0.0116
0.0497	294.15	0.3477	0.0108
0.0509	277.15	0.4516	0.014
0.0524	284.15	0.3878	0.012
0.054	277.15	0.4565	0.0141
0.0558	294.15	0.3569	0.0111
0.0594	277.15	0.4762	0.0148
0.0622	284.15	0.4124	0.0128
0.0657	277.15	0.5004	0.0155
0.0726	294.15	0.3773	0.0117
0.073	284.15	0.423	0.0131
0.0818	284.15	0.4304	0.0133
0.0865	277.15	0.543	0.0142
0.0925	284.15	0.4421	0.0137
0.1046	277.15	0.5646	0.0135
0.1096	284.15	0.456	0.0141
0.1335	284.15	0.468	0.0145
0.1389	294.15	0.425	0.0132
0.1489	277.15	0.5805	0.013
0.1529	284.15	0.4829	0.015
0.2034	284.15	0.4975	0.0154
0.2169	294.15	0.4447	0.0138
0.2628	294.15	0.445	0.0138
0.2759	277.15	0.5807	0.013
0.3319	294.15	0.436	0.0135
0.35	277.15	0.55	0.0139
0.3608	284.15	0.4867	0.0151
0.4336	277.15	0.4962	0.0154
0.4555	294.15	0.4057	0.0126
0.489	277.15	0.4515	0.014
0.523	277.15	0.418	0.013
0.5441	284.15	0.3815	0.0118
0.5755	277.15	0.3677	0.0114
0.5802	294.15	0.3436	0.0107
0.5957	294.15	0.3346	0.0104
0.6011	277.15	0.347	0.0108
0.6146	294.15	0.324	0.0101
0.64	294.15	0.305	0.0095
0.6479	284.15	0.297	0.0093
0.6763	284.15	0.2734	0.0085
0.6893	294.15	0.2657	0.0083
0.7314	284.15	0.2277	0.0072
0.7393	277.15	0.2212	0.007
0.8216	294.15	0.1468	0.0048
0.8717	284.15	0.1033	0.0036
0.9786	294.15	0	0.0001
0.9866	284.15	0	0.0001
0.9911	277.15	0	0.0001
