Measured thermophysical data. Density and refractive index measurements of transition-temperature mixture (deep eutectic analogues) based on potassium carbonate with dual hydrogen bond donors for CO2 capture
Source: J. Chem. Thermodyn., 2018, 10.1016/j.jct.2017.11.008
Compound 1: potassium carbonate, CK2O3, InChI=1S/CH2O3.2K/c2-1(3)4;;/h(H2,2,3,4);;/q;2*+1/p-2, purity 99.9%
Compound 2: 2-amino-2-methyl-1,3-propanediol, C4H11NO2, InChI=1S/C4H11NO2/c1-4(5,2-6)3-7/h6-7H,2-3,5H2,1H3, purity 99%
Compound 3: glycerol, C3H8O3, InChI=1S/C3H8O3/c4-1-3(6)2-5/h3-6H,1-2H2, purity 99.8%
Compound 4: 1,2-ethanediol, C2H6O2, InChI=1S/C2H6O2/c3-1-2-4/h3-4H,1-2H2, purity 99.5%

System: glycerol; phases: Liquid
Fixed: Pressure, kPa = 100
Property: Mass density, kg/m3 (Liquid); method: Vibrating tube method
Temperature, K	Mass density, kg/m3	uncertainty
293.15	1262	6.6
298.15	1259	6.5
303.15	1255.8	6.5
308.15	1252.7	6.5
313.15	1249.6	6.5
323.15	1243.2	6.5
328.15	1240	6.4
333.15	1236.7	6.4
318.15	1246.4	6.5
338.15	1233.4	6.4
343.15	1230.1	6.4

System: glycerol; phases: Liquid
Fixed: Pressure, kPa = 100
Property: Refractive index (Na D-line) (Liquid); method: Standard Abbe refractometry
Temperature, K	Refractive index (Na D-line)	uncertainty
298.15	1.47182	0.00293
303.15	1.47035	0.00293
308.15	1.46887	0.00292
313.15	1.46747	0.00292
318.15	1.46597	0.00292
323.15	1.46456	0.00291
328.15	1.46312	0.00291
333.15	1.46161	0.00291
293.15	1.47333	0.00293
338.15	1.46029	0.00291
343.15	1.45867	0.0029

System: 1,2-ethanediol; phases: Liquid
Fixed: Pressure, kPa = 100
Property: Mass density, kg/m3 (Liquid); method: Vibrating tube method
Temperature, K	Mass density, kg/m3	uncertainty
293.15	1113.3	7.3
298.15	1109.8	7.3
303.15	1106.3	7.3
308.15	1102.8	7.3
313.15	1099.2	7.3
323.15	1092.1	7.2
328.15	1088.5	7.2
333.15	1084.9	7.2
318.15	1095.7	7.2
338.15	1081.2	7.1
343.15	1077.5	7.1

System: 1,2-ethanediol; phases: Liquid
Fixed: Pressure, kPa = 100
Property: Refractive index (Na D-line) (Liquid); method: Standard Abbe refractometry
Temperature, K	Refractive index (Na D-line)	uncertainty
298.15	1.43001	0.0043
303.15	1.42853	0.0043
308.15	1.42709	0.00429
313.15	1.42567	0.00429
318.15	1.42437	0.00428
323.15	1.42309	0.00428
328.15	1.42155	0.00428
333.15	1.4201	0.00427
293.15	1.43146	0.0043
298.15	1.43002	0.0043
338.15	1.41868	0.00427
343.15	1.41733	0.00426

System: 1,2-ethanediol + potassium carbonate; phases: Liquid
Fixed: Pressure, kPa = 100
Property: Mass density, kg/m3 (Liquid); method: Vibrating tube method
Temperature, K	Mass fraction of potassium carbonate	Mass density, kg/m3	uncertainty
293.15	0.1821	1259.3	13
298.15	0.1821	1256.1	12.9
303.15	0.1821	1252.8	13
308.15	0.1821	1249.5	12.9
313.15	0.1821	1246.2	13
318.15	0.1821	1242.9	13
323.15	0.1821	1239.5	13
328.15	0.1821	1236.2	13
333.15	0.1821	1232.8	13
338.15	0.1821	1229.5	13
343.15	0.1821	1226.1	13
293.15	0.1222	1212.8	13.3
298.15	0.1222	1209.6	13.3
303.15	0.1222	1206.2	13.3
308.15	0.1222	1203.1	13.3
313.15	0.1222	1199.5	13.3
318.15	0.1222	1196	13.3
323.15	0.1222	1192.7	13.3
328.15	0.1222	1189.1	13.3
333.15	0.1222	1185.9	13.4
338.15	0.1222	1182.4	13.4
343.15	0.1222	1179	13.4
293.15	0	1113.3	7.3
298.15	0	1109.8	7.3
303.15	0	1106.3	7.3
308.15	0	1102.8	7.3
313.15	0	1099.2	7.3
318.15	0	1095.7	7.2
323.15	0	1092.1	7.2
328.15	0	1088.5	7.2
333.15	0	1084.9	7.2
338.15	0	1081.2	7.1
343.15	0	1077.5	7.1

System: 1,2-ethanediol + potassium carbonate; phases: Liquid
Fixed: Pressure, kPa = 100
Property: Refractive index (Na D-line) (Liquid); method: Standard Abbe refractometry
Mass fraction of potassium carbonate	Temperature, K	Refractive index (Na D-line)	uncertainty
0.1821	293.15	1.44791	0.00277
0.1821	298.15	1.44674	0.00278
0.1821	303.15	1.44552	0.00278
0.1821	308.15	1.44431	0.00281
0.1821	313.15	1.44308	0.00281
0.1821	318.15	1.44184	0.00281
0.1821	323.15	1.44051	0.00282
0.1821	328.15	1.4393	0.00282
0.1821	333.15	1.43803	0.00283
0.1821	338.15	1.43682	0.00282
0.1821	343.15	1.43555	0.00282
0.1222	293.15	1.44298	0.00294
0.1222	298.15	1.44166	0.00295
0.1222	303.15	1.44046	0.00296
0.1222	308.15	1.43889	0.00296
0.1222	313.15	1.4377	0.00297
0.1222	318.15	1.43638	0.00297
0.1222	323.15	1.43503	0.00296
0.1222	328.15	1.43376	0.00297
0.1222	333.15	1.43238	0.00298
0.1222	338.15	1.43122	0.00298
0.1222	343.15	1.42994	0.00298
0	293.15	1.43146	0.0043
0	298.15	1.43002	0.0043
0	303.15	1.42853	0.0043
0	308.15	1.42709	0.00429
0	313.15	1.42567	0.00429
0	318.15	1.42437	0.00428
0	323.15	1.42309	0.00428
0	328.15	1.42155	0.00428
0	333.15	1.4201	0.00427
0	338.15	1.41868	0.00427
0	343.15	1.41733	0.00426

System: 1,2-ethanediol + potassium carbonate + 2-amino-2-methyl-1,3-propanediol; phases: Liquid
Fixed: Pressure, kPa = 100
Fixed: Mass fraction of potassium carbonate = 0.1599
Fixed: Mass fraction of 1,2-ethanediol = 0.7184
Property: Mass density, kg/m3 (Liquid); method: Vibrating tube method
Temperature, K	Mass density, kg/m3	uncertainty
293.15	1240.9	7.2
298.15	1237.6	7.1
303.15	1234.3	7.1
308.15	1231	7.1
313.15	1227.7	7.1
318.15	1224.3	7.1
323.15	1221	7
328.15	1217.6	7
333.15	1214.2	7
338.15	1210.8	7
343.15	1207.4	7

System: 1,2-ethanediol + potassium carbonate + 2-amino-2-methyl-1,3-propanediol; phases: Liquid
Fixed: Pressure, kPa = 100
Fixed: Mass fraction of potassium carbonate = 0.1599
Fixed: Mass fraction of 1,2-ethanediol = 0.7184
Property: Refractive index (Na D-line) (Liquid); method: Standard Abbe refractometry
Temperature, K	Refractive index (Na D-line)	uncertainty
293.15	1.45293	0.00263
298.15	1.45168	0.00263
303.15	1.45043	0.00263
308.15	1.44915	0.00263
313.15	1.44788	0.00262
318.15	1.44662	0.00262
323.15	1.44532	0.00262
328.15	1.444	0.00262
333.15	1.44263	0.00261
338.15	1.44131	0.00261
343.15	1.43994	0.00261

System: glycerol + potassium carbonate; phases: Liquid
Fixed: Pressure, kPa = 100
Property: Mass density, kg/m3 (Liquid); method: Vibrating tube method
Temperature, K	Mass fraction of potassium carbonate	Mass density, kg/m3	uncertainty
293.15	0.1305	1370.2	19.3
298.15	0.1305	1367.3	19.5
303.15	0.1305	1364.3	19.7
308.15	0.1305	1361.4	19.8
313.15	0.1305	1358.4	20.1
318.15	0.1305	1355.4	20.2
323.15	0.1305	1352.4	20.5
328.15	0.1305	1349.3	20.7
333.15	0.1305	1346.2	21
338.15	0.1305	1343.2	21.2
343.15	0.1305	1340	21.4
293.15	0.0858	1312.5	13.6
298.15	0.0858	1308.9	13.3
303.15	0.0858	1305.3	13.3
308.15	0.0858	1302	13.3
313.15	0.0858	1298.1	13.3
318.15	0.0858	1294.6	13.3
323.15	0.0858	1290.6	13.3
328.15	0.0858	1286.8	13.2
333.15	0.0858	1282.9	13.2
338.15	0.0858	1279.1	13.2
343.15	0.0858	1275.2	13.6
293.15	0	1262	6.6
298.15	0	1259	6.5
303.15	0	1255.8	6.5
308.15	0	1252.7	6.5
313.15	0	1249.6	6.5
318.15	0	1246.4	6.5
323.15	0	1243.2	6.5
328.15	0	1240	6.4
333.15	0	1236.7	6.4
338.15	0	1233.4	6.4
343.15	0	1230.1	6.4

System: glycerol + potassium carbonate; phases: Liquid
Fixed: Pressure, kPa = 100
Property: Refractive index (Na D-line) (Liquid); method: Standard Abbe refractometry
Temperature, K	Mass fraction of potassium carbonate	Refractive index (Na D-line)	uncertainty
293.15	0.1305	1.48503	0.003
298.15	0.1305	1.48401	0.00303
303.15	0.1305	1.48305	0.00306
308.15	0.1305	1.48205	0.0031
313.15	0.1305	1.48105	0.00313
318.15	0.1305	1.4802	0.00318
323.15	0.1305	1.4792	0.00321
328.15	0.1305	1.47825	0.00325
333.15	0.1305	1.47713	0.00327
338.15	0.1305	1.47618	0.0033
343.15	0.1305	1.47506	0.00332
293.15	0.0858	1.47801	0.00259
298.15	0.0858	1.47691	0.00259
303.15	0.0858	1.47578	0.00262
308.15	0.0858	1.47462	0.00264
313.15	0.0858	1.47353	0.00266
318.15	0.0858	1.47239	0.0027
323.15	0.0858	1.47132	0.00272
328.15	0.0858	1.47015	0.00275
333.15	0.0858	1.46903	0.00277
338.15	0.0858	1.46786	0.00279
343.15	0.0858	1.4667	0.00286
293.15	0	1.47333	0.00293
298.15	0	1.47182	0.00293
303.15	0	1.47035	0.00293
308.15	0	1.46887	0.00292
313.15	0	1.46747	0.00292
318.15	0	1.46597	0.00292
323.15	0	1.46456	0.00291
328.15	0	1.46312	0.00291
333.15	0	1.46161	0.00291
338.15	0	1.46029	0.00291
343.15	0	1.45867	0.0029

System: glycerol + potassium carbonate + 2-amino-2-methyl-1,3-propanediol; phases: Liquid
Fixed: Pressure, kPa = 100
Fixed: Mass fraction of potassium carbonate = 0.0805
Fixed: Mass fraction of glycerol = 0.8583
Property: Mass density, kg/m3 (Liquid); method: Vibrating tube method
Temperature, K	Mass density, kg/m3	uncertainty
293.15	1311.3	6.8
298.15	1308.4	6.8
303.15	1305.4	6.8
308.15	1302.3	6.8
313.15	1299.3	6.8
318.15	1296.1	6.7
323.15	1293	6.7
328.15	1289.9	6.7
333.15	1286.8	6.7
338.15	1283.6	6.7
343.15	1280.5	6.7

System: glycerol + potassium carbonate + 2-amino-2-methyl-1,3-propanediol; phases: Liquid
Fixed: Pressure, kPa = 100
Fixed: Mass fraction of potassium carbonate = 0.0805
Fixed: Mass fraction of glycerol = 0.8583
Property: Refractive index (Na D-line) (Liquid); method: Standard Abbe refractometry
Temperature, K	Refractive index (Na D-line)	uncertainty
293.15	1.47836	0.00218
298.15	1.47733	0.00218
303.15	1.47624	0.00217
308.15	1.47517	0.00217
313.15	1.47407	0.00217
318.15	1.4731	0.00217
323.15	1.47213	0.00217
328.15	1.47101	0.00217
333.15	1.46986	0.00217
338.15	1.46874	0.00216
343.15	1.46759	0.00216
