Measured thermophysical data. The measurements of coexistence curves and turbidity for {xC6H5CN + (1 - x)CH3(CH2)14CH3} in the critical region
Source: J. Chem. Thermodyn., 2006, 10.1016/j.jct.2005.08.005
Compound 1: benzonitrile, C7H5N, InChI=1S/C7H5N/c8-6-7-4-2-1-3-5-7/h1-5H, purity 99%
Compound 2: hexadecane, C16H34, InChI=1S/C16H34/c1-3-5-7-9-11-13-15-16-14-12-10-8-6-4-2/h3-16H2,1-2H3, purity 99%

System: benzonitrile; phases: Liquid
Fixed: Pressure, kPa = 101.3
Fixed: Wavelength, nm = 632.8
Property: Refractive index (other wavelength) (Liquid); method: Method described in references 3 and 4 of the article
Temperature, K	Refractive index (other wavelength)	uncertainty
294.622	1.5246	0.0002
296.966	1.5235	0.0002
299.078	1.5224	0.0002
301.386	1.5213	0.0002
303.416	1.5203	0.0002
305.915	1.5191	0.0002

System: hexadecane; phases: Liquid
Fixed: Pressure, kPa = 101.3
Fixed: Wavelength, nm = 632.8
Property: Refractive index (other wavelength) (Liquid); method: Method described in references 3 and 4 of the article
Temperature, K	Refractive index (other wavelength)	uncertainty
294.851	1.4324	0.0002
295.864	1.432	0.0002
296.957	1.4315	0.0002
297.9	1.4312	0.0002
299.708	1.4304	0.0002
301.214	1.4297	0.0002
302.84	1.4291	0.0002
304.264	1.4285	0.0002

System: benzonitrile + hexadecane; phases: Liquid mixture 1, Liquid mixture 2
Fixed: Pressure, kPa = 101
Fixed: Wavelength, nm = 632.8
Property: Refractive index (other wavelength) (Liquid mixture 1); method: Method described in references 3 and 4 of the article
Temperature, K	Refractive index (other wavelength)	uncertainty
294.844	1.4474	0.0002
295.948	1.4478	0.0002
296.831	1.4483	0.0002
297.599	1.4486	0.0002
298.318	1.4489	0.0002
299.063	1.4492	0.0002
299.077	1.4494	0.0002
299.753	1.45	0.0002
300.395	1.4505	0.0002
300.914	1.4509	0.0002
301.396	1.4518	0.0002
301.809	1.4521	0.0002
302.2	1.4529	0.0003
302.557	1.4533	0.0003
302.909	1.4542	0.0003
303.2	1.4548	0.0003
303.428	1.4556	0.0004
303.429	1.4555	0.0004
303.644	1.4564	0.0004
303.818	1.457	0.0005
303.965	1.4578	0.0006
304.087	1.4585	0.0008
304.203	1.4597	0.0011
304.268	1.4605	0.0014
304.317	1.4613	0.0017
304.345	1.4618	0.0027
304.365	1.4625	0.0047
304.376	1.4629	0.0045
304.385	1.4633	0.0044
304.391	1.4637	0.0046
304.395	1.4641	0.0053

System: benzonitrile + hexadecane; phases: Liquid mixture 2, Liquid mixture 1
Fixed: Pressure, kPa = 101
Fixed: Wavelength, nm = 632.8
Property: Refractive index (other wavelength) (Liquid mixture 2); method: Method described in references 3 and 4 of the article
Temperature, K	Refractive index (other wavelength)	uncertainty
294.844	1.4966	0.0003
295.948	1.495	0.0003
296.831	1.4936	0.0003
297.599	1.4924	0.0003
298.318	1.4912	0.0003
299.063	1.4899	0.0014
299.077	1.4897	0.0014
299.753	1.4885	0.0003
300.395	1.4872	0.0003
300.914	1.486	0.0003
301.396	1.4849	0.0003
301.809	1.4839	0.0003
302.2	1.4828	0.0004
302.557	1.4817	0.0004
302.909	1.4805	0.0004
303.2	1.4794	0.0005
303.428	1.4783	0.0005
303.429	1.4785	0.0005
303.644	1.4773	0.0006
303.818	1.4764	0.0006
303.965	1.4754	0.0008
304.087	1.4744	0.0009
304.203	1.4732	0.0012
304.268	1.4723	0.0016
304.317	1.4714	0.0021
304.345	1.4707	0.0031
304.365	1.4701	0.0047
304.376	1.4696	0.0045
304.385	1.4692	0.0044
304.391	1.4688	0.005
304.395	1.4684	0.0057

System: benzonitrile + hexadecane; phases: Liquid mixture 1, Liquid mixture 2
Property: Upper consolute temperature, K (Liquid mixture 1); method: Derived from index of refraction measurments
Pressure, kPa	Upper consolute temperature, K	uncertainty
101	304.4	0.4

System: benzonitrile + hexadecane; phases: Liquid mixture 1, Liquid mixture 2
Fixed: Pressure, kPa = 101
Property: Mole fraction of benzonitrile (Liquid mixture 1); method: Index of refraction calibration data
Temperature, K	Mole fraction of benzonitrile	uncertainty
294.844	0.37	0.004
295.948	0.386	0.004
296.831	0.403	0.004
297.599	0.413	0.004
298.318	0.423	0.004
299.063	0.434	0.004
299.077	0.436	0.004
299.753	0.45	0.004
300.395	0.464	0.004
300.914	0.473	0.004
301.396	0.489	0.004
301.809	0.496	0.004
302.2	0.51	0.004
302.557	0.518	0.004
302.909	0.531	0.004
303.2	0.542	0.004
303.428	0.553	0.004
303.429	0.551	0.004
303.644	0.564	0.004
303.818	0.573	0.004
303.965	0.583	0.004
304.087	0.592	0.004
304.203	0.606	0.004
304.268	0.616	0.004
304.317	0.625	0.004
304.345	0.63	0.004
304.365	0.638	0.004
304.376	0.642	0.004
304.385	0.646	0.004
304.391	0.65	0.004
304.395	0.654	0.004

System: benzonitrile + hexadecane; phases: Liquid mixture 2, Liquid mixture 1
Fixed: Pressure, kPa = 101
Property: Mole fraction of benzonitrile (Liquid mixture 2); method: Index of refraction calibration data
Temperature, K	Mole fraction of benzonitrile	uncertainty
294.844	0.867	0.004
295.948	0.861	0.004
296.831	0.855	0.004
297.599	0.85	0.004
298.318	0.845	0.004
299.063	0.839	0.004
299.077	0.838	0.004
299.753	0.832	0.004
300.395	0.826	0.004
300.914	0.82	0.004
301.396	0.814	0.004
301.809	0.808	0.004
302.2	0.802	0.004
302.557	0.796	0.004
302.909	0.788	0.004
303.2	0.781	0.004
303.428	0.774	0.004
303.429	0.775	0.004
303.644	0.767	0.004
303.818	0.761	0.004
303.965	0.754	0.004
304.087	0.746	0.004
304.203	0.736	0.004
304.268	0.729	0.004
304.317	0.722	0.004
304.345	0.716	0.004
304.365	0.711	0.004
304.376	0.707	0.004
304.385	0.703	0.004
304.391	0.699	0.004
304.395	0.695	0.004

System: benzonitrile + hexadecane; phases: Liquid mixture 1, Liquid mixture 2
Property: Upper consolute composition: mole fraction of benzonitrile (Liquid mixture 1); method: derived from index of refraction
Pressure, kPa	Upper consolute composition: mole fraction of benzonitrile	uncertainty
101	0.673	0.002

System: benzonitrile + hexadecane; phases: Liquid
Fixed: Pressure, kPa = 101.3
Fixed: Wavelength, nm = 632.8
Property: Refractive index (other wavelength) (Liquid); method: Method described in references 3 and 4 of the article
Temperature, K	Mole fraction of benzonitrile	Refractive index (other wavelength)	uncertainty
294.622	1	1.5246	0.0002
294.851	0	1.4324	0.0002
295.405	0.0997	1.4353	0.0002
295.864	0	1.432	0.0002
296.196	0.1982	1.4385	0.0002
296.22	0.3022	1.4432	0.0002
296.488	0.8855	1.499	0.0002
296.957	0	1.4315	0.0002
296.966	1	1.5235	0.0002
297.195	0.0997	1.4346	0.0002
297.587	0.1982	1.438	0.0002
297.9	0	1.4312	0.0002
298.033	0.3972	1.4472	0.0002
298.19	0.3022	1.4423	0.0002
298.566	0.8855	1.498	0.0002
299.032	0.0997	1.4338	0.0002
299.078	1	1.5224	0.0002
299.565	0.3972	1.4466	0.0002
299.708	0	1.4304	0.0002
299.754	0.3022	1.4416	0.0002
299.781	0.1982	1.437	0.0002
300.771	0.0997	1.433	0.0002
301.051	0.8855	1.4969	0.0002
301.054	0.3022	1.441	0.0002
301.168	0.1982	1.4365	0.0002
301.214	0	1.4297	0.0002
301.265	0.3972	1.4459	0.0002
301.386	1	1.5213	0.0002
301.645	0.1982	1.4362	0.0003
302.702	0.0997	1.4323	0.0002
302.754	0.3972	1.4452	0.0002
302.84	0	1.4291	0.0002
302.856	0.3022	1.4403	0.0002
302.963	0.4976	1.4519	0.0003
303.416	1	1.5203	0.0002
303.453	0.7947	1.481	0.0003
303.589	0.8855	1.4957	0.0002
303.7	0.4976	1.4515	0.0002
303.819	0.1982	1.4353	0.0002
304.077	0.0997	1.4317	0.0002
304.211	0.3972	1.4446	0.0002
304.249	0.3022	1.4397	0.0002
304.251	0.4976	1.4512	0.0002
304.264	0	1.4285	0.0002
304.401	0.7947	1.4806	0.0002
304.69	0.595	1.4585	0.0003
304.731	0.4976	1.451	0.0002
305.224	0.7947	1.4802	0.0002
305.407	0.3972	1.444	0.0002
305.443	0.6854	1.4668	0.0003
305.466	0.595	1.4582	0.0002
305.661	0.1982	1.4346	0.0002
305.661	0.4976	1.4507	0.0002
305.859	0.0997	1.4309	0.0002
305.861	0.3022	1.439	0.0002
305.895	0.7947	1.4799	0.0002
305.915	1	1.5191	0.0002
305.978	0.8855	1.4946	0.0002
306.246	0.6854	1.4665	0.0002
306.373	0.595	1.4578	0.0002
306.66	0.6854	1.4663	0.0002
306.683	0.7947	1.4795	0.0002
307.359	0.595	1.4574	0.0002
307.658	0.6854	1.4658	0.0002
307.863	0.8855	1.4937	0.0002
308.182	0.595	1.457	0.0002
308.418	0.6854	1.4655	0.0002
