Measured thermophysical data. Thermochemistry of 1-alkylimidazoles
Source: J. Chem. Thermodyn., 2015, 10.1016/j.jct.2014.08.020
Compound 1: 1-ethyl-1H-imidazole, C5H8N2, InChI=1S/C5H8N2/c1-2-7-4-3-6-5-7/h3-5H,2H2,1H3, purity 95%
Compound 2: 1-butylimidazole, C7H12N2, InChI=1S/C7H12N2/c1-2-3-5-9-6-4-8-7-9/h4,6-7H,2-3,5H2,1H3, purity 98.9%
Compound 3: 1-octylimidazole, C11H20N2, InChI=1S/C11H20N2/c1-2-3-4-5-6-7-9-13-10-8-12-11-13/h8,10-11H,2-7,9H2,1H3, purity 95.6%

System: 1-ethyl-1H-imidazole; phases: Liquid, Gas
Property: Molar enthalpy of vaporization or sublimation, kJ/mol (Liquid); method: Static calorimetry
Temperature, K	Molar enthalpy of vaporization or sublimation, kJ/mol	uncertainty
298.15	57.533142945	0.98822154

System: 1-butylimidazole; phases: Liquid, Gas
Property: Molar enthalpy of vaporization or sublimation, kJ/mol (Liquid); method: Static calorimetry
Temperature, K	Molar enthalpy of vaporization or sublimation, kJ/mol	uncertainty
298.15	63.8850420504	0.6383040124

System: 1-octylimidazole; phases: Liquid, Gas
Property: Molar enthalpy of vaporization or sublimation, kJ/mol (Liquid); method: Static calorimetry
Temperature, K	Molar enthalpy of vaporization or sublimation, kJ/mol	uncertainty
298.15	81.0114996132	1.4026560444

System: 1-octylimidazole; phases: Liquid
Property: Molar heat capacity at constant pressure, J/K/mol (Liquid); method: Drop calorimetry
Temperature, K	Pressure, kPa	Molar heat capacity at constant pressure, J/K/mol	uncertainty
300.6	101.325	382.2147576	23.4376974
