Measured thermophysical data. Phase transition and decomposition temperatures, heat capacities and viscosities of pyridinium ionic liquids
Source: J. Chem. Thermodyn., 2005, 10.1016/j.jct.2005.03.013
Compound 1: 1-ethyl-3-methylpyridinium ethylsulfate, C10H17NO4S, InChI=1S/C8H12N.C2H6O4S/c1-3-9-6-4-5-8(2)7-9;1-2-6-7(3,4)5/h4-7H,3H2,1-2H3;2H2,1H3,(H,3,4,5)/q+1;/p-1
Compound 2: 1-hexyl-3-methylimidazolium tetrafluoroborate, C10H19BF4N2, InChI=1S/C10H19N2.BF4/c1-3-4-5-6-7-12-9-8-11(2)10-12;2-1(3,4)5/h8-10H,3-7H2,1-2H3;/q+1;-1
Compound 3: 1-butylpyridinium bromide, C9H14BrN, InChI=1S/C9H14N.BrH/c1-2-3-7-10-8-5-4-6-9-10;/h4-6,8-9H,2-3,7H2,1H3;1H/q+1;/p-1
Compound 4: 1-methyl-3-octylimidazolium tetrafluoroborate, C12H23BF4N2, InChI=1S/C12H23N2.BF4/c1-3-4-5-6-7-8-9-14-11-10-13(2)12-14;2-1(3,4)5/h10-12H,3-9H2,1-2H3;/q+1;-1
Compound 5: 1-methyl-3-octylimidazolium bromide, C12H23BrN2, InChI=1S/C12H23N2.BrH/c1-3-4-5-6-7-8-9-14-11-10-13(2)12-14;/h10-12H,3-9H2,1-2H3;1H/q+1;/p-1
Compound 6: 1-octyl-3-methylimidazolium bis[(trifluoromethyl)sulfonyl]imide, C14H23F6N3O4S2, InChI=1S/C12H23N2.C2F6NO4S2/c1-3-4-5-6-7-8-9-14-11-10-13(2)12-14;3-1(4,5)14(10,11)9-15(12,13)2(6,7)8/h10-12H,3-9H2,1-2H3;/q+1;-1
Compound 7: 1-ethyl-3-methylimidazolium bis((trifluoromethyl)sulfonyl)imide, C8H11F6N3O4S2, InChI=1S/C6H11N2.C2F6NO4S2/c1-3-8-5-4-7(2)6-8;3-1(4,5)14(10,11)9-15(12,13)2(6,7)8/h4-6H,3H2,1-2H3;/q+1;-1
Compound 8: 1-butyl-3-methylimidazolium trifluoroacetate, C10H15F3N2O2, InChI=1S/C8H15N2.C2HF3O2/c1-3-4-5-10-7-6-9(2)8-10;3-2(4,5)1(6)7/h6-8H,3-5H2,1-2H3;(H,6,7)/q+1;/p-1
Compound 9: 1-butyl-3-methylimidazolium acetate, C10H18N2O2, InChI=1S/C8H15N2.C2H4O2/c1-3-4-5-10-7-6-9(2)8-10;1-2(3)4/h6-8H,3-5H2,1-2H3;1H3,(H,3,4)/q+1;/p-1
Compound 10: 1-ethylpyridinium ethyl sulfate, C9H15NO4S, InChI=1S/C7H10N.C2H6O4S/c1-2-8-6-4-3-5-7-8;1-2-6-7(3,4)5/h3-7H,2H2,1H3;2H2,1H3,(H,3,4,5)/q+1;/p-1
Compound 11: 17-hydroxy-N-(17-hydroxy-3,6,9,12,15-pentaoxaheptadec-1-yl)-N-methyl-N-tetradecyl-3,6,9,12,15-pentaoxaheptadecan-1-aminium methyl sulfate, C40H85NO16S, InChI=1S/C39H82NO12.CH4O4S/c1-3-4-5-6-7-8-9-10-11-12-13-14-15-40(2,16-20-43-24-28-47-32-36-51-38-34-49-30-26-45-22-18-41)17-21-44-25-29-48-33-37-52-39-35-50-31-27-46-23-19-42;1-5-6(2,3)4/h41-42H,3-39H2,1-2H3;1H3,(H,2,3,4)/q+1;/p-1
Compound 12: tetrabutylammonium docusate, C36H73NO7S, InChI=1S/C20H38O7S.C16H36N/c1-5-9-11-16(7-3)14-26-19(21)13-18(28(23,24)25)20(22)27-15-17(8-4)12-10-6-2;1-5-9-13-17(14-10-6-2,15-11-7-3)16-12-8-4/h16-18H,5-15H2,1-4H3,(H,23,24,25);5-16H2,1-4H3/q;+1/p-1
Compound 13: 1-methyl-3-(3,3,4,4,5,5,6,6,6-nonafluorohexyl)-1H-imidazolium 1,1,1-trifluoro-N-[(trifluoromethyl)sulfonyl]methanesulfonamide, C12H12F15N3O4S2, InChI=1S/C10H11F9N2.C2F6NO4S2/c1-20-4-5-21(6-20)3-2-7(11,12)8(13,14)9(15,16)10(17,18)19;3-1(4,5)14(10,11)9-15(12,13)2(6,7)8/h4-5H,2-3,6H2,1H3;/q;-1/p+1
Compound 14: 1-hexyl-2,3-dimethylimidazolium bis[(trifluoromethyl)sulfonyl]imide, C13H21F6N3O4S2, InChI=1S/C11H21N2.C2F6NO4S2/c1-4-5-6-7-8-13-10-9-12(3)11(13)2;3-1(4,5)14(10,11)9-15(12,13)2(6,7)8/h9-10H,4-8H2,1-3H3;/q+1;-1
Compound 15: 1-hexyl-3-methylimidazolium bis[(trifluoromethyl)sulfonyl]imide, C12H19F6N3O4S2, InChI=1S/C10H19N2.C2F6NO4S2/c1-3-4-5-6-7-12-9-8-11(2)10-12;3-1(4,5)14(10,11)9-15(12,13)2(6,7)8/h8-10H,3-7H2,1-2H3;/q+1;-1
Compound 16: 3-hexyl-1-methyl-1H-imidazolium bromide, C10H19BrN2, InChI=1S/C10H19N2.BrH/c1-3-4-5-6-7-12-9-8-11(2)10-12;/h8-10H,3-7H2,1-2H3;1H/q+1;/p-1
Compound 17: 1-butyl-3-methylimidazolium 2-(2-methoxyethoxy)ethyl sulfate, C13H26N2O6S, InChI=1S/C8H15N2.C5H12O6S/c1-3-4-5-10-7-6-9(2)8-10;1-9-2-3-10-4-5-11-12(6,7)8/h6-8H,3-5H2,1-2H3;2-5H2,1H3,(H,6,7,8)/q+1;/p-1
Compound 18: 1-octyl-3-methylpydridinium bis(trifluoromethylsulfonyl)imide, C16H24F6N2O4S2, InChI=1S/C14H24N.C2F6NO4S2/c1-3-4-5-6-7-8-11-15-12-9-10-14(2)13-15;3-1(4,5)14(10,11)9-15(12,13)2(6,7)8/h9-10,12-13H,3-8,11H2,1-2H3;/q+1;-1
Compound 19: 4-(dimethylamino)-1-hexyl-pyridinium 1,1,1-trifluoro-N-[(trifluoromethyl)sulfonyl]methanesulfonamide, C15H23F6N3O4S2, InChI=1S/C13H23N2.C2F6NO4S2/c1-4-5-6-7-10-15-11-8-13(9-12-15)14(2)3;3-1(4,5)14(10,11)9-15(12,13)2(6,7)8/h8-9,11-12H,4-7,10H2,1-3H3;/q+1;-1
Compound 20: 1-hexyl-4-(4-methyl-1-piperidinyl)pyridinium bromide, C17H29BrN2, InChI=1S/C17H29N2.BrH/c1-3-4-5-6-11-18-12-9-17(10-13-18)19-14-7-16(2)8-15-19;/h9-10,12-13,16H,3-8,11,14-15H2,1-2H3;1H/q+1;/p-1
Compound 21: 1-hexyl-3-methyl-4-(dimethylamino)pyridinium 1,1,1-trifluoro-N-[(trifluoromethyl)sulfonyl]methanesulfonamide, C16H25F6N3O4S2, InChI=1S/C14H25N2.C2F6NO4S2/c1-5-6-7-8-10-16-11-9-14(15(3)4)13(2)12-16;3-1(4,5)14(10,11)9-15(12,13)2(6,7)8/h9,11-12H,5-8,10H2,1-4H3;/q+1;-1
Compound 22: 4-(dimethylamino)-1-hexyl-3-methylpyridinium bromide, C14H25BrN2, InChI=1S/C14H25N2.BrH/c1-5-6-7-8-10-16-11-9-14(15(3)4)13(2)12-16;/h9,11-12H,5-8,10H2,1-4H3;1H/q+1;/p-1
Compound 23: 1-hexyl-4-(4-methyl-1-piperidinyl)pyridinium 1,1,1-trifluoro-N-[(trifluoromethyl)sulfonyl]methanesulfonamide, C19H29F6N3O4S2, InChI=1S/C17H29N2.C2F6NO4S2/c1-3-4-5-6-11-18-12-9-17(10-13-18)19-14-7-16(2)8-15-19;3-1(4,5)14(10,11)9-15(12,13)2(6,7)8/h9-10,12-13,16H,3-8,11,14-15H2,1-2H3;/q+1;-1
Compound 24: 4-(dimethylamino)-1-hexylpyridinium bromide, C13H23BrN2, InChI=1S/C13H23N2.BrH/c1-4-5-6-7-10-15-11-8-13(9-12-15)14(2)3;/h8-9,11-12H,4-7,10H2,1-3H3;1H/q+1;/p-1
Compound 25: 3,5-diethyl-1-hexyl-2-propylpyridinium 1,1,1-trifluoro-N-[(trifluoromethyl)sulfonyl]methanesulfonamide, C20H32F6N2O4S2, InChI=1S/C18H32N.C2F6NO4S2/c1-5-9-10-11-13-19-15-16(7-3)14-17(8-4)18(19)12-6-2;3-1(4,5)14(10,11)9-15(12,13)2(6,7)8/h14-15H,5-13H2,1-4H3;/q+1;-1
Compound 26: 1-hexyl-2-ethyl-3,5-dimethylpyridinium 1,1,1-trifluoro-N-[(trifluoromethyl)sulfonyl]methanesulfonamide, C17H26F6N2O4S2, InChI=1S/C15H26N.C2F6NO4S2/c1-5-7-8-9-10-16-12-13(3)11-14(4)15(16)6-2;3-1(4,5)14(10,11)9-15(12,13)2(6,7)8/h11-12H,5-10H2,1-4H3;/q+1;-1
Compound 27: 1-hexyl-3,5-dimethylpyridinium bis(trifluoromethylsulfonyl)imide, C15H22F6N2O4S2, InChI=1S/C13H22N.C2F6NO4S2/c1-4-5-6-7-8-14-10-12(2)9-13(3)11-14;3-1(4,5)14(10,11)9-15(12,13)2(6,7)8/h9-11H,4-8H2,1-3H3;/q+1;-1
Compound 28: 1-hexyl-3-methylpyridinium 1,1,1-trifluoro-N-[(trifluoromethyl)sulfonyl]methanesulfonamide, C14H20F6N2O4S2, InChI=1S/C12H20N.C2F6NO4S2/c1-3-4-5-6-9-13-10-7-8-12(2)11-13;3-1(4,5)14(10,11)9-15(12,13)2(6,7)8/h7-8,10-11H,3-6,9H2,1-2H3;/q+1;-1
Compound 29: 1-hexyl-3-methylpyridinium bromide, C12H20BrN, InChI=1S/C12H20N.BrH/c1-3-4-5-6-9-13-10-7-8-12(2)11-13;/h7-8,10-11H,3-6,9H2,1-2H3;1H/q+1;/p-1
Compound 30: 1-hexylpyridinium bis(trifluromethylsulfonyl)imide, C13H18F6N2O4S2, InChI=1S/C11H18N.C2F6NO4S2/c1-2-3-4-6-9-12-10-7-5-8-11-12;3-1(4,5)14(10,11)9-15(12,13)2(6,7)8/h5,7-8,10-11H,2-4,6,9H2,1H3;/q+1;-1
Compound 31: 1-butyl-nicotinic acid butyl ester bis[(trifluoromethyl)sulfonyl]imide, C16H22F6N2O6S2, InChI=1S/C14H22NO2.C2F6NO4S2/c1-3-5-9-15-10-7-8-13(12-15)14(16)17-11-6-4-2;3-1(4,5)14(10,11)9-15(12,13)2(6,7)8/h7-8,10,12H,3-6,9,11H2,1-2H3;/q+1;-1
Compound 32: 1-butyl-4-(dimethylamino)pyridinium bromide, C11H19BrN2, InChI=1S/C11H19N2.BrH/c1-4-5-8-13-9-6-11(7-10-13)12(2)3;/h6-7,9-10H,4-5,8H2,1-3H3;1H/q+1;/p-1
Compound 33: 1-butyl-3,5-dimethylpyridinium bromide, C11H18BrN, InChI=1S/C11H18N.BrH/c1-4-5-6-12-8-10(2)7-11(3)9-12;/h7-9H,4-6H2,1-3H3;1H/q+1;/p-1
Compound 34: 1-butyl-3-methylpyridinium tetrafluoroborate, C10H16BF4N, InChI=1S/C10H16N.BF4/c1-3-4-7-11-8-5-6-10(2)9-11;2-1(3,4)5/h5-6,8-9H,3-4,7H2,1-2H3;/q+1;-1
Compound 35: 1-butyl-3-methylpyridinium bromide, C10H16BrN, InChI=1S/C10H16N.BrH/c1-3-4-7-11-8-5-6-10(2)9-11;/h5-6,8-9H,3-4,7H2,1-2H3;1H/q+1;/p-1
Compound 36: 1-butyl-3-methylpyridinium 1,1,1-trifluoro-N-[(trifluoromethyl)sulfonyl]methanesulfonamide, C12H16F6N2O4S2, InChI=1S/C10H16N.C2F6NO4S2/c1-3-4-7-11-8-5-6-10(2)9-11;3-1(4,5)14(10,11)9-15(12,13)2(6,7)8/h5-6,8-9H,3-4,7H2,1-2H3;/q+1;-1
Compound 37: 3-(ethoxycarbonyl)-1-ethylpyridinium ethylsulfate, C12H19NO6S, InChI=1S/C10H14NO2.C2H6O4S/c1-3-11-7-5-6-9(8-11)10(12)13-4-2;1-2-6-7(3,4)5/h5-8H,3-4H2,1-2H3;2H2,1H3,(H,3,4,5)/q+1;/p-1

System: 1-ethyl-3-methylpyridinium ethylsulfate; phases: Glass, Liquid, Air at 1 atmosphere
Property: Triple point temperature, K (Glass); method: DTA:UFactor:4
Triple point temperature, K	uncertainty
202	3

System: 1-ethyl-3-methylpyridinium ethylsulfate; phases: Liquid
Fixed: Pressure, kPa = 101.325
Property: Molar heat capacity at constant pressure, J/K/mol (Liquid); method: Large sample (1 g) DSC
Temperature, K	Molar heat capacity at constant pressure, J/K/mol	uncertainty
298	389	39
323	402	41

System: 1-ethyl-3-methylpyridinium ethylsulfate; phases: Liquid
Fixed: Pressure, kPa = 101.325
Property: Viscosity, Pa*s (Liquid); method: CONPLT:UFactor:2
Temperature, K	Viscosity, Pa*s	uncertainty
283	0.414	0.039
293	0.204	0.017
298	0.15	0.01
303	0.114	0.007
313	0.07	0.004
323	0.045	0.002
333	0.032	0.002
343	0.023	0.001

System: 1-hexyl-3-methylimidazolium tetrafluoroborate; phases: Glass, Liquid, Air at 1 atmosphere
Property: Triple point temperature, K (Glass); method: DTA:UFactor:8
Triple point temperature, K	uncertainty
194	4

System: 1-hexyl-3-methylimidazolium tetrafluoroborate; phases: Liquid
Fixed: Pressure, kPa = 101.325
Property: Molar heat capacity at constant pressure, J/K/mol (Liquid); method: Large sample (1 g) DSC
Temperature, K	Molar heat capacity at constant pressure, J/K/mol	uncertainty
298	416	42
323	433	44

System: 1-butylpyridinium bromide; phases: Crystal, Liquid, Air at 1 atmosphere
Property: Triple point temperature, K (Crystal); method: DTA:UFactor:4:FP
Triple point temperature, K	uncertainty
378	3

System: 1-methyl-3-octylimidazolium tetrafluoroborate; phases: Glass, Liquid, Air at 1 atmosphere
Property: Triple point temperature, K (Glass); method: DTA:UFactor:8:FP
Triple point temperature, K	uncertainty
192	4

System: 1-methyl-3-octylimidazolium tetrafluoroborate; phases: Liquid
Fixed: Pressure, kPa = 101.325
Property: Molar heat capacity at constant pressure, J/K/mol (Liquid); method: Large sample (1 g) DSC
Temperature, K	Molar heat capacity at constant pressure, J/K/mol	uncertainty
298	506	51
323	526	53

System: 1-methyl-3-octylimidazolium bromide; phases: Liquid
Fixed: Pressure, kPa = 101.325
Property: Molar heat capacity at constant pressure, J/K/mol (Liquid); method: Large sample (1 g) DSC
Temperature, K	Molar heat capacity at constant pressure, J/K/mol	uncertainty
298	392	40
323	408	41

System: 1-octyl-3-methylimidazolium bis[(trifluoromethyl)sulfonyl]imide; phases: Glass, Liquid, Air at 1 atmosphere
Property: Triple point temperature, K (Glass); method: DTA:UFactor:8:FP
Triple point temperature, K	uncertainty
189	4

System: 1-octyl-3-methylimidazolium bis[(trifluoromethyl)sulfonyl]imide; phases: Liquid
Fixed: Pressure, kPa = 101.325
Property: Molar heat capacity at constant pressure, J/K/mol (Liquid); method: Large sample (1 g) DSC
Temperature, K	Molar heat capacity at constant pressure, J/K/mol	uncertainty
298	654	66
323	677	68

System: 1-ethyl-3-methylimidazolium bis((trifluoromethyl)sulfonyl)imide; phases: Liquid
Fixed: Pressure, kPa = 101.325
Property: Viscosity, Pa*s (Liquid); method: CONPLT:UFactor:2
Temperature, K	Viscosity, Pa*s	uncertainty
283	0.052	0.003
293	0.036	0.002
298	0.032	0.002
303	0.026	0.001
313	0.019	0.001
323	0.015	0.001
333	0.012	0.001
343	0.009	0.001

System: 1-butyl-3-methylimidazolium trifluoroacetate; phases: Liquid
Fixed: Pressure, kPa = 101.325
Property: Viscosity, Pa*s (Liquid); method: CONPLT:UFactor:2
Temperature, K	Viscosity, Pa*s	uncertainty
283	0.155	0.01
293	0.089	0.005
298	0.07	0.004
303	0.053	0.003
313	0.037	0.002
323	0.026	0.001
333	0.019	0.001
343	0.015	0.001

System: 1-butyl-3-methylimidazolium acetate; phases: Liquid
Fixed: Pressure, kPa = 101.325
Property: Viscosity, Pa*s (Liquid); method: CONPLT:UFactor:2
Temperature, K	Viscosity, Pa*s	uncertainty
283	1.63	0.238
293	0.646	0.08
298	0.44	0.044
303	0.309	0.027
313	0.165	0.012
323	0.097	0.006
333	0.062	0.003
343	0.042	0.002

System: 1-ethylpyridinium ethyl sulfate; phases: Liquid
Fixed: Pressure, kPa = 101.325
Property: Viscosity, Pa*s (Liquid); method: CONPLT:UFactor:2
Temperature, K	Viscosity, Pa*s	uncertainty
283	0.356	0.032
293	0.183	0.014
298	0.137	0.009
303	0.105	0.006
313	0.066	0.004
323	0.043	0.002
333	0.031	0.002
343	0.023	0.001

System: 17-hydroxy-N-(17-hydroxy-3,6,9,12,15-pentaoxaheptadec-1-yl)-N-methyl-N-tetradecyl-3,6,9,12,15-pentaoxaheptadecan-1-aminium methyl sulfate; phases: Liquid
Fixed: Pressure, kPa = 101.325
Property: Molar heat capacity at constant pressure, J/K/mol (Liquid); method: Large sample (1 g) DSC
Temperature, K	Molar heat capacity at constant pressure, J/K/mol	uncertainty
298	1066	108
323	1098	111

System: 17-hydroxy-N-(17-hydroxy-3,6,9,12,15-pentaoxaheptadec-1-yl)-N-methyl-N-tetradecyl-3,6,9,12,15-pentaoxaheptadecan-1-aminium methyl sulfate; phases: Liquid
Fixed: Pressure, kPa = 101.325
Property: Viscosity, Pa*s (Liquid); method: CONPLT:UFactor:4
Temperature, K	Viscosity, Pa*s	uncertainty
283	10.24	4.417
293	2.78	0.941
298	2.79	0.908
303	1.91	0.565
313	0.964	0.233
323	0.511	0.098
333	0.3	0.044
343	0.187	0.021

System: tetrabutylammonium docusate; phases: Glass, Liquid, Air at 1 atmosphere
Property: Triple point temperature, K (Glass); method: DTA:UFactor:8:FP
Triple point temperature, K	uncertainty
211	4

System: tetrabutylammonium docusate; phases: Liquid
Fixed: Pressure, kPa = 101.325
Property: Molar heat capacity at constant pressure, J/K/mol (Liquid); method: Large sample (1 g) DSC
Temperature, K	Molar heat capacity at constant pressure, J/K/mol	uncertainty
298	1325	134
323	1385	140

System: tetrabutylammonium docusate; phases: Liquid
Fixed: Pressure, kPa = 101.325
Property: Viscosity, Pa*s (Liquid); method: CONPLT:UFactor:2
Temperature, K	Viscosity, Pa*s	uncertainty
298	12.1	2.736
303	7.56	1.57
313	3.18	0.56
323	1.47	0.213
333	0.755	0.089
343	0.411	0.041

System: 1-methyl-3-(3,3,4,4,5,5,6,6,6-nonafluorohexyl)-1H-imidazolium 1,1,1-trifluoro-N-[(trifluoromethyl)sulfonyl]methanesulfonamide; phases: Glass, Liquid, Air at 1 atmosphere
Property: Triple point temperature, K (Glass); method: DTA:UFactor:8:FP
Triple point temperature, K	uncertainty
217	4

System: 1-methyl-3-(3,3,4,4,5,5,6,6,6-nonafluorohexyl)-1H-imidazolium 1,1,1-trifluoro-N-[(trifluoromethyl)sulfonyl]methanesulfonamide; phases: Liquid
Fixed: Pressure, kPa = 101.325
Property: Molar heat capacity at constant pressure, J/K/mol (Liquid); method: Large sample (1 g) DSC
Temperature, K	Molar heat capacity at constant pressure, J/K/mol	uncertainty
298	725	73
323	752	76

System: 1-hexyl-2,3-dimethylimidazolium bis[(trifluoromethyl)sulfonyl]imide; phases: Glass, Liquid, Air at 1 atmosphere
Property: Triple point temperature, K (Glass); method: DTA:UFactor:8:FP
Triple point temperature, K	uncertainty
199	4

System: 1-hexyl-2,3-dimethylimidazolium bis[(trifluoromethyl)sulfonyl]imide; phases: Crystal, Liquid, Air at 1 atmosphere
Property: Triple point temperature, K (Crystal); method: DTA:UFactor:4:FP
Triple point temperature, K	uncertainty
268	3

System: 1-hexyl-2,3-dimethylimidazolium bis[(trifluoromethyl)sulfonyl]imide; phases: Liquid
Fixed: Pressure, kPa = 101.325
Property: Molar heat capacity at constant pressure, J/K/mol (Liquid); method: Large sample (1 g) DSC
Temperature, K	Molar heat capacity at constant pressure, J/K/mol	uncertainty
298	686	69
323	705	71

System: 1-hexyl-2,3-dimethylimidazolium bis[(trifluoromethyl)sulfonyl]imide; phases: Liquid
Fixed: Pressure, kPa = 101.325
Property: Viscosity, Pa*s (Liquid); method: CONPLT:UFactor:2
Temperature, K	Viscosity, Pa*s	uncertainty
283	0.317	0.027
293	0.171	0.013
298	0.131	0.009
303	0.101	0.006
313	0.063	0.003
323	0.042	0.002
333	0.03	0.002
343	0.022	0.001

System: 1-hexyl-3-methylimidazolium bis[(trifluoromethyl)sulfonyl]imide; phases: Glass, Liquid, Air at 1 atmosphere
Property: Triple point temperature, K (Glass); method: DTA:UFactor:8:FP
Triple point temperature, K	uncertainty
189	4

System: 1-hexyl-3-methylimidazolium bis[(trifluoromethyl)sulfonyl]imide; phases: Metastable crystal, Liquid, Air at 1 atmosphere
Property: Triple point temperature, K (Metastable crystal); method: DTA:UFactor:4:FP
Triple point temperature, K	uncertainty
266	3

System: 1-hexyl-3-methylimidazolium bis[(trifluoromethyl)sulfonyl]imide; phases: Liquid
Fixed: Pressure, kPa = 101.325
Property: Molar heat capacity at constant pressure, J/K/mol (Liquid); method: Large sample (1 g) DSC
Temperature, K	Molar heat capacity at constant pressure, J/K/mol	uncertainty
298	583	59
323	604	61

System: 1-hexyl-3-methylimidazolium bis[(trifluoromethyl)sulfonyl]imide; phases: Liquid
Fixed: Pressure, kPa = 101.325
Property: Viscosity, Pa*s (Liquid); method: CONPLT:UFactor:2
Temperature, K	Viscosity, Pa*s	uncertainty
283	0.148	0.01
293	0.086	0.005
298	0.068	0.004
303	0.055	0.003
313	0.037	0.002
323	0.026	0.001
333	0.019	0.001
343	0.015	0.001

System: 3-hexyl-1-methyl-1H-imidazolium bromide; phases: Glass, Liquid, Air at 1 atmosphere
Property: Triple point temperature, K (Glass); method: DTA:UFactor:8:FP
Triple point temperature, K	uncertainty
224	4

System: 3-hexyl-1-methyl-1H-imidazolium bromide; phases: Liquid
Fixed: Pressure, kPa = 101.325
Property: Molar heat capacity at constant pressure, J/K/mol (Liquid); method: Large sample (1 g) DSC
Temperature, K	Molar heat capacity at constant pressure, J/K/mol	uncertainty
298	344	35
323	357	36

System: 1-butyl-3-methylimidazolium 2-(2-methoxyethoxy)ethyl sulfate; phases: Glass, Liquid, Air at 1 atmosphere
Property: Triple point temperature, K (Glass); method: DTA:UFactor:8:FP
Triple point temperature, K	uncertainty
211	4

System: 1-butyl-3-methylimidazolium 2-(2-methoxyethoxy)ethyl sulfate; phases: Liquid
Fixed: Pressure, kPa = 101.325
Property: Molar heat capacity at constant pressure, J/K/mol (Liquid); method: Large sample (1 g) DSC
Temperature, K	Molar heat capacity at constant pressure, J/K/mol	uncertainty
298	643	65
323	652	66

System: 1-butyl-3-methylimidazolium 2-(2-methoxyethoxy)ethyl sulfate; phases: Liquid
Fixed: Pressure, kPa = 101.325
Property: Viscosity, Pa*s (Liquid); method: CONPLT:UFactor:2
Temperature, K	Viscosity, Pa*s	uncertainty
283	4.07	0.734
293	1.676	0.26
298	1.033	0.135
303	0.731	0.082
313	0.392	0.036
323	0.228	0.017
333	0.146	0.009
343	0.098	0.005

System: 1-octyl-3-methylpydridinium bis(trifluoromethylsulfonyl)imide; phases: Glass, Liquid, Air at 1 atmosphere
Property: Triple point temperature, K (Glass); method: DTA:UFactor:8:FP
Triple point temperature, K	uncertainty
193	4

System: 1-octyl-3-methylpydridinium bis(trifluoromethylsulfonyl)imide; phases: Liquid
Fixed: Pressure, kPa = 101.325
Property: Molar heat capacity at constant pressure, J/K/mol (Liquid); method: Large sample (1 g) DSC
Temperature, K	Molar heat capacity at constant pressure, J/K/mol	uncertainty
298	669	68
323	693	70

System: 1-octyl-3-methylpydridinium bis(trifluoromethylsulfonyl)imide; phases: Liquid
Fixed: Pressure, kPa = 101.325
Property: Viscosity, Pa*s (Liquid); method: CONPLT:UFactor:2
Temperature, K	Viscosity, Pa*s	uncertainty
283	0.268	0.022
293	0.146	0.01
298	0.112	0.007
303	0.088	0.005
313	0.056	0.005
323	0.027	0.008
333	0.026	0.003
343	0.019	0.003

System: 4-(dimethylamino)-1-hexyl-pyridinium 1,1,1-trifluoro-N-[(trifluoromethyl)sulfonyl]methanesulfonamide; phases: Glass, Liquid, Air at 1 atmosphere
Property: Triple point temperature, K (Glass); method: DTA:UFactor:8:FP
Triple point temperature, K	uncertainty
218	4

System: 4-(dimethylamino)-1-hexyl-pyridinium 1,1,1-trifluoro-N-[(trifluoromethyl)sulfonyl]methanesulfonamide; phases: Crystal, Liquid, Air at 1 atmosphere
Property: Triple point temperature, K (Crystal); method: DTA:UFactor:4:FP
Triple point temperature, K	uncertainty
310	3

System: 1-hexyl-4-(4-methyl-1-piperidinyl)pyridinium bromide; phases: Glass, Liquid, Air at 1 atmosphere
Property: Triple point temperature, K (Glass); method: DTA:UFactor:8:FP
Triple point temperature, K	uncertainty
306	4

System: 1-hexyl-3-methyl-4-(dimethylamino)pyridinium 1,1,1-trifluoro-N-[(trifluoromethyl)sulfonyl]methanesulfonamide; phases: Glass, Liquid, Air at 1 atmosphere
Property: Triple point temperature, K (Glass); method: DTA:UFactor:8:FP
Triple point temperature, K	uncertainty
201	4

System: 1-hexyl-3-methyl-4-(dimethylamino)pyridinium 1,1,1-trifluoro-N-[(trifluoromethyl)sulfonyl]methanesulfonamide; phases: Crystal, Liquid, Air at 1 atmosphere
Property: Triple point temperature, K (Crystal); method: DTA:UFactor:4:FP
Triple point temperature, K	uncertainty
271	3

System: 1-hexyl-3-methyl-4-(dimethylamino)pyridinium 1,1,1-trifluoro-N-[(trifluoromethyl)sulfonyl]methanesulfonamide; phases: Liquid
Fixed: Pressure, kPa = 101.325
Property: Molar heat capacity at constant pressure, J/K/mol (Liquid); method: Large sample (1 g) DSC
Temperature, K	Molar heat capacity at constant pressure, J/K/mol	uncertainty
298	725	73
323	764	77

System: 1-hexyl-3-methyl-4-(dimethylamino)pyridinium 1,1,1-trifluoro-N-[(trifluoromethyl)sulfonyl]methanesulfonamide; phases: Liquid
Fixed: Pressure, kPa = 101.325
Property: Viscosity, Pa*s (Liquid); method: CONPLT:UFactor:2
Temperature, K	Viscosity, Pa*s	uncertainty
283	0.278	0.023
293	0.148	0.011
298	0.112	0.007
303	0.087	0.005
313	0.055	0.003
323	0.037	0.002
333	0.026	0.001
343	0.019	0.001

System: 4-(dimethylamino)-1-hexyl-3-methylpyridinium bromide; phases: Glass, Liquid, Air at 1 atmosphere
Property: Triple point temperature, K (Glass); method: DTA:UFactor:8:FP
Triple point temperature, K	uncertainty
271	4

System: 4-(dimethylamino)-1-hexyl-3-methylpyridinium bromide; phases: Crystal, Liquid, Air at 1 atmosphere
Property: Triple point temperature, K (Crystal); method: DTA:UFactor:4:FP
Triple point temperature, K	uncertainty
392	3

System: 1-hexyl-4-(4-methyl-1-piperidinyl)pyridinium 1,1,1-trifluoro-N-[(trifluoromethyl)sulfonyl]methanesulfonamide; phases: Glass, Liquid, Air at 1 atmosphere
Property: Triple point temperature, K (Glass); method: DTA:UFactor:8:FP
Triple point temperature, K	uncertainty
204	4

System: 1-hexyl-4-(4-methyl-1-piperidinyl)pyridinium 1,1,1-trifluoro-N-[(trifluoromethyl)sulfonyl]methanesulfonamide; phases: Liquid
Fixed: Pressure, kPa = 101.325
Property: Molar heat capacity at constant pressure, J/K/mol (Liquid); method: Large sample (1 g) DSC
Temperature, K	Molar heat capacity at constant pressure, J/K/mol	uncertainty
298	628	63
323	650	66

System: 1-hexyl-4-(4-methyl-1-piperidinyl)pyridinium 1,1,1-trifluoro-N-[(trifluoromethyl)sulfonyl]methanesulfonamide; phases: Liquid
Fixed: Pressure, kPa = 101.325
Property: Viscosity, Pa*s (Liquid); method: CONPLT:UFactor:2
Temperature, K	Viscosity, Pa*s	uncertainty
283	0.285	0.024
293	0.146	0.011
298	0.111	0.007
303	0.086	0.005
313	0.054	0.003
323	0.036	0.002
333	0.025	0.001
343	0.015	0.001

System: 4-(dimethylamino)-1-hexylpyridinium bromide; phases: Crystal, Liquid, Air at 1 atmosphere
Property: Triple point temperature, K (Crystal); method: DTA:UFactor:4:FP
Triple point temperature, K	uncertainty
469	3

System: 3,5-diethyl-1-hexyl-2-propylpyridinium 1,1,1-trifluoro-N-[(trifluoromethyl)sulfonyl]methanesulfonamide; phases: Glass, Liquid, Air at 1 atmosphere
Property: Triple point temperature, K (Glass); method: DTA:UFactor:8:FP
Triple point temperature, K	uncertainty
206	4

System: 3,5-diethyl-1-hexyl-2-propylpyridinium 1,1,1-trifluoro-N-[(trifluoromethyl)sulfonyl]methanesulfonamide; phases: Liquid
Fixed: Pressure, kPa = 101.325
Property: Molar heat capacity at constant pressure, J/K/mol (Liquid); method: Large sample (1 g) DSC
Temperature, K	Molar heat capacity at constant pressure, J/K/mol	uncertainty
298	766	77
323	799	81

System: 3,5-diethyl-1-hexyl-2-propylpyridinium 1,1,1-trifluoro-N-[(trifluoromethyl)sulfonyl]methanesulfonamide; phases: Liquid
Fixed: Pressure, kPa = 101.325
Property: Viscosity, Pa*s (Liquid); method: CONPLT:UFactor:2
Temperature, K	Viscosity, Pa*s	uncertainty
283	0.579	0.061
293	0.281	0.026
298	0.206	0.016
303	0.155	0.01
313	0.091	0.005
323	0.057	0.003
333	0.039	0.002
343	0.027	0.002

System: 1-hexyl-2-ethyl-3,5-dimethylpyridinium 1,1,1-trifluoro-N-[(trifluoromethyl)sulfonyl]methanesulfonamide; phases: Glass, Liquid, Air at 1 atmosphere
Property: Triple point temperature, K (Glass); method: DTA:UFactor:8:FP
Triple point temperature, K	uncertainty
207	4

System: 1-hexyl-2-ethyl-3,5-dimethylpyridinium 1,1,1-trifluoro-N-[(trifluoromethyl)sulfonyl]methanesulfonamide; phases: Liquid
Fixed: Pressure, kPa = 101.325
Property: Viscosity, Pa*s (Liquid); method: CONPLT:UFactor:2
Temperature, K	Viscosity, Pa*s	uncertainty
283	0.708	0.08
293	0.338	0.033
298	0.245	0.02
303	0.182	0.013
313	0.106	0.007
323	0.064	0.004
333	0.042	0.002
343	0.029	0.002

System: 1-hexyl-3,5-dimethylpyridinium bis(trifluoromethylsulfonyl)imide; phases: Glass, Liquid, Air at 1 atmosphere
Property: Triple point temperature, K (Glass); method: DTA:UFactor:8:FP
Triple point temperature, K	uncertainty
197	4

System: 1-hexyl-3,5-dimethylpyridinium bis(trifluoromethylsulfonyl)imide; phases: Crystal, Liquid, Air at 1 atmosphere
Property: Triple point temperature, K (Crystal); method: DTA:UFactor:4:FP
Triple point temperature, K	uncertainty
283	3

System: 1-hexyl-3,5-dimethylpyridinium bis(trifluoromethylsulfonyl)imide; phases: Liquid
Fixed: Pressure, kPa = 101.325
Property: Molar heat capacity at constant pressure, J/K/mol (Liquid); method: Large sample (1 g) DSC
Temperature, K	Molar heat capacity at constant pressure, J/K/mol	uncertainty
298	620	63
323	665	67

System: 1-hexyl-3,5-dimethylpyridinium bis(trifluoromethylsulfonyl)imide; phases: Liquid
Fixed: Pressure, kPa = 101.325
Property: Viscosity, Pa*s (Liquid); method: CONPLT:UFactor:2
Temperature, K	Viscosity, Pa*s	uncertainty
283	0.251	0.02
293	0.136	0.01
298	0.104	0.006
303	0.081	0.004
313	0.052	0.003
323	0.035	0.002
333	0.024	0.001
343	0.018	0.001

System: 1-hexyl-3-methylpyridinium 1,1,1-trifluoro-N-[(trifluoromethyl)sulfonyl]methanesulfonamide; phases: Glass, Liquid, Air at 1 atmosphere
Property: Triple point temperature, K (Glass); method: DTA:UFactor:8:FP
Triple point temperature, K	uncertainty
191	4

System: 1-hexyl-3-methylpyridinium 1,1,1-trifluoro-N-[(trifluoromethyl)sulfonyl]methanesulfonamide; phases: Liquid
Fixed: Pressure, kPa = 101.325
Property: Molar heat capacity at constant pressure, J/K/mol (Liquid); method: Large sample (1 g) DSC
Temperature, K	Molar heat capacity at constant pressure, J/K/mol	uncertainty
298	624	63
323	644	65

System: 1-hexyl-3-methylpyridinium 1,1,1-trifluoro-N-[(trifluoromethyl)sulfonyl]methanesulfonamide; phases: Liquid
Fixed: Pressure, kPa = 101.325
Property: Viscosity, Pa*s (Liquid); method: CONPLT:UFactor:2
Temperature, K	Viscosity, Pa*s	uncertainty
283	0.197	0.014
293	0.11	0.007
298	0.085	0.005
303	0.067	0.004
313	0.044	0.002
323	0.03	0.002
333	0.022	0.001
343	0.016	0.001

System: 1-hexyl-3-methylpyridinium bromide; phases: Glass, Liquid, Air at 1 atmosphere
Property: Triple point temperature, K (Glass); method: DTA:UFactor:8:FP
Triple point temperature, K	uncertainty
236	4

System: 1-hexyl-3-methylpyridinium bromide; phases: Liquid
Fixed: Pressure, kPa = 101.325
Property: Molar heat capacity at constant pressure, J/K/mol (Liquid); method: Large sample (1 g) DSC
Temperature, K	Molar heat capacity at constant pressure, J/K/mol	uncertainty
298	343	35
323	358	36

System: 1-hexylpyridinium bis(trifluromethylsulfonyl)imide; phases: Glass, Liquid, Air at 1 atmosphere
Property: Triple point temperature, K (Glass); method: DTA:UFactor:8:FP
Triple point temperature, K	uncertainty
196	4

System: 1-hexylpyridinium bis(trifluromethylsulfonyl)imide; phases: Crystal, Liquid, Air at 1 atmosphere
Property: Triple point temperature, K (Crystal); method: DTA:UFactor:4:FP
Triple point temperature, K	uncertainty
273	3

System: 1-hexylpyridinium bis(trifluromethylsulfonyl)imide; phases: Liquid
Fixed: Pressure, kPa = 101.325
Property: Molar heat capacity at constant pressure, J/K/mol (Liquid); method: Large sample (1 g) DSC
Temperature, K	Molar heat capacity at constant pressure, J/K/mol	uncertainty
298	612	62
323	632	64

System: 1-hexylpyridinium bis(trifluromethylsulfonyl)imide; phases: Liquid
Fixed: Pressure, kPa = 101.325
Property: Viscosity, Pa*s (Liquid); method: CONPLT:UFactor:2
Temperature, K	Viscosity, Pa*s	uncertainty
283	0.189	0.014
293	0.106	0.007
298	0.08	0.005
303	0.064	0.003
313	0.042	0.002
323	0.029	0.002
333	0.021	0.001
343	0.016	0.001

System: 1-butyl-nicotinic acid butyl ester bis[(trifluoromethyl)sulfonyl]imide; phases: Glass, Liquid, Air at 1 atmosphere
Property: Triple point temperature, K (Glass); method: DTA:UFactor:8
Triple point temperature, K	uncertainty
215	4

System: 1-butyl-nicotinic acid butyl ester bis[(trifluoromethyl)sulfonyl]imide; phases: Crystal, Liquid, Air at 1 atmosphere
Property: Triple point temperature, K (Crystal); method: DTA:UFactor:4:FP
Triple point temperature, K	uncertainty
288	3

System: 1-butyl-nicotinic acid butyl ester bis[(trifluoromethyl)sulfonyl]imide; phases: Liquid
Fixed: Pressure, kPa = 101.325
Property: Molar heat capacity at constant pressure, J/K/mol (Liquid); method: Large sample (1 g) DSC
Temperature, K	Molar heat capacity at constant pressure, J/K/mol	uncertainty
298	707	71
323	727	73

System: 1-butyl-nicotinic acid butyl ester bis[(trifluoromethyl)sulfonyl]imide; phases: Liquid
Fixed: Pressure, kPa = 101.325
Property: Viscosity, Pa*s (Liquid); method: CONPLT:UFactor:2
Temperature, K	Viscosity, Pa*s	uncertainty
283	1.83	0.275
293	0.744	0.095
298	0.531	0.056
303	0.379	0.035
313	0.203	0.016
323	0.117	0.007
333	0.073	0.004
343	0.048	0.003

System: 1-butyl-4-(dimethylamino)pyridinium bromide; phases: Crystal, Liquid, Air at 1 atmosphere
Property: Triple point temperature, K (Crystal); method: DTA:UFactor:4:FP
Triple point temperature, K	uncertainty
495	3

System: 1-butyl-3,5-dimethylpyridinium bromide; phases: Glass, Liquid, Air at 1 atmosphere
Property: Triple point temperature, K (Glass); method: DTA:UFactor:8:FP
Triple point temperature, K	uncertainty
249	4

System: 1-butyl-3,5-dimethylpyridinium bromide; phases: Crystal, Liquid, Air at 1 atmosphere
Property: Triple point temperature, K (Crystal); method: DTA:UFactor:4:FP
Triple point temperature, K	uncertainty
368	3

System: 1-butyl-3-methylpyridinium tetrafluoroborate; phases: Glass, Liquid, Air at 1 atmosphere
Property: Triple point temperature, K (Glass); method: DTA:UFactor:8:FP
Triple point temperature, K	uncertainty
197	4

System: 1-butyl-3-methylpyridinium tetrafluoroborate; phases: Liquid
Fixed: Pressure, kPa = 101.325
Property: Molar heat capacity at constant pressure, J/K/mol (Liquid); method: Large sample (1 g) DSC
Temperature, K	Molar heat capacity at constant pressure, J/K/mol	uncertainty
298	405	41
323	421	43

System: 1-butyl-3-methylpyridinium tetrafluoroborate; phases: Liquid
Fixed: Pressure, kPa = 101.325
Property: Viscosity, Pa*s (Liquid); method: CONPLT:UFactor:2
Temperature, K	Viscosity, Pa*s	uncertainty
283	0.517	0.053
293	0.246	0.022
298	0.177	0.013
303	0.132	0.008
313	0.078	0.004
323	0.048	0.003
333	0.033	0.002
343	0.023	0.001

System: 1-butyl-3-methylpyridinium bromide; phases: Glass, Liquid, Air at 1 atmosphere
Property: Triple point temperature, K (Glass); method: DTA:UFactor:8:FP
Triple point temperature, K	uncertainty
237	4

System: 1-butyl-3-methylpyridinium 1,1,1-trifluoro-N-[(trifluoromethyl)sulfonyl]methanesulfonamide; phases: Glass, Liquid, Air at 1 atmosphere
Property: Triple point temperature, K (Glass); method: DTA:UFactor:8:FP
Triple point temperature, K	uncertainty
189	4

System: 1-butyl-3-methylpyridinium 1,1,1-trifluoro-N-[(trifluoromethyl)sulfonyl]methanesulfonamide; phases: Liquid
Fixed: Pressure, kPa = 101.325
Property: Molar heat capacity at constant pressure, J/K/mol (Liquid); method: Large sample (1 g) DSC
Temperature, K	Molar heat capacity at constant pressure, J/K/mol	uncertainty
298	622	63
323	641	65

System: 1-butyl-3-methylpyridinium 1,1,1-trifluoro-N-[(trifluoromethyl)sulfonyl]methanesulfonamide; phases: Liquid
Fixed: Pressure, kPa = 101.325
Property: Viscosity, Pa*s (Liquid); method: CONPLT:UFactor:2
Temperature, K	Viscosity, Pa*s	uncertainty
283	0.138	0.008
293	0.08	0.004
298	0.063	0.003
303	0.051	0.002
313	0.034	0.002
323	0.024	0.001
333	0.018	0.001
343	0.014	0.001

System: 3-(ethoxycarbonyl)-1-ethylpyridinium ethylsulfate; phases: Glass, Liquid, Air at 1 atmosphere
Property: Triple point temperature, K (Glass); method: DTA:UFactor:4:FP
Triple point temperature, K	uncertainty
229	3

System: 3-(ethoxycarbonyl)-1-ethylpyridinium ethylsulfate; phases: Liquid
Fixed: Pressure, kPa = 101.325
Property: Molar heat capacity at constant pressure, J/K/mol (Liquid); method: Large sample (1 g) DSC
Temperature, K	Molar heat capacity at constant pressure, J/K/mol	uncertainty
298	513	52
323	530	54

System: 3-(ethoxycarbonyl)-1-ethylpyridinium ethylsulfate; phases: Liquid
Fixed: Pressure, kPa = 101.325
Property: Viscosity, Pa*s (Liquid); method: CONPLT:UFactor:2
Temperature, K	Viscosity, Pa*s	uncertainty
283	19.61	4.804
293	5.675	1.233
298	3.173	0.568
303	1.986	0.309
313	0.846	0.107
323	0.405	0.04
333	0.221	0.017
343	0.13	0.009
