Measured thermophysical data. Investigation of solute-solvent interactions in {1-butyl-3-methyl imidazoliumBis(trifluoromethylsulfonyl)imide + dimethylcarbonate} mixture using physicochemical properties
Source: J. Chem. Thermodyn., 2017, 10.1016/j.jct.2017.07.013
Compound 1: 1-butyl-3-methylimidazolium bis(trifluoromethylsulfonyl)imide, C10H15F6N3O4S2, InChI=1S/C8H15N2.C2F6NO4S2/c1-3-4-5-10-7-6-9(2)8-10;3-1(4,5)14(10,11)9-15(12,13)2(6,7)8/h6-8H,3-5H2,1-2H3;/q+1;-1, purity 99%
Compound 2: dimethyl carbonate, C3H6O3, InChI=1S/C3H6O3/c1-5-3(4)6-2/h1-2H3, purity 99.5%

System: 1-butyl-3-methylimidazolium bis(trifluoromethylsulfonyl)imide; phases: Liquid
Fixed: Pressure, kPa = 101.3
Property: Mass density, kg/m3 (Liquid); method: Vibrating tube method
Temperature, K	Mass density, kg/m3	uncertainty
303.15	1428.9	2.1
308.15	1424.1	2.1
313.15	1419.4	2.1
318.15	1414.6	2.1
323.15	1409.9	2.1

System: 1-butyl-3-methylimidazolium bis(trifluoromethylsulfonyl)imide; phases: Liquid
Fixed: Pressure, kPa = 101.3
Fixed: Frequency, MHz = 3
Property: Speed of sound, m/s (Liquid); method: Single path-length method
Temperature, K	Speed of sound, m/s	uncertainty
303.15	1216.8	1.4
308.15	1205.8	1.4
313.15	1195	1.4
318.15	1184.2	1.4
323.15	1173.6	1.4

System: 1-butyl-3-methylimidazolium bis(trifluoromethylsulfonyl)imide; phases: Liquid
Fixed: Pressure, kPa = 101.3
Property: Refractive index (Na D-line) (Liquid); method: Standard Abbe refractometry
Temperature, K	Refractive index (Na D-line)	uncertainty
303.15	1.4245	0.0011
308.15	1.4231	0.0011
313.15	1.421	0.0011
318.15	1.4195	0.0011
323.15	1.4173	0.0011

System: dimethyl carbonate; phases: Liquid
Fixed: Pressure, kPa = 101.3
Property: Mass density, kg/m3 (Liquid); method: Vibrating tube method
Temperature, K	Mass density, kg/m3	uncertainty
303.15	1056.8	2
308.15	1050.2	2
313.15	1043.5	2
318.15	1036.8	2
323.15	1030	2

System: dimethyl carbonate; phases: Liquid
Fixed: Pressure, kPa = 101.3
Fixed: Frequency, MHz = 3
Property: Speed of sound, m/s (Liquid); method: Single path-length method
Temperature, K	Speed of sound, m/s	uncertainty
303.15	1177.3	1.1
308.15	1155.6	1.1
313.15	1134.2	1.1
318.15	1113.1	1.1
323.15	1092.2	1.1

System: dimethyl carbonate; phases: Liquid
Fixed: Pressure, kPa = 101.3
Property: Refractive index (Na D-line) (Liquid); method: Standard Abbe refractometry
Temperature, K	Refractive index (Na D-line)	uncertainty
303.15	1.3648	0.001
308.15	1.3629	0.001
313.15	1.3626	0.001
318.15	1.3601	0.001
323.15	1.3586	0.001

System: 1-butyl-3-methylimidazolium bis(trifluoromethylsulfonyl)imide + dimethyl carbonate; phases: Liquid
Fixed: Pressure, kPa = 101.3
Property: Mass density, kg/m3 (Liquid); method: Vibrating tube method
Temperature, K	Mole fraction of 1-butyl-3-methylimidazolium bis(trifluoromethylsulfonyl)imide	Mass density, kg/m3	uncertainty
303.15	0	1056.8	2
303.15	0.0512	1120.1	2.3
303.15	0.101	1168.9	2.2
303.15	0.1495	1207.1	2.1
303.15	0.1945	1236.1	2.1
303.15	0.2994	1288.3	2.1
303.15	0.3999	1324.3	2
303.15	0.4976	1351.4	2
303.15	0.5842	1370.7	2
303.15	0.6886	1389.7	2.1
303.15	0.7475	1399	2.1
303.15	0.8014	1406.6	2.1
303.15	0.889	1417.4	2.1
303.15	0.9526	1424.2	2.1
303.15	1	1428.9	2.1
308.15	0	1050.2	2
308.15	0.0512	1113.8	2.3
308.15	0.101	1163	2.2
308.15	0.1495	1201.3	2.1
308.15	0.1945	1230.5	2.1
308.15	0.2994	1282.9	2.1
308.15	0.3999	1319.1	2
308.15	0.4976	1346.3	2
308.15	0.5842	1365.6	2
308.15	0.6886	1384.8	2.1
308.15	0.7475	1394.1	2.1
308.15	0.8014	1401.8	2.1
308.15	0.889	1412.6	2.1
308.15	0.9526	1419.4	2.1
308.15	1	1424.1	2.1
313.15	0	1043.5	2
313.15	0.0512	1107.5	2.3
313.15	0.101	1157	2.2
313.15	0.1495	1195.5	2.1
313.15	0.1945	1224.9	2.1
313.15	0.2994	1277.6	2.1
313.15	0.3999	1313.9	2
313.15	0.4976	1341.2	2
313.15	0.5842	1360.7	2
313.15	0.6886	1379.8	2
313.15	0.7475	1389.2	2.1
313.15	0.8014	1396.9	2.1
313.15	0.889	1407.8	2.1
313.15	0.9526	1414.6	2.1
313.15	1	1419.4	2.1
318.15	0	1036.8	2
318.15	0.0512	1101.2	2.3
318.15	0.101	1151	2.2
318.15	0.1495	1189.8	2.1
318.15	0.1945	1219.3	2.1
318.15	0.2994	1272.2	2.1
318.15	0.3999	1308.8	2
318.15	0.4976	1336.2	2
318.15	0.5842	1355.7	2
318.15	0.6886	1374.9	2
318.15	0.7475	1384.3	2.1
318.15	0.8014	1392.1	2.1
318.15	0.889	1403	2.1
318.15	0.9526	1409.9	2.1
318.15	1	1414.6	2.1
323.15	0	1030	2
323.15	0.0512	1094.9	2.3
323.15	0.101	1145	2.2
323.15	0.1495	1184	2.1
323.15	0.1945	1213.7	2.1
323.15	0.2994	1266.9	2.1
323.15	0.3999	1303.6	2
323.15	0.4976	1331.1	2
323.15	0.5842	1350.7	2
323.15	0.6886	1370.1	2
323.15	0.7475	1379.5	2.1
323.15	0.8014	1387.3	2.1
323.15	0.889	1398.2	2.1
323.15	0.9526	1405.1	2.1
323.15	1	1409.9	2.1

System: 1-butyl-3-methylimidazolium bis(trifluoromethylsulfonyl)imide + dimethyl carbonate; phases: Liquid
Fixed: Pressure, kPa = 101.3
Fixed: Frequency, MHz = 3
Property: Speed of sound, m/s (Liquid); method: Single path-length method
Temperature, K	Mole fraction of 1-butyl-3-methylimidazolium bis(trifluoromethylsulfonyl)imide	Speed of sound, m/s	uncertainty
303.15	0	1177.3	1.1
303.15	0.0512	1187	1.1
303.15	0.101	1196.1	1.2
303.15	0.1495	1203.7	1.2
303.15	0.1945	1209.2	1.2
303.15	0.2994	1215.4	1.2
303.15	0.3999	1217.4	1.2
303.15	0.4976	1217.7	1.3
303.15	0.5842	1217.4	1.3
303.15	0.6886	1217.4	1.3
303.15	0.7475	1217.2	1.3
303.15	0.8014	1217	1.3
303.15	0.889	1216.8	1.4
303.15	0.9526	1216.8	1.4
303.15	1	1216.8	1.4
308.15	0	1155.6	1.1
308.15	0.0512	1167.2	1.2
308.15	0.101	1177.7	1.2
308.15	0.1495	1186.5	1.2
308.15	0.1945	1192.9	1.2
308.15	0.2994	1200.7	1.2
308.15	0.3999	1203.8	1.2
308.15	0.4976	1204.9	1.3
308.15	0.5842	1205	1.3
308.15	0.6886	1205.5	1.3
308.15	0.7475	1205.6	1.3
308.15	0.8014	1205.6	1.3
308.15	0.889	1205.6	1.4
308.15	0.9526	1205.7	1.4
308.15	1	1205.8	1.4
313.15	0	1134.2	1.1
313.15	0.0512	1147.5	1.2
313.15	0.101	1159.4	1.2
313.15	0.1495	1169.4	1.2
313.15	0.1945	1176.8	1.2
313.15	0.2994	1186.2	1.2
313.15	0.3999	1190.3	1.2
313.15	0.4976	1192.1	1.3
313.15	0.5842	1192.8	1.3
313.15	0.6886	1193.7	1.3
313.15	0.7475	1194	1.3
313.15	0.8014	1194.2	1.3
313.15	0.889	1194.5	1.4
313.15	0.9526	1194.8	1.4
313.15	1	1195	1.4
318.15	0	1113.1	1.1
318.15	0.0512	1127.6	1.2
318.15	0.101	1141	1.2
318.15	0.1495	1152.4	1.2
318.15	0.1945	1160.8	1.2
318.15	0.2994	1171.7	1.2
318.15	0.3999	1176.9	1.2
318.15	0.4976	1179.5	1.3
318.15	0.5842	1180.6	1.3
318.15	0.6886	1182.1	1.3
318.15	0.7475	1182.6	1.3
318.15	0.8014	1183	1.3
318.15	0.889	1183.6	1.4
318.15	0.9526	1184	1.4
318.15	1	1184.2	1.4
323.15	0	1092.2	1.1
323.15	0.0512	1108.3	1.2
323.15	0.101	1123	1.2
323.15	0.1495	1135.6	1.2
323.15	0.1945	1144.9	1.2
323.15	0.2994	1157.4	1.2
323.15	0.3999	1163.6	1.2
323.15	0.4976	1166.9	1.3
323.15	0.5842	1168.6	1.3
323.15	0.6886	1170.5	1.3
323.15	0.7475	1171.3	1.3
323.15	0.8014	1171.8	1.3
323.15	0.889	1172.7	1.4
323.15	0.9526	1173.3	1.4
323.15	1	1173.6	1.4

System: 1-butyl-3-methylimidazolium bis(trifluoromethylsulfonyl)imide + dimethyl carbonate; phases: Liquid
Fixed: Pressure, kPa = 101.3
Property: Refractive index (Na D-line) (Liquid); method: Standard Abbe refractometry
Temperature, K	Mole fraction of 1-butyl-3-methylimidazolium bis(trifluoromethylsulfonyl)imide	Refractive index (Na D-line)	uncertainty
303.15	0	1.3648	0.001
303.15	0.0512	1.3757	0.0011
303.15	0.101	1.3844	0.0011
303.15	0.1495	1.3913	0.0011
303.15	0.1945	1.3965	0.0011
303.15	0.2994	1.4053	0.0011
303.15	0.3999	1.4106	0.0011
303.15	0.4976	1.4141	0.0011
303.15	0.5842	1.4165	0.0011
303.15	0.6886	1.4191	0.0011
303.15	0.7475	1.4204	0.0011
303.15	0.8014	1.4216	0.0011
303.15	0.889	1.4233	0.0011
303.15	0.9526	1.4242	0.0011
303.15	1	1.4245	0.0011
308.15	0	1.3629	0.001
308.15	0.0512	1.3741	0.0011
308.15	0.101	1.383	0.0011
308.15	0.1495	1.39	0.0011
308.15	0.1945	1.3953	0.0011
308.15	0.2994	1.4042	0.0011
308.15	0.3999	1.4095	0.0011
308.15	0.4976	1.4131	0.0011
308.15	0.5842	1.4155	0.0011
308.15	0.6886	1.4181	0.0011
308.15	0.7475	1.4195	0.0011
308.15	0.8014	1.4207	0.0011
308.15	0.889	1.4223	0.0011
308.15	0.9526	1.423	0.0011
308.15	1	1.4231	0.0011
313.15	0	1.3626	0.001
313.15	0.0512	1.3744	0.0011
313.15	0.101	1.3836	0.0011
313.15	0.1495	1.3907	0.0011
313.15	0.1945	1.3959	0.0011
313.15	0.2994	1.4042	0.0011
313.15	0.3999	1.4089	0.0011
313.15	0.4976	1.4119	0.0011
313.15	0.5842	1.414	0.0011
313.15	0.6886	1.4166	0.0011
313.15	0.7475	1.418	0.0011
313.15	0.8014	1.4193	0.0011
313.15	0.889	1.4208	0.0011
313.15	0.9526	1.4213	0.0011
313.15	1	1.421	0.0011
318.15	0	1.3601	0.001
318.15	0.0512	1.3724	0.0011
318.15	0.101	1.3819	0.0011
318.15	0.1495	1.3892	0.0011
318.15	0.1945	1.3946	0.0011
318.15	0.2994	1.403	0.0011
318.15	0.3999	1.4077	0.0011
318.15	0.4976	1.4107	0.0011
318.15	0.5842	1.4128	0.0011
318.15	0.6886	1.4154	0.0011
318.15	0.7475	1.4168	0.0011
318.15	0.8014	1.4181	0.0011
318.15	0.889	1.4196	0.0011
318.15	0.9526	1.4199	0.0011
318.15	1	1.4195	0.0011
323.15	0	1.3586	0.001
323.15	0.0512	1.3719	0.0011
323.15	0.101	1.3817	0.0011
323.15	0.1495	1.3893	0.0011
323.15	0.1945	1.3948	0.0011
323.15	0.2994	1.4033	0.0011
323.15	0.3999	1.4078	0.0011
323.15	0.4976	1.4106	0.0011
323.15	0.5842	1.4126	0.0011
323.15	0.6886	1.4149	0.0011
323.15	0.7475	1.4162	0.0011
323.15	0.8014	1.4172	0.0011
323.15	0.889	1.4185	0.0011
323.15	0.9526	1.4183	0.0011
323.15	1	1.4173	0.0011
