Measured thermophysical data. (Vapour + liquid) equilibria (VLE) of CO2 in aqueous solutions of 2-amino-2-methyl-1-propanol: New data and modelling using eNRTL-equation
Source: J. Chem. Thermodyn., 2011, 10.1016/j.jct.2011.03.016
Compound 1: carbon dioxide, CO2, InChI=1S/CO2/c2-1-3, purity 99.9%
Compound 2: 2-amino-2-methylpropan-1-ol, C4H11NO, InChI=1S/C4H11NO/c1-4(2,5)3-6/h6H,3,5H2,1-2H3, purity 95%
Compound 3: water, H2O, InChI=1S/H2O/h1H2, purity 99.9%
Compound 4: diethanolamine, C4H11NO2, InChI=1S/C4H11NO2/c6-3-1-5-2-4-7/h5-7H,1-4H2

System: carbon dioxide + 2-amino-2-methylpropan-1-ol + water; phases: Liquid, Gas
Property: Amount ratio of solute to solvent of carbon dioxide (Liquid); method: Stirred Equilbrium Cell
Temperature, K	Pressure, kPa of carbon dioxide	Solvent: Amount concentration (molarity), mol/dm3 of 2-amino-2-methylpropan-1-ol	Amount ratio of solute to solvent of carbon dioxide	uncertainty
298	2.5	0.601	0.461	0.028
298	2.5	1.954	0.59	0.036
298	2.5	5.437	0.712	0.043
298	2.5	7.909	0.78	0.047
298	2.5	11.58	0.811	0.049
298	2.5	19.05	0.893	0.054
298	2.5	31.1	0.912	0.055
298	2.5	39.06	0.932	0.056
298	2.5	122.9	0.99	0.059
298	2.5	444.2	1.026	0.062
298	2.5	723.3	1.056	0.063
298	2.5	1018	1.079	0.065
298	2.5	1402	1.1	0.066
298	3.4	0.685	0.426	0.026
298	3.4	1.077	0.495	0.03
298	3.4	2.17	0.56	0.034
298	3.4	6.604	0.701	0.042
298	3.4	8.875	0.734	0.044
298	3.4	14.11	0.78	0.047
298	3.4	35.56	0.886	0.053
298	3.4	49.85	0.93	0.056
298	3.4	94.21	0.954	0.057
298	3.4	246.8	0.995	0.06
298	3.4	353.6	1.005	0.06
298	3.4	853	1.032	0.062
298	3.4	1434	1.056	0.063
298	4.9	0.45	0.337	0.021
298	4.9	1.557	0.483	0.029
298	4.9	2.238	0.569	0.034
298	4.9	3.469	0.601	0.036
298	4.9	9.335	0.681	0.041
298	4.9	14.47	0.783	0.047
298	4.9	22.29	0.818	0.049
298	4.9	37.78	0.875	0.053
298	4.9	65.59	0.919	0.055
298	4.9	92.5	0.93	0.056
298	4.9	235.2	0.981	0.059
298	4.9	587	1.005	0.06
298	4.9	981	1.02	0.061
298	4.9	1410	1.032	0.062
308	2.5	0.44	0.313	0.019
308	2.5	1.373	0.461	0.029
308	2.5	3.076	0.555	0.034
308	2.5	5.912	0.662	0.04
308	2.5	10.22	0.712	0.043
308	2.5	14.66	0.766	0.046
308	2.5	35.41	0.858	0.052
308	2.5	55.2	0.897	0.054
308	2.5	87.51	0.935	0.056
308	2.5	205	0.989	0.059
308	2.5	542.2	1.018	0.061
308	2.5	864	1.047	0.063
308	2.5	1119	1.059	0.064
308	2.5	1433	1.073	0.064
308	3.4	0.52	0.301	0.018
308	3.4	6.352	0.584	0.035
308	3.4	8.798	0.672	0.04
308	3.4	14.91	0.708	0.043
308	3.4	19.11	0.747	0.045
308	3.4	38.12	0.828	0.05
308	3.4	62.14	0.868	0.052
308	3.4	114.7	0.925	0.056
308	3.4	152.8	0.945	0.057
308	3.4	667.2	0.998	0.06
308	3.4	816	1.011	0.061
308	3.4	960.7	1.025	0.062
308	3.4	1426	1.04	0.062
308	4.9	0.412	0.26	0.016
308	4.9	1.58	0.413	0.025
308	4.9	3.621	0.501	0.03
308	4.9	9.804	0.587	0.036
308	4.9	12.14	0.66	0.04
308	4.9	21.43	0.728	0.044
308	4.9	35.67	0.787	0.047
308	4.9	55.89	0.84	0.05
308	4.9	98.87	0.901	0.054
308	4.9	149.1	0.921	0.055
308	4.9	311.1	0.957	0.057
308	4.9	520.1	0.987	0.059
308	4.9	714.4	0.994	0.06
308	4.9	1026	1.006	0.06
308	4.9	1412	1.015	0.061
318	2.5	0.44	0.313	0.019
318	2.5	1.373	0.461	0.028
318	2.5	3.076	0.555	0.034
318	2.5	5.912	0.662	0.04
318	2.5	10.22	0.712	0.043
318	2.5	14.66	0.766	0.046
318	2.5	35.41	0.858	0.052
318	2.5	55.2	0.897	0.054
318	2.5	87.51	0.935	0.056
318	2.5	205	0.989	0.059
318	2.5	542.2	1.018	0.061
318	2.5	864	1.047	0.063
318	2.5	1119	1.059	0.064
318	2.5	1433	1.073	0.064
318	3.4	0.686	0.282	0.017
318	3.4	5.396	0.52	0.032
318	3.4	8.382	0.548	0.033
318	3.4	13.57	0.616	0.037
318	3.4	22.62	0.697	0.042
318	3.4	61.45	0.817	0.049
318	3.4	98.84	0.882	0.053
318	3.4	143.2	0.897	0.054
318	3.4	212.3	0.938	0.056
318	3.4	509.5	0.966	0.058
318	3.4	650.4	0.981	0.059
318	3.4	1009	1.018	0.061
318	3.4	1427	1.05	0.063
318	4.9	0.533	0.216	0.013
318	4.9	3.19	0.394	0.024
318	4.9	7.38	0.479	0.029
318	4.9	11.79	0.537	0.032
318	4.9	19.33	0.606	0.037
318	4.9	35.41	0.665	0.04
318	4.9	59.75	0.759	0.046
318	4.9	81.2	0.777	0.047
318	4.9	106.4	0.801	0.048
318	4.9	151.7	0.838	0.05
318	4.9	345.5	0.923	0.056
318	4.9	587	0.95	0.057
318	4.9	747.6	0.971	0.058
318	4.9	1076	0.991	0.059
318	4.9	1398	1.001	0.06
328	2.5	0.665	0.232	0.014
328	2.5	2.765	0.368	0.022
328	2.5	5.343	0.46	0.028
328	2.5	15.72	0.575	0.035
328	2.5	25.02	0.653	0.039
328	2.5	35.74	0.711	0.043
328	2.5	79.41	0.797	0.048
328	2.5	88.1	0.841	0.051
328	2.5	125.3	0.863	0.052
328	2.5	272.2	0.933	0.056
328	2.5	484.6	0.979	0.059
328	2.5	743	0.993	0.06
328	2.5	1049	1.022	0.061
328	2.5	1430	1.045	0.063
328	3.4	1.89	0.291	0.018
328	3.4	4.148	0.383	0.023
328	3.4	13.73	0.518	0.031
328	3.4	28.65	0.606	0.037
328	3.4	44.88	0.674	0.041
328	3.4	73.02	0.744	0.045
328	3.4	139.4	0.831	0.05
328	3.4	219.6	0.874	0.053
328	3.4	306.2	0.895	0.054
328	3.4	443.2	0.919	0.055
328	3.4	666.1	0.953	0.057
328	3.4	901	0.977	0.059
328	3.4	1079	0.982	0.059
328	3.4	1449	1.009	0.061
328	4.9	0.701	0.191	0.012
328	4.9	2.12	0.278	0.017
328	4.9	4.815	0.335	0.021
328	4.9	10.14	0.424	0.026
328	4.9	18.95	0.501	0.03
328	4.9	35.53	0.577	0.035
328	4.9	90.94	0.657	0.04
328	4.9	119.3	0.717	0.043
328	4.9	223.6	0.772	0.047
328	4.9	343.8	0.837	0.05
328	4.9	488.3	0.854	0.051
328	4.9	781.1	0.912	0.055
328	4.9	1108	0.936	0.056
328	4.9	1402	0.962	0.058

System: diethanolamine + carbon dioxide + water; phases: Liquid, Gas
Fixed: Temperature, K = 323
Fixed: Pressure, kPa of carbon dioxide = 3.5
Property: Amount ratio of solute to solvent of carbon dioxide (Liquid); method: Stirred Equilbrium Cell
Solvent: Amount concentration (molarity), mol/dm3 of diethanolamine	Amount ratio of solute to solvent of carbon dioxide	uncertainty
0.228	0.588	0.035
0.28	1.679	0.106
0.351	4.249	0.289
0.472	19.58	1.23
0.528	40.48	2.64
0.584	74.15	4.84
0.638	130.2	8.9
0.717	291.1	19.1
0.77	491.35	32.62
0.829	797.4	54.8
0.849	1192	84
0.878	1458	87
