Measured thermophysical data. A novel technique based in a cylindrical microwave resonator for high pressure phase equilibrium determination
Source: J. Chem. Thermodyn., 2019, 10.1016/j.jct.2019.03.027
Compound 1: carbon dioxide, CO2, InChI=1S/CO2/c2-1-3, purity 99.995%
Compound 2: methane, CH4, InChI=1S/CH4/h1H4, purity 99.9995%

System: carbon dioxide; phases: Liquid, Gas
Property: Vapor or sublimation pressure, kPa (Liquid); method: Closed cell (Static) method
Temperature, K	Vapor or sublimation pressure, kPa	uncertainty
273.159	3485.7	9.9
278.199	3975	10.3
283.15	4502	10.8
288.155	5087	11.5
293.139	5726.4	12.2
298.153	6430.1	13.1
303.187	7212.8	13.2
303.639	7290.9	14.2
303.85	7326.1	14.1
304.044	7358.8	14.2
273.165	3485.9	9.9
278.198	3977	10.3
283.15	4500.5	10.8
288.155	5090.5	11.5
293.14	5726.5	12.2
298.151	6436.1	13.1
303.155	7214.4	13.2
303.655	7297.4	14.2
303.85	7329	14.1
304.043	7360.5	14.4

System: carbon dioxide + methane; phases: Liquid, Gas
Property: Vapor or sublimation pressure, kPa (Liquid); method: Closed cell (Static) method
Mole fraction of carbon dioxide	Temperature, K	Vapor or sublimation pressure, kPa	uncertainty
0.601623	263.34	8872	71
0.601623	258.34	8656	70
0.601623	253.35	8268	70
0.601623	243.34	7528	69
0.601623	233.35	6702	69
0.400637	238.36	7913	70
0.400637	236.36	7839	70
0.400637	233.35	7508	69

System: carbon dioxide + methane; phases: Gas, Liquid
Property: Vapor or sublimation pressure, kPa (Gas); method: Closed cell (Static) method
Mole fraction of carbon dioxide	Temperature, K	Vapor or sublimation pressure, kPa	uncertainty
0.601623	233.35	1859	66
0.601623	243.35	2687	67
0.601623	253.35	3803	67
0.601623	258.34	4486	67
0.601623	263.34	5425	68
0.601623	266.32	6143	68
0.601623	268.32	6625	69
0.601623	269.34	7011	69
0.601623	270.33	7413	69
0.601623	270.82	7712	70
0.601623	270.93	7815	70
0.601623	271.03	7857	70
0.601623	271.12	7903	70
0.601623	271.12	8314	70
0.601623	271.03	8355	70
0.601623	270.93	8463	70
0.601623	270.82	8454	70
0.601623	270.33	8687	71
0.601623	269.34	8775	71
0.601623	268.32	8907	71
0.601623	266.32	8896	71
0.400637	233.35	3051	67
0.400637	236.36	3465	67
0.400637	238.36	3818	67
0.400637	242.34	4449	67
0.400637	245.35	5228	68
0.400637	247.33	5912	69
0.400637	248.34	6296	69
0.400637	249.32	6644	69
0.400637	249.53	6906	69
0.400637	249.63	6945	69
0.400637	249.74	7068	69
0.400637	249.78	7159	69
0.400637	249.78	7465	70
0.400637	249.74	7555	70
0.400637	249.63	7621	70
0.400637	249.53	7682	70
0.400637	249.33	7794	70
0.400637	248.33	8065	70
0.400637	247.33	8177	71
0.400637	242.34	8180	70
