Measured thermophysical data. Partial molar volumes of organic solutes in water. XXIV. Selected alkane-alpha,omega-diols at temperatures T = 298 K to 573 K and pressures up to 30 MPa
Source: J. Chem. Thermodyn., 2013, 10.1016/j.jct.2013.05.004
Compound 1: 1,5-pentanediol, C5H12O2, InChI=1S/C5H12O2/c6-4-2-1-3-5-7/h6-7H,1-5H2, purity 97%
Compound 2: 1,8-octanediol, C8H18O2, InChI=1S/C8H18O2/c9-7-5-3-1-2-4-6-8-10/h9-10H,1-8H2, purity 98%
Compound 3: 1,9-nonanediol, C9H20O2, InChI=1S/C9H20O2/c10-8-6-4-2-1-3-5-7-9-11/h10-11H,1-9H2, purity 98%
Compound 4: water, H2O, InChI=1S/H2O/h1H2, purity 99.8%

System: 1,5-pentanediol + water; phases: Liquid
Property: Mass density, kg/m3 (Liquid); method: custom built densimeter
Temperature, K	Pressure, kPa	Molality, mol/kg of 1,5-pentanediol	Mass density, kg/m3	uncertainty
298.15	510	0.102161	0.0078	0.0095
298.15	510	0.102161	0.0055	0.0095
298.15	510	0.102161	0.007	0.0095
298.15	510	0.203471	0.0365	0.0096
298.15	510	0.203471	0.0368	0.0096
298.15	510	0.203471	0.0365	0.0096
298.15	510	0.287777	0.0775	0.0096
298.15	510	0.287777	0.0743	0.0096
298.15	510	0.287777	0.0748	0.0096
298.15	510	0.399498	0.1479	0.0096
298.15	510	0.399498	0.1439	0.0096
298.15	510	0.399498	0.1455	0.0096
298.15	510	0.517447	0.2304	0.0096
298.15	510	0.517447	0.2328	0.0096
298.15	510	0.517447	0.2218	0.0096
298.15	15170	0.102161	-0.0466	0.0095
298.15	15170	0.102161	-0.0467	0.0095
298.15	15170	0.102161	-0.0435	0.0095
298.15	15170	0.203471	-0.0713	0.0096
298.15	15170	0.203471	-0.0672	0.0096
298.15	15170	0.203471	-0.068	0.0096
298.15	15170	0.287777	-0.0681	0.0096
298.15	15170	0.287777	-0.0704	0.0096
298.15	15170	0.287777	-0.0662	0.0096
298.15	15170	0.399498	-0.0507	0.0096
298.15	15170	0.399498	-0.0526	0.0096
298.15	15170	0.399498	-0.0522	0.0096
298.15	15170	0.399498	-0.0537	0.0096
298.15	15170	0.517447	-0.008	0.0096
298.15	15170	0.517447	-0.0142	0.0096
298.15	15170	0.517447	-0.0131	0.0096
298.15	15170	0.517447	-0.0101	0.0096
298.16	30130	0.102161	-0.0933	0.0095
298.16	30130	0.102161	-0.0963	0.0095
298.16	30130	0.102161	-0.0979	0.0095
298.16	30130	0.203471	-0.1663	0.0096
298.16	30130	0.203471	-0.1679	0.0096
298.16	30130	0.203471	-0.1638	0.0096
298.16	30130	0.287777	-0.205	0.0096
298.16	30130	0.287777	-0.2059	0.0096
298.16	30130	0.287777	-0.209	0.0096
298.16	30130	0.399498	-0.2401	0.0096
298.16	30130	0.399498	-0.2363	0.0096
298.16	30130	0.399498	-0.2373	0.0096
298.16	30130	0.517447	-0.2494	0.0096
298.16	30130	0.517447	-0.2514	0.0096
298.16	30130	0.517447	-0.2472	0.0096
318.18	520	0.102161	-0.0402	0.0095
318.18	520	0.102161	-0.0467	0.0095
318.18	520	0.102161	-0.0419	0.0095
318.18	520	0.203471	-0.077	0.0095
318.18	520	0.203471	-0.0817	0.0095
318.18	520	0.203471	-0.0853	0.0095
318.18	520	0.287777	-0.0955	0.0096
318.18	520	0.287777	-0.0863	0.0096
318.18	520	0.287777	-0.1014	0.0096
318.18	520	0.399498	-0.1014	0.0096
318.18	520	0.399498	-0.113	0.0096
318.18	520	0.399498	-0.1001	0.0096
318.18	520	0.517447	-0.1171	0.0096
318.18	520	0.517447	-0.1161	0.0096
318.18	520	0.517447	-0.1224	0.0096
318.17	15140	0.102161	-0.0761	0.0095
318.17	15140	0.102161	-0.0758	0.0095
318.17	15140	0.102161	-0.0786	0.0095
318.17	15140	0.203471	-0.1317	0.0096
318.17	15140	0.203471	-0.1247	0.0096
318.17	15140	0.203471	-0.1204	0.0096
318.17	15140	0.287777	-0.1777	0.0096
318.17	15140	0.287777	-0.1682	0.0096
318.17	15140	0.287777	-0.1729	0.0096
318.17	15140	0.399498	-0.2202	0.0096
318.17	15140	0.399498	-0.2191	0.0096
318.17	15140	0.399498	-0.2101	0.0096
318.17	15140	0.517447	-0.2461	0.0096
318.17	15140	0.517447	-0.2573	0.0096
318.17	15140	0.517447	-0.2606	0.0096
338.18	520	0.102161	-0.0989	0.0095
338.18	520	0.102161	-0.0989	0.0095
338.18	520	0.203471	-0.1875	0.0095
338.18	520	0.203471	-0.1902	0.0095
338.18	520	0.203471	-0.1975	0.0095
338.18	520	0.287777	-0.2565	0.0096
338.18	520	0.287777	-0.2584	0.0096
338.18	520	0.287777	-0.26	0.0096
338.18	520	0.399498	-0.3393	0.0096
338.18	520	0.399498	-0.3404	0.0096
338.18	520	0.399498	-0.3425	0.0096
338.18	520	0.517447	-0.4206	0.0096
338.18	520	0.517447	-0.4261	0.0096
338.18	520	0.517447	-0.4275	0.0096
338.16	30160	0.096539	-0.1396	0.0095
338.16	30160	0.096539	-0.1415	0.0095
338.16	30160	0.194482	-0.2583	0.0095
338.16	30160	0.194482	-0.2668	0.0095
338.16	30160	0.194482	-0.2754	0.0095
338.16	30160	0.299769	-0.3746	0.0096
338.16	30160	0.299769	-0.3961	0.0096
338.16	30160	0.299769	-0.3927	0.0096
338.16	30160	0.381236	-0.4742	0.0096
338.16	30160	0.381236	-0.4759	0.0096
338.16	30160	0.381236	-0.4763	0.0096
338.16	30160	0.476441	-0.5659	0.0096
338.16	30160	0.476441	-0.567	0.0096
338.16	30160	0.476441	-0.5656	0.0096
358.16	15120	0.096539	-0.1523	0.0095
358.16	15120	0.096539	-0.1527	0.0095
358.16	15120	0.096539	-0.1533	0.0095
358.16	15120	0.194482	-0.3002	0.0095
358.16	15120	0.194482	-0.3004	0.0095
358.16	15120	0.194482	-0.2993	0.0095
358.16	15120	0.299769	-0.4546	0.0096
358.16	15120	0.299769	-0.4528	0.0096
358.16	15120	0.299769	-0.4528	0.0096
358.16	15120	0.381236	-0.5663	0.0096
358.16	15120	0.381236	-0.5668	0.0096
358.16	15120	0.381236	-0.5677	0.0096
358.16	15120	0.476441	-0.6916	0.0096
358.16	15120	0.476441	-0.6851	0.0096
358.16	15120	0.476441	-0.6824	0.0096
318.17	30230	0.102161	-0.1127	0.0095
318.17	30230	0.102161	-0.1084	0.0095
318.17	30230	0.102161	-0.1035	0.0095
318.17	30230	0.203471	-0.1921	0.0096
318.17	30230	0.203471	-0.2009	0.0096
318.17	30230	0.203471	-0.2024	0.0096
318.17	30230	0.287777	-0.264	0.0096
318.17	30230	0.287777	-0.27	0.0096
318.17	30230	0.287777	-0.2662	0.0096
318.17	30230	0.399498	-0.3477	0.0096
318.17	30230	0.399498	-0.338	0.0096
318.17	30230	0.399498	-0.3456	0.0096
318.17	30230	0.517447	-0.4068	0.0096
318.17	30230	0.517447	-0.4091	0.0096
318.17	30230	0.517447	-0.405	0.0096
338.18	15190	0.102161	-0.1213	0.0095
338.18	15190	0.102161	-0.1225	0.0095
338.18	15190	0.102161	-0.1244	0.0095
338.18	15190	0.203471	-0.2237	0.0095
338.18	15190	0.203471	-0.2271	0.0095
338.18	15190	0.203471	-0.2297	0.0095
338.18	15190	0.287777	-0.3076	0.0096
338.18	15190	0.287777	-0.3132	0.0096
338.18	15190	0.287777	-0.3104	0.0096
338.18	15190	0.399498	-0.4109	0.0096
338.18	15190	0.399498	-0.4102	0.0096
338.18	15190	0.399498	-0.4131	0.0096
338.18	15190	0.517447	-0.5092	0.0096
338.18	15190	0.517447	-0.5132	0.0096
338.18	15190	0.517447	-0.5116	0.0096
358.16	520	0.096539	-0.145	0.0095
358.16	520	0.096539	-0.1453	0.0095
358.16	520	0.096539	-0.1468	0.0095
358.16	520	0.194482	-0.2847	0.0095
358.16	520	0.194482	-0.2853	0.0095
358.16	520	0.194482	-0.2871	0.0095
358.16	520	0.299769	-0.4285	0.0096
358.16	520	0.299769	-0.4289	0.0096
358.16	520	0.299769	-0.4291	0.0096
358.16	520	0.381236	-0.5362	0.0096
358.16	520	0.381236	-0.5368	0.0096
358.16	520	0.381236	-0.537	0.0096
358.16	520	0.476441	-0.6568	0.0096
358.16	520	0.476441	-0.657	0.0096
358.16	520	0.476441	-0.6578	0.0096
358.14	30040	0.096539	-0.1605	0.0095
358.14	30040	0.096539	-0.1643	0.0095
358.14	30040	0.096539	-0.1656	0.0095
358.14	30040	0.194482	-0.3182	0.0095
358.14	30040	0.194482	-0.3207	0.0095
358.14	30040	0.194482	-0.3217	0.0095
358.14	30040	0.299769	-0.4831	0.0095
358.14	30040	0.299769	-0.4811	0.0095
358.14	30040	0.299769	-0.4811	0.0095
358.14	30040	0.381236	-0.5987	0.0096
358.14	30040	0.381236	-0.6002	0.0096
358.14	30040	0.381236	-0.6022	0.0096
358.14	30040	0.476441	-0.7308	0.0096
358.14	30040	0.476441	-0.7344	0.0096
358.14	30040	0.476441	-0.7334	0.0096
373.18	510	0.096539	-0.1825	0.0095
373.18	510	0.096539	-0.1803	0.0095
373.18	510	0.096539	-0.1827	0.0095
373.18	510	0.194482	-0.3589	0.0095
373.18	510	0.194482	-0.3594	0.0095
373.18	510	0.194482	-0.3572	0.0095
373.18	510	0.299769	-0.5459	0.0096
373.18	510	0.299769	-0.5457	0.0096
373.18	510	0.299769	-0.5458	0.0096
373.18	510	0.381236	-0.6845	0.0096
373.18	510	0.381236	-0.6847	0.0096
373.18	510	0.381236	-0.6853	0.0096
373.18	510	0.476441	-0.8416	0.0096
373.18	510	0.476441	-0.8431	0.0096
373.18	510	0.476441	-0.8424	0.0096
373.17	30180	0.096539	-0.1878	0.0095
373.17	30180	0.096539	-0.1885	0.0095
373.17	30180	0.096539	-0.19	0.0095
373.17	30180	0.194482	-0.3711	0.0095
373.17	30180	0.194482	-0.3708	0.0095
373.17	30180	0.194482	-0.3733	0.0095
373.17	30180	0.299769	-0.5609	0.0095
373.17	30180	0.299769	-0.5622	0.0095
373.17	30180	0.299769	-0.5708	0.0095
373.17	30180	0.381236	-0.7041	0.0096
373.17	30180	0.381236	-0.7033	0.0096
373.17	30180	0.476441	-0.8616	0.0096
373.17	30180	0.476441	-0.8601	0.0096
373.17	30180	0.476441	-0.8655	0.0096
398.12	15170	0.096539	-0.2316	0.0095
398.12	15170	0.096539	-0.233	0.0095
398.12	15170	0.096539	-0.2319	0.0095
398.12	15170	0.194482	-0.4605	0.0095
398.12	15170	0.194482	-0.4595	0.0095
398.12	15170	0.194482	-0.4599	0.0095
398.12	15170	0.299769	-0.6987	0.0095
398.12	15170	0.299769	-0.6994	0.0095
398.12	15170	0.299769	-0.6977	0.0095
398.12	15170	0.381236	-0.8761	0.0096
398.12	15170	0.381236	-0.8777	0.0096
398.12	15170	0.381236	-0.8786	0.0096
398.12	15170	0.476441	-1.0826	0.0096
398.12	15170	0.476441	-1.0812	0.0096
398.12	15170	0.476441	-1.0823	0.0096
423.16	1860	0.098261	-0.2935	0.0095
423.16	1860	0.098261	-0.2935	0.0095
423.16	1860	0.098261	-0.2934	0.0095
423.16	1860	0.192694	-0.5683	0.0095
423.16	1860	0.192694	-0.5683	0.0095
423.16	1860	0.192694	-0.5681	0.0095
423.16	1860	0.291457	-0.849	0.0096
423.16	1860	0.291457	-0.8494	0.0095
423.16	1860	0.291457	-0.8503	0.0095
423.16	1860	0.390188	-1.1195	0.0096
423.16	1860	0.390188	-1.1207	0.0096
423.16	1860	0.390188	-1.1186	0.0096
423.16	1860	0.502235	-1.4202	0.0096
423.16	1860	0.502235	-1.4176	0.0096
423.16	1860	0.502235	-1.4179	0.0096
373.15	15190	0.096539	-0.1841	0.0095
373.15	15190	0.096539	-0.1835	0.0095
373.15	15190	0.096539	-0.186	0.0095
373.15	15190	0.194482	-0.3631	0.0095
373.15	15190	0.194482	-0.366	0.0095
373.15	15190	0.194482	-0.3612	0.0095
373.15	15190	0.299769	-0.5488	0.0095
373.15	15190	0.299769	-0.552	0.0095
373.15	15190	0.299769	-0.5501	0.0095
373.15	15190	0.381236	-0.6895	0.0096
373.15	15190	0.381236	-0.689	0.0096
373.15	15190	0.381236	-0.6889	0.0096
373.15	15190	0.476441	-0.8479	0.0096
373.15	15190	0.476441	-0.8477	0.0096
373.15	15190	0.476441	-0.85	0.0096
398.14	1880	0.096539	-0.2392	0.0095
398.14	1880	0.096539	-0.2389	0.0095
398.14	1880	0.096539	-0.2383	0.0095
398.14	1880	0.194482	-0.4753	0.0095
398.14	1880	0.194482	-0.4761	0.0095
398.14	1880	0.194482	-0.4715	0.0095
398.14	1880	0.299769	-0.7217	0.0096
398.14	1880	0.299769	-0.7217	0.0096
398.14	1880	0.299769	-0.7225	0.0096
398.14	1880	0.381236	-0.9073	0.0096
398.14	1880	0.381236	-0.9073	0.0096
398.14	1880	0.381236	-0.9067	0.0096
398.14	1880	0.476441	-1.1178	0.0096
398.14	1880	0.476441	-1.1148	0.0096
398.14	1880	0.476441	-1.1177	0.0096
398.13	30140	0.098261	-0.232	0.0095
398.13	30140	0.098261	-0.2288	0.0095
398.13	30140	0.098261	-0.2287	0.0095
398.13	30140	0.194482	-0.4477	0.0095
398.13	30140	0.194482	-0.4465	0.0095
398.13	30140	0.194482	-0.4457	0.0095
398.13	30140	0.299769	-0.679	0.0095
398.13	30140	0.299769	-0.6832	0.0095
398.13	30140	0.299769	-0.6788	0.0095
398.13	30140	0.381236	-0.8547	0.0095
398.13	30140	0.381236	-0.8511	0.0095
398.13	30140	0.381236	-0.8565	0.0095
398.13	30140	0.476441	-1.0499	0.0096
398.13	30140	0.476441	-1.0548	0.0096
398.13	30140	0.476441	-1.0521	0.0096
423.15	15140	0.098261	-0.2768	0.0095
423.15	15140	0.098261	-0.2757	0.0095
423.15	15140	0.098261	-0.2753	0.0095
423.15	15140	0.192694	-0.5356	0.0095
423.15	15140	0.192694	-0.5387	0.0095
423.15	15140	0.192694	-0.5367	0.0095
423.15	15140	0.291457	-0.8005	0.0096
423.15	15140	0.291457	-0.8028	0.0096
423.15	15140	0.291457	-0.8006	0.0096
423.15	15140	0.390188	-1.0551	0.0096
423.15	15140	0.390188	-1.0569	0.0096
423.15	15140	0.390188	-1.0554	0.0096
423.15	15140	0.502235	-1.3356	0.0096
423.15	15140	0.502235	-1.337	0.0096
423.15	15140	0.502235	-1.3388	0.0096
423.15	30120	0.098261	-0.2632	0.0095
423.15	30120	0.098261	-0.2636	0.0095
423.15	30120	0.098261	-0.266	0.0095
423.15	30120	0.192694	-0.5087	0.0095
423.15	30120	0.192694	-0.5123	0.0095
423.15	30120	0.192694	-0.5123	0.0095
423.15	30120	0.291457	-0.7626	0.0095
423.15	30120	0.291457	-0.7623	0.0095
423.15	30120	0.291457	-0.764	0.0095
423.15	30120	0.390188	-1.0031	0.0096
423.15	30120	0.390188	-1.0047	0.0096
423.15	30120	0.390188	-1.0054	0.0096
423.15	30120	0.502235	-1.2708	0.0096
423.15	30120	0.502235	-1.272	0.0096
423.15	30120	0.502235	-1.2708	0.0096
448.19	15280	0.098261	-0.3093	0.0095
448.19	15280	0.098261	-0.3085	0.0095
448.19	15280	0.098261	-0.3117	0.0095
448.19	15280	0.192694	-0.6008	0.0096
448.19	15280	0.192694	-0.6008	0.0096
448.19	15280	0.192694	-0.5995	0.0096
448.19	15280	0.291457	-0.8953	0.0096
448.19	15280	0.291457	-0.8937	0.0096
448.19	15280	0.291457	-0.8957	0.0096
448.19	15280	0.390188	-1.178	0.0096
448.19	15280	0.390188	-1.1786	0.0096
448.19	15280	0.390188	-1.178	0.0096
448.19	15280	0.502235	-1.4897	0.0096
448.19	15280	0.502235	-1.4884	0.0096
448.19	15280	0.502235	-1.491	0.0096
473.23	1830	0.098261	-0.3668	0.0095
473.23	1830	0.098261	-0.3704	0.0095
473.23	1830	0.098261	-0.3735	0.0095
473.23	1830	0.192694	-0.7166	0.0095
473.23	1830	0.192694	-0.7157	0.0095
473.23	1830	0.192694	-0.7165	0.0095
473.23	1830	0.291457	-1.0675	0.0096
473.23	1830	0.291457	-1.0688	0.0096
473.23	1830	0.291457	-1.0689	0.0096
473.23	1830	0.390188	-1.4038	0.0096
473.23	1830	0.390188	-1.4043	0.0096
473.23	1830	0.390188	-1.404	0.0096
473.23	1830	0.502235	-1.7717	0.0096
473.23	1830	0.502235	-1.7752	0.0096
473.23	1830	0.502235	-1.7726	0.0096
473.22	29980	0.098261	-0.3036	0.0095
473.22	29980	0.098261	-0.302	0.0095
473.22	29980	0.098261	-0.3069	0.0095
473.22	29980	0.192694	-0.5865	0.0096
473.22	29980	0.192694	-0.5862	0.0096
473.22	29980	0.192694	-0.5876	0.0096
473.22	29980	0.291457	-0.8718	0.0096
473.22	29980	0.291457	-0.8696	0.0096
473.22	29980	0.291457	-0.8723	0.0096
473.22	29980	0.390188	-1.1432	0.0096
473.22	29980	0.390188	-1.1446	0.0096
473.22	29980	0.390188	-1.1483	0.0096
473.22	29980	0.502235	-1.432	0.0096
473.22	29980	0.502235	-1.4424	0.0096
473.22	29980	0.502235	-1.4483	0.0096
448.16	1860	0.098261	-0.3373	0.0095
448.16	1860	0.098261	-0.3371	0.0095
448.16	1860	0.098261	-0.3369	0.0095
448.16	1860	0.192694	-0.6517	0.0095
448.16	1860	0.192694	-0.6533	0.0095
448.16	1860	0.192694	-0.6534	0.0095
448.16	1860	0.291457	-0.9718	0.0096
448.16	1860	0.291457	-0.9725	0.0096
448.16	1860	0.291457	-0.9729	0.0096
448.16	1860	0.390188	-1.2805	0.0096
448.16	1860	0.390188	-1.2814	0.0096
448.16	1860	0.390188	-1.2813	0.0096
448.16	1860	0.502235	-1.6182	0.0096
448.16	1860	0.502235	-1.6202	0.0096
448.16	1860	0.502235	-1.619	0.0096
448.18	30030	0.098261	-0.2887	0.0095
448.18	30030	0.098261	-0.2898	0.0095
448.18	30030	0.192694	-0.56	0.0095
448.18	30030	0.192694	-0.5603	0.0095
448.18	30030	0.192694	-0.5619	0.0095
448.18	30030	0.291457	-0.8331	0.0096
448.18	30030	0.291457	-0.8323	0.0096
448.18	30030	0.291457	-0.8336	0.0096
448.18	30030	0.390188	-1.0962	0.0096
448.18	30030	0.390188	-1.0987	0.0096
448.18	30030	0.390188	-1.0979	0.0096
448.18	30030	0.502235	-1.3837	0.0096
448.18	30030	0.502235	-1.3848	0.0096
473.22	15130	0.098261	-0.3323	0.0095
473.22	15130	0.098261	-0.3318	0.0095
473.22	15130	0.098261	-0.3327	0.0095
473.22	15130	0.192694	-0.643	0.0096
473.22	15130	0.192694	-0.6423	0.0096
473.22	15130	0.192694	-0.6415	0.0096
473.22	15130	0.291457	-0.9602	0.0096
473.22	15130	0.291457	-0.9578	0.0096
473.22	15130	0.291457	-0.9584	0.0096
473.22	15130	0.390188	-1.26	0.0096
473.22	15130	0.390188	-1.2627	0.0096
473.22	15130	0.390188	-1.2656	0.0096
473.22	15130	0.502235	-1.591	0.0096
473.22	15130	0.502235	-1.5927	0.0096
498.12	3050	0.101739	-0.405	0.0095
498.12	3050	0.101739	-0.405	0.0095
498.12	3050	0.101739	-0.4019	0.0095
498.12	3050	0.1985	-0.7782	0.0096
498.12	3050	0.1985	-0.7767	0.0096
498.12	3050	0.1985	-0.7782	0.0096
498.12	3050	0.291457	-1.1232	0.0096
498.12	3050	0.291457	-1.1217	0.0096
498.12	3050	0.291457	-1.1257	0.0096
498.12	3050	0.390188	-1.4743	0.0096
498.12	3050	0.390188	-1.4741	0.0096
498.12	3050	0.390188	-1.4771	0.0096
498.12	3050	0.502235	-1.8584	0.0096
498.12	3050	0.502235	-1.8599	0.0096
498.12	3050	0.502235	-1.8617	0.0096
498.12	15110	0.101739	-0.3583	0.0096
498.12	15110	0.101739	-0.3622	0.0096
498.12	15110	0.101739	-0.363	0.0096
498.12	15110	0.1985	-0.6863	0.0096
498.12	15110	0.1985	-0.687	0.0096
498.12	15110	0.1985	-0.6909	0.0096
498.12	15110	0.296122	-1.0086	0.0096
498.12	15110	0.296122	-1.0092	0.0096
498.12	15110	0.296122	-1.0068	0.0096
498.12	15110	0.394824	-1.3171	0.0096
498.12	15110	0.394824	-1.3168	0.0096
498.12	15110	0.394824	-1.3085	0.0096
498.12	15110	0.495923	-1.6433	0.0096
498.12	15110	0.495923	-1.6448	0.0096
498.12	15110	0.495923	-1.6469	0.0096
523.19	5030	0.101739	-0.4187	0.0095
523.19	5030	0.101739	-0.4186	0.0095
523.19	5030	0.101739	-0.4182	0.0095
523.19	5030	0.1985	-0.7955	0.0096
523.19	5030	0.1985	-0.7972	0.0096
523.19	5030	0.1985	-0.7942	0.0096
523.19	5030	0.296122	-1.1602	0.0096
523.19	5030	0.296122	-1.1601	0.0096
523.19	5030	0.296122	-1.1629	0.0096
523.19	5030	0.394824	-1.5142	0.0096
523.19	5030	0.394824	-1.5147	0.0096
523.19	5030	0.394824	-1.5161	0.0096
523.19	5030	0.495923	-1.8786	0.0096
523.19	5030	0.495923	-1.8835	0.0096
523.19	5030	0.495923	-1.8803	0.0096
523.18	30050	0.101739	-0.3032	0.0096
523.18	30050	0.101739	-0.3048	0.0096
523.18	30050	0.101739	-0.3038	0.0096
523.18	30050	0.1985	-0.5796	0.0096
523.18	30050	0.1985	-0.5804	0.0096
523.18	30050	0.1985	-0.5873	0.0096
523.18	30050	0.296122	-0.8441	0.0096
523.18	30050	0.296122	-0.8434	0.0096
523.18	30050	0.296122	-0.8422	0.0096
523.18	30050	0.394824	-1.0971	0.0096
523.18	30050	0.394824	-1.0981	0.0096
523.18	30050	0.394824	-1.1029	0.0096
523.18	30050	0.495923	-1.3656	0.0096
523.18	30050	0.495923	-1.3706	0.0096
523.18	30050	0.495923	-1.3671	0.0096
548.16	15040	0.101739	-0.3473	0.0096
548.16	15040	0.101739	-0.3361	0.0096
548.16	15040	0.1985	-0.6585	0.0096
548.16	15040	0.1985	-0.6542	0.0096
548.16	15040	0.296122	-0.964	0.0096
548.16	15040	0.296122	-0.9575	0.0096
548.16	15040	0.296122	-0.9506	0.0096
548.16	15040	0.394824	-1.2424	0.0096
548.16	15040	0.394824	-1.2428	0.0096
548.16	15040	0.394824	-1.2367	0.0096
548.16	15040	0.495923	-1.545	0.0097
548.16	15040	0.495923	-1.5421	0.0097
548.16	15040	0.495923	-1.5412	0.0097
498.11	30100	0.101739	-0.3159	0.0095
498.11	30100	0.101739	-0.3157	0.0095
498.11	30100	0.101739	-0.3182	0.0095
498.11	30100	0.1985	-0.6003	0.0096
498.11	30100	0.1985	-0.6018	0.0096
498.11	30100	0.1985	-0.606	0.0096
498.11	30100	0.296122	-0.8834	0.0096
498.11	30100	0.296122	-0.8844	0.0096
498.11	30100	0.296122	-0.8858	0.0096
498.11	30100	0.394824	-1.1524	0.0096
498.11	30100	0.394824	-1.1516	0.0096
498.11	30100	0.394824	-1.1537	0.0096
498.11	30100	0.495923	-1.4399	0.0096
498.11	30100	0.495923	-1.4411	0.0096
498.11	30100	0.495923	-1.4432	0.0096
523.19	15120	0.101739	-0.3628	0.0096
523.19	15120	0.101739	-0.3648	0.0096
523.19	15120	0.101739	-0.3629	0.0096
523.19	15120	0.1985	-0.691	0.0096
523.19	15120	0.1985	-0.6935	0.0096
523.19	15120	0.1985	-0.6895	0.0096
523.19	15120	0.296122	-1.0067	0.0096
523.19	15120	0.296122	-1.0056	0.0096
523.19	15120	0.296122	-1.0113	0.0096
523.19	15120	0.394824	-1.308	0.0096
523.19	15120	0.394824	-1.3123	0.0096
523.19	15120	0.394824	-1.3116	0.0096
523.19	15120	0.495923	-1.6317	0.0096
523.19	15120	0.495923	-1.6313	0.0096
523.19	15120	0.495923	-1.6311	0.0096
548.16	7050	0.101739	-0.4157	0.0096
548.16	7050	0.101739	-0.4122	0.0096
548.16	7050	0.101739	-0.4088	0.0096
548.16	7050	0.1985	-0.781	0.0096
548.16	7050	0.1985	-0.7862	0.0096
548.16	7050	0.1985	-0.783	0.0096
548.16	7050	0.296122	-1.1349	0.0096
548.16	7050	0.296122	-1.1375	0.0096
548.16	7050	0.296122	-1.1345	0.0096
548.16	7050	0.394824	-1.479	0.0096
548.16	7050	0.394824	-1.4692	0.0096
548.16	7050	0.394824	-1.4757	0.0096
548.16	7050	0.495923	-1.823	0.0096
548.16	7050	0.495923	-1.8235	0.0096
548.16	7050	0.495923	-1.8292	0.0096
548.16	30040	0.101739	-0.2678	0.0096
548.16	30040	0.101739	-0.2784	0.0096
548.16	30040	0.101739	-0.2763	0.0096
548.16	30040	0.101739	-0.268	0.0096
548.16	30040	0.101739	-0.2732	0.0096
548.16	30040	0.101739	-0.2676	0.0096
548.16	30040	0.1985	-0.5113	0.0096
548.16	30040	0.1985	-0.5256	0.0096
548.16	30040	0.1985	-0.5271	0.0096
548.16	30040	0.1985	-0.5159	0.0096
548.16	30040	0.1985	-0.5187	0.0096
548.16	30040	0.1985	-0.5135	0.0096
548.16	30040	0.296122	-0.7675	0.0096
548.16	30040	0.296122	-0.7579	0.0096
548.16	30040	0.296122	-0.7583	0.0096
548.16	30040	0.296122	-0.7555	0.0096
548.16	30040	0.296122	-0.7466	0.0096
548.16	30040	0.394824	-0.9904	0.0096
548.16	30040	0.394824	-0.9779	0.0096
548.16	30040	0.394824	-0.9655	0.0096
548.16	30040	0.495923	-1.2133	0.0096
548.16	30040	0.495923	-1.2127	0.0096
548.16	30040	0.495923	-1.2075	0.0096
548.16	30040	0.495923	-1.2032	0.0096
548.16	30040	0.495923	-1.2051	0.0096
573.18	10050	0.095921	-0.372	0.0096
573.18	10050	0.095921	-0.3691	0.0096
573.18	10050	0.095921	-0.3523	0.0096
573.18	10050	0.188343	-0.6898	0.0096
573.18	10050	0.188343	-0.6812	0.0096
573.18	10050	0.284476	-1.0119	0.0097
573.18	10050	0.284476	-0.9997	0.0097
573.18	10050	0.390315	-1.3287	0.0098
573.18	10050	0.390315	-1.3309	0.0098
573.18	10050	0.390315	-1.3235	0.0098
573.18	10050	0.495923	-1.6375	0.0099
573.18	10050	0.495923	-1.6424	0.0099
573.18	15220	0.095921	-0.2964	0.0096
573.18	15220	0.095921	-0.3095	0.0096
573.18	15220	0.095921	-0.3175	0.0096
573.18	15220	0.188343	-0.5748	0.0096
573.18	15220	0.188343	-0.5889	0.0096
573.18	15220	0.188343	-0.5686	0.0096
573.18	15220	0.284476	-0.8466	0.0096
573.18	15220	0.284476	-0.8757	0.0096
573.18	15220	0.284476	-0.8571	0.0096
573.18	15220	0.390315	-1.1432	0.0097
573.18	15220	0.390315	-1.1423	0.0097
573.18	15220	0.390315	-1.133	0.0097
573.18	15220	0.463754	-1.325	0.0098
573.18	15220	0.463754	-1.3138	0.0098
573.18	15220	0.463754	-1.3043	0.0098
573.19	30090	0.095921	-0.2031	0.0096
573.19	30090	0.095921	-0.1989	0.0096
573.19	30090	0.095921	-0.2016	0.0096
573.19	30090	0.188343	-0.3917	0.0096
573.19	30090	0.188343	-0.3944	0.0096
573.19	30090	0.188343	-0.3996	0.0096
573.19	30090	0.284476	-0.5721	0.0097
573.19	30090	0.284476	-0.5724	0.0097
573.19	30090	0.284476	-0.568	0.0097
573.19	30090	0.390315	-0.7529	0.0099
573.19	30090	0.390315	-0.7599	0.0098
573.19	30090	0.390315	-0.7623	0.0098
573.19	30090	0.463754	-0.8725	0.0099
573.19	30090	0.463754	-0.8801	0.0099

System: 1,8-octanediol + water; phases: Liquid
Property: Mass density, kg/m3 (Liquid); method: custom built densimeter
Temperature, K	Pressure, kPa	Molality, mol/kg of 1,8-octanediol	Mass density, kg/m3	uncertainty
298.15	510	0.040457	-0.2221	0.0096
298.15	510	0.040457	-0.2265	0.0096
298.15	510	0.040457	-0.2203	0.0096
298.15	510	0.061059	-0.3361	0.0096
298.15	510	0.061059	-0.3401	0.0096
298.15	510	0.061059	-0.342	0.0096
298.15	510	0.078373	-0.4315	0.0096
298.15	510	0.078373	-0.4313	0.0096
298.15	510	0.078373	-0.4349	0.0096
298.15	510	0.116979	-0.6383	0.0096
298.15	510	0.116979	-0.6382	0.0096
298.15	510	0.116979	-0.6399	0.0096
298.16	30130	0.040457	-0.2956	0.0096
298.16	30130	0.040457	-0.2972	0.0096
298.16	30130	0.040457	-0.2993	0.0096
298.16	30130	0.061059	-0.4428	0.0096
298.16	30130	0.061059	-0.4421	0.0096
298.16	30130	0.061059	-0.4479	0.0096
298.16	30130	0.078373	-0.5649	0.0096
298.16	30130	0.078373	-0.5617	0.0096
298.16	30130	0.078373	-0.5704	0.0096
298.16	30130	0.116979	-0.8333	0.0096
298.16	30130	0.116979	-0.8284	0.0096
298.16	30130	0.116979	-0.8244	0.0096
318.17	15140	0.040457	-0.3186	0.0096
318.17	15140	0.040457	-0.3137	0.0096
318.17	15140	0.040457	-0.3025	0.0096
318.17	15140	0.061059	-0.4653	0.0096
318.17	15140	0.061059	-0.4536	0.0096
318.17	15140	0.061059	-0.4651	0.0096
318.17	15140	0.078373	-0.6087	0.0096
318.17	15140	0.078373	-0.5927	0.0096
318.17	15140	0.078373	-0.596	0.0096
318.17	15140	0.116979	-0.8991	0.0096
318.17	15140	0.116979	-0.9121	0.0096
318.17	15140	0.116979	-0.9014	0.0096
338.18	520	0.040457	-0.3616	0.0096
338.18	520	0.040457	-0.3652	0.0096
338.18	520	0.040457	-0.3636	0.0096
338.18	520	0.061059	-0.5433	0.0096
338.18	520	0.061059	-0.5435	0.0096
338.18	520	0.061059	-0.55	0.0096
338.18	520	0.078373	-0.7005	0.0096
338.18	520	0.078373	-0.6986	0.0096
338.18	520	0.078373	-0.7023	0.0096
338.18	520	0.116979	-1.0446	0.0096
338.18	520	0.116979	-1.0423	0.0096
338.18	520	0.116979	-1.0404	0.0096
298.16	15170	0.040457	-0.2609	0.0096
298.16	15170	0.040457	-0.2634	0.0096
298.16	15170	0.040457	-0.2677	0.0096
298.16	15170	0.040457	-0.267	0.0096
298.16	15170	0.061059	-0.3883	0.0096
298.16	15170	0.061059	-0.3956	0.0096
298.16	15170	0.061059	-0.3834	0.0096
298.16	15170	0.061059	-0.3948	0.0096
298.16	15170	0.078373	-0.505	0.0096
298.16	15170	0.078373	-0.5025	0.0096
298.16	15170	0.078373	-0.4996	0.0096
298.16	15170	0.078373	-0.5009	0.0096
298.16	15170	0.116979	-0.736	0.0096
298.16	15170	0.116979	-0.7376	0.0096
298.16	15170	0.116979	-0.7383	0.0096
298.16	15170	0.116979	-0.7332	0.0096
318.18	520	0.040457	-0.2894	0.0096
318.18	520	0.040457	-0.2973	0.0096
318.18	520	0.040457	-0.3022	0.0096
318.18	520	0.061059	-0.4384	0.0096
318.18	520	0.061059	-0.4548	0.0096
318.18	520	0.061059	-0.4513	0.0096
318.18	520	0.078373	-0.5676	0.0096
318.18	520	0.078373	-0.5689	0.0096
318.18	520	0.078373	-0.5619	0.0096
318.18	520	0.116979	-0.8485	0.0096
318.18	520	0.116979	-0.8532	0.0096
318.18	520	0.116979	-0.8469	0.0096
318.17	30230	0.040457	-0.3362	0.0096
318.17	30230	0.040457	-0.3337	0.0096
318.17	30230	0.040457	-0.3323	0.0096
318.17	30230	0.061059	-0.5016	0.0096
318.17	30230	0.061059	-0.5039	0.0096
318.17	30230	0.061059	-0.4936	0.0096
318.17	30230	0.078373	-0.6426	0.0096
318.17	30230	0.078373	-0.6404	0.0096
318.17	30230	0.078373	-0.6415	0.0096
318.17	30230	0.116979	-0.9497	0.0096
318.17	30230	0.116979	-0.9526	0.0096
318.17	30230	0.116979	-0.9476	0.0096
338.18	15190	0.040457	-0.3699	0.0096
338.18	15190	0.040457	-0.3762	0.0096
338.18	15190	0.040457	-0.3703	0.0096
338.18	15190	0.061059	-0.554	0.0096
338.18	15190	0.061059	-0.5602	0.0096
338.18	15190	0.061059	-0.562	0.0096
338.18	15190	0.078373	-0.71	0.0096
338.18	15190	0.078373	-0.7176	0.0096
338.18	15190	0.078373	-0.7178	0.0096
338.18	15190	0.116979	-1.0679	0.0096
338.18	15190	0.116979	-1.0684	0.0096
338.18	15190	0.116979	-1.0718	0.0096
338.16	30160	0.039847	-0.3835	0.0096
338.16	30160	0.039847	-0.3837	0.0096
338.16	30160	0.039847	-0.3866	0.0096
338.16	30160	0.061336	-0.5816	0.0096
338.16	30160	0.061336	-0.5822	0.0096
338.16	30160	0.061336	-0.5799	0.0096
338.16	30160	0.08219	-0.7723	0.0096
338.16	30160	0.08219	-0.777	0.0096
338.16	30160	0.08219	-0.7701	0.0096
338.16	30160	0.111624	-1.0438	0.0096
338.16	30160	0.111624	-1.0484	0.0096
338.16	30160	0.111624	-1.052	0.0096
358.16	15120	0.039847	-0.4106	0.0096
358.16	15120	0.039847	-0.4103	0.0096
358.16	15120	0.039847	-0.4126	0.0096
358.16	15120	0.061336	-0.6332	0.0096
358.16	15120	0.061336	-0.6344	0.0096
358.16	15120	0.061336	-0.6327	0.0096
358.16	15120	0.08219	-0.8514	0.0096
358.16	15120	0.08219	-0.8533	0.0096
358.16	15120	0.08219	-0.851	0.0096
358.16	15120	0.111624	-1.1523	0.0096
358.16	15120	0.111624	-1.1514	0.0096
358.16	15120	0.111624	-1.1514	0.0096
373.18	520	0.039847	-0.4518	0.0096
373.18	520	0.039847	-0.4531	0.0096
373.18	520	0.039847	-0.4514	0.0096
373.18	520	0.061336	-0.6942	0.0096
373.18	520	0.061336	-0.695	0.0096
373.18	520	0.061336	-0.6949	0.0096
373.18	520	0.08219	-0.9313	0.0096
373.18	520	0.08219	-0.931	0.0096
373.18	520	0.08219	-0.9326	0.0096
373.18	520	0.111624	-1.2654	0.0096
373.18	520	0.111624	-1.2641	0.0096
373.18	520	0.111624	-1.2653	0.0096
373.17	30190	0.039847	-0.4463	0.0096
373.17	30190	0.039847	-0.4464	0.0096
373.17	30190	0.039847	-0.4461	0.0096
373.17	30190	0.061336	-0.686	0.0096
373.17	30190	0.061336	-0.6843	0.0096
373.17	30190	0.061336	-0.6881	0.0096
373.17	30190	0.08219	-0.9159	0.0096
373.17	30190	0.08219	-0.9173	0.0096
373.17	30190	0.08219	-0.92	0.0096
373.17	30190	0.111624	-1.241	0.0096
373.17	30190	0.111624	-1.2403	0.0096
373.17	30190	0.111624	-1.2471	0.0096
358.16	520	0.039847	-0.4124	0.0096
358.16	520	0.039847	-0.4121	0.0096
358.16	520	0.039847	-0.4126	0.0096
358.16	520	0.061336	-0.6321	0.0096
358.16	520	0.061336	-0.6334	0.0096
358.16	520	0.061336	-0.6324	0.0096
358.16	520	0.08219	-0.848	0.0096
358.16	520	0.08219	-0.8494	0.0096
358.16	520	0.08219	-0.8491	0.0096
358.16	520	0.111624	-1.154	0.0096
358.16	520	0.111624	-1.1532	0.0096
358.16	520	0.111624	-1.1555	0.0096
358.14	30030	0.039847	-0.4179	0.0096
358.14	30030	0.039847	-0.415	0.0096
358.14	30030	0.039847	-0.4128	0.0096
358.14	30030	0.061336	-0.6365	0.0096
358.14	30030	0.061336	-0.6382	0.0096
358.14	30030	0.061336	-0.6394	0.0096
358.14	30030	0.08219	-0.8559	0.0096
358.14	30030	0.08219	-0.8526	0.0096
358.14	30030	0.08219	-0.8577	0.0096
358.14	30030	0.111624	-1.1548	0.0096
358.14	30030	0.111624	-1.1589	0.0096
358.14	30030	0.111624	-1.157	0.0096
373.15	15190	0.039847	-0.4477	0.0096
373.15	15190	0.039847	-0.4492	0.0096
373.15	15190	0.039847	-0.4489	0.0096
373.15	15190	0.061336	-0.6881	0.0096
373.15	15190	0.061336	-0.6885	0.0096
373.15	15190	0.061336	-0.6895	0.0096
373.15	15190	0.08219	-0.9224	0.0096
373.15	15190	0.08219	-0.922	0.0096
373.15	15190	0.08219	-0.9247	0.0096
373.15	15190	0.111624	-1.2511	0.0096
373.15	15190	0.111624	-1.2494	0.0096
373.15	15190	0.111624	-1.2517	0.0096
398.14	1880	0.039847	-0.5141	0.0096
398.14	1880	0.039847	-0.513	0.0096
398.14	1880	0.039847	-0.5116	0.0096
398.14	1880	0.061336	-0.7878	0.0096
398.14	1880	0.061336	-0.7895	0.0096
398.14	1880	0.061336	-0.7897	0.0096
398.14	1880	0.08219	-1.0516	0.0096
398.14	1880	0.08219	-1.0514	0.0096
398.14	1880	0.08219	-1.0512	0.0096
398.14	1880	0.111624	-1.4268	0.0096
398.14	1880	0.111624	-1.4268	0.0096
398.14	1880	0.111624	-1.4263	0.0096
398.12	15170	0.039847	-0.5014	0.0096
398.12	15170	0.039847	-0.502	0.0096
398.12	15170	0.039847	-0.5036	0.0096
398.12	15170	0.061336	-0.7708	0.0096
398.12	15170	0.061336	-0.772	0.0096
398.12	15170	0.061336	-0.7711	0.0096
398.12	15170	0.08219	-1.0285	0.0096
398.12	15170	0.08219	-1.0278	0.0096
398.12	15170	0.08219	-1.0264	0.0096
398.12	15170	0.111624	-1.3931	0.0096
398.12	15170	0.111624	-1.3933	0.0096
398.12	15170	0.111624	-1.3943	0.0096
423.16	1860	0.042279	-0.599	0.0096
423.16	1860	0.042279	-0.6001	0.0096
423.16	1860	0.042279	-0.5988	0.0096
423.16	1860	0.063323	-0.8946	0.0096
423.16	1860	0.063323	-0.8943	0.0096
423.16	1860	0.063323	-0.8932	0.0096
423.16	1860	0.086656	-1.2188	0.0096
423.16	1860	0.086656	-1.2192	0.0096
423.16	1860	0.086656	-1.2201	0.0096
423.16	1860	0.112975	-1.5854	0.0096
423.16	1860	0.112975	-1.5836	0.0096
423.16	1860	0.112975	-1.5859	0.0096
423.15	30120	0.042279	-0.5608	0.0096
423.15	30120	0.042279	-0.5631	0.0096
423.15	30120	0.042279	-0.5641	0.0096
423.15	30120	0.063323	-0.8385	0.0096
423.15	30120	0.063323	-0.838	0.0096
423.15	30120	0.063323	-0.8359	0.0096
423.15	30120	0.086656	-1.1407	0.0096
423.15	30120	0.086656	-1.1425	0.0096
423.15	30120	0.086656	-1.1434	0.0096
423.15	30120	0.112975	-1.4831	0.0096
423.15	30120	0.112975	-1.482	0.0096
423.15	30120	0.112975	-1.4861	0.0096
448.19	15280	0.042279	-0.6146	0.0096
448.19	15280	0.042279	-0.6148	0.0096
448.19	15280	0.042279	-0.6146	0.0096
448.19	15280	0.063323	-0.9177	0.0096
448.19	15280	0.063323	-0.9194	0.0096
448.19	15280	0.063323	-0.9162	0.0096
448.19	15280	0.086656	-1.2512	0.0096
448.19	15280	0.086656	-1.2502	0.0096
448.19	15280	0.086656	-1.2524	0.0096
448.19	15280	0.112975	-1.6252	0.0096
448.19	15280	0.112975	-1.6245	0.0096
448.19	15280	0.112975	-1.624	0.0096
398.13	30140	0.039847	-0.4849	0.0096
398.13	30140	0.039847	-0.4896	0.0096
398.13	30140	0.039847	-0.4888	0.0096
398.13	30140	0.061336	-0.7545	0.0096
398.13	30140	0.061336	-0.7525	0.0096
398.13	30140	0.061336	-0.751	0.0096
398.13	30140	0.08219	-1.0021	0.0096
398.13	30140	0.08219	-0.9997	0.0096
398.13	30140	0.08219	-1.0044	0.0096
398.13	30140	0.111624	-1.3584	0.0096
398.13	30140	0.111624	-1.3632	0.0096
398.13	30140	0.111624	-1.3654	0.0096
423.15	15140	0.042279	-0.5775	0.0096
423.15	15140	0.042279	-0.5784	0.0096
423.15	15140	0.042279	-0.5765	0.0096
423.15	15140	0.063323	-0.8648	0.0096
423.15	15140	0.063323	-0.8635	0.0096
423.15	15140	0.063323	-0.8641	0.0096
423.15	15140	0.086656	-1.1789	0.0096
423.15	15140	0.086656	-1.1769	0.0096
423.15	15140	0.086656	-1.1766	0.0096
423.15	15140	0.112975	-1.5317	0.0096
423.15	15140	0.112975	-1.5295	0.0096
423.15	15140	0.112975	-1.5301	0.0096
448.16	1850	0.042279	-0.647	0.0096
448.16	1850	0.042279	-0.6475	0.0096
448.16	1850	0.042279	-0.6492	0.0096
448.16	1850	0.063323	-0.9636	0.0096
448.16	1850	0.063323	-0.9649	0.0096
448.16	1850	0.063323	-0.9637	0.0096
448.16	1850	0.086656	-1.3128	0.0096
448.16	1850	0.086656	-1.3144	0.0096
448.16	1850	0.086656	-1.316	0.0096
448.16	1850	0.112975	-1.7045	0.0096
448.16	1850	0.112975	-1.7044	0.0096
448.16	1850	0.112975	-1.701	0.0096
448.18	30030	0.042279	-0.5923	0.0096
448.18	30030	0.042279	-0.5925	0.0096
448.18	30030	0.042279	-0.586	0.0096
448.18	30030	0.063323	-0.8812	0.0096
448.18	30030	0.063323	-0.8812	0.0096
448.18	30030	0.063323	-0.8838	0.0096
448.18	30030	0.086656	-1.202	0.0096
448.18	30030	0.086656	-1.1988	0.0096
448.18	30030	0.086656	-1.2018	0.0096
448.18	30030	0.112975	-1.5589	0.0096
448.18	30030	0.112975	-1.5577	0.0096
448.18	30030	0.112975	-1.5644	0.0096
473.23	1830	0.042279	-0.686	0.0096
473.23	1830	0.042279	-0.6863	0.0096
473.23	1830	0.042279	-0.6866	0.0096
473.23	1830	0.063323	-1.023	0.0096
473.23	1830	0.063323	-1.0221	0.0096
473.23	1830	0.063323	-1.0226	0.0096
473.23	1830	0.086656	-1.3922	0.0096
473.23	1830	0.086656	-1.3929	0.0096
473.23	1830	0.086656	-1.3903	0.0096
473.23	1830	0.112975	-1.8058	0.0096
473.23	1830	0.112975	-1.8052	0.0096
473.23	1830	0.112975	-1.8053	0.0096
473.22	29990	0.042279	-0.6125	0.0096
473.22	29990	0.042279	-0.6146	0.0096
473.22	29990	0.042279	-0.614	0.0096
473.22	29990	0.063323	-0.9117	0.0096
473.22	29990	0.063323	-0.9086	0.0096
473.22	29990	0.063323	-0.9138	0.0096
473.22	29990	0.086656	-1.2442	0.0096
473.22	29990	0.086656	-1.2427	0.0096
473.22	29990	0.086656	-1.2413	0.0096
473.22	29990	0.112975	-1.6069	0.0096
473.22	29990	0.112975	-1.6095	0.0096
473.22	29990	0.112975	-1.6135	0.0096
498.11	30090	0.042106	-0.614	0.0096
498.11	30090	0.042106	-0.6184	0.0096
498.11	30090	0.042106	-0.617	0.0096
498.11	30090	0.061553	-0.8873	0.0096
498.11	30090	0.061553	-0.8894	0.0096
498.11	30090	0.061553	-0.8911	0.0096
498.11	30090	0.080312	-1.1481	0.0096
498.11	30090	0.080312	-1.149	0.0096
498.11	30090	0.080312	-1.1474	0.0096
498.11	30090	0.109671	-1.5574	0.0096
498.11	30090	0.109671	-1.5559	0.0096
498.11	30090	0.109671	-1.5539	0.0096
523.19	15130	0.042106	-0.6813	0.0096
523.19	15130	0.042106	-0.6831	0.0096
523.19	15130	0.042106	-0.6782	0.0096
523.19	15130	0.061553	-0.9775	0.0096
523.19	15130	0.061553	-0.9757	0.0096
523.19	15130	0.061553	-0.9742	0.0096
523.19	15130	0.080312	-1.2597	0.0096
523.19	15130	0.080312	-1.2652	0.0096
523.19	15130	0.080312	-1.2544	0.0096
523.19	15130	0.109671	-1.7115	0.0096
523.19	15130	0.109671	-1.7056	0.0096
523.19	15130	0.109671	-1.7053	0.0096
473.22	15130	0.042279	-0.6424	0.0096
473.22	15130	0.042279	-0.6422	0.0096
473.22	15130	0.042279	-0.6416	0.0096
473.22	15130	0.063323	-0.9618	0.0096
473.22	15130	0.063323	-0.9614	0.0096
473.22	15130	0.063323	-0.9592	0.0096
473.22	15130	0.086656	-1.3093	0.0096
473.22	15130	0.086656	-1.3074	0.0096
473.22	15130	0.086656	-1.3103	0.0096
473.22	15130	0.112975	-1.6942	0.0096
473.22	15130	0.112975	-1.6993	0.0096
473.22	15130	0.112975	-1.6939	0.0096
498.12	3050	0.042106	-0.7095	0.0096
498.12	3050	0.042106	-0.7095	0.0096
498.12	3050	0.042106	-0.711	0.0096
498.12	3050	0.061553	-1.0216	0.0096
498.12	3050	0.061553	-1.0216	0.0096
498.12	3050	0.061553	-1.0178	0.0096
498.12	3050	0.080312	-1.3218	0.0096
498.12	3050	0.080312	-1.3212	0.0096
498.12	3050	0.080312	-1.3177	0.0096
498.12	3050	0.109671	-1.7938	0.0096
498.12	3050	0.109671	-1.7908	0.0096
498.12	3050	0.109671	-1.7926	0.0096
523.19	5030	0.042106	-0.7364	0.0096
523.19	5030	0.042106	-0.7355	0.0096
523.19	5030	0.042106	-0.7357	0.0096
523.19	5030	0.061553	-1.0589	0.0096
523.19	5030	0.061553	-1.0605	0.0096
523.19	5030	0.061553	-1.0591	0.0096
523.19	5030	0.080312	-1.3647	0.0096
523.19	5030	0.080312	-1.3656	0.0096
523.19	5030	0.109671	-1.8473	0.0096
523.19	5030	0.109671	-1.8449	0.0096
523.18	30050	0.042106	-0.6175	0.0096
523.18	30050	0.042106	-0.6212	0.0096
523.18	30050	0.061553	-0.8921	0.0096
523.18	30050	0.061553	-0.8962	0.0096
523.18	30050	0.061553	-0.8909	0.0096
523.18	30050	0.080312	-1.1481	0.0096
523.18	30050	0.080312	-1.1492	0.0096
523.18	30050	0.080312	-1.1461	0.0096
523.18	30050	0.109671	-1.5554	0.0096
523.18	30050	0.109671	-1.5533	0.0096
523.18	30050	0.109671	-1.5555	0.0096
498.12	15110	0.042106	-0.6661	0.0096
498.12	15110	0.042106	-0.6654	0.0096
498.12	15110	0.061553	-0.9533	0.0096
498.12	15110	0.061553	-0.9584	0.0096
498.12	15110	0.080312	-1.2321	0.0096
498.12	15110	0.080312	-1.2346	0.0096
498.12	15110	0.109671	-1.6704	0.0096
498.12	15110	0.109671	-1.6739	0.0096
548.16	7050	0.042106	-0.7589	0.0096
548.16	7050	0.042106	-0.7528	0.0096
548.16	7050	0.042106	-0.752	0.0096
548.16	7050	0.061553	-1.084	0.0096
548.16	7050	0.061553	-1.0801	0.0096
548.16	7050	0.061553	-1.085	0.0096
548.16	7050	0.080312	-1.3925	0.0096
548.16	7050	0.080312	-1.3918	0.0096
548.16	7050	0.080312	-1.3956	0.0096
548.16	7050	0.109671	-1.8862	0.0096
548.16	7050	0.109671	-1.8917	0.0096
548.16	7050	0.109671	-1.8868	0.0096
548.16	30050	0.042106	-0.6082	0.0096
548.16	30050	0.042106	-0.6022	0.0096
548.16	30050	0.042106	-0.6006	0.0096
548.16	30050	0.061553	-0.8742	0.0096
548.16	30050	0.061553	-0.863	0.0096
548.16	30050	0.061553	-0.8655	0.0096
548.16	30050	0.061553	-0.865	0.0096
548.16	30050	0.080312	-1.1121	0.0096
548.16	30050	0.080312	-1.1271	0.0096
548.16	30050	0.080312	-1.1168	0.0096
548.16	30050	0.080312	-1.1151	0.0096
548.16	30050	0.109671	-1.5112	0.0096
548.16	30050	0.109671	-1.5188	0.0096
548.16	30050	0.109671	-1.516	0.0096
548.16	30050	0.109671	-1.5196	0.0096
548.16	30050	0.109671	-1.5118	0.0096
548.16	30050	0.109671	-1.5099	0.0096
573.18	15220	0.041414	-0.6662	0.0096
573.18	15220	0.041414	-0.665	0.0096
573.18	15220	0.06309	-1.0075	0.0096
573.18	15220	0.06309	-1.0033	0.0096
573.18	15220	0.06309	-1.0047	0.0096
573.18	15220	0.080978	-1.2893	0.0096
573.18	15220	0.080978	-1.2825	0.0096
573.18	15220	0.080978	-1.2944	0.0096
573.18	15220	0.111558	-1.7615	0.0097
573.18	15220	0.111558	-1.7489	0.0097
548.16	15040	0.042106	-0.6842	0.0096
548.16	15040	0.042106	-0.6764	0.0096
548.16	15040	0.042106	-0.6769	0.0096
548.16	15040	0.061553	-0.9832	0.0096
548.16	15040	0.061553	-0.9744	0.0096
548.16	15040	0.061553	-0.9762	0.0096
548.16	15040	0.080312	-1.2726	0.0096
548.16	15040	0.080312	-1.269	0.0096
548.16	15040	0.080312	-1.2623	0.0096
548.16	15040	0.109671	-1.7257	0.0096
548.16	15040	0.109671	-1.7151	0.0096
548.16	15040	0.109671	-1.6961	0.0096
573.18	10050	0.041414	-0.7345	0.0096
573.18	10050	0.041414	-0.7329	0.0096
573.18	10050	0.06309	-1.1104	0.0097
573.18	10050	0.06309	-1.1087	0.0097
573.18	10050	0.080978	-1.4099	0.0097
573.18	10050	0.111558	-1.9223	0.0098
573.18	10050	0.111558	-1.9268	0.0098
573.18	10050	0.111558	-1.9283	0.0098
573.19	30090	0.041414	-0.5584	0.0096
573.19	30090	0.06309	-0.8416	0.0096
573.19	30090	0.06309	-0.8448	0.0096
573.19	30090	0.06309	-0.8406	0.0096
573.19	30090	0.080978	-1.0794	0.0096
573.19	30090	0.080978	-1.0804	0.0096
573.19	30090	0.080978	-1.0724	0.0096
573.19	30090	0.111558	-1.4636	0.0097
573.19	30090	0.111558	-1.4659	0.0097

System: 1,9-nonanediol + water; phases: Liquid
Property: Mass density, kg/m3 (Liquid); method: custom built densimeter
Temperature, K	Pressure, kPa	Molality, mol/kg of 1,9-nonanediol	Mass density, kg/m3	uncertainty
298.15	510	0.023507	-0.1726	0.0102
298.15	510	0.023507	-0.173	0.0102
298.15	510	0.023507	-0.1767	0.0099
298.15	510	0.025953	-0.1876	0.0103
298.15	510	0.025953	-0.1932	0.0103
298.15	510	0.025953	-0.1901	0.0103
298.15	510	0.026106	-0.1904	0.0103
298.15	510	0.026106	-0.1929	0.0103
298.15	510	0.026106	-0.1811	0.0104
298.15	510	0.031153	-0.2232	0.0103
298.15	510	0.031153	-0.2225	0.0103
298.15	510	0.031153	-0.2232	0.0103
298.16	30110	0.023507	-0.2115	0.012
298.16	30110	0.023507	-0.2179	0.0111
298.16	30110	0.023507	-0.2208	0.0107
298.16	30110	0.025953	-0.2409	0.0112
298.16	30110	0.025953	-0.2418	0.0112
298.16	30110	0.025953	-0.2411	0.0112
298.16	30110	0.026106	-0.2426	0.0112
298.16	30110	0.026106	-0.2418	0.0112
298.16	30110	0.026106	-0.2388	0.0113
298.16	30110	0.031153	-0.2879	0.011
298.16	30110	0.031153	-0.2898	0.0111
298.16	30110	0.031153	-0.2851	0.0108
318.17	15140	0.023507	-0.2262	0.0126
318.17	15140	0.023507	-0.2271	0.0126
318.17	15140	0.023507	-0.2452	0.012
318.17	15140	0.025953	-0.263	0.0117
318.17	15140	0.025953	-0.2547	0.0117
318.17	15140	0.025953	-0.2378	0.0118
318.17	15140	0.026106	-0.2553	0.0117
318.17	15140	0.026106	-0.2558	0.0117
318.17	15140	0.026106	-0.2484	0.0117
318.17	15140	0.031153	-0.3144	0.0115
318.17	15140	0.031153	-0.3106	0.0115
318.17	15140	0.031153	-0.3004	0.0113
338.18	520	0.023507	-0.2698	0.0113
338.18	520	0.023507	-0.275	0.0107
338.18	520	0.023507	-0.2738	0.0108
338.18	520	0.025953	-0.2947	0.0117
338.18	520	0.025953	-0.2957	0.0117
338.18	520	0.025953	-0.2975	0.0117
338.18	520	0.026106	-0.2976	0.0117
338.18	520	0.026106	-0.302	0.0116
338.18	520	0.026106	-0.2961	0.0117
338.18	520	0.031153	-0.3551	0.0118
338.18	520	0.031153	-0.3582	0.0118
338.18	520	0.031153	-0.3591	0.0118
298.16	15160	0.023507	-0.1917	0.0112
298.16	15160	0.023507	-0.1956	0.011
298.16	15160	0.023507	-0.1925	0.0112
298.16	15160	0.023507	-0.1922	0.0112
298.16	15160	0.025953	-0.2157	0.0108
298.16	15160	0.025953	-0.215	0.0109
298.16	15160	0.025953	-0.2074	0.0109
298.16	15160	0.026106	-0.2198	0.0108
298.16	15160	0.026106	-0.2187	0.0108
298.16	15160	0.026106	-0.2166	0.0109
298.16	15160	0.026106	-0.2137	0.0109
298.16	15160	0.031153	-0.258	0.0105
298.16	15160	0.031153	-0.2546	0.0104
298.16	15160	0.031153	-0.2499	0.0104
318.19	510	0.023507	-0.2084	0.0121
318.19	510	0.023507	-0.2165	0.0117
318.19	510	0.023507	-0.2363	0.0109
318.19	510	0.025953	-0.2474	0.0112
318.19	510	0.025953	-0.2515	0.0112
318.19	510	0.025953	-0.2445	0.0113
318.19	510	0.026106	-0.2577	0.0112
318.19	510	0.026106	-0.2559	0.0112
318.19	510	0.026106	-0.2231	0.0114
318.19	510	0.031153	-0.2878	0.0102
318.19	510	0.031153	-0.2905	0.0103
318.19	510	0.031153	-0.2838	0.0102
318.17	30240	0.023507	-0.2453	0.0114
318.17	30240	0.023507	-0.2457	0.0114
318.17	30240	0.023507	-0.2412	0.012
318.17	30240	0.025953	-0.271	0.0114
318.17	30240	0.025953	-0.2688	0.0114
318.17	30240	0.025953	-0.2664	0.0114
318.17	30240	0.026106	-0.2714	0.0114
318.17	30240	0.026106	-0.2727	0.0114
318.17	30240	0.026106	-0.265	0.0114
318.17	30240	0.031153	-0.3255	0.0117
318.17	30240	0.031153	-0.3267	0.0117
318.17	30240	0.031153	-0.3187	0.0118
338.17	15190	0.023507	-0.2767	0.0113
338.17	15190	0.023507	-0.276	0.0113
338.17	15190	0.023507	-0.2756	0.0114
338.17	15190	0.025953	-0.304	0.0117
338.17	15190	0.025953	-0.3102	0.0117
338.17	15190	0.025953	-0.2994	0.0117
338.17	15190	0.026106	-0.3037	0.0117
338.17	15190	0.026106	-0.3067	0.0117
338.17	15190	0.026106	-0.3079	0.0117
338.17	15190	0.031153	-0.3625	0.0121
338.17	15190	0.031153	-0.3676	0.012
338.17	15190	0.031153	-0.3738	0.012
338.16	30150	0.025953	-0.3083	0.0114
338.16	30150	0.025953	-0.3096	0.0114
338.16	30150	0.025953	-0.3123	0.0114
338.16	30150	0.03752	-0.4616	0.0099
338.16	30150	0.03752	-0.4628	0.0096
338.16	30150	0.03752	-0.4523	0.0146
338.16	30150	0.03817	-0.4643	0.0099
338.16	30150	0.03817	-0.4663	0.0099
338.16	30150	0.03817	-0.4605	0.01
338.16	30150	0.04071	-0.4763	0.01
338.16	30150	0.04071	-0.4822	0.0104
338.16	30150	0.04071	-0.4839	0.0106
358.15	15120	0.03752	-0.4927	0.013
358.15	15120	0.03752	-0.4952	0.0125
358.15	15120	0.03752	-0.496	0.0123
358.15	15120	0.03817	-0.5031	0.0123
358.15	15120	0.03817	-0.5018	0.0123
358.15	15120	0.03817	-0.5021	0.0123
358.15	15120	0.03914	-0.5141	0.0119
358.15	15120	0.03914	-0.5142	0.0119
358.15	15120	0.03914	-0.5141	0.0119
358.15	15120	0.04071	-0.5332	0.0124
358.15	15120	0.04071	-0.5353	0.0126
358.15	15120	0.04071	-0.5394	0.0129
373.18	520	0.029196	-0.4226	0.0121
373.18	520	0.029196	-0.4238	0.012
373.18	520	0.029196	-0.4245	0.012
373.18	520	0.029568	-0.4272	0.0121
373.18	520	0.029568	-0.4271	0.0121
373.18	520	0.029568	-0.4271	0.0121
373.18	520	0.03914	-0.5625	0.0142
373.18	520	0.03914	-0.5648	0.0136
373.18	520	0.03914	-0.5626	0.0142
373.18	520	0.04071	-0.5901	0.0142
373.18	520	0.04071	-0.5902	0.0143
373.18	520	0.04071	-0.5879	0.0136
398.14	1880	0.029196	-0.477	0.013
398.14	1880	0.029196	-0.4781	0.0125
398.14	1880	0.029196	-0.4746	0.0142
398.14	1880	0.029568	-0.4785	0.0127
398.14	1880	0.029568	-0.4818	0.0124
398.14	1880	0.029568	-0.4693	0.0135
398.14	1880	0.029763	-0.4864	0.0122
398.14	1880	0.029763	-0.487	0.0122
398.14	1880	0.029763	-0.4858	0.0123
398.14	1880	0.03003	-0.4893	0.013
398.14	1880	0.03003	-0.4886	0.0127
398.14	1880	0.03003	-0.4874	0.0121
358.16	510	0.03752	-0.4933	0.0135
358.16	510	0.03752	-0.4956	0.0121
358.16	510	0.03752	-0.4975	0.0111
358.16	510	0.03817	-0.5036	0.0125
358.16	510	0.03817	-0.5028	0.0125
358.16	510	0.03914	-0.5152	0.0119
358.16	510	0.03914	-0.5131	0.0119
358.16	510	0.03914	-0.5118	0.012
358.16	510	0.04071	-0.5337	0.0119
358.16	510	0.04071	-0.5361	0.0124
358.16	510	0.04071	-0.5345	0.0121
358.14	30060	0.03752	-0.4947	0.0125
358.14	30060	0.03752	-0.4953	0.0122
358.14	30060	0.03752	-0.4968	0.0114
358.14	30060	0.03817	-0.5035	0.0125
358.14	30060	0.03817	-0.504	0.0125
358.14	30060	0.03817	-0.5009	0.0126
358.14	30060	0.03914	-0.5166	0.0125
358.14	30060	0.03914	-0.5174	0.0125
358.14	30060	0.03914	-0.5157	0.0125
358.14	30060	0.04071	-0.5375	0.0124
358.14	30060	0.04071	-0.533	0.0114
358.14	30060	0.04071	-0.5355	0.012
373.15	15190	0.029196	-0.4208	0.0121
373.15	15190	0.029196	-0.4176	0.0126
373.15	15190	0.029196	-0.4194	0.0123
373.15	15190	0.029568	-0.4181	0.0122
373.15	15190	0.029568	-0.4215	0.0121
373.15	15190	0.029568	-0.4222	0.0121
373.15	15190	0.029763	-0.4261	0.012
373.15	15190	0.029763	-0.4258	0.012
373.15	15190	0.029763	-0.425	0.012
373.15	15190	0.03003	-0.4297	0.0114
373.15	15190	0.03003	-0.4295	0.0113
373.15	15190	0.03003	-0.429	0.0112
398.13	15150	0.029196	-0.467	0.0131
398.13	15150	0.029196	-0.4655	0.0132
398.13	15150	0.029196	-0.4647	0.0133
398.13	15150	0.029568	-0.469	0.0122
398.13	15150	0.029568	-0.4685	0.0122
398.13	15150	0.029568	-0.4714	0.0121
398.13	15150	0.029763	-0.4762	0.0121
398.13	15150	0.029763	-0.4736	0.0121
398.13	15150	0.029763	-0.4735	0.0121
398.13	15150	0.03003	-0.4772	0.0115
398.13	15150	0.03003	-0.4785	0.0119
398.13	15150	0.03003	-0.4746	0.0108
373.17	30190	0.029196	-0.4147	0.0131
373.17	30190	0.029196	-0.419	0.0112
373.17	30190	0.029568	-0.4192	0.0121
373.17	30190	0.029568	-0.4185	0.0122
373.17	30190	0.029763	-0.421	0.0122
373.17	30190	0.03003	-0.4272	0.0131
373.17	30190	0.03003	-0.4274	0.0132
373.17	30190	0.03003	-0.4299	0.0145
398.12	30160	0.029196	-0.4519	0.0137
398.12	30160	0.029196	-0.456	0.013
398.12	30160	0.029196	-0.452	0.0137
398.12	30160	0.029568	-0.4587	0.012
398.12	30160	0.029568	-0.459	0.012
398.12	30160	0.029568	-0.4497	0.0122
398.12	30160	0.029763	-0.4614	0.012
398.12	30160	0.029763	-0.4639	0.012
398.12	30160	0.029763	-0.4601	0.012
398.12	30160	0.03003	-0.466	0.0136
398.12	30160	0.03003	-0.4655	0.0134
398.12	30160	0.03003	-0.4643	0.013
423.15	15140	0.029196	-0.5058	0.0139
423.15	15140	0.029196	-0.5063	0.0138
423.15	15140	0.029196	-0.5063	0.0138
423.15	15140	0.029568	-0.5112	0.0129
423.15	15140	0.029568	-0.5087	0.0131
423.15	15140	0.029568	-0.5112	0.0129
423.15	15140	0.029763	-0.5091	0.0115
423.15	15140	0.029763	-0.5091	0.0115
423.15	15140	0.029763	-0.5141	0.0115
423.15	15140	0.03003	-0.5192	0.0133
423.15	15140	0.03003	-0.5178	0.0128
423.15	15140	0.03003	-0.5216	0.0142
448.16	1850	0.029196	-0.5773	0.0115
448.16	1850	0.029196	-0.5766	0.0116
448.16	1850	0.029196	-0.5759	0.0118
448.16	1850	0.029568	-0.5694	0.0147
448.16	1850	0.029568	-0.5671	0.0149
448.16	1850	0.029568	-0.5661	0.015
448.16	1850	0.029763	-0.5721	0.0119
448.16	1850	0.029763	-0.5721	0.0119
448.16	1850	0.029763	-0.5717	0.0119
448.16	1850	0.03003	-0.5781	0.0098
448.16	1850	0.03003	-0.5783	0.0098
448.16	1850	0.03003	-0.5749	0.0103
448.18	30040	0.029493	-0.5184	0.0157
448.18	30040	0.029493	-0.5212	0.0155
448.18	30040	0.029493	-0.5197	0.0156
448.18	30040	0.029928	-0.5188	0.0185
448.18	30040	0.029928	-0.5212	0.0182
448.18	30040	0.029928	-0.5213	0.0182
448.18	30040	0.030776	-0.5428	0.0195
448.18	30040	0.030776	-0.5434	0.0199
448.18	30040	0.030776	-0.5432	0.0197
448.18	30040	0.031241	-0.5503	0.0173
448.18	30040	0.031241	-0.5522	0.018
448.18	30040	0.031241	-0.5476	0.0163
423.16	1860	0.029196	-0.5227	0.0133
423.16	1860	0.029196	-0.5218	0.0134
423.16	1860	0.029196	-0.5226	0.0133
423.16	1860	0.029568	-0.5285	0.0124
423.16	1860	0.029568	-0.529	0.0124
423.16	1860	0.029568	-0.5277	0.0124
423.16	1860	0.029763	-0.5318	0.0124
423.16	1860	0.029763	-0.5305	0.0124
423.16	1860	0.029763	-0.5329	0.0124
423.16	1860	0.03003	-0.5385	0.0141
423.16	1860	0.03003	-0.5394	0.0145
423.16	1860	0.03003	-0.5355	0.0129
423.15	30120	0.029196	-0.4905	0.0158
423.15	30120	0.029196	-0.4909	0.0156
423.15	30120	0.029196	-0.4899	0.016
423.15	30120	0.029568	-0.4937	0.0142
423.15	30120	0.029568	-0.4957	0.014
423.15	30120	0.029568	-0.496	0.014
423.15	30120	0.029763	-0.4986	0.0116
423.15	30120	0.029763	-0.4998	0.0116
423.15	30120	0.029763	-0.4965	0.0116
423.15	30120	0.03003	-0.5038	0.0112
423.15	30120	0.03003	-0.5038	0.0112
423.15	30120	0.03003	-0.5035	0.0111
448.18	15230	0.029763	-0.546	0.0141
448.18	15230	0.029763	-0.5461	0.0141
448.18	15230	0.029763	-0.5464	0.0141
448.18	15230	0.03003	-0.5508	0.0159
448.18	15230	0.03003	-0.5532	0.0159
448.18	15230	0.03003	-0.5482	0.0159
448.18	15230	0.030776	-0.5632	0.0137
448.18	15230	0.030776	-0.5652	0.0149
448.18	15230	0.030776	-0.5606	0.0122
448.18	15230	0.031241	-0.5715	0.0139
448.18	15230	0.031241	-0.5726	0.0143
448.18	15230	0.031241	-0.5718	0.014
473.23	1840	0.029493	-0.602	0.0142
473.23	1840	0.029493	-0.603	0.0138
473.23	1840	0.029493	-0.6001	0.0148
473.23	1840	0.029928	-0.607	0.0156
473.23	1840	0.029928	-0.6022	0.0184
473.23	1840	0.029928	-0.6025	0.0182
473.23	1840	0.030776	-0.6244	0.0156
473.23	1840	0.030776	-0.6247	0.0157
473.23	1840	0.030776	-0.6244	0.0156
473.23	1840	0.031241	-0.6358	0.0163
473.23	1840	0.031241	-0.6381	0.0171
473.23	1840	0.031241	-0.6348	0.0159
473.22	15130	0.029493	-0.5659	0.0135
473.22	15130	0.029493	-0.568	0.0133
473.22	15130	0.029493	-0.5627	0.0137
473.22	15130	0.029928	-0.5711	0.0149
473.22	15130	0.029928	-0.5702	0.015
473.22	15130	0.029928	-0.569	0.0151
473.22	15130	0.030776	-0.5878	0.0165
473.22	15130	0.030776	-0.5879	0.0165
473.22	15130	0.030776	-0.5845	0.0162
473.22	15130	0.031241	-0.5983	0.0161
473.22	15130	0.031241	-0.5934	0.0157
473.22	15130	0.031241	-0.5965	0.016
498.13	3050	0.029493	-0.6244	0.0154
498.13	3050	0.029493	-0.6264	0.0147
498.13	3050	0.029493	-0.6259	0.0148
498.13	3050	0.029928	-0.6336	0.0151
498.13	3050	0.029928	-0.6341	0.0149
498.13	3050	0.029928	-0.6389	0.0125
498.13	3050	0.030776	-0.6502	0.0151
498.13	3050	0.030776	-0.6494	0.0147
498.13	3050	0.030776	-0.6535	0.017
498.13	3050	0.031241	-0.6611	0.0158
498.13	3050	0.031241	-0.6638	0.0168
498.13	3050	0.031241	-0.6628	0.0164
498.11	30090	0.029493	-0.5469	0.0158
498.11	30090	0.029493	-0.546	0.016
498.11	30090	0.029493	-0.5454	0.016
498.11	30090	0.029928	-0.5554	0.0164
498.11	30090	0.029928	-0.5551	0.0164
498.11	30090	0.029928	-0.5513	0.0171
498.11	30090	0.030776	-0.5704	0.0129
498.11	30090	0.030776	-0.5718	0.0131
498.11	30090	0.030776	-0.5698	0.0128
498.11	30090	0.031241	-0.5792	0.0126
498.11	30090	0.031241	-0.5811	0.0129
523.19	15130	0.029328	-0.5872	0.0161
523.19	15130	0.029328	-0.5923	0.0154
523.19	15130	0.029328	-0.5948	0.015
523.19	15130	0.029556	-0.5931	0.0147
523.19	15130	0.029556	-0.6081	0.0141
523.19	15130	0.029556	-0.6039	0.0143
523.19	15130	0.030448	-0.619	0.0227
523.19	15130	0.030448	-0.6253	0.0233
523.19	15130	0.030448	-0.6188	0.0227
523.19	15130	0.030804	-0.6304	0.0198
523.19	15130	0.030804	-0.6289	0.0196
523.19	15130	0.030804	-0.629	0.0196
473.22	30010	0.029493	-0.5342	0.0166
473.22	30010	0.029493	-0.5388	0.0161
473.22	30010	0.029493	-0.5354	0.0165
473.22	30010	0.029928	-0.5386	0.0199
473.22	30010	0.029928	-0.5373	0.0202
473.22	30010	0.029928	-0.5398	0.0197
473.22	30010	0.030776	-0.5624	0.0171
473.22	30010	0.030776	-0.5615	0.0169
473.22	30010	0.030776	-0.5634	0.0173
473.22	30010	0.031241	-0.5654	0.0154
473.22	30010	0.031241	-0.5691	0.0159
473.22	30010	0.031241	-0.5755	0.0166
498.12	15110	0.029493	-0.5859	0.0154
498.12	15110	0.029493	-0.586	0.0154
498.12	15110	0.029493	-0.5825	0.0156
498.12	15110	0.029928	-0.5906	0.0168
498.12	15110	0.029928	-0.5896	0.0169
498.12	15110	0.029928	-0.5885	0.017
498.12	15110	0.030776	-0.6093	0.0174
498.12	15110	0.030776	-0.615	0.018
498.12	15110	0.030776	-0.6113	0.0176
498.12	15110	0.031241	-0.622	0.0172
498.12	15110	0.031241	-0.6211	0.0171
498.12	15110	0.031241	-0.6153	0.0165
523.19	5040	0.029493	-0.6537	0.014
523.19	5040	0.029493	-0.6497	0.0154
523.19	5040	0.029493	-0.6468	0.0165
523.19	5040	0.029928	-0.6683	0.0108
523.19	5040	0.029928	-0.6598	0.0146
523.19	5040	0.030776	-0.6755	0.0108
523.19	5040	0.030776	-0.6791	0.0122
523.19	5040	0.030776	-0.6741	0.0104
523.19	5040	0.031241	-0.6989	0.0169
523.19	5040	0.031241	-0.6996	0.0172
523.19	5040	0.031241	-0.6998	0.0173
523.18	30050	0.029493	-0.5494	0.0161
523.18	30050	0.029493	-0.5499	0.016
523.18	30050	0.029928	-0.5613	0.0169
523.18	30050	0.029928	-0.5607	0.017
523.18	30050	0.029928	-0.5528	0.018
523.18	30050	0.030448	-0.5665	0.0144
523.18	30050	0.030448	-0.5669	0.0146
523.18	30050	0.030448	-0.563	0.0128
523.18	30050	0.030804	-0.5709	0.0113
523.18	30050	0.030804	-0.5796	0.0125
523.18	30050	0.030804	-0.5772	0.0122
548.16	7050	0.029328	-0.6649	0.0209
548.16	7050	0.029328	-0.6648	0.0209
548.16	7050	0.029328	-0.6683	0.0192
548.16	7050	0.029556	-0.6672	0.0237
548.16	7050	0.029556	-0.6681	0.0232
548.16	7050	0.029556	-0.6716	0.0211
548.16	7050	0.030448	-0.6995	0.0237
548.16	7050	0.030448	-0.694	0.0204
548.16	7050	0.030448	-0.6958	0.0215
548.16	7050	0.030804	-0.6995	0.0182
548.16	7050	0.030804	-0.7012	0.0189
548.16	7050	0.030804	-0.7007	0.0187
548.16	30070	0.029328	-0.5388	0.0177
548.16	30070	0.029328	-0.5406	0.0174
548.16	30070	0.029328	-0.5336	0.0187
548.16	30070	0.029328	-0.5344	0.0186
548.16	30070	0.029328	-0.5384	0.0178
548.16	30070	0.029556	-0.5423	0.0186
548.16	30070	0.029556	-0.5426	0.0186
548.16	30070	0.029556	-0.5439	0.0185
548.16	30070	0.030448	-0.5624	0.0134
548.16	30070	0.030448	-0.5618	0.0133
548.16	30070	0.030448	-0.5618	0.0133
548.16	30070	0.030448	-0.5582	0.0128
548.16	30070	0.030448	-0.5618	0.0133
548.16	30070	0.030804	-0.5685	0.0142
548.16	30070	0.030804	-0.5723	0.0146
548.16	30070	0.030804	-0.5715	0.0145
548.16	30070	0.030804	-0.5671	0.014
548.16	30070	0.030804	-0.5671	0.014
573.19	15220	0.029328	-0.6212	0.0133
573.19	15220	0.029328	-0.6225	0.0131
573.19	15220	0.029328	-0.6189	0.0137
573.19	15220	0.029556	-0.6261	0.0124
573.19	15220	0.029556	-0.6248	0.0125
573.19	15220	0.029556	-0.6234	0.0126
573.19	15220	0.030448	-0.6459	0.0221
573.19	15220	0.030448	-0.6368	0.02
573.19	15220	0.030448	-0.6372	0.0201
573.19	15220	0.030804	-0.6589	0.0226
573.19	15220	0.030804	-0.6528	0.0216
573.19	15220	0.030804	-0.6544	0.0219
548.19	15050	0.029328	-0.604	0.0154
548.19	15050	0.029328	-0.5943	0.0163
548.19	15050	0.029328	-0.6022	0.0156
548.19	15050	0.029328	-0.5929	0.0164
548.19	15050	0.029328	-0.5959	0.0162
548.19	15050	0.029556	-0.604	0.0147
548.19	15050	0.029556	-0.6055	0.0147
548.19	15050	0.029556	-0.6063	0.0147
548.19	15050	0.030448	-0.6335	0.0262
548.19	15050	0.030448	-0.6312	0.0259
548.19	15050	0.030804	-0.6382	0.0228
548.19	15050	0.030804	-0.6334	0.0224
573.18	10050	0.029328	-0.6731	0.0191
573.18	10050	0.029328	-0.6785	0.0167
573.18	10050	0.029328	-0.6814	0.0154
573.18	10050	0.029556	-0.6808	0.0183
573.18	10050	0.029556	-0.6815	0.0179
573.18	10050	0.029556	-0.687	0.0149
573.18	10050	0.030448	-0.704	0.0183
573.18	10050	0.030448	-0.7081	0.0207
573.18	10050	0.030804	-0.7173	0.02
573.18	10050	0.030804	-0.7084	0.0164
573.18	10050	0.030804	-0.7081	0.0162
573.19	30070	0.029328	-0.5182	0.0151
573.19	30070	0.029328	-0.5176	0.0153
573.19	30070	0.029328	-0.5205	0.0142
573.19	30070	0.029556	-0.5213	0.0158
573.19	30070	0.029556	-0.5312	0.0112
573.19	30070	0.029556	-0.5254	0.0137
573.19	30070	0.030448	-0.54	0.0158
573.19	30070	0.030448	-0.5358	0.0137
573.19	30070	0.030448	-0.5358	0.0137
573.19	30070	0.030804	-0.5528	0.0179
573.19	30070	0.030804	-0.5538	0.0183
573.19	30070	0.030804	-0.5579	0.02
