Measured thermophysical data. (Liquid + liquid) equilibria for the ternary mixtures (alkane + toluene + ionic  liquid) at T = 298.15 K: Influence of the anion on the phase equilibria
Source: J. Chem. Thermodyn., 2012, 10.1016/j.jct.2011.11.027
Compound 1: cyclohexane, C6H12, InChI=1S/C6H12/c1-2-4-6-5-3-1/h1-6H2, purity 99.9%
Compound 2: heptane, C7H16, InChI=1S/C7H16/c1-3-5-7-6-4-2/h3-7H2,1-2H3, purity 99.5%
Compound 3: toluene, C7H8, InChI=1S/C7H8/c1-7-5-3-2-4-6-7/h2-6H,1H3, purity 99.9%
Compound 4: 1-butyl-1-methylpyrrolidinium bis[(trifluoromethyl)sulfonyl]imide, C11H20F6N2O4S2, InChI=1S/C9H20N.C2F6NO4S2/c1-3-4-7-10(2)8-5-6-9-10;3-1(4,5)14(10,11)9-15(12,13)2(6,7)8/h3-9H2,1-2H3;/q+1;-1, purity 99%
Compound 5: 1-butyl-1-methylpyrrolidinium trifluoromethanesulfonate, C10H20F3NO3S, InChI=1S/C9H20N.CHF3O3S/c1-3-4-7-10(2)8-5-6-9-10;2-1(3,4)8(5,6)7/h3-9H2,1-2H3;(H,5,6,7)/q+1;/p-1, purity 99%

System: 1-butyl-1-methylpyrrolidinium bis[(trifluoromethyl)sulfonyl]imide; phases: Liquid
Property: Refractive index (Na D-line) (Liquid); method: Standard Abbe refractometry
Temperature, K	Pressure, kPa	Refractive index (Na D-line)	uncertainty
298.15	101.325	1.42302	0.00042

System: 1-butyl-1-methylpyrrolidinium bis[(trifluoromethyl)sulfonyl]imide; phases: Liquid
Property: Mass density, kg/m3 (Liquid); method: Vibrating tube method
Temperature, K	Pressure, kPa	Mass density, kg/m3	uncertainty
298.15	101.325	1394.66	0.58

System: 1-butyl-1-methylpyrrolidinium trifluoromethanesulfonate; phases: Liquid
Property: Refractive index (Na D-line) (Liquid); method: Standard Abbe refractometry
Temperature, K	Pressure, kPa	Refractive index (Na D-line)	uncertainty
298.15	101.325	1.43287	0.00042

System: 1-butyl-1-methylpyrrolidinium trifluoromethanesulfonate; phases: Liquid
Property: Mass density, kg/m3 (Liquid); method: Vibrating tube method
Temperature, K	Pressure, kPa	Mass density, kg/m3	uncertainty
298.15	101.325	1252.71	0.45

System: cyclohexane + heptane; phases: Liquid
Fixed: Pressure, kPa = 101
Fixed: Temperature, K = 298.15
Property: Mass density, kg/m3 (Liquid); method: Vibrating tube method
Mass fraction of heptane	Mass density, kg/m3	uncertainty
0	773.88	0.13
0.0503	766.95	0.14
0.0991	760.53	0.14
0.2021	748.16	0.14
0.3118	735.69	0.15
0.3926	726.61	0.15
0.5039	717.21	0.16
0.666	703.79	0.16
0.7062	700.61	0.17
0.8061	692.71	0.17
0.9061	685.62	0.18
0.9539	682.6	0.18
1	679.57	0.18

System: toluene + heptane + 1-butyl-1-methylpyrrolidinium bis[(trifluoromethyl)sulfonyl]imide; phases: Liquid mixture 1, Liquid mixture 2
Fixed: Temperature, K = 298.15
Fixed: Pressure, kPa = 101
Property: Mole fraction of heptane (Liquid mixture 1); method: Density calibration data
Property: Mole fraction of heptane (Liquid mixture 2); method: Density calibration data
Property: Mole fraction of toluene (Liquid mixture 2); method: Density calibration data
Mole fraction of toluene	Mole fraction of heptane	uncertainty	Mole fraction of heptane	uncertainty	Mole fraction of toluene	uncertainty
0	1		0.064	0.002	0	
0.035	0.965	0.003	0.065	0.002	0.035	
0.094	0.906	0.003	0.062	0.002	0.101	
0.136	0.864	0.003	0.061	0.002	0.149	
0.189	0.811	0.003	0.059	0.002	0.194	
0.245	0.755	0.003	0.057	0.002	0.238	
0.291	0.709	0.003	0.056	0.002	0.273	
0.346	0.654	0.003	0.057	0.002	0.306	
0.399	0.601	0.003	0.052	0.002	0.352	
0.521	0.479	0.003	0.051	0.002	0.421	
0.649	0.351	0.003	0.043	0.002	0.49	
0.768	0.232	0.003	0.042	0.002	0.556	
1	0		0		0.734	

System: toluene + cyclohexane + 1-butyl-1-methylpyrrolidinium bis[(trifluoromethyl)sulfonyl]imide; phases: Liquid mixture 1, Liquid mixture 2
Fixed: Temperature, K = 298.15
Fixed: Pressure, kPa = 101
Property: Mole fraction of cyclohexane (Liquid mixture 1); method: Density calibration data
Property: Mole fraction of cyclohexane (Liquid mixture 2); method: Density calibration data
Property: Mole fraction of toluene (Liquid mixture 2); method: Density calibration data
Mole fraction of toluene	Mole fraction of cyclohexane	uncertainty	Mole fraction of cyclohexane	uncertainty	Mole fraction of toluene	uncertainty
0	1		0.294	0.002	0	
0.055	0.945	0.003	0.251	0.003	0.048	
0.121	0.879	0.003	0.214	0.002	0.107	
0.186	0.814	0.003	0.186	0.002	0.168	
0.242	0.758	0.003	0.162	0.002	0.238	
0.303	0.697	0.003	0.147	0.002	0.289	
0.357	0.643	0.003	0.136	0.002	0.328	
0.416	0.584	0.003	0.125	0.002	0.367	
0.557	0.443	0.003	0.097	0.002	0.471	
0.673	0.327	0.003	0.079	0.002	0.529	
0.839	0.161	0.003	0.044	0.002	0.631	
1	0		0		0.734	

System: cyclohexane + heptane + 1-butyl-1-methylpyrrolidinium bis[(trifluoromethyl)sulfonyl]imide; phases: Liquid mixture 1, Liquid mixture 2
Fixed: Temperature, K = 298.15
Fixed: Pressure, kPa = 100
Property: Mole fraction of heptane (Liquid mixture 1); method: Density calibration data
Property: Mole fraction of heptane (Liquid mixture 2); method: Density calibration data
Property: Mole fraction of cyclohexane (Liquid mixture 2); method: Density calibration data
Mole fraction of cyclohexane	Mole fraction of heptane	uncertainty	Mole fraction of heptane	uncertainty	Mole fraction of cyclohexane	uncertainty
0	1		0.064	0.002	0	
0.08	0.92	0.003	0.058	0.002	0.018	
0.153	0.847	0.003	0.051	0.002	0.034	
0.206	0.794	0.003	0.049	0.002	0.046	
0.29	0.71	0.003	0.044	0.002	0.068	
0.376	0.624	0.003	0.038	0.002	0.088	
0.484	0.516	0.003	0.034	0.002	0.111	
0.602	0.398	0.003	0.031	0.002	0.134	
1	0		0		0.294	

System: toluene + heptane + 1-butyl-1-methylpyrrolidinium trifluoromethanesulfonate; phases: Liquid mixture 1, Liquid mixture 2
Fixed: Temperature, K = 298.15
Fixed: Pressure, kPa = 100
Property: Mole fraction of heptane (Liquid mixture 1); method: Density calibration data
Property: Mole fraction of heptane (Liquid mixture 2); method: Density calibration data
Property: Mole fraction of toluene (Liquid mixture 2); method: Density calibration data
Mole fraction of toluene	Mole fraction of heptane	uncertainty	Mole fraction of heptane	uncertainty	Mole fraction of toluene	uncertainty
0	1		0.032	0.002	0	
0.075	0.925	0.003	0.031	0.002	0.067	
0.163	0.837	0.003	0.028	0.002	0.131	
0.249	0.751	0.003	0.027	0.002	0.184	
0.34	0.66	0.003	0.024	0.002	0.236	
0.44	0.56	0.003	0.023	0.002	0.291	
0.544	0.456	0.003	0.023	0.002	0.339	
0.647	0.353	0.003	0.023	0.002	0.382	
0.797	0.203	0.003	0.022	0.002	0.483	
1	0		0		0.52	

System: toluene + cyclohexane + 1-butyl-1-methylpyrrolidinium trifluoromethanesulfonate; phases: Liquid mixture 1, Liquid mixture 2
Fixed: Temperature, K = 298.15
Fixed: Pressure, kPa = 100
Property: Mole fraction of cyclohexane (Liquid mixture 1); method: Density calibration data
Property: Mole fraction of cyclohexane (Liquid mixture 2); method: Density calibration data
Property: Mole fraction of toluene (Liquid mixture 2); method: Density calibration data
Mole fraction of toluene	Mole fraction of cyclohexane	uncertainty	Mole fraction of cyclohexane	uncertainty	Mole fraction of toluene	uncertainty
0	1		0.075	0.002	0	
0.081	0.919	0.003	0.081	0.002	0.065	
0.168	0.832	0.003	0.08	0.002	0.131	
0.259	0.741	0.003	0.078	0.002	0.182	
0.353	0.647	0.003	0.074	0.002	0.243	
0.455	0.545	0.003	0.068	0.002	0.285	
0.564	0.436	0.003	0.059	0.002	0.339	
0.669	0.331	0.003	0.049	0.002	0.393	
0.816	0.184	0.003	0.031	0.002	0.475	
1	0		0		0.52	

System: cyclohexane + heptane + 1-butyl-1-methylpyrrolidinium trifluoromethanesulfonate; phases: Liquid mixture 1, Liquid mixture 2
Fixed: Temperature, K = 298.15
Fixed: Pressure, kPa = 100
Property: Mole fraction of heptane (Liquid mixture 1); method: Density calibration data
Property: Mole fraction of heptane (Liquid mixture 2); method: Density calibration data
Property: Mole fraction of cyclohexane (Liquid mixture 2); method: Density calibration data
Mole fraction of cyclohexane	Mole fraction of heptane	uncertainty	Mole fraction of heptane	uncertainty	Mole fraction of cyclohexane	uncertainty
0	1		0.032	0.002	0	
0.092	0.908	0.003	0.023	0.002	0.029	
0.193	0.807	0.003	0.02	0.002	0.039	
0.297	0.703	0.003	0.017	0.002	0.048	
0.393	0.607	0.003	0.016	0.002	0.052	
0.503	0.497	0.003	0.015	0.002	0.054	
0.609	0.391	0.003	0.015	0.002	0.057	
0.71	0.29	0.003	0.014	0.002	0.057	
0.813	0.187	0.003	0.013	0.002	0.06	
1	0		0		0.075	
