Measured thermophysical data. Physical and excess properties of a room temperature ionic liquid (1-methyl-3-octylimidazolium tetrafluoroborate) with n-alkoxyethanols (C1Em, m = 1 to 3) at T = (298.15 to 318.15) K
Source: J. Chem. Thermodyn., 2008, 10.1016/j.jct.2007.09.011
Compound 1: 1-methyl-3-octylimidazolium tetrafluoroborate, C12H23BF4N2, InChI=1S/C12H23N2.BF4/c1-3-4-5-6-7-8-9-14-11-10-13(2)12-14;2-1(3,4)5/h10-12H,3-9H2,1-2H3;/q+1;-1, purity 98%
Compound 2: 2-methoxyethan-1-ol, C3H8O2, InChI=1S/C3H8O2/c1-5-3-2-4/h4H,2-3H2,1H3, purity 99.5%
Compound 3: 2-(2-methoxyethoxy)ethanol, C5H12O3, InChI=1S/C5H12O3/c1-7-4-5-8-3-2-6/h6H,2-5H2,1H3, purity 98%
Compound 4: 2-[2-(2-methoxyethoxy)ethoxy]ethanol, C7H16O4, InChI=1S/C7H16O4/c1-9-4-5-11-7-6-10-3-2-8/h8H,2-7H2,1H3, purity 98%

System: 1-methyl-3-octylimidazolium tetrafluoroborate; phases: Liquid
Property: Refractive index (Na D-line) (Liquid); method: ABBE::UFactor:4
Temperature, K	Pressure, kPa	Refractive index (Na D-line)	uncertainty
298.15	101.325	1.4319	0.0014

System: 1-methyl-3-octylimidazolium tetrafluoroborate; phases: Liquid
Fixed: Pressure, kPa = 101
Property: Mass density, kg/m3 (Liquid); method: VIBTUB:UFactor:32
Temperature, K	Mass density, kg/m3	uncertainty
298.15	1101.08	3.23
308.15	1094.13	3.14
318.15	1087.24	3.04

System: 2-methoxyethan-1-ol; phases: Liquid
Property: Refractive index (Na D-line) (Liquid); method: ABBE::UFactor:4
Temperature, K	Pressure, kPa	Refractive index (Na D-line)	uncertainty
298.15	101.325	1.4004	0.0014

System: 2-methoxyethan-1-ol; phases: Liquid
Fixed: Pressure, kPa = 101
Property: Mass density, kg/m3 (Liquid); method: VIBTUB:UFactor:32
Temperature, K	Mass density, kg/m3	uncertainty
298.15	960.05	1.54
308.15	950.81	1.65
318.15	941.45	1.77

System: 2-(2-methoxyethoxy)ethanol; phases: Liquid
Property: Refractive index (Na D-line) (Liquid); method: ABBE::UFactor:4
Temperature, K	Pressure, kPa	Refractive index (Na D-line)	uncertainty
298.15	101.325	1.4242	0.0014

System: 2-(2-methoxyethoxy)ethanol; phases: Liquid
Fixed: Pressure, kPa = 101
Property: Mass density, kg/m3 (Liquid); method: VIBTUB:UFactor:32
Temperature, K	Mass density, kg/m3	uncertainty
298.15	1014.87	2.01
308.15	1005.99	1.88

System: 2-[2-(2-methoxyethoxy)ethoxy]ethanol; phases: Liquid
Property: Refractive index (Na D-line) (Liquid); method: ABBE::UFactor:4
Temperature, K	Pressure, kPa	Refractive index (Na D-line)	uncertainty
298.15	101.325	1.4362	0.0014

System: 2-[2-(2-methoxyethoxy)ethoxy]ethanol; phases: Liquid
Fixed: Pressure, kPa = 101
Property: Mass density, kg/m3 (Liquid); method: VIBTUB::UFactor:32
Temperature, K	Mass density, kg/m3	uncertainty
298.15	1044.91	2.43
308.15	1036.11	2.31
318.15	1027.28	2.18

System: 2-methoxyethan-1-ol + 1-methyl-3-octylimidazolium tetrafluoroborate; phases: Liquid
Fixed: Pressure, kPa = 101
Fixed: Temperature, K = 298.15
Property: Refractive index (Na D-line) (Liquid); method: ABBE:UFactor:4
Mole fraction of 1-methyl-3-octylimidazolium tetrafluoroborate	Refractive index (Na D-line)	uncertainty
0	1.4004	0.0014
0.0106	1.4015	0.0014
0.0477	1.4057	0.0014
0.1083	1.4108	0.0014
0.1495	1.4134	0.0014
0.2062	1.4163	0.0014
0.2827	1.4193	0.0014
0.3204	1.4208	0.0014
0.542	1.4258	0.0014
0.7354	1.4285	0.0014
0.9632	1.4312	0.0014
0.9929	1.4318	0.0014
1	1.4319	0.0014

System: 2-methoxyethan-1-ol + 1-methyl-3-octylimidazolium tetrafluoroborate; phases: Liquid
Fixed: Pressure, kPa = 101
Property: Mass density, kg/m3 (Liquid); method: VIBTUB:UFactor:32
Temperature, K	Mole fraction of 1-methyl-3-octylimidazolium tetrafluoroborate	Mass density, kg/m3	uncertainty
298.15	0	960.05	1.54
298.15	0.0106	965.72	1.47
298.15	0.0477	983.08	1.27
298.15	0.1083	1004.86	1.14
298.15	0.1495	1016.31	1.3
298.15	0.2062	1029.2	1.49
298.15	0.2827	1042.98	1.71
298.15	0.3204	1048.69	1.81
298.15	0.542	1073.51	2.31
298.15	0.7354	1087.07	2.69
298.15	0.9632	1098.9	3.15
298.15	0.9929	1098.25	3.18
298.15	1	1101.08	3.23
308.15	0	950.81	1.65
308.15	0.0106	956.59	1.59
308.15	0.0477	974.21	1.38
308.15	0.1083	996.43	1.12
308.15	0.1495	1007.97	1.2
308.15	0.2062	1021.09	1.39
308.15	0.2827	1035.09	1.61
308.15	0.3204	1041.05	1.71
308.15	0.542	1066.16	2.21
308.15	0.7354	1079.83	2.59
308.15	0.9632	1092.03	3.05
308.15	0.9929	1091.42	3.09
308.15	1	1094.13	3.14
318.15	0	941.45	1.77
318.15	0.0106	947.31	1.7
318.15	0.0477	965.56	1.49
318.15	0.1083	987.84	1.23
318.15	0.1495	999.62	1.1
318.15	0.2062	1012.99	1.29
318.15	0.2827	1027.25	1.51
318.15	0.3204	1033.14	1.61
318.15	0.542	1058.83	2.11
318.15	0.7354	1072.61	2.49
318.15	0.9632	1085.14	2.95
318.15	0.9929	1084.47	2.99
318.15	1	1087.24	3.04

System: 2-(2-methoxyethoxy)ethanol + 1-methyl-3-octylimidazolium tetrafluoroborate; phases: Liquid
Fixed: Pressure, kPa = 101
Fixed: Temperature, K = 298.15
Property: Refractive index (Na D-line) (Liquid); method: ABBE:UFactor:4
Mole fraction of 1-methyl-3-octylimidazolium tetrafluoroborate	Refractive index (Na D-line)	uncertainty
0	1.4242	0.0014
0.0088	1.4227	0.0014
0.0165	1.4251	0.0014
0.0745	1.4271	0.0014
0.1611	1.4288	0.0014
0.2555	1.4298	0.0014
0.3459	1.4304	0.0014
0.4603	1.4308	0.0014
0.6468	1.4312	0.0014
0.8198	1.4314	0.0014
0.9227	1.4317	0.0014
0.9912	1.4318	0.0014
1	1.4319	0.0014

System: 2-(2-methoxyethoxy)ethanol + 1-methyl-3-octylimidazolium tetrafluoroborate; phases: Liquid
Fixed: Pressure, kPa = 101
Property: Mass density, kg/m3 (Liquid); method: VIBTUB:UFactor:32
Temperature, K	Mole fraction of 1-methyl-3-octylimidazolium tetrafluoroborate	Mass density, kg/m3	uncertainty
298.15	0	1014.87	2.01
298.15	0.0088	1017.27	2.04
298.15	0.0165	1019.28	2.07
298.15	0.0745	1032.37	2.26
298.15	0.1611	1046.73	2.46
298.15	0.2555	1058.05	2.62
298.15	0.3459	1066.48	2.74
298.15	0.4603	1075.27	2.87
298.15	0.6468	1086.77	3.03
298.15	0.8198	1094.83	3.15
298.15	0.9227	1098.58	3.2
298.15	0.9912	1100.8	3.23
308.15	0	1005.99	1.88
308.15	0.0088	1008.44	1.92
308.15	0.0165	1010.49	1.95
308.15	0.0745	1023.86	2.14
308.15	0.1611	1038.56	2.34
308.15	0.2555	1050.15	2.51
308.15	0.3459	1058.76	2.63
308.15	0.4603	1067.73	2.76
308.15	0.6468	1079.5	2.93
308.15	0.8198	1087.77	3.04
308.15	0.9227	1091.61	3.1
308.15	0.9912	1093.85	3.13
318.15	0.0088	999.55	1.8
318.15	0.0165	1001.65	1.82
318.15	0.0745	1015.33	2.02
318.15	0.1611	1030.36	2.23
318.15	0.2555	1042.23	2.4
318.15	0.3459	1051.05	2.52
318.15	0.4603	1060.25	2.65
318.15	0.6468	1072.31	2.82
318.15	0.8198	1080.74	2.94
318.15	0.9227	1084.65	3
318.15	0.9912	1086.95	3.03

System: 2-[2-(2-methoxyethoxy)ethoxy]ethanol + 1-methyl-3-octylimidazolium tetrafluoroborate; phases: Liquid
Fixed: Pressure, kPa = 101
Fixed: Temperature, K = 298.15
Property: Refractive index (Na D-line) (Liquid); method: ABBE:UFactor:4
Mole fraction of 1-methyl-3-octylimidazolium tetrafluoroborate	Refractive index (Na D-line)	uncertainty
0	1.4362	0.0014
0.0122	1.4364	0.0014
0.0223	1.4366	0.0014
0.0994	1.4372	0.0014
0.2073	1.4373	0.0014
0.3192	1.4369	0.0014
0.42	1.4361	0.0014
0.5301	1.4352	0.0014
0.7153	1.4334	0.0014
0.8449	1.4325	0.0014
0.9395	1.4321	0.0014
0.992	1.432	0.0014
1	1.4319	0.0014

System: 2-[2-(2-methoxyethoxy)ethoxy]ethanol + 1-methyl-3-octylimidazolium tetrafluoroborate; phases: Liquid
Fixed: Pressure, kPa = 101
Property: Mass density, kg/m3 (Liquid); method: VIBTUB:UFactor:32
Temperature, K	Mole fraction of 1-methyl-3-octylimidazolium tetrafluoroborate	Mass density, kg/m3	uncertainty
298.15	0	1044.91	2.43
298.15	0.0122	1046.7	2.46
298.15	0.0223	1048.13	2.48
298.15	0.0994	1057.7	2.62
298.15	0.2073	1067.89	2.76
298.15	0.3192	1075.71	2.87
298.15	0.42	1081.2	2.95
298.15	0.5301	1086.14	3.02
298.15	0.7153	1093.01	3.12
298.15	0.8449	1097.08	3.18
298.15	0.9395	1099.66	3.21
298.15	0.992	1100.9	3.23
298.15	1	1101.08	3.23
308.15	0	1036.11	2.31
308.15	0.0122	1037.94	2.34
308.15	0.0223	1039.41	2.36
308.15	0.0994	1049.21	2.5
308.15	0.2073	1059.71	2.65
308.15	0.3192	1067.81	2.76
308.15	0.42	1073.51	2.84
308.15	0.5301	1078.64	2.91
308.15	0.7153	1085.74	3.02
308.15	0.8449	1089.95	3.08
308.15	0.9395	1092.63	3.11
308.15	0.992	1093.94	3.13
308.15	1	1094.13	3.14
318.15	0	1027.28	2.18
318.15	0.0122	1029.17	2.21
318.15	0.0223	1030.69	2.23
318.15	0.0994	1040.84	2.38
318.15	0.2073	1051.67	2.53
318.15	0.3192	1060	2.65
318.15	0.42	1065.88	2.73
318.15	0.5301	1071.18	2.81
318.15	0.7153	1078.58	2.91
318.15	0.8449	1082.96	2.98
318.15	0.9395	1085.72	3.02
318.15	0.992	1087.05	3.03
318.15	1	1087.24	3.04
