Measured thermophysical data. Excess molar volumes and isentropic compressibility of binary systems  {trioctylmethylammonium bis(trifluoromethysulfonyl)imide + methanol  or ethanol or 1-propanol} at different temperatures
Source: J. Chem. Thermodyn., 2008, 10.1016/j.jct.2008.03.007
Compound 1: methyltrioctylammonium 1,1,1-trifluoro-N-[(trifluoromethyl)sulfonyl]methanesulfonamide, C27H54F6N2O4S2, InChI=1S/C25H54N.C2F6NO4S2/c1-5-8-11-14-17-20-23-26(4,24-21-18-15-12-9-6-2)25-22-19-16-13-10-7-3;3-1(4,5)14(10,11)9-15(12,13)2(6,7)8/h5-25H2,1-4H3;/q+1;-1, purity 98%
Compound 2: methanol, CH4O, InChI=1S/CH4O/c1-2/h2H,1H3, purity 99.8%
Compound 3: ethanol, C2H6O, InChI=1S/C2H6O/c1-2-3/h3H,2H2,1H3, purity 99.8%
Compound 4: propan-1-ol, C3H8O, InChI=1S/C3H8O/c1-2-3-4/h4H,2-3H2,1H3, purity 99.5%

System: methyltrioctylammonium 1,1,1-trifluoro-N-[(trifluoromethyl)sulfonyl]methanesulfonamide; phases: Liquid
Fixed: Pressure, kPa = 101.325
Property: Mass density, kg/m3 (Liquid); method: Vibrating tube method
Temperature, K	Mass density, kg/m3	uncertainty
298.15	1109.3	6.1
303.15	1105.1	6.1
313.15	1098.3	6.1

System: methanol; phases: Liquid
Fixed: Pressure, kPa = 101.325
Property: Mass density, kg/m3 (Liquid); method: Vibrating tube method
Temperature, K	Mass density, kg/m3	uncertainty
298.15	786	6
303.15	783.4	6
313.15	774.6	6

System: ethanol; phases: Liquid
Fixed: Pressure, kPa = 101.325
Property: Mass density, kg/m3 (Liquid); method: Vibrating tube method
Temperature, K	Mass density, kg/m3	uncertainty
298.15	785.5	6
303.15	782	6
313.15	773.7	6

System: propan-1-ol; phases: Liquid
Fixed: Pressure, kPa = 101.325
Property: Mass density, kg/m3 (Liquid); method: Vibrating tube method
Temperature, K	Mass density, kg/m3	uncertainty
298.15	799.4	6
303.15	796.4	6
313.15	788.6	6

System: methanol + methyltrioctylammonium 1,1,1-trifluoro-N-[(trifluoromethyl)sulfonyl]methanesulfonamide; phases: Liquid
Fixed: Pressure, kPa = 101
Property: Mass density, kg/m3 (Liquid); method: Vibrating tube method
Temperature, K	Mole fraction of methyltrioctylammonium 1,1,1-trifluoro-N-[(trifluoromethyl)sulfonyl]methanesulfonamide	Mass density, kg/m3	uncertainty
298.15	0.9345	1108	6
298.15	0.8522	1106	6
298.15	0.7084	1100	6
298.15	0.6529	1097	6
298.15	0.5362	1089	6
298.15	0.4172	1077	6
298.15	0.35	1068	6
298.15	0.2125	1037	6
298.15	0.1291	999	6
298.15	0.0781	958	6
303.15	0.9345	1104	6
303.15	0.8522	1102	6
303.15	0.7084	1095	6
303.15	0.6529	1092	6
303.15	0.5362	1083	6
303.15	0.4172	1071	6
303.15	0.35	1062	6
303.15	0.2125	1031	6
303.15	0.1291	994	6
303.15	0.0781	954	6
313.15	0.9345	1097	6
313.15	0.8522	1095	6
313.15	0.7084	1088	6
313.15	0.6529	1085	6
313.15	0.5362	1076	6
313.15	0.4172	1064	6
313.15	0.35	1055	6
313.15	0.2125	1022	6
313.15	0.1291	982	6
313.15	0.0781	940	6

System: methanol + methyltrioctylammonium 1,1,1-trifluoro-N-[(trifluoromethyl)sulfonyl]methanesulfonamide; phases: Liquid
Fixed: Pressure, kPa = 101
Fixed: Temperature, K = 298.15
Property: Speed of sound, m/s (Liquid); method: LVPAI:UFactor:4
Mole fraction of methyltrioctylammonium 1,1,1-trifluoro-N-[(trifluoromethyl)sulfonyl]methanesulfonamide	Speed of sound, m/s	uncertainty
0.0336	1097.8	6.4
0.1291	1085.4	6.4
0.2125	1074.5	6.3
0.4172	1047.9	6.3
0.5362	1032.4	6.2
0.6611	1016.1	6.2
0.7084	1010	6.2
0.8522	991.2	6.2

System: ethanol + methyltrioctylammonium 1,1,1-trifluoro-N-[(trifluoromethyl)sulfonyl]methanesulfonamide; phases: Liquid
Fixed: Pressure, kPa = 101
Property: Mass density, kg/m3 (Liquid); method: Vibrating tube method
Temperature, K	Mole fraction of methyltrioctylammonium 1,1,1-trifluoro-N-[(trifluoromethyl)sulfonyl]methanesulfonamide	Mass density, kg/m3	uncertainty
298.15	0.9393	1107	6
298.15	0.7774	1099	6
298.15	0.7338	1097	6
298.15	0.6307	1090	6
298.15	0.5145	1080	6
298.15	0.4286	1070	6
298.15	0.3353	1055	6
298.15	0.2728	1041	6
298.15	0.1731	1005	6
298.15	0.0484	896	6
303.15	0.9493	1103	6
303.15	0.7774	1092	6
303.15	0.7338	1090	6
303.15	0.6307	1082	6
303.15	0.5145	1072	6
303.15	0.4286	1063	6
303.15	0.3353	1050	6
303.15	0.2728	1036	6
303.15	0.1731	1003	6
303.15	0.0484	896	6
313.15	0.9493	1096	6
313.15	0.7774	1087	6
313.15	0.7338	1085	6
313.15	0.6307	1078	6
313.15	0.5145	1068	6
313.15	0.4286	1058	6
313.15	0.3353	1044	6
313.15	0.2728	1029	6
313.15	0.1731	994	6
313.15	0.0484	883	6

System: ethanol + methyltrioctylammonium 1,1,1-trifluoro-N-[(trifluoromethyl)sulfonyl]methanesulfonamide; phases: Liquid
Fixed: Pressure, kPa = 101
Fixed: Temperature, K = 298.15
Property: Speed of sound, m/s (Liquid); method: LVPAI:UFactor:4
Mole fraction of methyltrioctylammonium 1,1,1-trifluoro-N-[(trifluoromethyl)sulfonyl]methanesulfonamide	Speed of sound, m/s	uncertainty
0.1731	1116.1	6.5
0.2728	1098.8	6.4
0.3353	1087.9	6.4
0.4286	1071.6	6.4
0.5145	1056.6	6.3
0.6307	1036.4	6.3
0.7338	1018.4	6.3
0.7774	1010.8	6.3
0.9493	980.8	6.2

System: propan-1-ol + methyltrioctylammonium 1,1,1-trifluoro-N-[(trifluoromethyl)sulfonyl]methanesulfonamide; phases: Liquid
Fixed: Pressure, kPa = 101
Property: Mass density, kg/m3 (Liquid); method: Vibrating tube method
Temperature, K	Mole fraction of methyltrioctylammonium 1,1,1-trifluoro-N-[(trifluoromethyl)sulfonyl]methanesulfonamide	Mass density, kg/m3	uncertainty
298.15	0.9533	1107	6
298.15	0.8439	1102	6
298.15	0.7833	1098	6
298.15	0.6882	1091	6
298.15	0.524	1076	6
298.15	0.4033	1059	6
298.15	0.3303	1045	6
298.15	0.2152	1011	6
298.15	0.1146	956	6
298.15	0.0736	919	6
303.15	0.9533	1103	6
303.15	0.8439	1097	6
303.15	0.7833	1094	6
303.15	0.6882	1087	6
303.15	0.524	1072	6
303.15	0.4033	1055	6
303.15	0.3303	1041	6
303.15	0.2152	1006	6
303.15	0.1146	952	6
303.15	0.0736	915	6
313.15	0.9533	1096	6
313.15	0.8439	1090	6
313.15	0.7833	1087	6
313.15	0.6882	1080	6
313.15	0.524	1064	6
313.15	0.4033	1047	6
313.15	0.3303	1033	6
313.15	0.2152	999	6
313.15	0.1146	944	6
313.15	0.0736	907	6

System: propan-1-ol + methyltrioctylammonium 1,1,1-trifluoro-N-[(trifluoromethyl)sulfonyl]methanesulfonamide; phases: Liquid
Fixed: Pressure, kPa = 101
Fixed: Temperature, K = 298.15
Property: Speed of sound, m/s (Liquid); method: LVPAI:UFactor:4
Mole fraction of methyltrioctylammonium 1,1,1-trifluoro-N-[(trifluoromethyl)sulfonyl]methanesulfonamide	Speed of sound, m/s	uncertainty
0.0736	1187.7	6.8
0.1146	1178.1	6.7
0.2152	1154.7	6.7
0.3303	1127.9	6.6
0.4033	1110.9	6.5
0.524	1082.8	6.5
0.6682	1049.2	6.4
0.7833	1022.4	6.3
0.8439	1008.3	6.3
0.9533	982.9	6.2
