Measured thermophysical data. Vapour-liquid equilibria, enthalpy of vaporisation, and excess Gibbs energies of binary mixtures of {3,3-diamino-N-methyldipropylamine (DNM) (or N,N,N',N'',N''-pentamethyldiethylenetriamine (PMDETA)) + water}
Source: J. Chem. Thermodyn., 2019, 10.1016/j.jct.2018.08.025
Compound 1: N-(3-aminopropyl)-N-methyl-1,3-propanediamine, C7H19N3, InChI=1S/C7H19N3/c1-10(6-2-4-8)7-3-5-9/h2-9H2,1H3, purity 96%
Compound 2: N,N,N',N'',N''-pentamethyldiethylenetriamine, C9H23N3, InChI=1S/C9H23N3/c1-10(2)6-8-12(5)9-7-11(3)4/h6-9H2,1-5H3, purity 99%
Compound 3: water, H2O, InChI=1S/H2O/h1H2, purity 99.9%

System: N-(3-aminopropyl)-N-methyl-1,3-propanediamine; phases: Liquid, Gas
Property: Vapor or sublimation pressure, kPa (Liquid); method: Closed cell (Static) method
Temperature, K	Vapor or sublimation pressure, kPa	uncertainty
293.22	0.004	0.001
303.24	0.009	0.001
313.26	0.021	0.001
313.26	0.021	0.001
323.26	0.044	0.003
323.36	0.044	0.003
333.37	0.089	0.006
333.37	0.089	0.006
343.43	0.175	0.011
353.36	0.321	0.02
363.42	0.565	0.034
372.25	0.89	0.036
382.26	1.489	0.06
382.26	1.493	0.061
382.26	1.489	0.06
382.26	1.493	0.061
382.28	1.496	0.061
392.34	2.407	0.097
392.36	2.411	0.097
392.36	2.416	0.097
402.29	3.757	0.151
402.29	3.764	0.151
402.32	3.773	0.152
412.29	5.785	0.232
412.29	5.799	0.233
412.32	5.81	0.233
422.17	8.668	0.348
432.1	12.735	0.511
441.9	18.096	0.725
451.9	24.924	0.999

System: N,N,N',N'',N''-pentamethyldiethylenetriamine; phases: Liquid, Gas
Property: Vapor or sublimation pressure, kPa (Liquid); method: Closed cell (Static) method
Temperature, K	Vapor or sublimation pressure, kPa	uncertainty
292.98	0.028	0.002
292.98	0.028	0.002
303.05	0.061	0.004
303.05	0.06	0.004
312.88	0.123	0.008
323.03	0.238	0.015
323.03	0.239	0.015
323.03	0.239	0.015
333.14	0.443	0.027
343.19	0.785	0.032
353.06	1.335	0.054
353.07	1.336	0.054
362.82	2.169	0.088
362.92	2.176	0.088
362.95	2.184	0.088

System: N-(3-aminopropyl)-N-methyl-1,3-propanediamine + water; phases: Liquid, Gas
Property: Vapor or sublimation pressure, kPa (Liquid); method: Closed cell (Static) method
Temperature, K	Mole fraction of N-(3-aminopropyl)-N-methyl-1,3-propanediamine	Vapor or sublimation pressure, kPa	uncertainty
283.15	0.1299	0.782	0.036
283.15	0.2697	0.393	0.026
283.15	0.39	0.246	0.016
283.15	0.4932	0.182	0.012
283.15	0.6298	0.119	0.008
283.15	0.7596	0.077	0.006
283.15	0.8888	0.037	0.003
293.15	0.1299	1.552	0.07
293.15	0.2697	0.822	0.039
293.15	0.39	0.533	0.034
293.15	0.4932	0.398	0.025
293.15	0.6298	0.263	0.017
293.15	0.7596	0.171	0.011
293.15	0.8888	0.082	0.006
303.15	0.1299	2.917	0.128
303.15	0.2697	1.623	0.073
303.15	0.39	1.083	0.049
303.15	0.4932	0.818	0.037
303.15	0.6298	0.545	0.035
303.15	0.7596	0.356	0.023
303.15	0.8888	0.17	0.012
313.15	0.1299	5.226	0.225
313.15	0.2697	3.041	0.133
313.15	0.39	2.08	0.09
313.15	0.4932	1.589	0.069
313.15	0.6298	1.069	0.048
313.15	0.7596	0.702	0.033
313.15	0.8888	0.334	0.023
323.15	0.1299	8.973	0.381
323.15	0.2697	5.44	0.234
323.15	0.39	3.801	0.161
323.15	0.4932	2.938	0.124
323.15	0.6298	1.995	0.086
323.15	0.7596	1.318	0.06
323.15	0.8888	0.63	0.033
333.15	0.1299	14.83	0.62
333.15	0.2697	9.337	0.397
333.15	0.39	6.647	0.278
333.15	0.4932	5.196	0.217
333.15	0.6298	3.564	0.151
333.15	0.7596	2.367	0.104
333.15	0.8888	1.139	0.06
343.15	0.1299	23.68	0.99
343.15	0.2697	15.44	0.65
343.15	0.39	11.18	0.47
343.15	0.4932	8.83	0.366
343.15	0.6298	6.119	0.257
343.15	0.7596	4.084	0.178
343.15	0.8888	1.986	0.101
353.15	0.1299	36.65	1.52
353.15	0.2697	24.7	1.03
353.15	0.39	18.14	0.75
353.15	0.4932	14.48	0.6
353.15	0.6298	10.14	0.42
353.15	0.7596	6.8	0.294
353.15	0.8888	3.35	0.168
363.15	0.1299	55.19	2.27
363.15	0.2697	38.32	1.59
363.15	0.39	28.52	1.18
363.15	0.4932	22.99	0.95
363.15	0.6298	16.26	0.68
363.15	0.7596	10.95	0.47
363.15	0.8888	5.479	0.279

System: N,N,N',N'',N''-pentamethyldiethylenetriamine + water; phases: Liquid, Gas
Property: Vapor or sublimation pressure, kPa (Liquid); method: Closed cell (Static) method
Temperature, K	Mole fraction of N,N,N',N'',N''-pentamethyldiethylenetriamine	Vapor or sublimation pressure, kPa	uncertainty
283.15	0.133	0.868	0.038
283.15	0.3016	0.675	0.03
283.15	0.412	0.579	0.036
283.15	0.5328	0.531	0.033
283.15	0.6713	0.467	0.029
283.15	0.7685	0.414	0.026
283.15	0.8999	0.244	0.016
293.15	0.133	1.748	0.074
293.15	0.3016	1.402	0.06
293.15	0.412	1.214	0.053
293.15	0.5328	1.121	0.048
293.15	0.6713	0.985	0.043
293.15	0.7685	0.854	0.038
293.15	0.8999	0.503	0.033
303.15	0.133	3.325	0.137
303.15	0.3016	2.744	0.113
303.15	0.412	2.397	0.099
303.15	0.5328	2.225	0.092
303.15	0.6713	1.95	0.081
303.15	0.7685	1.658	0.071
303.15	0.8999	0.974	0.046
313.15	0.133	6.013	0.246
313.15	0.3016	5.093	0.207
313.15	0.412	4.486	0.183
313.15	0.5328	4.18	0.17
313.15	0.6713	3.656	0.15
313.15	0.7685	3.053	0.129
313.15	0.8999	1.781	0.081
323.15	0.133	10.4	0.42
323.15	0.3016	9.025	0.365
323.15	0.412	8.008	0.324
323.15	0.5328	7.485	0.303
323.15	0.6713	6.527	0.266
323.15	0.7685	5.363	0.226
323.15	0.8999	3.103	0.141
333.15	0.133	17.29	0.7
333.15	0.3016	15.34	0.62
333.15	0.412	13.71	0.55
333.15	0.5328	12.84	0.52
333.15	0.6713	11.16	0.45
333.15	0.7685	9.035	0.38
333.15	0.8999	5.178	0.235
343.15	0.133	27.73	1.12
343.15	0.3016	25.12	1.01
343.15	0.412	22.6	0.91
343.15	0.5328	21.2	0.86
343.15	0.6713	18.36	0.75
343.15	0.7685	14.66	0.62
343.15	0.8999	8.315	0.38
353.15	0.133	43.08	1.74
353.15	0.3016	39.79	1.6
353.15	0.412	36.01	1.45
353.15	0.5328	33.81	1.36
353.15	0.6713	29.19	1.19
353.15	0.7685	23.01	0.97
353.15	0.8999	12.9	0.59
363.15	0.133	65.02	2.61
363.15	0.3016	61.15	2.46
363.15	0.412	55.65	2.24
363.15	0.5328	52.28	2.11
363.15	0.6713	44.97	1.83
363.15	0.7685	35.05	1.48
363.15	0.8999	19.42	0.91
