Measured thermophysical data. Thermodynamic investigations of Bi Ni system - Part I
Source: J. Chem. Thermodyn., 2013, 10.1016/j.jct.2012.09.024
Compound 1: bismuth, compd. with nickel(3:1), Bi3Ni, purity 97%
Compound 2: bismuth, compd. with nickel(1:1), BiNi, purity 97%

System: bismuth, compd. with nickel(3:1); phases: Crystal
Fixed: Pressure, kPa = 101.325
Property: Molar enthalpy, kJ/mol (Crystal); method: Drop calorimetry
Temperature, K	Molar enthalpy, kJ/mol	uncertainty
343.15	1.268	0.057
363.15	1.705	0.077
393.15	2.669	0.121
423.15	3.341	0.151
439.15	3.893	0.176
454.15	4.163	0.188
464.15	4.782	0.217
473.15	4.823	0.218
503.15	5.565	0.252
533.15	6.642	0.301
555.15	7.135	0.323
575.15	8.154	0.369
585.15	8.551	0.387
596.15	8.779	0.397
606.15	8.958	0.406
616.15	9.189	0.416
625.15	9.857	0.446
637.15	9.95	0.451
656.15	10.558	0.478
657.15	10.804	0.489
677.15	11.549	0.523
686.15	12.02	0.544
708.15	12.395	0.561
718.15	12.527	0.567
728.15	12.921	0.585
733.15	13.31	0.603
738.15	13.396	0.607
741.15	13.638	0.617

System: bismuth, compd. with nickel(1:1); phases: Crystal
Property: Molar heat capacity at constant pressure, J/K/mol (Crystal); method: Drop calorimetry
Temperature, K	Pressure, kPa	Molar heat capacity at constant pressure, J/K/mol	uncertainty
298.15	101.325	25.8	1.2

System: bismuth, compd. with nickel(1:1); phases: Crystal 2, Crystal 1, Air at 1 atmosphere
Property: Triple point temperature, K (Crystal 2); method: VISOBS
Triple point temperature, K	uncertainty
600	20

System: bismuth, compd. with nickel(1:1); phases: Crystal 2, Crystal 1, Air at 1 atmosphere
Property: Molar enthalpy of transition or fusion, kJ/mol (Crystal 2); method: Drop calorimetry
Molar enthalpy of transition or fusion, kJ/mol	uncertainty
0.19	0.217

System: bismuth, compd. with nickel(1:1); phases: Crystal 2
Fixed: Pressure, kPa = 101.325
Property: Molar enthalpy, kJ/mol (Crystal 2); method: Drop calorimetry
Temperature, K	Molar enthalpy, kJ/mol	uncertainty
343.15	1.199	0.054
363.15	1.681	0.076
393.15	2.613	0.118
423.15	3.515	0.159
439.15	4.043	0.183
454.15	4.22	0.191
464.15	4.571	0.207
473.15	5.092	0.231
503.15	5.742	0.26
533.15	6.64	0.301
555.15	7.382	0.334
564.15	7.437	0.337
585.15	8.106	0.367
596.15	8.471	0.384

System: bismuth, compd. with nickel(1:1); phases: Crystal 1
Fixed: Pressure, kPa = 101.325
Property: Molar enthalpy, kJ/mol (Crystal 1); method: Drop calorimetry
Temperature, K	Molar enthalpy, kJ/mol	uncertainty
606.15	9.441	0.427
617.15	9.575	0.434
625.15	9.858	0.446
637.15	10.43	0.472
657.15	10.623	0.481
668.15	11.096	0.502
673.15	11.132	0.504
677.15	11.406	0.516
686.15	11.756	0.532
697.15	11.756	0.532
706.15	12.079	0.547
708.15	12.53	0.567
716.15	13.165	0.596
717.15	13.385	0.606
718.15	13.061	0.591
738.15	13.163	0.596
748.15	14.073	0.637
757.15	14.933	0.676
777.15	15.685	0.71
798.15	16.068	0.728
814.15	16.816	0.761
819.15	17.413	0.788
834.15	17.906	0.811
844.15	18.138	0.821
859.15	18.795	0.851
878.15	19.084	0.864
905.15	19.61	0.888
908.15	19.892	0.901
920.15	20.845	0.944
