Measured thermophysical data. Measurement of CO2 absorption enthalpy and heat capacity of aqueous hexamethylenediamine and its aqueous mixture with N-methyldiethanolamine
Source: J. Chem. Thermodyn., 2017, 10.1016/j.jct.2017.06.019
Compound 1: 2-aminoethan-1-ol, C2H7NO, InChI=1S/C2H7NO/c3-1-2-4/h4H,1-3H2, purity 99%
Compound 2: 1,6-hexanediamine, C6H16N2, InChI=1S/C6H16N2/c7-5-3-1-2-4-6-8/h1-8H2, purity 98%
Compound 3: N-methyldiethanolamine, C5H13NO2, InChI=1S/C5H13NO2/c1-6(2-4-7)3-5-8/h7-8H,2-5H2,1H3, purity 99%
Compound 4: carbon dioxide, CO2, InChI=1S/CO2/c2-1-3, purity 99.9%
Compound 5: water, H2O, InChI=1S/H2O/h1H2

System: water; phases: Liquid
Fixed: Pressure, kPa = 100
Property: Molar heat capacity at constant pressure, J/K/mol (Liquid); method: isoperibol calorimetry
Temperature, K	Molar heat capacity at constant pressure, J/K/mol	uncertainty
303.15	75.3038704	5.2244312
313.15	75.3038704	5.2244312
323.15	75.4840232	5.2244312
333.15	75.4840232	5.2244312

System: 1,6-hexanediamine + water; phases: Liquid
Fixed: Pressure, kPa = 100
Property: Molar heat capacity at constant pressure, J/K/mol (Liquid); method: isoperibol calorimetry
Mole fraction of 1,6-hexanediamine	Temperature, K	Molar heat capacity at constant pressure, J/K/mol	uncertainty
0	303.15	75.3038704	5.2244312
0	313.15	75.3038704	5.2244312
0	323.15	75.4840232	5.2244312
0	333.15	75.4840232	5.2244312
0.0169	304.15	75.94427072896	5.31216401472
0.0169	314.15	76.7312579904	5.31216401472
0.0169	324.15	76.92800480576	5.31216401472
0.0169	334.15	77.12475162112	5.31216401472
0.0373	304.15	82.59221268672	5.85299145024
0.0373	314.15	83.4593225312	5.85299145024
0.0373	324.15	84.10965491456	5.85299145024
0.0373	334.15	84.5432098368	5.85299145024
0.0623	304.15	90.25548309888	6.27444534912
0.0623	314.15	91.7034320256	6.27444534912
0.0623	324.15	92.18608166784	6.51577017024
0.0623	334.15	93.15138095232	6.51577017024

System: 1,6-hexanediamine + water; phases: Liquid, Gas
Property: Vapor or sublimation pressure, kPa (Liquid); method: Closed cell (Static) method
Temperature, K	Mole fraction of 1,6-hexanediamine	Vapor or sublimation pressure, kPa	uncertainty
303.15	0.0169	4.67	2.08
313.15	0.0169	7.58	2.13
323.15	0.0169	11.88	2.25
333.15	0.0169	17.97	2.34
303.15	0.0373	4.56	2.08
313.15	0.0373	7.42	2.12
323.15	0.0373	11.51	2.24
333.15	0.0373	17.4	2.33
303.15	0.0623	4.46	2.08
313.15	0.0623	7.24	2.11
323.15	0.0623	11.08	2.22
333.15	0.0623	16.82	2.31

System: N-methyldiethanolamine + 1,6-hexanediamine + water; phases: Liquid
Fixed: Pressure, kPa = 100
Property: Molar heat capacity at constant pressure, J/K/mol (Liquid); method: isoperibol calorimetry
Temperature, K	Mole fraction of N-methyldiethanolamine	Mole fraction of 1,6-hexanediamine	Molar heat capacity at constant pressure, J/K/mol	uncertainty
304.15	0.0606	0	86.19688954716	6.036196747
314.15	0.0606	0	88.1284725062	6.036196747
324.15	0.0606	0	89.81860759536	6.27764461688
334.15	0.0606	0	90.78439907488	6.27764461688
304.15	0.0505	0.0104	86.67829787094	6.0360931665
314.15	0.0505	0.0104	88.60984768422	6.27753689316
323.15	0.0505	0.0104	90.05851004418	6.27753689316
334.15	0.0505	0.0104	91.02428495082	6.27753689316
304.15	0.0404	0.0208	87.40112920528	6.035989586
314.15	0.0404	0.0208	89.3326458728	6.27742916944
324.15	0.0404	0.0208	90.53984379	6.27742916944
334.15	0.0404	0.0208	91.50560212376	6.27742916944
304.15	0.0303	0.0312	87.88250024008	6.0358860055
314.15	0.0303	0.0312	90.05541920206	6.27732144572
324.15	0.0303	0.0312	91.02116096294	6.27732144572
334.15	0.0303	0.0312	91.98690272382	6.51875688594
304.15	0	0.0623	90.25548309888	6.27444534912
314.15	0	0.0623	91.7034320256	6.27444534912
324.15	0	0.0623	92.18608166784	6.51577017024
334.15	0	0.0623	93.15138095232	6.51577017024

System: N-methyldiethanolamine + 1,6-hexanediamine + water; phases: Liquid, Gas
Property: Vapor or sublimation pressure, kPa (Liquid); method: Closed cell (Static) method
Temperature, K	Mole fraction of 1,6-hexanediamine	Mole fraction of N-methyldiethanolamine	Vapor or sublimation pressure, kPa	uncertainty
303.15	0.0104	0.0505	4.56	2.05
313.15	0.0104	0.0505	7.17	2.12
323.15	0.0104	0.0505	11.39	2.3
333.15	0.0104	0.0505	17.25	2.64
303.15	0.0208	0.0404	4.56	2.05
313.15	0.0208	0.0404	7.18	2.13
323.15	0.0208	0.0404	11.49	2.31
333.15	0.0208	0.0404	17.48	2.66
303.15	0.0312	0.0303	4.56	2.05
313.15	0.0312	0.0303	7.21	2.13
323.15	0.0312	0.0303	11.7	2.32
333.15	0.0312	0.0303	17.83	2.68

System: N-methyldiethanolamine + water; phases: Liquid
Fixed: Pressure, kPa = 100
Property: Molar heat capacity at constant pressure, J/K/mol (Liquid); method: isoperibol calorimetry
Temperature, K	Mole fraction of N-methyldiethanolamine	Molar heat capacity at constant pressure, J/K/mol	uncertainty
304.15	0.0606	86.19688954716	6.036196747
314.15	0.0606	88.1284725062	6.036196747
324.15	0.0606	89.81860759536	6.27764461688
334.15	0.0606	90.78439907488	6.27764461688
303.15	0	75.3038704	5.2244312
313.15	0	75.3038704	5.2244312
323.15	0	75.4840232	5.2244312
333.15	0	75.4840232	5.2244312

System: carbon dioxide + 2-aminoethan-1-ol + water; phases: Liquid, Gas
Fixed: Temperature, K = 313.15
Fixed: Solvent: Mole fraction of 2-aminoethan-1-ol = 0.1121
Property: Mole fraction of carbon dioxide (Liquid); method: Volumetric method
Pressure, kPa	Mole fraction of carbon dioxide	uncertainty
7.1	0.0082	0.0005
7.8	0.0163	0.001
8.3	0.0243	0.0015
8.5	0.0322	0.002
8.8	0.0398	0.0025
9.2	0.0474	0.003
19.2	0.0549	0.0034
36.5	0.0609	0.0038
86.7	0.0656	0.0041
136.9	0.068	0.0042

System: carbon dioxide + 2-aminoethan-1-ol + water; phases: Liquid, Gas
Fixed: Temperature, K = 313.15
Fixed: Solvent: Mole fraction of 2-aminoethan-1-ol = 0.1121
Property: Partial molar enthalpy, kJ/mol of carbon dioxide (Liquid); method: Isoperibol calorimeter
Pressure, kPa	Partial molar enthalpy, kJ/mol of carbon dioxide	uncertainty
7.1	-83.7	9.2
7.8	-82.8	8.8
8.3	-82.5	8.7
8.5	-82.6	8.8
8.8	-83.1	8.8
9.2	-80.5	8.9
19.2	-73.2	8
36.5	-49.6	5.3
86.7	-34.9	3.6
136.9	-30.9	3.2

System: 1,6-hexanediamine + carbon dioxide + water; phases: Liquid, Gas
Property: Mole fraction of carbon dioxide (Liquid); method: Volumetric method
Temperature, K	Solvent: Mole fraction of 1,6-hexanediamine	Pressure, kPa	Mole fraction of carbon dioxide	uncertainty
303.15	0.0169	6.1	0.004	0.0003
303.15	0.0169	6.25	0.0092	0.0006
303.15	0.0169	7.03	0.0144	0.001
303.15	0.0169	8.47	0.0191	0.0013
303.15	0.0169	13.27	0.0236	0.0016
303.15	0.0169	20.07	0.0266	0.0018
303.15	0.0169	40.14	0.0293	0.0019
303.15	0.0169	55.72	0.0321	0.0021
313.15	0.0169	8.92	0.0047	0.0003
313.15	0.0169	10.07	0.0092	0.0006
313.15	0.0169	10.81	0.0137	0.0009
313.15	0.0169	11.24	0.0182	0.0012
313.15	0.0169	20.58	0.0223	0.0015
313.15	0.0169	31.11	0.0256	0.0017
313.15	0.0169	58.47	0.0283	0.0019
313.15	0.0169	97.75	0.0307	0.002
323.15	0.0169	12.95	0.004	0.0003
323.15	0.0169	13.28	0.0079	0.0005
323.15	0.0169	13.98	0.0118	0.0008
323.15	0.0169	15.46	0.0156	0.001
323.15	0.0169	19.91	0.0193	0.0013
323.15	0.0169	51.62	0.0261	0.0017
323.15	0.0169	93.26	0.0282	0.0019
323.15	0.0169	129.07	0.0299	0.002
333.15	0.0169	20.29	0.0044	0.0003
333.15	0.0169	21.84	0.0087	0.0006
333.15	0.0169	22.51	0.013	0.0009
333.15	0.0169	24.6	0.0172	0.0011
333.15	0.0169	38.29	0.0211	0.0014
333.15	0.0169	98.91	0.0271	0.0018
333.15	0.0169	158.41	0.0288	0.0019
303.15	0.0373	6.1	0.0052	0.0003
303.15	0.0373	6.44	0.0127	0.0008
303.15	0.0373	7.08	0.0202	0.0013
303.15	0.0373	8.21	0.028	0.0017
303.15	0.0373	8.66	0.0357	0.0022
303.15	0.0373	10.63	0.0415	0.0026
303.15	0.0373	13.82	0.0449	0.0028
303.15	0.0373	19.76	0.0481	0.003
303.15	0.0373	35.03	0.0513	0.0032
313.15	0.0373	8.98	0.0063	0.0004
313.15	0.0373	9.67	0.0138	0.0009
313.15	0.0373	10.14	0.0211	0.0013
313.15	0.0373	10.89	0.0285	0.0018
313.15	0.0373	12.03	0.0356	0.0022
313.15	0.0373	19.11	0.0424	0.0026
313.15	0.0373	34.23	0.0487	0.003
313.15	0.0373	49.57	0.0518	0.0032
323.15	0.0373	13.17	0.0066	0.0004
323.15	0.0373	14.89	0.0157	0.001
323.15	0.0373	15.25	0.0247	0.0015
323.15	0.0373	16.94	0.0337	0.0021
323.15	0.0373	27.23	0.0426	0.0027
323.15	0.0373	56.59	0.0497	0.0031
323.15	0.0373	96.73	0.0549	0.0034
323.15	0.0373	134.33	0.0569	0.0035
323.15	0.0373	151.85	0.0585	0.0036
333.15	0.0373	18.49	0.0054	0.0003
333.15	0.0373	18.93	0.0131	0.0008
333.15	0.0373	20.49	0.0226	0.0014
333.15	0.0373	22.64	0.0316	0.002
333.15	0.0373	40.56	0.0407	0.0025
333.15	0.0373	94.84	0.0487	0.003
333.15	0.0373	138.42	0.0542	0.0034
333.15	0.0373	165.31	0.0558	0.0035
333.15	0.0373	183.13	0.0571	0.0036
303.15	0.0623	5.39	0.0105	0.0006
303.15	0.0623	6.06	0.0206	0.0012
303.15	0.0623	6.39	0.0305	0.0018
303.15	0.0623	6.75	0.0403	0.0024
303.15	0.0623	7.05	0.0499	0.003
303.15	0.0623	8.75	0.0594	0.0036
303.15	0.0623	12.23	0.0674	0.0041
303.15	0.0623	21.48	0.072	0.0043
303.15	0.0623	30.41	0.0754	0.0045
313.15	0.0623	7.8	0.0085	0.0005
313.15	0.0623	8.54	0.0166	0.001
313.15	0.0623	8.99	0.0247	0.0015
313.15	0.0623	9.76	0.0325	0.002
313.15	0.0623	10.35	0.0404	0.0024
313.15	0.0623	11.04	0.0495	0.003
313.15	0.0623	11.94	0.0582	0.0035
313.15	0.0623	22.93	0.0669	0.004
313.15	0.0623	35.84	0.0713	0.0043
323.15	0.0623	12.82	0.0103	0.0006
323.15	0.0623	13.8	0.0204	0.0012
323.15	0.0623	14.59	0.0303	0.0018
323.15	0.0623	15.97	0.0402	0.0024
323.15	0.0623	16.48	0.0498	0.003
323.15	0.0623	25.29	0.0591	0.0036
323.15	0.0623	45.5	0.0673	0.0041
323.15	0.0623	68.01	0.0739	0.0045
323.15	0.0623	93.55	0.0764	0.0046
333.15	0.0623	18.75	0.0103	0.0006
333.15	0.0623	19.17	0.0205	0.0012
333.15	0.0623	19.96	0.0305	0.0018
333.15	0.0623	21.6	0.0399	0.0024
333.15	0.0623	24.15	0.0493	0.003
333.15	0.0623	42.9	0.059	0.0036
333.15	0.0623	88.41	0.0677	0.0041
333.15	0.0623	138.87	0.0749	0.0045

System: 1,6-hexanediamine + carbon dioxide + water; phases: Liquid, Gas
Property: Molar enthalpy of solution, kJ/mol (Liquid); method: ISOPERIBOL
Temperature, K	Solvent: Mole fraction of 1,6-hexanediamine	Pressure, kPa	Molar enthalpy of solution, kJ/mol	uncertainty
303.15	0.0169	6.1	-91.7	11.8
303.15	0.0169	6.25	-91.4	11.8
303.15	0.0169	7.03	-91.2	11.8
303.15	0.0169	8.47	-87	11.2
303.15	0.0169	13.27	-78	9.8
303.15	0.0169	20.07	-73.2	9
303.15	0.0169	40.14	-69.2	8.4
303.15	0.0169	55.72	-65.8	8.1
313.15	0.0169	8.92	-92.8	11.6
313.15	0.0169	10.07	-92.8	11.3
313.15	0.0169	10.81	-92.5	11.3
313.15	0.0169	11.24	-89.5	11.3
313.15	0.0169	20.58	-82.6	10.1
313.15	0.0169	31.11	-77.3	9.4
313.15	0.0169	58.47	-73.4	8.9
313.15	0.0169	97.75	-70.3	8.5
323.15	0.0169	12.95	-94.1	11.5
323.15	0.0169	13.28	-93.9	11.5
323.15	0.0169	13.98	-93	11.5
323.15	0.0169	15.46	-91.4	11.3
323.15	0.0169	19.91	-87.2	10.6
323.15	0.0169	51.62	-76.2	9.2
323.15	0.0169	93.26	-73.2	8.8
323.15	0.0169	129.07	-71.1	8.6
333.15	0.0169	20.29	-94.5	11.5
333.15	0.0169	21.84	-94.3	11.7
333.15	0.0169	22.51	-93.1	11.4
333.15	0.0169	24.6	-91	11.3
333.15	0.0169	38.29	-86	10.4
333.15	0.0169	98.91	-77.8	9.5
333.15	0.0169	158.41	-75.5	9.1
303.15	0.0373	6.1	-92.8	10.4
303.15	0.0373	6.44	-92.8	10.4
303.15	0.0373	7.08	-92.7	10.6
303.15	0.0373	8.21	-92.7	10.6
303.15	0.0373	8.66	-92.5	10.6
303.15	0.0373	10.63	-88.9	10.3
303.15	0.0373	13.82	-85.3	9.7
303.15	0.0373	19.76	-82.3	9.3
303.15	0.0373	35.03	-79.6	9
313.15	0.0373	8.98	-93.9	10.6
313.15	0.0373	9.67	-93.3	10.6
313.15	0.0373	10.14	-93.3	10.6
313.15	0.0373	10.89	-92.7	10.5
313.15	0.0373	12.03	-92.2	10.4
313.15	0.0373	19.11	-88.3	10
313.15	0.0373	34.23	-82.4	9.3
313.15	0.0373	49.57	-79.6	9
323.15	0.0373	13.17	-95.3	10.8
323.15	0.0373	14.89	-94.5	10.6
323.15	0.0373	15.25	-94.3	10.7
323.15	0.0373	16.94	-94	10.6
323.15	0.0373	27.23	-88.9	10
323.15	0.0373	56.59	-82.3	9.3
323.15	0.0373	96.73	-77.9	8.8
323.15	0.0373	134.33	-76.4	8.6
323.15	0.0373	151.85	-74.8	8.4
333.15	0.0373	18.49	-95.9	10.8
333.15	0.0373	18.93	-95.1	10.7
333.15	0.0373	20.49	-95	10.8
333.15	0.0373	22.64	-94.4	10.7
333.15	0.0373	40.56	-90.5	10.2
333.15	0.0373	94.84	-83.8	9.5
333.15	0.0373	138.42	-79.8	9
333.15	0.0373	165.31	-78.3	8.8
333.15	0.0373	183.13	-77	8.7
303.15	0.0623	5.39	-93.7	10.5
303.15	0.0623	6.06	-93.9	10.5
303.15	0.0623	6.39	-94	10.6
303.15	0.0623	6.75	-94.1	10.7
303.15	0.0623	7.05	-94	10.7
303.15	0.0623	8.75	-94	10.6
303.15	0.0623	12.23	-90.3	10.2
303.15	0.0623	21.48	-87	9.8
303.15	0.0623	30.41	-84.9	9.6
313.15	0.0623	7.8	-95.3	10.7
313.15	0.0623	8.54	-96	10.8
313.15	0.0623	8.99	-96.2	10.8
313.15	0.0623	9.76	-96.5	10.8
313.15	0.0623	10.35	-96.5	10.8
313.15	0.0623	11.04	-96.5	10.9
313.15	0.0623	11.94	-96.2	10.9
313.15	0.0623	22.93	-91.9	10.4
313.15	0.0623	35.84	-88.7	10
323.15	0.0623	12.82	-98	11
323.15	0.0623	13.8	-97.4	10.9
323.15	0.0623	14.59	-97.2	10.9
323.15	0.0623	15.97	-97.1	10.9
323.15	0.0623	16.48	-97	10.9
323.15	0.0623	25.29	-96.2	10.8
323.15	0.0623	45.5	-92.9	10.5
323.15	0.0623	68.01	-88.6	10.1
323.15	0.0623	93.55	-86.9	9.9
333.15	0.0623	18.75	-99.1	11.1
333.15	0.0623	19.17	-99.6	11.2
333.15	0.0623	19.96	-99.5	11.2
333.15	0.0623	21.6	-100.1	11.3
333.15	0.0623	24.15	-100.1	11.3
333.15	0.0623	42.9	-99	11.2
333.15	0.0623	88.41	-96.2	10.9
333.15	0.0623	138.87	-91.9	10.5

System: 2-aminoethan-1-ol + water; phases: Liquid, Gas
Property: Vapor or sublimation pressure, kPa (Liquid); method: Closed cell (Static) method
Mole fraction of 2-aminoethan-1-ol	Temperature, K	Vapor or sublimation pressure, kPa	uncertainty
0.1121	313.15	6.5	2.1
