Measured thermophysical data. Conductometric analysis of 1-butyl-3-methylimidazolium ibuprofenate as an active pharmaceutical ingredient ionic liquid (API-IL) in the aqueous amino acids solutions
Source: J. Chem. Thermodyn., 2016, 10.1016/j.jct.2016.07.047
Compound 1: 2-aminoacetic acid, C2H5NO2, InChI=1S/C2H5NO2/c3-1-2(4)5/h1,3H2,(H,4,5), purity 99%
Compound 2: (S)-2-aminopropanoic acid, C3H7NO2, InChI=1S/C3H7NO2/c1-2(4)3(5)6/h2H,4H2,1H3,(H,5,6)/t2-/m0/s1, purity 99%
Compound 3: 1-butyl-3-methylimidazolium ibuprofenate, C21H32N2O2, InChI=1S/C13H18O2.C8H15N2/c1-9(2)8-11-4-6-12(7-5-11)10(3)13(14)15;1-3-4-5-10-7-6-9(2)8-10/h4-7,9-10H,8H2,1-3H3,(H,14,15);6-8H,3-5H2,1-2H3/q;+1/p-1
Compound 4: water, H2O, InChI=1S/H2O/h1H2

System: 2-aminoacetic acid + water; phases: Liquid
Fixed: Pressure, kPa = 87
Property: Mass density, kg/m3 (Liquid); method: Vibrating tube method
Molality, mol/kg of 2-aminoacetic acid	Temperature, K	Mass density, kg/m3	uncertainty
0.1	288.15	1002.42	1.4
0.1	298.15	1000.23	1.4
0.1	308.15	997.21	1.4
0.1	318.15	993.28	1.4
0.3	288.15	1008.66	1.4
0.3	298.15	1006.29	1.4
0.3	308.15	1003.23	1.4
0.3	318.15	999.24	1.41
0.5	288.15	1014.9	1.4
0.5	298.15	1012.35	1.4
0.5	308.15	1009.25	1.4
0.5	318.15	1005.2	1.4

System: 2-aminoacetic acid + water; phases: Liquid
Fixed: Pressure, kPa = 87
Property: Viscosity, Pa*s (Liquid); method: Falling or rolling sphere viscometry
Molality, mol/kg of 2-aminoacetic acid	Temperature, K	Viscosity, Pa*s	uncertainty
0.1	288.15	0.001144	3.1e-05
0.1	298.15	0.000924	3.1e-05
0.1	308.15	0.000729	3e-05
0.1	318.15	0.000613	3e-05
0.3	288.15	0.001176	3.1e-05
0.3	298.15	0.00095	3.1e-05
0.3	308.15	0.000749	3e-05
0.3	318.15	0.000638	3e-05
0.5	288.15	0.001208	3.1e-05
0.5	298.15	0.000984	3.1e-05
0.5	308.15	0.00077	3.1e-05
0.5	318.15	0.000662	3e-05

System: 2-aminoacetic acid + water; phases: Liquid
Fixed: Pressure, kPa = 87
Fixed: Frequency, MHz = 0.0003
Property: Electrical conductivity, S/m (Liquid); method: Alternating current cell with electrodes
Molality, mol/kg of 2-aminoacetic acid	Temperature, K	Electrical conductivity, S/m	uncertainty
0.1	288.15	0.000925	0.000141
0.1	298.15	0.000963	0.000141
0.1	308.15	0.001008	0.000141
0.1	318.15	0.001065	0.000141
0.3	288.15	0.002265	0.00014
0.3	298.15	0.002387	0.000141
0.3	308.15	0.002526	0.000141
0.3	318.15	0.00269	0.00014
0.5	288.15	0.003549	0.000141
0.5	298.15	0.003811	0.000141
0.5	308.15	0.004101	0.000141
0.5	318.15	0.004455	0.000141

System: (S)-2-aminopropanoic acid + water; phases: Liquid
Fixed: Pressure, kPa = 100
Property: Mass density, kg/m3 (Liquid); method: Vibrating tube method
Molality, mol/kg of (S)-2-aminopropanoic acid	Temperature, K	Mass density, kg/m3	uncertainty
0.1	288.15	1002.1	1.4
0.1	298.15	999.97	1.4
0.1	308.15	996.94	1.4
0.1	318.15	993.09	1.4
0.3	288.15	1007.7	1.4
0.3	298.15	1005.51	1.4
0.3	308.15	1002.42	1.4
0.3	318.15	998.47	1.4
0.5	288.15	1013.3	1.4
0.5	298.15	1011.05	1.4
0.5	308.15	1007.9	1.4
0.5	318.15	1003.85	1.4

System: (S)-2-aminopropanoic acid + water; phases: Liquid
Fixed: Pressure, kPa = 100
Property: Viscosity, Pa*s (Liquid); method: Falling or rolling sphere viscometry
Molality, mol/kg of (S)-2-aminopropanoic acid	Temperature, K	Viscosity, Pa*s	uncertainty
0.1	288.15	0.00116	3.1e-05
0.1	298.15	0.00091	3.1e-05
0.1	308.15	0.000738	3e-05
0.1	318.15	0.000613	3e-05
0.3	288.15	0.001223	3.1e-05
0.3	298.15	0.000955	3.1e-05
0.3	308.15	0.000774	3.1e-05
0.3	318.15	0.000649	3.1e-05
0.5	288.15	0.001286	3.1e-05
0.5	298.15	0.001001	3.1e-05
0.5	308.15	0.000809	3.1e-05
0.5	318.15	0.000685	3e-05

System: (S)-2-aminopropanoic acid + water; phases: Liquid
Fixed: Pressure, kPa = 87
Fixed: Frequency, MHz = 0.0003
Property: Electrical conductivity, S/m (Liquid); method: Alternating current cell with electrodes
Molality, mol/kg of (S)-2-aminopropanoic acid	Temperature, K	Electrical conductivity, S/m	uncertainty
0.1	288.15	0.000237	0.00014
0.1	298.15	0.000293	0.00014
0.1	308.15	0.000357	0.00014
0.1	318.15	0.000441	0.00014
0.3	288.15	0.000567	0.00014
0.3	298.15	0.000659	0.00014
0.3	308.15	0.000783	0.00014
0.3	318.15	0.000946	0.00014
0.5	288.15	0.000861	0.00014
0.5	298.15	0.000968	0.00014
0.5	308.15	0.001171	0.00014
0.5	318.15	0.001411	0.00014

System: water + 1-butyl-3-methylimidazolium ibuprofenate; phases: Liquid
Fixed: Pressure, kPa = 87
Fixed: Frequency, MHz = 0.0003
Property: Electrical conductivity, S/m (Liquid); method: Alternating current cell with electrodes
Molality, mol/kg of 1-butyl-3-methylimidazolium ibuprofenate	Temperature, K	Electrical conductivity, S/m	uncertainty
0	288.15	4.6e-05	0.00014
0.0001654	288.15	0.000845	0.00014
0.000302	288.15	0.001497	0.000141
0.0004674	288.15	0.002275	0.000143
0.0006039	288.15	0.002909	0.000145
0.0007652	288.15	0.003648	0.000148
0.0009348	288.15	0.004425	0.000152
0.0010755	288.15	0.00507	0.000156
0.0012574	288.15	0.005897	0.000161
0.0014395	288.15	0.006715	0.000167
0.001638	288.15	0.007608	0.000174
0.0018242	288.15	0.008444	0.000181
0	298.15	7.1e-05	0.00014
0.0001565	298.15	0.001007	0.000141
0.0003501	298.15	0.002146	0.000143
0.0005354	298.15	0.003215	0.000146
0.0007248	298.15	0.004289	0.000151
0.0009309	298.15	0.005444	0.000158
0.0011121	298.15	0.006461	0.000164
0.0013303	298.15	0.007659	0.000173
0.0015198	298.15	0.008692	0.000181
0.0017093	298.15	0.009718	0.00019
0.0018781	298.15	0.01062	0.0002
0.0021046	298.15	0.01181	0.00021
0.0023064	298.15	0.01286	0.00022
0	308.15	0.000104	0.00014
0.0001135	308.15	0.000928	0.00014
0.0002552	308.15	0.001944	0.000142
0.0003929	308.15	0.002919	0.000145
0.0005428	308.15	0.003963	0.00015
0.0006847	308.15	0.004938	0.000155
0.0008346	308.15	0.005963	0.000161
0.0009844	308.15	0.006976	0.000168
0.0011384	308.15	0.008001	0.000176
0.0012721	308.15	0.00888	0.000183
0.0014341	308.15	0.009941	0.00019
0.0015678	308.15	0.01081	0.0002
0.001742	308.15	0.01193	0.00021
0	318.15	0.000148	0.00014
0.0001498	318.15	0.001411	0.000141
0.0002871	318.15	0.002552	0.000144
0.0004036	318.15	0.003505	0.000147
0.000545	318.15	0.00465	0.000153
0.0006615	318.15	0.005586	0.000158
0.0007905	318.15	0.006602	0.000165
0.0009237	318.15	0.007649	0.000172
0.0010692	318.15	0.008769	0.000181
0.0012107	318.15	0.009845	0.000191
0.0013646	318.15	0.01102	0.0002
0.0014978	318.15	0.01201	0.00021
0.0016309	318.15	0.01302	0.00022

System: 2-aminoacetic acid + water + 1-butyl-3-methylimidazolium ibuprofenate; phases: Liquid
Fixed: Pressure, kPa = 87
Fixed: Frequency, MHz = 0.0003
Property: Electrical conductivity, S/m (Liquid); method: Alternating current cell with electrodes
Molality, mol/kg of 1-butyl-3-methylimidazolium ibuprofenate	Solvent: Molality, mol/kg of 2-aminoacetic acid	Temperature, K	Electrical conductivity, S/m	uncertainty
0	0.1	288.15	0.000925	0.000141
0.0001433	0.1	288.15	0.0016	0.000141
0.0002988	0.1	288.15	0.002324	0.000142
0.0004503	0.1	288.15	0.003019	0.000144
0.0006222	0.1	288.15	0.003802	0.000146
0.0008228	0.1	288.15	0.004708	0.00015
0.0010151	0.1	288.15	0.005567	0.000154
0.0012076	0.1	288.15	0.006426	0.000159
0.0014285	0.1	288.15	0.007406	0.000166
0.0016741	0.1	288.15	0.008495	0.000175
0.0019157	0.1	288.15	0.009557	0.000186
0.00219	0.1	288.15	0.01077	0.0002
0	0.1	298.15	0.000963	0.000141
0.0001508	0.1	298.15	0.001809	0.000141
0.0003953	0.1	298.15	0.003167	0.000144
0.000587	0.1	298.15	0.004214	0.000148
0.0007866	0.1	298.15	0.005299	0.000153
0.0009701	0.1	298.15	0.006277	0.000158
0.0011738	0.1	298.15	0.007358	0.000165
0.0013817	0.1	298.15	0.008435	0.000172
0.0015651	0.1	298.15	0.009373	0.000179
0.0017567	0.1	298.15	0.01036	0.00019
0.0019198	0.1	298.15	0.01117	0.0002
0.0021194	0.1	298.15	0.01219	0.00021
0.0022784	0.1	298.15	0.01299	0.00021
0.0024455	0.1	298.15	0.01382	0.00022
0	0.1	308.15	0.001008	0.000141
0.0001257	0.1	308.15	0.001841	0.000141
0.0002634	0.1	308.15	0.002739	0.000143
0.0004012	0.1	308.15	0.003624	0.000145
0.0005552	0.1	308.15	0.004608	0.000149
0.0006971	0.1	308.15	0.005507	0.000153
0.0008309	0.1	308.15	0.006345	0.000158
0.0010011	0.1	308.15	0.007398	0.000165
0.0011106	0.1	308.15	0.008073	0.00017
0.0012686	0.1	308.15	0.009043	0.00018
0.001378	0.1	308.15	0.009701	0.000183
0.0015564	0.1	308.15	0.01077	0.00019
0.0016861	0.1	308.15	0.01155	0.00021
0	0.1	318.15	0.001065	0.000141
0.0001622	0.1	318.15	0.002288	0.000142
0.0002919	0.1	318.15	0.003248	0.000144
0.0004582	0.1	318.15	0.004467	0.000148
0.0006041	0.1	318.15	0.005521	0.000155
0.0007419	0.1	318.15	0.006511	0.000161
0.0008757	0.1	318.15	0.007455	0.000164
0.0010703	0.1	318.15	0.008825	0.000176
0.0012527	0.1	318.15	0.01009	0.00018
0.0014231	0.1	318.15	0.01123	0.00019
0.0015689	0.1	318.15	0.01221	0.00021
0.0017433	0.1	318.15	0.01338	0.00019
0.0019217	0.1	318.15	0.01454	0.00022
0	0.3	288.15	0.002265	0.00014
0.0001972	0.3	288.15	0.003138	0.000141
0.0004508	0.3	288.15	0.004248	0.000143
0.0007566	0.3	288.15	0.005565	0.000148
0.0009699	0.3	288.15	0.006477	0.000152
0.0011551	0.3	288.15	0.007261	0.000156
0.0014086	0.3	288.15	0.008335	0.000163
0.00163	0.3	288.15	0.009257	0.00017
0.0018393	0.3	288.15	0.01013	0.00018
0.0020968	0.3	288.15	0.0112	0.00019
0.0023745	0.3	288.15	0.01236	0.0002
0.0025798	0.3	288.15	0.01322	0.00021
0	0.3	298.15	0.002387	0.000141
0.0001365	0.3	298.15	0.003127	0.000141
0.0002891	0.3	298.15	0.003947	0.000142
0.0004297	0.3	298.15	0.004696	0.000144
0.0005381	0.3	298.15	0.005269	0.000146
0.0007107	0.3	298.15	0.006178	0.00015
0.0008513	0.3	298.15	0.006909	0.000154
0.0009999	0.3	298.15	0.007681	0.000158
0.0011725	0.3	298.15	0.008576	0.000165
0.0013051	0.3	298.15	0.009258	0.000168
0.0014737	0.3	298.15	0.01012	0.00018
0.0016063	0.3	298.15	0.01081	0.00018
0.0017147	0.3	298.15	0.01136	0.00019
0	0.3	308.15	0.002526	0.000141
0.0001249	0.3	308.15	0.003314	0.000141
0.0002619	0.3	308.15	0.004163	0.000143
0.0003988	0.3	308.15	0.004999	0.000145
0.0005519	0.3	308.15	0.005927	0.000148
0.000693	0.3	308.15	0.006776	0.000152
0.0008259	0.3	308.15	0.007566	0.000156
0.0009951	0.3	308.15	0.008568	0.000162
0.0011039	0.3	308.15	0.009209	0.000167
0.001261	0.3	308.15	0.01013	0.00017
0.0013698	0.3	308.15	0.01077	0.00018
0.0015471	0.3	308.15	0.0118	0.00019
0.001676	0.3	308.15	0.01255	0.00019
0	0.3	318.15	0.00269	0.00014
0.0001218	0.3	318.15	0.003586	0.000142
0.0002395	0.3	318.15	0.00444	0.000143
0.0003815	0.3	318.15	0.005458	0.000146
0.0005154	0.3	318.15	0.006402	0.00015
0.0006615	0.3	318.15	0.007423	0.000155
0.0008036	0.3	318.15	0.008411	0.000161
0.0009578	0.3	318.15	0.009468	0.000168
0.0010836	0.3	318.15	0.01032	0.00017
0.0012013	0.3	318.15	0.01112	0.00018
0.0013474	0.3	318.15	0.01212	0.00019
0.0014773	0.3	318.15	0.013	0.0002
0.0015869	0.3	318.15	0.01375	0.00019
0	0.5	288.15	0.003549	0.000141
0.0001735	0.5	288.15	0.004272	0.000141
0.0003401	0.5	288.15	0.00496	0.000142
0.0004963	0.5	288.15	0.005602	0.000143
0.0006699	0.5	288.15	0.006311	0.000146
0.0009302	0.5	288.15	0.007374	0.00015
0.0011628	0.5	288.15	0.008319	0.000155
0.0013363	0.5	288.15	0.009023	0.00016
0.0015098	0.5	288.15	0.009727	0.000165
0.0017181	0.5	288.15	0.01057	0.00017
0.0018847	0.5	288.15	0.01124	0.00018
0.0020756	0.5	288.15	0.01201	0.00018
0.0022456	0.5	288.15	0.01269	0.00019
0	0.5	298.15	0.003811	0.000141
0.0001367	0.5	298.15	0.004421	0.000141
0.0002984	0.5	298.15	0.005358	0.000143
0.0004701	0.5	298.15	0.006239	0.000145
0.0006528	0.5	298.15	0.007168	0.000148
0.0008208	0.5	298.15	0.008021	0.000151
0.0009812	0.5	298.15	0.008829	0.000157
0.0011341	0.5	298.15	0.009599	0.000161
0.0012983	0.5	298.15	0.01043	0.00017
0.0014549	0.5	298.15	0.01121	0.00017
0.0015743	0.5	298.15	0.0118	0.00018
0.001731	0.5	298.15	0.01259	0.00019
0.0018839	0.5	298.15	0.01335	0.00017
0	0.5	308.15	0.004101	0.000141
0.0001946	0.5	308.15	0.005508	0.000142
0.000364	0.5	308.15	0.006424	0.000143
0.0005342	0.5	308.15	0.007292	0.000146
0.0006964	0.5	308.15	0.008104	0.00015
0.0008547	0.5	308.15	0.008956	0.000155
0.0010129	0.5	308.15	0.009797	0.000164
0.0011475	0.5	308.15	0.01065	0.00016
0.0013176	0.5	308.15	0.01139	0.00017
0.0014522	0.5	308.15	0.0123	0.00019
0.0015946	0.5	308.15	0.01303	0.00019
0.0017489	0.5	308.15	0.01399	0.00021
0.0018835	0.5	308.15	0.01481	0.00022
0	0.5	318.15	0.004455	0.000141
0.0001549	0.5	318.15	0.005623	0.000142
0.0002859	0.5	318.15	0.006512	0.000144
0.0004249	0.5	318.15	0.007443	0.000146
0.0005917	0.5	318.15	0.008547	0.000151
0.0007466	0.5	318.15	0.009559	0.000156
0.0009055	0.5	318.15	0.01058	0.00016
0.0010604	0.5	318.15	0.01157	0.00017
0.0011874	0.5	318.15	0.01238	0.00018
0.0013383	0.5	318.15	0.01334	0.00018
0.0014932	0.5	318.15	0.01432	0.00019
0.0016204	0.5	318.15	0.01512	0.0002
0.0017593	0.5	318.15	0.016	0.00021
0	0	288.15	4.6e-05	0.000141
0.0001654	0	288.15	0.000845	0.000142
0.000302	0	288.15	0.001497	0.000142
0.0004674	0	288.15	0.002275	0.000144
0.0006039	0	288.15	0.002909	0.000146
0.0007652	0	288.15	0.003648	0.000149
0.0009348	0	288.15	0.004425	0.000153
0.0010755	0	288.15	0.00507	0.000157
0.0012574	0	288.15	0.005897	0.000162
0.0014395	0	288.15	0.006715	0.000168
0.001638	0	288.15	0.007608	0.000175
0.0018242	0	288.15	0.008444	0.000182
0	0	298.15	7.1e-05	0.000141
0.0001565	0	298.15	0.001007	0.000142
0.0003501	0	298.15	0.002146	0.000144
0.0005354	0	298.15	0.003215	0.000147
0.0007248	0	298.15	0.004289	0.000152
0.0009309	0	298.15	0.005444	0.000159
0.0011121	0	298.15	0.006461	0.000165
0.0013303	0	298.15	0.007659	0.000173
0.0015198	0	298.15	0.008692	0.000181
0.0017093	0	298.15	0.009718	0.00019
0.0018781	0	298.15	0.01062	0.0002
0.0021046	0	298.15	0.01181	0.00021
0.0023064	0	298.15	0.01286	0.00022
0	0	308.15	0.000104	0.000141
0.0001135	0	308.15	0.000928	0.000141
0.0002552	0	308.15	0.001944	0.000143
0.0003929	0	308.15	0.002919	0.000146
0.0005428	0	308.15	0.003963	0.00015
0.0006847	0	308.15	0.004938	0.000155
0.0008346	0	308.15	0.005963	0.000161
0.0009844	0	308.15	0.006976	0.000168
0.0011384	0	308.15	0.008001	0.000176
0.0012721	0	308.15	0.00888	0.000183
0.0014341	0	308.15	0.009941	0.00019
0.0015678	0	308.15	0.01081	0.0002
0.001742	0	308.15	0.01193	0.00021
0	0	318.15	0.000148	0.000141
0.0001498	0	318.15	0.001411	0.000142
0.0002871	0	318.15	0.002552	0.000144
0.0004036	0	318.15	0.003505	0.000148
0.000545	0	318.15	0.00465	0.000153
0.0006615	0	318.15	0.005586	0.000158
0.0007905	0	318.15	0.006602	0.000165
0.0009237	0	318.15	0.007649	0.000172
0.0010692	0	318.15	0.008769	0.000181
0.0012107	0	318.15	0.009845	0.000191
0.0013646	0	318.15	0.01102	0.0002
0.0014978	0	318.15	0.01201	0.00021
0.0016309	0	318.15	0.01302	0.00022

System: (S)-2-aminopropanoic acid + water + 1-butyl-3-methylimidazolium ibuprofenate; phases: Liquid
Fixed: Pressure, kPa = 87
Fixed: Frequency, MHz = 0.0003
Property: Electrical conductivity, S/m (Liquid); method: Alternating current cell with electrodes
Molality, mol/kg of 1-butyl-3-methylimidazolium ibuprofenate	Solvent: Molality, mol/kg of (S)-2-aminopropanoic acid	Temperature, K	Electrical conductivity, S/m	uncertainty
0	0.1	288.15	0.000237	0.00014
0.0001433	0.1	288.15	0.000914	0.00014
0.0002989	0.1	288.15	0.001639	0.000141
0.0004505	0.1	288.15	0.002336	0.000143
0.0006224	0.1	288.15	0.00312	0.000145
0.0008231	0.1	288.15	0.004028	0.000149
0.0010155	0.1	288.15	0.004889	0.000154
0.001208	0.1	288.15	0.00575	0.000159
0.001429	0.1	288.15	0.006733	0.000166
0.0016747	0.1	288.15	0.007824	0.000175
0.0019163	0.1	288.15	0.008888	0.000185
0.0021907	0.1	288.15	0.01011	0.0002
0	0.1	298.15	0.000293	0.00014
0.0001468	0.1	298.15	0.001133	0.000141
0.0002814	0.1	298.15	0.001889	0.000142
0.0003955	0.1	298.15	0.00252	0.000143
0.000526	0.1	298.15	0.003235	0.000146
0.0006769	0.1	298.15	0.004058	0.000149
0.0008319	0.1	298.15	0.004897	0.000154
0.0009501	0.1	298.15	0.005535	0.000156
0.0010806	0.1	298.15	0.006233	0.000162
0.0012315	0.1	298.15	0.007037	0.000171
0.0013742	0.1	298.15	0.007796	0.000171
0.0015047	0.1	298.15	0.008488	0.00018
0.0016352	0.1	298.15	0.009174	0.000191
0	0.1	308.15	0.000357	0.00014
0.0001243	0.1	308.15	0.00118	0.000141
0.000261	0.1	308.15	0.002075	0.000142
0.0004101	0.1	308.15	0.003036	0.000145
0.0005633	0.1	308.15	0.004015	0.000149
0.0007042	0.1	308.15	0.0049	0.000152
0.0008533	0.1	308.15	0.005828	0.000157
0.0010066	0.1	308.15	0.006766	0.000163
0.0011515	0.1	308.15	0.007645	0.000169
0.0013172	0.1	308.15	0.008656	0.000175
0.0014829	0.1	308.15	0.009655	0.000188
0.0016113	0.1	308.15	0.01043	0.00019
0.0017688	0.1	308.15	0.01138	0.00024
0	0.1	318.15	0.000441	0.00014
0.0001232	0.1	318.15	0.001402	0.000141
0.0002547	0.1	318.15	0.002402	0.000143
0.0003942	0.1	318.15	0.003448	0.000146
0.000542	0.1	318.15	0.004543	0.000151
0.0006694	0.1	318.15	0.005475	0.000156
0.0008582	0.1	318.15	0.006837	0.000167
0.0010062	0.1	318.15	0.007898	0.000177
0.0011252	0.1	318.15	0.008733	0.000176
0.0013018	0.1	318.15	0.00999	0.000196
0.0014702	0.1	318.15	0.01116	0.00021
0.0016221	0.1	318.15	0.01223	0.00021
0.0017905	0.1	318.15	0.0134	0.00022
0	0.3	288.15	0.000567	0.00014
0.0001974	0.3	288.15	0.001447	0.000141
0.0004512	0.3	288.15	0.002564	0.000143
0.0007574	0.3	288.15	0.003895	0.000147
0.0009708	0.3	288.15	0.004806	0.000151
0.0011562	0.3	288.15	0.005584	0.000156
0.0014099	0.3	288.15	0.006651	0.000163
0.0016315	0.3	288.15	0.007577	0.000169
0.001841	0.3	288.15	0.008444	0.000176
0.0020988	0.3	288.15	0.009516	0.000186
0.0023768	0.3	288.15	0.01066	0.0002
0.0025822	0.3	288.15	0.01151	0.00021
0	0.3	298.15	0.000659	0.00014
0.0001516	0.3	298.15	0.001486	0.000141
0.000323	0.3	298.15	0.002411	0.000142
0.0004467	0.3	298.15	0.003069	0.000144
0.0006142	0.3	298.15	0.003958	0.000147
0.0007538	0.3	298.15	0.004685	0.00015
0.0009094	0.3	298.15	0.005494	0.000154
0.001033	0.3	298.15	0.006135	0.000159
0.0011566	0.3	298.15	0.006769	0.000165
0.0013002	0.3	298.15	0.007511	0.000166
0.0014518	0.3	298.15	0.008289	0.000177
0.0016073	0.3	298.15	0.009097	0.000184
0.001727	0.3	298.15	0.009717	0.000193
0	0.3	308.15	0.000783	0.00014
0.000158	0.3	308.15	0.001782	0.000141
0.0003281	0.3	308.15	0.00284	0.000143
0.000474	0.3	308.15	0.003734	0.000146
0.000632	0.3	308.15	0.004683	0.00015
0.0007778	0.3	308.15	0.005552	0.000154
0.0009479	0.3	308.15	0.006558	0.000159
0.00111	0.3	308.15	0.007507	0.000169
0.0012559	0.3	308.15	0.008363	0.000173
0.0014017	0.3	308.15	0.009212	0.00018
0.0015354	0.3	308.15	0.00999	0.000189
0.0016893	0.3	308.15	0.01088	0.0002
0.0018352	0.3	308.15	0.01173	0.00021
0	0.3	318.15	0.000946	0.00014
0.0001384	0.3	318.15	0.001972	0.000141
0.0002646	0.3	318.15	0.002892	0.000143
0.0004152	0.3	318.15	0.003977	0.000146
0.000578	0.3	318.15	0.005128	0.000151
0.0007489	0.3	318.15	0.006327	0.000158
0.0008874	0.3	318.15	0.007284	0.000164
0.0010258	0.3	318.15	0.00823	0.000171
0.0011886	0.3	318.15	0.009326	0.00018
0.0013433	0.3	318.15	0.01037	0.00019
0.0014898	0.3	318.15	0.01134	0.0002
0.0016201	0.3	318.15	0.01221	0.00021
0.0018358	0.3	318.15	0.01363	0.00021
0	0.5	288.15	0.000861	0.00014
0.0001276	0.5	288.15	0.001395	0.00014
0.0002672	0.5	288.15	0.001973	0.000141
0.0004149	0.5	288.15	0.00258	0.000142
0.0005903	0.5	288.15	0.003293	0.000144
0.0007419	0.5	288.15	0.003906	0.000146
0.0009813	0.5	288.15	0.004871	0.000151
0.0011249	0.5	288.15	0.005449	0.000154
0.0014162	0.5	288.15	0.006614	0.000161
0.0016594	0.5	288.15	0.007579	0.000168
0.0019307	0.5	288.15	0.008655	0.000176
0.0021741	0.5	288.15	0.009618	0.000185
0	0.5	298.15	0.000968	0.00014
0.000133	0.5	298.15	0.001669	0.00014
0.0002459	0.5	298.15	0.00226	0.000141
0.0004152	0.5	298.15	0.003141	0.000143
0.0005764	0.5	298.15	0.003973	0.000146
0.0007337	0.5	298.15	0.004776	0.000149
0.0008828	0.5	298.15	0.00553	0.000152
0.0010441	0.5	298.15	0.006338	0.000158
0.0012376	0.5	298.15	0.007301	0.000165
0.001415	0.5	298.15	0.008178	0.000169
0.0015762	0.5	298.15	0.008969	0.000174
0.0017657	0.5	298.15	0.009906	0.000188
0.0019471	0.5	298.15	0.0108	0.00019
0.0021607	0.5	298.15	0.01185	0.00018
0	0.5	308.15	0.001171	0.00014
0.0001675	0.5	308.15	0.002188	0.000141
0.0003747	0.5	308.15	0.003426	0.000144
0.0005701	0.5	308.15	0.004573	0.000148
0.0007415	0.5	308.15	0.005566	0.000152
0.000929	0.5	308.15	0.006632	0.000158
0.0011203	0.5	308.15	0.007719	0.000165
0.0012839	0.5	308.15	0.008646	0.000172
0.0014751	0.5	308.15	0.009711	0.00018
0.0016227	0.5	308.15	0.01054	0.00019
0.0017742	0.5	308.15	0.01136	0.0002
0.0019616	0.5	308.15	0.01242	0.00021
0.0021729	0.5	308.15	0.01358	0.00022
0	0.5	318.15	0.001411	0.00014
0.0001605	0.5	318.15	0.002518	0.000141
0.0002888	0.5	318.15	0.003403	0.000143
0.0004534	0.5	318.15	0.004518	0.000146
0.0005977	0.5	318.15	0.005471	0.000151
0.0007341	0.5	318.15	0.006367	0.000155
0.0008665	0.5	318.15	0.007229	0.000161
0.001059	0.5	318.15	0.008477	0.000169
0.0012395	0.5	318.15	0.009622	0.000178
0.0014081	0.5	318.15	0.0107	0.00019
0.0015524	0.5	318.15	0.01161	0.0002
0.001725	0.5	318.15	0.01271	0.00021
0.0019015	0.5	318.15	0.01382	0.00022
0	0	288.15	4.6e-05	0.00014
0.0001654	0	288.15	0.000845	0.00014
0.000302	0	288.15	0.001497	0.000141
0.0004674	0	288.15	0.002275	0.000143
0.0006039	0	288.15	0.002909	0.000145
0.0007652	0	288.15	0.003648	0.000148
0.0009348	0	288.15	0.004425	0.000152
0.0010755	0	288.15	0.00507	0.000156
0.0012574	0	288.15	0.005897	0.000161
0.0014395	0	288.15	0.006715	0.000167
0.001638	0	288.15	0.007608	0.000174
0.0018242	0	288.15	0.008444	0.000181
0	0	298.15	7.1e-05	0.00014
0.0001565	0	298.15	0.001007	0.000141
0.0003501	0	298.15	0.002146	0.000143
0.0005354	0	298.15	0.003215	0.000146
0.0007248	0	298.15	0.004289	0.000151
0.0009309	0	298.15	0.005444	0.000158
0.0011121	0	298.15	0.006461	0.000164
0.0013303	0	298.15	0.007659	0.000173
0.0015198	0	298.15	0.008692	0.000181
0.0017093	0	298.15	0.009718	0.00019
0.0018781	0	298.15	0.01062	0.0002
0.0021046	0	298.15	0.01181	0.00021
0.0023064	0	298.15	0.01286	0.00022
0	0	308.15	0.000104	0.00014
0.0001135	0	308.15	0.000928	0.000141
0.0002552	0	308.15	0.001944	0.000142
0.0003929	0	308.15	0.002919	0.000145
0.0005428	0	308.15	0.003963	0.00015
0.0006847	0	308.15	0.004938	0.000155
0.0008346	0	308.15	0.005963	0.000161
0.0009844	0	308.15	0.006976	0.000168
0.0011384	0	308.15	0.008001	0.000176
0.0012721	0	308.15	0.00888	0.000183
0.0014341	0	308.15	0.009941	0.00019
0.0015678	0	308.15	0.01081	0.0002
0.001742	0	308.15	0.01193	0.00021
0	0	318.15	0.000148	0.00014
0.0001498	0	318.15	0.001411	0.000141
0.0002871	0	318.15	0.002552	0.000144
0.0004036	0	318.15	0.003505	0.000147
0.000545	0	318.15	0.00465	0.000153
0.0006615	0	318.15	0.005586	0.000158
0.0007905	0	318.15	0.006602	0.000165
0.0009237	0	318.15	0.007649	0.000173
0.0010692	0	318.15	0.008769	0.000181
0.0012107	0	318.15	0.009845	0.000191
0.0013646	0	318.15	0.01102	0.0002
0.0014978	0	318.15	0.01201	0.00021
0.0016309	0	318.15	0.01302	0.00022
