Measured thermophysical data. Freezing point depression in the ternary ZnSO4-H2SO4-H2O system
Source: J. Chem. Thermodyn., 2019, 10.1016/j.jct.2018.12.043
Compound 1: sulfuric acid, H2O4S, InChI=1S/H2O4S/c1-5(2,3)4/h(H2,1,2,3,4), purity 95%
Compound 2: zinc sulfate, O4SZn, InChI=1S/H2O4S.Zn/c1-5(2,3)4;/h(H2,1,2,3,4);/q;+2/p-2
Compound 3: water, H2O, InChI=1S/H2O/h1H2, purity 99.9%

System: sulfuric acid + zinc sulfate + water; phases: Liquid, Crystal
Fixed: Pressure, kPa = 100
Property: Solid-liquid equilibrium temperature, K (Liquid); method: Large-sample thermal analysis
Molality, mol/kg of zinc sulfate	Molality, mol/kg of sulfuric acid	Solid-liquid equilibrium temperature, K	uncertainty
0.2503	0.2552	271.81	0.27
0.5032	0.254	271.25	0.28
1.0036	0.2517	270.09	0.26
1.5002	0.2494	268.63	0.27
2.0013	0.2471	266.66	0.28
0.2498	0.5096	270.96	0.27
0.4966	0.5073	270.35	0.34
0.9993	0.5027	269.06	0.27
1.5	0.498	266.98	0.28
1.911	0.4943	264.75	0.28
0.2501	1.0196	268.34	0.27
0.4995	1.015	267.58	0.27
1.0057	1.0057	265.67	0.33
1.5011	0.9966	263.61	0.31
0.2511	1.53	265.16	0.27
0.4996	1.5231	264.59	0.38
1.001	1.5092	262.29	0.3
0.2505	2.041	261.78	0.27
0	0.2563	272.15	0.24
0	0.5119	271.06	0.23
0	1.024	269.06	0.25
0	1.537	266.37	0.28
0	2.05	263.43	0.24

System: sulfuric acid + water; phases: Liquid, Crystal
Fixed: Pressure, kPa = 100
Property: Solid-liquid equilibrium temperature, K (Liquid); method: Large-sample thermal analysis
Molality, mol/kg of sulfuric acid	Solid-liquid equilibrium temperature, K	uncertainty
0.2563	272.15	0.24
0.5119	271.06	0.23
1.024	269.06	0.25
1.537	266.37	0.28
2.05	263.43	0.24
