Measured thermophysical data. Thermodynamic properties of mixed surfactants of dodecyltrimethylammonium bromide and 1-dodecyl-3-methylimidazolium bromide
Source: J. Chem. Thermodyn., 2017, 10.1016/j.jct.2016.10.039
Compound 1: dodecyltrimethylammonium bromide, C15H34BrN, InChI=1S/C15H34N.BrH/c1-5-6-7-8-9-10-11-12-13-14-15-16(2,3)4;/h5-15H2,1-4H3;1H/q+1;/p-1, purity 99%
Compound 2: 1-dodecyl-3-methylimidazolium bromide, C16H31BrN2, InChI=1S/C16H31N2.BrH/c1-3-4-5-6-7-8-9-10-11-12-13-18-15-14-17(2)16-18;/h14-16H,3-13H2,1-2H3;1H/q+1;/p-1, purity 99%
Compound 3: water, H2O, InChI=1S/H2O/h1H2, purity 99.8%

System: dodecyltrimethylammonium bromide + water + 1-dodecyl-3-methylimidazolium bromide; phases: Liquid
Fixed: Temperature, K = 298.15
Fixed: Pressure, kPa = 85
Property: Electrical conductivity, S/m (Liquid); method: Alternating current cell with electrodes
Molality, mol/kg of dodecyltrimethylammonium bromide	Molality, mol/kg of 1-dodecyl-3-methylimidazolium bromide	Electrical conductivity, S/m	uncertainty
0	0	0.00024	1e-05
0	0.00123	0.0086	0.0007
0	0.00244	0.01695	0.00137
0	0.00361	0.0251	0.0021
0	0.00476	0.0331	0.0028
0	0.00588	0.0411	0.0034
0	0.00698	0.0489	0.0041
0	0.00805	0.0567	0.0049
0	0.00909	0.0644	0.0049
0	0.01011	0.0702	0.0039
0	0.01111	0.0736	0.0031
0	0.01209	0.0764	0.003
0	0.01304	0.0788	0.0032
0	0.01398	0.0814	0.0033
0	0.01489	0.0836	0.0032
0	0.01579	0.0856	0.0034
0	0.01667	0.0877	0.0037
0	0.01753	0.0898	0.0038
0	0.01837	0.0918	0.004
0	0.01919	0.0938	0.0041
0	0.02	0.0957	0.0043
0	0.02079	0.0977	0.0047
0	0.02157	0.0997	0.0049
0	0	0.00021	1e-05
0.000158	0.001422	0.01125	0.00082
0.000312	0.002808	0.0218	0.0016
0.000463	0.004167	0.0323	0.0024
0.00061	0.00549	0.0425	0.0032
0.000753	0.006777	0.0527	0.0041
0.000893	0.008037	0.0628	0.0046
0.00103	0.00927	0.0715	0.0039
0.001164	0.010476	0.0762	0.003
0.001294	0.011646	0.0798	0.0029
0.001422	0.012798	0.0831	0.003
0.001547	0.013923	0.0861	0.003
0.00167	0.01503	0.089	0.0033
0.001789	0.016101	0.0919	0.0036
0.001906	0.017154	0.0948	0.0038
0.002021	0.018189	0.0976	0.0039
0.002133	0.019197	0.1003	0.0042
0.002243	0.020187	0.103	0.0043
0.002351	0.021159	0.1056	0.0046
0.002457	0.022113	0.1082	0.0049
0.00256	0.02304	0.1108	0.0051
0	0	0.00022	1e-05
0.000316	0.001264	0.01083	0.00074
0.000624	0.002496	0.0213	0.0015
0.000926	0.003704	0.0316	0.0023
0.00122	0.00488	0.0419	0.0029
0.001506	0.006024	0.052	0.0035
0.001786	0.007144	0.0619	0.0042
0.00206	0.00824	0.0718	0.0031
0.002328	0.009312	0.0778	0.0025
0.002588	0.010352	0.0818	0.0028
0.002844	0.011376	0.0851	0.0029
0.003094	0.012376	0.0883	0.0029
0.00334	0.01336	0.0914	0.0029
0.003578	0.014312	0.0944	0.0032
0.003812	0.015248	0.0973	0.0032
0.004042	0.016168	0.1002	0.0033
0.004266	0.017064	0.103	0.0039
0.004486	0.017944	0.1058	0.0038
0.004702	0.018808	0.1085	0.0043
0.004914	0.019656	0.1112	0.0044
0.00512	0.02048	0.1138	0.0046
0	0	0.00024	1e-05
0.0004582	0.0011218	0.0106	0.0007
0.0009048	0.0022152	0.0208	0.0014
0.0013427	0.0032873	0.0318	0.0021
0.001769	0.004331	0.0427	0.003
0.0021837	0.0053463	0.0537	0.0038
0.0025897	0.0063403	0.0645	0.0045
0.002987	0.007313	0.0746	0.0045
0.0033756	0.0082644	0.0809	0.004
0.0037526	0.0091874	0.085	0.0043
0.0041238	0.0100962	0.0885	0.0032
0.0044863	0.0109837	0.0919	0.0031
0.004843	0.011857	0.095	0.0043
0.0051881	0.0127019	0.0981	0.0046
0.0055274	0.0135326	0.1011	0.0048
0.0058609	0.0143491	0.104	0.0051
0.0061857	0.0151443	0.1068	0.0054
0.0065047	0.0159253	0.1096	0.004
0.0068179	0.0166921	0.1124	0.0041
0.0071253	0.0174447	0.1151	0.0042
0.007424	0.018176	0.1177	0.0044
0	0	0.00019	1e-05
0.000632	0.000948	0.01084	0.00063
0.001248	0.001872	0.0212	0.0013
0.001852	0.002778	0.0314	0.002
0.00244	0.00366	0.0416	0.0027
0.003012	0.004518	0.0519	0.0034
0.003572	0.005358	0.0621	0.0041
0.00412	0.00618	0.0722	0.0045
0.004656	0.006984	0.0804	0.0039
0.005176	0.007764	0.0856	0.004
0.005688	0.008532	0.0894	0.0033
0.006188	0.009282	0.0928	0.0031
0.00668	0.01002	0.096	0.0031
0.007156	0.010734	0.0991	0.0032
0.007624	0.011436	0.1021	0.0034
0.008084	0.012126	0.105	0.0035
0.008532	0.012798	0.1079	0.0037
0.008972	0.013458	0.1107	0.0038
0.009404	0.014106	0.1135	0.004
0.009828	0.014742	0.1162	0.0041
0.01024	0.01536	0.1189	0.0045
0	0	0.00024	1e-05
0.00079	0.00079	0.01068	0.00063
0.00156	0.00156	0.021	0.0013
0.002315	0.002315	0.0312	0.0019
0.00305	0.00305	0.0412	0.0026
0.003765	0.003765	0.0512	0.0032
0.004465	0.004465	0.0612	0.0039
0.00515	0.00515	0.0711	0.0041
0.00582	0.00582	0.0803	0.0039
0.00647	0.00647	0.0865	0.0035
0.00711	0.00711	0.0908	0.0032
0.007735	0.007735	0.0944	0.0032
0.00835	0.00835	0.0976	0.0033
0.008945	0.008945	0.1008	0.0033
0.00953	0.00953	0.1038	0.0035
0.010105	0.010105	0.1068	0.0036
0.010665	0.010665	0.1098	0.0038
0.011215	0.011215	0.1124	0.0038
0.011755	0.011755	0.1151	0.0039
0.012285	0.012285	0.1178	0.0041
0.0128	0.0128	0.1204	0.0044
0	0	0.00022	1e-05
0.000948	0.000632	0.01103	0.00065
0.001872	0.001248	0.0214	0.0013
0.002778	0.001852	0.0318	0.0019
0.00366	0.00244	0.0421	0.0026
0.004518	0.003012	0.0523	0.0033
0.005358	0.003572	0.0626	0.004
0.00618	0.00412	0.0728	0.0045
0.006984	0.004656	0.0825	0.0047
0.007764	0.005176	0.0895	0.004
0.008532	0.005688	0.0942	0.0036
0.009282	0.006188	0.0982	0.0036
0.01002	0.00668	0.1017	0.0037
0.010734	0.007156	0.105	0.0038
0.011436	0.007624	0.108	0.0039
0.012126	0.008084	0.1111	0.004
0.012798	0.008532	0.114	0.0044
0.013458	0.008972	0.1168	0.0046
0.014106	0.009404	0.1196	0.0048
0.014742	0.009828	0.1227	0.005
0.01536	0.01024	0.1254	0.0051
0	0	0.00018	1e-05
0.0010902	0.0004898	0.01075	0.00069
0.0021528	0.0009672	0.0212	0.0014
0.0031947	0.0014353	0.0315	0.002
0.004209	0.001891	0.0417	0.0027
0.0051957	0.0023343	0.052	0.0034
0.0061617	0.0027683	0.0622	0.0042
0.007107	0.003193	0.0724	0.0046
0.0080316	0.0036084	0.0822	0.0048
0.0089286	0.0040114	0.0908	0.0043
0.0098118	0.0044082	0.0966	0.0039
0.0106743	0.0047957	0.1009	0.0038
0.011523	0.005177	0.1047	0.0039
0.0123441	0.0055459	0.1082	0.004
0.0131514	0.0059086	0.1114	0.0044
0.0139449	0.0062651	0.1145	0.0045
0.0147177	0.0066123	0.1175	0.0045
0.0154767	0.0069533	0.1204	0.0048
0.0162219	0.0072881	0.1232	0.0049
0.0169533	0.0076167	0.126	0.005
0.017664	0.007936	0.1287	0.0052
0	0	0.00018	1e-05
0.0012482	0.0003318	0.0108	0.0007
0.0024648	0.0006552	0.0213	0.0014
0.0036577	0.0009723	0.0316	0.0022
0.004819	0.001281	0.0418	0.003
0.0059487	0.0015813	0.052	0.0037
0.0070547	0.0018753	0.0621	0.0044
0.008137	0.002163	0.0722	0.0052
0.0091956	0.0024444	0.0823	0.0059
0.0102226	0.0027174	0.0917	0.0061
0.0112338	0.0029862	0.0991	0.0041
0.0122213	0.0032487	0.104	0.0043
0.013193	0.003507	0.108	0.0048
0.0141331	0.0037569	0.1115	0.0041
0.0150574	0.0040026	0.1147	0.0041
0.0159659	0.0042441	0.1178	0.0041
0.0168507	0.0044793	0.1208	0.0042
0.0177197	0.0047103	0.1237	0.0044
0.0185729	0.0049371	0.1265	0.0052
0.0194103	0.0051597	0.1293	0.0053
0.020224	0.005376	0.132	0.0055
0	0	0.00021	1e-05
0.001422	0.000158	0.01071	0.0008
0.002808	0.000312	0.0211	0.0016
0.004167	0.000463	0.0314	0.0024
0.00549	0.00061	0.0418	0.0032
0.006777	0.000753	0.0521	0.0041
0.008037	0.000893	0.0625	0.005
0.00927	0.00103	0.0729	0.006
0.010476	0.001164	0.0835	0.0068
0.011646	0.001294	0.0934	0.0069
0.012798	0.001422	0.1018	0.0066
0.013923	0.001547	0.1078	0.0053
0.01503	0.00167	0.1119	0.0046
0.016101	0.001789	0.1157	0.0048
0.017154	0.001906	0.1189	0.0046
0.018189	0.002021	0.122	0.0047
0.019197	0.002133	0.1249	0.0051
0.020187	0.002243	0.1277	0.005
0.021159	0.002351	0.1307	0.0055
0.022113	0.002457	0.1334	0.0056
0.02304	0.00256	0.1361	0.0058
0.023949	0.002661	0.1387	0.006
0.024849	0.002761	0.1413	0.0062
0.025722	0.002858	0.1439	0.0064
0.026586	0.002954	0.1464	0.0067
0.027432	0.003048	0.149	0.007
0	0	0.00021	1e-05
0.00185	0	0.01247	0.00102
0.00366	0	0.0246	0.002
0.00542	0	0.0367	0.0031
0.00714	0	0.0487	0.0042
0.00882	0	0.0609	0.0053
0.01047	0	0.0731	0.0065
0.01207	0	0.0856	0.0077
0.01364	0	0.0976	0.0082
0.01517	0	0.1082	0.0076
0.01667	0	0.1158	0.0061
0.01813	0	0.1206	0.005
0.01957	0	0.1246	0.0049
0.02097	0	0.1282	0.005
0.02234	0	0.1317	0.0051
0.02368	0	0.1349	0.0054
0.025	0	0.1382	0.0056
0.02629	0	0.1413	0.006
0.02755	0	0.1446	0.0064
0.02879	0	0.1478	0.0066
0.03	0	0.1509	0.0068
0.03119	0	0.1539	0.0071
0.03235	0	0.1569	0.0073
0.0335	0	0.1598	0.0075

System: water + 1-dodecyl-3-methylimidazolium bromide; phases: Liquid
Fixed: Temperature, K = 298.15
Fixed: Pressure, kPa = 85
Property: Electrical conductivity, S/m (Liquid); method: Alternating current cell with electrodes
Molality, mol/kg of 1-dodecyl-3-methylimidazolium bromide	Electrical conductivity, S/m	uncertainty
0	0.00024	1e-05
0.00123	0.0086	0.0007
0.00244	0.01695	0.0014
0.00361	0.0251	0.0021
0.00476	0.0331	0.0028
0.00588	0.0411	0.0034
0.00698	0.0489	0.0041
0.00805	0.0567	0.0049
0.00909	0.0644	0.0049
0.01011	0.0702	0.0039
0.01111	0.0736	0.0031
0.01209	0.0764	0.003
0.01304	0.0788	0.0032
0.01398	0.0814	0.0033
0.01489	0.0836	0.0032
0.01579	0.0856	0.0034
0.01667	0.0877	0.0037
0.01753	0.0898	0.0038
0.01837	0.0918	0.004
0.01919	0.0938	0.0041
0.02	0.0957	0.0043
0.02079	0.0977	0.0047
0.02157	0.0997	0.002

System: dodecyltrimethylammonium bromide + water; phases: Liquid
Fixed: Temperature, K = 298.15
Fixed: Pressure, kPa = 85
Property: Electrical conductivity, S/m (Liquid); method: Alternating current cell with electrodes
Molality, mol/kg of dodecyltrimethylammonium bromide	Electrical conductivity, S/m	uncertainty
0	0.00021	1e-05
0.00185	0.01247	0.00102
0.00366	0.0246	0.002
0.00542	0.0367	0.0031
0.00714	0.0487	0.0042
0.00882	0.0609	0.0053
0.01047	0.0731	0.0065
0.01207	0.0856	0.0077
0.01364	0.0976	0.0082
0.01517	0.1082	0.0076
0.01667	0.1158	0.0061
0.01813	0.1206	0.005
0.01957	0.1246	0.0049
0.02097	0.1282	0.005
0.02234	0.1317	0.0051
0.02368	0.1349	0.0054
0.025	0.1382	0.0056
0.02629	0.1413	0.006
0.02755	0.1446	0.0064
0.02879	0.1478	0.0066
0.03	0.1509	0.0068
0.03119	0.1539	0.0071
0.03235	0.1569	0.0073
0.0335	0.1598	0.0032
