Measured thermophysical data. Thermodynamics of long-chain 1-alkyl-3-methylimidazolium bis(trifluoromethanesulfonyl)imide ionic liquids
Source: J. Chem. Thermodyn., 2016, 10.1016/j.jct.2016.02.009
Compound 1: 1-decyl-3-methylimidazolium bis(trifluoromethylsulfonyl)amide, C16H27F6N3O4S2, InChI=1S/C14H27N2.C2F6NO4S2/c1-3-4-5-6-7-8-9-10-11-16-13-12-15(2)14-16;3-1(4,5)14(10,11)9-15(12,13)2(6,7)8/h12-14H,3-11H2,1-2H3;/q+1;-1, purity 98%
Compound 2: 1-tetradecyl-3-methylimidazolium bis(trifluoromethylsulfonyl)imide, C20H35F6N3O4S2, InChI=1S/C18H35N2.C2F6NO4S2/c1-3-4-5-6-7-8-9-10-11-12-13-14-15-20-17-16-19(2)18-20;3-1(4,5)14(10,11)9-15(12,13)2(6,7)8/h16-18H,3-15H2,1-2H3;/q+1;-1, purity 98%
Compound 3: 3-hexadecyl-1-methyl-1H-imidazolium bis((trifluoromethyl)sulfonyl)amide, C22H39F6N3O4S2, InChI=1S/C20H39N2.C2F6NO4S2/c1-3-4-5-6-7-8-9-10-11-12-13-14-15-16-17-22-19-18-21(2)20-22;3-1(4,5)14(10,11)9-15(12,13)2(6,7)8/h18-20H,3-17H2,1-2H3;/q+1;-1, purity 98%

System: 1-decyl-3-methylimidazolium bis(trifluoromethylsulfonyl)amide; phases: Crystal 2, Crystal 1, Gas
Property: Triple point temperature, K (Crystal 2); method: Adiabatic calorimetry
Triple point temperature, K	uncertainty
249	1

System: 1-decyl-3-methylimidazolium bis(trifluoromethylsulfonyl)amide; phases: Crystal 1, Liquid, Gas
Property: Triple point temperature, K (Crystal 1); method: Adiabatic calorimetry
Triple point temperature, K	uncertainty
277.33	0.05

System: 1-decyl-3-methylimidazolium bis(trifluoromethylsulfonyl)amide; phases: Crystal 2, Crystal 1, Gas
Property: Molar enthalpy of transition or fusion, kJ/mol (Crystal 2); method: Adiabatic calorimetry
Molar enthalpy of transition or fusion, kJ/mol	uncertainty
0	1

System: 1-decyl-3-methylimidazolium bis(trifluoromethylsulfonyl)amide; phases: Crystal 1, Liquid, Gas
Property: Molar enthalpy of transition or fusion, kJ/mol (Crystal 1); method: Adiabatic calorimetry
Molar enthalpy of transition or fusion, kJ/mol	uncertainty
28.67	0.13

System: 1-decyl-3-methylimidazolium bis(trifluoromethylsulfonyl)amide; phases: Metastable crystal
Fixed: Pressure, kPa = 101.325
Property: Molar heat capacity at constant pressure, J/K/mol (Metastable crystal); method: Small (less than 1 g) adiabatic calorimetry
Temperature, K	Molar heat capacity at constant pressure, J/K/mol	uncertainty
5	3.41	0.11
10	18.31	0.36
15	39.12	0.55
20	61	0.59
25	82.14	0.69
30	102	0.6
35	120.1	0.7
40	136.7	0.8
45	152.5	0.9
50	167.6	1
60	194.8	1.1
70	219.4	1.2
80	242.1	1.4
90	263.4	1.4
100	283.9	1.5
110	304.1	1.6
120	323.7	1.7
130	343.2	1.8
140	363.3	1.9
150	384.3	1.9
160	406.8	2.1
170	431.2	2.2
180	462.6	2.4
190	510.3	2.6
200	546.2	2.8
210	513	2.6

System: 1-decyl-3-methylimidazolium bis(trifluoromethylsulfonyl)amide; phases: Metastable crystal
Fixed: Pressure, kPa = 101.325
Property: Molar entropy, J/K/mol (Metastable crystal); method: Small (less than 1 g) adiabatic calorimetry
Temperature, K	Molar entropy, J/K/mol	uncertainty
5	1.17	0.06
10	7.58	0.25
15	18.82	0.51
20	33.09	0.7
25	48.99	0.84
30	65.74	0.88
35	82.86	1
40	100	1.1
45	117	1.3
50	133.9	1.5
60	166.9	1.7
70	198.8	1.9
80	229.6	2.2
90	259.3	2.4
100	288.1	2.5
110	316.2	2.7
120	343.5	2.9
130	370.1	3.1
140	396.3	3.3
150	422.1	3.5
160	447.6	3.7
170	473	3.9
180	498.4	4
190	524.9	4.2
200	551.8	4.4
210	581.9	4.7

System: 1-decyl-3-methylimidazolium bis(trifluoromethylsulfonyl)amide; phases: Metastable crystal
Fixed: Pressure, kPa = 101.325
Property: Molar enthalpy function {Hm(T)-Hm(0)}/T, J/K/mol (Metastable crystal); method: Small (less than 1 g) adiabatic calorimetry
Temperature, K	Molar enthalpy function {Hm(T)-Hm(0)}/T, J/K/mol	uncertainty
5	0.87	0.04
10	5.49	0.13
15	13.13	0.23
20	22.38	0.3
25	32.23	0.34
30	42.23	0.34
35	52.09	0.38
40	61.64	0.43
45	70.85	0.47
50	79.79	0.51
60	96.74	0.6
70	112.5	0.7
80	127.3	0.7
90	141.3	0.8
100	154.5	0.8
110	167.2	0.9
120	179.4	1
130	191.3	1.1
140	202.8	1.1
150	214.2	1.2
160	225.5	1.2
170	236.9	1.3
180	248.5	1.3
190	261.2	1.4
200	274.3	1.4
210	291	1.5

System: 1-decyl-3-methylimidazolium bis(trifluoromethylsulfonyl)amide; phases: Crystal 2
Fixed: Pressure, kPa = 101.325
Property: Molar heat capacity at constant pressure, J/K/mol (Crystal 2); method: Small (less than 1 g) adiabatic calorimetry
Temperature, K	Molar heat capacity at constant pressure, J/K/mol	uncertainty
5	3.41	0.11
10	17.29	0.33
15	36.94	0.52
20	58.37	0.57
25	79.32	0.66
30	98.9	0.59
35	116.6	0.7
40	132.9	0.7
50	163.2	1
60	190.4	1.1
70	214.9	1.2
80	237.4	1.3
90	258.5	1.3
100	278.7	1.4
110	297.7	1.6
120	315.8	1.7
130	333.3	1.7
140	350.5	1.8
150	367.5	1.9
160	384.7	1.9
170	402.3	2
180	420.7	2.2
190	440.9	2.3
200	463.2	2.4
210	489.1	2.5
220	519.8	2.6
230	569.2	2.9
240	651.3	3.3
249	1053	5

System: 1-decyl-3-methylimidazolium bis(trifluoromethylsulfonyl)amide; phases: Crystal 2
Fixed: Pressure, kPa = 101.325
Property: Molar entropy, J/K/mol (Crystal 2); method: Small (less than 1 g) adiabatic calorimetry
Temperature, K	Molar entropy, J/K/mol	uncertainty
5	1.18	0.06
10	7.33	0.25
15	17.93	0.49
20	31.5	0.68
25	46.8	0.81
30	63.01	0.83
35	79.61	0.97
40	96.26	1.11
50	129.2	1.3
60	161.4	1.7
70	192.7	1.9
80	222.8	2.1
90	252	2.2
100	280.3	2.4
110	307.8	2.7
120	334.4	2.9
130	360.4	3.1
140	385.8	3.3
150	410.5	3.5
160	434.8	3.6
170	458.6	3.8
180	482.1	4
190	505.4	4.1
200	528.6	4.2
210	551.8	4.4
220	575.2	4.6
230	599.3	4.8
240	625.2	5
249	653.6	5.2

System: 1-decyl-3-methylimidazolium bis(trifluoromethylsulfonyl)amide; phases: Crystal 2
Fixed: Pressure, kPa = 101.325
Property: Molar enthalpy function {Hm(T)-Hm(0)}/T, J/K/mol (Crystal 2); method: Small (less than 1 g) adiabatic calorimetry
Temperature, K	Molar enthalpy function {Hm(T)-Hm(0)}/T, J/K/mol	uncertainty
5	0.88	0.04
10	5.27	0.12
15	12.45	0.22
20	21.26	0.29
25	30.79	0.32
30	40.54	0.32
35	50.16	0.37
40	59.5	0.41
50	77.27	0.5
60	93.9	0.58
70	109.5	0.7
80	124.1	0.7
90	137.8	0.8
100	150.9	0.8
110	163.4	0.9
120	175.3	0.9
130	186.8	1
140	197.9	1.1
150	208.6	1.2
160	219.1	1.2
170	229.4	1.2
180	239.5	1.3
190	249.5	1.3
200	259.7	1.4
210	270	1.4
220	280.6	1.4
230	292	1.5
240	305.1	1.6
249	322	1.7

System: 1-decyl-3-methylimidazolium bis(trifluoromethylsulfonyl)amide; phases: Crystal 1
Fixed: Pressure, kPa = 101.325
Property: Molar heat capacity at constant pressure, J/K/mol (Crystal 1); method: Small (less than 1 g) adiabatic calorimetry
Temperature, K	Molar heat capacity at constant pressure, J/K/mol	uncertainty
249	1053	6
252	619.2	3.2
260	648.7	3.3
270	687.6	3.5
277.33	717.5	3.6

System: 1-decyl-3-methylimidazolium bis(trifluoromethylsulfonyl)amide; phases: Crystal 1
Fixed: Pressure, kPa = 101.325
Property: Molar entropy, J/K/mol (Crystal 1); method: Small (less than 1 g) adiabatic calorimetry
Temperature, K	Molar entropy, J/K/mol	uncertainty
249	653.6	5.2
252	662.4	5.3
260	682.3	5.5
270	707.5	5.7
277.33	726.3	5.7

System: 1-decyl-3-methylimidazolium bis(trifluoromethylsulfonyl)amide; phases: Crystal 1
Fixed: Pressure, kPa = 101.325
Property: Molar enthalpy function {Hm(T)-Hm(0)}/T, J/K/mol (Crystal 1); method: Small (less than 1 g) adiabatic calorimetry
Temperature, K	Molar enthalpy function {Hm(T)-Hm(0)}/T, J/K/mol	uncertainty
249	322	1.7
252	327	1.7
260	336.5	1.8
270	348.8	1.8
277.33	358.1	1.8

System: 1-decyl-3-methylimidazolium bis(trifluoromethylsulfonyl)amide; phases: Liquid
Fixed: Pressure, kPa = 101.325
Property: Molar heat capacity at constant pressure, J/K/mol (Liquid); method: Small (less than 1 g) adiabatic calorimetry
Temperature, K	Molar heat capacity at constant pressure, J/K/mol	uncertainty
277.33	739.7	3.7
280	741.6	3.7
290	748.8	3.8
298.15	754.8	3.8
300	756.2	3.8
310	763.8	3.9
320	771.5	3.9
330	779.5	3.9
340	787.7	4
350	796	4
360	804.6	4
370	813.4	4.1

System: 1-decyl-3-methylimidazolium bis(trifluoromethylsulfonyl)amide; phases: Liquid
Fixed: Pressure, kPa = 101.325
Property: Molar entropy, J/K/mol (Liquid); method: Small (less than 1 g) adiabatic calorimetry
Temperature, K	Molar entropy, J/K/mol	uncertainty
277.33	829.8	6.4
280	836.9	6.6
290	863.1	6.8
298.15	883.9	6.9
300	888.6	7
310	913.5	7.1
320	937.9	7.3
330	961.7	7.5
340	985.1	7.7
350	1008	8
360	1031	8
370	1053	8

System: 1-decyl-3-methylimidazolium bis(trifluoromethylsulfonyl)amide; phases: Liquid
Fixed: Pressure, kPa = 101.325
Property: Molar enthalpy function {Hm(T)-Hm(0)}/T, J/K/mol (Liquid); method: Small (less than 1 g) adiabatic calorimetry
Temperature, K	Molar enthalpy function {Hm(T)-Hm(0)}/T, J/K/mol	uncertainty
277.33	461.7	2.4
280	464.3	2.4
290	474	2.4
298.15	481.6	2.4
300	483.3	2.4
310	492.2	2.5
320	500.8	2.5
330	509.1	2.6
340	517.2	2.6
350	525.1	2.7
360	532.7	2.7
370	540.2	2.8

System: 1-decyl-3-methylimidazolium bis(trifluoromethylsulfonyl)amide; phases: Metastable crystal
Fixed: Pressure, kPa = 101.325
Property: Molar heat capacity at constant pressure, J/K/mol (Metastable crystal); method: Small (less than 1 g) adiabatic calorimetry
Temperature, K	Molar heat capacity at constant pressure, J/K/mol	uncertainty
4.98	3.38	0.1
5.32	4.05	0.11
5.67	4.81	0.13
6.03	5.65	0.15
6.46	6.76	0.17
6.97	8.15	0.21
7.49	9.71	0.24
8.02	11.34	0.28
8.55	13.1	0.32
9.09	14.97	0.36
9.62	16.9	0.4
10.16	18.93	0.31
10.78	21.32	0.34
11.46	24.01	0.37
12.15	26.84	0.41
12.85	29.77	0.45
13.56	32.75	0.49
14.27	35.9	0.53
14.99	39.03	0.57
15.81	42.67	0.61
16.75	46.88	0.66
17.7	51.06	0.71
18.65	55.14	0.75
19.6	59.21	0.79
20.85	64.6	0.61
22.41	71.3	0.64
23.98	78	0.67
25.56	84.49	0.69
27.07	90.53	0.71
28.66	96.83	0.72
30.24	102.9	0.6
31.98	109.5	0.6
33.9	116.3	0.7
35.82	123	0.7
37.74	129.4	0.7
39.66	135.6	0.8
41.68	142	0.8
43.79	148.7	0.8
45.9	155.3	0.9
48.02	161.8	0.9
50.15	168	0.9
52.27	174.1	1
54.4	180	1
56.52	185.7	1
58.65	191.3	1.1
60.78	196.8	1.1
62.91	202.2	1.1
65.05	207.5	1.2
67.19	212.7	1.2
69.32	217.8	1.2
71.56	223.1	1.2
73.9	228.4	1.3
76.24	233.8	1.3
78.59	239	1.3
80.94	244.2	1.4
83.3	249.2	1.4
81.02	244.3	1.4
82.84	248.2	1.4
84.55	251.8	1.4
86.26	255.5	1.4
87.99	259.2	1.4
89.72	262.8	1.5
91.45	266.4	1.4
93.2	270	1.4
94.95	273.7	1.4
96.7	277.2	1.4
98.47	280.8	1.5
100.23	284.3	1.5
102.07	288.2	1.5
103.96	292	1.5
105.87	295.9	1.5
107.77	299.7	1.6
109.69	303.6	1.6
111.6	307.4	1.6
113.52	311.1	1.6
115.45	314.9	1.6
117.37	318.6	1.6
119.3	322.3	1.7
121.23	326.1	1.7
123.16	329.9	1.7
125.09	333.6	1.7
127.03	337.4	1.7
128.97	341.2	1.8
130.9	345.1	1.8
132.84	348.9	1.8
134.78	352.7	1.8
136.72	356.6	1.8
138.66	360.6	1.9
140.6	364.4	1.9
142.54	368.4	1.9
144.48	372.5	1.9
146.41	376.6	1.9
148.35	380.7	2
150.28	384.8	2
152.21	389.1	2
154.14	393.4	2
156.07	397.7	2
157.99	402.2	2.1
159.91	406.6	2.1
161.83	411	2.1
163.75	415.7	2.1
165.66	420.2	2.1
167.56	425	2.2
169.47	429.9	2.2
171.37	434.6	2.2
173.27	440	2.2
175.16	445.5	2.3
177.04	451.4	2.3
178.92	458.1	2.3
180.78	466	2.4
182.64	476.8	2.4
184.47	489.9	2.5
186.29	501.9	2.5
188.1	507.1	2.6
189.9	510.3	2.6
191.71	511.1	2.6
193.51	514.8	2.6
195.31	521.6	2.6
197.11	529.9	2.7
198.89	539.6	2.7
200.65	550	2.8
202.46	568.9	2.9
204.28	599.4	3.1
206.02	683.4	3.6
207.65	752.9	3.9
209.38	552.2	3.1
211.31	512.9	2.6
213.27	512	2.6
215.24	515.4	2.6
217.2	523.2	2.7
219.17	551.8	3.2
221.12	812.2	4.9

System: 1-decyl-3-methylimidazolium bis(trifluoromethylsulfonyl)amide; phases: Crystal 2
Fixed: Pressure, kPa = 101.325
Property: Molar heat capacity at constant pressure, J/K/mol (Crystal 2); method: Small (less than 1 g) adiabatic calorimetry
Temperature, K	Molar heat capacity at constant pressure, J/K/mol	uncertainty
4.82	3.08	0.09
5.15	3.69	0.1
5.49	4.38	0.12
5.85	5.15	0.14
6.28	6.16	0.16
6.8	7.44	0.19
7.32	8.83	0.22
7.85	10.34	0.25
8.39	11.95	0.29
8.92	13.66	0.33
9.47	15.45	0.37
10.01	17.32	0.28
10.63	19.54	0.31
11.31	22.05	0.35
12	24.68	0.38
12.7	27.41	0.42
13.4	30.22	0.45
14.1	33.14	0.49
14.81	36.15	0.53
15.63	39.64	0.57
16.56	43.69	0.62
17.51	47.81	0.66
18.46	51.81	0.71
19.4	55.79	0.75
20.36	59.87	0.58
21.61	65.16	0.6
23.17	71.8	0.63
24.75	78.35	0.66
26.31	84.64	0.68
27.89	90.84	0.69
29.55	97.23	0.7
31.4	104	0.6
33.31	110.8	0.6
35.22	117.3	0.7
37.13	123.7	0.7
39.05	129.9	0.7
41.06	136.2	0.8
43.16	142.8	0.8
45.27	149.2	0.8
47.38	155.7	0.9
49.5	161.9	0.9
51.63	168	0.9
53.75	173.9	1
55.87	179.6	1
57.99	185.1	1
60.11	190.6	1.1
62.24	196.1	1.1
64.38	201.3	1.1
66.52	206.5	1.2
68.65	211.6	1.2
70.79	216.6	1.2
73.03	221.9	1.2
75.37	227.2	1.3
77.73	232.5	1.3
80.09	237.6	1.3
82.44	242.6	1.3
80.53	238.8	1.3
82.24	242.3	1.3
83.96	245.9	1.4
85.68	249.4	1.4
87.42	253.1	1.4
89.16	256.6	1.4
90.91	260.3	1.4
92.66	263.9	1.4
94.42	267.5	1.4
96.19	271.1	1.4
97.97	274.7	1.4
99.75	278.1	1.5
101.59	281.8	1.5
103.5	285.5	1.5
105.42	289.1	1.5
107.35	292.7	1.5
109.27	296.4	1.5
111.21	299.9	1.6
113.14	303.5	1.6
115.09	307	1.6
117.03	310.5	1.6
118.98	314	1.6
120.92	317.4	1.6
122.88	320.8	1.7
124.83	324.3	1.7
126.79	327.7	1.7
128.75	331.1	1.7
130.71	334.5	1.7
132.67	337.9	1.7
134.64	341.3	1.8
136.6	344.8	1.8
138.57	348	1.8
140.54	351.4	1.8
142.51	354.8	1.8
144.48	358.2	1.8
146.45	361.5	1.9
148.41	365	1.9
150.38	368.2	1.9
152.35	371.7	1.9
154.32	375	1.9
155.25	376.4	1.9
157.33	380.2	1.9
159.29	383.4	2
161.26	387	2
163.22	390.1	2
165.19	393.6	2
167.15	397.2	2
169.11	400.7	2
171.07	404.1	2.1
173.03	407.6	2.1
174.98	411.2	2.1
176.93	414.8	2.1
178.88	418.4	2.1
180.83	422.1	2.2
182.78	426	2.2
184.72	430	2.2
186.66	434	2.2
188.59	438.2	2.2
190.52	442.2	2.3
192.45	446.2	2.3
194.38	450.4	2.3
196.3	455.3	2.3
198.22	460.2	2.3
200.13	465.1	2.4
202.1	470.5	2.4
204.12	476.2	2.4
206.13	482	2.4
208.14	487.2	2.5
210.15	491.5	2.5
212.15	495.6	2.5
214.15	500.9	2.5
216.13	507	2.6
218.12	513.6	2.6
220.09	520.6	2.6
222.05	528.2	2.7
224	536.2	2.7
225.95	545.3	2.8
227.87	555.4	2.8
229.79	567	2.9
231.68	580.6	2.9
233.56	594.7	3
235.42	610.3	3.1
237.26	624.9	3.2
239.07	641	3.2
240.86	665.1	3.4
242.62	694.9	3.5
244.33	733.6	3.7
245.99	789	4.1
247.56	885.2	4.6

System: 1-decyl-3-methylimidazolium bis(trifluoromethylsulfonyl)amide; phases: Crystal 1
Fixed: Pressure, kPa = 101.325
Property: Molar heat capacity at constant pressure, J/K/mol (Crystal 1); method: Small (less than 1 g) adiabatic calorimetry
Temperature, K	Molar heat capacity at constant pressure, J/K/mol	uncertainty
249.01	1053	7
250.61	627.9	4
252.45	620.8	3.1
254.29	629.9	3.2
256.12	642.5	3.2
257.94	658.6	3.3
259.72	680.3	3.4
261.48	710	3.6
263.19	751.8	3.8
264.85	795.1	4
266.46	822.8	4.1
268.04	872.1	4.5
269.56	972.8	5

System: 1-decyl-3-methylimidazolium bis(trifluoromethylsulfonyl)amide; phases: Liquid
Fixed: Pressure, kPa = 101.325
Property: Molar heat capacity at constant pressure, J/K/mol (Liquid); method: Small (less than 1 g) adiabatic calorimetry
Temperature, K	Molar heat capacity at constant pressure, J/K/mol	uncertainty
263.96	730.6	3.7
265.87	731.7	3.7
267.69	733	3.7
269.51	734.3	3.7
271.33	735.9	3.7
273.16	736.9	3.7
274.98	738.2	3.7
276.81	739.4	3.7
278.63	740.6	3.7
280.45	741.8	3.7
282.28	743.2	3.7
284.1	744.5	3.7
285.92	745.7	3.7
287.75	746.9	3.7
289.57	748.4	3.8
291.4	749.8	3.8
293.22	750.8	3.8
295.05	752.4	3.8
296.87	753.9	3.8
298.69	755.1	3.8
278.84	741.1	3.7
280.56	742.3	3.7
282.28	742.8	3.7
284	744.4	3.7
285.72	745.6	3.7
287.44	747.1	3.7
289.16	747.9	3.7
290.88	749.4	3.8
292.6	750.6	3.8
294.32	751.9	3.8
296.04	753.2	3.8
297.77	754.3	3.8
299.49	755.7	3.8
301.26	757.2	3.8
303.08	758.7	3.8
304.91	759.9	3.8
306.73	761.3	3.8
308.56	762.8	3.8
310.38	764.3	3.8
312.21	765.5	3.8
314.03	766.8	3.8
315.86	768.4	3.8
317.69	769.8	3.9
319.51	771.1	3.9
321.34	772.8	3.9
323.17	774.3	3.9
324.99	775.7	3.9
326.82	777.2	3.9
328.64	778.5	3.9
330.47	779.9	3.9
332.29	781.6	3.9
334.12	783.1	3.9
335.95	784.6	3.9
337.77	786	3.9
339.6	787.5	3.9
341.42	788.9	3.9
343.25	789.9	4
345.08	791.3	4
346.91	793.1	4
348.74	794.8	4
350.57	796.5	4
352.4	797.8	4
354.23	799.5	4
356.06	801.2	4
357.89	802.8	4
359.72	804.3	4
361.55	806	4
363.37	807.7	4
365.2	809.1	4
367.03	810.8	4.1
368.86	812.7	4.1

System: 1-tetradecyl-3-methylimidazolium bis(trifluoromethylsulfonyl)imide; phases: Liquid, Gas
Property: Vapor or sublimation pressure, kPa (Liquid); method: Calculated from knudsen effusion weight loss
Temperature, K	Vapor or sublimation pressure, kPa	uncertainty
498.07	2.76e-05	1.7e-06
503.06	3.85e-05	2.4e-06
508.05	5.39e-05	3.3e-06
513.05	7.45e-05	4.6e-06
518.04	0.0001018	6.2e-06
523.05	0.0001397	8.6e-06
528.05	0.0001898	1.16e-05

System: 1-tetradecyl-3-methylimidazolium bis(trifluoromethylsulfonyl)imide; phases: Crystal 2, Crystal 1, Gas
Property: Triple point temperature, K (Crystal 2); method: Adiabatic calorimetry
Triple point temperature, K	uncertainty
295.5	0.4

System: 1-tetradecyl-3-methylimidazolium bis(trifluoromethylsulfonyl)imide; phases: Crystal 1, Liquid, Gas
Property: Triple point temperature, K (Crystal 1); method: Adiabatic calorimetry
Triple point temperature, K	uncertainty
308.77	0.05

System: 1-tetradecyl-3-methylimidazolium bis(trifluoromethylsulfonyl)imide; phases: Crystal 2, Crystal 1, Gas
Property: Molar enthalpy of transition or fusion, kJ/mol (Crystal 2); method: Adiabatic calorimetry
Molar enthalpy of transition or fusion, kJ/mol	uncertainty
0	1

System: 1-tetradecyl-3-methylimidazolium bis(trifluoromethylsulfonyl)imide; phases: Crystal 1, Liquid, Gas
Property: Molar enthalpy of transition or fusion, kJ/mol (Crystal 1); method: Adiabatic calorimetry
Molar enthalpy of transition or fusion, kJ/mol	uncertainty
45.18	0.1

System: 1-tetradecyl-3-methylimidazolium bis(trifluoromethylsulfonyl)imide; phases: Crystal 2
Fixed: Pressure, kPa = 101.325
Property: Molar heat capacity at constant pressure, J/K/mol (Crystal 2); method: Small (less than 1 g) adiabatic calorimetry
Temperature, K	Molar heat capacity at constant pressure, J/K/mol	uncertainty
5	3.43	0.11
10	17.94	0.35
15	38.56	0.54
20	61.41	0.6
25	84.18	0.7
30	105.9	0.6
35	126.4	0.7
40	145.8	0.8
45	164.1	1
50	181.5	1
60	213.6	1.2
70	242.6	1.4
80	269.2	1.5
90	293.7	1.5
100	316.7	1.7
110	338.4	1.8
120	358.8	1.8
130	378.6	1.9
140	397.8	2
150	416.6	2.2
160	435.3	2.2
170	454.1	2.3
180	473.1	2.4
190	492.5	2.5
200	512.7	2.6
210	533.6	2.7
220	556	2.8
230	580.3	2.9
240	607.6	3
250	639.3	3.3
260	677.5	3.4
270	734.5	3.7
280	830.5	4.1
290	1046	5
295.5	1155	6

System: 1-tetradecyl-3-methylimidazolium bis(trifluoromethylsulfonyl)imide; phases: Crystal 2
Fixed: Pressure, kPa = 101.325
Property: Molar entropy, J/K/mol (Crystal 2); method: Small (less than 1 g) adiabatic calorimetry
Temperature, K	Molar entropy, J/K/mol	uncertainty
5	1.17	0.06
10	7.53	0.25
15	18.57	0.5
20	32.77	0.7
25	48.94	0.84
30	66.22	0.87
35	84.11	1.02
40	102.3	1.1
45	120.5	1.3
50	138.7	1.5
60	174.7	1.7
70	209.8	2.1
80	244	2.3
90	277.1	2.4
100	309.3	2.7
110	340.5	2.9
120	370.8	3.1
130	400.3	3.3
140	429.1	3.5
150	457.2	3.8
160	484.6	4
170	511.6	4.2
180	538.1	4.4
190	564.2	4.6
200	589.9	4.8
210	615.5	4.9
220	640.8	5.1
230	666	5.3
240	691.3	5.5
250	716.7	5.7
260	742.5	5.9
270	769.1	6
280	797.3	6.2
290	829.7	6.4
295.5	850.6	6.6

System: 1-tetradecyl-3-methylimidazolium bis(trifluoromethylsulfonyl)imide; phases: Crystal 2
Fixed: Pressure, kPa = 101.325
Property: Molar enthalpy function {Hm(T)-Hm(0)}/T, J/K/mol (Crystal 2); method: Small (less than 1 g) adiabatic calorimetry
Temperature, K	Molar enthalpy function {Hm(T)-Hm(0)}/T, J/K/mol	uncertainty
5	0.88	0.04
10	5.44	0.13
15	12.93	0.23
20	22.18	0.29
25	32.32	0.34
30	42.79	0.34
35	53.29	0.39
40	63.66	0.44
45	73.81	0.48
50	83.71	0.54
60	102.7	0.7
70	120.7	0.7
80	137.6	0.8
90	153.6	0.8
100	168.8	0.9
110	183.2	1
120	197	1.1
130	210.2	1.2
140	222.9	1.2
150	235.2	1.3
160	247.1	1.3
170	258.8	1.3
180	270.1	1.4
190	281.3	1.4
200	292.4	1.5
210	303.4	1.6
220	314.3	1.7
230	325.4	1.7
240	336.5	1.8
250	348	1.8
260	359.9	1.8
270	372.7	1.9
280	387.1	2
290	405.6	2.1
295.5	418.8	2.2

System: 1-tetradecyl-3-methylimidazolium bis(trifluoromethylsulfonyl)imide; phases: Crystal 1
Fixed: Pressure, kPa = 101.325
Property: Molar heat capacity at constant pressure, J/K/mol (Crystal 1); method: Small (less than 1 g) adiabatic calorimetry
Temperature, K	Molar heat capacity at constant pressure, J/K/mol	uncertainty
295.5	1155	6
298.15	971.6	5
300	851.8	4.4
308.77	898.6	4.5

System: 1-tetradecyl-3-methylimidazolium bis(trifluoromethylsulfonyl)imide; phases: Crystal 1
Fixed: Pressure, kPa = 101.325
Property: Molar entropy, J/K/mol (Crystal 1); method: Small (less than 1 g) adiabatic calorimetry
Temperature, K	Molar entropy, J/K/mol	uncertainty
295.5	850.6	6.6
298.15	860.5	6.8
300	866	6.8
308.77	891.2	7

System: 1-tetradecyl-3-methylimidazolium bis(trifluoromethylsulfonyl)imide; phases: Crystal 1
Fixed: Pressure, kPa = 101.325
Property: Molar enthalpy function {Hm(T)-Hm(0)}/T, J/K/mol (Crystal 1); method: Small (less than 1 g) adiabatic calorimetry
Temperature, K	Molar enthalpy function {Hm(T)-Hm(0)}/T, J/K/mol	uncertainty
295.5	418.8	2.2
298.15	424.9	2.2
300	427.7	2.2
308.77	440.4	2.3

System: 1-tetradecyl-3-methylimidazolium bis(trifluoromethylsulfonyl)imide; phases: Liquid
Fixed: Pressure, kPa = 101.325
Property: Molar heat capacity at constant pressure, J/K/mol (Liquid); method: Small (less than 1 g) adiabatic calorimetry
Temperature, K	Molar heat capacity at constant pressure, J/K/mol	uncertainty
308.77	896.2	4.5
310	897.4	4.5
320	907.2	4.5
330	917	4.6
340	926.7	4.6
350	936.5	4.6
360	946.2	4.7
370	956	4.7

System: 1-tetradecyl-3-methylimidazolium bis(trifluoromethylsulfonyl)imide; phases: Liquid
Fixed: Pressure, kPa = 101.325
Property: Molar entropy, J/K/mol (Liquid); method: Small (less than 1 g) adiabatic calorimetry
Temperature, K	Molar entropy, J/K/mol	uncertainty
308.77	1037	8
310	1041	8
320	1070	9
330	1098	9
340	1125	9
350	1152	9
360	1179	9
370	1205	9

System: 1-tetradecyl-3-methylimidazolium bis(trifluoromethylsulfonyl)imide; phases: Liquid
Fixed: Pressure, kPa = 101.325
Property: Molar enthalpy function {Hm(T)-Hm(0)}/T, J/K/mol (Liquid); method: Small (less than 1 g) adiabatic calorimetry
Temperature, K	Molar enthalpy function {Hm(T)-Hm(0)}/T, J/K/mol	uncertainty
308.77	586.7	3
310	587.9	3
320	597.8	3
330	607.3	3
340	616.5	3.1
350	625.5	3.1
360	634.3	3.2
370	642.9	3.3

System: 1-tetradecyl-3-methylimidazolium bis(trifluoromethylsulfonyl)imide; phases: Crystal 2
Fixed: Pressure, kPa = 101.325
Property: Molar heat capacity at constant pressure, J/K/mol (Crystal 2); method: Small (less than 1 g) adiabatic calorimetry
Temperature, K	Molar heat capacity at constant pressure, J/K/mol	uncertainty
81.2	272.4	1.5
83.19	277.4	1.5
85.17	281.5	1.6
87.16	286.5	1.6
89.15	291.4	1.6
91.14	296.2	1.5
93.13	301	1.6
95.13	305.5	1.6
97.13	310.1	1.6
99.14	314.6	1.6
101.15	319.3	1.7
103.16	324	1.7
105.16	328.1	1.7
107.17	332.6	1.7
109.18	336.8	1.7
111.2	340.6	1.8
113.23	345	1.8
115.25	349.2	1.8
117.27	353.4	1.8
119.3	357.4	1.8
121.32	361.5	1.9
123.35	365.5	1.9
125.83	370.4	1.9
128.64	376	1.9
131.38	381.2	2
134.13	386.5	2
136.88	391.8	2
139.62	397	2
142.37	402.3	2.1
145.12	407.7	2.1
147.86	412.6	2.1
150.61	418	2.1
153.36	423.1	2.2
156.12	428.1	2.2
158.87	433.3	2.2
161.63	438.6	2.2
164.38	443.7	2.3
167.13	448.7	2.3
169.88	453.9	2.3
172.63	459.1	2.3
175.38	464.4	2.4
178.12	469.7	2.4
180.86	474.8	2.4
183.59	479.9	2.4
186.32	485.4	2.5
189.04	490.7	2.5
191.77	496.1	2.5
194.49	501.3	2.5
197.2	507	2.6
199.91	512.5	2.6
202.62	518.2	2.6
205.33	523.7	2.7
208.03	529.6	2.7
210.73	535.2	2.7
213.42	540.9	2.7
216.12	547	2.8
218.8	552.9	2.8
221.49	559.3	2.8
224.17	565.7	2.9
226.84	572.3	2.9
229.5	579.5	2.9
232.15	586.6	3
234.8	593.8	3
237.44	600.9	3
240.07	608	3.1
242.71	616.1	3.1
245.33	624.4	3.1
247.95	632.9	3.2
250.55	642.1	3.2
253.15	651.7	3.3
255.74	660.9	3.3
258.31	671.7	3.4
260.86	683.4	3.4
263.41	696	3.5
265.94	709.4	3.6
268.46	725	3.6
270.95	741.9	3.7
273.42	761.2	3.8
275.87	783.5	3.9
278.29	809.7	4.1
280.67	840.7	4.2
283.02	878.3	4.4
285.31	923.3	4.6
287.56	977.1	4.9
289.75	1039	5
291.87	1102	6
293.96	1145	6
124.9	368.4	1.9
127.42	373.3	1.9
129.89	378.2	1.9
132.35	383	2
134.81	387.8	2
137.28	392.5	2
139.75	397.2	2
142.22	402.1	2.1
144.69	406.6	2.1
147.16	411.2	2.1
149.63	415.9	2.1
152.1	420.5	2.1
154.57	425.1	2.2
157.05	429.7	2.2
159.52	434.5	2.2
161.99	439.1	2.2
164.46	443.6	2.3
166.93	448.2	2.3
169.4	453	2.3
171.87	457.5	2.3
174.33	462.3	2.4
176.79	467	2.4
179.25	471.5	2.4
181.71	476.2	2.4
184.16	480.9	2.4
186.61	485.8	2.5
189.07	490.4	2.5
191.51	495.2	2.5
193.95	500	2.5
196.39	504.9	2.6
198.82	509.9	2.6
201.26	515.7	2.6
203.7	520.6	2.6
206.13	525.4	2.7
208.56	530.7	2.7
210.99	535.9	2.7
213.42	541.2	2.7
215.85	546.3	2.8
218.27	551.8	2.8
220.69	557.4	2.8
223.1	562.9	2.8
225.52	568.8	2.9
227.93	575.1	2.9
230.33	581.3	2.9
232.74	587.7	3
235.14	593.7	3
237.53	600.1	3
239.92	607.2	3.1
242.33	613.8	3.1
244.72	621.4	3.1
247.1	629.1	3.2
249.48	637	3.2
251.33	642.4	3.2
252.65	648	3.3
253.97	653.1	3.3
255.29	657.1	3.3
256.6	662.4	3.3
257.91	667.6	3.4
259.22	673.8	3.4
260.52	679.4	3.4
261.81	685.8	3.4
263.1	692.1	3.5
264.39	699.3	3.5
265.67	706.4	3.5
266.97	713.8	3.6
268.24	721.6	3.6
269.5	730	3.7
270.76	739.3	3.7
272.01	748.9	3.8
273.25	759	3.8
274.48	769.6	3.9
275.71	781.6	3.9
276.93	793.6	4
278.14	807.6	4
279.35	822	4.1
280.54	837.6	4.2
281.72	855	4.3
282.9	874.3	4.4
284.05	895.5	4.5
285.2	918.1	4.6
286.34	943.8	4.7
287.46	972.2	4.9
288.56	1003	5
289.65	1034	5
290.72	1067	5
291.76	1097	6
292.8	1118	6
293.83	1139	6
294.85	1153	6
4.89	3.21	0.09
5.1	3.64	0.1
5.39	4.23	0.12
5.69	4.88	0.13
6	5.63	0.15
6.34	6.47	0.17
6.73	7.47	0.19
7.11	8.54	0.22
7.5	9.67	0.24
7.9	10.86	0.27
8.3	12.12	0.3
8.7	13.43	0.33
9.11	14.79	0.36
9.52	16.21	0.39
9.93	17.69	0.42
10.45	19.63	0.31
11.1	22.1	0.35
11.75	24.67	0.38
12.39	27.32	0.42
13.04	30.06	0.45
13.7	32.85	0.49
14.36	35.72	0.52
15.02	38.63	0.56
15.8	42.14	0.6
16.7	46.22	0.65
17.61	50.37	0.7
18.51	54.57	0.75
19.42	58.74	0.79
20.33	62.84	0.6
21.54	68.49	0.64
23.07	75.56	0.67
24.61	82.47	0.7
26.14	89.18	0.72
27.68	95.96	0.73
29.23	102.6	0.7
30.94	110.1	0.6
32.82	117.9	0.7
34.72	125.4	0.7
36.61	132.8	0.8
38.5	140.1	0.8
40.39	147.2	0.8
42.38	154.5	0.9
44.49	162.2	0.9
46.6	169.8	1
48.71	177.1	1
50.83	184.3	1
52.96	191.2	1.1
55.08	198	1.1
57.2	204.8	1.1
59.33	211.5	1.2
61.45	218	1.2
63.59	224.5	1.2
65.72	230.7	1.3
67.86	236.8	1.3
70.01	242.5	1.3
72.16	248.4	1.4
74.3	254.1	1.4
76.46	260.1	1.4
78.61	266.1	1.5
80.77	271.8	1.5
82.94	276.6	1.5
85.13	281.8	1.6

System: 1-tetradecyl-3-methylimidazolium bis(trifluoromethylsulfonyl)imide; phases: Crystal 1
Fixed: Pressure, kPa = 101.325
Property: Molar heat capacity at constant pressure, J/K/mol (Crystal 1); method: Small (less than 1 g) adiabatic calorimetry
Temperature, K	Molar heat capacity at constant pressure, J/K/mol	uncertainty
296	1156	6
298.13	971.7	5.6
300.42	852.5	4.3
302.77	884.7	4.5
304.97	1130	9
295.86	1154	6
296.87	1144	6
297.93	998.8	5.7
299.06	853.3	4.4
300.22	854.4	4.3
301.39	866.6	4.3
302.54	889.6	4.5
303.68	937.6	5.1
304.77	1081	7
305.73	1438	11

System: 3-hexadecyl-1-methyl-1H-imidazolium bis((trifluoromethyl)sulfonyl)amide; phases: Crystal 2, Crystal 1, Gas
Property: Triple point temperature, K (Crystal 2); method: Adiabatic calorimetry
Triple point temperature, K	uncertainty
305.5	0.5

System: 3-hexadecyl-1-methyl-1H-imidazolium bis((trifluoromethyl)sulfonyl)amide; phases: Crystal 1, Liquid, Gas
Property: Triple point temperature, K (Crystal 1); method: Adiabatic calorimetry
Triple point temperature, K	uncertainty
319.25	0.05

System: 3-hexadecyl-1-methyl-1H-imidazolium bis((trifluoromethyl)sulfonyl)amide; phases: Crystal 2, Crystal 1, Gas
Property: Molar enthalpy of transition or fusion, kJ/mol (Crystal 2); method: Adiabatic calorimetry
Molar enthalpy of transition or fusion, kJ/mol	uncertainty
0	1

System: 3-hexadecyl-1-methyl-1H-imidazolium bis((trifluoromethyl)sulfonyl)amide; phases: Crystal 1, Liquid, Gas
Property: Molar enthalpy of transition or fusion, kJ/mol (Crystal 1); method: Adiabatic calorimetry
Molar enthalpy of transition or fusion, kJ/mol	uncertainty
51.28	0.24

System: 3-hexadecyl-1-methyl-1H-imidazolium bis((trifluoromethyl)sulfonyl)amide; phases: Crystal 2
Fixed: Pressure, kPa = 101.325
Property: Molar heat capacity at constant pressure, J/K/mol (Crystal 2); method: Small (less than 1 g) adiabatic calorimetry
Temperature, K	Molar heat capacity at constant pressure, J/K/mol	uncertainty
5	3.58	0.11
10	18.51	0.36
15	39.66	0.56
20	63.15	0.61
25	86.78	0.72
30	109.7	0.6
35	131.4	0.7
40	151.7	0.9
45	171.3	1
50	190	1.1
60	224.6	1.3
70	255.9	1.4
80	284.5	1.5
90	310.8	1.6
100	335.5	1.7
110	358.8	1.8
120	380.5	1.9
130	401.4	2
140	421.7	2.2
150	441.5	2.3
160	461.2	2.3
170	480.8	2.4
180	500.5	2.5
190	520.4	2.6
200	540.8	2.8
210	562.3	2.8
220	585	2.9
230	609.3	3
240	635.6	3.2
250	665.4	3.4
260	700.6	3.5
270	745.5	3.8
280	806.6	4
290	909.7	4.5
298.15	1084	5
300	1146	6
305.5	1274	6

System: 3-hexadecyl-1-methyl-1H-imidazolium bis((trifluoromethyl)sulfonyl)amide; phases: Crystal 2
Fixed: Pressure, kPa = 101.325
Property: Molar entropy, J/K/mol (Crystal 2); method: Small (less than 1 g) adiabatic calorimetry
Temperature, K	Molar entropy, J/K/mol	uncertainty
5	1.23	0.06
10	7.81	0.26
15	19.15	0.51
20	33.76	0.72
25	50.4	0.87
30	68.27	0.9
35	86.83	1.04
40	105.7	1.2
45	124.7	1.3
50	143.7	1.5
60	181.5	1.8
70	218.5	2.1
80	254.6	2.4
90	289.6	2.5
100	323.6	2.8
110	356.7	3.1
120	388.9	3.3
130	420.2	3.5
140	450.7	3.7
150	480.4	4
160	509.6	4.2
170	538.1	4.4
180	566.1	4.6
190	593.7	4.8
200	621	5
210	647.9	5.1
220	674.5	5.3
230	701.1	5.5
240	727.5	5.7
250	754.1	6
260	780.8	6.2
270	808.1	6.4
280	836.2	6.6
290	866.1	6.8
298.15	893.4	7
300	900.3	7
305.5	922.5	7.2

System: 3-hexadecyl-1-methyl-1H-imidazolium bis((trifluoromethyl)sulfonyl)amide; phases: Crystal 2
Fixed: Pressure, kPa = 101.325
Property: Molar enthalpy function {Hm(T)-Hm(0)}/T, J/K/mol (Crystal 2); method: Small (less than 1 g) adiabatic calorimetry
Temperature, K	Molar enthalpy function {Hm(T)-Hm(0)}/T, J/K/mol	uncertainty
5	0.92	0.04
10	5.63	0.13
15	13.32	0.23
20	22.83	0.31
25	33.26	0.35
30	44.11	0.35
35	55.05	0.4
40	65.87	0.45
45	76.5	0.5
50	86.92	0.55
60	107	0.7
70	126.1	0.7
80	144.1	0.8
90	161.2	0.9
100	177.4	1
110	192.9	1.1
120	207.6	1.2
130	221.7	1.2
140	235.3	1.3
150	248.4	1.3
160	261	1.4
170	273.4	1.4
180	285.5	1.5
190	297.3	1.6
200	309	1.6
210	320.5	1.7
220	332	1.7
230	343.5	1.8
240	355.2	1.8
250	367	1.9
260	379.1	1.9
270	391.8	2
280	405.4	2.1
290	420.9	2.2
298.15	436.3	2.3
300	440.5	2.3
305.5	454.5	2.3

System: 3-hexadecyl-1-methyl-1H-imidazolium bis((trifluoromethyl)sulfonyl)amide; phases: Crystal 1
Fixed: Pressure, kPa = 101.325
Property: Molar heat capacity at constant pressure, J/K/mol (Crystal 1); method: Small (less than 1 g) adiabatic calorimetry
Temperature, K	Molar heat capacity at constant pressure, J/K/mol	uncertainty
305.5	1274	6
310	1229	6
319.25	1044	5

System: 3-hexadecyl-1-methyl-1H-imidazolium bis((trifluoromethyl)sulfonyl)amide; phases: Crystal 1
Fixed: Pressure, kPa = 101.325
Property: Molar entropy, J/K/mol (Crystal 1); method: Small (less than 1 g) adiabatic calorimetry
Temperature, K	Molar entropy, J/K/mol	uncertainty
305.5	922.5	7.2
310	941	7.3
319.25	971.3	7.5

System: 3-hexadecyl-1-methyl-1H-imidazolium bis((trifluoromethyl)sulfonyl)amide; phases: Crystal 1
Fixed: Pressure, kPa = 101.325
Property: Molar enthalpy function {Hm(T)-Hm(0)}/T, J/K/mol (Crystal 1); method: Small (less than 1 g) adiabatic calorimetry
Temperature, K	Molar enthalpy function {Hm(T)-Hm(0)}/T, J/K/mol	uncertainty
305.5	454.5	2.3
310	466.3	2.4
319.25	482.6	2.4

System: 3-hexadecyl-1-methyl-1H-imidazolium bis((trifluoromethyl)sulfonyl)amide; phases: Liquid
Fixed: Pressure, kPa = 101.325
Property: Molar heat capacity at constant pressure, J/K/mol (Liquid); method: Small (less than 1 g) adiabatic calorimetry
Temperature, K	Molar heat capacity at constant pressure, J/K/mol	uncertainty
319.25	972	5
320	972	5
330	981	5
340	990	5
350	1000	5
360	1010	5
370	1022	5

System: 3-hexadecyl-1-methyl-1H-imidazolium bis((trifluoromethyl)sulfonyl)amide; phases: Liquid
Fixed: Pressure, kPa = 101.325
Property: Molar entropy, J/K/mol (Liquid); method: Small (less than 1 g) adiabatic calorimetry
Temperature, K	Molar entropy, J/K/mol	uncertainty
319.25	1132	9
320	1134	9
330	1164	9
340	1194	9
350	1222	9
360	1251	9
370	1279	9

System: 3-hexadecyl-1-methyl-1H-imidazolium bis((trifluoromethyl)sulfonyl)amide; phases: Liquid
Fixed: Pressure, kPa = 101.325
Property: Molar enthalpy function {Hm(T)-Hm(0)}/T, J/K/mol (Liquid); method: Small (less than 1 g) adiabatic calorimetry
Temperature, K	Molar enthalpy function {Hm(T)-Hm(0)}/T, J/K/mol	uncertainty
319.25	643.2	3.3
320	644	3.3
330	654.1	3.3
340	663.8	3.4
350	673.2	3.4
360	682.5	3.4
370	691.5	3.5

System: 3-hexadecyl-1-methyl-1H-imidazolium bis((trifluoromethyl)sulfonyl)amide; phases: Liquid, Gas
Property: Vapor or sublimation pressure, kPa (Liquid); method: Calculated from knudsen effusion weight loss
Temperature, K	Vapor or sublimation pressure, kPa	uncertainty
508.07	3.21e-05	2e-06
513.07	4.5e-05	2.8e-06
518.07	6.31e-05	3.9e-06
523.07	8.75e-05	5.4e-06
528.06	0.0001197	7.3e-06
533.07	0.0001644	1.01e-05

System: 3-hexadecyl-1-methyl-1H-imidazolium bis((trifluoromethyl)sulfonyl)amide; phases: Crystal 2
Fixed: Pressure, kPa = 101.325
Property: Molar heat capacity at constant pressure, J/K/mol (Crystal 2); method: Small (less than 1 g) adiabatic calorimetry
Temperature, K	Molar heat capacity at constant pressure, J/K/mol	uncertainty
80.57	286.3	1.6
82.48	291.2	1.6
84.4	296.1	1.6
86.33	301.2	1.7
88.27	306.3	1.7
90.22	311.2	1.6
92.18	316.2	1.6
94.15	321.1	1.7
96.13	326.1	1.7
98.11	331	1.7
100.1	335.8	1.7
102.15	340.8	1.8
104.27	345.7	1.8
106.4	350.6	1.8
108.54	355.4	1.8
110.68	360.3	1.9
112.83	365	1.9
114.99	369.8	1.9
117.15	374.5	1.9
119.31	379.2	1.9
121.48	383.7	2
123.65	388.2	2
125.82	392.8	2
128	397.3	2
130.17	401.7	2.1
132.35	406.2	2.1
134.53	410.6	2.1
136.71	415	2.1
138.9	419.3	2.1
141.08	423.7	2.2
143.27	428.1	2.2
145.46	432.5	2.2
147.65	436.9	2.2
149.84	441.2	2.2
152.03	445.6	2.3
154.22	449.8	2.3
156.4	454.1	2.3
158.59	458.5	2.3
160.78	462.8	2.4
162.97	467.2	2.4
165.16	471.4	2.4
167.34	475.7	2.4
169.53	479.8	2.4
171.71	484.1	2.5
173.9	488.4	2.5
176.08	492.8	2.5
178.26	497.1	2.5
180.45	501.5	2.5
182.63	505.9	2.6
184.82	510.1	2.6
187	514.3	2.6
189.17	518.6	2.6
191.35	523.1	2.6
193.52	527.5	2.7
195.69	531.7	2.7
197.86	536.3	2.7
200.02	540.9	2.7
202.25	545.6	2.8
204.54	550.5	2.8
206.82	555.5	2.8
209.11	560.4	2.8
211.39	565.4	2.9
213.67	570.5	2.9
215.95	575.6	2.9
218.21	580.9	2.9
220.48	586.3	3
222.74	591.8	3
225	597.1	3
227.25	602.4	3
229.5	607.7	3.1
231.74	613.5	3.1
233.97	619.4	3.1
236.21	625.3	3.1
238.43	631.2	3.2
240.65	637.6	3.2
242.87	643.5	3.2
245.08	650	3.3
247.28	657	3.3
249.47	663.5	3.3
251.67	671.1	3.4
253.85	678.2	3.4
256.03	685.8	3.4
258.19	693.5	3.5
260.35	701.7	3.5
262.5	710.5	3.6
264.64	719.9	3.6
266.77	729.9	3.7
268.89	740.5	3.7
271	751.1	3.8
273.1	761.1	3.8
275.18	773.4	3.9
277.25	786.9	3.9
279.3	801	4
281.34	816.9	4.1
283.37	834.5	4.2
285.38	853.3	4.3
287.36	875.7	4.4
289.32	901.5	4.5
291.26	930.9	4.7
293.16	965	4.8
295.02	1004	5
296.85	1050	5
298.63	1103	6
300.36	1161	6
302.1	1219	6
303.84	1262	6
293.07	958.5	4.8
293.61	968.5	4.8
294.12	978.5	4.9
294.63	990.3	5
295.14	1002	5
295.64	1014	5
296.14	1027	5
296.64	1039	5
297.14	1053	5
297.63	1068	5
298.11	1082	5
298.6	1098	6
299.08	1113	6
299.55	1129	6
300.03	1146	6
300.49	1161	6
300.96	1177	6
301.42	1193	6
301.88	1207	6
302.34	1222	6
302.79	1235	6
303.24	1248	6
303.69	1253	6
304.13	1267	6
304.58	1271	6
305.02	1273	6
305.47	1274	6
5.4	4.43	0.12
5.7	5.11	0.14
6.07	6	0.16
6.51	7.15	0.18
7.03	8.58	0.22
7.55	10.13	0.25
8.08	11.79	0.29
8.61	13.56	0.33
9.15	15.43	0.37
9.69	17.38	0.41
10.24	19.41	0.31
10.84	21.73	0.34
11.53	24.47	0.38
12.23	27.33	0.42
12.92	30.31	0.46
13.62	33.36	0.5
14.33	36.54	0.54
15.04	39.85	0.58
15.87	43.67	0.62
16.8	48.11	0.68
17.74	52.48	0.73
18.67	56.86	0.77
19.62	61.3	0.82
20.86	67.23	0.64
22.4	74.52	0.67
23.97	81.98	0.71
25.53	89.27	0.73
27.13	96.62	0.75
28.72	103.9	0.8
30.29	111.1	0.7
32.02	118.8	0.7
33.92	126.8	0.7
35.82	134.8	0.8
37.72	142.5	0.8
39.62	150	0.9
41.61	158	0.9
43.71	166.2	0.9
45.8	174.3	1
47.91	182.4	1
50.02	190.2	1.1
52.13	197.8	1.1
54.23	205.2	1.1
56.35	212.4	1.2
58.48	219.5	1.2
60.6	226.5	1.3
62.72	233.3	1.3
64.85	240.1	1.3
66.98	246.6	1.4
69.1	253.2	1.4
71.33	259.9	1.4
73.67	266.6	1.5
76.02	273.4	1.5
78.38	280	1.5
80.73	286.6	1.6
83.09	292.8	1.6

System: 3-hexadecyl-1-methyl-1H-imidazolium bis((trifluoromethyl)sulfonyl)amide; phases: Crystal 1
Fixed: Pressure, kPa = 101.325
Property: Molar heat capacity at constant pressure, J/K/mol (Crystal 1); method: Small (less than 1 g) adiabatic calorimetry
Temperature, K	Molar heat capacity at constant pressure, J/K/mol	uncertainty
305.56	1278	6
307.28	1272	7
309.01	1254	6
310.81	1097	18
312.73	995.5	5
314.68	1051	5
316.51	1261	7
305.91	1275	6
306.36	1271	6
306.8	1269	6
307.24	1268	7
307.69	1266	6
308.14	1261	6
308.58	1257	6
309.03	1251	6
309.48	1242	6
309.93	1229	6
310.39	1187	7
310.86	1054	18
311.36	989.7	5.1
311.88	984.4	4.9
312.39	986.1	4.9
312.9	992	4.9
313.41	997.9	5
313.91	1011	5
314.42	1032	5

System: 3-hexadecyl-1-methyl-1H-imidazolium bis((trifluoromethyl)sulfonyl)amide; phases: Liquid
Fixed: Pressure, kPa = 101.325
Property: Molar heat capacity at constant pressure, J/K/mol (Liquid); method: Small (less than 1 g) adiabatic calorimetry
Temperature, K	Molar heat capacity at constant pressure, J/K/mol	uncertainty
321.02	972.6	4.8
322.92	974.4	4.9
324.82	975.6	4.9
326.72	977.3	4.9
328.62	979.7	4.9
330.52	981.4	4.9
332.43	982.6	4.9
334.33	984.4	4.9
336.23	986.1	4.9
338.13	988.5	4.9
340.03	990.3	4.9
341.93	991.4	4.9
343.84	993.8	5
345.74	995	5
347.64	996.7	5
349.55	999.7	5
351.45	1001	5
353.35	1003	5
355.25	1006	5
357.16	1007	5
359.06	1009	5
360.96	1011	5
362.86	1013	5
364.75	1015	5
366.65	1018	5
368.55	1020	5
320.76	972.6	4.8
322.55	974.4	4.9
324.34	976.2	4.9
326.13	977.9	4.9
327.92	978.5	4.9
329.71	980.3	4.9
331.5	982	4.9
333.29	983.8	4.9
335.08	985.6	4.9
336.87	986.7	4.9
338.66	989.1	4.9
340.45	990.3	4.9
342.24	992	4.9
344.04	993.2	4.9
345.83	995	5
347.62	997.3	5
349.41	998.5	5
351.2	1000	5
353	1003	5
354.79	1004	5
356.58	1007	5
358.37	1009	5
360.16	1011	5
361.95	1013	5
363.74	1014	5
365.52	1016	5
367.31	1018	5
