Measured thermophysical data. Experimental investigation on CO2 absorption capacity and viscosity for high concentrated 1-dimethylamino-2-propanol-monoethanolamine aqueous blends
Source: J. Chem. Thermodyn., 2019, 10.1016/j.jct.2019.07.007
Compound 1: 1-(dimethylamino)-2-propanol, C5H13NO, InChI=1S/C5H13NO/c1-5(7)4-6(2)3/h5,7H,4H2,1-3H3, purity 98%
Compound 2: 2-aminoethan-1-ol, C2H7NO, InChI=1S/C2H7NO/c3-1-2-4/h4H,1-3H2, purity 99.5%
Compound 3: carbon dioxide, CO2, InChI=1S/CO2/c2-1-3, purity 99.99%
Compound 4: water, H2O, InChI=1S/H2O/h1H2, purity 99.9%

System: carbon dioxide + 1-(dimethylamino)-2-propanol + water; phases: Liquid, Gas
Fixed: Pressure, kPa = 101
Property: Mass ratio of solute to solvent of carbon dioxide (Liquid); method: CO2 Analyzer
Temperature, K	Solvent: Mass fraction of 1-(dimethylamino)-2-propanol	Mass ratio of solute to solvent of carbon dioxide	uncertainty
303.2	0.3	0.1112	0.0066
303.2	0.4	0.1446	0.0064
303.2	0.5	0.1701	0.0062
313.2	0.3	0.1079	0.0064
313.2	0.4	0.1375	0.0063
313.2	0.5	0.1612	0.0061
323.2	0.3	0.1024	0.0062
323.2	0.4	0.128	0.0061
323.2	0.5	0.1502	0.0061

System: carbon dioxide + 1-(dimethylamino)-2-propanol + water; phases: Liquid, Gas
Property: Mole fraction of carbon dioxide (Liquid); method: CO2 Analyzer
Temperature, K	Solvent: Mass fraction of 1-(dimethylamino)-2-propanol	Pressure, kPa of carbon dioxide	Mole fraction of carbon dioxide	uncertainty
313.2	0.3108	78.3	0.79	0.06

System: 1-(dimethylamino)-2-propanol + 2-aminoethan-1-ol + water; phases: Liquid
Fixed: Pressure, kPa = 101
Property: Viscosity, Pa*s (Liquid); method: Concentric cylinders viscometry
Mass fraction of 1-(dimethylamino)-2-propanol	Temperature, K	Mass fraction of 2-aminoethan-1-ol	Viscosity, Pa*s	uncertainty
0.3	303.2	0	0.0031	0.00025
0.3	303.2	0.05	0.00358	0.00028
0.3	303.2	0.1	0.00434	0.00029
0.3	303.2	0.15	0.00508	0.0003
0.3	313.2	0	0.00218	0.00022
0.3	313.2	0.05	0.0026	0.00026
0.3	313.2	0.1	0.00303	0.00026
0.3	313.2	0.15	0.0034	0.00026
0.3	323.2	0	0.00166	0.00021
0.3	323.2	0.05	0.00196	0.00025
0.3	323.2	0.1	0.00223	0.00025
0.3	323.2	0.15	0.00247	0.00025
0.4	303.2	0	0.00456	0.00028
0.4	303.2	0.05	0.00508	0.00027
0.4	303.2	0.1	0.0059	0.00039
0.4	303.2	0.15	0.00676	0.00027
0.4	313.2	0	0.00308	0.00022
0.4	313.2	0.05	0.00345	0.00026
0.4	313.2	0.1	0.00392	0.00026
0.4	313.2	0.15	0.00445	0.00027
0.4	323.2	0	0.00219	0.00022
0.4	323.2	0.05	0.00241	0.00024
0.4	323.2	0.1	0.00277	0.00026
0.4	323.2	0.15	0.00316	0.00025
0.5	303.2	0	0.00601	0.00025
0.5	303.2	0.05	0.00653	0.0003
0.5	303.2	0.1	0.00736	0.00029
0.5	303.2	0.15	0.0081	0.00029
0.5	313.2	0	0.00396	0.00024
0.5	313.2	0.05	0.00431	0.00027
0.5	313.2	0.1	0.00488	0.00028
0.5	313.2	0.15	0.00547	0.00029
0.5	323.2	0	0.00279	0.00021
0.5	323.2	0.05	0.00298	0.00025
0.5	323.2	0.1	0.00334	0.00025
0.5	323.2	0.15	0.00366	0.00025

System: 1-(dimethylamino)-2-propanol + water; phases: Liquid
Fixed: Pressure, kPa = 101
Property: Viscosity, Pa*s (Liquid); method: Concentric cylinders viscometry
Mass fraction of 1-(dimethylamino)-2-propanol	Temperature, K	Viscosity, Pa*s	uncertainty
0.3	303.2	0.0031	0.00025
0.3	313.2	0.00218	0.00022
0.3	323.2	0.00166	0.00021
0.4	303.2	0.00456	0.00028
0.4	313.2	0.00308	0.00022
0.4	323.2	0.00219	0.0002
0.5	303.2	0.00601	0.00025
0.5	313.2	0.00396	0.00024
0.5	323.2	0.00279	0.00021
