Measured thermophysical data. (Vapour + liquid) equilibrium data for the azeotropic {1,1-difluoroethane  (R152a) + 1,1,2,2-Tetrafluoroethane (R134)} system at various temperatures from (258.150 to 288.150) K
Source: J. Chem. Thermodyn., 2012, 10.1016/j.jct.2012.03.022
Compound 1: 1,1-difluoroethane, C2H4F2, InChI=1S/C2H4F2/c1-2(3)4/h2H,1H3, purity 99.9%
Compound 2: 1,1,2,2-tetrafluoroethane, C2H2F4, InChI=1S/C2H2F4/c3-1(4)2(5)6/h1-2H, purity 99.5%

System: 1,1-difluoroethane; phases: Liquid, Gas
Property: Vapor or sublimation pressure, kPa (Liquid); method: Closed cell (Static) method
Temperature, K	Vapor or sublimation pressure, kPa	uncertainty
258.15	148.6	1
268.15	219.4	1.1
278.15	314.1	1.1
288.15	437.8	1.2

System: 1,1-difluoroethane + 1,1,2,2-tetrafluoroethane; phases: Liquid, Gas
Property: Azeotropic pressure, kPa (Liquid); method: By X=Y
Temperature, K	Azeotropic pressure, kPa	uncertainty
258.15	124.3	1.2
268.15	186.2	1.4
278.15	270.5	1.6
288.15	381.4	2

System: 1,1-difluoroethane + 1,1,2,2-tetrafluoroethane; phases: Liquid, Gas
Property: Azeotropic composition: mole fraction of 1,1-difluoroethane (Liquid); method: By X=Y
Temperature, K	Azeotropic composition: mole fraction of 1,1-difluoroethane	uncertainty
258.15	0.146	0.01
268.15	0.166	0.01
278.15	0.156	0.01
288.15	0.163	0.01

System: 1,1-difluoroethane + 1,1,2,2-tetrafluoroethane; phases: Liquid, Gas
Property: Vapor or sublimation pressure, kPa (Liquid); method: Closed cell (Static) method
Mole fraction of 1,1-difluoroethane	Temperature, K	Vapor or sublimation pressure, kPa	uncertainty
0	258.15	125.2	1.1
0	268.15	187	1.2
0	278.15	271.3	1.3
0	288.15	382.9	1.5
0.062	268.15	186.5	1.3
0.062	278.15	270.8	1.3
0.062	288.15	382.3	1.5
0.09	258.15	124.5	1.1
0.09	268.15	186.3	1.2
0.09	278.15	270.5	1.4
0.091	288.15	381.5	1.5
0.145	268.15	186.3	1.2
0.145	278.15	270.5	1.3
0.146	258.15	124.1	1.1
0.146	288.15	381.5	1.5
0.218	258.15	124.6	1.1
0.221	268.15	186.3	1.2
0.221	278.15	270.5	1.3
0.222	288.15	381.5	1.5
0.355	258.15	125.5	1.1
0.357	288.15	383.9	1.6
0.358	268.15	187.6	1.2
0.358	278.15	272.4	1.3
0.398	268.15	188.4	2.1
0.572	288.15	393.9	1.6
0.574	268.15	193.6	1.2
0.576	258.15	129.8	1.1
0.576	278.15	280.6	1.4
0.698	288.15	403.6	1.9
0.699	258.15	134.1	1.2
0.699	278.15	287.9	1.5
0.7	268.15	199.6	1.3
1	258.15	148.6	1.1
1	268.15	219.4	1.2
1	278.15	314.1	1.4
1	288.15	437.8	1.6

System: 1,1-difluoroethane + 1,1,2,2-tetrafluoroethane; phases: Gas, Liquid
Property: Mole fraction of 1,1-difluoroethane (Gas); method: Chromatography
Mole fraction of 1,1-difluoroethane	Temperature, K	Mole fraction of 1,1-difluoroethane	uncertainty
0	258.15	0	
0	268.15	0	
0	278.15	0	
0	288.15	0	
0.062	268.15	0.06	0.014
0.062	278.15	0.06	0.014
0.062	288.15	0.06	0.014
0.09	258.15	0.089	0.014
0.09	268.15	0.089	0.014
0.09	278.15	0.089	0.014
0.091	288.15	0.088	0.014
0.145	268.15	0.145	0.015
0.145	278.15	0.144	0.014
0.146	258.15	0.147	0.015
0.146	288.15	0.144	0.014
0.218	258.15	0.223	0.015
0.221	268.15	0.227	0.015
0.221	278.15	0.225	0.015
0.222	288.15	0.224	0.015
0.355	258.15	0.379	0.015
0.357	288.15	0.372	0.015
0.358	268.15	0.377	0.015
0.358	278.15	0.375	0.015
0.398	268.15	0.423	0.015
0.572	288.15	0.605	0.015
0.574	268.15	0.608	0.015
0.576	258.15	0.617	0.015
0.576	278.15	0.608	0.015
0.698	288.15	0.735	0.014
0.699	258.15	0.752	0.014
0.699	278.15	0.742	0.014
0.7	268.15	0.745	0.014
1	258.15	1	
1	268.15	1	
1	278.15	1	
1	288.15	1	
