Measured thermophysical data. Thermodynamic study of (alkyl esters + a,x-alkyl dihalides) II: HE m and V E m for 25 binary mixtures {xCu-1H2u-1CO2C2H5 + (1 - x)a,x-BrCH2(CH2)v-2CH2Br}, where u = 1 to 5, a = 1 and v = x = 2 to 6
Source: J. Chem. Thermodyn., 2006, 10.1016/j.jct.2005.07.009
Compound 1: ethyl butanoate, C6H12O2, InChI=1S/C6H12O2/c1-3-5-6(7)8-4-2/h3-5H2,1-2H3
Compound 2: ethyl pentanoate, C7H14O2, InChI=1S/C7H14O2/c1-3-5-6-7(8)9-4-2/h3-6H2,1-2H3
Compound 3: 1,2-dibromoethane, C2H4Br2, InChI=1S/C2H4Br2/c3-1-2-4/h1-2H2, purity 99%
Compound 4: 1,3-dibromopropane, C3H6Br2, InChI=1S/C3H6Br2/c4-2-1-3-5/h1-3H2, purity 99%
Compound 5: 1,4-dibromobutane, C4H8Br2, InChI=1S/C4H8Br2/c5-3-1-2-4-6/h1-4H2, purity 99%
Compound 6: 1,5-dibromopentane, C5H10Br2, InChI=1S/C5H10Br2/c6-4-2-1-3-5-7/h1-5H2, purity 97%
Compound 7: 1,6-dibromohexane, C6H12Br2, InChI=1S/C6H12Br2/c7-5-3-1-2-4-6-8/h1-6H2, purity 97%
Compound 8: ethyl methanoate, C3H6O2, InChI=1S/C3H6O2/c1-2-5-3-4/h3H,2H2,1H3
Compound 9: ethyl acetate, C4H8O2, InChI=1S/C4H8O2/c1-3-6-4(2)5/h3H2,1-2H3
Compound 10: ethyl propanoate, C5H10O2, InChI=1S/C5H10O2/c1-3-5(6)7-4-2/h3-4H2,1-2H3

System: 1,2-dibromoethane; phases: Liquid
Property: Refractive index (Na D-line) (Liquid); method: Standard Abbe refractometry
Temperature, K	Pressure, kPa	Refractive index (Na D-line)	uncertainty
298.15	101.325	1.5357	0.0008

System: 1,2-dibromoethane; phases: Liquid
Property: Mass density, kg/m3 (Liquid); method: Vibrating tube method
Temperature, K	Pressure, kPa	Mass density, kg/m3	uncertainty
295.15	101.325	2168.3	1.27

System: 1,3-dibromopropane; phases: Liquid
Property: Refractive index (Na D-line) (Liquid); method: Standard Abbe refractometry
Temperature, K	Pressure, kPa	Refractive index (Na D-line)	uncertainty
298.15	101.325	1.5204	0.0008

System: 1,3-dibromopropane; phases: Liquid
Property: Mass density, kg/m3 (Liquid); method: Vibrating tube method
Temperature, K	Pressure, kPa	Mass density, kg/m3	uncertainty
295.15	101.325	1970.25	1.14

System: 1,4-dibromobutane; phases: Liquid
Property: Refractive index (Na D-line) (Liquid); method: Standard Abbe refractometry
Temperature, K	Pressure, kPa	Refractive index (Na D-line)	uncertainty
298.15	101.325	1.5163	0.0008

System: 1,4-dibromobutane; phases: Liquid
Property: Mass density, kg/m3 (Liquid); method: Vibrating tube method
Temperature, K	Pressure, kPa	Mass density, kg/m3	uncertainty
295.15	101.325	1819.44	1.03

System: 1,5-dibromopentane; phases: Liquid
Property: Refractive index (Na D-line) (Liquid); method: Standard Abbe refractometry
Temperature, K	Pressure, kPa	Refractive index (Na D-line)	uncertainty
298.15	101.325	1.5099	0.0009

System: 1,5-dibromopentane; phases: Liquid
Property: Mass density, kg/m3 (Liquid); method: Vibrating tube method
Temperature, K	Pressure, kPa	Mass density, kg/m3	uncertainty
295.15	101.325	1694.09	2.65

System: 1,6-dibromohexane; phases: Liquid
Property: Refractive index (Na D-line) (Liquid); method: Standard Abbe refractometry
Temperature, K	Pressure, kPa	Refractive index (Na D-line)	uncertainty
298.15	101.325	1.506	0.0009

System: 1,6-dibromohexane; phases: Liquid
Property: Mass density, kg/m3 (Liquid); method: Vibrating tube method
Temperature, K	Pressure, kPa	Mass density, kg/m3	uncertainty
295.15	101.325	1601.8	2.5

System: 1,2-dibromoethane + ethyl methanoate; phases: Liquid
Fixed: Pressure, kPa = 101
Fixed: Temperature, K = 298.15
Property: Excess molar enthalpy (molar enthalpy of mixing), kJ/mol (Liquid); method: CALVET:UFactor:2
Mole fraction of ethyl methanoate	Excess molar enthalpy (molar enthalpy of mixing), kJ/mol	uncertainty
0.0568	0.1197	0.0039
0.1289	0.2184	0.0063
0.1965	0.2947	0.0081
0.2654	0.3604	0.0097
0.3304	0.4004	0.0107
0.3922	0.4153	0.0111
0.4464	0.4134	0.011
0.497	0.404	0.0108
0.5357	0.3929	0.0105
0.5433	0.375	0.0101
0.5813	0.3711	0.01
0.5831	0.3416	0.0093
0.6341	0.3416	0.0093
0.6895	0.3019	0.0083
0.7525	0.2492	0.007
0.8186	0.191	0.0056
0.8841	0.1331	0.0043
0.9442	0.0671	0.0028

System: 1,2-dibromoethane + ethyl methanoate; phases: Liquid
Fixed: Pressure, kPa = 101
Fixed: Temperature, K = 298.15
Property: Mass density, kg/m3 (Liquid); method: Vibrating tube method
Mole fraction of ethyl methanoate	Mass density, kg/m3	uncertainty
0.062	2094.82	1.46
0.1228	2022.36	1.64
0.1867	1945.54	1.82
0.2494	1869.83	1.99
0.3088	1797.46	2.14
0.366	1727.27	2.27
0.4251	1654.13	2.39
0.4893	1574.29	2.5
0.5444	1505.3	2.55
0.6044	1429.44	2.59
0.6588	1360.3	2.61
0.7175	1285.15	2.62
0.8304	1138.86	2.58
0.8871	1064.61	2.54
0.9405	994.23	2.49

System: 1,3-dibromopropane + ethyl methanoate; phases: Liquid
Fixed: Pressure, kPa = 101
Fixed: Temperature, K = 298.15
Property: Excess molar enthalpy (molar enthalpy of mixing), kJ/mol (Liquid); method: CALVET:UFactor:2
Mole fraction of ethyl methanoate	Excess molar enthalpy (molar enthalpy of mixing), kJ/mol	uncertainty
0.0727	0.1762	0.0053
0.1458	0.3018	0.0083
0.2104	0.4011	0.0107
0.2886	0.4733	0.0125
0.3588	0.5136	0.0134
0.4253	0.5284	0.0138
0.4828	0.5237	0.0137
0.5358	0.5105	0.0134
0.5812	0.4868	0.0128
0.6324	0.4548	0.012
0.6925	0.4037	0.0108
0.7529	0.3393	0.0092
0.8177	0.2594	0.0073
0.882	0.1731	0.0052
0.9449	0.0879	0.0032

System: 1,3-dibromopropane + ethyl methanoate; phases: Liquid
Fixed: Pressure, kPa = 101
Fixed: Temperature, K = 298.15
Property: Mass density, kg/m3 (Liquid); method: Vibrating tube method
Mole fraction of ethyl methanoate	Mass density, kg/m3	uncertainty
0.0717	1908.92	1.35
0.1454	1844.11	1.56
0.2149	1781.28	1.76
0.2791	1721.26	1.92
0.3468	1656.48	2.09
0.4099	1594.33	2.23
0.4685	1534.98	2.34
0.5893	1407.8	2.5
0.6459	1345.63	2.54
0.6988	1285.95	2.57
0.7521	1224.47	2.58
0.8028	1164.26	2.57
0.8548	1101.12	2.55
0.9056	1037.67	2.52

System: ethyl methanoate + 1,4-dibromobutane; phases: Liquid
Fixed: Pressure, kPa = 101
Fixed: Temperature, K = 298.15
Property: Excess molar enthalpy (molar enthalpy of mixing), kJ/mol (Liquid); method: CALVET:UFactor:2
Mole fraction of ethyl methanoate	Excess molar enthalpy (molar enthalpy of mixing), kJ/mol	uncertainty
0.0799	0.2295	0.0065
0.1652	0.3752	0.0101
0.2469	0.4937	0.013
0.3246	0.5666	0.0147
0.397	0.6055	0.0157
0.4607	0.6217	0.0161
0.5109	0.6154	0.0159
0.5179	0.6188	0.016
0.5525	0.6077	0.0157
0.5649	0.5985	0.0155
0.5973	0.5863	0.0152
0.6082	0.5739	0.0149
0.6459	0.5499	0.0143
0.6929	0.5056	0.0133
0.7514	0.431	0.0114
0.8051	0.3543	0.0096
0.8598	0.2574	0.0072
0.9121	0.1583	0.0049
0.9614	0.0594	0.0026

System: ethyl methanoate + 1,4-dibromobutane; phases: Liquid
Fixed: Pressure, kPa = 101
Fixed: Temperature, K = 298.15
Property: Mass density, kg/m3 (Liquid); method: Vibrating tube method
Mole fraction of ethyl methanoate	Mass density, kg/m3	uncertainty
0.0952	1765.32	1.31
0.1744	1716.81	1.54
0.2604	1660.33	1.78
0.3295	1611.72	1.96
0.4012	1557.95	2.13
0.4668	1505.48	2.28
0.5355	1446.96	2.4
0.5888	1398.87	2.47
0.6436	1346.56	2.53
0.6981	1291.4	2.57
0.7934	1186.14	2.6
0.9238	1023.59	2.52
0.9623	970.42	2.47

System: ethyl methanoate + 1,5-dibromopentane; phases: Liquid
Fixed: Pressure, kPa = 101
Fixed: Temperature, K = 298.15
Property: Excess molar enthalpy (molar enthalpy of mixing), kJ/mol (Liquid); method: CALVET:UFactor:2
Mole fraction of ethyl methanoate	Excess molar enthalpy (molar enthalpy of mixing), kJ/mol	uncertainty
0.0896	0.2756	0.0077
0.1866	0.4531	0.012
0.279	0.5793	0.0151
0.3638	0.6559	0.0169
0.4389	0.6964	0.0179
0.5051	0.7081	0.0182
0.5631	0.6943	0.0179
0.6125	0.6619	0.0171
0.6372	0.6402	0.0165
0.6548	0.6233	0.0161
0.6837	0.5958	0.0155
0.6928	0.5827	0.0151
0.7324	0.5339	0.0139
0.7827	0.4516	0.0119
0.831	0.3682	0.0099
0.8797	0.2719	0.0076
0.9254	0.1612	0.0049
0.966	0.0568	0.0025

System: ethyl methanoate + 1,5-dibromopentane; phases: Liquid
Fixed: Pressure, kPa = 101
Fixed: Temperature, K = 298.15
Property: Mass density, kg/m3 (Liquid); method: Vibrating tube method
Mole fraction of ethyl methanoate	Mass density, kg/m3	uncertainty
0.089	1651.25	2.74
0.1775	1605.2	2.81
0.2567	1560.84	2.87
0.3412	1509.84	2.91
0.4134	1463.17	2.94
0.5374	1374.43	2.95
0.7024	1237.83	2.87
0.7951	1149.61	2.78
0.8844	1054.85	2.65
0.9227	1010.83	2.58

System: ethyl methanoate + 1,6-dibromohexane; phases: Liquid
Fixed: Pressure, kPa = 101
Fixed: Temperature, K = 298.15
Property: Excess molar enthalpy (molar enthalpy of mixing), kJ/mol (Liquid); method: CALVET:UFactor:2
Mole fraction of ethyl methanoate	Excess molar enthalpy (molar enthalpy of mixing), kJ/mol	uncertainty
0.1027	0.0187	0.0019
0.2124	0.5317	0.0139
0.3116	0.6744	0.0174
0.4024	0.7563	0.0194
0.4766	0.7939	0.0203
0.547	0.7944	0.0203
0.6032	0.7667	0.0196
0.6673	0.7072	0.0182
0.7137	0.6425	0.0166
0.7608	0.5696	0.0148
0.8062	0.4701	0.0124
0.852	0.3738	0.0101
0.8953	0.2691	0.0075
0.9357	0.1649	0.005
0.9691	0.0809	0.0031

System: ethyl methanoate + 1,6-dibromohexane; phases: Liquid
Fixed: Pressure, kPa = 101
Fixed: Temperature, K = 298.15
Property: Mass density, kg/m3 (Liquid); method: Vibrating tube method
Mole fraction of ethyl methanoate	Mass density, kg/m3	uncertainty
0.1144	1557.48	2.62
0.2023	1519.96	2.7
0.2923	1477.74	2.77
0.3593	1443.52	2.81
0.5084	1357.33	2.86
0.571	1316.38	2.87
0.6288	1275.6	2.86
0.6788	1237.72	2.84
0.7728	1159.02	2.77
0.8233	1112.18	2.72
0.8545	1081.46	2.68
0.9003	1033.41	2.61

System: ethyl acetate + 1,6-dibromohexane; phases: Liquid
Fixed: Pressure, kPa = 101
Fixed: Temperature, K = 298.15
Property: Excess molar enthalpy (molar enthalpy of mixing), kJ/mol (Liquid); method: CALVET:UFactor:2
Mole fraction of ethyl acetate	Excess molar enthalpy (molar enthalpy of mixing), kJ/mol	uncertainty
0.0852	0.135	0.0043
0.179	0.2159	0.0062
0.2657	0.2693	0.0075
0.3506	0.3091	0.0085
0.4238	0.3309	0.009
0.489	0.3372	0.0092
0.5186	0.334	0.0091
0.5344	0.3315	0.009
0.5598	0.3265	0.0089
0.6031	0.3075	0.0084
0.6495	0.2831	0.0078
0.7011	0.2543	0.0072
0.7507	0.2184	0.0063
0.8025	0.1802	0.0054
0.8542	0.138	0.0044
0.9062	0.0925	0.0033
0.9578	0.0443	0.0023

System: ethyl acetate + 1,6-dibromohexane; phases: Liquid
Fixed: Pressure, kPa = 101
Fixed: Temperature, K = 298.15
Property: Mass density, kg/m3 (Liquid); method: Vibrating tube method
Mole fraction of ethyl acetate	Mass density, kg/m3	uncertainty
0.1101	1558.02	2.61
0.2056	1515.22	2.7
0.2841	1476.78	2.75
0.3679	1432.01	2.8
0.4348	1393.28	2.83
0.5035	1350.27	2.85
0.623	1266.72	2.83
0.733	1177.88	2.77
0.8165	1101.03	2.68
0.8582	1059.17	2.63
0.8988	1015.65	2.56
0.9703	932.2	2.42

System: 1,5-dibromopentane + ethyl acetate; phases: Liquid
Fixed: Pressure, kPa = 101
Fixed: Temperature, K = 298.15
Property: Excess molar enthalpy (molar enthalpy of mixing), kJ/mol (Liquid); method: CALVET:UFactor:2
Mole fraction of ethyl acetate	Excess molar enthalpy (molar enthalpy of mixing), kJ/mol	uncertainty
0.0775	0.1082	0.0037
0.1619	0.1802	0.0054
0.2431	0.2346	0.0067
0.3197	0.2674	0.0075
0.3909	0.2828	0.0078
0.4536	0.2822	0.0078
0.5079	0.2752	0.0077
0.5103	0.2729	0.0076
0.5486	0.2604	0.0073
0.5612	0.2592	0.0073
0.5934	0.2474	0.007
0.6025	0.2416	0.0068
0.6413	0.2217	0.0064
0.6919	0.1916	0.0056
0.7451	0.1567	0.0048
0.7998	0.119	0.0039
0.8546	0.0827	0.0031
0.9082	0.05	0.0024
0.9563	0.0221	0.002

System: 1,5-dibromopentane + ethyl acetate; phases: Liquid
Fixed: Pressure, kPa = 101
Fixed: Temperature, K = 298.15
Property: Mass density, kg/m3 (Liquid); method: Vibrating tube method
Mole fraction of ethyl acetate	Mass density, kg/m3	uncertainty
0.0866	1642.62	2.72
0.1624	1595.36	2.77
0.2251	1554.67	2.8
0.2991	1504.62	2.83
0.3623	1460.11	2.85
0.4225	1416.21	2.86
0.5458	1321	2.85
0.6601	1225.85	2.79
0.765	1131.91	2.7
0.8611	1039.57	2.58
0.9561	941.92	2.43

System: 1,4-dibromobutane + ethyl acetate; phases: Liquid
Fixed: Pressure, kPa = 101
Fixed: Temperature, K = 298.15
Property: Excess molar enthalpy (molar enthalpy of mixing), kJ/mol (Liquid); method: CALVET:UFactor:2
Mole fraction of ethyl acetate	Excess molar enthalpy (molar enthalpy of mixing), kJ/mol	uncertainty
0.0724	0.1082	0.0037
0.1477	0.1745	0.0052
0.2228	0.2159	0.0062
0.2954	0.2339	0.0067
0.3654	0.2353	0.0067
0.4273	0.225	0.0064
0.4836	0.2079	0.006
0.5346	0.1871	0.0055
0.5727	0.165	0.005
0.6226	0.1375	0.0044
0.6702	0.1108	0.0037
0.7257	0.0859	0.0032
0.7826	0.06	0.0026
0.8416	0.0388	0.0022
0.8982	0.0218	0.0019
0.9516	0.0101	0.0018

System: 1,4-dibromobutane + ethyl acetate; phases: Liquid
Fixed: Pressure, kPa = 101
Fixed: Temperature, K = 298.15
Property: Mass density, kg/m3 (Liquid); method: Vibrating tube method
Mole fraction of ethyl acetate	Mass density, kg/m3	uncertainty
0.0713	1763.64	1.23
0.1362	1711.83	1.41
0.2057	1654.85	1.59
0.2657	1604.71	1.74
0.3922	1495.44	2.02
0.4539	1440.32	2.14
0.5154	1384.15	2.24
0.5749	1328.61	2.31
0.683	1224.74	2.4
0.7406	1167.52	2.43
0.7867	1121.03	2.44
0.8486	1057.13	2.44
0.9	1002.89	2.42
0.9494	949.81	2.4

System: 1,3-dibromopropane + ethyl acetate; phases: Liquid
Fixed: Pressure, kPa = 101
Fixed: Temperature, K = 298.15
Property: Excess molar enthalpy (molar enthalpy of mixing), kJ/mol (Liquid); method: CALVET:UFactor:2
Mole fraction of ethyl acetate	Excess molar enthalpy (molar enthalpy of mixing), kJ/mol	uncertainty
0.0601	0.0547	0.0024
0.127	0.0934	0.0033
0.195	0.1235	0.004
0.2607	0.1394	0.0044
0.3258	0.1433	0.0045
0.3855	0.1388	0.0044
0.4407	0.1273	0.0041
0.4829	0.1134	0.0038
0.487	0.1126	0.0038
0.5298	0.0918	0.0033
0.5741	0.0706	0.0028
0.628	0.0457	0.0023
0.687	0.0222	0.0019
0.7498	0.0032	0.0016
0.8153	-0.0073	0.0017
0.8813	-0.0101	0.00176
0.9434	-0.0057	0.0017

System: 1,3-dibromopropane + ethyl acetate; phases: Liquid
Fixed: Pressure, kPa = 101
Fixed: Temperature, K = 298.15
Property: Mass density, kg/m3 (Liquid); method: Vibrating tube method
Mole fraction of ethyl acetate	Mass density, kg/m3	uncertainty
0.057	1910.48	1.29
0.1189	1845.49	1.47
0.1785	1782.59	1.63
0.2647	1691.31	1.84
0.3199	1632.54	1.97
0.4187	1526.9	2.17
0.466	1476.19	2.25
0.5091	1429.89	2.32
0.6323	1296.79	2.41
0.6746	1250.93	2.43
0.7715	1145.6	2.46
0.8309	1080.67	2.45
0.8892	1016.69	2.43
0.9615	937.08	2.39

System: 1,2-dibromoethane + ethyl acetate; phases: Liquid
Fixed: Pressure, kPa = 101
Fixed: Temperature, K = 298.15
Property: Excess molar enthalpy (molar enthalpy of mixing), kJ/mol (Liquid); method: CALVET:UFactor:2
Mole fraction of ethyl acetate	Excess molar enthalpy (molar enthalpy of mixing), kJ/mol	uncertainty
0.0529	0.0259	0.002
0.1142	0.0398	0.0022
0.1754	0.0463	0.0023
0.2376	0.0433	0.0022
0.2976	0.0379	0.0021
0.3548	0.0269	0.002
0.4086	0.0117	0.0018
0.4579	-0.0047	0.0016
0.5045	-0.0213	0.0019
0.536	-0.0344	0.0021
0.5453	-0.0367	0.0021
0.5935	-0.0555	0.0025
0.6556	-0.0699	0.0028
0.7113	-0.0736	0.0029
0.7914	-0.0672	0.0028
0.8635	-0.0499	0.0024
0.9367	-0.0252	0.002

System: 1,2-dibromoethane + ethyl acetate; phases: Liquid
Fixed: Pressure, kPa = 101
Fixed: Temperature, K = 298.15
Property: Mass density, kg/m3 (Liquid); method: Vibrating tube method
Mole fraction of ethyl acetate	Mass density, kg/m3	uncertainty
0.0526	2091.79	1.42
0.1032	2019.48	1.56
0.1562	1945.11	1.7
0.2107	1869.55	1.84
0.2686	1790.65	1.98
0.4371	1568.65	2.31
0.4987	1490.07	2.4
0.6182	1341.18	2.47
0.6799	1266.02	2.48
0.7399	1194.16	2.49
0.8065	1115.57	2.47
0.8705	1041.22	2.45
0.9341	968.46	2.41

System: ethyl propanoate + 1,2-dibromoethane; phases: Liquid
Fixed: Pressure, kPa = 101
Fixed: Temperature, K = 298.15
Property: Excess molar enthalpy (molar enthalpy of mixing), kJ/mol (Liquid); method: CALVET:UFactor:2
Mole fraction of ethyl propanoate	Excess molar enthalpy (molar enthalpy of mixing), kJ/mol	uncertainty
0.0408	0.0123	0.0017
0.0876	0.0231	0.0019
0.1399	0.0266	0.002
0.1925	0.0207	0.0019
0.2463	0.0052	0.0016
0.3001	-0.0207	0.0019
0.3515	-0.0478	0.0023
0.3996	-0.0756	0.0029
0.4154	-0.0859	0.0032
0.4446	-0.1007	0.0035
0.4644	-0.1154	0.0038
0.486	-0.1259	0.0041
0.522	-0.1445	0.0045
0.5865	-0.1602	0.0049
0.6595	-0.1556	0.0048
0.7397	-0.1383	0.0044
0.827	-0.1083	0.0037
0.9159	-0.0683	0.0028

System: ethyl propanoate + 1,2-dibromoethane; phases: Liquid
Fixed: Pressure, kPa = 101
Fixed: Temperature, K = 298.15
Property: Mass density, kg/m3 (Liquid); method: Vibrating tube method
Mole fraction of ethyl propanoate	Mass density, kg/m3	uncertainty
0.0479	2086.59	1.4
0.0959	2007.68	1.52
0.1904	1859.96	1.76
0.2852	1720.53	1.97
0.3448	1636.9	2.08
0.4532	1492.57	2.26
0.5156	1413.6	2.33
0.5836	1330.59	2.36
0.6423	1261.58	2.38
0.7044	1190.86	2.39
0.7717	1116.79	2.39
0.8366	1047.86	2.39
0.9155	967.12	2.37

System: ethyl propanoate + 1,3-dibromopropane; phases: Liquid
Fixed: Pressure, kPa = 101
Fixed: Temperature, K = 298.15
Property: Excess molar enthalpy (molar enthalpy of mixing), kJ/mol (Liquid); method: CALVET:UFactor:4
Mole fraction of ethyl propanoate	Excess molar enthalpy (molar enthalpy of mixing), kJ/mol	uncertainty
0.0471	0.0234	0.0038
0.1006	0.0364	0.0042
0.1564	0.0384	0.0043
0.2139	0.0329	0.0041
0.2707	0.0162	0.0036
0.3244	-0.0034	0.0032
0.3765	-0.0253	0.0039
0.4201	-0.0466	0.0046
0.4478	-0.0654	0.0051
0.4591	-0.0817	0.0056
0.493	-0.0604	0.025
0.4983	-0.0857	0.0058
0.5563	-0.1026	0.0063
0.6207	-0.1086	0.0065
0.6908	-0.1051	0.0064
0.7671	-0.0915	0.0059
0.8476	-0.0687	0.0052
0.9262	-0.0379	0.0043

System: ethyl propanoate + 1,3-dibromopropane; phases: Liquid
Fixed: Pressure, kPa = 101
Fixed: Temperature, K = 298.15
Property: Mass density, kg/m3 (Liquid); method: Vibrating tube method
Mole fraction of ethyl propanoate	Mass density, kg/m3	uncertainty
0.1075	1839.36	1.42
0.161	1775.98	1.56
0.2159	1711.67	1.69
0.2732	1645.81	1.83
0.3842	1520.67	2.05
0.4468	1451.66	2.16
0.5011	1392.66	2.24
0.5622	1327.28	2.29
0.6827	1201.05	2.36
0.7443	1137.95	2.37
0.8686	1013.23	2.38

System: ethyl propanoate + 1,4-dibromobutane; phases: Liquid
Fixed: Pressure, kPa = 101
Fixed: Temperature, K = 298.15
Property: Excess molar enthalpy (molar enthalpy of mixing), kJ/mol (Liquid); method: CALVET:UFactor:2
Mole fraction of ethyl propanoate	Excess molar enthalpy (molar enthalpy of mixing), kJ/mol	uncertainty
0.0536	0.0243	0.0019
0.1124	0.0384	0.0021
0.1759	0.0493	0.0023
0.2389	0.0498	0.0023
0.2996	0.0427	0.0022
0.357	0.0291	0.002
0.4101	0.0091	0.0017
0.4558	-0.0116	0.0018
0.4841	-0.0259	0.002
0.4948	-0.0309	0.0021
0.5354	-0.0502	0.0024
0.5917	-0.0657	0.0027
0.653	-0.0725	0.0029
0.72	-0.0726	0.0029
0.7905	-0.0629	0.0027
0.8639	-0.0461	0.0023
0.9353	-0.0257	0.002

System: ethyl propanoate + 1,4-dibromobutane; phases: Liquid
Fixed: Pressure, kPa = 101
Fixed: Temperature, K = 298.15
Property: Mass density, kg/m3 (Liquid); method: Vibrating tube method
Mole fraction of ethyl propanoate	Mass density, kg/m3	uncertainty
0.1225	1707.2	1.36
0.1797	1654.41	1.51
0.2372	1601.35	1.64
0.299	1544.11	1.79
0.3597	1488.19	1.91
0.479	1376.63	2.13
0.5912	1271.5	2.25
0.6516	1214.75	2.3
0.7649	1107.74	2.36
0.8159	1059.5	2.37
0.8793	999.28	2.37
0.9306	950.5	2.36

System: ethyl propanoate + 1,5-dibromopentane; phases: Liquid
Fixed: Pressure, kPa = 101
Fixed: Temperature, K = 298.15
Property: Excess molar enthalpy (molar enthalpy of mixing), kJ/mol (Liquid); method: CALVET:UFactor:2
Mole fraction of ethyl propanoate	Excess molar enthalpy (molar enthalpy of mixing), kJ/mol	uncertainty
0.0603	0.0351	0.0021
0.1247	0.0573	0.0025
0.193	0.0719	0.0028
0.261	0.0775	0.003
0.3249	0.0747	0.0029
0.3861	0.0634	0.0027
0.4412	0.0463	0.0023
0.4896	0.0293	0.002
0.5244	0.0158	0.0018
0.5365	0.0136	0.0018
0.5747	-0.003	0.0017
0.5773	-0.0044	0.0017
0.6302	-0.015	0.0018
0.6884	-0.022	0.0019
0.752	-0.0263	0.002
0.8187	-0.0241	0.002
0.8848	-0.0193	0.0019
0.9461	-0.0121	0.0018

System: ethyl propanoate + 1,5-dibromopentane; phases: Liquid
Fixed: Pressure, kPa = 101
Fixed: Temperature, K = 298.15
Property: Mass density, kg/m3 (Liquid); method: Vibrating tube method
Mole fraction of ethyl propanoate	Mass density, kg/m3	uncertainty
0.1344	1600.12	2.73
0.2009	1552.01	2.76
0.263	1506.12	2.78
0.3276	1457.5	2.79
0.3859	1412.68	2.8
0.4471	1364.74	2.8
0.5096	1314.84	2.79
0.6206	1223.48	2.73
0.6836	1170.2	2.69
0.7919	1075.76	2.59
0.8414	1031.42	2.54
0.8957	981.96	2.47

System: ethyl propanoate + 1,6-dibromohexane; phases: Liquid
Fixed: Pressure, kPa = 101
Fixed: Temperature, K = 298.15
Property: Excess molar enthalpy (molar enthalpy of mixing), kJ/mol (Liquid); method: CALVET:UFactor:2
Mole fraction of ethyl propanoate	Excess molar enthalpy (molar enthalpy of mixing), kJ/mol	uncertainty
0.0655	0.0441	0.0023
0.1421	0.0769	0.003
0.2176	0.0982	0.0034
0.2889	0.1096	0.0037
0.3565	0.1121	0.0038
0.4183	0.1066	0.0036
0.4746	0.0944	0.0034
0.5242	0.0786	0.003
0.5687	0.062	0.0026
0.5968	0.0523	0.0024
0.6497	0.0374	0.0022
0.7061	0.0253	0.002
0.7663	0.018	0.0019
0.8256	0.0129	0.0018
0.8846	0.0079	0.0017
0.9439	0.0029	0.0017

System: ethyl propanoate + 1,6-dibromohexane; phases: Liquid
Fixed: Pressure, kPa = 101
Fixed: Temperature, K = 298.15
Property: Mass density, kg/m3 (Liquid); method: Vibrating tube method
Mole fraction of ethyl propanoate	Mass density, kg/m3	uncertainty
0.0785	1558.6	2.56
0.1542	1515.02	2.61
0.223	1474.07	2.65
0.2897	1432.85	2.68
0.3566	1390.07	2.7
0.4169	1350.15	2.72
0.5364	1266.98	2.72
0.595	1224.16	2.7
0.6523	1181.7	2.68
0.7055	1139.41	2.64
0.7573	1097.77	2.6
0.8052	1058.09	2.56
0.8583	1012.69	2.51
0.9041	972.41	2.46

System: ethyl butanoate + 1,6-dibromohexane; phases: Liquid
Fixed: Pressure, kPa = 101
Fixed: Temperature, K = 298.15
Property: Excess molar enthalpy (molar enthalpy of mixing), kJ/mol (Liquid); method: CALVET:UFactor:2
Mole fraction of ethyl butanoate	Excess molar enthalpy (molar enthalpy of mixing), kJ/mol	uncertainty
0.0629	0.0274	0.002
0.1341	0.0438	0.0023
0.2059	0.0555	0.0025
0.2734	0.0584	0.0026
0.3411	0.0571	0.0025
0.4017	0.0519	0.0024
0.4524	0.0432	0.0023
0.4952	0.0333	0.0021
0.5312	0.0235	0.002
0.5662	0.0129	0.0018
0.6022	0.0008	0.00162
0.6161	-0.0015	0.0016
0.6589	-0.0089	0.0017
0.7115	-0.0127	0.0018
0.7699	-0.0153	0.0018
0.8324	-0.0145	0.0018
0.8956	-0.0089	0.0018
0.9514	-0.0037	0.0017

System: ethyl butanoate + 1,6-dibromohexane; phases: Liquid
Fixed: Pressure, kPa = 101
Fixed: Temperature, K = 298.15
Property: Mass density, kg/m3 (Liquid); method: Vibrating tube method
Mole fraction of ethyl butanoate	Mass density, kg/m3	uncertainty
0.0741	1554.45	2.54
0.1407	1511.27	2.58
0.2026	1470.35	2.6
0.2669	1427.12	2.62
0.3292	1384.45	2.64
0.4493	1300.05	2.64
0.5934	1194.98	2.61
0.6267	1170.08	2.6
0.6854	1125.55	2.57
0.7302	1091.1	2.55
0.7843	1048.89	2.51
0.8939	961.41	2.42

System: ethyl butanoate + 1,5-dibromopentane; phases: Liquid
Fixed: Pressure, kPa = 101
Fixed: Temperature, K = 298.15
Property: Excess molar enthalpy (molar enthalpy of mixing), kJ/mol (Liquid); method: CALVET:UFactor:2
Mole fraction of ethyl butanoate	Excess molar enthalpy (molar enthalpy of mixing), kJ/mol	uncertainty
0.0632	0.0228	0.0019
0.1296	0.0379	0.0022
0.1974	0.0489	0.0023
0.2617	0.0502	0.00238
0.3247	0.0439	0.0023
0.3843	0.0325	0.0021
0.4396	0.0195	0.0019
0.4909	0.0029	0.0016
0.5367	-0.01	0.0018
0.5745	-0.0214	0.0019
0.6072	-0.0275	0.002
0.6211	-0.0316	0.0021
0.6798	-0.0392	0.0022
0.7429	-0.0436	0.0023
0.8114	-0.0395	0.0022
0.878	-0.0291	0.0021
0.9431	-0.0149	0.0018

System: ethyl butanoate + 1,5-dibromopentane; phases: Liquid
Fixed: Pressure, kPa = 101
Fixed: Temperature, K = 298.15
Property: Mass density, kg/m3 (Liquid); method: Vibrating tube method
Mole fraction of ethyl butanoate	Mass density, kg/m3	uncertainty
0.059	1646.96	2.67
0.1242	1594.68	2.69
0.1821	1548	2.71
0.238	1502.9	2.72
0.3008	1451.99	2.72
0.4202	1354.48	2.71
0.5373	1258.57	2.68
0.5953	1210.74	2.65
0.6536	1162.53	2.62
0.7109	1115.08	2.58
0.7685	1067.15	2.54
0.8314	1014.81	2.48
0.8895	966.17	2.43

System: ethyl butanoate + 1,4-dibromobutane; phases: Liquid
Fixed: Pressure, kPa = 101
Fixed: Temperature, K = 298.15
Property: Excess molar enthalpy (molar enthalpy of mixing), kJ/mol (Liquid); method: CALVET:UFactor:2
Mole fraction of ethyl butanoate	Excess molar enthalpy (molar enthalpy of mixing), kJ/mol	uncertainty
0.0504	0.0224	0.0019
0.1096	0.0378	0.0021
0.173	0.0463	0.0023
0.2384	0.0469	0.0023
0.2992	0.0393	0.0022
0.3567	0.0254	0.002
0.4115	0.0013	0.0016
0.4617	-0.0214	0.0019
0.5078	-0.0408	0.0022
0.5351	-0.0531	0.0024
0.5479	-0.0556	0.0025
0.5908	-0.0659	0.0027
0.6504	-0.0717	0.0028
0.7147	-0.0718	0.0028
0.7818	-0.0658	0.0027
0.8513	-0.0521	0.0024
0.9352	-0.0251	0.002

System: ethyl butanoate + 1,4-dibromobutane; phases: Liquid
Fixed: Pressure, kPa = 101
Fixed: Temperature, K = 298.15
Property: Mass density, kg/m3 (Liquid); method: Vibrating tube method
Mole fraction of ethyl butanoate	Mass density, kg/m3	uncertainty
0.1092	1704.75	1.28
0.1651	1647.4	1.42
0.2725	1539.36	1.66
0.387	1427.18	1.88
0.4481	1368.56	1.98
0.502	1317.46	2.05
0.6423	1187.58	2.2
0.6846	1149.12	2.24
0.7489	1091.51	2.27
0.8041	1042.59	2.3
0.9323	931.23	2.31

System: ethyl butanoate + 1,3-dibromopropane; phases: Liquid
Fixed: Pressure, kPa = 101
Fixed: Temperature, K = 298.15
Property: Excess molar enthalpy (molar enthalpy of mixing), kJ/mol (Liquid); method: CALVET:UFactor:2
Mole fraction of ethyl butanoate	Excess molar enthalpy (molar enthalpy of mixing), kJ/mol	uncertainty
0.0406	0.0221	0.0019
0.0875	0.0343	0.0021
0.142	0.0379	0.0021
0.1949	0.0348	0.0021
0.2497	0.0241	0.0019
0.3027	0.0073	0.0017
0.3525	-0.0111	0.0017
0.4005	-0.0306	0.002
0.4399	-0.0456	0.0023
0.4453	-0.0477	0.0023
0.4914	-0.0625	0.0026
0.5444	-0.0715	0.0028
0.6028	-0.0776	0.003
0.6668	-0.0794	0.003
0.7369	-0.0774	0.003
0.8067	-0.0673	0.0028
0.8771	-0.0499	0.0024

System: ethyl butanoate + 1,3-dibromopropane; phases: Liquid
Fixed: Pressure, kPa = 101
Fixed: Temperature, K = 298.15
Property: Mass density, kg/m3 (Liquid); method: Vibrating tube method
Mole fraction of ethyl butanoate	Mass density, kg/m3	uncertainty
0.0436	1908.9	1.21
0.0835	1854.01	1.31
0.1381	1781.05	1.45
0.1859	1719.07	1.56
0.2926	1586.65	1.78
0.4637	1389.88	2.05
0.5238	1324.96	2.12
0.6494	1195.57	2.24
0.7131	1133.02	2.27
0.7811	1068.34	2.3
0.852	1003.1	2.32
0.9215	941.15	2.32

System: ethyl butanoate + 1,2-dibromoethane; phases: Liquid
Fixed: Pressure, kPa = 101
Fixed: Temperature, K = 298.15
Property: Excess molar enthalpy (molar enthalpy of mixing), kJ/mol (Liquid); method: CALVET:UFactor:2
Mole fraction of ethyl butanoate	Excess molar enthalpy (molar enthalpy of mixing), kJ/mol	uncertainty
0.0385	0.0209	0.0019
0.0839	0.0315	0.002
0.1324	0.0352	0.0021
0.1841	0.0326	0.0021
0.2355	0.0176	0.0018
0.2844	-0.0046	0.0016
0.3336	-0.0311	0.002
0.3803	-0.0547	0.0025
0.4245	-0.0729	0.0029
0.4313	-0.0759	0.0029
0.458	-0.0856	0.0031
0.5024	-0.0909	0.0033
0.5565	-0.0964	0.0034
0.6234	-0.0959	0.0034
0.6941	-0.0899	0.0033
0.7723	-0.0773	0.003
0.851	-0.059	0.0026
0.9264	-0.0336	0.0021

System: ethyl butanoate + 1,2-dibromoethane; phases: Liquid
Fixed: Pressure, kPa = 101
Fixed: Temperature, K = 298.15
Property: Mass density, kg/m3 (Liquid); method: Vibrating tube method
Mole fraction of ethyl butanoate	Mass density, kg/m3	uncertainty
0.08	2015.53	1.43
0.1235	1937.68	1.53
0.1689	1859.7	1.64
0.2131	1787.18	1.73
0.311	1637.22	1.91
0.3652	1559.91	1.99
0.424	1480.28	2.07
0.4807	1407.25	2.13
0.5444	1329.31	2.19
0.6754	1181.51	2.28
0.7549	1098.99	2.3
0.8227	1032.55	2.32
0.9026	958.45	2.32

System: 1,2-dibromoethane + ethyl pentanoate; phases: Liquid
Fixed: Pressure, kPa = 101
Fixed: Temperature, K = 298.15
Property: Excess molar enthalpy (molar enthalpy of mixing), kJ/mol (Liquid); method: CALVET:UFactor:2
Mole fraction of ethyl pentanoate	Excess molar enthalpy (molar enthalpy of mixing), kJ/mol	uncertainty
0.0286	0.0199	0.0019
0.0632	0.0314	0.002
0.103	0.0404	0.0022
0.1465	0.0433	0.0022
0.1918	0.0425	0.0022
0.2375	0.0355	0.0021
0.2837	0.0175	0.0018
0.3283	-0.0041	0.0016
0.3711	-0.0203	0.0019
0.4026	-0.0345	0.0021
0.4465	-0.0468	0.0023
0.4938	-0.0595	0.0026
0.5538	-0.0689	0.0028
0.6297	-0.0744	0.0029
0.7132	-0.0733	0.0029
0.8085	-0.0599	0.0026
0.9099	-0.0353	0.0021

System: 1,2-dibromoethane + ethyl pentanoate; phases: Liquid
Fixed: Pressure, kPa = 101
Fixed: Temperature, K = 298.15
Property: Mass density, kg/m3 (Liquid); method: Vibrating tube method
Mole fraction of ethyl pentanoate	Mass density, kg/m3	uncertainty
0.0379	2085.1	1.31
0.0766	2004.73	1.41
0.1567	1851.43	1.59
0.1993	1776.2	1.67
0.2427	1703.76	1.75
0.2945	1622.25	1.83
0.3695	1512.8	1.94
0.5222	1317.39	2.11
0.6601	1166.3	2.21
0.7313	1096.12	2.24
0.8119	1022.28	2.27
0.9074	941.5	2.29

System: 1,3-dibromopropane + ethyl pentanoate; phases: Liquid
Fixed: Pressure, kPa = 101
Fixed: Temperature, K = 298.15
Property: Excess molar enthalpy (molar enthalpy of mixing), kJ/mol (Liquid); method: CALVET:UFactor:2
Mole fraction of ethyl pentanoate	Excess molar enthalpy (molar enthalpy of mixing), kJ/mol	uncertainty
0.0175	0.0142	0.0018
0.0382	0.0258	0.002
0.0611	0.0353	0.0021
0.0911	0.0379	0.0021
0.1259	0.0386	0.0022
0.1645	0.0369	0.0021
0.205	0.0328	0.0021
0.247	0.0236	0.0019
0.2878	0.0084	0.0017
0.3293	-0.0101	0.0017
0.3706	-0.0262	0.002
0.4062	-0.0388	0.0022
0.4471	-0.0512	0.0024
0.4985	-0.0643	0.0027
0.5544	-0.0712	0.0028
0.6183	-0.076	0.0029
0.6862	-0.0787	0.003
0.7558	-0.0761	0.0029
0.8251	-0.0654	0.0027
0.8833	-0.0489	0.0024
0.946	-0.0252	0.002

System: 1,3-dibromopropane + ethyl pentanoate; phases: Liquid
Fixed: Pressure, kPa = 101
Fixed: Temperature, K = 298.15
Property: Mass density, kg/m3 (Liquid); method: Vibrating tube method
Mole fraction of ethyl pentanoate	Mass density, kg/m3	uncertainty
0.0408	1905.88	1.23
0.0868	1836.07	1.35
0.1296	1773.38	1.45
0.177	1707.11	1.56
0.273	1579.99	1.76
0.325	1515.4	1.85
0.3803	1449.57	1.95
0.437	1385.12	2.03
0.5197	1296	2.12
0.6902	1128.6	2.23
0.7601	1065.64	2.26
0.8344	1001.96	2.28
0.9163	935.2	2.29

System: 1,4-dibromobutane + ethyl pentanoate; phases: Liquid
Fixed: Pressure, kPa = 101
Fixed: Temperature, K = 298.15
Property: Excess molar enthalpy (molar enthalpy of mixing), kJ/mol (Liquid); method: CALVET:UFactor:2
Mole fraction of ethyl pentanoate	Excess molar enthalpy (molar enthalpy of mixing), kJ/mol	uncertainty
0.0901	0.0423	0.0022
0.1832	0.0562	0.0025
0.2717	0.0491	0.0023
0.3528	0.0267	0.002
0.4123	-0.0083	0.0017
0.4598	-0.0356	0.0021
0.4897	-0.0495	0.0024
0.5049	-0.0529	0.0024
0.5621	-0.0714	0.0028
0.6266	-0.0826	0.0031
0.6967	-0.087	0.0032
0.7722	-0.0824	0.0031
0.852	-0.0668	0.0027
0.9288	-0.0403	0.0022

System: 1,4-dibromobutane + ethyl pentanoate; phases: Liquid
Fixed: Pressure, kPa = 101
Fixed: Temperature, K = 298.15
Property: Mass density, kg/m3 (Liquid); method: Vibrating tube method
Mole fraction of ethyl pentanoate	Mass density, kg/m3	uncertainty
0.0539	1762.5	1.17
0.109	1704.93	1.31
0.2129	1598.64	1.56
0.2678	1543.48	1.69
0.3262	1485.57	1.81
0.3815	1431.53	1.91
0.469	1347.31	2.06
0.5155	1303.25	2.12
0.554	1267.17	2.15
0.6207	1205.19	2.21
0.7373	1099.12	2.27
0.8643	986.49	2.31
0.9324	927.28	2.3

System: 1,5-dibromopentane + ethyl pentanoate; phases: Liquid
Fixed: Pressure, kPa = 101
Fixed: Temperature, K = 298.15
Property: Excess molar enthalpy (molar enthalpy of mixing), kJ/mol (Liquid); method: CALVET:UFactor:2
Mole fraction of ethyl pentanoate	Excess molar enthalpy (molar enthalpy of mixing), kJ/mol	uncertainty
0.0537	0.0294	0.002
0.1124	0.0503	0.0024
0.1746	0.0661	0.0027
0.2384	0.0746	0.0029
0.3005	0.0749	0.0029
0.3573	0.066	0.0027
0.4121	0.05	0.0024
0.4619	0.0282	0.002
0.5075	0.0041	0.0017
0.5483	-0.0144	0.0018
0.5745	-0.0237	0.002
0.6374	-0.0361	0.0022
0.7074	-0.0419	0.0022
0.7809	-0.0416	0.0022
0.8572	-0.0355	0.0022
0.9337	-0.0202	0.0019

System: 1,5-dibromopentane + ethyl pentanoate; phases: Liquid
Fixed: Pressure, kPa = 101
Fixed: Temperature, K = 298.15
Property: Mass density, kg/m3 (Liquid); method: Vibrating tube method
Mole fraction of ethyl pentanoate	Mass density, kg/m3	uncertainty
0.0539	1645.46	2.67
0.1105	1595.11	2.68
0.1636	1548.32	2.69
0.2206	1498.77	2.69
0.3289	1405.86	2.7
0.3899	1354.43	2.69
0.4455	1307.95	2.68
0.5024	1260.98	2.67
0.5632	1211.27	2.64
0.5935	1186.69	2.62
0.6792	1117.97	2.56
0.7412	1068.93	2.52
0.803	1020.6	2.47
0.8672	970.91	2.42
0.9294	923.31	2.36

System: ethyl pentanoate + 1,6-dibromohexane; phases: Liquid
Fixed: Pressure, kPa = 101
Fixed: Temperature, K = 298.15
Property: Excess molar enthalpy (molar enthalpy of mixing), kJ/mol (Liquid); method: CALVET:UFactor:2
Mole fraction of ethyl pentanoate	Excess molar enthalpy (molar enthalpy of mixing), kJ/mol	uncertainty
0.0622	0.0304	0.002
0.1322	0.0461	0.0023
0.2027	0.0576	0.0025
0.2702	0.0628	0.0026
0.3359	0.0609	0.0026
0.3944	0.052	0.0024
0.4464	0.0391	0.0022
0.4901	0.0237	0.002
0.5274	0.0076	0.0017
0.5624	-0.0089	0.0017
0.6245	-0.0257	0.002
0.6853	-0.0321	0.0021
0.7481	-0.0328	0.0021
0.8143	-0.0299	0.0021
0.8791	-0.0229	0.002
0.947	-0.0137	0.0018

System: ethyl pentanoate + 1,6-dibromohexane; phases: Liquid
Fixed: Pressure, kPa = 101
Fixed: Temperature, K = 298.15
Property: Mass density, kg/m3 (Liquid); method: Vibrating tube method
Mole fraction of ethyl pentanoate	Mass density, kg/m3	uncertainty
0.0648	1555.13	2.53
0.1774	1474.02	2.58
0.2329	1433.91	2.59
0.2964	1387.86	2.61
0.4137	1302.47	2.62
0.5312	1216.59	2.6
0.5868	1175.74	2.58
0.6906	1099.24	2.53
0.7612	1047.08	2.49
0.819	1004.24	2.45
0.8814	957.89	2.4
0.934	918.67	2.35
