Measured thermophysical data. Is choline kosmotrope or chaotrope?
Source: J. Chem. Thermodyn., 2018, 10.1016/j.jct.2018.04.015
Compound 1: choline chloride, C5H14ClNO, InChI=1S/C5H14NO.ClH/c1-6(2,3)4-5-7;/h7H,4-5H2,1-3H3;1H/q+1;/p-1, purity 99%
Compound 2: water, H2O, InChI=1S/H2O/h1H2, purity 99.9%

System: choline chloride + water; phases: Liquid
Fixed: Pressure, kPa = 100
Property: Mass density, kg/m3 (Liquid); method: Vibrating tube method
Temperature, K	Molality, mol/kg of choline chloride	Mass density, kg/m3	uncertainty
293.15	0.08502	999.63	1.52
293.15	0.15	1000.68	1.52
293.15	0.20021	1001.48	1.52
293.15	0.25007	1002.25	1.52
293.15	0.30033	1003.03	1.52
293.15	0.35025	1003.78	1.52
293.15	0.39974	1004.52	1.52
293.15	0.45019	1005.27	1.52
293.15	0.49901	1005.99	1.52
298.15	0.08502	998.44	1.53
298.15	0.15	999.47	1.52
298.15	0.20021	1000.25	1.52
298.15	0.25007	1001	1.52
298.15	0.30033	1001.75	1.52
298.15	0.35025	1002.49	1.52
298.15	0.39974	1003.22	1.52
298.15	0.45019	1003.94	1.52
298.15	0.49901	1004.64	1.52
303.15	0.08502	997.02	1.52
303.15	0.15	998.03	1.52
303.15	0.20021	998.79	1.52
303.15	0.25007	999.53	1.52
303.15	0.30033	1000.27	1.52
303.15	0.35025	1000.99	1.52
303.15	0.39974	1001.7	1.52
303.15	0.45019	1002.41	1.52
303.15	0.49901	1003.08	1.52
308.15	0.08502	995.39	1.52
308.15	0.15	996.38	1.52
308.15	0.20021	997.13	1.52
308.15	0.25007	997.85	1.52
308.15	0.30033	998.57	1.52
308.15	0.35025	999.27	1.52
308.15	0.39974	999.95	1.52
308.15	0.45019	1000.64	1.52
308.15	0.49901	1001.3	1.52
313.15	0.08502	993.55	1.52
313.15	0.15	994.52	1.52
313.15	0.20021	995.25	1.52
313.15	0.25007	995.96	1.52
313.15	0.30033	996.66	1.52
313.15	0.35025	997.34	1.52
313.15	0.39974	998	1.52
313.15	0.45019	998.67	1.52
313.15	0.49901	999.3	1.52

System: choline chloride + water; phases: Liquid
Fixed: Pressure, kPa = 100
Property: Viscosity, Pa*s (Liquid); method: Capillary tube (Ostwald; Ubbelohde) method
Temperature, K	Molality, mol/kg of choline chloride	Viscosity, Pa*s	uncertainty
293.15	0.09081	0.001034	2.2e-05
293.15	0.14945	0.001049	2.2e-05
293.15	0.20561	0.001062	2.2e-05
293.15	0.29983	0.001082	2.3e-05
293.15	0.35113	0.001093	2.3e-05
293.15	0.42259	0.001107	2.3e-05
293.15	0.48896	0.001119	2.3e-05
298.15	0.09081	0.000916	1.9e-05
298.15	0.14945	0.000929	1.9e-05
298.15	0.20561	0.000941	2e-05
298.15	0.29983	0.000959	2e-05
298.15	0.35113	0.000968	2e-05
298.15	0.42259	0.000981	2e-05
298.15	0.48896	0.000993	2.1e-05
303.15	0.09081	0.000819	1.7e-05
303.15	0.14945	0.000831	1.7e-05
303.15	0.20561	0.000841	1.8e-05
303.15	0.29983	0.000858	1.8e-05
303.15	0.35113	0.000867	1.8e-05
303.15	0.42259	0.000878	1.8e-05
303.15	0.48896	0.000889	1.9e-05
308.15	0.09081	0.000737	1.5e-05
308.15	0.14945	0.000748	1.6e-05
308.15	0.20561	0.000757	1.6e-05
308.15	0.29983	0.000772	1.6e-05
308.15	0.35113	0.00078	1.6e-05
308.15	0.42259	0.000791	1.7e-05
308.15	0.48896	0.000801	1.7e-05
313.15	0.09081	0.000668	1.4e-05
313.15	0.14945	0.000678	1.4e-05
313.15	0.20561	0.000686	1.4e-05
313.15	0.29983	0.0007	1.5e-05
313.15	0.35113	0.000708	1.5e-05
313.15	0.42259	0.000718	1.5e-05
313.15	0.48896	0.000728	1.5e-05
