Measured thermophysical data. Excess molar heat capacities for (1-butanol+1,3-butanediol) at temperatures from (285 to 353) K
Source: J. Chem. Thermodyn., 2005, 10.1016/j.jct.2004.09.007
Compound 1: butan-1-ol, C4H10O, InChI=1S/C4H10O/c1-2-3-4-5/h5H,2-4H2,1H3, purity 99.5%
Compound 2: 1,3-butanediol, C4H10O2, InChI=1S/C4H10O2/c1-4(6)2-3-5/h4-6H,2-3H2,1H3, purity 99%

System: butan-1-ol; phases: Liquid
Property: Mass density, kg/m3 (Liquid); method: Pycnometric method
Temperature, K	Pressure, kPa	Mass density, kg/m3	uncertainty
298.15	101.325	805.82	1.04

System: butan-1-ol; phases: Liquid
Fixed: Pressure, kPa = 101.3
Property: Molar heat capacity at constant pressure, J/K/mol (Liquid); method: Large sample (1 g) DSC
Temperature, K	Molar heat capacity at constant pressure, J/K/mol	uncertainty
285.15	168.64	2.61
285.65	169.01	2.62
288.15	170.39	2.64
290.65	172	2.66
293.15	173.56	2.69
295.65	175.19	2.71
298.15	176.82	2.74
300.65	178.53	2.77
303.15	180.42	2.8
305.65	182.27	2.82
308.15	184.15	2.85
310.65	186.08	2.88
313.15	187.99	2.91
315.65	189.99	2.94
318.15	192.06	2.98
320.65	194.2	3.01
323.15	196.35	3.04
325.65	198.45	3.07
328.15	200.45	3.11
330.65	202.76	3.14
333.15	204.94	3.17
335.65	207.1	3.21
338.15	209.17	3.24
340.65	211.74	3.28
343.15	213.82	3.31
345.65	216.35	3.35
348.15	218.32	3.38
350.65	220.5	3.42
353.15	222.81	3.45

System: 1,3-butanediol; phases: Liquid
Property: Mass density, kg/m3 (Liquid); method: Pycnometric method
Temperature, K	Pressure, kPa	Mass density, kg/m3	uncertainty
298.15	101.325	1000.42	1.04

System: 1,3-butanediol; phases: Liquid
Fixed: Pressure, kPa = 101.3
Property: Molar heat capacity at constant pressure, J/K/mol (Liquid); method: Large sample (1 g) DSC
Temperature, K	Molar heat capacity at constant pressure, J/K/mol	uncertainty
285.15	211.74	3.28
285.65	212.17	3.29
288.15	213.57	3.31
290.65	215.06	3.33
293.15	216.58	3.36
295.65	218.04	3.38
298.15	219.62	3.4
300.65	221.14	3.43
303.15	222.8	3.45
305.65	224.37	3.48
308.15	226.07	3.5
310.65	227.65	3.53
313.15	229.24	3.55
315.65	230.82	3.58
318.15	232.6	3.6
320.65	234.14	3.63
323.15	235.83	3.65
325.65	237.52	3.68
328.15	239.08	3.7
330.65	240.59	3.73
333.15	242.28	3.75
335.65	243.86	3.78
338.15	245.11	3.8
340.65	247.19	3.83
343.15	248.62	3.85
345.65	250.13	3.88
348.15	251.66	3.9
350.65	253.24	3.92
353.15	254.86	3.95

System: butan-1-ol + 1,3-butanediol; phases: Liquid
Fixed: Pressure, kPa = 101.3
Property: Molar heat capacity at constant pressure, J/K/mol (Liquid); method: Large sample (1 g) DSC
Temperature, K	Mole fraction of 1,3-butanediol	Molar heat capacity at constant pressure, J/K/mol	uncertainty
285.15	0	168.64	2.61
285.15	0.189	178.21	2.76
285.15	0.2983	183.56	2.84
285.15	0.436	189.77	2.94
285.15	0.5902	196.24	3.04
285.15	0.7056	200.97	3.11
285.15	0.8961	210.06	3.25
285.15	1	211.74	3.28
285.65	0	169.01	2.62
285.65	0.189	178.59	2.77
285.65	0.2983	183.85	2.85
285.65	0.436	190.08	2.94
285.65	0.5902	196.61	3.05
285.65	0.7056	201.4	3.12
285.65	0.8961	208.67	3.23
285.65	1	212.17	3.29
288.15	0	170.39	2.64
288.15	0.189	179.92	2.79
288.15	0.2983	185.21	2.87
288.15	0.436	191.37	2.96
288.15	0.5902	198	3.07
288.15	0.7056	202.79	3.14
288.15	0.8961	210.1	3.25
288.15	1	213.57	3.31
290.65	0	172	2.66
290.65	0.189	181.38	2.81
290.65	0.2983	186.6	2.89
290.65	0.436	192.85	2.99
290.65	0.5902	199.46	3.09
290.65	0.7056	204.22	3.16
290.65	0.8961	211.53	3.28
290.65	1	215.06	3.33
293.15	0	173.56	2.69
293.15	0.189	182.92	2.83
293.15	0.2983	188.08	2.91
293.15	0.436	194.38	3.01
293.15	0.5902	200.87	3.11
293.15	0.7056	205.67	3.19
293.15	0.8961	213	3.3
293.15	1	216.58	3.36
295.65	0	175.19	2.71
295.65	0.189	184.43	2.86
295.65	0.2983	189.64	2.94
295.65	0.436	195.81	3.03
295.65	0.5902	202.4	3.14
295.65	0.7056	207.15	3.21
295.65	0.8961	214.51	3.32
295.65	1	218.04	3.38
298.15	0	176.82	2.74
298.15	0.189	186.01	2.88
298.15	0.2983	191.11	2.96
298.15	0.436	197.31	3.06
298.15	0.5902	203.91	3.16
298.15	0.7056	208.58	3.23
298.15	0.8961	216.08	3.35
298.15	1	219.62	3.4
300.65	0	178.53	2.77
300.65	0.189	187.6	2.91
300.65	0.2983	192.65	2.98
300.65	0.436	198.88	3.08
300.65	0.5902	205.47	3.18
300.65	0.7056	210.16	3.26
300.65	0.8961	217.6	3.37
300.65	1	221.14	3.43
303.15	0	180.42	2.8
303.15	0.189	189.31	2.93
303.15	0.2983	194.35	3.01
303.15	0.436	200.51	3.11
303.15	0.5902	207.08	3.21
303.15	0.7056	211.81	3.28
303.15	0.8961	219.24	3.4
303.15	1	222.8	3.45
305.65	0	182.27	2.82
305.65	0.189	191.04	2.96
305.65	0.2983	195.99	3.04
305.65	0.436	202.12	3.13
305.65	0.5902	208.6	3.23
305.65	0.7056	213.36	3.31
305.65	0.8961	220.73	3.42
305.65	1	224.37	3.48
308.15	0	184.15	2.85
308.15	0.189	192.78	2.99
308.15	0.2983	197.71	3.06
308.15	0.436	203.81	3.16
308.15	0.5902	210.26	3.26
308.15	0.7056	215.04	3.33
308.15	0.8961	222.49	3.45
308.15	1	226.07	3.5
310.65	0	186.08	2.88
310.65	0.189	194.41	3.01
310.65	0.2983	199.34	3.09
310.65	0.436	205.42	3.18
310.65	0.5902	211.86	3.28
310.65	0.7056	216.58	3.36
310.65	0.8961	224.04	3.47
310.65	1	227.65	3.53
313.15	0	187.99	2.91
313.15	0.189	196.3	3.04
313.15	0.2983	201.02	3.11
313.15	0.436	207.06	3.21
313.15	0.5902	213.43	3.31
313.15	0.7056	218.21	3.38
313.15	0.8961	225.64	3.5
313.15	1	229.24	3.55
315.65	0	189.99	2.94
315.65	0.189	198.07	3.07
315.65	0.2983	202.81	3.14
315.65	0.436	208.71	3.23
315.65	0.5902	215.01	3.33
315.65	0.7056	219.75	3.4
315.65	0.8961	227.18	3.52
315.65	1	230.82	3.58
318.15	0	192.06	2.98
318.15	0.189	199.98	3.1
318.15	0.2983	204.63	3.17
318.15	0.436	210.53	3.26
318.15	0.5902	216.77	3.36
318.15	0.7056	221.57	3.43
318.15	0.8961	228.97	3.55
318.15	1	232.6	3.6
320.65	0	194.2	3.01
320.65	0.189	201.89	3.13
320.65	0.2983	206.47	3.2
320.65	0.436	212.31	3.29
320.65	0.5902	218.48	3.38
320.65	0.7056	223.19	3.46
320.65	0.8961	230.61	3.57
320.65	1	234.14	3.63
323.15	0	196.35	3.04
323.15	0.189	203.75	3.16
323.15	0.2983	208.15	3.22
323.15	0.436	214.02	3.32
323.15	0.5902	220.21	3.41
323.15	0.7056	224.86	3.48
323.15	0.8961	232.26	3.6
323.15	1	235.83	3.65
325.65	0	198.45	3.07
325.65	0.189	205.57	3.18
325.65	0.2983	210.02	3.25
325.65	0.436	215.77	3.34
325.65	0.5902	221.9	3.44
325.65	0.7056	226.54	3.51
325.65	0.8961	233.95	3.62
325.65	1	237.52	3.68
328.15	0	200.45	3.11
328.15	0.189	207.42	3.21
328.15	0.2983	211.77	3.28
328.15	0.436	217.34	3.37
328.15	0.5902	223.44	3.46
328.15	0.7056	228.18	3.53
328.15	0.8961	235.52	3.65
328.15	1	239.08	3.7
330.65	0	202.76	3.14
330.65	0.189	209.47	3.25
330.65	0.2983	213.61	3.31
330.65	0.436	219.1	3.39
330.65	0.5902	225.17	3.49
330.65	0.7056	229.9	3.56
330.65	0.8961	237.35	3.68
330.65	1	240.59	3.73
333.15	0	204.94	3.17
333.15	0.189	211.36	3.27
333.15	0.2983	215.41	3.34
333.15	0.436	220.86	3.42
333.15	0.5902	226.84	3.51
333.15	0.7056	231.42	3.59
333.15	0.8961	238.77	3.7
333.15	1	242.28	3.75
335.65	0	207.1	3.21
335.65	0.189	213.23	3.3
335.65	0.2983	217.15	3.36
335.65	0.436	222.54	3.45
335.65	0.5902	228.47	3.54
335.65	0.7056	232.95	3.61
335.65	0.8961	240.35	3.72
335.65	1	243.86	3.78
338.15	0	209.17	3.24
338.15	0.189	215.01	3.33
338.15	0.2983	218.85	3.39
338.15	0.436	224.14	3.47
338.15	0.5902	229.97	3.56
338.15	0.7056	234.44	3.63
338.15	0.8961	241.71	3.74
338.15	1	245.11	3.8
340.65	0	211.74	3.28
340.65	0.189	217.62	3.37
340.65	0.2983	220.95	3.42
340.65	0.436	226.11	3.5
340.65	0.5902	231.92	3.59
340.65	0.7056	236.35	3.66
340.65	0.8961	243.67	3.77
340.65	1	247.19	3.83
343.15	0	213.82	3.31
343.15	0.189	219.25	3.4
343.15	0.2983	222.78	3.45
343.15	0.436	227.81	3.53
343.15	0.5902	233.46	3.62
343.15	0.7056	237.95	3.69
343.15	0.8961	245.19	3.8
343.15	1	248.62	3.85
345.65	0	216.35	3.35
345.65	0.189	221.09	3.43
345.65	0.2983	224.51	3.48
345.65	0.436	229.58	3.56
345.65	0.5902	235.21	3.64
345.65	0.7056	239.85	3.72
345.65	0.8961	246.7	3.82
345.65	1	250.13	3.88
348.15	0	218.32	3.38
348.15	0.189	223.12	3.46
348.15	0.2983	226.46	3.51
348.15	0.436	231.31	3.58
348.15	0.5902	236.83	3.67
348.15	0.7056	241.5	3.74
348.15	0.8961	248.27	3.85
348.15	1	251.66	3.9
350.65	0	220.5	3.42
350.65	0.189	224.98	3.49
350.65	0.2983	228.29	3.54
350.65	0.436	232.97	3.61
350.65	0.5902	238.43	3.69
350.65	0.7056	242.73	3.76
350.65	0.8961	249.77	3.87
350.65	1	253.24	3.92
353.15	0	222.81	3.45
353.15	0.189	227.13	3.52
353.15	0.2983	230.3	3.57
353.15	0.436	234.85	3.64
353.15	0.5902	240.2	3.72
353.15	0.7056	244.5	3.79
353.15	0.8961	251.52	3.9
353.15	1	254.86	3.95
