Measured thermophysical data. Standard molar enthalpies of formation and of sublimation of the terphenyl isomers
Source: J. Chem. Thermodyn., 2008, 10.1016/j.jct.2007.08.008
Compound 1: carbon dioxide, CO2, InChI=1S/CO2/c2-1-3
Compound 2: water, H2O, InChI=1S/H2O/h1H2
Compound 3: oxygen, O2, InChI=1S/O2/c1-2
Compound 4: o-terphenyl, C18H14, InChI=1S/C18H14/c1-3-9-15(10-4-1)17-13-7-8-14-18(17)16-11-5-2-6-12-16/h1-14H, purity 99%
Compound 5: m-terphenyl, C18H14, InChI=1S/C18H14/c1-3-8-15(9-4-1)17-12-7-13-18(14-17)16-10-5-2-6-11-16/h1-14H, purity 99%
Compound 6: p-terphenyl, C18H14, InChI=1S/C18H14/c1-3-7-15(8-4-1)17-11-13-18(14-12-17)16-9-5-2-6-10-16/h1-14H, purity 99%

System: o-terphenyl; phases: Crystal
Property: Mass density, kg/m3 (Crystal); method: measurement of volume and mass of pellet
Temperature, K	Pressure, kPa	Mass density, kg/m3	uncertainty
298.15	101.325	1120	20

System: o-terphenyl; phases: Crystal, Gas
Property: Vapor or sublimation pressure, kPa (Crystal); method: Calculated from knudsen effusion weight loss
Temperature, K	Vapor or sublimation pressure, kPa	uncertainty
312.3	6.04e-05	3e-06
312.3	6.13e-05	3.1e-06
312.3	5.87e-05	2.9e-06
313.79	7.08e-05	3.6e-06
313.79	7.16e-05	3.6e-06
315.13	8.28e-05	4.2e-06
315.14	8.47e-05	4.2e-06
315.14	8.48e-05	4.3e-06
315.78	7.29e-05	1.2e-05
316.78	0.000104	5e-06
316.78	0.000103	5e-06
316.78	0.000102	5e-06
318.28	0.000125	6e-06
318.28	0.000123	6e-06
318.28	0.000124	6e-06
319.64	0.000143	7e-06
319.64	0.000145	7e-06
319.64	0.000148	7e-06
321.28	0.000181	9e-06
321.28	0.000179	9e-06
321.28	0.000174	9e-06
322.78	0.000217	1.1e-05
322.78	0.000212	1.1e-05
322.78	0.000212	1.1e-05
324.14	0.000247	1.2e-05
324.14	0.000249	1.2e-05
325.78	0.000305	1.5e-05
325.78	0.000308	1.5e-05
325.78	0.0003	1.5e-05
327.28	0.000368	1.8e-05
327.28	0.00036	1.8e-05
327.28	0.000361	1.8e-05
328.63	0.000419	2.1e-05
328.63	0.000422	2.1e-05
328.63	0.000423	2.1e-05

System: m-terphenyl; phases: Crystal
Property: Mass density, kg/m3 (Crystal); method: measurement of volume and mass of pellet
Temperature, K	Pressure, kPa	Mass density, kg/m3	uncertainty
298.15	101.325	1140	20

System: m-terphenyl; phases: Crystal, Gas
Property: Vapor or sublimation pressure, kPa (Crystal); method: Calculated from knudsen effusion weight loss
Temperature, K	Vapor or sublimation pressure, kPa	uncertainty
337.28	6.28e-05	3.2e-06
337.28	6.44e-05	3.2e-06
337.28	6.48e-05	3.3e-06
339.22	8.09e-05	4.1e-06
339.22	8.13e-05	4.1e-06
339.22	7.88e-05	4e-06
341.11	0.000101	5e-06
341.11	9.73e-05	4.9e-06
343.27	0.00013	1e-05
343.27	0.000134	7e-06
343.27	0.000133	7e-06
345.21	0.000164	8e-06
345.21	0.000163	8e-06
345.21	0.000162	8e-06
347.1	0.000197	1e-05
347.1	0.000204	1e-05
347.1	0.000197	1e-05
349.27	0.000263	1.3e-05
349.27	0.000257	1.3e-05
349.27	0.000264	1.3e-05
351.2	0.000324	1.6e-05
351.2	0.000328	1.6e-05
351.2	0.000324	1.6e-05
353.11	0.000403	2e-05
353.11	0.000399	2e-05
355.28	0.000518	2.6e-05
355.28	0.000524	2.6e-05
355.28	0.000532	2.7e-05
357.19	0.000655	3.3e-05
357.19	0.00065	3.3e-05
357.19	0.000648	3.2e-05
359.1	0.000797	4e-05
359.1	0.00081	4.1e-05
359.1	0.000807	4e-05

System: p-terphenyl; phases: Crystal
Property: Mass density, kg/m3 (Crystal); method: measurement of volume and mass of pellet
Temperature, K	Pressure, kPa	Mass density, kg/m3	uncertainty
298.15	101.325	1200	20

System: p-terphenyl; phases: Crystal, Gas
Property: Vapor or sublimation pressure, kPa (Crystal); method: Calculated from knudsen effusion weight loss
Temperature, K	Vapor or sublimation pressure, kPa	uncertainty
373.27	0.000127	6e-06
373.27	0.000126	6e-06
373.27	0.000125	6e-06
375.22	0.000154	8e-06
375.22	0.000153	8e-06
375.22	0.000153	8e-06
377.14	0.000185	9e-06
377.14	0.000189	9e-06
377.14	0.000182	9e-06
379.28	0.000234	1.2e-05
379.28	0.000232	1.2e-05
379.28	0.000233	1.2e-05
381.21	0.00028	2e-05
381.21	0.000283	1.4e-05
381.21	0.000281	1.4e-05
383.28	0.000344	1.7e-05
383.28	0.000347	1.7e-05
383.28	0.000348	1.7e-05
385.17	0.000421	2.1e-05
385.17	0.000421	2.1e-05
385.17	0.000417	2.1e-05
387.12	0.000516	2.6e-05
387.12	0.000498	2.5e-05
389.27	0.000628	3.1e-05
389.27	0.000626	3.1e-05
389.27	0.000631	3.2e-05
391.16	0.000748	3.7e-05
391.16	0.000758	3.8e-05
391.16	0.000757	3.8e-05
393.22	0.000928	4.6e-05
393.22	0.000931	4.7e-05
393.22	0.000922	4.6e-05
395.27	0.001137	0.000117
395.27	0.001131	0.000116
395.27	0.001138	0.000117

Reaction: -1 o-terphenyl + 18 carbon dioxide + 7 water + -21.5 oxygen
Property: Specific internal energy of reaction at constant volume, J/g
-40197.9

Reaction: -1 m-terphenyl + 18 carbon dioxide + 7 water + -21.5 oxygen
Property: Specific internal energy of reaction at constant volume, J/g
-40106

Reaction: -1 p-terphenyl + 18 carbon dioxide + 7 water + -21.5 oxygen
Property: Specific internal energy of reaction at constant volume, J/g
-40095.3
