Measured thermophysical data. Pressure dependence on the viscosities of 1-butyl-2,3-dimethylimidazolium bis(trifluoromethylsulfonyl)imide and two tris(pentafluoroethyl)trifluorophosphate based ionic liquids: New measurements and modelling
Source: J. Chem. Thermodyn., 2013, 10.1016/j.jct.2013.02.014
Compound 1: 1-butyl-2,3-dimethyl-1H-imidazolium trifluorotris(perfluoroethyl)phosphate(V), C15H17F18N2P, InChI=1S/C9H17N2.C6F18P/c1-4-5-6-11-8-7-10(3)9(11)2;7-1(8,9)4(16,17)25(22,23,24,5(18,19)2(10,11)12)6(20,21)3(13,14)15/h7-8H,4-6H2,1-3H3;/q+1;-1, purity 98%
Compound 2: 1-(2-methoxyethyl)-1-methylpyrrolidinium tris(pentafluoroethyl)trifluorophosphate, C14H18F18NOP, InChI=1S/C8H18NO.C6F18P/c1-9(7-8-10-2)5-3-4-6-9;7-1(8,9)4(16,17)25(22,23,24,5(18,19)2(10,11)12)6(20,21)3(13,14)15/h3-8H2,1-2H3;/q+1;-1, purity 99%
Compound 3: 1-butyl-2,3-dimethyl-1H-imidazolium bis(trifluoromethylsulfonyl)amide, C11H17F6N3O4S2, InChI=1S/C9H17N2.C2F6NO4S2/c1-4-5-6-11-8-7-10(3)9(11)2;3-1(4,5)14(10,11)9-15(12,13)2(6,7)8/h7-8H,4-6H2,1-3H3;/q+1;-1, purity 99.9%

System: 1-butyl-2,3-dimethyl-1H-imidazolium trifluorotris(perfluoroethyl)phosphate(V); phases: Liquid
Property: Viscosity, Pa*s (Liquid); method: Falling or rolling sphere viscometry
Temperature, K	Pressure, kPa	Viscosity, Pa*s	uncertainty
313.15	10000	0.0811	0.0085
313.15	15000	0.0889	0.0093
313.15	25000	0.1068	0.0114
313.15	50000	0.1674	0.0185
313.15	75000	0.2606	0.0303
313.15	100000	0.4035	0.0495
313.15	125000	0.6227	0.0811
313.15	150000	0.9587	0.1325
343.15	10000	0.0253	0.0032
343.15	15000	0.0272	0.0034
343.15	25000	0.0312	0.004
343.15	50000	0.0441	0.006
343.15	75000	0.062	0.009
343.15	100000	0.0873	0.0137
343.15	125000	0.1235	0.0209
343.15	150000	0.1761	0.0323

System: 1-(2-methoxyethyl)-1-methylpyrrolidinium tris(pentafluoroethyl)trifluorophosphate; phases: Liquid
Property: Viscosity, Pa*s (Liquid); method: Falling or rolling sphere viscometry
Temperature, K	Pressure, kPa	Viscosity, Pa*s	uncertainty
313.15	10000	0.064	0.0066
313.15	15000	0.0699	0.0072
313.15	25000	0.083	0.0086
313.15	50000	0.1261	0.0135
313.15	75000	0.1897	0.0211
313.15	100000	0.2833	0.033
313.15	125000	0.4211	0.0517
313.15	150000	0.6238	0.0807
343.15	10000	0.0226	0.0025
343.15	15000	0.0242	0.0027
343.15	25000	0.0277	0.0031
343.15	50000	0.0386	0.0044
343.15	75000	0.0534	0.0063
343.15	100000	0.0738	0.009
343.15	125000	0.1022	0.0131
343.15	150000	0.1425	0.019
363.15	10000	0.0148	0.0015
363.15	15000	0.0158	0.0016
363.15	25000	0.0181	0.0019
363.15	50000	0.0245	0.0026
363.15	75000	0.0323	0.0034
363.15	100000	0.0417	0.0045
363.15	125000	0.0532	0.0059
363.15	150000	0.0669	0.0077

System: 1-butyl-2,3-dimethyl-1H-imidazolium bis(trifluoromethylsulfonyl)amide; phases: Liquid
Property: Viscosity, Pa*s (Liquid); method: Falling or rolling sphere viscometry
Temperature, K	Pressure, kPa	Viscosity, Pa*s	uncertainty
313.15	10000	0.0559	0.0057
313.15	15000	0.0595	0.0061
313.15	25000	0.0673	0.0069
313.15	50000	0.0907	0.0095
313.15	75000	0.1209	0.0129
313.15	100000	0.1598	0.0174
313.15	125000	0.2101	0.0236
313.15	150000	0.275	0.0318
343.15	10000	0.0195	0.0022
343.15	15000	0.0205	0.0023
343.15	25000	0.0227	0.0025
343.15	50000	0.0288	0.0033
343.15	75000	0.0363	0.0042
343.15	100000	0.0455	0.0054
343.15	125000	0.0569	0.0068
343.15	150000	0.0709	0.0087
363.15	10000	0.0124	0.0013
363.15	15000	0.013	0.0014
363.15	25000	0.0143	0.0015
363.15	50000	0.0179	0.0019
363.15	75000	0.0221	0.0023
363.15	100000	0.0269	0.0029
363.15	125000	0.0324	0.0035
363.15	150000	0.0387	0.0042
