Measured thermophysical data. Effect of concentration and temperature on apparent molar properties of homologous alpha-amino acids in aqueous-semicarbazide hydrochloride solutions: A quest on the concept of kosmotropic/chaotropic behaviour of amino acids
Source: J. Chem. Thermodyn., 2019, 10.1016/j.jct.2019.03.011
Compound 1: 2-aminoacetic acid, C2H5NO2, InChI=1S/C2H5NO2/c3-1-2(4)5/h1,3H2,(H,4,5), purity 99%
Compound 2: (S)-2-aminopropanoic acid, C3H7NO2, InChI=1S/C3H7NO2/c1-2(4)3(5)6/h2H,4H2,1H3,(H,5,6)/t2-/m0/s1, purity 99%
Compound 3: L-valine, C5H11NO2, InChI=1S/C5H11NO2/c1-3(2)4(6)5(7)8/h3-4H,6H2,1-2H3,(H,7,8)/t4-/m0/s1, purity 99%
Compound 4: 2-amino-3-methylpentanoic acid, C6H13NO2, InChI=1S/C6H13NO2/c1-3-4(2)5(7)6(8)9/h4-5H,3,7H2,1-2H3,(H,8,9)/t4-,5-/m0/s1, purity 99%
Compound 5: semicarbazide hydrochloride, CH6ClN3O, InChI=1S/CH5N3O.ClH/c2-1(5)4-3;/h3H2,(H3,2,4,5);1H, purity 99%
Compound 6: water, H2O, InChI=1S/H2O/h1H2

System: 2-aminoacetic acid + semicarbazide hydrochloride + water; phases: Liquid
Fixed: Pressure, kPa = 101
Property: Mass density, kg/m3 (Liquid); method: Vibrating tube method
Solvent: Mass fraction of semicarbazide hydrochloride	Temperature, K	Molality, mol/kg of 2-aminoacetic acid	Mass density, kg/m3	uncertainty
0.01	293.15	0	1002.51	0.521
0.01	293.15	0.0256	1003.297	0.52
0.01	293.15	0.05	1004.026	0.519
0.01	293.15	0.0748	1004.745	0.519
0.01	293.15	0.0997	1005.445	0.518
0.01	293.15	0.125	1006.133	0.518
0.01	293.15	0.1513	1006.828	0.517
0.01	298.15	0	1001.29	0.523
0.01	298.15	0.0256	1002.073	0.519
0.01	298.15	0.05	1002.799	0.518
0.01	298.15	0.0748	1003.514	0.518
0.01	298.15	0.0997	1004.211	0.517
0.01	298.15	0.125	1004.895	0.517
0.01	298.15	0.1513	1005.587	0.519
0.01	303.15	0	999.819	0.523
0.01	303.15	0.0256	1000.599	0.52
0.01	303.15	0.05	1001.321	0.519
0.01	303.15	0.0748	1002.032	0.519
0.01	303.15	0.0997	1002.724	0.518
0.01	303.15	0.125	1003.404	0.518
0.01	303.15	0.1513	1004.091	0.519
0.01	308.15	0	998.185	0.521
0.01	308.15	0.0256	998.961	0.518
0.01	308.15	0.05	999.68	0.517
0.01	308.15	0.0748	1000.388	0.516
0.01	308.15	0.0997	1001.076	0.516
0.01	308.15	0.125	1001.752	0.515
0.01	308.15	0.1513	1002.433	0.517
0.01	313.15	0	996.304	0.507
0.01	313.15	0.0256	997.077	0.507
0.01	313.15	0.05	997.793	0.506
0.01	313.15	0.0748	998.497	0.505
0.01	313.15	0.0997	999.181	0.505
0.01	313.15	0.125	999.852	0.504
0.01	313.15	0.1513	1000.529	0.504
0.01	318.15	0	994.429	0.508
0.01	318.15	0.0256	995.199	0.508
0.01	318.15	0.05	995.912	0.507
0.01	318.15	0.0748	996.612	0.506
0.01	318.15	0.0997	997.292	0.506
0.01	318.15	0.125	997.96	0.505
0.01	318.15	0.1513	998.631	0.505
0.02	293.15	0	1006.71	0.521
0.02	293.15	0.0241	1007.439	0.519
0.02	293.15	0.0502	1008.208	0.519
0.02	293.15	0.0747	1008.91	0.518
0.02	293.15	0.0997	1009.607	0.518
0.02	293.15	0.1255	1010.307	0.517
0.02	293.15	0.1509	1010.974	0.518
0.02	298.15	0	1005.43	0.512
0.02	298.15	0.0241	1006.155	0.512
0.02	298.15	0.0502	1006.92	0.511
0.02	298.15	0.0747	1007.619	0.511
0.02	298.15	0.0997	1008.312	0.51
0.02	298.15	0.1255	1009.006	0.51
0.02	298.15	0.1509	1009.669	0.508
0.02	303.15	0	1003.99	0.512
0.02	303.15	0.0241	1004.712	0.513
0.02	303.15	0.0502	1005.473	0.512
0.02	303.15	0.0747	1006.168	0.512
0.02	303.15	0.0997	1006.857	0.511
0.02	303.15	0.1255	1007.546	0.511
0.02	303.15	0.1509	1008.205	0.508
0.02	308.15	0	1002.31	0.507
0.02	308.15	0.0241	1003.029	0.509
0.02	308.15	0.0502	1003.787	0.508
0.02	308.15	0.0747	1004.477	0.507
0.02	308.15	0.0997	1005.162	0.507
0.02	308.15	0.1255	1005.847	0.507
0.02	308.15	0.1509	1006.502	0.503
0.02	313.15	0	1000.34	0.51
0.02	313.15	0.0241	1001.056	0.508
0.02	313.15	0.0502	1001.811	0.507
0.02	313.15	0.0747	1002.498	0.506
0.02	313.15	0.0997	1003.179	0.506
0.02	313.15	0.1255	1003.86	0.506
0.02	313.15	0.1509	1004.51	0.507
0.02	318.15	0	998.472	0.508
0.02	318.15	0.0241	999.186	0.506
0.02	318.15	0.0502	999.937	0.506
0.02	318.15	0.0747	1000.621	0.505
0.02	318.15	0.0997	1001.299	0.505
0.02	318.15	0.1255	1001.975	0.504
0.02	318.15	0.1509	1002.62	0.505

System: 2-aminoacetic acid + semicarbazide hydrochloride + water; phases: Liquid
Fixed: Pressure, kPa = 101
Fixed: Frequency, MHz = 3
Property: Speed of sound, m/s (Liquid); method: Single path-length method
Solvent: Mass fraction of semicarbazide hydrochloride	Temperature, K	Molality, mol/kg of 2-aminoacetic acid	Speed of sound, m/s	uncertainty
0.01	293.15	0	1490.02	3.09
0.01	293.15	0.0256	1490.68	3.09
0.01	293.15	0.05	1491.64	3.09
0.01	293.15	0.0748	1492.95	3.09
0.01	293.15	0.0997	1494.61	3.09
0.01	293.15	0.125	1496.65	3.1
0.01	293.15	0.1513	1499.16	3.1
0.01	298.15	0	1503.02	3.1
0.01	298.15	0.0256	1503.65	3.1
0.01	298.15	0.05	1504.58	3.1
0.01	298.15	0.0748	1505.88	3.1
0.01	298.15	0.0997	1507.51	3.1
0.01	298.15	0.125	1509.55	3.1
0.01	298.15	0.1513	1512.05	3.11
0.01	303.15	0	1515.12	3.1
0.01	303.15	0.0256	1515.71	3.1
0.01	303.15	0.05	1516.61	3.1
0.01	303.15	0.0748	1517.88	3.1
0.01	303.15	0.0997	1519.49	3.1
0.01	303.15	0.125	1521.48	3.1
0.01	303.15	0.1513	1523.96	3.11
0.01	308.15	0	1525.57	3.1
0.01	308.15	0.0256	1526.12	3.09
0.01	308.15	0.05	1526.98	3.09
0.01	308.15	0.0748	1528.21	3.09
0.01	308.15	0.0997	1529.79	3.1
0.01	308.15	0.125	1531.76	3.1
0.01	308.15	0.1513	1534.21	3.11
0.01	313.15	0	1534.28	3.11
0.01	313.15	0.0256	1534.78	3.1
0.01	313.15	0.05	1535.61	3.1
0.01	313.15	0.0748	1536.79	3.1
0.01	313.15	0.0997	1538.34	3.1
0.01	313.15	0.125	1540.28	3.1
0.01	313.15	0.1513	1542.69	3.11
0.01	318.15	0	1540.68	3.1
0.01	318.15	0.0256	1541.13	3.09
0.01	318.15	0.05	1541.91	3.09
0.01	318.15	0.0748	1543.04	3.09
0.01	318.15	0.0997	1544.54	3.09
0.01	318.15	0.125	1546.43	3.1
0.01	318.15	0.1513	1548.8	3.1
0.02	293.15	0	1495.82	3.09
0.02	293.15	0.0241	1496.43	3.09
0.02	293.15	0.0502	1497.49	3.09
0.02	293.15	0.0747	1498.86	3.1
0.02	293.15	0.0997	1500.62	3.1
0.02	293.15	0.1255	1502.87	3.1
0.02	293.15	0.1509	1505.48	3.1
0.02	298.15	0	1508.98	3.09
0.02	298.15	0.0241	1509.56	3.09
0.02	298.15	0.0502	1510.57	3.09
0.02	298.15	0.0747	1511.9	3.09
0.02	298.15	0.0997	1513.64	3.09
0.02	298.15	0.1255	1515.83	3.1
0.02	298.15	0.1509	1518.42	3.09
0.02	303.15	0	1520.88	3.08
0.02	303.15	0.0241	1521.42	3.09
0.02	303.15	0.0502	1522.39	3.09
0.02	303.15	0.0747	1523.68	3.09
0.02	303.15	0.0997	1525.37	3.09
0.02	303.15	0.1255	1527.53	3.09
0.02	303.15	0.1509	1530.07	3.09
0.02	308.15	0	1531.22	3.08
0.02	308.15	0.0241	1531.72	3.08
0.02	308.15	0.0502	1532.64	3.08
0.02	308.15	0.0747	1533.9	3.09
0.02	308.15	0.0997	1535.55	3.09
0.02	308.15	0.1255	1537.68	3.09
0.02	308.15	0.1509	1540.19	3.09
0.02	313.15	0	1540.05	3.08
0.02	313.15	0.0241	1540.5	3.08
0.02	313.15	0.0502	1541.38	3.08
0.02	313.15	0.0747	1542.58	3.08
0.02	313.15	0.0997	1544.2	3.09
0.02	313.15	0.1255	1546.28	3.09
0.02	313.15	0.1509	1548.73	3.08
0.02	318.15	0	1546.72	3.1
0.02	318.15	0.0241	1547.12	3.1
0.02	318.15	0.0502	1547.94	3.1
0.02	318.15	0.0747	1549.08	3.1
0.02	318.15	0.0997	1550.65	3.1
0.02	318.15	0.1255	1552.66	3.1
0.02	318.15	0.1509	1555.04	3.1

System: 2-aminoacetic acid + semicarbazide hydrochloride + water; phases: Liquid
Fixed: Pressure, kPa = 101
Property: Viscosity, Pa*s (Liquid); method: Falling or rolling sphere viscometry
Solvent: Mass fraction of semicarbazide hydrochloride	Temperature, K	Molality, mol/kg of 2-aminoacetic acid	Viscosity, Pa*s	uncertainty
0.01	293.15	0	0.0010156	1.28e-05
0.01	293.15	0.0256	0.001018	1.29e-05
0.01	293.15	0.05	0.0010211	1.29e-05
0.01	293.15	0.0748	0.0010244	1.3e-05
0.01	293.15	0.0997	0.0010277	1.3e-05
0.01	293.15	0.125	0.0010312	1.31e-05
0.01	293.15	0.1513	0.0010348	1.32e-05
0.01	298.15	0	0.0009018	1.13e-05
0.01	298.15	0.0256	0.0009041	1.14e-05
0.01	298.15	0.05	0.000907	1.14e-05
0.01	298.15	0.0748	0.0009101	1.15e-05
0.01	298.15	0.0997	0.0009133	1.15e-05
0.01	298.15	0.125	0.0009166	1.16e-05
0.01	298.15	0.1513	0.0009201	1.16e-05
0.01	303.15	0	0.0008053	1.01e-05
0.01	303.15	0.0256	0.0008075	1.02e-05
0.01	303.15	0.05	0.0008103	1.02e-05
0.01	303.15	0.0748	0.0008133	1.02e-05
0.01	303.15	0.0997	0.0008163	1.03e-05
0.01	303.15	0.125	0.0008194	1.03e-05
0.01	303.15	0.1513	0.0008228	1.04e-05
0.01	308.15	0	0.0007251	9.1e-06
0.01	308.15	0.0256	0.0007272	9.2e-06
0.01	308.15	0.05	0.0007299	9.2e-06
0.01	308.15	0.0748	0.0007327	9.2e-06
0.01	308.15	0.0997	0.0007356	9.3e-06
0.01	308.15	0.125	0.0007386	9.3e-06
0.01	308.15	0.1513	0.0007417	9.3e-06
0.01	313.15	0	0.0006562	8.2e-06
0.01	313.15	0.0256	0.0006582	8.3e-06
0.01	313.15	0.05	0.0006608	8.3e-06
0.01	313.15	0.0748	0.0006635	8.4e-06
0.01	313.15	0.0997	0.0006662	8.4e-06
0.01	313.15	0.125	0.000669	8.4e-06
0.01	313.15	0.1513	0.0006721	8.5e-06
0.01	318.15	0	0.0006021	7.6e-06
0.01	318.15	0.0256	0.000604	7.6e-06
0.01	318.15	0.05	0.0006065	7.6e-06
0.01	318.15	0.0748	0.0006091	7.7e-06
0.01	318.15	0.0997	0.0006117	7.7e-06
0.01	318.15	0.125	0.0006145	7.7e-06
0.01	318.15	0.1513	0.0006173	7.8e-06
0.02	293.15	0	0.0010308	1.3e-05
0.02	293.15	0.0241	0.0010349	1.31e-05
0.02	293.15	0.0502	0.0010393	1.32e-05
0.02	293.15	0.0747	0.0010434	1.32e-05
0.02	293.15	0.0997	0.0010476	1.33e-05
0.02	293.15	0.1255	0.001052	1.34e-05
0.02	293.15	0.1509	0.0010562	1.34e-05
0.02	298.15	0	0.0009134	1.16e-05
0.02	298.15	0.0241	0.0009171	1.16e-05
0.02	298.15	0.0502	0.0009212	1.17e-05
0.02	298.15	0.0747	0.000925	1.18e-05
0.02	298.15	0.0997	0.0009289	1.18e-05
0.02	298.15	0.1255	0.000933	1.19e-05
0.02	298.15	0.1509	0.000937	1.2e-05
0.02	303.15	0	0.0008152	1.03e-05
0.02	303.15	0.0241	0.0008186	1.04e-05
0.02	303.15	0.0502	0.0008224	1.04e-05
0.02	303.15	0.0747	0.000826	1.05e-05
0.02	303.15	0.0997	0.0008297	1.05e-05
0.02	303.15	0.1255	0.0008335	1.06e-05
0.02	303.15	0.1509	0.0008373	1.07e-05
0.02	308.15	0	0.000733	9.3e-06
0.02	308.15	0.0241	0.0007361	9.3e-06
0.02	308.15	0.0502	0.0007397	9.4e-06
0.02	308.15	0.0747	0.0007431	9.4e-06
0.02	308.15	0.0997	0.0007465	9.5e-06
0.02	308.15	0.1255	0.0007502	9.5e-06
0.02	308.15	0.1509	0.0007536	9.6e-06
0.02	313.15	0	0.0006646	8.4e-06
0.02	313.15	0.0241	0.0006675	8.5e-06
0.02	313.15	0.0502	0.0006709	8.5e-06
0.02	313.15	0.0747	0.0006741	8.6e-06
0.02	313.15	0.0997	0.0006774	8.6e-06
0.02	313.15	0.1255	0.0006808	8.7e-06
0.02	313.15	0.1509	0.0006841	8.7e-06
0.02	318.15	0	0.0006062	7.6e-06
0.02	318.15	0.0241	0.0006089	7.7e-06
0.02	318.15	0.0502	0.0006121	7.7e-06
0.02	318.15	0.0747	0.0006151	7.7e-06
0.02	318.15	0.0997	0.0006183	7.8e-06
0.02	318.15	0.1255	0.0006215	7.8e-06
0.02	318.15	0.1509	0.0006246	7.9e-06

System: (S)-2-aminopropanoic acid + semicarbazide hydrochloride + water; phases: Liquid
Fixed: Pressure, kPa = 101
Property: Mass density, kg/m3 (Liquid); method: Vibrating tube method
Solvent: Mass fraction of semicarbazide hydrochloride	Temperature, K	Molality, mol/kg of (S)-2-aminopropanoic acid	Mass density, kg/m3	uncertainty
0.01	293.15	0	1002.51	0.522
0.01	293.15	0.025	1003.206	0.522
0.01	293.15	0.0499	1003.881	0.52
0.01	293.15	0.0755	1004.555	0.519
0.01	293.15	0.1011	1005.208	0.518
0.01	293.15	0.1261	1005.826	0.517
0.01	293.15	0.15	1006.398	0.515
0.01	298.15	0	1001.29	0.524
0.01	298.15	0.025	1001.981	0.521
0.01	298.15	0.0499	1002.652	0.519
0.01	298.15	0.0755	1003.322	0.518
0.01	298.15	0.1011	1003.971	0.517
0.01	298.15	0.1261	1004.585	0.515
0.01	298.15	0.15	1005.153	0.517
0.01	303.15	0	999.819	0.524
0.01	303.15	0.025	1000.506	0.522
0.01	303.15	0.0499	1001.172	0.52
0.01	303.15	0.0755	1001.838	0.519
0.01	303.15	0.1011	1002.482	0.518
0.01	303.15	0.1261	1003.092	0.516
0.01	303.15	0.15	1003.655	0.517
0.01	308.15	0	998.185	0.523
0.01	308.15	0.025	998.868	0.519
0.01	308.15	0.0499	999.532	0.518
0.01	308.15	0.0755	1000.195	0.516
0.01	308.15	0.1011	1000.836	0.515
0.01	308.15	0.1261	1001.444	0.514
0.01	308.15	0.15	1002.004	0.515
0.01	313.15	0	996.304	0.509
0.01	313.15	0.025	996.984	0.508
0.01	313.15	0.0499	997.645	0.507
0.01	313.15	0.0755	998.304	0.505
0.01	313.15	0.1011	998.943	0.504
0.01	313.15	0.1261	999.547	0.503
0.01	313.15	0.15	1000.105	0.501
0.01	318.15	0	994.429	0.51
0.01	318.15	0.025	995.107	0.509
0.01	318.15	0.0499	995.764	0.508
0.01	318.15	0.0755	996.421	0.506
0.01	318.15	0.1011	997.055	0.505
0.01	318.15	0.1261	997.655	0.504
0.01	318.15	0.15	998.212	0.502
0.02	293.15	0	1006.71	0.523
0.02	293.15	0.0264	1007.428	0.521
0.02	293.15	0.0503	1008.059	0.52
0.02	293.15	0.0751	1008.695	0.518
0.02	293.15	0.0998	1009.31	0.517
0.02	293.15	0.125	1009.918	0.516
0.02	293.15	0.1506	1010.515	0.515
0.02	298.15	0	1005.43	0.514
0.02	298.15	0.0264	1006.143	0.514
0.02	298.15	0.0503	1006.769	0.512
0.02	298.15	0.0751	1007.401	0.511
0.02	298.15	0.0998	1008.011	0.51
0.02	298.15	0.125	1008.615	0.509
0.02	298.15	0.1506	1009.208	0.506
0.02	303.15	0	1003.99	0.514
0.02	303.15	0.0264	1004.699	0.515
0.02	303.15	0.0503	1005.321	0.514
0.02	303.15	0.0751	1005.949	0.512
0.02	303.15	0.0998	1006.556	0.511
0.02	303.15	0.125	1007.155	0.51
0.02	303.15	0.1506	1007.745	0.507
0.02	308.15	0	1002.31	0.509
0.02	308.15	0.0264	1003.015	0.51
0.02	308.15	0.0503	1003.635	0.509
0.02	308.15	0.0751	1004.259	0.508
0.02	308.15	0.0998	1004.862	0.506
0.02	308.15	0.125	1005.46	0.505
0.02	308.15	0.1506	1006.046	0.501
0.02	313.15	0	1000.34	0.512
0.02	313.15	0.0264	1001.042	0.509
0.02	313.15	0.0503	1001.658	0.508
0.02	313.15	0.0751	1002.279	0.507
0.02	313.15	0.0998	1002.879	0.505
0.02	313.15	0.125	1003.472	0.504
0.02	313.15	0.1506	1004.055	0.504
0.02	318.15	0	998.472	0.51
0.02	318.15	0.0264	999.171	0.508
0.02	318.15	0.0503	999.785	0.507
0.02	318.15	0.0751	1000.402	0.505
0.02	318.15	0.0998	1000.999	0.504
0.02	318.15	0.125	1001.588	0.503
0.02	318.15	0.1506	1002.166	0.502

System: (S)-2-aminopropanoic acid + semicarbazide hydrochloride + water; phases: Liquid
Fixed: Pressure, kPa = 101
Fixed: Frequency, MHz = 3
Property: Speed of sound, m/s (Liquid); method: Single path-length method
Solvent: Mass fraction of semicarbazide hydrochloride	Temperature, K	Molality, mol/kg of (S)-2-aminopropanoic acid	Speed of sound, m/s	uncertainty
0.01	293.15	0	1490.02	3.1
0.01	293.15	0.025	1490.6	3.1
0.01	293.15	0.0499	1491.52	3.1
0.01	293.15	0.0755	1492.83	3.1
0.01	293.15	0.1011	1494.51	3.1
0.01	293.15	0.1261	1496.51	3.11
0.01	293.15	0.15	1498.75	3.11
0.01	298.15	0	1503.02	3.11
0.01	298.15	0.025	1503.57	3.11
0.01	298.15	0.0499	1504.47	3.11
0.01	298.15	0.0755	1505.76	3.11
0.01	298.15	0.1011	1507.41	3.11
0.01	298.15	0.1261	1509.38	3.11
0.01	298.15	0.15	1511.65	3.12
0.01	303.15	0	1515.12	3.11
0.01	303.15	0.025	1515.64	3.11
0.01	303.15	0.0499	1516.51	3.11
0.01	303.15	0.0755	1517.76	3.11
0.01	303.15	0.1011	1519.4	3.11
0.01	303.15	0.1261	1521.36	3.11
0.01	303.15	0.15	1523.6	3.12
0.01	308.15	0	1525.57	3.11
0.01	308.15	0.025	1526.05	3.1
0.01	308.15	0.0499	1526.89	3.1
0.01	308.15	0.0755	1528.13	3.11
0.01	308.15	0.1011	1529.73	3.11
0.01	308.15	0.1261	1531.65	3.11
0.01	308.15	0.15	1533.84	3.12
0.01	313.15	0	1534.28	3.12
0.01	313.15	0.025	1534.72	3.11
0.01	313.15	0.0499	1535.51	3.11
0.01	313.15	0.0755	1536.69	3.11
0.01	313.15	0.1011	1538.24	3.11
0.01	313.15	0.1261	1540.15	3.12
0.01	313.15	0.15	1542.31	3.13
0.01	318.15	0	1540.68	3.11
0.01	318.15	0.025	1541.07	3.1
0.01	318.15	0.0499	1541.82	3.1
0.01	318.15	0.0755	1542.95	3.11
0.01	318.15	0.1011	1544.46	3.11
0.01	318.15	0.1261	1546.32	3.11
0.01	318.15	0.15	1548.42	3.12
0.02	293.15	0	1495.82	3.1
0.02	293.15	0.0264	1496.45	3.1
0.02	293.15	0.0503	1497.38	3.11
0.02	293.15	0.0751	1498.71	3.11
0.02	293.15	0.0998	1500.41	3.11
0.02	293.15	0.125	1502.55	3.11
0.02	293.15	0.1506	1505.13	3.11
0.02	298.15	0	1508.98	3.1
0.02	298.15	0.0264	1509.58	3.1
0.02	298.15	0.0503	1510.48	3.1
0.02	298.15	0.0751	1511.79	3.1
0.02	298.15	0.0998	1513.5	3.11
0.02	298.15	0.125	1515.62	3.11
0.02	298.15	0.1506	1518.19	3.11
0.02	303.15	0	1520.88	3.09
0.02	303.15	0.0264	1521.44	3.1
0.02	303.15	0.0503	1522.31	3.1
0.02	303.15	0.0751	1523.6	3.1
0.02	303.15	0.0998	1525.26	3.1
0.02	303.15	0.125	1527.35	3.1
0.02	303.15	0.1506	1529.9	3.1
0.02	308.15	0	1531.22	3.09
0.02	308.15	0.0264	1531.74	3.1
0.02	308.15	0.0503	1532.58	3.1
0.02	308.15	0.0751	1533.83	3.1
0.02	308.15	0.0998	1535.48	3.1
0.02	308.15	0.125	1537.56	3.1
0.02	308.15	0.1506	1540.07	3.1
0.02	313.15	0	1540.05	3.09
0.02	313.15	0.0264	1540.52	3.09
0.02	313.15	0.0503	1541.32	3.1
0.02	313.15	0.0751	1542.53	3.1
0.02	313.15	0.0998	1544.14	3.1
0.02	313.15	0.125	1546.18	3.1
0.02	313.15	0.1506	1548.66	3.1
0.02	318.15	0	1546.72	3.11
0.02	318.15	0.0264	1547.14	3.11
0.02	318.15	0.0503	1547.88	3.11
0.02	318.15	0.0751	1549.04	3.11
0.02	318.15	0.0998	1550.59	3.11
0.02	318.15	0.125	1552.59	3.12
0.02	318.15	0.1506	1554.99	3.12

System: (S)-2-aminopropanoic acid + semicarbazide hydrochloride + water; phases: Liquid
Fixed: Pressure, kPa = 101
Property: Viscosity, Pa*s (Liquid); method: Falling or rolling sphere viscometry
Solvent: Mass fraction of semicarbazide hydrochloride	Temperature, K	Molality, mol/kg of (S)-2-aminopropanoic acid	Viscosity, Pa*s	uncertainty
0.01	293.15	0	0.0010156	1.29e-05
0.01	293.15	0.025	0.0010209	1.3e-05
0.01	293.15	0.0499	0.0010267	1.31e-05
0.01	293.15	0.0755	0.0010329	1.31e-05
0.01	293.15	0.1011	0.0010392	1.32e-05
0.01	293.15	0.1261	0.0010453	1.33e-05
0.01	293.15	0.15	0.0010513	1.34e-05
0.01	298.15	0	0.0009018	1.14e-05
0.01	298.15	0.025	0.0009067	1.15e-05
0.01	298.15	0.0499	0.0009121	1.15e-05
0.01	298.15	0.0755	0.0009178	1.16e-05
0.01	298.15	0.1011	0.0009236	1.17e-05
0.01	298.15	0.1261	0.0009294	1.18e-05
0.01	298.15	0.15	0.000935	1.18e-05
0.01	303.15	0	0.0008053	1.02e-05
0.01	303.15	0.025	0.0008098	1.02e-05
0.01	303.15	0.0499	0.000815	1.03e-05
0.01	303.15	0.0755	0.0008203	1.04e-05
0.01	303.15	0.1011	0.0008257	1.05e-05
0.01	303.15	0.1261	0.0008311	1.05e-05
0.01	303.15	0.15	0.0008362	1.06e-05
0.01	308.15	0	0.0007251	9.2e-06
0.01	308.15	0.025	0.0007293	9.2e-06
0.01	308.15	0.0499	0.0007341	9.3e-06
0.01	308.15	0.0755	0.0007392	9.4e-06
0.01	308.15	0.1011	0.0007442	9.4e-06
0.01	308.15	0.1261	0.0007493	9.5e-06
0.01	308.15	0.15	0.000754	9.5e-06
0.01	313.15	0	0.0006562	8.3e-06
0.01	313.15	0.025	0.0006601	8.4e-06
0.01	313.15	0.0499	0.0006646	8.4e-06
0.01	313.15	0.0755	0.0006694	8.5e-06
0.01	313.15	0.1011	0.0006741	8.5e-06
0.01	313.15	0.1261	0.0006788	8.6e-06
0.01	313.15	0.15	0.0006833	8.6e-06
0.01	318.15	0	0.0006021	7.6e-06
0.01	318.15	0.025	0.0006058	7.7e-06
0.01	318.15	0.0499	0.0006101	7.7e-06
0.01	318.15	0.0755	0.0006146	7.8e-06
0.01	318.15	0.1011	0.0006191	7.8e-06
0.01	318.15	0.1261	0.0006236	7.9e-06
0.01	318.15	0.15	0.0006279	7.9e-06
0.02	293.15	0	0.0010308	1.31e-05
0.02	293.15	0.0264	0.0010376	1.32e-05
0.02	293.15	0.0503	0.001044	1.33e-05
0.02	293.15	0.0751	0.0010506	1.34e-05
0.02	293.15	0.0998	0.0010572	1.35e-05
0.02	293.15	0.125	0.001064	1.35e-05
0.02	293.15	0.1506	0.0010708	1.36e-05
0.02	298.15	0	0.0009134	1.17e-05
0.02	298.15	0.0264	0.0009196	1.17e-05
0.02	298.15	0.0503	0.0009255	1.18e-05
0.02	298.15	0.0751	0.0009316	1.19e-05
0.02	298.15	0.0998	0.0009376	1.2e-05
0.02	298.15	0.125	0.000944	1.21e-05
0.02	298.15	0.1506	0.0009503	1.22e-05
0.02	303.15	0	0.0008152	1.04e-05
0.02	303.15	0.0264	0.0008209	1.05e-05
0.02	303.15	0.0503	0.0008264	1.05e-05
0.02	303.15	0.0751	0.000832	1.06e-05
0.02	303.15	0.0998	0.0008377	1.07e-05
0.02	303.15	0.125	0.0008435	1.08e-05
0.02	303.15	0.1506	0.0008494	1.09e-05
0.02	308.15	0	0.000733	9.3e-06
0.02	308.15	0.0264	0.0007383	9.4e-06
0.02	308.15	0.0503	0.0007434	9.5e-06
0.02	308.15	0.0751	0.0007486	9.5e-06
0.02	308.15	0.0998	0.0007539	9.6e-06
0.02	308.15	0.125	0.0007594	9.7e-06
0.02	308.15	0.1506	0.0007649	9.8e-06
0.02	313.15	0	0.0006646	8.5e-06
0.02	313.15	0.0264	0.0006695	8.5e-06
0.02	313.15	0.0503	0.0006742	8.6e-06
0.02	313.15	0.0751	0.0006792	8.7e-06
0.02	313.15	0.0998	0.0006842	8.7e-06
0.02	313.15	0.125	0.0006892	8.8e-06
0.02	313.15	0.1506	0.0006944	8.9e-06
0.02	318.15	0	0.0006062	7.7e-06
0.02	318.15	0.0264	0.0006108	7.7e-06
0.02	318.15	0.0503	0.0006153	7.8e-06
0.02	318.15	0.0751	0.00062	7.8e-06
0.02	318.15	0.0998	0.0006246	7.9e-06
0.02	318.15	0.125	0.0006295	8e-06
0.02	318.15	0.1506	0.0006344	8e-06

System: L-valine + semicarbazide hydrochloride + water; phases: Liquid
Fixed: Pressure, kPa = 101
Property: Mass density, kg/m3 (Liquid); method: Vibrating tube method
Solvent: Mass fraction of semicarbazide hydrochloride	Temperature, K	Molality, mol/kg of L-valine	Mass density, kg/m3	uncertainty
0.01	293.15	0	1002.51	0.522
0.01	293.15	0.025	1003.145	0.521
0.01	293.15	0.0498	1003.753	0.519
0.01	293.15	0.0753	1004.358	0.518
0.01	293.15	0.0998	1004.917	0.516
0.01	293.15	0.1239	1005.45	0.515
0.01	293.15	0.1502	1006.01	0.512
0.01	298.15	0	1001.29	0.524
0.01	298.15	0.025	1001.922	0.52
0.01	298.15	0.0498	1002.528	0.518
0.01	298.15	0.0753	1003.13	0.517
0.01	298.15	0.0998	1003.687	0.515
0.01	298.15	0.1239	1004.217	0.514
0.01	298.15	0.1502	1004.773	0.514
0.01	303.15	0	999.819	0.524
0.01	303.15	0.025	1000.449	0.521
0.01	303.15	0.0498	1001.053	0.519
0.01	303.15	0.0753	1001.652	0.518
0.01	303.15	0.0998	1002.206	0.516
0.01	303.15	0.1239	1002.732	0.515
0.01	303.15	0.1502	1003.286	0.514
0.01	308.15	0	998.185	0.523
0.01	308.15	0.025	998.814	0.519
0.01	308.15	0.0498	999.416	0.517
0.01	308.15	0.0753	1000.014	0.515
0.01	308.15	0.0998	1000.566	0.514
0.01	308.15	0.1239	1001.09	0.512
0.01	308.15	0.1502	1001.639	0.513
0.01	313.15	0	996.304	0.509
0.01	313.15	0.025	996.933	0.508
0.01	313.15	0.0498	997.535	0.506
0.01	313.15	0.0753	998.132	0.504
0.01	313.15	0.0998	998.683	0.503
0.01	313.15	0.1239	999.206	0.501
0.01	313.15	0.1502	999.754	0.499
0.01	318.15	0	994.429	0.51
0.01	318.15	0.025	995.059	0.509
0.01	318.15	0.0498	995.66	0.507
0.01	318.15	0.0753	996.257	0.505
0.01	318.15	0.0998	996.807	0.504
0.01	318.15	0.1239	997.329	0.502
0.01	318.15	0.1502	997.877	0.499
0.02	293.15	0	1006.71	0.523
0.02	293.15	0.0249	1007.319	0.52
0.02	293.15	0.0499	1007.911	0.519
0.02	293.15	0.0752	1008.489	0.517
0.02	293.15	0.0993	1009.021	0.515
0.02	293.15	0.124	1009.545	0.514
0.02	293.15	0.1497	1010.071	0.513
0.02	298.15	0	1005.43	0.514
0.02	298.15	0.0249	1006.037	0.513
0.02	298.15	0.0499	1006.626	0.511
0.02	298.15	0.0752	1007.202	0.51
0.02	298.15	0.0993	1007.732	0.508
0.02	298.15	0.124	1008.255	0.507
0.02	298.15	0.1497	1008.778	0.504
0.02	303.15	0	1003.99	0.514
0.02	303.15	0.0249	1004.595	0.514
0.02	303.15	0.0499	1005.182	0.513
0.02	303.15	0.0752	1005.755	0.511
0.02	303.15	0.0993	1006.282	0.51
0.02	303.15	0.124	1006.802	0.508
0.02	303.15	0.1497	1007.321	0.504
0.02	308.15	0	1002.31	0.509
0.02	308.15	0.0249	1002.914	0.51
0.02	308.15	0.0499	1003.5	0.508
0.02	308.15	0.0752	1004.071	0.506
0.02	308.15	0.0993	1004.595	0.505
0.02	308.15	0.124	1005.113	0.503
0.02	308.15	0.1497	1005.629	0.499
0.02	313.15	0	1000.34	0.512
0.02	313.15	0.0249	1000.944	0.509
0.02	313.15	0.0499	1001.529	0.507
0.02	313.15	0.0752	1002.1	0.505
0.02	313.15	0.0993	1002.622	0.504
0.02	313.15	0.124	1003.138	0.502
0.02	313.15	0.1497	1003.65	0.502
0.02	318.15	0	998.472	0.51
0.02	318.15	0.0249	999.076	0.507
0.02	318.15	0.0499	999.661	0.506
0.02	318.15	0.0752	1000.231	0.504
0.02	318.15	0.0993	1000.753	0.502
0.02	318.15	0.124	1001.265	0.501
0.02	318.15	0.1497	1001.778	0.499

System: L-valine + semicarbazide hydrochloride + water; phases: Liquid
Fixed: Pressure, kPa = 101
Fixed: Frequency, MHz = 3
Property: Speed of sound, m/s (Liquid); method: Single path-length method
Solvent: Mass fraction of semicarbazide hydrochloride	Temperature, K	Molality, mol/kg of L-valine	Speed of sound, m/s	uncertainty
0.01	293.15	0	1490.02	3.1
0.01	293.15	0.025	1490.39	3.1
0.01	293.15	0.0498	1491.16	3.1
0.01	293.15	0.0753	1492.36	3.1
0.01	293.15	0.0998	1493.94	3.1
0.01	293.15	0.1239	1495.9	3.1
0.01	293.15	0.1502	1498.5	3.11
0.01	298.15	0	1503.02	3.11
0.01	298.15	0.025	1503.36	3.11
0.01	298.15	0.0498	1504.12	3.11
0.01	298.15	0.0753	1505.31	3.11
0.01	298.15	0.0998	1506.86	3.11
0.01	298.15	0.1239	1508.8	3.11
0.01	298.15	0.1502	1511.36	3.11
0.01	303.15	0	1515.12	3.11
0.01	303.15	0.025	1515.43	3.11
0.01	303.15	0.0498	1516.16	3.11
0.01	303.15	0.0753	1517.33	3.11
0.01	303.15	0.0998	1518.84	3.11
0.01	303.15	0.1239	1520.75	3.11
0.01	303.15	0.1502	1523.28	3.11
0.01	308.15	0	1525.57	3.11
0.01	308.15	0.025	1525.85	3.1
0.01	308.15	0.0498	1526.55	3.1
0.01	308.15	0.0753	1527.7	3.1
0.01	308.15	0.0998	1529.2	3.1
0.01	308.15	0.1239	1531.1	3.1
0.01	308.15	0.1502	1533.61	3.11
0.01	313.15	0	1534.28	3.12
0.01	313.15	0.025	1534.53	3.11
0.01	313.15	0.0498	1535.18	3.11
0.01	313.15	0.0753	1536.3	3.11
0.01	313.15	0.0998	1537.77	3.11
0.01	313.15	0.1239	1539.66	3.11
0.01	313.15	0.1502	1542.17	3.12
0.01	318.15	0	1540.68	3.11
0.01	318.15	0.025	1540.88	3.1
0.01	318.15	0.0498	1541.5	3.1
0.01	318.15	0.0753	1542.57	3.1
0.01	318.15	0.0998	1544.02	3.1
0.01	318.15	0.1239	1545.84	3.1
0.01	318.15	0.1502	1548.26	3.11
0.02	293.15	0	1495.82	3.1
0.02	293.15	0.0249	1496.18	3.1
0.02	293.15	0.0499	1496.97	3.11
0.02	293.15	0.0752	1498.2	3.11
0.02	293.15	0.0993	1499.78	3.11
0.02	293.15	0.124	1501.83	3.11
0.02	293.15	0.1497	1504.41	3.11
0.02	298.15	0	1508.98	3.1
0.02	298.15	0.0249	1509.31	3.1
0.02	298.15	0.0499	1510.07	3.1
0.02	298.15	0.0752	1511.28	3.1
0.02	298.15	0.0993	1512.83	3.1
0.02	298.15	0.124	1514.83	3.1
0.02	298.15	0.1497	1517.39	3.1
0.02	303.15	0	1520.88	3.09
0.02	303.15	0.0249	1521.18	3.1
0.02	303.15	0.0499	1521.91	3.1
0.02	303.15	0.0752	1523.08	3.1
0.02	303.15	0.0993	1524.62	3.1
0.02	303.15	0.124	1526.61	3.1
0.02	303.15	0.1497	1529.13	3.09
0.02	308.15	0	1531.22	3.09
0.02	308.15	0.0249	1531.48	3.1
0.02	308.15	0.0499	1532.18	3.09
0.02	308.15	0.0752	1533.32	3.09
0.02	308.15	0.0993	1534.82	3.1
0.02	308.15	0.124	1536.77	3.1
0.02	308.15	0.1497	1539.24	3.09
0.02	313.15	0	1540.05	3.09
0.02	313.15	0.0249	1540.27	3.09
0.02	313.15	0.0499	1540.93	3.09
0.02	313.15	0.0752	1542.03	3.09
0.02	313.15	0.0993	1543.5	3.09
0.02	313.15	0.124	1545.41	3.09
0.02	313.15	0.1497	1547.86	3.09
0.02	318.15	0	1546.72	3.11
0.02	318.15	0.0249	1546.9	3.11
0.02	318.15	0.0499	1547.5	3.11
0.02	318.15	0.0752	1548.54	3.11
0.02	318.15	0.0993	1549.96	3.11
0.02	318.15	0.124	1551.84	3.11
0.02	318.15	0.1497	1554.24	3.11

System: L-valine + semicarbazide hydrochloride + water; phases: Liquid
Fixed: Pressure, kPa = 101
Property: Viscosity, Pa*s (Liquid); method: Falling or rolling sphere viscometry
Solvent: Mass fraction of semicarbazide hydrochloride	Temperature, K	Molality, mol/kg of L-valine	Viscosity, Pa*s	uncertainty
0.01	293.15	0	0.0010156	1.29e-05
0.01	293.15	0.025	0.0010218	1.3e-05
0.01	293.15	0.0498	0.0010311	1.31e-05
0.01	293.15	0.0753	0.0010414	1.32e-05
0.01	293.15	0.0998	0.0010514	1.34e-05
0.01	293.15	0.1239	0.0010616	1.35e-05
0.01	293.15	0.1502	0.0010729	1.36e-05
0.01	298.15	0	0.0009018	1.14e-05
0.01	298.15	0.025	0.0009075	1.15e-05
0.01	298.15	0.0498	0.000916	1.16e-05
0.01	298.15	0.0753	0.0009255	1.17e-05
0.01	298.15	0.0998	0.0009348	1.18e-05
0.01	298.15	0.1239	0.000944	1.2e-05
0.01	298.15	0.1502	0.0009545	1.21e-05
0.01	303.15	0	0.0008053	1.02e-05
0.01	303.15	0.025	0.0008106	1.02e-05
0.01	303.15	0.0498	0.0008185	1.04e-05
0.01	303.15	0.0753	0.0008273	1.05e-05
0.01	303.15	0.0998	0.0008359	1.06e-05
0.01	303.15	0.1239	0.0008444	1.07e-05
0.01	303.15	0.1502	0.000854	1.08e-05
0.01	308.15	0	0.0007251	9.2e-06
0.01	308.15	0.025	0.00073	9.2e-06
0.01	308.15	0.0498	0.0007374	9.3e-06
0.01	308.15	0.0753	0.0007455	9.4e-06
0.01	308.15	0.0998	0.0007535	9.5e-06
0.01	308.15	0.1239	0.0007615	9.6e-06
0.01	308.15	0.1502	0.0007703	9.7e-06
0.01	313.15	0	0.0006562	8.3e-06
0.01	313.15	0.025	0.0006608	8.4e-06
0.01	313.15	0.0498	0.0006677	8.4e-06
0.01	313.15	0.0753	0.0006753	8.5e-06
0.01	313.15	0.0998	0.0006827	8.6e-06
0.01	313.15	0.1239	0.0006902	8.7e-06
0.01	313.15	0.1502	0.0006985	8.8e-06
0.01	318.15	0	0.0006021	7.6e-06
0.01	318.15	0.025	0.0006065	7.7e-06
0.01	318.15	0.0498	0.0006131	7.8e-06
0.01	318.15	0.0753	0.0006202	7.8e-06
0.01	318.15	0.0998	0.0006273	7.9e-06
0.01	318.15	0.1239	0.0006344	8e-06
0.01	318.15	0.1502	0.0006422	8.1e-06
0.02	293.15	0	0.0010308	1.31e-05
0.02	293.15	0.0249	0.0010376	1.32e-05
0.02	293.15	0.0499	0.0010475	1.33e-05
0.02	293.15	0.0752	0.0010582	1.34e-05
0.02	293.15	0.0993	0.0010686	1.36e-05
0.02	293.15	0.124	0.0010795	1.37e-05
0.02	293.15	0.1497	0.0010908	1.39e-05
0.02	298.15	0	0.0009134	1.17e-05
0.02	298.15	0.0249	0.0009197	1.17e-05
0.02	298.15	0.0499	0.000929	1.18e-05
0.02	298.15	0.0752	0.0009388	1.2e-05
0.02	298.15	0.0993	0.0009484	1.21e-05
0.02	298.15	0.124	0.0009583	1.22e-05
0.02	298.15	0.1497	0.0009687	1.24e-05
0.02	303.15	0	0.0008152	1.04e-05
0.02	303.15	0.0249	0.0008211	1.05e-05
0.02	303.15	0.0499	0.0008297	1.06e-05
0.02	303.15	0.0752	0.0008388	1.07e-05
0.02	303.15	0.0993	0.0008476	1.08e-05
0.02	303.15	0.124	0.0008568	1.09e-05
0.02	303.15	0.1497	0.0008665	1.11e-05
0.02	308.15	0	0.000733	9.3e-06
0.02	308.15	0.0249	0.0007385	9.4e-06
0.02	308.15	0.0499	0.0007465	9.5e-06
0.02	308.15	0.0752	0.000755	9.6e-06
0.02	308.15	0.0993	0.0007632	9.7e-06
0.02	308.15	0.124	0.0007717	9.8e-06
0.02	308.15	0.1497	0.0007806	1e-05
0.02	313.15	0	0.0006646	8.5e-06
0.02	313.15	0.0249	0.0006698	8.5e-06
0.02	313.15	0.0499	0.0006773	8.6e-06
0.02	313.15	0.0752	0.0006852	8.7e-06
0.02	313.15	0.0993	0.0006929	8.8e-06
0.02	313.15	0.124	0.0007008	8.9e-06
0.02	313.15	0.1497	0.0007093	9.1e-06
0.02	318.15	0	0.0006062	7.7e-06
0.02	318.15	0.0249	0.0006111	7.7e-06
0.02	318.15	0.0499	0.0006181	7.8e-06
0.02	318.15	0.0752	0.0006256	7.9e-06
0.02	318.15	0.0993	0.0006328	8e-06
0.02	318.15	0.124	0.0006402	8.1e-06
0.02	318.15	0.1497	0.0006482	8.2e-06

System: 2-amino-3-methylpentanoic acid + semicarbazide hydrochloride + water; phases: Liquid
Fixed: Pressure, kPa = 101
Property: Mass density, kg/m3 (Liquid); method: Vibrating tube method
Solvent: Mass fraction of semicarbazide hydrochloride	Temperature, K	Molality, mol/kg of 2-amino-3-methylpentanoic acid	Mass density, kg/m3	uncertainty
0.01	293.15	0	1002.51	0.525
0.01	293.15	0.0261	1003.142	0.523
0.01	293.15	0.0503	1003.707	0.521
0.01	293.15	0.0764	1004.295	0.52
0.01	293.15	0.1003	1004.812	0.518
0.01	293.15	0.1253	1005.333	0.516
0.01	293.15	0.1492	1005.812	0.513
0.01	298.15	0	1001.29	0.526
0.01	298.15	0.0261	1001.92	0.522
0.01	298.15	0.0503	1002.483	0.52
0.01	298.15	0.0764	1003.068	0.518
0.01	298.15	0.1003	1003.584	0.516
0.01	298.15	0.1253	1004.104	0.515
0.01	298.15	0.1492	1004.581	0.515
0.01	303.15	0	999.819	0.526
0.01	303.15	0.0261	1000.448	0.523
0.01	303.15	0.0503	1001.009	0.521
0.01	303.15	0.0764	1001.593	0.519
0.01	303.15	0.1003	1002.108	0.517
0.01	303.15	0.1253	1002.627	0.515
0.01	303.15	0.1492	1003.105	0.515
0.01	308.15	0	998.185	0.525
0.01	308.15	0.0261	998.813	0.521
0.01	308.15	0.0503	999.373	0.519
0.01	308.15	0.0764	999.956	0.517
0.01	308.15	0.1003	1000.47	0.515
0.01	308.15	0.1253	1000.988	0.513
0.01	308.15	0.1492	1001.463	0.513
0.01	313.15	0	996.304	0.511
0.01	313.15	0.0261	996.931	0.51
0.01	313.15	0.0503	997.492	0.508
0.01	313.15	0.0764	998.075	0.506
0.01	313.15	0.1003	998.588	0.503
0.01	313.15	0.1253	999.106	0.501
0.01	313.15	0.1492	999.582	0.499
0.01	318.15	0	994.429	0.512
0.01	318.15	0.0261	995.057	0.511
0.01	318.15	0.0503	995.617	0.509
0.01	318.15	0.0764	996.2	0.506
0.01	318.15	0.1003	996.714	0.504
0.01	318.15	0.1253	997.233	0.502
0.01	318.15	0.1492	997.708	0.499
0.02	293.15	0	1006.71	0.525
0.02	293.15	0.0247	1007.284	0.522
0.02	293.15	0.0495	1007.839	0.521
0.02	293.15	0.074	1008.368	0.519
0.02	293.15	0.1004	1008.916	0.517
0.02	293.15	0.1235	1009.378	0.515
0.02	293.15	0.1508	1009.9	0.514
0.02	298.15	0	1005.43	0.516
0.02	298.15	0.0247	1006.001	0.515
0.02	298.15	0.0495	1006.555	0.513
0.02	298.15	0.074	1007.082	0.511
0.02	298.15	0.1004	1007.628	0.51
0.02	298.15	0.1235	1008.086	0.508
0.02	298.15	0.1508	1008.607	0.505
0.02	303.15	0	1003.99	0.516
0.02	303.15	0.0247	1004.56	0.516
0.02	303.15	0.0495	1005.111	0.514
0.02	303.15	0.074	1005.636	0.512
0.02	303.15	0.1004	1006.179	0.511
0.02	303.15	0.1235	1006.635	0.509
0.02	303.15	0.1508	1007.152	0.505
0.02	308.15	0	1002.31	0.511
0.02	308.15	0.0247	1002.879	0.512
0.02	308.15	0.0495	1003.429	0.51
0.02	308.15	0.074	1003.952	0.508
0.02	308.15	0.1004	1004.494	0.506
0.02	308.15	0.1235	1004.95	0.504
0.02	308.15	0.1508	1005.466	0.5
0.02	313.15	0	1000.34	0.514
0.02	313.15	0.0247	1000.908	0.511
0.02	313.15	0.0495	1001.459	0.509
0.02	313.15	0.074	1001.982	0.507
0.02	313.15	0.1004	1002.522	0.505
0.02	313.15	0.1235	1002.976	0.503
0.02	313.15	0.1508	1003.489	0.502
0.02	318.15	0	998.472	0.512
0.02	318.15	0.0247	999.04	0.509
0.02	318.15	0.0495	999.589	0.507
0.02	318.15	0.074	1000.111	0.505
0.02	318.15	0.1004	1000.65	0.503
0.02	318.15	0.1235	1001.102	0.501
0.02	318.15	0.1508	1001.613	0.499

System: 2-amino-3-methylpentanoic acid + semicarbazide hydrochloride + water; phases: Liquid
Fixed: Pressure, kPa = 101
Fixed: Frequency, MHz = 3
Property: Speed of sound, m/s (Liquid); method: Single path-length method
Solvent: Mass fraction of semicarbazide hydrochloride	Temperature, K	Molality, mol/kg of 2-amino-3-methylpentanoic acid	Speed of sound, m/s	uncertainty
0.01	293.15	0	1490.02	3.11
0.01	293.15	0.0261	1490.31	3.11
0.01	293.15	0.0503	1491.01	3.11
0.01	293.15	0.0764	1492.22	3.11
0.01	293.15	0.1003	1493.77	3.11
0.01	293.15	0.1253	1495.84	3.11
0.01	293.15	0.1492	1498.23	3.11
0.01	298.15	0	1503.02	3.12
0.01	298.15	0.0261	1503.28	3.12
0.01	298.15	0.0503	1503.96	3.12
0.01	298.15	0.0764	1505.15	3.12
0.01	298.15	0.1003	1506.67	3.12
0.01	298.15	0.1253	1508.7	3.11
0.01	298.15	0.1492	1511.05	3.12
0.01	303.15	0	1515.12	3.12
0.01	303.15	0.0261	1515.35	3.12
0.01	303.15	0.0503	1515.99	3.12
0.01	303.15	0.0764	1517.15	3.12
0.01	303.15	0.1003	1518.63	3.11
0.01	303.15	0.1253	1520.6	3.11
0.01	303.15	0.1492	1522.93	3.12
0.01	308.15	0	1525.57	3.12
0.01	308.15	0.0261	1525.77	3.12
0.01	308.15	0.0503	1526.37	3.11
0.01	308.15	0.0764	1527.49	3.11
0.01	308.15	0.1003	1528.94	3.11
0.01	308.15	0.1253	1530.89	3.11
0.01	308.15	0.1492	1533.17	3.12
0.01	313.15	0	1534.28	3.13
0.01	313.15	0.0261	1534.44	3.12
0.01	313.15	0.0503	1535.02	3.12
0.01	313.15	0.0764	1536.09	3.12
0.01	313.15	0.1003	1537.51	3.12
0.01	313.15	0.1253	1539.44	3.12
0.01	313.15	0.1492	1541.69	3.12
0.01	318.15	0	1540.68	3.12
0.01	318.15	0.0261	1540.8	3.12
0.01	318.15	0.0503	1541.33	3.11
0.01	318.15	0.0764	1542.36	3.11
0.01	318.15	0.1003	1543.74	3.11
0.01	318.15	0.1253	1545.62	3.11
0.01	318.15	0.1492	1547.82	3.11
0.02	293.15	0	1495.82	3.11
0.02	293.15	0.0247	1496.05	3.12
0.02	293.15	0.0495	1496.7	3.12
0.02	293.15	0.074	1497.76	3.11
0.02	293.15	0.1004	1499.36	3.11
0.02	293.15	0.1235	1501.17	3.11
0.02	293.15	0.1508	1503.8	3.11
0.02	298.15	0	1508.98	3.11
0.02	298.15	0.0247	1509.18	3.11
0.02	298.15	0.0495	1509.81	3.11
0.02	298.15	0.074	1510.85	3.11
0.02	298.15	0.1004	1512.43	3.11
0.02	298.15	0.1235	1514.21	3.11
0.02	298.15	0.1508	1516.81	3.1
0.02	303.15	0	1520.88	3.1
0.02	303.15	0.0247	1521.05	3.11
0.02	303.15	0.0495	1521.65	3.11
0.02	303.15	0.074	1522.67	3.11
0.02	303.15	0.1004	1524.21	3.11
0.02	303.15	0.1235	1525.98	3.11
0.02	303.15	0.1508	1528.55	3.1
0.02	308.15	0	1531.22	3.1
0.02	308.15	0.0247	1531.36	3.11
0.02	308.15	0.0495	1531.93	3.11
0.02	308.15	0.074	1532.91	3.11
0.02	308.15	0.1004	1534.45	3.1
0.02	308.15	0.1235	1536.2	3.1
0.02	308.15	0.1508	1538.75	3.1
0.02	313.15	0	1540.05	3.1
0.02	313.15	0.0247	1540.15	3.11
0.02	313.15	0.0495	1540.69	3.11
0.02	313.15	0.074	1541.63	3.11
0.02	313.15	0.1004	1543.13	3.1
0.02	313.15	0.1235	1544.85	3.1
0.02	313.15	0.1508	1547.35	3.1
0.02	318.15	0	1546.72	3.12
0.02	318.15	0.0247	1546.78	3.12
0.02	318.15	0.0495	1547.27	3.12
0.02	318.15	0.074	1548.18	3.12
0.02	318.15	0.1004	1549.62	3.12
0.02	318.15	0.1235	1551.29	3.12
0.02	318.15	0.1508	1553.72	3.11

System: 2-amino-3-methylpentanoic acid + semicarbazide hydrochloride + water; phases: Liquid
Fixed: Pressure, kPa = 101
Property: Viscosity, Pa*s (Liquid); method: Falling or rolling sphere viscometry
Solvent: Mass fraction of semicarbazide hydrochloride	Temperature, K	Molality, mol/kg of 2-amino-3-methylpentanoic acid	Viscosity, Pa*s	uncertainty
0.01	293.15	0	0.0010156	1.3e-05
0.01	293.15	0.0261	0.0010225	1.3e-05
0.01	293.15	0.0503	0.0010333	1.32e-05
0.01	293.15	0.0764	0.0010458	1.34e-05
0.01	293.15	0.1003	0.0010577	1.35e-05
0.01	293.15	0.1253	0.0010702	1.37e-05
0.01	293.15	0.1492	0.0010825	1.39e-05
0.01	298.15	0	0.0009018	1.15e-05
0.01	298.15	0.0261	0.0009082	1.16e-05
0.01	298.15	0.0503	0.0009182	1.17e-05
0.01	298.15	0.0764	0.0009296	1.18e-05
0.01	298.15	0.1003	0.0009405	1.2e-05
0.01	298.15	0.1253	0.0009521	1.21e-05
0.01	298.15	0.1492	0.0009634	1.23e-05
0.01	303.15	0	0.0008053	1.02e-05
0.01	303.15	0.0261	0.0008113	1.03e-05
0.01	303.15	0.0503	0.0008207	1.04e-05
0.01	303.15	0.0764	0.0008313	1.06e-05
0.01	303.15	0.1003	0.0008412	1.07e-05
0.01	303.15	0.1253	0.0008521	1.08e-05
0.01	303.15	0.1492	0.0008623	1.1e-05
0.01	308.15	0	0.0007251	9.2e-06
0.01	308.15	0.0261	0.0007308	9.3e-06
0.01	308.15	0.0503	0.0007395	9.4e-06
0.01	308.15	0.0764	0.0007493	9.5e-06
0.01	308.15	0.1003	0.0007587	9.7e-06
0.01	308.15	0.1253	0.0007687	9.8e-06
0.01	308.15	0.1492	0.0007783	9.9e-06
0.01	313.15	0	0.0006562	8.3e-06
0.01	313.15	0.0261	0.0006616	8.4e-06
0.01	313.15	0.0503	0.0006697	8.5e-06
0.01	313.15	0.0764	0.0006789	8.6e-06
0.01	313.15	0.1003	0.0006876	8.8e-06
0.01	313.15	0.1253	0.000697	8.9e-06
0.01	313.15	0.1492	0.0007059	9e-06
0.01	318.15	0	0.0006021	7.7e-06
0.01	318.15	0.0261	0.0006073	7.7e-06
0.01	318.15	0.0503	0.0006149	7.8e-06
0.01	318.15	0.0764	0.0006236	7.9e-06
0.01	318.15	0.1003	0.0006319	8e-06
0.01	318.15	0.1253	0.0006407	8.1e-06
0.01	318.15	0.1492	0.0006491	8.3e-06
0.02	293.15	0	0.0010308	1.32e-05
0.02	293.15	0.0247	0.001038	1.33e-05
0.02	293.15	0.0495	0.0010495	1.34e-05
0.02	293.15	0.074	0.0010617	1.36e-05
0.02	293.15	0.1004	0.0010754	1.37e-05
0.02	293.15	0.1235	0.0010875	1.39e-05
0.02	293.15	0.1508	0.0011024	1.41e-05
0.02	298.15	0	0.0009134	1.17e-05
0.02	298.15	0.0247	0.00092	1.18e-05
0.02	298.15	0.0495	0.0009307	1.19e-05
0.02	298.15	0.074	0.000942	1.21e-05
0.02	298.15	0.1004	0.0009545	1.22e-05
0.02	298.15	0.1235	0.0009656	1.24e-05
0.02	298.15	0.1508	0.0009791	1.26e-05
0.02	303.15	0	0.0008152	1.05e-05
0.02	303.15	0.0247	0.0008213	1.05e-05
0.02	303.15	0.0495	0.0008314	1.06e-05
0.02	303.15	0.074	0.0008418	1.08e-05
0.02	303.15	0.1004	0.0008533	1.09e-05
0.02	303.15	0.1235	0.0008637	1.11e-05
0.02	303.15	0.1508	0.0008758	1.13e-05
0.02	308.15	0	0.000733	9.4e-06
0.02	308.15	0.0247	0.0007387	9.4e-06
0.02	308.15	0.0495	0.000748	9.6e-06
0.02	308.15	0.074	0.0007577	9.7e-06
0.02	308.15	0.1004	0.0007684	9.8e-06
0.02	308.15	0.1235	0.0007779	1e-05
0.02	308.15	0.1508	0.0007893	1.01e-05
0.02	313.15	0	0.0006646	8.5e-06
0.02	313.15	0.0247	0.0006699	8.6e-06
0.02	313.15	0.0495	0.0006786	8.7e-06
0.02	313.15	0.074	0.0006876	8.8e-06
0.02	313.15	0.1004	0.0006976	8.9e-06
0.02	313.15	0.1235	0.0007065	9e-06
0.02	313.15	0.1508	0.0007171	9.2e-06
0.02	318.15	0	0.0006062	7.7e-06
0.02	318.15	0.0247	0.0006112	7.8e-06
0.02	318.15	0.0495	0.0006193	7.9e-06
0.02	318.15	0.074	0.0006278	8e-06
0.02	318.15	0.1004	0.0006371	8.1e-06
0.02	318.15	0.1235	0.0006455	8.2e-06
0.02	318.15	0.1508	0.0006554	8.3e-06

System: semicarbazide hydrochloride + water; phases: Liquid
Fixed: Pressure, kPa = 101
Property: Mass density, kg/m3 (Liquid); method: Vibrating tube method
Mass fraction of semicarbazide hydrochloride	Temperature, K	Mass density, kg/m3	uncertainty
0.01	293.15	1002.51	0.521
0.01	298.15	1001.29	0.523
0.01	303.15	999.819	0.523
0.01	308.15	998.185	0.521
0.01	313.15	996.304	0.507
0.01	318.15	994.429	0.508
0.02	293.15	1006.71	0.521
0.02	298.15	1005.43	0.512
0.02	303.15	1003.99	0.512
0.02	308.15	1002.31	0.507
0.02	313.15	1000.34	0.51
0.02	318.15	998.472	0.508

System: semicarbazide hydrochloride + water; phases: Liquid
Fixed: Pressure, kPa = 101
Fixed: Frequency, MHz = 3
Property: Speed of sound, m/s (Liquid); method: Single path-length method
Mass fraction of semicarbazide hydrochloride	Temperature, K	Speed of sound, m/s	uncertainty
0.01	293.15	1490.02	3.09
0.01	298.15	1503.02	3.1
0.01	303.15	1515.12	3.1
0.01	308.15	1525.57	3.1
0.01	313.15	1534.28	3.11
0.01	318.15	1540.68	3.1
0.02	293.15	1495.82	3.09
0.02	298.15	1508.98	3.09
0.02	303.15	1520.88	3.08
0.02	308.15	1531.22	3.08
0.02	313.15	1540.05	3.08
0.02	318.15	1546.72	3.1

System: semicarbazide hydrochloride + water; phases: Liquid
Fixed: Pressure, kPa = 101
Property: Viscosity, Pa*s (Liquid); method: Falling or rolling sphere viscometry
Mass fraction of semicarbazide hydrochloride	Temperature, K	Viscosity, Pa*s	uncertainty
0.01	293.15	0.0010156	1.28e-05
0.01	298.15	0.0009018	1.13e-05
0.01	303.15	0.0008053	1.01e-05
0.01	308.15	0.0007251	9.1e-06
0.01	313.15	0.0006562	8.2e-06
0.01	318.15	0.0006021	7.6e-06
0.02	293.15	0.0010308	1.3e-05
0.02	298.15	0.0009134	1.16e-05
0.02	303.15	0.0008152	1.03e-05
0.02	308.15	0.000733	9.3e-06
0.02	313.15	0.0006646	8.4e-06
0.02	318.15	0.0006062	7.6e-06
