Measured thermophysical data. Phase equilibrium data for potentially hazardous binary mixtures involving dichlorosilane, trichlorosilane and silicon-tetrachloride
Source: J. Chem. Thermodyn., 2015, 10.1016/j.jct.2015.07.047
Compound 1: dichlorosilane, Cl2H2Si, InChI=1S/Cl2H2Si/c1-3-2/h3H2
Compound 2: trichlorosilane, Cl3HSi, InChI=1S/Cl3HSi/c1-4(2)3/h4H
Compound 3: silicon tetrachloride, Cl4Si, InChI=1S/Cl4Si/c1-5(2,3)4

System: dichlorosilane; phases: Liquid, Gas
Property: Vapor or sublimation pressure, kPa (Liquid); method: Closed cell (Static) method
Temperature, K	Vapor or sublimation pressure, kPa	uncertainty
313.36	290.6	1.1
323.35	384.1	1.2
333.19	496.6	1.3
343.04	631.7	1.5
352.98	793.4	1.7
362.94	982.4	2

System: trichlorosilane; phases: Liquid, Gas
Property: Vapor or sublimation pressure, kPa (Liquid); method: Closed cell (Static) method
Temperature, K	Vapor or sublimation pressure, kPa	uncertainty
313.34	134.1	1
323.33	183.5	1
333.17	245	1.1
343	321	1.1
352.96	414.5	1.3
362.96	528.8	1.4

System: silicon tetrachloride; phases: Liquid, Gas
Property: Vapor or sublimation pressure, kPa (Liquid); method: Closed cell (Static) method
Temperature, K	Vapor or sublimation pressure, kPa	uncertainty
318.27	66.7	0.9
328.25	94	0.9
338.31	129.8	0.9
348.08	172.9	1
358.17	228.4	1
368.17	295.3	1.1

System: dichlorosilane + trichlorosilane; phases: Liquid, Gas
Property: Vapor or sublimation pressure, kPa (Liquid); method: Closed cell (Static) method
Mole fraction of dichlorosilane	Temperature, K	Vapor or sublimation pressure, kPa	uncertainty
0.031	343.03	332.1	1.7
0.075	343	346.2	2
0.098	343.04	354.6	2.3
0.141	343.01	369	2.9
0.162	343.02	376	3.1
0.249	343.02	406.1	4
0.341	343.03	435	4.5
0.438	343.03	466.9	4.9
0.505	343.02	488	4.8
0.645	343.04	532	4.5
0.751	343.03	564	3.3
0.776	343.05	570	3.1
0.064	333.13	262.4	1.4
0.091	333.11	269.6	1.9
0.137	333.1	282.5	2.3
0.22	333.12	305.1	3.3
0.257	333.11	314	3
0.361	333.11	342	3.9
0.402	333.12	352.7	3.6
0.564	333.1	394	3.8
0.689	333.13	424.5	1.8
0.714	333.09	431	3.7
0.775	333.11	446.5	3.2
0.799	333.1	452	2
0.83	333.08	459	1.9
0.847	333.1	462	2.2
0.856	333.11	464	2.3
0.057	323.13	195.4	1.2
0.107	323.17	205.6	1.6
0.151	323.16	215.6	2
0.211	323.16	228.4	2.3
0.253	323.16	237	2.6
0.308	323.16	248.2	2.8
0.36	323.15	259	2.9
0.568	323.18	301	3
0.602	323.23	308	2.9
0.674	323.18	322	2.7
0.728	323.2	332	2.6
0.743	323.19	336	2.6
0.768	323.19	340	2.2

System: dichlorosilane + trichlorosilane; phases: Gas, Liquid
Property: Mole fraction of dichlorosilane (Gas); method: Chromatography
Mole fraction of dichlorosilane	Temperature, K	Mole fraction of dichlorosilane	uncertainty
0.031	343.03	0.057	0.005
0.075	343	0.135	0.009
0.098	343.04	0.171	0.011
0.141	343.01	0.239	0.015
0.162	343.02	0.265	0.015
0.249	343.02	0.387	0.019
0.341	343.03	0.488	0.021
0.438	343.03	0.594	0.02
0.505	343.02	0.648	0.018
0.645	343.04	0.764	0.015
0.751	343.03	0.846	0.009
0.776	343.05	0.857	0.008
0.064	333.13	0.118	0.008
0.091	333.11	0.168	0.012
0.137	333.1	0.24	0.015
0.22	333.12	0.358	0.019
0.257	333.11	0.403	0.019
0.361	333.11	0.523	0.021
0.402	333.12	0.562	0.02
0.564	333.1	0.712	0.017
0.689	333.13	0.802	0.013
0.714	333.09	0.823	0.012
0.775	333.11	0.866	0.01
0.799	333.1	0.881	0.009
0.83	333.08	0.9	0.008
0.847	333.1	0.91	0.007
0.856	333.11	0.916	0.006
0.057	323.13	0.115	0.007
0.107	323.17	0.198	0.012
0.151	323.16	0.264	0.015
0.211	323.16	0.354	0.018
0.253	323.16	0.403	0.02
0.308	323.16	0.469	0.021
0.36	323.15	0.534	0.019
0.568	323.18	0.722	0.014
0.602	323.23	0.743	0.015
0.674	323.18	0.802	0.013
0.728	323.2	0.834	0.011
0.743	323.19	0.848	0.01
0.768	323.19	0.859	0.008

System: dichlorosilane + silicon tetrachloride; phases: Liquid, Gas
Property: Vapor or sublimation pressure, kPa (Liquid); method: Closed cell (Static) method
Mole fraction of dichlorosilane	Temperature, K	Vapor or sublimation pressure, kPa	uncertainty
0.092	343.29	205.1	2.9
0.267	343.28	300.3	6
0.363	343.29	348.5	6.6
0.447	343.3	390	6.9
0.662	343.28	492.9	6.4
0.717	343.27	517.5	5.2
0.896	343.26	595	2.6
0.919	343.28	602	2.6
0.08	353.06	254	3
0.132	353.07	290.1	4.4
0.153	353.06	305	7
0.234	353.07	360.1	7.4
0.323	353.08	418	7.7
0.432	353.1	484.9	8.5
0.621	353.07	595.6	7.4
0.659	353.05	616.1	7.2
0.75	353.07	664	5.6
0.832	353.06	705.7	4.3

System: dichlorosilane + silicon tetrachloride; phases: Gas, Liquid
Property: Mole fraction of dichlorosilane (Gas); method: Chromatography
Mole fraction of dichlorosilane	Temperature, K	Mole fraction of dichlorosilane	uncertainty
0.092	343.29	0.308	0.015
0.267	343.28	0.594	0.021
0.363	343.29	0.69	0.017
0.447	343.3	0.753	0.013
0.662	343.28	0.874	0.009
0.717	343.27	0.897	0.007
0.896	343.26	0.962	0.002
0.919	343.28	0.967	0.002
0.08	353.06	0.259	0.015
0.132	353.07	0.383	0.019
0.153	353.06	0.418	0.021
0.234	353.07	0.55	0.021
0.323	353.08	0.651	0.018
0.432	353.1	0.741	0.014
0.621	353.07	0.844	0.009
0.659	353.05	0.863	0.008
0.75	353.07	0.898	0.006
0.832	353.06	0.931	0.004

System: trichlorosilane + silicon tetrachloride; phases: Liquid, Gas
Property: Vapor or sublimation pressure, kPa (Liquid); method: Closed cell (Static) method
Mole fraction of trichlorosilane	Temperature, K	Vapor or sublimation pressure, kPa	uncertainty
0.294	343.04	203.3	1.7
0.378	343.06	217.3	1.8
0.42	343.07	224.4	1.8
0.61	343.04	257.6	1.9
0.713	343.03	274	1.9
0.804	343.06	289.1	1.9
0.838	343.06	294.7	2
0.927	343.02	309.8	1.8
0.945	343.02	312.2	1.9
0.967	343.04	316	2
0.016	353.07	203	2.5
0.032	353.06	207.3	2.3
0.062	353.07	214.5	2.3
0.099	353.01	223.7	2.2
0.142	353.05	232.5	2.1
0.238	353.06	254.6	2.2
0.449	353.05	302.6	2.2
0.55	353.04	322.5	2.3
0.646	353.02	342.7	2.2
0.689	353.08	351	2.8
0.712	353.02	356.4	2.6
0.737	353.03	362	1.9
0.797	353.02	373.6	2.5
0.82	353	377.9	2.2
0.852	353.03	385	2.1
0.955	353.06	405	3.4
0.965	353.03	407.8	3.4
0.169	363.01	308.7	2.6
0.243	363	329	2.7
0.31	363	349.1	2.6
0.418	363.02	376.9	2.6
0.457	363.01	388	2.6
0.602	363.02	425.5	2.7
0.642	363	435.9	2.8
0.717	363	456.3	2.8
0.759	363	467.4	2.8
0.795	363.01	477.1	2.9
0.835	363	488	2.7
0.932	362.99	510.3	2.8

System: trichlorosilane + silicon tetrachloride; phases: Gas, Liquid
Property: Mole fraction of trichlorosilane (Gas); method: Chromatography
Mole fraction of trichlorosilane	Temperature, K	Mole fraction of trichlorosilane	uncertainty
0.294	343.04	0.467	0.012
0.378	343.06	0.554	0.012
0.42	343.07	0.593	0.012
0.61	343.04	0.764	0.011
0.713	343.03	0.832	0.01
0.804	343.06	0.89	0.01
0.838	343.06	0.912	0.009
0.927	343.02	0.962	0.009
0.945	343.02	0.97	0.009
0.967	343.04	0.982	0.009
0.016	353.07	0.033	0.021
0.032	353.06	0.071	0.017
0.062	353.07	0.119	0.015
0.099	353.01	0.179	0.015
0.142	353.05	0.247	0.015
0.238	353.06	0.389	0.013
0.449	353.05	0.63	0.012
0.55	353.04	0.707	0.011
0.646	353.02	0.782	0.01
0.689	353.08	0.809	0.01
0.712	353.02	0.828	0.01
0.737	353.03	0.843	0.01
0.797	353.02	0.879	0.009
0.82	353	0.89	0.01
0.852	353.03	0.918	0.009
0.955	353.06	0.973	0.009
0.965	353.03	0.981	0.009
0.169	363.01	0.28	0.014
0.243	363	0.382	0.014
0.31	363	0.471	0.013
0.418	363.02	0.577	0.012
0.457	363.01	0.617	0.011
0.602	363.02	0.736	0.011
0.642	363	0.769	0.01
0.717	363	0.821	0.01
0.759	363	0.852	0.01
0.795	363.01	0.875	0.01
0.835	363	0.907	0.01
0.932	362.99	0.961	0.009
