Measured thermophysical data. Thermodynamic properties of biofuels: Heat capacities of binary mixtures containing ethanol and hydrocarbons up to 20 MPa and the pure compounds  using a new flow calorimeter
Source: J. Chem. Thermodyn., 2011, 10.1016/j.jct.2011.06.019
Compound 1: ethanol, C2H6O, InChI=1S/C2H6O/c1-2-3/h3H,2H2,1H3, purity 99.5%
Compound 2: heptane, C7H16, InChI=1S/C7H16/c1-3-5-7-6-4-2/h3-7H2,1-2H3, purity 99.5%
Compound 3: toluene, C7H8, InChI=1S/C7H8/c1-7-5-3-2-4-6-7/h2-6H,1H3, purity 99.7%

System: ethanol; phases: Liquid
Property: Molar heat capacity at constant pressure, J/K/mol (Liquid); method: Flow calorimetry
Temperature, K	Pressure, kPa	Molar heat capacity at constant pressure, J/K/mol	uncertainty
273.15	100	103.5	1
273.15	5000	103.1	1
273.15	10000	102.1	1
273.15	15000	101.7	1
273.15	20000	100.7	1
293.15	100	111.2	1.1
293.15	5000	110.2	1.1
293.15	10000	109	1.1
293.15	15000	108.1	1.1
293.15	20000	107.4	1.1
313.15	100	119.2	1.2
313.15	5000	118	1.2
313.15	10000	116.8	1.2
313.15	15000	115.5	1.2
313.15	20000	114.9	1.2
333.15	100	130	1.3
333.15	5000	129.1	1.3
333.15	10000	127.7	1.3
333.15	15000	126	1.3
333.15	20000	124.7	1.3

System: heptane; phases: Liquid
Property: Molar heat capacity at constant pressure, J/K/mol (Liquid); method: Flow calorimetry
Temperature, K	Pressure, kPa	Molar heat capacity at constant pressure, J/K/mol	uncertainty
273.15	100	216.2	2.2
273.15	5000	213.1	2.2
273.15	10000	210.9	2.1
273.15	15000	208.1	2.1
273.15	20000	207.2	2.1
293.15	100	224.1	2.3
293.15	5000	223	2.3
293.15	10000	218.2	2.2
293.15	15000	216.8	2.2
293.15	20000	214.4	2.2
313.15	100	233.8	2.4
313.15	5000	230.3	2.3
313.15	10000	226.2	2.3
313.15	15000	223.1	2.3
313.15	20000	221.6	2.2
333.15	100	241.9	2.4
333.15	5000	238.7	2.4
333.15	10000	235	2.4
333.15	15000	232	2.3
333.15	20000	229.3	2.3

System: ethanol + heptane; phases: Liquid
Fixed: Temperature, K = 313.15
Property: Molar heat capacity at constant pressure, J/K/mol (Liquid); method: Flow calorimetry
Pressure, kPa	Mole fraction of heptane	Molar heat capacity at constant pressure, J/K/mol	uncertainty
100	0	119.2	1.2
100	0.1	134.2	1.4
100	0.2001	149.4	1.5
100	0.3	163.6	1.7
100	0.4001	176.8	1.8
100	0.5001	190.9	1.9
100	0.6	202.9	2.1
100	0.6999	215.3	2.2
100	0.7999	224.9	2.3
100	0.9	234.8	2.4
100	1	233.8	2.4
5000	0	118	1.2
5000	0.1	132.5	1.3
5000	0.2001	147.1	1.5
5000	0.3	160.8	1.6
5000	0.4001	174.2	1.8
5000	0.5001	187.6	1.9
5000	0.6	200	2
5000	0.6999	211.9	2.1
5000	0.7999	221.4	2.2
5000	0.9	230.4	2.3
5000	1	230.3	2.3
10000	0	116.8	1.2
10000	0.1	130.7	1.3
10000	0.2001	146.1	1.5
10000	0.3	158.6	1.6
10000	0.4001	171.6	1.7
10000	0.5001	185	1.9
10000	0.6	196.7	2
10000	0.6999	209	2.1
10000	0.7999	218.7	2.2
10000	0.9	226.9	2.3
10000	1	226.2	2.3
15000	0	115.5	1.2
15000	0.1	129.5	1.3
15000	0.2001	143.6	1.5
15000	0.3	156.7	1.6
15000	0.4001	169.4	1.7
15000	0.5001	182.5	1.8
15000	0.6	194.8	2
15000	0.6999	205.9	2.1
15000	0.7999	215.9	2.2
15000	0.9	223.8	2.3
15000	1	223.1	2.3
20000	0	114.9	1.2
20000	0.1	128.4	1.3
20000	0.2001	142.4	1.4
20000	0.3	155.3	1.6
20000	0.4001	168.3	1.7
20000	0.5001	180.9	1.8
20000	0.6	193.1	2
20000	0.6999	204	2.1
20000	0.7999	213.3	2.2
20000	0.9	222.6	2.2
20000	1	221.6	2.2

System: ethanol + toluene; phases: Liquid
Fixed: Temperature, K = 313.15
Property: Molar heat capacity at constant pressure, J/K/mol (Liquid); method: Flow calorimetry
Pressure, kPa	Mole fraction of toluene	Molar heat capacity at constant pressure, J/K/mol	uncertainty
100	0	119.2	1.2
100	0.1003	130.1	1.3
100	0.2007	138.3	1.4
100	0.2999	146.1	1.5
100	0.4002	153.2	1.5
100	0.5	159.1	1.6
100	0.6001	163.7	1.7
100	0.7	167.7	1.7
100	0.8	169.5	1.7
100	0.9001	168.5	1.7
100	1	163.5	1.7
5000	0	118	1.2
5000	0.1003	128.7	1.3
5000	0.2007	136.6	1.4
5000	0.2999	144.2	1.5
5000	0.4002	151.3	1.5
5000	0.5	157.1	1.6
5000	0.6001	162	1.6
5000	0.7	165.3	1.7
5000	0.8	167.5	1.7
5000	0.9001	167.3	1.7
5000	1	161.3	1.6
10000	0	116.8	1.2
10000	0.1003	127.3	1.3
10000	0.2007	135.5	1.4
10000	0.2999	143.2	1.4
10000	0.4002	150	1.5
10000	0.5	155.7	1.6
10000	0.6001	160.2	1.6
10000	0.7	164.1	1.7
10000	0.8	166.3	1.7
10000	0.9001	165.9	1.7
10000	1	159.9	1.6
15000	0	115.5	1.2
15000	0.1003	126.1	1.3
15000	0.2007	134.4	1.4
15000	0.2999	141.9	1.4
15000	0.4002	148.5	1.5
15000	0.5	154.3	1.6
15000	0.6001	158.6	1.6
15000	0.7	162.6	1.6
15000	0.8	164.9	1.7
15000	0.9001	165.2	1.7
15000	1	158.9	1.6
20000	0	114.9	1.2
20000	0.1003	125.1	1.3
20000	0.2007	133.6	1.4
20000	0.2999	140.9	1.4
20000	0.4002	147.5	1.5
20000	0.5	153.4	1.6
20000	0.6001	158.1	1.6
20000	0.7	161.8	1.6
20000	0.8	164	1.7
20000	0.9001	163.6	1.7
20000	1	157.8	1.6
