Measured thermophysical data. Effect of the structure, solid state and lipophilicity on the solubility of novel bicyclic derivatives
Source: J. Chem. Thermodyn., 2014, 10.1016/j.jct.2014.06.014
Compound 1: (4-methylphenyl)-[3-thia-1-aza-bicyclo[3.3.1]non-2-ylidene]amine, C14H18N2S, InChI=1S/C14H18N2S/c1-11-4-6-13(7-5-11)15-14-16-8-2-3-12(9-16)10-17-14/h4-7,12H,2-3,8-10H2,1H3
Compound 2: (4-isopropylphenyl)-[3-thia-1-aza-bicyclo[3.3.1]non-2-ylidene]amine, C16H22N2S, InChI=1S/C16H22N2S/c1-12(2)14-5-7-15(8-6-14)17-16-18-9-3-4-13(10-18)11-19-16/h5-8,12-13H,3-4,9-11H2,1-2H3
Compound 3: (4-fluorophenyl)-[3-thia-1-aza-bicyclo[3.3.1]non-2-ylidene]amine, C13H15FN2S, InChI=1S/C13H15FN2S/c14-11-3-5-12(6-4-11)15-13-16-7-1-2-10(8-16)9-17-13/h3-6,10H,1-2,7-9H2
Compound 4: (4-(trifluoromethyl)phenyl)-[3-thia-1-aza-bicyclo[3.3.1]non-2-ylidene]amine, C14H15F3N2S, InChI=1S/C14H15F3N2S/c15-14(16,17)11-3-5-12(6-4-11)18-13-19-7-1-2-10(8-19)9-20-13/h3-6,10H,1-2,7-9H2
Compound 5: (4-acetylphenyl)-[3-thia-1-aza-bicyclo[3.3.1]non-2-ylidene]amine, C15H18N2OS, InChI=1S/C15H18N2OS/c1-11(18)13-4-6-14(7-5-13)16-15-17-8-2-3-12(9-17)10-19-15/h4-7,12H,2-3,8-10H2,1H3
Compound 6: (4-cyanophenyl)-[3-thia-1-aza-bicyclo[3.3.1]non-2-ylidene]amine, C14H15N3S, InChI=1S/C14H15N3S/c15-8-11-3-5-13(6-4-11)16-14-17-7-1-2-12(9-17)10-18-14/h3-6,12H,1-2,7,9-10H2

System: (4-methylphenyl)-[3-thia-1-aza-bicyclo[3.3.1]non-2-ylidene]amine; phases: Crystal, Liquid, Air at 1 atmosphere
Property: Normal melting temperature, K (Crystal); method: DTA
Normal melting temperature, K	uncertainty
347.6	0.5

System: (4-methylphenyl)-[3-thia-1-aza-bicyclo[3.3.1]non-2-ylidene]amine; phases: Crystal, Liquid, Air at 1 atmosphere
Property: Molar enthalpy of transition or fusion, kJ/mol (Crystal); method: DSC
Molar enthalpy of transition or fusion, kJ/mol	uncertainty
20.5	1.1

System: (4-isopropylphenyl)-[3-thia-1-aza-bicyclo[3.3.1]non-2-ylidene]amine; phases: Crystal, Liquid, Air at 1 atmosphere
Property: Normal melting temperature, K (Crystal); method: DTA
Normal melting temperature, K	uncertainty
333.6	0.5

System: (4-isopropylphenyl)-[3-thia-1-aza-bicyclo[3.3.1]non-2-ylidene]amine; phases: Crystal, Liquid, Air at 1 atmosphere
Property: Molar enthalpy of transition or fusion, kJ/mol (Crystal); method: DSC
Molar enthalpy of transition or fusion, kJ/mol	uncertainty
18.9	1.1

System: (4-fluorophenyl)-[3-thia-1-aza-bicyclo[3.3.1]non-2-ylidene]amine; phases: Crystal, Liquid, Air at 1 atmosphere
Property: Normal melting temperature, K (Crystal); method: DTA
Normal melting temperature, K	uncertainty
362.6	0.5

System: (4-fluorophenyl)-[3-thia-1-aza-bicyclo[3.3.1]non-2-ylidene]amine; phases: Crystal, Liquid, Air at 1 atmosphere
Property: Molar enthalpy of transition or fusion, kJ/mol (Crystal); method: DSC
Molar enthalpy of transition or fusion, kJ/mol	uncertainty
22.4	1.1

System: (4-(trifluoromethyl)phenyl)-[3-thia-1-aza-bicyclo[3.3.1]non-2-ylidene]amine; phases: Crystal, Liquid, Air at 1 atmosphere
Property: Normal melting temperature, K (Crystal); method: DTA
Normal melting temperature, K	uncertainty
364.3	0.5

System: (4-(trifluoromethyl)phenyl)-[3-thia-1-aza-bicyclo[3.3.1]non-2-ylidene]amine; phases: Crystal, Liquid, Air at 1 atmosphere
Property: Molar enthalpy of transition or fusion, kJ/mol (Crystal); method: DSC
Molar enthalpy of transition or fusion, kJ/mol	uncertainty
20.2	1.1

System: (4-acetylphenyl)-[3-thia-1-aza-bicyclo[3.3.1]non-2-ylidene]amine; phases: Crystal, Liquid, Air at 1 atmosphere
Property: Normal melting temperature, K (Crystal); method: DTA
Normal melting temperature, K	uncertainty
398.3	0.5

System: (4-acetylphenyl)-[3-thia-1-aza-bicyclo[3.3.1]non-2-ylidene]amine; phases: Crystal, Liquid, Air at 1 atmosphere
Property: Molar enthalpy of transition or fusion, kJ/mol (Crystal); method: DSC
Molar enthalpy of transition or fusion, kJ/mol	uncertainty
22.5	1.1

System: (4-cyanophenyl)-[3-thia-1-aza-bicyclo[3.3.1]non-2-ylidene]amine; phases: Crystal, Liquid, Air at 1 atmosphere
Property: Normal melting temperature, K (Crystal); method: DTA
Normal melting temperature, K	uncertainty
386.2	0.5

System: (4-cyanophenyl)-[3-thia-1-aza-bicyclo[3.3.1]non-2-ylidene]amine; phases: Crystal, Liquid, Air at 1 atmosphere
Property: Molar enthalpy of transition or fusion, kJ/mol (Crystal); method: DSC
Molar enthalpy of transition or fusion, kJ/mol	uncertainty
20.1	1.1
