Measured thermophysical data. Thermodynamics of self-assembling of mixture of a cationic gemini surfactant and sodium dodecylsulfate in aqueous solution: Calorimetry, conductivity and surface pressure measurements
Source: J. Chem. Thermodyn., 2016, 10.1016/j.jct.2015.11.017
Compound 1: N,N'-didodecyl-N,N,N',N'-tetramethyl-1,10-decanediaminium dibromide, C38H82Br2N2, InChI=1S/C38H82N2.2BrH/c1-7-9-11-13-15-17-19-23-27-31-35-39(3,4)37-33-29-25-21-22-26-30-34-38-40(5,6)36-32-28-24-20-18-16-14-12-10-8-2;;/h7-38H2,1-6H3;2*1H/q+2;;/p-2
Compound 2: sodium dodecyl sulfate, C12H25NaO4S, InChI=1S/C12H26O4S.Na/c1-2-3-4-5-6-7-8-9-10-11-12-16-17(13,14)15;/h2-12H2,1H3,(H,13,14,15);/q;+1/p-1, purity 99.5%
Compound 3: water, H2O, InChI=1S/H2O/h1H2

System: sodium dodecyl sulfate + water + N,N'-didodecyl-N,N,N',N'-tetramethyl-1,10-decanediaminium dibromide; phases: Liquid
Fixed: Pressure, kPa = 101.3
Fixed: Temperature, K = 298.2
Property: Electrical conductivity, S/m (Liquid); method: Alternating current cell with electrodes
Molality, mol/kg of sodium dodecyl sulfate	Molality, mol/kg of N,N'-didodecyl-N,N,N',N'-tetramethyl-1,10-decanediaminium dibromide	Electrical conductivity, S/m	uncertainty
8e-06	2e-06	0.00012	2e-05
2.4e-05	6e-06	0.00024	2e-05
3.2e-05	8e-06	0.00035	2e-05
4.8e-05	1.2e-05	0.00046	2e-05
5.6e-05	1.4e-05	0.00057	2e-05
6.4e-05	1.6e-05	0.00068	2e-05
8e-05	2e-05	0.00079	2e-05
8.8e-05	2.2e-05	0.0008	2e-05
9.6e-05	2.4e-05	0.001	2e-05
0.000104	2.6e-05	0.00111	2e-05
0.00012	3e-05	0.00121	2e-05
0.000128	3.2e-05	0.00132	2e-05
0.000136	3.4e-05	0.00143	2e-05
0.000152	3.8e-05	0.00153	2e-05
0.00016	4e-05	0.00163	2e-05
0.000168	4.2e-05	0.00173	2e-05
0.000176	4.4e-05	0.00183	2e-05
0.000184	4.6e-05	0.00193	2e-05
0.0002	5e-05	0.00202	2e-05
0.000208	5.2e-05	0.00212	2e-05
0.000216	5.4e-05	0.00222	2e-05
0.000224	5.6e-05	0.00231	2e-05
0.000232	5.8e-05	0.0024	2e-05
0.00024	6e-05	0.0025	2e-05
0.000248	6.2e-05	0.0026	2e-05
0.000264	6.6e-05	0.00269	2e-05
0.000272	6.8e-05	0.00279	2e-05
0.00028	7e-05	0.00288	2e-05
0.000288	7.2e-05	0.00296	2e-05
0.000296	7.4e-05	0.00305	2e-05
0.000304	7.6e-05	0.00314	2e-05
0.000312	7.8e-05	0.00323	3e-05
0.00032	8e-05	0.00332	3e-05
0.000328	8.2e-05	0.00341	3e-05
0.000336	8.4e-05	0.00349	2e-05

System: sodium dodecyl sulfate + water + N,N'-didodecyl-N,N,N',N'-tetramethyl-1,10-decanediaminium dibromide; phases: Liquid
Fixed: Pressure, kPa = 101.3
Fixed: Temperature, K = 298.2
Property: Electrical conductivity, S/m (Liquid); method: Alternating current cell with electrodes
Molality, mol/kg of sodium dodecyl sulfate	Molality, mol/kg of N,N'-didodecyl-N,N,N',N'-tetramethyl-1,10-decanediaminium dibromide	Electrical conductivity, S/m	uncertainty
0.01003	0	0.0586	0.001
0.01003	0.00015	0.0598	0.001
0.01003	0.00031	0.0601	0.001
0.01003	0.00046	0.0603	0.001
0.01003	0.00062	0.0605	0.001
0.01003	0.00077	0.0609	0.001
0.01003	0.00092	0.0614	0.001
0.01003	0.00108	0.0619	0.001
0.01003	0.00123	0.0619	0.001
0.01003	0.00138	0.0621	0.001
0.01003	0.00154	0.0626	0.001
0.01003	0.00169	0.0633	0.001
0.01003	0.00184	0.064	0.001
0.01003	0.002	0.0647	0.001
0.01003	0.00214	0.0655	0.001
0.01003	0.00231	0.0664	0.001
0.01003	0.00246	0.0673	0.001
0.01003	0.0026	0.0682	0.001
0.01003	0.00276	0.0692	0.001
0.01003	0.00291	0.0702	0.001
0.01003	0.00306	0.0713	0.001
0.01003	0.00322	0.0724	0.001
0.01003	0.00338	0.0735	0.001
0.01003	0.00352	0.0746	0.001
0.01003	0.00367	0.0758	0.001
0.01504	0	0.0684	0.001
0.01504	0.00017	0.0695	0.001
0.01504	0.00032	0.0708	0.001
0.01504	0.00048	0.072	0.001
0.01504	0.00064	0.0732	0.001
0.01504	0.00081	0.0741	0.001
0.01504	0.00096	0.0751	0.001
0.01504	0.00113	0.076	0.001
0.01504	0.00129	0.0771	0.001
0.01504	0.00145	0.0782	0.001
0.01504	0.0016	0.0794	0.001
0.01504	0.00176	0.0805	0.001
0.01504	0.00192	0.0817	0.001
0.01504	0.00209	0.0825	0.001
0.01504	0.00225	0.0827	0.001
0.01504	0.00241	0.0825	0.001
0.01504	0.00257	0.0831	0.001
0.01504	0.00274	0.0839	0.001
0.01504	0.00289	0.0847	0.001
0.01504	0.00306	0.0857	0.001
0.01504	0.00321	0.0866	0.001
0.01504	0.00337	0.0875	0.001
0.01504	0.00353	0.0885	0.001
0.01504	0.00369	0.0894	0.001
0.01504	0.00385	0.0904	0.001
0.01504	0.00402	0.0914	0.001
0.01504	0.00417	0.0922	0.0011
0.01504	0.00434	0.0932	0.0011
0.01504	0.00449	0.0944	0.0011
0.01504	0.00465	0.0955	0.0011
0.01504	0.0048	0.0968	0.0011
0.01504	0.00499	0.0981	0.0011
0.01504	0.00512	0.0994	0.0011
0.01504	0.00528	0.101	0.0011
0.01504	0.00545	0.102	0.0011
0.02006	0	0.0816	0.001
0.02006	0.00022	0.0835	0.001
0.02006	0.00043	0.0857	0.001
0.02006	0.00064	0.0879	0.001
0.02006	0.00086	0.0899	0.001
0.02006	0.00108	0.092	0.001
0.02006	0.00128	0.0945	0.001
0.02006	0.00151	0.0971	0.001
0.02006	0.00172	0.0999	0.001
0.02006	0.00194	0.103	0.001
0.02006	0.00213	0.105	0.001
0.02006	0.00235	0.108	0.001
0.02006	0.00256	0.11	0.001
0.02006	0.00279	0.112	0.001
0.02006	0.003	0.111	0.001
0.02006	0.00321	0.112	0.001
0.02006	0.00343	0.113	0.001
0.02006	0.00365	0.114	0.001
0.02006	0.00385	0.115	0.001
0.02006	0.00408	0.117	0.001
0.02006	0.00428	0.118	0.001
0.02006	0.00449	0.12	0.001
0.02006	0.00471	0.122	0.001
0.02006	0.00492	0.123	0.001
0.02006	0.00514	0.125	0.001
0.02006	0.00536	0.127	0.001
0.02006	0.00556	0.129	0.001
0.02006	0.00579	0.131	0.001
0.02006	0.00599	0.134	0.001
0.02006	0.0062	0.136	0.001
0.02006	0.0064	0.138	0.001
0.02006	0.00665	0.14	0.001
0.02006	0.00683	0.143	0.001
0.02006	0.00705	0.146	0.001
0.02507	0	0.097	0.01
0.02507	0.00025	0.1	0.01
0.02507	0.00049	0.101	0.01
0.02507	0.00075	0.103	0.01
0.02507	0.00099	0.105	0.01
0.02507	0.00124	0.108	0.01
0.02507	0.00149	0.11	0.01
0.02507	0.00171	0.112	0.01
0.02507	0.00197	0.115	0.01
0.02507	0.00221	0.118	0.01
0.02507	0.00245	0.121	0.01
0.02507	0.00269	0.124	0.01
0.02507	0.00294	0.126	0.01
0.02507	0.00319	0.129	0.01
0.02507	0.00345	0.131	0.01
0.02507	0.00368	0.134	0.01
0.02507	0.00395	0.134	0.01
0.02507	0.00418	0.134	0.01
0.02507	0.00442	0.133	0.01
0.02507	0.00467	0.134	0.01
0.02507	0.00492	0.135	0.01
0.02507	0.00517	0.136	0.01
0.02507	0.00539	0.137	0.01
0.02507	0.00565	0.138	0.01
0.02507	0.00588	0.139	0.01
0.02507	0.00615	0.141	0.01
0.03009	0	0.106	0.01
0.03009	0.00061	0.112	0.01
0.03009	0.00122	0.118	0.01
0.03009	0.00182	0.125	0.01
0.03009	0.0024	0.135	0.01
0.03009	0.00301	0.144	0.01
0.03009	0.00361	0.153	0.01
0.03009	0.00422	0.161	0.01
0.03009	0.00482	0.167	0.01
0.03009	0.00544	0.167	0.01
0.03009	0.00603	0.167	0.01
0.03009	0.00661	0.17	0.01
0.03009	0.00724	0.175	0.01
0.03009	0.00781	0.18	0.01
0.03009	0.00844	0.186	0.01
0.03009	0.00904	0.192	0.01

System: sodium dodecyl sulfate + water; phases: Liquid
Fixed: Pressure, kPa = 101.3
Fixed: Temperature, K = 298.2
Property: Electrical conductivity, S/m (Liquid); method: Alternating current cell with electrodes
Molality, mol/kg of sodium dodecyl sulfate	Electrical conductivity, S/m	uncertainty
0.01003	0.0586	0.001
0.01504	0.0684	0.001
0.02006	0.0816	0.001
0.02507	0.097	0.01
0.03009	0.106	0.01
