Measured thermophysical data. Further results on the triple point temperature of pure 20Ne and 22Ne
Source: J. Chem. Thermodyn., 2011, 10.1016/j.jct.2011.07.011
Compound 1: neon, Ne, InChI=1S/Ne, purity 99.997%

System: neon; phases: Crystal, Liquid, Gas
Property: Triple point temperature, K (Crystal); method: Heating/Cooling curves
Triple point temperature, K	uncertainty
24.542441	0.07746

System: neon; phases: Crystal, Liquid, Gas
Property: Triple point temperature, K (Crystal); method: Heating/Cooling curves
Triple point temperature, K	uncertainty
24.542445	0.07746

System: neon; phases: Crystal, Liquid, Gas
Property: Triple point temperature, K (Crystal); method: Heating/Cooling curves
Triple point temperature, K	uncertainty
24.542489	0.07746

System: neon; phases: Crystal, Liquid, Gas
Property: Triple point temperature, K (Crystal); method: Heating/Cooling curves
Triple point temperature, K	uncertainty
24.542493	0.07746

System: neon; phases: Crystal, Liquid, Gas
Property: Triple point temperature, K (Crystal); method: Heating/Cooling curves
Triple point temperature, K	uncertainty
24.542469	0.07746

System: neon; phases: Crystal, Liquid, Gas
Property: Triple point temperature, K (Crystal); method: Heating/Cooling curves
Triple point temperature, K	uncertainty
24.689042	0.07746

System: neon; phases: Crystal, Liquid, Gas
Property: Triple point temperature, K (Crystal); method: Heating/Cooling curves
Triple point temperature, K	uncertainty
24.689049	0.07746

System: neon; phases: Crystal, Liquid, Gas
Property: Triple point temperature, K (Crystal); method: Heating/Cooling curves
Triple point temperature, K	uncertainty
24.689034	0.07746

System: neon; phases: Crystal, Liquid, Gas
Property: Triple point temperature, K (Crystal); method: Heating/Cooling curves
Triple point temperature, K	uncertainty
24.689034	0.07746
