Measured thermophysical data. Experimental and predicted properties of the binary mixtures containing an isomeric chlorobutane and butyl ethyl ether
Source: J. Chem. Thermodyn., 2012, 10.1016/j.jct.2012.02.039
Compound 1: 1-chlorobutane, C4H9Cl, InChI=1S/C4H9Cl/c1-2-3-4-5/h2-4H2,1H3, purity 99%
Compound 2: 2-chlorobutane, C4H9Cl, InChI=1S/C4H9Cl/c1-3-4(2)5/h4H,3H2,1-2H3, purity 99%
Compound 3: 1-chloro-2-methylpropane, C4H9Cl, InChI=1S/C4H9Cl/c1-4(2)3-5/h4H,3H2,1-2H3, purity 99%
Compound 4: 2-chloro-2-methylpropane, C4H9Cl, InChI=1S/C4H9Cl/c1-4(2,3)5/h1-3H3, purity 99%
Compound 5: butyl ethyl ether, C6H14O, InChI=1S/C6H14O/c1-3-5-6-7-4-2/h3-6H2,1-2H3, purity 99%

System: 1-chlorobutane; phases: Liquid, Gas
Property: Vapor or sublimation pressure, kPa (Liquid); method: Ebulliometric method (Recirculating still)
Temperature, K	Vapor or sublimation pressure, kPa	uncertainty
288.15	8.4	0.016
298.15	13.515	0.02
308.15	21.035	0.028

System: 1-chlorobutane; phases: Liquid
Fixed: Pressure, kPa = 101.325
Property: Mass density, kg/m3 (Liquid); method: Vibrating tube method
Temperature, K	Mass density, kg/m3	uncertainty
283.15	897.339	0.237
288.15	891.855	0.238
293.15	886.335	0.238
298.15	880.705	0.238
303.15	875.204	0.238
308.15	869.585	0.239
313.15	863.882	0.239

System: 2-chlorobutane; phases: Liquid, Gas
Property: Vapor or sublimation pressure, kPa (Liquid); method: Ebulliometric method (Recirculating still)
Temperature, K	Vapor or sublimation pressure, kPa	uncertainty
288.15	13.36	0.022
298.15	20.905	0.029
308.15	31.55	0.04

System: 2-chlorobutane; phases: Liquid
Fixed: Pressure, kPa = 101.325
Property: Mass density, kg/m3 (Liquid); method: Vibrating tube method
Temperature, K	Mass density, kg/m3	uncertainty
283.15	884.34	0.238
288.15	878.756	0.238
293.15	873.13	0.239
298.15	867.474	0.239
303.15	861.779	0.239
308.15	856.044	0.24
313.15	850.266	0.24

System: 1-chloro-2-methylpropane; phases: Liquid, Gas
Property: Vapor or sublimation pressure, kPa (Liquid); method: Ebulliometric method (Recirculating still)
Temperature, K	Vapor or sublimation pressure, kPa	uncertainty
288.15	13	0.021
298.15	20.35	0.028
308.15	30.45	0.038

System: 1-chloro-2-methylpropane; phases: Liquid
Fixed: Pressure, kPa = 101.325
Property: Mass density, kg/m3 (Liquid); method: Vibrating tube method
Temperature, K	Mass density, kg/m3	uncertainty
283.15	888.845	0.238
288.15	883.211	0.238
293.15	877.539	0.239
298.15	871.833	0.239
298.15	871.533	1.023
303.15	866.096	0.239
308.15	860.319	0.24
313.15	854.502	0.24
313.15	853.902	1.024

System: 2-chloro-2-methylpropane; phases: Liquid, Gas
Property: Vapor or sublimation pressure, kPa (Liquid); method: Ebulliometric method (Recirculating still)
Temperature, K	Vapor or sublimation pressure, kPa	uncertainty
288.15	26.42	0.039
298.15	40.13	0.054
308.15	59.52	0.073

System: 2-chloro-2-methylpropane; phases: Liquid
Fixed: Pressure, kPa = 101.325
Property: Mass density, kg/m3 (Liquid); method: Vibrating tube method
Temperature, K	Mass density, kg/m3	uncertainty
283.15	855.249	0.24
288.15	849.243	0.24
293.15	843.191	0.241
298.15	837.096	0.241
303.15	830.958	0.242
308.15	824.772	0.242
313.15	818.536	0.243

System: butyl ethyl ether; phases: Liquid, Gas
Property: Vapor or sublimation pressure, kPa (Liquid); method: Ebulliometric method (Recirculating still)
Temperature, K	Vapor or sublimation pressure, kPa	uncertainty
288.15	4.475	0.011
298.15	7.55	0.014
308.15	12.24	0.018

System: butyl ethyl ether; phases: Liquid
Fixed: Pressure, kPa = 101.325
Property: Mass density, kg/m3 (Liquid); method: Vibrating tube method
Temperature, K	Mass density, kg/m3	uncertainty
283.15	759.632	0.244
288.15	754.838	0.245
293.15	750.018	0.245
298.15	745.173	0.246
303.15	740.3	0.246
308.15	735.393	0.247
313.15	730.451	0.247

System: 1-chlorobutane + butyl ethyl ether; phases: Liquid, Gas
Property: Vapor or sublimation pressure, kPa (Liquid); method: Ebulliometric method (Recirculating still)
Mole fraction of 1-chlorobutane	Temperature, K	Vapor or sublimation pressure, kPa	uncertainty
0.0695	308.15	12.86	0.057
0.0698	298.15	7.965	0.036
0.0701	288.15	4.75	0.022
0.1273	288.15	5.015	0.023
0.1317	308.15	13.3	0.059
0.1335	298.15	8.315	0.037
0.217	288.15	5.325	0.024
0.2263	298.15	8.86	0.04
0.2331	308.15	14.295	0.063
0.3123	288.15	5.72	0.026
0.3172	298.15	9.45	0.042
0.3262	308.15	15.165	0.067
0.3808	288.15	5.99	0.027
0.3982	298.15	9.905	0.044
0.4021	308.15	15.855	0.07
0.4449	288.15	6.25	0.028
0.4587	298.15	10.265	0.046
0.4602	308.15	16.335	0.072
0.5085	288.15	6.465	0.029
0.5234	308.15	16.83	0.075
0.5248	298.15	10.555	0.047
0.5789	288.15	6.745	0.031
0.5961	298.15	11.04	0.049
0.6032	308.15	17.43	0.077
0.6427	288.15	6.97	0.032
0.651	298.15	11.38	0.051
0.6601	308.15	18.08	0.08
0.7119	288.15	7.18	0.033
0.7207	298.15	11.76	0.053
0.7267	308.15	18.67	0.083
0.806	288.15	7.52	0.034
0.8131	308.15	19.51	0.086
0.8137	298.15	12.32	0.055
0.8841	288.15	7.845	0.036
0.8878	298.15	12.735	0.057
0.8884	308.15	20.135	0.089
0.9346	308.15	20.505	0.091
0.9352	288.15	8.09	0.037
0.9358	298.15	12.975	0.059

System: 1-chlorobutane + butyl ethyl ether; phases: Liquid
Fixed: Pressure, kPa = 101
Property: Mass density, kg/m3 (Liquid); method: Vibrating tube method
Temperature, K	Mole fraction of 1-chlorobutane	Mass density, kg/m3	uncertainty
283.15	0	759.632	1.024
283.15	0.0515	765.327	1.024
283.15	0.1016	770.975	1.024
283.15	0.2008	782.481	1.024
283.15	0.3003	794.487	1.024
283.15	0.4002	807.103	1.024
283.15	0.5014	820.515	1.024
283.15	0.6023	834.564	1.024
283.15	0.7003	848.874	1.024
283.15	0.8004	864.228	1.024
283.15	0.9006	880.441	1.023
283.15	0.9502	888.751	1.023
283.15	1	897.339	1.023
288.15	0	754.838	1.024
288.15	0.0515	760.502	1.024
288.15	0.1016	766.116	1.024
288.15	0.2008	777.558	1.024
288.15	0.3003	789.495	1.024
288.15	0.4002	802.048	1.024
288.15	0.5014	815.388	1.024
288.15	0.6023	829.367	1.024
288.15	0.7003	843.608	1.024
288.15	0.8004	858.892	1.024
288.15	0.9006	875.027	1.023
288.15	0.9502	883.298	1.023
288.15	1	891.855	1.023
293.15	0	750.018	1.024
293.15	0.0515	755.65	1.025
293.15	0.1016	761.228	1.025
293.15	0.2008	772.608	1.024
293.15	0.3003	784.476	1.024
293.15	0.4002	796.966	1.024
293.15	0.5014	810.236	1.024
293.15	0.6023	824.135	1.024
293.15	0.7003	838.316	1.024
293.15	0.8004	853.521	1.024
293.15	0.9006	869.579	1.024
293.15	0.9502	877.811	1.024
293.15	1	886.335	1.023
298.15	0	745.173	1.025
298.15	0.0515	750.771	1.025
298.15	0.1016	756.31	1.025
298.15	0.2008	767.618	1.024
298.15	0.3003	779.408	1.024
298.15	0.4002	791.831	1.024
298.15	0.5014	805.027	1.024
298.15	0.6023	818.844	1.024
298.15	0.7003	832.944	1.024
298.15	0.8004	848.064	1.024
298.15	0.9006	864.029	1.024
298.15	0.9502	872.223	1.024
298.15	1	880.705	1.023
303.15	0	740.3	1.025
303.15	0.0515	745.868	1.025
303.15	0.1016	751.377	1.025
303.15	0.2008	762.625	1.025
303.15	0.3003	774.357	1.024
303.15	0.4002	786.72	1.024
303.15	0.5014	799.854	1.024
303.15	0.6023	813.609	1.024
303.15	0.7003	827.644	1.024
303.15	0.8004	842.691	1.024
303.15	0.9006	858.59	1.024
303.15	0.9502	866.755	1.024
303.15	1	875.204	1.023
308.15	0	735.393	1.025
308.15	0.0515	740.929	1.025
308.15	0.1016	746.404	1.025
308.15	0.2008	757.59	1.025
308.15	0.3003	769.254	1.024
308.15	0.4002	781.55	1.024
308.15	0.5014	794.607	1.024
308.15	0.6023	808.295	1.024
308.15	0.7003	822.252	1.024
308.15	0.8004	837.226	1.024
308.15	0.9006	853.042	1.024
308.15	0.9502	861.177	1.024
308.15	1	869.585	1.023
313.15	0	730.451	1.025
313.15	0.0515	735.953	1.025
313.15	0.1016	741.393	1.025
313.15	0.2008	752.51	1.025
313.15	0.3003	764.108	1.024
313.15	0.4002	776.324	1.024
313.15	0.5014	789.31	1.024
313.15	0.6023	802.917	1.024
313.15	0.7003	816.794	1.024
313.15	0.8004	831.687	1.024
313.15	0.9006	847.412	1.024
313.15	0.9502	855.518	1.024
313.15	1	863.882	1.023

System: 1-chlorobutane + butyl ethyl ether; phases: Gas, Liquid
Property: Mole fraction of 1-chlorobutane (Gas); method: Density calibration data
Mole fraction of 1-chlorobutane	Temperature, K	Mole fraction of 1-chlorobutane	uncertainty
0.0695	308.15	0.115	0.0007
0.0698	298.15	0.12	0.0007
0.0701	288.15	0.126	0.0007
0.1273	288.15	0.2093	0.0009
0.1317	308.15	0.2058	0.0009
0.1335	298.15	0.2101	0.0009
0.217	288.15	0.3262	0.0017
0.2263	298.15	0.3359	0.0018
0.2331	308.15	0.344	0.0019
0.3123	288.15	0.4548	0.0032
0.3172	298.15	0.4525	0.0032
0.3262	308.15	0.4564	0.0033
0.3808	288.15	0.5263	0.0039
0.3982	298.15	0.5388	0.0039
0.4021	308.15	0.5344	0.0039
0.4449	288.15	0.6018	0.0037
0.4587	298.15	0.6039	0.0037
0.4602	308.15	0.6004	0.0037
0.5085	288.15	0.6704	0.0034
0.5234	308.15	0.6538	0.0035
0.5248	298.15	0.6621	0.0035
0.5789	288.15	0.7227	0.0031
0.5961	298.15	0.722	0.0031
0.6032	308.15	0.7146	0.0032
0.6427	288.15	0.7789	0.0027
0.651	298.15	0.7684	0.0028
0.6601	308.15	0.7678	0.0028
0.7119	288.15	0.8176	0.0023
0.7207	298.15	0.8195	0.0023
0.7267	308.15	0.8163	0.0023
0.806	288.15	0.8841	0.0016
0.8131	308.15	0.8804	0.0017
0.8137	298.15	0.8835	0.0016
0.8841	288.15	0.9334	0.001
0.8878	298.15	0.9316	0.001
0.8884	308.15	0.9298	0.001
0.9346	308.15	0.9597	0.0007
0.9352	288.15	0.9626	0.0007
0.9358	298.15	0.9608	0.0007

System: 2-chlorobutane + butyl ethyl ether; phases: Liquid, Gas
Property: Vapor or sublimation pressure, kPa (Liquid); method: Ebulliometric method (Recirculating still)
Mole fraction of 2-chlorobutane	Temperature, K	Vapor or sublimation pressure, kPa	uncertainty
0.0669	288.15	5.11	0.024
0.0749	298.15	8.605	0.039
0.0799	308.15	13.855	0.062
0.1331	288.15	5.79	0.027
0.1603	298.15	9.79	0.044
0.1651	308.15	15.78	0.07
0.2259	288.15	6.595	0.03
0.2733	298.15	11.2	0.05
0.2798	308.15	17.69	0.079
0.3315	288.15	7.6	0.035
0.3732	298.15	12.505	0.056
0.375	308.15	19.55	0.087
0.3943	288.15	8.21	0.037
0.4211	298.15	13.205	0.059
0.4315	308.15	20.455	0.091
0.4823	288.15	9.055	0.041
0.5254	298.15	14.63	0.066
0.5263	308.15	22.49	0.1
0.5645	288.15	9.835	0.045
0.5933	298.15	15.745	0.07
0.6116	308.15	24.15	0.107
0.6529	288.15	10.5	0.047
0.6753	298.15	16.66	0.074
0.6829	308.15	25.505	0.113
0.743	288.15	11.21	0.051
0.7622	298.15	17.745	0.079
0.7666	308.15	27.12	0.12
0.8209	288.15	11.785	0.053
0.8422	298.15	18.665	0.083
0.8422	308.15	28.505	0.126
0.9084	288.15	12.585	0.057
0.9125	298.15	19.73	0.089
0.9139	308.15	29.935	0.132

System: 2-chlorobutane + butyl ethyl ether; phases: Liquid
Fixed: Pressure, kPa = 101
Property: Mass density, kg/m3 (Liquid); method: Vibrating tube method
Temperature, K	Mole fraction of 2-chlorobutane	Mass density, kg/m3	uncertainty
283.15	0	759.632	1.024
283.15	0.0525	765.075	1.024
283.15	0.0974	769.762	1.024
283.15	0.2001	780.678	1.024
283.15	0.3027	791.975	1.024
283.15	0.4	803.128	1.024
283.15	0.5248	818.168	1.024
283.15	0.6016	827.85	1.024
283.15	0.7006	840.875	1.024
283.15	0.7993	854.496	1.024
283.15	0.8997	869.038	1.023
283.15	0.9502	876.678	1.023
283.15	1	884.34	1.023
288.15	0	754.838	1.024
288.15	0.0525	760.242	1.024
288.15	0.0974	764.897	1.024
288.15	0.2001	775.744	1.024
288.15	0.3027	786.952	1.024
288.15	0.4	798.037	1.024
288.15	0.5248	812.98	1.024
288.15	0.6016	822.613	1.024
288.15	0.7006	835.554	1.024
288.15	0.7993	849.096	1.024
288.15	0.8997	863.543	1.023
288.15	0.9502	871.137	1.023
288.15	1	878.756	1.023
293.15	0	750.018	1.024
293.15	0.0525	755.382	1.025
293.15	0.0974	760.006	1.024
293.15	0.2001	770.778	1.024
293.15	0.3027	781.909	1.024
293.15	0.4	792.91	1.024
293.15	0.5248	807.76	1.024
293.15	0.6016	817.343	1.024
293.15	0.7006	830.202	1.024
293.15	0.7993	843.651	1.024
293.15	0.8997	858.003	1.024
293.15	0.9502	865.523	1.024
293.15	1	873.13	1.023
298.15	0	745.173	1.025
298.15	0.0525	750.495	1.025
298.15	0.0974	755.081	1.025
298.15	0.2001	765.789	1.024
298.15	0.3027	776.837	1.024
298.15	0.4	787.763	1.024
298.15	0.5248	802.529	1.024
298.15	0.6016	812.044	1.024
298.15	0.7006	824.819	1.024
298.15	0.7993	838.178	1.024
298.15	0.8997	852.437	1.024
298.15	0.9502	859.908	1.024
298.15	1	867.474	1.023
303.15	0	740.3	1.025
303.15	0.0525	745.579	1.025
303.15	0.0974	750.131	1.025
303.15	0.2001	760.765	1.025
303.15	0.3027	771.741	1.024
303.15	0.4	782.594	1.024
303.15	0.5248	797.247	1.024
303.15	0.6016	806.71	1.024
303.15	0.7006	819.404	1.024
303.15	0.7993	832.663	1.024
303.15	0.8997	846.826	1.024
303.15	0.9502	854.248	1.024
303.15	1	861.779	1.023
308.15	0	735.393	1.025
308.15	0.0525	740.632	1.025
308.15	0.0974	745.146	1.025
308.15	0.2001	755.706	1.025
308.15	0.3027	766.603	1.024
308.15	0.4	777.385	1.024
308.15	0.5248	791.941	1.024
308.15	0.6016	801.337	1.024
308.15	0.7006	813.943	1.024
308.15	0.7993	827.116	1.024
308.15	0.8997	841.188	1.024
308.15	0.9502	848.552	1.024
308.15	1	856.044	1.023
313.15	0	730.451	1.025
313.15	0.0525	735.646	1.025
313.15	0.0974	740.124	1.025
313.15	0.2001	750.603	1.025
313.15	0.3027	761.432	1.025
313.15	0.4	772.132	1.024
313.15	0.5248	786.597	1.024
313.15	0.6016	795.924	1.024
313.15	0.7006	808.443	1.024
313.15	0.7993	821.529	1.024
313.15	0.8997	835.498	1.024
313.15	0.9502	842.814	1.024
313.15	1	850.266	1.023

System: 2-chlorobutane + butyl ethyl ether; phases: Gas, Liquid
Property: Mole fraction of 2-chlorobutane (Gas); method: Density calibration data
Mole fraction of 2-chlorobutane	Temperature, K	Mole fraction of 2-chlorobutane	uncertainty
0.0669	288.15	0.1728	0.001
0.0749	298.15	0.1776	0.001
0.0799	308.15	0.1823	0.001
0.1331	288.15	0.3017	0.0016
0.1603	298.15	0.3377	0.0019
0.1651	308.15	0.3386	0.0019
0.2259	288.15	0.4689	0.0035
0.2733	298.15	0.4773	0.0036
0.2798	308.15	0.4923	0.0038
0.3315	288.15	0.5894	0.0038
0.3732	298.15	0.606	0.0037
0.375	308.15	0.6037	0.0037
0.3943	288.15	0.6791	0.0034
0.4211	298.15	0.663	0.0035
0.4315	308.15	0.656	0.0035
0.4823	288.15	0.7319	0.0031
0.5254	298.15	0.7371	0.003
0.5263	308.15	0.7393	0.003
0.5645	288.15	0.7958	0.0025
0.5933	298.15	0.8015	0.0025
0.6116	308.15	0.7994	0.0025
0.6529	288.15	0.85	0.002
0.6753	298.15	0.8437	0.0021
0.6829	308.15	0.8444	0.0021
0.743	288.15	0.8884	0.0015
0.7622	298.15	0.8933	0.0015
0.7666	308.15	0.8919	0.0015
0.8209	288.15	0.933	0.001
0.8422	298.15	0.9316	0.001
0.8422	308.15	0.9296	0.001
0.9084	288.15	0.9666	0.0006
0.9125	298.15	0.9646	0.0007
0.9139	308.15	0.9632	0.0007

System: 1-chloro-2-methylpropane + butyl ethyl ether; phases: Liquid, Gas
Property: Vapor or sublimation pressure, kPa (Liquid); method: Ebulliometric method (Recirculating still)
Mole fraction of 1-chloro-2-methylpropane	Temperature, K	Vapor or sublimation pressure, kPa	uncertainty
0.0554	288.15	4.945	0.023
0.0632	298.15	8.33	0.037
0.0681	308.15	13.405	0.06
0.1179	288.15	5.315	0.025
0.1245	298.15	9.15	0.041
0.1302	308.15	14.55	0.065
0.2154	288.15	6.165	0.028
0.2263	298.15	10.36	0.047
0.2272	308.15	16.37	0.073
0.2888	288.15	7.085	0.032
0.3299	298.15	11.73	0.053
0.3385	308.15	18.395	0.082
0.3762	288.15	7.7	0.035
0.4082	298.15	12.74	0.057
0.4165	308.15	19.855	0.088
0.4496	288.15	8.345	0.038
0.4871	298.15	13.655	0.061
0.4911	308.15	21.1	0.093
0.5366	288.15	9.01	0.041
0.5609	298.15	14.67	0.066
0.5795	308.15	22.715	0.101
0.6344	288.15	9.74	0.044
0.6531	298.15	15.835	0.071
0.6643	308.15	24.325	0.108
0.7256	288.15	10.505	0.048
0.7292	298.15	16.78	0.075
0.7349	308.15	25.68	0.114
0.8114	288.15	11.255	0.051
0.8155	298.15	17.875	0.08
0.8196	308.15	27.205	0.12
0.8869	288.15	11.895	0.054
0.8935	298.15	18.78	0.084
0.8948	308.15	28.63	0.127

System: 1-chloro-2-methylpropane + butyl ethyl ether; phases: Liquid
Fixed: Pressure, kPa = 101
Property: Mass density, kg/m3 (Liquid); method: Vibrating tube method
Temperature, K	Mole fraction of 1-chloro-2-methylpropane	Mass density, kg/m3	uncertainty
283.15	0	759.632	1.024
283.15	0.0493	764.735	1.024
283.15	0.1004	770.137	1.024
283.15	0.2001	781.028	1.024
283.15	0.3012	792.555	1.024
283.15	0.4021	804.548	1.024
283.15	0.5025	817.044	1.024
283.15	0.6007	829.846	1.024
283.15	0.6993	843.3	1.024
283.15	0.7994	857.698	1.024
283.15	0.8993	872.788	1.024
283.15	0.9491	880.632	1.023
283.15	1	888.845	1.023
288.15	0	754.838	1.024
288.15	0.0493	759.907	1.024
288.15	0.1004	765.272	1.024
288.15	0.2001	776.091	1.024
288.15	0.3012	787.532	1.024
288.15	0.4021	799.452	1.024
288.15	0.5025	811.866	1.024
288.15	0.6007	824.578	1.024
288.15	0.6993	837.948	1.024
288.15	0.7994	852.259	1.024
288.15	0.8993	867.257	1.024
288.15	0.9491	875.039	1.023
288.15	1	883.211	1.023
293.15	0	750.018	1.024
293.15	0.0493	755.052	1.025
293.15	0.1004	760.38	1.024
293.15	0.2001	771.122	1.024
293.15	0.3012	782.49	1.024
293.15	0.4021	794.323	1.024
293.15	0.5025	806.657	1.024
293.15	0.6007	819.292	1.024
293.15	0.6993	832.566	1.024
293.15	0.7994	846.776	1.024
293.15	0.8993	861.681	1.024
293.15	0.9491	869.418	1.024
293.15	1	877.539	1.023
298.15	0	745.173	1.025
298.15	0.0493	750.159	1.025
298.15	0.1004	755.442	1.025
298.15	0.2001	766.084	1.024
298.15	0.3012	777.343	1.024
298.15	0.4021	789.076	1.024
298.15	0.5025	801.298	1.024
298.15	0.6007	813.811	1.024
298.15	0.6993	826.968	1.024
298.15	0.7994	841.05	1.024
298.15	0.8993	855.823	1.024
298.15	0.9491	863.487	1.024
298.15	1	871.533	1.023
303.15	0	740.3	1.025
303.15	0.0493	745.258	1.025
303.15	0.1004	750.513	1.025
303.15	0.2001	761.103	1.025
303.15	0.3012	772.31	1.024
303.15	0.4021	783.985	1.024
303.15	0.5025	796.151	1.024
303.15	0.6007	808.609	1.024
303.15	0.6993	821.703	1.024
303.15	0.7994	835.732	1.024
303.15	0.8993	850.449	1.024
303.15	0.9491	858.083	1.024
303.15	1	866.096	1.023
308.15	0	735.393	1.025
308.15	0.0493	740.313	1.025
308.15	0.1004	745.53	1.025
308.15	0.2001	756.045	1.025
308.15	0.3012	767.176	1.024
308.15	0.4021	778.762	1.024
308.15	0.5025	790.846	1.024
308.15	0.6007	803.216	1.024
308.15	0.6993	816.231	1.024
308.15	0.7994	830.162	1.024
308.15	0.8993	844.774	1.024
308.15	0.9491	852.361	1.024
308.15	1	860.319	1.023
313.15	0	730.451	1.025
313.15	0.0493	735.316	1.025
313.15	0.1004	740.473	1.025
313.15	0.2001	750.861	1.025
313.15	0.3012	761.864	1.025
313.15	0.4021	773.319	1.024
313.15	0.5025	785.257	1.024
313.15	0.6007	797.479	1.024
313.15	0.6993	810.348	1.024
313.15	0.7994	824.103	1.024
313.15	0.8993	838.543	1.024
313.15	0.9491	846.035	1.024
313.15	1	853.902	1.024

System: 1-chloro-2-methylpropane + butyl ethyl ether; phases: Gas, Liquid
Property: Mole fraction of 1-chloro-2-methylpropane (Gas); method: Density calibration data
Mole fraction of 1-chloro-2-methylpropane	Temperature, K	Mole fraction of 1-chloro-2-methylpropane	uncertainty
0.0554	288.15	0.1292	0.001
0.0632	298.15	0.1424	0.001
0.0681	308.15	0.1461	0.0009
0.1179	288.15	0.272	0.0014
0.1245	298.15	0.2676	0.0013
0.1302	308.15	0.264	0.0013
0.2154	288.15	0.4398	0.0031
0.2263	298.15	0.4257	0.0029
0.2272	308.15	0.4232	0.0028
0.2888	288.15	0.5302	0.0039
0.3299	298.15	0.5507	0.0039
0.3385	308.15	0.5554	0.0039
0.3762	288.15	0.6049	0.0037
0.4082	298.15	0.6337	0.0036
0.4165	308.15	0.6367	0.0036
0.4496	288.15	0.6981	0.0033
0.4871	298.15	0.7032	0.0033
0.4911	308.15	0.701	0.0033
0.5366	288.15	0.7549	0.0029
0.5609	298.15	0.764	0.0028
0.5795	308.15	0.7704	0.0028
0.6344	288.15	0.8305	0.0022
0.6531	298.15	0.8285	0.0022
0.6643	308.15	0.8278	0.0022
0.7256	288.15	0.8789	0.0017
0.7292	298.15	0.8716	0.0017
0.7349	308.15	0.8703	0.0018
0.8114	288.15	0.9229	0.0011
0.8155	298.15	0.9177	0.0012
0.8196	308.15	0.9157	0.0012
0.8869	288.15	0.957	0.0007
0.8935	298.15	0.9551	0.0008
0.8948	308.15	0.9525	0.0008

System: 2-chloro-2-methylpropane + butyl ethyl ether; phases: Liquid, Gas
Property: Vapor or sublimation pressure, kPa (Liquid); method: Ebulliometric method (Recirculating still)
Mole fraction of 2-chloro-2-methylpropane	Temperature, K	Vapor or sublimation pressure, kPa	uncertainty
0.0214	288.15	5.045	0.025
0.0638	298.15	9.805	0.046
0.0651	308.15	15.605	0.072
0.1007	288.15	6.82	0.032
0.1459	298.15	12.715	0.058
0.1596	308.15	20.42	0.092
0.1991	288.15	9.085	0.042
0.267	298.15	16.62	0.075
0.2706	308.15	25.45	0.114
0.2813	288.15	10.7	0.049
0.3228	298.15	18.22	0.082
0.3275	308.15	28.255	0.126
0.4119	298.15	21.03	0.095
0.4187	308.15	32.465	0.144
0.4447	288.15	14.355	0.065
0.4927	288.15	15.25	0.069
0.5026	298.15	24.145	0.108
0.5037	308.15	36.325	0.161
0.5223	288.15	16.055	0.073
0.5484	298.15	25.585	0.114
0.5678	308.15	39.105	0.173
0.6585	288.15	18.875	0.085
0.6782	298.15	29.575	0.132
0.6884	308.15	44.705	0.198
0.7452	288.15	20.855	0.094
0.7681	298.15	32.45	0.145
0.7701	308.15	48.52	0.215
0.8327	288.15	22.705	0.102
0.8404	298.15	34.815	0.155
0.8462	308.15	52.1	0.231
0.9161	288.15	24.62	0.111
0.9198	298.15	37.42	0.168
0.9245	308.15	56.125	0.248

System: 2-chloro-2-methylpropane + butyl ethyl ether; phases: Liquid
Fixed: Pressure, kPa = 101
Property: Mass density, kg/m3 (Liquid); method: Vibrating tube method
Temperature, K	Mole fraction of 2-chloro-2-methylpropane	Mass density, kg/m3	uncertainty
283.15	0	759.632	1.024
283.15	0.0513	763.717	1.024
283.15	0.1036	767.95	1.024
283.15	0.2014	776.093	1.024
283.15	0.2999	784.57	1.024
283.15	0.4014	793.617	1.024
283.15	0.4981	802.566	1.024
283.15	0.5997	812.333	1.024
283.15	0.6993	822.302	1.024
283.15	0.7999	832.784	1.024
283.15	0.8997	843.668	1.024
283.15	0.9492	849.296	1.024
283.15	1	855.249	1.023
288.15	0	754.838	1.024
288.15	0.0513	758.88	1.024
288.15	0.1036	763.077	1.024
288.15	0.2014	771.117	1.024
288.15	0.2999	779.5	1.024
288.15	0.4014	788.445	1.024
288.15	0.4981	797.281	1.024
288.15	0.5997	806.924	1.024
288.15	0.6993	816.764	1.024
288.15	0.7999	827.106	1.024
288.15	0.8997	837.83	1.024
288.15	0.9492	843.371	1.024
288.15	1	849.243	1.023
293.15	0	750.018	1.024
293.15	0.0513	754.015	1.024
293.15	0.1036	758.169	1.024
293.15	0.2014	766.112	1.024
293.15	0.2999	774.394	1.024
293.15	0.4014	783.227	1.024
293.15	0.4981	791.954	1.024
293.15	0.5997	801.472	1.024
293.15	0.6993	811.175	1.024
293.15	0.7999	821.38	1.024
293.15	0.8997	831.949	1.024
293.15	0.9492	837.407	1.024
293.15	1	843.191	1.023
298.15	0	745.173	1.025
298.15	0.0513	749.127	1.025
298.15	0.1036	753.235	1.025
298.15	0.2014	761.079	1.024
298.15	0.2999	769.258	1.024
298.15	0.4014	777.984	1.024
298.15	0.4981	786.598	1.024
298.15	0.5997	795.991	1.024
298.15	0.6993	805.576	1.024
298.15	0.7999	815.625	1.024
298.15	0.8997	826.038	1.024
298.15	0.9492	831.404	1.024
298.15	1	837.096	1.024
303.15	0	740.3	1.025
303.15	0.0513	744.21	1.025
303.15	0.1036	748.267	1.025
303.15	0.2014	756.014	1.025
303.15	0.2999	764.087	1.024
303.15	0.4014	772.7	1.024
303.15	0.4981	781.202	1.024
303.15	0.5997	790.468	1.024
303.15	0.6993	799.919	1.024
303.15	0.7999	809.827	1.024
303.15	0.8997	820.071	1.024
303.15	0.9492	825.359	1.024
303.15	1	830.958	1.024
308.15	0	735.393	1.025
308.15	0.0513	739.257	1.025
308.15	0.1036	743.265	1.025
308.15	0.2014	750.913	1.025
308.15	0.2999	758.885	1.025
308.15	0.4014	767.383	1.024
308.15	0.4981	775.775	1.024
308.15	0.5997	784.917	1.024
308.15	0.6993	794.231	1.024
308.15	0.7999	803.986	1.024
308.15	0.8997	814.067	1.024
308.15	0.9492	819.262	1.024
308.15	1	824.772	1.024
313.15	0	730.451	1.025
313.15	0.0513	734.27	1.025
313.15	0.1036	738.231	1.025
313.15	0.2014	745.779	1.025
313.15	0.2999	753.639	1.025
313.15	0.4014	762.025	1.024
313.15	0.4981	770.298	1.024
313.15	0.5997	779.314	1.024
313.15	0.6993	788.493	1.024
313.15	0.7999	798.098	1.024
313.15	0.8997	808.015	1.024
313.15	0.9492	813.117	1.024
313.15	1	818.536	1.024

System: 2-chloro-2-methylpropane + butyl ethyl ether; phases: Gas, Liquid
Property: Mole fraction of 2-chloro-2-methylpropane (Gas); method: Density calibration data
Mole fraction of 2-chloro-2-methylpropane	Temperature, K	Mole fraction of 2-chloro-2-methylpropane	uncertainty
0.0214	288.15	0.1229	0.0015
0.0638	298.15	0.2774	0.0015
0.0651	308.15	0.2596	0.0014
0.1007	288.15	0.4085	0.0028
0.1459	298.15	0.4755	0.0036
0.1596	308.15	0.4801	0.0036
0.1991	288.15	0.5998	0.0038
0.267	298.15	0.6488	0.0036
0.2706	308.15	0.6377	0.0036
0.2813	288.15	0.685	0.0034
0.3228	298.15	0.7054	0.0032
0.3275	308.15	0.6895	0.0033
0.4119	298.15	0.7501	0.0029
0.4187	308.15	0.7651	0.0028
0.4447	288.15	0.8161	0.0023
0.4927	288.15	0.8324	0.0022
0.5026	298.15	0.8347	0.0022
0.5037	308.15	0.824	0.0023
0.5223	288.15	0.8527	0.002
0.5484	298.15	0.8568	0.0019
0.5678	308.15	0.8568	0.0019
0.6585	288.15	0.9189	0.0012
0.6782	298.15	0.9024	0.0014
0.6884	308.15	0.9105	0.0013
0.7452	288.15	0.9364	0.0009
0.7681	298.15	0.9354	0.001
0.7701	308.15	0.9392	0.0009
0.8327	288.15	0.9656	0.0006
0.8404	298.15	0.9611	0.0007
0.8462	308.15	0.9611	0.0007
0.9161	288.15	0.9827	0.0005
0.9198	298.15	0.9818	0.0005
0.9245	308.15	0.98	0.0005
