Measured thermophysical data. Thermodynamic properties of liquid Ag-Li alloys
Source: J. Chem. Thermodyn., 2016, 10.1016/j.jct.2016.06.013
Compound 1: silver, Ag, InChI=1S/Ag, purity 99.9%
Compound 2: lithium, Li, InChI=1S/Li, purity 99.9%

System: lithium + silver; phases: Crystal
Fixed: Pressure, kPa = 100
Property: (Relative) activity of lithium (Crystal); method: Calculated from EMF cell potential
Temperature, K	Mole fraction of lithium	(Relative) activity of lithium	uncertainty
916.3	0.1	0.00516	0.0006
908.4	0.1	0.00511	0.0006
889.9	0.1	0.00476	0.0006
869.9	0.1	0.00422	0.0006
850.7	0.1	0.00377	0.0006
831.2	0.1	0.00345	0.0006
819.1	0.1	0.00318	0.0006
799.4	0.1	0.00285	0.0006
775.1	0.1	0.00247	0.0006
916.3	0.2	0.01545	0.0016
908.4	0.2	0.01435	0.0016
890	0.2	0.01305	0.0016
869.9	0.2	0.01297	0.0016
850.7	0.2	0.01246	0.0016
824	0.2	0.01135	0.0016
801	0.2	0.01027	0.0016
779.2	0.3	0.02376	0.0034
795.9	0.3	0.02515	0.0034
869.9	0.3	0.03381	0.0034
874.6	0.3	0.03261	0.0034
884.1	0.3	0.03127	0.0034
879.6	0.3	0.03146	0.0034
849.3	0.3	0.02957	0.0034
788.5	0.375	0.03546	0.0056
779	0.375	0.03461	0.0056

System: lithium + silver; phases: Liquid
Fixed: Pressure, kPa = 100
Property: (Relative) activity of lithium (Liquid); method: Calculated from EMF cell potential
Temperature, K	Mole fraction of lithium	(Relative) activity of lithium	uncertainty
894.2	0.375	0.04756	0.0022
884.6	0.375	0.04637	0.0022
875.2	0.375	0.04469	0.0022
865.7	0.375	0.04466	0.0022
856.1	0.375	0.04462	0.0022
898.6	0.5	0.17448	0.0054
880.4	0.5	0.17233	0.0054
859.2	0.5	0.1639	0.0054
838.8	0.5	0.15838	0.0054
818.4	0.5	0.15148	0.0054
796.9	0.5	0.14438	0.0054
774.8	0.5	0.13704	0.0054
777.5	0.6	0.2893	0.0138
788	0.6	0.30695	0.0138
796.9	0.6	0.30832	0.0138
806.4	0.6	0.30771	0.0138
815.9	0.6	0.3102	0.0138
825.6	0.6	0.31054	0.0138
834.8	0.6	0.31282	0.0138
844.8	0.6	0.31672	0.0138
854.7	0.6	0.31966	0.0138
864.6	0.6	0.32127	0.0138
874.3	0.6	0.33632	0.0138
883.9	0.6	0.33106	0.0138
894.3	0.6	0.33448	0.0138
904.3	0.6	0.33812	0.0138
775.1	0.7	0.51905	0.0172
796.9	0.7	0.52537	0.0172
825.6	0.7	0.53877	0.0172
844.8	0.7	0.5532	0.0172
864.6	0.7	0.56226	0.0172
883.9	0.7	0.559	0.0172
904.3	0.7	0.56276	0.0172
912.8	0.7	0.56435	0.0172
643	0.8	0.63001	0.0296
775.9	0.8	0.65295	0.0296
664.4	0.8	0.63723	0.0296
684.8	0.8	0.63607	0.0296
705.9	0.8	0.64155	0.0296
726.3	0.8	0.64753	0.0296
763.9	0.8	0.65553	0.0296
786.8	0.8	0.66071	0.0296
806.7	0.8	0.66462	0.0296
826.3	0.8	0.67298	0.0296
847.3	0.8	0.69088	0.0296
857.7	0.8	0.71109	0.0296
836.5	0.8	0.70107	0.0296
815.5	0.8	0.68977	0.0296
796.3	0.8	0.68262	0.0296
775.5	0.8	0.67365	0.0296
755	0.8	0.66954	0.0296
735.3	0.8	0.66763	0.0296
715.1	0.8	0.66328	0.0296
693.9	0.8	0.6583	0.0296
674.2	0.8	0.64474	0.0296
650.1	0.8	0.6446	0.0296
648.7	0.8	0.61803	0.0296
787.5	0.8	0.67274	0.0296
748.1	0.9	0.92108	0.0154
753.2	0.9	0.91734	0.0154
762.9	0.9	0.92536	0.0154
772.4	0.9	0.91793	0.0154
781.9	0.9	0.92435	0.0154
791.3	0.9	0.91981	0.0154
723.5	0.9	0.92293	0.0154
696.4	0.9	0.92006	0.0154
671.4	0.9	0.9188	0.0154
