Measured thermophysical data. Thermophysical properties of 1-propylpyridinium tetrafluoroborate
Source: J. Chem. Thermodyn., 2012, 10.1016/j.jct.2011.08.015
Compound 1: 1-propylpyridinium tetrafluoroborate, C8H12BF4N, InChI=1S/C8H12N.BF4/c1-2-6-9-7-4-3-5-8-9;2-1(3,4)5/h3-5,7-8H,2,6H2,1H3;/q+1;-1, purity 98%

System: 1-propylpyridinium tetrafluoroborate; phases: Liquid
Fixed: Pressure, kPa = 101.325
Property: Molar heat capacity at constant pressure, J/K/mol (Liquid); method: Small sample (50 mg) DSC
Temperature, K	Molar heat capacity at constant pressure, J/K/mol	uncertainty
278.15	352	8
280.65	354	8
283.15	355	8
285.65	356	8
288.15	357	8
290.65	359	8
293.15	361	8
295.65	362	8
298.15	363	8
300.65	365	8
303.15	366	8
305.65	367	8
308.15	369	8
310.65	370	8
313.15	372	8
315.65	373	8
318.15	374	8
320.65	376	8
323.15	377	8
325.65	378	8
328.15	380	8
330.65	381	8
333.15	383	8
335.65	384	8
338.15	385	8

System: 1-propylpyridinium tetrafluoroborate; phases: Liquid
Fixed: Pressure, kPa = 101.325
Property: Electrical conductivity, S/m (Liquid); method: CRISON model GLP31
Temperature, K	Electrical conductivity, S/m	uncertainty
278.15	0.1019	0.0036
280.65	0.1233	0.0041
283.15	0.1514	0.0049
285.65	0.1814	0.0054
288.15	0.215	0.006
290.65	0.252	0.007
293.15	0.302	0.009
295.65	0.352	0.009
298.15	0.401	0.009
300.65	0.456	0.01
303.15	0.516	0.011
305.65	0.581	0.012
308.15	0.649	0.013
310.65	0.722	0.014
313.15	0.799	0.015
315.65	0.881	0.016
318.15	0.965	0.018
320.65	1.071	0.019
323.15	1.154	0.019
325.65	1.257	0.021
328.15	1.366	0.023
330.65	1.481	0.024
333.15	1.604	0.026
335.65	1.733	0.027
338.15	1.869	0.029

System: 1-propylpyridinium tetrafluoroborate; phases: Liquid, Air at 1 atmosphere
Property: Surface tension liquid-gas, N/m (Liquid); method: Drop volume
Temperature, K	Surface tension liquid-gas, N/m	uncertainty
278.15	0.05255	0.00057
280.65	0.05235	0.00057
283.15	0.05216	0.00057
285.65	0.05194	0.00056
288.15	0.05172	0.00056
290.65	0.05153	0.00056
293.15	0.05129	0.00056
295.65	0.05115	0.00056
298.15	0.05097	0.00055
300.65	0.05073	0.00055
303.15	0.05051	0.00055
305.65	0.05032	0.00055
308.15	0.05012	0.00054
310.65	0.04993	0.00054
313.15	0.04979	0.00054
315.65	0.04954	0.00054
318.15	0.04941	0.00054
320.65	0.04921	0.00054
323.15	0.04903	0.00053
325.65	0.04882	0.00053
328.15	0.0487	0.00053
330.65	0.04846	0.00053
333.15	0.0483	0.00053
335.65	0.0481	0.00052
338.15	0.04786	0.00052

System: 1-propylpyridinium tetrafluoroborate; phases: Liquid
Fixed: Pressure, kPa = 101.325
Property: Viscosity, Pa*s (Liquid); method: Capillary tube (Ostwald; Ubbelohde) method
Temperature, K	Viscosity, Pa*s	uncertainty
278.15	0.4614	0.0182
280.65	0.3791	0.0138
283.15	0.3142	0.0105
285.65	0.2625	0.0081
288.15	0.2208	0.0062
290.65	0.1869	0.0047
293.15	0.16	0.0037
295.65	0.1377	0.0029
298.15	0.1195	0.0022
300.65	0.1038	0.0018
303.15	0.09075	0.00139
305.65	0.07975	0.0011
308.15	0.07061	0.00089
310.65	0.06281	0.00074
313.15	0.05602	0.00062
315.65	0.05022	0.00055
318.15	0.04519	0.00052
320.65	0.04086	0.00047
323.15	0.03699	0.00042
325.65	0.03384	0.00039
328.15	0.03072	0.00035
330.65	0.02809	0.00032
333.15	0.02581	0.00029
335.65	0.02378	0.00027
338.15	0.02197	0.00025

System: 1-propylpyridinium tetrafluoroborate; phases: Liquid
Fixed: Pressure, kPa = 101.325
Property: Refractive index (Na D-line) (Liquid); method: Standard Abbe refractometry
Temperature, K	Refractive index (Na D-line)	uncertainty
283.15	1.448552	0.000507
285.65	1.447895	0.000507
288.15	1.447226	0.000507
290.65	1.446553	0.000507
293.15	1.445883	0.000507
295.65	1.44522	0.000507
298.15	1.444554	0.000507
300.65	1.443885	0.000507
303.15	1.44322	0.000507
305.65	1.442556	0.000507
308.15	1.441902	0.000507
310.65	1.441229	0.000507
313.15	1.440566	0.000507
315.65	1.439901	0.000507
318.15	1.439239	0.000507
320.65	1.438588	0.000507
323.15	1.437925	0.000507
325.65	1.437257	0.000507
328.15	1.436594	0.000507
330.65	1.435929	0.000507
333.15	1.435277	0.000507
335.65	1.434632	0.000507
338.15	1.433983	0.000507

System: 1-propylpyridinium tetrafluoroborate; phases: Liquid
Fixed: Pressure, kPa = 101.325
Property: Speed of sound, m/s (Liquid); method: Sing-around technique in a fixed-path interferometer
Temperature, K	Speed of sound, m/s	uncertainty
278.15	1691.9	2.93
280.65	1685.4	2.92
283.15	1678.9	2.92
285.65	1672.49	2.92
288.15	1666.2	2.92
290.65	1660.01	2.92
293.15	1653.87	2.92
295.65	1647.78	2.92
298.15	1641.7	2.92
300.65	1635.7	2.92
303.15	1629.76	2.92
305.65	1623.85	2.92
308.15	1617.96	2.92
310.65	1612.12	2.92
313.15	1606.32	2.92
315.65	1600.54	2.92
318.15	1594.77	2.92
320.65	1589.02	2.92
323.15	1583.31	2.92
325.65	1577.62	2.91
328.15	1571.98	2.91
330.65	1566.35	2.91
333.15	1560.72	2.91
335.65	1555.11	2.91
338.15	1549.54	2.91

System: 1-propylpyridinium tetrafluoroborate; phases: Liquid
Fixed: Pressure, kPa = 101.325
Property: Mass density, kg/m3 (Liquid); method: Vibrating tube method
Temperature, K	Mass density, kg/m3	uncertainty
278.15	1267.63	1.43
280.65	1265.78	1.43
283.15	1263.92	1.42
285.65	1262.06	1.42
288.15	1260.19	1.42
290.65	1258.42	1.41
293.15	1256.64	1.41
295.65	1254.86	1.4
298.15	1253.08	1.4
300.65	1251.3	1.39
303.15	1249.52	1.39
305.65	1247.73	1.39
308.15	1245.95	1.38
310.65	1244.18	1.38
313.15	1242.4	1.37
315.65	1240.63	1.37
318.15	1238.86	1.36
320.65	1237.1	1.36
323.15	1235.33	1.36
325.65	1233.58	1.35
328.15	1231.82	1.35
330.65	1230.07	1.34
333.15	1228.32	1.34
335.65	1226.57	1.34
338.15	1224.83	1.33
