Measured thermophysical data. Thermochemical and conformational study of optical active phenylbenzazole derivatives
Source: J. Chem. Thermodyn., 2018, 10.1016/j.jct.2017.08.017
Compound 1: carbon dioxide, CO2, InChI=1S/CO2/c2-1-3
Compound 2: nitrogen, N2, InChI=1S/N2/c1-2
Compound 3: water, H2O, InChI=1S/H2O/h1H2
Compound 4: oxygen, O2, InChI=1S/O2/c1-2
Compound 5: sulfuric acid, H2O4S, InChI=1S/H2O4S/c1-5(2,3)4/h(H2,1,2,3,4)
Compound 6: 2-phenylbenzoxazole, C13H9NO, InChI=1S/C13H9NO/c1-2-6-10(7-3-1)13-14-11-8-4-5-9-12(11)15-13/h1-9H, purity 99%
Compound 7: 2-phenylbenzothiazole, C13H9NS, InChI=1S/C13H9NS/c1-2-6-10(7-3-1)13-14-11-8-4-5-9-12(11)15-13/h1-9H, purity 99%
Compound 8: 2-(2-hydroxyphenyl)benzoxazole, C13H9NO2, InChI=1S/C13H9NO2/c15-11-7-3-1-5-9(11)13-14-10-6-2-4-8-12(10)16-13/h1-8,15H, purity 99%
Compound 9: 2-(2-hydroxyphenyl)-1,3-benzothiazole, C13H9NOS, InChI=1S/C13H9NOS/c15-11-7-3-1-5-9(11)13-14-10-6-2-4-8-12(10)16-13/h1-8,15H, purity 99%

System: 2-phenylbenzoxazole; phases: Crystal, Gas
Property: Molar enthalpy of vaporization or sublimation, kJ/mol (Crystal); method: Static calorimetry
Temperature, K	Molar enthalpy of vaporization or sublimation, kJ/mol	uncertainty
298.15	90.9	2

System: 2-phenylbenzoxazole; phases: Gas, Crystal
Property: Molar enthalpy, kJ/mol (Gas); method: Drop calorimetry
Temperature, K	Molar enthalpy, kJ/mol	uncertainty
396.31	113.3	2.7

System: 2-phenylbenzothiazole; phases: Crystal, Gas
Property: Molar enthalpy of vaporization or sublimation, kJ/mol (Crystal); method: Static calorimetry
Temperature, K	Molar enthalpy of vaporization or sublimation, kJ/mol	uncertainty
298.15	99.3	1.7

System: 2-phenylbenzothiazole; phases: Gas, Crystal
Property: Molar enthalpy, kJ/mol (Gas); method: Drop calorimetry
Temperature, K	Molar enthalpy, kJ/mol	uncertainty
406.49	125.2	2.9

System: 2-(2-hydroxyphenyl)benzoxazole; phases: Crystal, Gas
Property: Molar enthalpy of vaporization or sublimation, kJ/mol (Crystal); method: Static calorimetry
Temperature, K	Molar enthalpy of vaporization or sublimation, kJ/mol	uncertainty
298.15	100.5	1.8

System: 2-(2-hydroxyphenyl)benzoxazole; phases: Crystal, Gas
Property: Vapor or sublimation pressure, kPa (Crystal); method: Calculated from knudsen effusion weight loss
Temperature, K	Vapor or sublimation pressure, kPa	uncertainty
331.16	0.000127	0.00012
333.19	0.000152	0.00012
335.13	0.000191	0.00012
337.16	0.000248	0.00012
339.18	0.000294	0.00012
341.12	0.000366	0.000121
343.16	0.000477	0.000121
345.17	0.000558	0.000122
347.11	0.00068	0.000122
349.16	0.000879	0.000124
351.16	0.001027	0.00014
353.12	0.001264	0.000152
331.16	0.00012	0.00012
333.19	0.000156	0.00012
335.13	0.000191	0.00012
337.16	0.000233	0.00012
339.18	0.000301	0.00012
341.12	0.000365	0.000121
343.16	0.000446	0.000121
345.17	0.000571	0.000122
347.11	0.000688	0.000122
349.16	0.000829	0.000124
351.16	0.001049	0.000141
353.12	0.001273	0.000153
331.16	0.000119	0.00012
333.19	0.00015	0.00012
335.13	0.000188	0.00012
337.16	0.00023	0.00012
339.18	0.000288	0.00012
341.12	0.000362	0.000121
343.16	0.000441	0.000121
345.17	0.000545	0.000122
347.11	0.00068	0.000122
349.16	0.000822	0.000123
351.16	0.001006	0.00014
353.12	0.00126	0.000152

System: 2-(2-hydroxyphenyl)benzoxazole; phases: Gas, Crystal
Property: Molar enthalpy, kJ/mol (Gas); method: Drop calorimetry
Temperature, K	Molar enthalpy, kJ/mol	uncertainty
406.49	132.6	3.3

System: 2-(2-hydroxyphenyl)-1,3-benzothiazole; phases: Crystal, Gas
Property: Molar enthalpy of vaporization or sublimation, kJ/mol (Crystal); method: Static calorimetry
Temperature, K	Molar enthalpy of vaporization or sublimation, kJ/mol	uncertainty
298.15	105	2.2

System: 2-(2-hydroxyphenyl)-1,3-benzothiazole; phases: Gas, Crystal
Property: Molar enthalpy, kJ/mol (Gas); method: Drop calorimetry
Temperature, K	Molar enthalpy, kJ/mol	uncertainty
396.08	124.5	2.9

Reaction: -1 2-phenylbenzoxazole + 13 carbon dioxide + .5 nitrogen + 4.5 water + -14.75 oxygen
Property: Specific internal energy of reaction at constant volume, J/g
-32812.75

Reaction: -1 2-phenylbenzothiazole + 1 sulfuric acid + 13 carbon dioxide + .5 nitrogen + 3.5 water + -16.75 oxygen
Property: Specific internal energy of reaction at constant volume, J/g
-33963.47

Reaction: -1 2-(2-hydroxyphenyl)benzoxazole + 13 carbon dioxide + .5 nitrogen + 4.5 water + -14.25 oxygen
Property: Specific internal energy of reaction at constant volume, J/g
-29336.83

Reaction: -1 2-(2-hydroxyphenyl)-1,3-benzothiazole + 1 sulfuric acid + 13 carbon dioxide + .5 nitrogen + 3.5 water + -16.25 oxygen
Property: Specific internal energy of reaction at constant volume, J/g
-30668.54
