Measured thermophysical data. Experimental investigation of hydrogen sulfide solubility in aqueous sulfolane solution
Source: J. Chem. Thermodyn., 2017, 10.1016/j.jct.2016.11.025
Compound 1: hydrogen sulfide, H2S, InChI=1S/H2S/h1H2, purity 99.95%
Compound 2: sulfolane, C4H8O2S, InChI=1S/C4H8O2S/c5-7(6)3-1-2-4-7/h1-4H2, purity 99%
Compound 3: water, H2O, InChI=1S/H2O/h1H2, purity 99.8%

System: sulfolane + water + hydrogen sulfide; phases: Liquid, Gas
Property: Mole fraction of hydrogen sulfide (Liquid); method: volumetric method
Solvent: Mole fraction of sulfolane	Temperature, K	Pressure, kPa	Mole fraction of hydrogen sulfide	uncertainty
0.0113	303.15	82	0.0016	0.0004
0.0113	303.15	177	0.003	0.0006
0.0113	303.15	341	0.0056	0.0012
0.0113	303.15	596	0.0096	0.0018
0.0113	303.15	905.8	0.0145	0.002
0.0113	303.15	1211.4	0.02	0.0022
0.0113	303.15	1555.9	0.0251	0.0026
0.0113	313.15	96	0.0015	0.0004
0.0113	313.15	198	0.0028	0.0008
0.0113	313.15	376	0.0051	0.0012
0.0113	313.15	652	0.0088	0.0016
0.0113	313.15	1000	0.0133	0.002
0.0113	313.15	1385	0.0183	0.0024
0.0113	323.15	112	0.0014	0.0004
0.0113	323.15	221	0.0026	0.0006
0.0113	323.15	412	0.0047	0.001
0.0113	323.15	711	0.0082	0.0016
0.0113	323.15	1093	0.0124	0.0018
0.0113	323.15	1518	0.0172	0.002
0.0113	323.15	1933	0.0217	0.0024
0.0113	333.15	129	0.0014	0.0004
0.0113	333.15	244	0.0025	0.0006
0.0113	333.15	448	0.0045	0.0006
0.0113	333.15	770	0.0078	0.0012
0.0113	333.15	1179	0.0118	0.0012
0.0113	333.15	1638	0.0163	0.0018
0.0113	333.15	2094	0.0207	0.0018
0.0113	343.15	269	0.0024	0.0006
0.0113	343.15	479	0.0044	0.0008
0.0113	343.15	804	0.0075	0.001
0.0113	343.15	1219	0.0114	0.0014
0.0113	343.15	1672	0.0157	0.0018
0.0113	343.15	2118	0.0199	0.0018
0.0113	353.15	183	0.0014	0.0004
0.0113	353.15	307	0.0024	0.0006
0.0113	353.15	539	0.0043	0.0006
0.0113	353.15	894	0.0073	0.001
0.0113	353.15	1346	0.0111	0.0012
0.0113	353.15	1848	0.0153	0.0016
0.0113	353.15	2358	0.0195	0.0018
0.0992	303.15	157	0.0061	0.0014
0.0992	303.15	379	0.0145	0.0026
0.0992	303.15	635	0.0255	0.004
0.0992	303.15	790	0.0319	0.0044
0.0992	303.15	993	0.0422	0.0052
0.0992	303.15	1355	0.062	0.0062
0.0992	313.15	177	0.0056	0.0014
0.0992	313.15	422	0.0135	0.0026
0.0992	313.15	702	0.0239	0.004
0.0992	313.15	883	0.0295	0.0044
0.0992	313.15	1112	0.039	0.0054
0.0992	313.15	1531	0.057	0.0064
0.0992	323.15	195	0.0053	0.0014
0.0992	323.15	461	0.0127	0.0026
0.0992	323.15	767	0.0225	0.004
0.0992	323.15	963	0.0278	0.0044
0.0992	323.15	1215	0.0367	0.0054
0.0992	323.15	1681	0.0535	0.0066
0.0992	333.15	212	0.0051	0.0014
0.0992	333.15	497	0.0122	0.0026
0.0992	333.15	830	0.0213	0.004
0.0992	333.15	1035	0.0266	0.0046
0.0992	333.15	1309	0.035	0.0054
0.0992	333.15	1815	0.051	0.0066
0.0992	343.15	233	0.005	0.0014
0.0992	343.15	536	0.0117	0.0026
0.0992	343.15	894	0.0204	0.004
0.0992	343.15	1111	0.0255	0.0046
0.0992	343.15	1404	0.0336	0.0054
0.0992	343.15	1947	0.049	0.0066
0.0992	353.15	253	0.0049	0.0014
0.0992	353.15	572	0.0114	0.0026
0.0992	353.15	957	0.0196	0.004
0.0992	353.15	1175	0.0249	0.0046
0.0992	353.15	1485	0.0328	0.0054
0.0992	353.15	2055	0.048	0.0066
0.1467	303.15	128	0.0059	0.0008
0.1467	303.15	231	0.0113	0.0012
0.1467	303.15	415	0.0221	0.0024
0.1467	303.15	702	0.0383	0.0038
0.1467	303.15	828	0.0488	0.0042
0.1467	303.15	994	0.0588	0.0048
0.1467	313.15	142	0.0056	0.0008
0.1467	313.15	257	0.0107	0.0012
0.1467	313.15	460	0.021	0.0026
0.1467	313.15	779	0.0363	0.0038
0.1467	313.15	923	0.0463	0.0042
0.1467	313.15	1112	0.0556	0.0048
0.1467	323.15	158	0.0054	0.0008
0.1467	323.15	283	0.0102	0.0012
0.1467	323.15	507	0.02	0.0026
0.1467	323.15	854	0.0346	0.0038
0.1467	323.15	1016	0.0441	0.0042
0.1467	333.15	174	0.0051	0.0008
0.1467	333.15	309	0.0097	0.0012
0.1467	333.15	552	0.0191	0.0026
0.1467	333.15	926	0.0332	0.0038
0.1467	333.15	1105	0.0423	0.0042
0.1467	343.15	194	0.0049	0.0008
0.1467	343.15	338	0.0094	0.0012
0.1467	343.15	598	0.0185	0.0026
0.1467	343.15	998	0.0321	0.0038
0.1467	343.15	1199	0.0406	0.0044
0.1467	353.15	216	0.0048	0.0008
0.1467	353.15	368	0.0091	0.0012
0.1467	353.15	643	0.0179	0.0026
0.1467	353.15	1069	0.0311	0.0038
0.1467	353.15	1290	0.0392	0.0044
0.3415	303.15	136	0.0166	0.0029
0.3415	303.15	223	0.0273	0.0037
0.3415	303.15	352	0.0439	0.0049
0.3415	303.15	581	0.0729	0.0057
0.3415	303.15	747	0.0961	0.0065
0.3415	303.15	826	0.109	0.0069
0.3415	313.15	160	0.0155	0.0028
0.3415	313.15	254	0.0259	0.0038
0.3415	313.15	404	0.0415	0.0048
0.3415	313.15	661	0.0693	0.0058
0.3415	313.15	852	0.0914	0.0065
0.3415	313.15	942	0.1039	0.0071
0.3415	323.15	179	0.0148	0.0028
0.3415	323.15	286	0.0247	0.0038
0.3415	323.15	452	0.0395	0.0048
0.3415	323.15	740	0.0661	0.0058
0.3415	323.15	955	0.0872	0.0066
0.3415	323.15	1056	0.0994	0.0073
0.3415	333.15	201	0.0141	0.0028
0.3415	333.15	319	0.0235	0.0038
0.3415	333.15	502	0.0377	0.0048
0.3415	333.15	820	0.0631	0.0058
0.3415	333.15	1060	0.0833	0.0066
0.3415	343.15	226	0.0132	0.0028
0.3415	343.15	354	0.0222	0.0038
0.3415	343.15	554	0.0358	0.0048
0.3415	343.15	902	0.0602	0.006
0.3415	343.15	1167	0.0795	0.0068
0.3415	353.15	252	0.0123	0.0028
0.3415	353.15	391	0.021	0.0038
0.3415	353.15	607	0.034	0.0048
0.3415	353.15	984	0.0575	0.006
0.3415	353.15	1272	0.076	0.0068
0.4928	303.15	115	0.0226	0.0036
0.4928	303.15	209	0.0414	0.0049
0.4928	303.15	328	0.0662	0.0061
0.4928	303.15	483	0.0954	0.0075
0.4928	303.15	679	0.1349	0.0083
0.4928	303.15	949	0.1885	0.0091
0.4928	313.15	134	0.0215	0.0035
0.4928	313.15	243	0.0394	0.0049
0.4928	313.15	383	0.063	0.0061
0.4928	313.15	563	0.091	0.0075
0.4928	313.15	793	0.1289	0.0085
0.4928	313.15	1112	0.1805	0.0095
0.4928	323.15	155	0.0205	0.0037
0.4928	323.15	277	0.0377	0.0049
0.4928	323.15	437	0.0603	0.0063
0.4928	323.15	640	0.0871	0.0076
0.4928	323.15	904	0.1235	0.0087
0.4928	323.15	1272	0.1731	0.0097
0.4928	333.15	176	0.0196	0.0037
0.4928	333.15	313	0.036	0.0048
0.4928	333.15	492	0.0578	0.0062
0.4928	333.15	717	0.0836	0.0076
0.4928	333.15	1016	0.1185	0.0086
0.4928	333.15	1433	0.1663	0.0099
0.4928	343.15	201	0.0184	0.0036
0.4928	343.15	354	0.0339	0.0048
0.4928	343.15	551	0.0548	0.0062
0.4928	343.15	799	0.0796	0.0078
0.4928	343.15	1134	0.1129	0.0088
0.4928	343.15	1600	0.1588	0.0103
0.4928	353.15	226	0.0174	0.0036
0.4928	353.15	394	0.0323	0.005
0.4928	353.15	609	0.0525	0.0062
0.4928	353.15	879	0.0766	0.0078
0.4928	353.15	1250	0.1086	0.009
0.4928	353.15	1765	0.1528	0.0105
0.6913	303.15	115	0.0297	0.0049
0.6913	303.15	212	0.0541	0.0066
0.6913	303.15	304	0.0773	0.0077
0.6913	303.15	449	0.1158	0.0087
0.6913	303.15	591	0.1474	0.0093
0.6913	303.15	730	0.183	0.0098
0.6913	303.15	834	0.2105	0.0102
0.6913	313.15	134	0.0283	0.0049
0.6913	313.15	245	0.0516	0.0065
0.6913	313.15	351	0.0737	0.0079
0.6913	313.15	531	0.1094	0.0089
0.6913	313.15	680	0.1413	0.0095
0.6913	313.15	843	0.1755	0.0101
0.6913	313.15	963	0.2024	0.0105
0.6913	323.15	154	0.027	0.0049
0.6913	323.15	278	0.0493	0.0065
0.6913	323.15	400	0.0702	0.0079
0.6913	323.15	600	0.1047	0.0091
0.6913	323.15	769	0.1355	0.0097
0.6913	323.15	955	0.1686	0.0103
0.6913	323.15	1092	0.1947	0.0107
0.6913	333.15	175	0.0256	0.0049
0.6913	333.15	314	0.0469	0.0065
0.6913	333.15	451	0.0668	0.008
0.6913	333.15	670	0.1003	0.0091
0.6913	333.15	860	0.1299	0.0099
0.6913	333.15	1068	0.162	0.0105
0.6913	343.15	198	0.0243	0.0048
0.6913	343.15	353	0.0446	0.0064
0.6913	343.15	503	0.0637	0.008
0.6913	343.15	745	0.0959	0.0092
0.6913	343.15	955	0.1245	0.0101
0.6913	343.15	1184	0.1557	0.0107
0.6913	353.15	223	0.023	0.0048
0.6913	353.15	393	0.0423	0.0066
0.6913	353.15	556	0.0607	0.008
0.6913	353.15	817	0.0921	0.0094
0.6913	353.15	1052	0.1193	0.0102
0.6913	353.15	1299	0.1499	0.0109
0.749	303.15	129	0.0389	0.005
0.749	303.15	277	0.0825	0.006
0.749	303.15	448	0.133	0.0072
0.749	303.15	657	0.1896	0.0078
0.749	303.15	748	0.2143	0.0086
0.749	313.15	152	0.0373	0.005
0.749	313.15	327	0.0793	0.0061
0.749	313.15	532	0.1278	0.0071
0.749	313.15	777	0.1829	0.008
0.749	313.15	887	0.2067	0.0088
0.749	323.15	175	0.036	0.0049
0.749	323.15	377	0.0763	0.0061
0.749	323.15	615	0.1231	0.0073
0.749	323.15	898	0.1765	0.0081
0.749	323.15	1025	0.1998	0.0089
0.749	333.15	201	0.0346	0.0049
0.749	333.15	430	0.0734	0.0061
0.749	333.15	700	0.1186	0.0075
0.749	333.15	1024	0.1703	0.0083
0.749	333.15	1168	0.193	0.0091
0.749	343.15	231	0.0331	0.0049
0.749	343.15	487	0.0704	0.0063
0.749	343.15	790	0.1141	0.0075
0.749	343.15	1155	0.1641	0.0085
0.749	343.15	1322	0.1859	0.0095
0.749	353.15	261	0.0317	0.0048
0.749	353.15	545	0.0675	0.0062
0.749	353.15	880	0.1099	0.0077
0.749	353.15	1288	0.1582	0.0087
0.749	353.15	1473	0.1794	0.0097
0.9039	303.15	72	0.0264	0.0032
0.9039	303.15	145	0.0533	0.0042
0.9039	303.15	239	0.0863	0.0055
0.9039	303.15	318	0.1141	0.0067
0.9039	303.15	409	0.1448	0.0074
0.9039	303.15	476	0.1637	0.008
0.9039	303.15	623	0.2105	0.0085
0.9039	303.15	742	0.2473	0.0085
0.9039	313.15	86	0.0255	0.003
0.9039	313.15	172	0.0515	0.0041
0.9039	313.15	282	0.0836	0.0054
0.9039	313.15	374	0.1107	0.0066
0.9039	313.15	481	0.1406	0.0074
0.9039	313.15	562	0.1588	0.0082
0.9039	313.15	732	0.2048	0.0086
0.9039	313.15	874	0.2408	0.0086
0.9039	323.15	99	0.0247	0.0029
0.9039	323.15	198	0.0499	0.004
0.9039	323.15	325	0.0809	0.0054
0.9039	323.15	432	0.1073	0.0065
0.9039	323.15	556	0.1363	0.0075
0.9039	323.15	650	0.1539	0.0083
0.9039	323.15	849	0.1988	0.0086
0.9039	323.15	1011	0.2343	0.0088
0.9039	333.15	115	0.0238	0.0028
0.9039	333.15	232	0.0478	0.004
0.9039	333.15	373	0.0782	0.0053
0.9039	333.15	495	0.1038	0.0067
0.9039	333.15	636	0.1321	0.0075
0.9039	333.15	744	0.149	0.0085
0.9039	333.15	973	0.1928	0.0087
0.9039	333.15	1160	0.2275	0.009
0.9039	343.15	131	0.0229	0.0028
0.9039	343.15	262	0.0462	0.0039
0.9039	343.15	421	0.0756	0.0055
0.9039	343.15	559	0.1004	0.0067
0.9039	343.15	721	0.1277	0.0077
0.9039	343.15	840	0.1443	0.0085
0.9039	343.15	1110	0.1863	0.0091
0.9039	353.15	148	0.0221	0.0027
0.9039	353.15	295	0.0445	0.0039
0.9039	353.15	471	0.0731	0.0055
0.9039	353.15	627	0.0971	0.0069
0.9039	353.15	811	0.1234	0.0079
0.9039	353.15	940	0.1396	0.0087
0.9039	353.15	1252	0.1799	0.0093
0.9391	303.15	106	0.0427	0.0046
0.9391	303.15	199	0.0781	0.0063
0.9391	303.15	311	0.1199	0.0072
0.9391	303.15	504	0.1827	0.0094
0.9391	303.15	620	0.2192	0.0108
0.9391	303.15	754	0.2586	0.012
0.9391	313.15	124	0.0407	0.0045
0.9391	313.15	232	0.0746	0.0064
0.9391	313.15	364	0.1146	0.0074
0.9391	313.15	586	0.1754	0.0096
0.9391	313.15	723	0.2107	0.0112
0.9391	313.15	876	0.2493	0.0124
0.9391	323.15	142	0.0388	0.0044
0.9391	323.15	265	0.0713	0.0063
0.9391	323.15	417	0.1096	0.0073
0.9391	323.15	671	0.1683	0.0097
0.9391	323.15	827	0.2025	0.0115
0.9391	323.15	1006	0.2399	0.0127
0.9391	333.15	161	0.0369	0.0045
0.9391	333.15	301	0.0678	0.0063
0.9391	333.15	474	0.1045	0.0075
0.9391	333.15	760	0.1611	0.0101
0.9391	333.15	937	0.1942	0.0117
0.9391	333.15	1139	0.2307	0.0131
0.9391	343.15	182	0.0351	0.0045
0.9391	343.15	338	0.0647	0.0065
0.9391	343.15	531	0.0998	0.0077
0.9391	343.15	851	0.1543	0.0103
0.9391	343.15	1047	0.1865	0.0121
0.9391	343.15	1279	0.2213	0.0135
0.9391	353.15	203	0.0334	0.0045
0.9391	353.15	376	0.0615	0.0065
0.9391	353.15	588	0.0953	0.0077
0.9391	353.15	945	0.1474	0.0105
0.9391	353.15	1160	0.1788	0.0123
0.9391	353.15	1423	0.212	0.0139
