Measured thermophysical data. Volumetric properties of aqueous solutions of glutaric acid
Source: J. Chem. Thermodyn., 2007, 10.1016/j.jct.2006.12.015
Compound 1: 1,5-pentanedioic acid, C5H8O4, InChI=1S/C5H8O4/c6-4(7)2-1-3-5(8)9/h1-3H2,(H,6,7)(H,8,9), purity 99%
Compound 2: water, H2O, InChI=1S/H2O/h1H2, purity 99.9%

System: 1,5-pentanedioic acid + water; phases: Liquid
Fixed: Pressure, kPa = 101
Property: Mass density, kg/m3 (Liquid); method: VIBTUB:UFactor:16
Temperature, K	Molality, mol/kg of 1,5-pentanedioic acid	Mass density, kg/m3	uncertainty
288.15	0.0055	999.43	0.65
288.15	0.0103	999.65	0.65
288.15	0.0495	1000.98	0.65
288.15	0.099	1002.71	0.67
288.15	0.198	1006.14	0.69
288.15	0.297	1009.46	0.72
288.15	0.3959	1012.66	0.75
288.15	0.4949	1015.79	0.77
288.15	0.594	1018.94	0.8
288.15	0.693	1021.92	0.83
288.15	0.7919	1024.84	0.85
288.15	0.8908	1027.76	0.87
288.15	0.9899	1030.44	0.9
288.15	1.484	1043.77	1.01
288.15	1.98	1056.24	1.12
288.15	2.48	1067.39	1.21
288.15	2.97	1076.62	1.3
288.15	3.46	1085.84	1.38
288.15	3.96	1093.96	1.45
288.15	4.45	1101.7	1.52
288.15	4.95	1109.13	1.59
288.15	5.45	1115.52	1.65
288.15	5.94	1121.5	1.7
293.15	0.0055	998.56	0.66
293.15	0.0103	998.68	0.65
293.15	0.0495	1000.08	0.64
293.15	0.099	1001.77	0.66
293.15	0.198	1005.01	0.69
293.15	0.297	1008.23	0.71
293.15	0.3959	1011.37	0.74
293.15	0.4949	1014.43	0.76
293.15	0.594	1017.51	0.79
293.15	0.693	1020.42	0.81
293.15	0.7919	1023.28	0.84
293.15	0.8908	1026.14	0.86
293.15	0.9899	1028.86	0.88
293.15	1.484	1041.91	1
293.15	1.98	1053.7	1.1
293.15	2.48	1064.95	1.19
293.15	2.97	1074.1	1.28
293.15	3.46	1082.87	1.35
293.15	3.96	1090.91	1.43
293.15	4.45	1098.69	1.49
293.15	4.95	1106.01	1.56
293.15	5.45	1112.28	1.62
293.15	5.94	1118.19	1.67
298.15	0.0055	997.38	0.66
298.15	0.0103	997.47	0.66
298.15	0.0495	998.87	0.65
298.15	0.099	1000.51	0.65
298.15	0.198	1003.65	0.67
298.15	0.297	1006.8	0.7
298.15	0.3959	1009.85	0.73
298.15	0.4949	1012.87	0.75
298.15	0.594	1015.88	0.78
298.15	0.693	1018.72	0.8
298.15	0.7919	1021.53	0.82
298.15	0.8908	1024.32	0.85
298.15	0.9899	1027.02	0.87
298.15	1.484	1039.83	0.98
298.15	1.98	1051.35	1.08
298.15	2.48	1062.44	1.17
298.15	2.97	1071.45	1.25
298.15	3.46	1079.97	1.33
298.15	3.96	1087.95	1.4
298.15	4.45	1095.59	1.47
298.15	4.95	1102.81	1.53
298.15	5.45	1109	1.59
298.15	5.94	1114.81	1.65
303.15	0.0055	995.95	0.68
303.15	0.0103	996.07	0.68
303.15	0.0495	997.39	0.66
303.15	0.099	999.03	0.65
303.15	0.198	1002.14	0.66
303.15	0.297	1005.23	0.69
303.15	0.3959	1008.24	0.71
303.15	0.4949	1011.16	0.74
303.15	0.594	1014.13	0.76
303.15	0.693	1016.92	0.79
303.15	0.7919	1019.68	0.81
303.15	0.8908	1022.4	0.83
303.15	0.9899	1024.99	0.85
303.15	1.484	1037.58	0.96
303.15	1.98	1048.94	1.06
303.15	2.48	1059.76	1.15
303.15	2.97	1068.68	1.23
303.15	3.46	1076.92	1.3
303.15	3.96	1084.89	1.38
303.15	4.45	1092.5	1.44
303.15	4.95	1099.61	1.51
303.15	5.45	1105.75	1.57
303.15	5.94	1111.45	1.62
308.15	0.0055	994.36	0.69
308.15	0.0103	994.44	0.69
308.15	0.0495	995.75	0.68
308.15	0.099	997.38	0.67
308.15	0.198	1000.38	0.65
308.15	0.297	1003.43	0.67
308.15	0.3959	1006.35	0.7
308.15	0.4949	1009.24	0.72
308.15	0.594	1012.12	0.75
308.15	0.693	1014.88	0.77
308.15	0.7919	1017.57	0.79
308.15	0.8908	1020.25	0.81
308.15	0.9899	1022.86	0.84
308.15	1.484	1035.22	0.94
308.15	1.98	1046.42	1.04
308.15	2.48	1057.08	1.13
308.15	2.97	1065.82	1.21
308.15	3.46	1073.8	1.28
308.15	3.96	1081.79	1.35
308.15	4.45	1089.3	1.42
308.15	4.95	1096.3	1.48
308.15	5.45	1102.35	1.54
308.15	5.94	1108	1.59
313.15	0.0055	992.54	0.7
313.15	0.0103	992.58	0.7
313.15	0.0495	993.94	0.69
313.15	0.099	995.5	0.68
313.15	0.198	998.44	0.66
313.15	0.297	1001.4	0.66
313.15	0.3959	1004.04	0.68
313.15	0.4949	1007.13	0.7
313.15	0.594	1009.96	0.73
313.15	0.693	1012.67	0.75
313.15	0.7919	1015.32	0.77
313.15	0.8908	1017.93	0.8
313.15	0.9899	1020.55	0.82
313.15	1.484	1032.72	0.92
313.15	1.98	1043.71	1.02
313.15	2.48	1054.2	1.11
313.15	2.97	1062.76	1.18
313.15	3.46	1070.52	1.25
313.15	3.96	1078.53	1.32
313.15	4.45	1085.99	1.39
313.15	4.95	1092.89	1.45
313.15	5.45	1098.89	1.51
313.15	5.94	1104.45	1.56
318.15	0.0055	990.51	0.72
318.15	0.0103	990.6	0.72
318.15	0.0495	991.91	0.71
318.15	0.099	993.44	0.7
318.15	0.198	996.35	0.67
318.15	0.297	999.2	0.65
318.15	0.3959	1002.1	0.66
318.15	0.4949	1004.89	0.69
318.15	0.594	1007.67	0.71
318.15	0.693	1010.33	0.73
318.15	0.7919	1012.96	0.75
318.15	0.8908	1015.49	0.78
318.15	0.9899	1018.06	0.8
318.15	1.484	1030.05	0.9
318.15	1.98	1040.84	0.99
318.15	2.48	1051.19	1.08
318.15	2.97	1059.55	1.16
318.15	3.46	1067.11	1.22
318.15	3.96	1075.1	1.3
318.15	4.45	1082.66	1.36
318.15	4.95	1089.46	1.43
318.15	5.45	1095.37	1.48
318.15	5.94	1100.9	1.53
323.15	0.0055	988.35	0.74
323.15	0.0103	988.44	0.74
323.15	0.0495	989.67	0.73
323.15	0.099	991.21	0.72
323.15	0.198	994.07	0.69
323.15	0.297	996.93	0.67
323.15	0.3959	999.76	0.65
323.15	0.4949	1002.49	0.67
323.15	0.594	1005.18	0.69
323.15	0.693	1007.77	0.71
323.15	0.7919	1010.43	0.73
323.15	0.8908	1012.89	0.75
323.15	0.9899	1015.47	0.78
323.15	1.484	1027.27	0.88
323.15	1.98	1037.82	0.97
323.15	2.48	1048.07	1.06
323.15	2.97	1056.27	1.13
323.15	3.46	1063.67	1.2
323.15	3.96	1071.46	1.27
323.15	4.45	1079.23	1.34
323.15	4.95	1085.96	1.4
323.15	5.45	1091.75	1.45
323.15	5.94	1097.27	1.5
328.15	0.0055	985.99	0.76
328.15	0.0103	986.14	0.76
328.15	0.0495	987.32	0.75
328.15	0.099	988.75	0.74
328.15	0.198	991.62	0.71
328.15	0.297	994.38	0.69
328.15	0.3959	996.85	0.67
328.15	0.4949	999.91	0.65
328.15	0.594	1002.56	0.67
328.15	0.693	1005	0.69
328.15	0.7919	1007.74	0.71
328.15	0.8908	1010.17	0.73
328.15	0.9899	1012.71	0.75
328.15	1.484	1024.35	0.85
328.15	1.98	1034.76	0.94
328.15	2.48	1044.92	1.03
328.15	2.97	1052.9	1.1
328.15	3.46	1060.36	1.17
328.15	3.96	1067.71	1.24
328.15	4.45	1075.68	1.31
328.15	4.95	1082.34	1.37
328.15	5.45	1088.15	1.42
328.15	5.94	1093.51	1.47
333.15	0.0055	983.42	0.78
333.15	0.0103	983.57	0.78
333.15	0.0495	984.83	0.77
333.15	0.099	986.17	0.76
333.15	0.198	989.1	0.73
333.15	0.297	991.41	0.72
333.15	0.3959	994.17	0.69
333.15	0.4949	997.19	0.67
333.15	0.594	999.93	0.65
333.15	0.693	1002.11	0.67
333.15	0.7919	1004.91	0.69
333.15	0.8908	1007.48	0.71
333.15	0.9899	1009.78	0.73
333.15	1.484	1021.26	0.83
333.15	1.98	1031.92	0.92
333.15	2.48	1041.58	1.01
333.15	2.97	1049.54	1.08
333.15	3.46	1057.3	1.15
333.15	3.96	1063.78	3
333.15	4.45	1072.06	1.28
333.15	4.95	1078.72	1.34
333.15	5.45	1084.71	1.39
333.15	5.94	1089.69	1.44
