Measured thermophysical data. Effect of beta-alanine and the solvent composition on the solubility of solvate of calcium D-pantothenate containing four molecules of methanol and one molecule of water (D-PC*4MeOH*1H2O)
Source: J. Chem. Thermodyn., 2017, 10.1016/j.jct.2016.11.011
Compound 1: calcium D-pantothenate, C18H32CaN2O10, InChI=1S/2C9H17NO5.Ca/c2*1-9(2,5-11)7(14)8(15)10-4-3-6(12)13;/h2*7,11,14H,3-5H2,1-2H3,(H,10,15)(H,12,13);/q;;+2/p-2/t2*7-;/m00./s1, purity 99.5%
Compound 2: methanol, CH4O, InChI=1S/CH4O/c1-2/h2H,1H3, purity 99.5%
Compound 3: water, H2O, InChI=1S/H2O/h1H2

System: methanol + calcium D-pantothenate + water; phases: Liquid, Crystal of intercomponent compound 1
Fixed: Pressure, kPa = 100
Property: Mole fraction of calcium D-pantothenate (Liquid); method: Chromatography
Temperature, K	Solvent: Mole fraction of methanol	Mole fraction of calcium D-pantothenate	uncertainty
263.15	0.1	7e-05	1e-05
263.15	0.2	0.0002	2e-05
263.15	0.3	0.00036	4e-05
263.15	0.399	0.0007	7e-05
263.15	0.498	0.00119	0.00012
263.15	0.596	0.00179	0.00018
263.15	0.692	0.003	0.00031
268.15	0.1	0.00011	1e-05
268.15	0.2	0.00027	3e-05
268.15	0.3	0.00048	5e-05
268.15	0.399	0.00083	9e-05
268.15	0.498	0.00145	0.00015
268.15	0.595	0.00227	0.00024
268.15	0.69	0.00405	0.00042
273.15	0.1	0.00017	2e-05
273.15	0.2	0.00038	4e-05
273.15	0.3	0.00065	7e-05
273.15	0.399	0.0011	0.00011
273.15	0.497	0.00185	0.00019
273.15	0.594	0.00319	0.00033
273.15	0.685	0.0059	0.0006
278.15	0.1	0.00023	2e-05
278.15	0.2	0.00054	6e-05
278.15	0.3	0.00091	9e-05
278.15	0.398	0.00151	0.00016
278.15	0.496	0.00261	0.00027
278.15	0.591	0.00447	0.00047
278.15	0.68	0.00805	0.00083
283.15	0.1	0.00036	4e-05
283.15	0.2	0.00075	8e-05
283.15	0.299	0.00127	0.00013
283.15	0.398	0.0021	0.00022
283.15	0.495	0.00357	0.00038
283.15	0.588	0.00615	0.00065
283.15	0.671	0.01138	0.00118
288.15	0.1	0.00053	5e-05
288.15	0.2	0.00108	0.00011
288.15	0.299	0.00177	0.00018
288.15	0.397	0.00293	0.0003
288.15	0.492	0.00505	0.00053
288.15	0.583	0.00863	0.00092
288.15	0.659	0.01614	0.00167
293.15	0.1	0.00076	8e-05
293.15	0.2	0.00153	0.00016
293.15	0.299	0.00243	0.00025
293.15	0.396	0.00408	0.00042
293.15	0.489	0.00711	0.00075
293.15	0.575	0.01237	0.00132
293.15	0.643	0.02216	0.0023
298.15	0.101	0.0011	0.00011
298.15	0.2	0.00217	0.00022
298.15	0.298	0.00346	0.00036
298.15	0.394	0.00603	0.00063
298.15	0.485	0.01003	0.00108
298.15	0.564	0.01774	0.00194
298.15	0.62	0.03104	0.00328
303.15	0.101	0.00158	0.00016
303.15	0.2	0.003	0.00031
303.15	0.297	0.00513	0.00053
303.15	0.39	0.00957	0.00101
303.15	0.475	0.01642	0.00176
303.15	0.545	0.02663	0.00296
303.15	0.586	0.04354	0.00473
