Measured thermophysical data. Speed of sound measurements of liquid C1-C4 alkanols
Source: J. Chem. Thermodyn., 2016, 10.1016/j.jct.2015.10.006
Compound 1: methanol, CH4O, InChI=1S/CH4O/c1-2/h2H,1H3, purity 99.9%
Compound 2: ethanol, C2H6O, InChI=1S/C2H6O/c1-2-3/h3H,2H2,1H3, purity 99.9%
Compound 3: propan-1-ol, C3H8O, InChI=1S/C3H8O/c1-2-3-4/h4H,2-3H2,1H3, purity 99.9%
Compound 4: butan-1-ol, C4H10O, InChI=1S/C4H10O/c1-2-3-4-5/h5H,2-4H2,1H3, purity 99.8%

System: methanol; phases: Liquid
Fixed: Frequency, MHz = 8
Property: Speed of sound, m/s (Liquid); method: Pulse-echo method
Temperature, K	Pressure, kPa	Speed of sound, m/s	uncertainty
253.152	101	1259.391	0.682
253.151	5031	1283.569	0.692
253.151	10064	1307.272	0.702
253.151	15070	1329.88	0.712
253.152	20048	1351.494	0.721
253.152	25130	1372.789	0.73
253.152	30260	1393.514	0.739
273.152	101	1187.324	0.651
273.152	5017	1213.77	0.662
273.152	10158	1240.041	0.673
273.152	15070	1264.004	0.684
273.151	20132	1287.633	0.694
273.152	25155	1310.139	0.703
273.153	30074	1331.42	0.712
293.147	101	1119.106	0.621
293.147	5028	1147.798	0.634
293.148	10032	1175.493	0.646
293.148	15145	1202.422	0.657
293.148	20159	1227.564	0.668
293.148	25062	1251.109	0.678
293.148	30276	1275.096	0.688
313.149	101	1053.178	0.593
313.149	5046	1084.848	0.607
313.149	10127	1115.409	0.62
313.148	15085	1143.55	0.632
313.149	19989	1169.962	0.643
313.149	25090	1196.105	0.654
313.148	30009	1220.145	0.664
333.149	101	988.923	0.566
333.149	5029	1023.676	0.581
333.149	10110	1056.926	0.595
333.149	15215	1088.157	0.608
333.149	20093	1116.297	0.62
333.149	25061	1143.501	0.631
333.149	30122	1169.869	0.643
353.151	197	925.583	0.539
353.152	5097	963.758	0.556
353.151	10106	999.623	0.571
353.152	15143	1033.012	0.585
353.152	20216	1064.48	0.598
353.152	25221	1093.69	0.61
353.152	30092	1120.591	0.621

System: ethanol; phases: Liquid
Fixed: Frequency, MHz = 8
Property: Speed of sound, m/s (Liquid); method: Pulse-echo method
Temperature, K	Pressure, kPa	Speed of sound, m/s	uncertainty
253.15	101	1304.806	0.728
253.149	4988	1329.862	0.74
253.15	10126	1355.145	0.751
253.149	15056	1378.442	0.761
253.149	19988	1400.85	0.772
253.15	25051	1423.022	0.782
253.15	30366	1445.462	0.792
273.152	101	1230.416	0.694
273.152	5095	1258.487	0.707
273.152	10288	1286.113	0.72
273.152	15102	1310.574	0.731
273.152	19986	1334.356	0.741
273.152	25007	1357.867	0.752
273.152	30061	1380.605	0.762
293.149	101	1159.797	0.662
293.148	5052	1190.031	0.676
293.148	9984	1218.487	0.689
293.149	15097	1246.444	0.701
293.149	20038	1272.2	0.713
293.149	25073	1297.301	0.724
293.149	30034	1321.027	0.735
313.149	101	1091.63	0.631
313.149	5015	1124.396	0.646
313.149	10081	1155.978	0.66
313.149	15057	1185.269	0.674
313.149	20137	1213.592	0.686
313.149	25255	1240.699	0.698
313.149	30161	1265.527	0.71
333.15	101	1024.883	0.601
333.15	5287	1062.52	0.619
333.15	10309	1096.396	0.634
333.151	15132	1126.884	0.647
333.15	20140	1156.744	0.66
333.15	25071	1184.629	0.673
333.15	30117	1211.744	0.685
353.148	110	957.67	0.571
353.148	5428	1000.125	0.591
353.149	10327	1036.103	0.607
353.149	15492	1071.331	0.622
353.148	20337	1102.27	0.636
353.149	25296	1132.12	0.649
353.149	29944	1158.638	0.661

System: propan-1-ol; phases: Liquid
Fixed: Frequency, MHz = 8
Property: Speed of sound, m/s (Liquid); method: Pulse-echo method
Temperature, K	Pressure, kPa	Speed of sound, m/s	uncertainty
253.151	102	1368.034	0.695
253.15	5133	1393.016	0.704
253.15	10109	1416.633	0.713
253.15	15198	1439.865	0.722
253.15	20092	1461.442	0.73
253.151	25341	1483.73	0.739
253.15	30423	1504.606	0.746
273.152	101	1293.525	0.666
273.151	5181	1320.802	0.677
273.151	10163	1346.251	0.686
273.151	15287	1371.412	0.696
273.151	20261	1394.803	0.705
273.151	25076	1416.612	0.713
273.152	30164	1438.924	0.721
293.147	105	1222.539	0.639
293.147	5042	1251.176	0.65
293.147	10141	1279.332	0.661
293.147	15272	1306.262	0.671
293.147	20136	1330.72	0.68
293.147	25068	1354.567	0.689
293.147	30231	1378.484	0.698
313.151	108	1154.108	0.613
313.151	5139	1185.752	0.625
313.151	10136	1215.403	0.636
313.151	15128	1243.591	0.647
313.151	20151	1270.557	0.657
313.151	25136	1296.129	0.666
313.015	30237	1321.177	0.676
333.151	101	1086.768	0.587
333.152	5018	1120.458	0.6
333.151	10050	1152.816	0.612
333.152	15186	1183.885	0.624
333.152	20183	1212.543	0.635
333.152	25121	1239.487	0.645
333.152	30028	1265.042	0.655
353.149	104	1018.903	0.561
353.15	5034	1055.962	0.576
353.15	10009	1090.768	0.589
353.15	15132	1124.22	0.601
353.15	20099	1154.783	0.613
353.15	25054	1183.626	0.624
353.15	30493	1213.605	0.635

System: butan-1-ol; phases: Liquid
Fixed: Frequency, MHz = 8
Property: Speed of sound, m/s (Liquid); method: Pulse-echo method
Temperature, K	Pressure, kPa	Speed of sound, m/s	uncertainty
253.152	108	1399.203	0.727
253.151	5065	1423.053	0.736
253.151	10086	1446.233	0.745
253.15	15035	1468.319	0.753
253.151	20115	1490.177	0.761
253.151	25062	1510.75	0.769
253.151	30526	1532.696	0.777
273.152	103	1326.117	0.7
273.151	5008	1351.87	0.71
273.151	10094	1377.167	0.719
273.152	15185	1401.443	0.728
273.151	20115	1424.124	0.736
273.151	25088	1446.132	0.744
273.151	30170	1467.891	0.752
293.149	104	1256.423	0.674
293.149	5067	1284.566	0.685
293.149	10144	1311.663	0.695
293.149	15081	1336.897	0.704
293.148	20094	1361.485	0.713
293.149	25087	1384.998	0.722
293.149	30176	1408.068	0.73
313.149	100	1189.161	0.649
313.15	5050	1219.204	0.661
313.15	10082	1248.164	0.671
313.151	15167	1275.967	0.681
313.15	20187	1302.165	0.691
313.15	25473	1328.5	0.701
313.149	30162	1351.047	0.709
333.15	99	1122.893	0.625
333.151	5055	1155.491	0.638
333.152	10099	1186.761	0.649
333.152	15058	1215.841	0.659
333.151	20149	1244.214	0.67
333.151	25167	1270.825	0.679
333.151	30276	1296.753	0.689
353.148	100	1056.353	0.601
353.15	5013	1091.582	0.614
353.15	10032	1125.304	0.626
353.149	15066	1157.065	0.638
353.149	20085	1186.968	0.649
353.149	25075	1215.14	0.659
353.149	30204	1242.721	0.669
