Measured thermophysical data. VLE of the binary systems (dimethyl carbonate with 2-propanol or 2-butanol) and (diethyl carbonate with methylcyclohexane) at 101.3 kPa
Source: J. Chem. Thermodyn., 2005, 10.1016/j.jct.2004.09.009
Compound 1: diethyl carbonate, C5H10O3, InChI=1S/C5H10O3/c1-3-7-5(6)8-4-2/h3-4H2,1-2H3, purity 99.5%
Compound 2: dimethyl carbonate, C3H6O3, InChI=1S/C3H6O3/c1-5-3(4)6-2/h1-2H3, purity 99%
Compound 3: propan-2-ol, C3H8O, InChI=1S/C3H8O/c1-3(2)4/h3-4H,1-2H3, purity 99.9%
Compound 4: butan-2-ol, C4H10O, InChI=1S/C4H10O/c1-3-4(2)5/h4-5H,3H2,1-2H3, purity 99.5%
Compound 5: methylcyclohexane, C7H14, InChI=1S/C7H14/c1-7-5-3-2-4-6-7/h7H,2-6H2,1H3, purity 99%

System: diethyl carbonate; phases: Liquid, Gas
Property: Normal boiling temperature, K (Liquid); method: Ebulliometric method (Recirculating still)
Normal boiling temperature, K	uncertainty
399.32	0.02

System: diethyl carbonate; phases: Liquid
Property: Mass density, kg/m3 (Liquid); method: Vibrating tube method
Temperature, K	Pressure, kPa	Mass density, kg/m3	uncertainty
298.15	101.325	969.24	0.1

System: dimethyl carbonate; phases: Liquid, Gas
Property: Normal boiling temperature, K (Liquid); method: Ebulliometric method (Recirculating still)
Normal boiling temperature, K	uncertainty
363.46	0.03

System: dimethyl carbonate; phases: Liquid
Property: Mass density, kg/m3 (Liquid); method: Vibrating tube method
Temperature, K	Pressure, kPa	Mass density, kg/m3	uncertainty
298.15	101.325	1063.36	0.29

System: propan-2-ol; phases: Liquid, Gas
Property: Normal boiling temperature, K (Liquid); method: Ebulliometric method (Recirculating still)
Normal boiling temperature, K	uncertainty
355.61	0.02

System: propan-2-ol; phases: Liquid
Property: Mass density, kg/m3 (Liquid); method: Vibrating tube method
Temperature, K	Pressure, kPa	Mass density, kg/m3	uncertainty
298.15	101.325	780.87	0.13

System: propan-2-ol; phases: Liquid, Gas
Property: Vapor or sublimation pressure, kPa (Liquid); method: Ebulliometric method (Recirculating still)
Temperature, K	Vapor or sublimation pressure, kPa	uncertainty
345.46	66.64	0.06
347.71	73.31	0.06
349.79	79.97	0.07
351.72	86.64	0.07
353.54	93.3	0.08
354.01	95.04	0.08
355.25	99.97	0.08
355.61	101.3	0.08
356.27	103.97	0.08
356.9	106.63	0.09
358.45	113.3	0.09
359.91	119.96	0.1
361.29	126.63	0.1
362.65	133.29	0.1
363.94	139.95	0.11
365.2	146.62	0.11
366.38	153.28	0.12
367.56	159.95	0.12
368.65	166.61	0.12
369.76	173.28	0.13
371.81	186.61	0.13
372.8	193.27	0.14
373.76	199.93	0.14
374.69	206.6	0.15
375.57	213.26	0.15
376.46	219.93	0.16
377.29	226.59	0.16
378.13	233.26	0.17
378.93	239.92	0.17
379.71	246.59	0.18
380.45	253.25	0.19
381.17	259.91	0.19
381.89	266.58	0.17
382.8	273.24	0.17
383.48	279.91	0.21
384.11	286.57	0.21
384.79	293.24	0.21
385.42	299.9	0.22

System: butan-2-ol; phases: Liquid, Gas
Property: Normal boiling temperature, K (Liquid); method: Ebulliometric method (Recirculating still)
Normal boiling temperature, K	uncertainty
372.34	0.02

System: butan-2-ol; phases: Liquid
Property: Mass density, kg/m3 (Liquid); method: Vibrating tube method
Temperature, K	Pressure, kPa	Mass density, kg/m3	uncertainty
298.15	101.325	802.4	0.15

System: butan-2-ol; phases: Liquid, Gas
Property: Vapor or sublimation pressure, kPa (Liquid); method: Ebulliometric method (Recirculating still)
Temperature, K	Vapor or sublimation pressure, kPa	uncertainty
355.98	53.32	0.06
358.8	59.98	0.06
361.41	66.64	0.06
363.82	73.31	0.07
366.02	79.97	0.08
368.13	86.64	0.08
370.09	93.3	0.08
370.83	95.97	0.09
371.54	98.63	0.09
372.34	101.3	0.09
373.09	103.97	0.09
373.79	106.63	0.1
375.46	113.3	0.1
377.04	119.96	0.11
378.57	126.63	0.11
380.02	133.29	0.12
381.42	139.95	0.12
382.76	146.62	0.13
384.06	153.28	0.13
385.31	159.95	0.14
386.52	166.61	0.14
387.69	173.28	0.15
388.83	179.94	0.15
389.94	186.61	0.16
391	193.27	0.16
392.05	199.93	0.16
393.07	206.6	0.17
394.07	213.26	0.17
395.06	219.93	0.18
396.01	226.59	0.18
396.94	233.26	0.19
397.86	239.92	0.19
398.76	246.59	0.2
399.64	253.25	0.2
400.48	259.91	0.21
401.34	266.58	0.21
402.19	273.24	0.21
402.98	279.91	0.22
403.77	286.57	0.22
404.56	293.24	0.23
405.32	299.9	0.23

System: methylcyclohexane; phases: Liquid, Gas
Property: Normal boiling temperature, K (Liquid); method: Ebulliometric method (Recirculating still)
Normal boiling temperature, K	uncertainty
374.07	0.03

System: methylcyclohexane; phases: Liquid
Property: Mass density, kg/m3 (Liquid); method: Vibrating tube method
Temperature, K	Pressure, kPa	Mass density, kg/m3	uncertainty
298.15	101.325	764.98	0.24

System: methylcyclohexane; phases: Liquid, Gas
Property: Vapor or sublimation pressure, kPa (Liquid); method: Ebulliometric method (Recirculating still)
Temperature, K	Vapor or sublimation pressure, kPa	uncertainty
352.46	53.32	0.07
356.26	59.98	0.07
359.62	66.64	0.08
362.83	73.31	0.09
365.81	79.97	0.09
368.47	86.64	0.1
370.99	93.3	0.11
371.98	95.97	0.11
373.08	98.63	0.11
374.07	101.3	0.12
374.95	103.97	0.12
375.86	106.63	0.12
378.04	113.3	0.13
380.12	119.96	0.14
382.12	126.63	0.14
384.05	133.29	0.15
385.89	139.95	0.16
387.59	146.62	0.17
389.36	153.28	0.17
391.04	159.95	0.18
392.8	166.61	0.19
394.38	173.28	0.2
395.87	179.94	0.2
397.33	186.61	0.21
398.76	193.27	0.22
400.12	199.93	0.22
401.45	206.6	0.23
402.8	213.26	0.24
404.1	219.93	0.24
405.35	226.59	0.25
406.56	233.26	0.26
407.66	239.92	0.27
408.9	246.59	0.27
409.98	253.25	0.28

System: diethyl carbonate + methylcyclohexane; phases: Liquid, Gas
Fixed: Pressure, kPa = 101.3
Property: Boiling temperature at pressure P, K (Liquid); method: EBULLIO:UFactor:8
Mole fraction of methylcyclohexane	Boiling temperature at pressure P, K	uncertainty
0.0079	398.09	0.69
0.0296	396.87	0.7
0.0696	392.92	0.7
0.0963	391.1	0.69
0.1263	389.74	0.69
0.1796	387.31	0.69
0.2246	385.47	0.69
0.2532	383.5	0.69
0.2973	382.24	0.68
0.3227	381.19	0.68
0.3614	380.18	0.68
0.3958	379.44	0.68
0.4659	378.1	0.68
0.4925	377.92	0.68
0.5162	377.92	0.68
0.5523	377.13	0.68
0.6123	376.22	0.68
0.6478	376.04	0.68
0.6785	375.6	0.68
0.7122	375.38	0.68
0.7479	375.02	0.68
0.7839	374.66	0.68
0.8226	374.5	0.68
0.8635	374.21	0.68
0.9057	374.05	0.68
0.9523	373.98	0.68

System: diethyl carbonate + methylcyclohexane; phases: Gas, Liquid
Fixed: Pressure, kPa = 101.3
Property: Mole fraction of methylcyclohexane (Gas); method: Density calibration data
Mole fraction of methylcyclohexane	Mole fraction of methylcyclohexane	uncertainty
0.0079	0.0223	0.0223
0.0296	0.1002	0.0186
0.0696	0.2058	0.0161
0.0963	0.2651	0.0147
0.1263	0.3325	0.0121
0.1796	0.4123	0.0105
0.2246	0.4702	0.0099
0.2532	0.5036	0.0093
0.2973	0.5496	0.009
0.3227	0.5736	0.0088
0.3614	0.6123	0.0083
0.3958	0.6352	0.0074
0.4659	0.6712	0.0074
0.4925	0.6932	0.0078
0.5162	0.7063	0.0073
0.5523	0.7256	0.0072
0.6123	0.7569	0.0071
0.6478	0.7736	0.0073
0.6785	0.7953	0.0069
0.7122	0.8025	0.0066
0.7479	0.8186	0.0069
0.7839	0.8365	0.007
0.8226	0.8563	0.0073
0.8635	0.8879	0.0075
0.9057	0.9159	0.0075
0.9523	0.9535	0.0077

System: diethyl carbonate + methylcyclohexane; phases: Liquid
Fixed: Pressure, kPa = 101.3
Property: Mass density, kg/m3 (Liquid); method: VIBTUB:UFactor:4
Temperature, K	Mole fraction of diethyl carbonate	Mass density, kg/m3	uncertainty
293.15	0	769.3	0.74
293.15	0.0473	777.44	0.72
293.15	0.0978	786.43	0.7
293.15	0.1985	804.96	0.67
293.15	0.2968	823.73	0.63
293.15	0.3924	842.56	0.59
293.15	0.4993	864.26	0.55
293.15	0.5999	885.33	0.51
293.15	0.6985	906.48	0.47
293.15	0.7988	928.64	0.42
293.15	0.8996	951.53	0.37
293.15	0.9509	963.41	0.35
293.15	1	974.83	0.33
298.15	0	764.98	0.74
298.15	0.0473	773.05	0.73
298.15	0.0978	781.97	0.71
298.15	0.1985	800.36	0.67
298.15	0.2968	818.99	0.64
298.15	0.3924	837.7	0.6
298.15	0.4993	859.23	0.56
298.15	0.5999	880.2	0.52
298.15	0.6985	901.24	0.47
298.15	0.7988	923.28	0.43
298.15	0.8996	946.06	0.38
298.15	0.9509	957.86	0.36
298.15	1	969.24	0.33
303.15	0	760.65	0.75
303.15	0.0473	768.64	0.73
303.15	0.0978	777.5	0.72
303.15	0.1985	795.73	0.68
303.15	0.2968	814.23	0.64
303.15	0.3924	832.8	0.61
303.15	0.4993	854.18	0.57
303.15	0.5999	875.04	0.52
303.15	0.6985	895.95	0.48
303.15	0.7988	917.88	0.43
303.15	0.8996	940.54	0.39
303.15	0.9509	952.29	0.36
303.15	1	963.61	0.34
308.15	0	756.29	0.76
308.15	0.0473	764.22	0.74
308.15	0.0978	773	0.72
308.15	0.1985	791.09	0.69
308.15	0.2968	809.44	0.65
308.15	0.3924	827.88	0.62
308.15	0.4993	849.14	0.58
308.15	0.5999	869.85	0.53
308.15	0.6985	890.65	0.49
308.15	0.7988	912.46	0.44
308.15	0.8996	935.01	0.39
308.15	0.9509	946.7	0.37
308.15	1	957.96	0.35
313.15	0	751.93	0.76
313.15	0.0473	759.78	0.75
313.15	0.0978	768.48	0.73
313.15	0.1985	786.42	0.69
313.15	0.2968	804.6	0.66
313.15	0.3924	822.9	0.62
313.15	0.4993	844.04	0.58
313.15	0.5999	864.64	0.54
313.15	0.6985	885.31	0.49
313.15	0.7988	907.02	0.45
313.15	0.8996	929.44	0.4
313.15	0.9509	941.08	0.38
313.15	1	952.29	0.35

System: propan-2-ol + dimethyl carbonate; phases: Liquid, Gas
Fixed: Pressure, kPa = 101.3
Property: Boiling temperature at pressure P, K (Liquid); method: EBULLIO:UFactor:4
Mole fraction of propan-2-ol	Boiling temperature at pressure P, K	uncertainty
0.0246	361.68	0.35
0.063	360.09	0.35
0.078	359.69	0.35
0.1226	358.28	0.35
0.1582	357.07	0.35
0.2217	355.48	0.34
0.3041	354.18	0.34
0.3368	353.77	0.34
0.3553	353.67	0.34
0.3839	353.29	0.34
0.4136	353.01	0.34
0.4483	352.82	0.34
0.4782	352.72	0.34
0.5102	352.57	0.34
0.5419	352.46	0.34
0.5789	352.35	0.34
0.6086	352.28	0.34
0.6382	352.27	0.34
0.6854	352.25	0.34
0.7177	352.29	0.34
0.7507	352.36	0.34
0.7829	352.5	0.34
0.8117	352.66	0.34
0.8277	352.75	0.34
0.8478	352.93	0.34
0.8696	353.15	0.34
0.8908	353.36	0.34
0.9111	353.66	0.34
0.9352	353.96	0.34
0.9585	354.46	0.34
0.9769	354.97	0.35
0.9791	355.05	0.35

System: propan-2-ol + dimethyl carbonate; phases: Gas, Liquid
Fixed: Pressure, kPa = 101.3
Property: Mole fraction of propan-2-ol (Gas); method: Density calibration data
Mole fraction of propan-2-ol	Mole fraction of propan-2-ol	uncertainty
0.0246	0.0939	0.0126
0.063	0.1646	0.0128
0.078	0.195	0.0113
0.1226	0.2611	0.0106
0.1582	0.3118	0.0098
0.2217	0.3882	0.0086
0.3041	0.4597	0.008
0.3368	0.4844	0.0072
0.3553	0.4883	0.0072
0.3839	0.5103	0.0076
0.4136	0.5299	0.0071
0.4483	0.5459	0.0067
0.4782	0.5562	0.0067
0.5102	0.5721	0.0069
0.5419	0.5877	0.0068
0.5789	0.6051	0.007
0.6086	0.6235	0.0072
0.6382	0.6422	0.0068
0.6854	0.6622	0.0068
0.7177	0.6813	0.0074
0.7507	0.7084	0.0073
0.7829	0.7256	0.0071
0.8117	0.7458	0.0077
0.8277	0.7613	0.0086
0.8478	0.7826	0.0082
0.8696	0.8002	0.0082
0.8908	0.8223	0.0094
0.9111	0.8498	0.0096
0.9352	0.8774	0.0103
0.9585	0.9157	0.0127
0.9769	0.9556	0.0125
0.9791	0.9596	0.0125

System: butan-2-ol + dimethyl carbonate; phases: Liquid, Gas
Fixed: Pressure, kPa = 101.3
Property: Boiling temperature at pressure P, K (Liquid); method: EBULLIO:UFactor:4
Mole fraction of dimethyl carbonate	Boiling temperature at pressure P, K	uncertainty
0.032	371.33	0.35
0.0745	369.99	0.35
0.1356	368.15	0.35
0.1994	366.57	0.34
0.2022	366.55	0.34
0.2252	366.06	0.34
0.2434	365.77	0.34
0.2517	365.59	0.34
0.2795	365.14	0.34
0.2975	364.75	0.34
0.3328	364.41	0.34
0.3649	363.98	0.34
0.4066	363.59	0.34
0.4418	363.3	0.34
0.4741	363.02	0.34
0.5109	362.72	0.34
0.5357	362.7	0.34
0.5623	362.51	0.34
0.594	362.37	0.34
0.6038	362.23	0.34
0.6242	362.14	0.34
0.6474	362.09	0.34
0.6717	362.01	0.34
0.694	361.98	0.34
0.7138	361.95	0.34
0.7412	361.93	0.34
0.7693	361.95	0.34
0.8009	362.04	0.34
0.8372	362.19	0.34
0.8741	362.35	0.34
0.9158	362.6	0.34
0.9548	362.97	0.34

System: butan-2-ol + dimethyl carbonate; phases: Gas, Liquid
Fixed: Pressure, kPa = 101.3
Property: Mole fraction of dimethyl carbonate (Gas); method: Density calibration data
Mole fraction of dimethyl carbonate	Mole fraction of dimethyl carbonate	uncertainty
0.032	0.0842	0.0125
0.0745	0.1617	0.0122
0.1356	0.2677	0.0109
0.1994	0.3507	0.0062
0.2022	0.3511	0.0062
0.2252	0.3788	0.0091
0.2434	0.3966	0.0088
0.2517	0.4068	0.0084
0.2795	0.4315	0.0087
0.2975	0.4532	0.008
0.3328	0.476	0.0079
0.3649	0.5042	0.008
0.4066	0.5328	0.0077
0.4418	0.5545	0.0076
0.4741	0.5749	0.0076
0.5109	0.5973	0.0074
0.5357	0.6104	0.0075
0.5623	0.6286	0.0076
0.594	0.6473	0.0077
0.6038	0.6567	0.0079
0.6242	0.6702	0.0075
0.6474	0.6831	0.0074
0.6717	0.6978	0.0076
0.694	0.7131	0.0076
0.7138	0.7254	0.0076
0.7412	0.7449	0.0077
0.7693	0.7648	0.0078
0.8009	0.7893	0.008
0.8372	0.8193	0.0082
0.8741	0.8529	0.0085
0.9158	0.8944	0.009
0.9548	0.9413	0.0094
