Measured thermophysical data. Effect of temperature on the volumetric properties of (cyclohexanone + an aromatic hydrocarbon)
Source: J. Chem. Thermodyn., 2004, 10.1016/j.jct.2004.07.010
Compound 1: cyclohexanone, C6H10O, InChI=1S/C6H10O/c7-6-4-2-1-3-5-6/h1-5H2, purity 99.8%
Compound 2: benzene, C6H6, InChI=1S/C6H6/c1-2-4-6-5-3-1/h1-6H, purity 99.7%
Compound 3: toluene, C7H8, InChI=1S/C7H8/c1-7-5-3-2-4-6-7/h2-6H,1H3, purity 98%
Compound 4: ethylbenzene, C8H10, InChI=1S/C8H10/c1-2-8-6-4-3-5-7-8/h3-7H,2H2,1H3, purity 99%
Compound 5: styrene, C8H8, InChI=1S/C8H8/c1-2-8-6-4-3-5-7-8/h2-7H,1H2, purity 99.7%

System: cyclohexanone; phases: Liquid
Property: Refractive index (Na D-line) (Liquid); method: Standard Abbe refractometry
Temperature, K	Pressure, kPa	Refractive index (Na D-line)	uncertainty
293.15	101.325	1.4507	0.0007

System: cyclohexanone; phases: Liquid
Property: Mass density, kg/m3 (Liquid); method: Vibrating tube method
Temperature, K	Pressure, kPa	Mass density, kg/m3	uncertainty
298.15	101.325	941.7	0.11

System: benzene; phases: Liquid
Property: Refractive index (Na D-line) (Liquid); method: Standard Abbe refractometry
Temperature, K	Pressure, kPa	Refractive index (Na D-line)	uncertainty
293.15	101.325	1.5009	0.0007

System: benzene; phases: Liquid
Property: Mass density, kg/m3 (Liquid); method: VIBTUB:UFactor:4
Temperature, K	Pressure, kPa	Mass density, kg/m3	uncertainty
298.15	101.325	873.56	0.35

System: toluene; phases: Liquid
Property: Refractive index (Na D-line) (Liquid); method: Standard Abbe refractometry
Temperature, K	Pressure, kPa	Refractive index (Na D-line)	uncertainty
293.15	101.325	1.4965	0.0008

System: toluene; phases: Liquid
Property: Mass density, kg/m3 (Liquid); method: VIBTUB:UFactor:4
Temperature, K	Pressure, kPa	Mass density, kg/m3	uncertainty
298.15	101.325	862.14	0.94

System: ethylbenzene; phases: Liquid
Property: Refractive index (Na D-line) (Liquid); method: Standard Abbe refractometry
Temperature, K	Pressure, kPa	Refractive index (Na D-line)	uncertainty
293.15	101.325	1.4962	0.0008

System: ethylbenzene; phases: Liquid
Property: Mass density, kg/m3 (Liquid); method: Vibrating tube method
Temperature, K	Pressure, kPa	Mass density, kg/m3	uncertainty
298.15	101.325	862.44	0.55

System: styrene; phases: Liquid
Property: Refractive index (Na D-line) (Liquid); method: Standard Abbe refractometry
Temperature, K	Pressure, kPa	Refractive index (Na D-line)	uncertainty
293.15	101.325	1.546	0.0007

System: styrene; phases: Liquid
Property: Mass density, kg/m3 (Liquid); method: VIBTUB:UFactor:4
Temperature, K	Pressure, kPa	Mass density, kg/m3	uncertainty
298.15	101.325	901.51	0.31

System: benzene + cyclohexanone; phases: Liquid
Fixed: Pressure, kPa = 101.3
Property: Excess molar volume, m3/mol (Liquid); method: Calculated with densities of this investigation
Temperature, K	Mole fraction of benzene	Excess molar volume, m3/mol	uncertainty
298.15	0.079	-5.74e-08	7.9e-09
298.15	0.1856	-1.157e-07	8e-09
298.15	0.2569	-1.485e-07	8.1e-09
298.15	0.3695	-1.895e-07	8.2e-09
298.15	0.4589	-2.126e-07	8.2e-09
298.15	0.4965	-2.208e-07	8.3e-09
298.15	0.5201	-2.241e-07	8.3e-09
298.15	0.5623	-2.281e-07	8.3e-09
298.15	0.6589	-2.245e-07	8.3e-09
298.15	0.7001	-2.15e-07	8.2e-09
298.15	0.7258	-2.077e-07	8.2e-09
298.15	0.8003	-1.757e-07	8.2e-09
298.15	0.8665	-1.329e-07	8.1e-09
298.15	0.9214	-8.66e-08	7.9e-09
303.15	0.0786	-4.97e-08	7.9e-09
303.15	0.1754	-9.69e-08	8e-09
303.15	0.2569	-1.297e-07	8e-09
303.15	0.3598	-1.637e-07	8.1e-09
303.15	0.4372	-1.845e-07	8.2e-09
303.15	0.4556	-1.879e-07	8.2e-09
303.15	0.4859	-1.937e-07	8.2e-09
303.15	0.5263	-1.99e-07	8.2e-09
303.15	0.5896	-2.021e-07	8.2e-09
303.15	0.6258	-2.05e-07	8.2e-09
303.15	0.7589	-1.772e-07	8.2e-09
303.15	0.852	-1.317e-07	8.1e-09
303.15	0.8965	-9.92e-08	8e-09
303.15	0.9458	-5.61e-08	7.9e-09
313.15	0.0786	-4.31e-08	7.8e-09
313.15	0.1374	-6.85e-08	7.9e-09
313.15	0.2437	-1.063e-07	8e-09
313.15	0.3714	-1.421e-07	8.1e-09
313.15	0.4137	-1.532e-07	8.1e-09
313.15	0.4585	-1.635e-07	8.1e-09
313.15	0.5263	-1.753e-07	8.2e-09
313.15	0.6258	-1.806e-07	8.2e-09
313.15	0.6658	-1.792e-07	8.2e-09
313.15	0.7425	-1.641e-07	8.1e-09
313.15	0.7915	-1.485e-07	8.1e-09
313.15	0.8569	-1.151e-07	8e-09
313.15	0.9005	-8.71e-08	7.9e-09
313.15	0.9556	-4.23e-08	7.8e-09
323.15	0.0786	-3.51e-08	7.8e-09
323.15	0.1596	-6.36e-08	7.9e-09
323.15	0.2589	-9.05e-08	8e-09
323.15	0.3695	-1.207e-07	8e-09
323.15	0.3896	-1.245e-07	8e-09
323.15	0.4589	-1.389e-07	8.1e-09
323.15	0.4852	-1.428e-07	8.1e-09
323.15	0.5896	-1.565e-07	8.1e-09
323.15	0.6859	-1.552e-07	8.1e-09
323.15	0.7589	-1.407e-07	8.1e-09
323.15	0.7859	-1.329e-07	8.1e-09
323.15	0.8569	-1.032e-07	8e-09
323.15	0.8956	-8.15e-08	7.9e-09
323.15	0.9514	-4.28e-08	7.8e-09
333.15	0.0759	-2.71e-08	7.8e-09
333.15	0.1856	-5.54e-08	7.9e-09
333.15	0.2569	-7.25e-08	7.9e-09
333.15	0.3252	-8.59e-08	7.9e-09
333.15	0.3688	-9.59e-08	8e-09
333.15	0.4259	-1.068e-07	8e-09
333.15	0.4856	-1.186e-07	8e-09
333.15	0.5326	-1.263e-07	8e-09
333.15	0.6052	-1.321e-07	8.1e-09
333.15	0.6852	-1.318e-07	8.1e-09
333.15	0.7326	-1.274e-07	8e-09
333.15	0.7893	-1.164e-07	8e-09
333.15	0.8562	-9.23e-08	8e-09
333.15	0.9256	-5.41e-08	7.9e-09
343.15	0.0583	-1.58e-08	7.8e-09
343.15	0.1497	-3.43e-08	7.8e-09
343.15	0.2168	-4.51e-08	7.9e-09
343.15	0.2889	-5.92e-08	7.9e-09
343.15	0.3587	-7.02e-08	7.9e-09
343.15	0.4197	-8.25e-08	7.9e-09
343.15	0.4896	-9.46e-08	8e-09
343.15	0.5256	-1.004e-07	8e-09
343.15	0.5899	-1.071e-07	8e-09
343.15	0.6485	-1.12e-07	8e-09
343.15	0.7095	-1.103e-07	8e-09
343.15	0.7895	-9.98e-08	8e-09
343.15	0.8656	-7.63e-08	7.9e-09
343.15	0.9365	-4.03e-08	7.8e-09
353.15	0.0598	-1.21e-08	7.8e-09
353.15	0.1395	-2.12e-08	7.8e-09
353.15	0.2058	-2.83e-08	7.8e-09
353.15	0.2758	-3.66e-08	7.8e-09
353.15	0.3558	-4.76e-08	7.9e-09
353.15	0.4256	-5.94e-08	7.9e-09
353.15	0.4931	-7.02e-08	7.9e-09
353.15	0.5335	-7.61e-08	7.9e-09
353.15	0.6147	-8.51e-08	7.9e-09
353.15	0.6732	-8.84e-08	8e-09
353.15	0.7422	-8.83e-08	8e-09
353.15	0.8057	-8.02e-08	7.9e-09
353.15	0.8752	-6.03e-08	7.9e-09
353.15	0.9215	-4.22e-08	7.8e-09

System: toluene + cyclohexanone; phases: Liquid
Fixed: Pressure, kPa = 101.3
Property: Excess molar volume, m3/mol (Liquid); method: Calculated with densities of this investigation
Temperature, K	Mole fraction of toluene	Excess molar volume, m3/mol	uncertainty
298.15	0.0589	-3.51e-08	7.8e-09
298.15	0.1256	-7.1e-08	7.9e-09
298.15	0.2069	-1.071e-07	8e-09
298.15	0.2856	-1.381e-07	8.1e-09
298.15	0.3598	-1.651e-07	8.1e-09
298.15	0.4263	-1.829e-07	8.2e-09
298.15	0.4963	-1.998e-07	8.2e-09
298.15	0.5458	-2.069e-07	8.2e-09
298.15	0.6056	-2.091e-07	8.2e-09
298.15	0.6712	-2.051e-07	8.2e-09
298.15	0.7352	-1.913e-07	8.2e-09
298.15	0.8025	-1.647e-07	8.1e-09
298.15	0.8856	-1.104e-07	8e-09
298.15	0.9425	-6.35e-08	7.9e-09
303.15	0.0625	-3.18e-08	7.8e-09
303.15	0.1456	-6.71e-08	7.9e-09
303.15	0.2135	-9.39e-08	8e-09
303.15	0.2658	-1.117e-07	8e-09
303.15	0.3296	-1.328e-07	8.1e-09
303.15	0.3862	-1.481e-07	8.1e-09
303.15	0.4263	-1.592e-07	8.1e-09
303.15	0.4869	-1.729e-07	8.1e-09
303.15	0.5402	-1.805e-07	8.2e-09
303.15	0.6186	-1.863e-07	8.2e-09
303.15	0.6926	-1.803e-07	8.2e-09
303.15	0.7696	-1.602e-07	8.1e-09
303.15	0.8456	-1.263e-07	8e-09
303.15	0.9458	-5.35e-08	7.9e-09
313.15	0.0689	-2.85e-08	7.8e-09
313.15	0.1289	-5.02e-08	7.9e-09
313.15	0.1895	-6.86e-08	7.9e-09
313.15	0.2658	-9.18e-08	8e-09
313.15	0.3359	-1.121e-07	8e-09
313.15	0.3895	-1.265e-07	8e-09
313.15	0.4596	-1.419e-07	8.1e-09
313.15	0.5126	-1.524e-07	8.1e-09
313.15	0.5895	-1.605e-07	8.1e-09
313.15	0.6463	-1.622e-07	8.1e-09
313.15	0.7125	-1.561e-07	8.1e-09
313.15	0.7893	-1.363e-07	8.1e-09
313.15	0.8596	-1.059e-07	8e-09
313.15	0.9358	-5.64e-08	7.9e-09
323.15	0.0759	-2.46e-08	7.8e-09
323.15	0.1495	-4.29e-08	7.8e-09
323.15	0.1852	-5.31e-08	7.9e-09
323.15	0.2569	-7.01e-08	7.9e-09
323.15	0.3389	-9.02e-08	8e-09
323.15	0.3995	-1.043e-07	8e-09
323.15	0.4562	-1.171e-07	8e-09
323.15	0.4925	-1.233e-07	8e-09
323.15	0.5558	-1.334e-07	8.1e-09
323.15	0.6259	-1.378e-07	8.1e-09
323.15	0.7026	-1.367e-07	8.1e-09
323.15	0.7896	-1.202e-07	8e-09
323.15	0.8556	-9.51e-08	8e-09
323.15	0.9225	-5.82e-08	7.9e-09
333.15	0.0786	-1.85e-08	7.8e-09
333.15	0.1569	-3.27e-08	7.8e-09
333.15	0.2196	-4.41e-08	7.8e-09
333.15	0.2895	-5.85e-08	7.9e-09
333.15	0.3569	-7.21e-08	7.9e-09
333.15	0.4396	-8.82e-08	8e-09
333.15	0.4889	-9.81e-08	8e-09
333.15	0.5226	-1.041e-07	8e-09
333.15	0.5986	-1.136e-07	8e-09
333.15	0.6586	-1.168e-07	8e-09
333.15	0.7253	-1.135e-07	8e-09
333.15	0.8052	-9.97e-08	8e-09
333.15	0.8701	-7.68e-08	7.9e-09
333.15	0.956	-3.11e-08	7.8e-09
343.15	0.0721	-1.02e-08	7.8e-09
343.15	0.1599	-1.97e-08	7.8e-09
343.15	0.2303	-2.91e-08	7.8e-09
343.15	0.3063	-3.92e-08	7.8e-09
343.15	0.3885	-5.55e-08	7.9e-09
343.15	0.4326	-6.31e-08	7.9e-09
343.15	0.4896	-7.35e-08	7.9e-09
343.15	0.5536	-8.31e-08	7.9e-09
343.15	0.6258	-9.13e-08	8e-09
343.15	0.6859	-9.41e-08	8e-09
343.15	0.7226	-9.26e-08	8e-09
343.15	0.8069	-8.33e-08	7.9e-09
343.15	0.8562	-6.93e-08	7.9e-09
343.15	0.9229	-4.37e-08	7.8e-09
353.15	0.0857	-3.6e-09	7.8e-09
353.15	0.1748	-6.7e-09	7.8e-09
353.15	0.2489	-1.23e-08	7.8e-09
353.15	0.3065	-1.82e-08	7.8e-09
353.15	0.3569	-2.57e-08	7.8e-09
353.15	0.4185	-3.54e-08	7.8e-09
353.15	0.4852	-4.76e-08	7.9e-09
353.15	0.5263	-5.46e-08	7.9e-09
353.15	0.5965	-6.51e-08	7.9e-09
353.15	0.6756	-7.35e-08	7.9e-09
353.15	0.7519	-7.35e-08	7.9e-09
353.15	0.8077	-6.7e-08	7.9e-09
353.15	0.8788	-5.24e-08	7.9e-09
353.15	0.9551	-2.35e-08	7.8e-09

System: ethylbenzene + cyclohexanone; phases: Liquid
Fixed: Pressure, kPa = 101.3
Property: Excess molar volume, m3/mol (Liquid); method: Calculated with densities of this investigation
Temperature, K	Mole fraction of ethylbenzene	Excess molar volume, m3/mol	uncertainty
298.15	0.0596	-2.31e-08	8.2e-09
298.15	0.1589	-5.81e-08	8.2e-09
298.15	0.259	-9.39e-08	8.3e-09
298.15	0.3301	-1.163e-07	8.3e-09
298.15	0.3589	-1.263e-07	8.4e-09
298.15	0.4256	-1.445e-07	8.4e-09
298.15	0.4896	-1.604e-07	8.4e-09
298.15	0.5263	-1.656e-07	8.4e-09
298.15	0.5963	-1.738e-07	8.4e-09
298.15	0.6589	-1.724e-07	8.4e-09
298.15	0.752	-1.539e-07	8.4e-09
298.15	0.7985	-1.384e-07	8.4e-09
298.15	0.8569	-1.103e-07	8.3e-09
298.15	0.9256	-6.41e-08	8.2e-09
303.15	0.0856	-2.41e-08	8.2e-09
303.15	0.1459	-4.12e-08	8.2e-09
303.15	0.2263	-6.48e-08	8.2e-09
303.15	0.3095	-8.93e-08	8.3e-09
303.15	0.3941	-1.116e-07	8.3e-09
303.15	0.4465	-1.249e-07	8.4e-09
303.15	0.5025	-1.368e-07	8.4e-09
303.15	0.5496	-1.452e-07	8.4e-09
303.15	0.6021	-1.494e-07	8.4e-09
303.15	0.6659	-1.493e-07	8.4e-09
303.15	0.7352	-1.404e-07	8.4e-09
303.15	0.8051	-1.202e-07	8.3e-09
303.15	0.8661	-9.19e-08	8.3e-09
303.15	0.9254	-5.77e-08	8.2e-09
313.15	0.0685	-1.32e-08	8.1e-09
313.15	0.1556	-3.07e-08	8.2e-09
313.15	0.2289	-4.69e-08	8.2e-09
313.15	0.3056	-6.61e-08	8.2e-09
313.15	0.3754	-8.45e-08	8.3e-09
313.15	0.4301	-9.67e-08	8.3e-09
313.15	0.4856	-1.085e-07	8.3e-09
313.15	0.5326	-1.168e-07	8.3e-09
313.15	0.5896	-1.248e-07	8.4e-09
313.15	0.6258	-1.273e-07	8.4e-09
313.15	0.6884	-1.257e-07	8.4e-09
313.15	0.7552	-1.173e-07	8.3e-09
313.15	0.8325	-9.51e-08	8.3e-09
313.15	0.9235	-5.16e-08	8.2e-09
323.15	0.0953	-1.03e-08	8.1e-09
323.15	0.1589	-1.8e-08	8.2e-09
323.15	0.2435	-3.31e-08	8.2e-09
323.15	0.3152	-4.76e-08	8.2e-09
323.15	0.3926	-6.46e-08	8.2e-09
323.15	0.4552	-7.85e-08	8.3e-09
323.15	0.5123	-8.84e-08	8.3e-09
323.15	0.5649	-9.72e-08	8.3e-09
323.15	0.6013	-1.017e-07	8.3e-09
323.15	0.6641	-1.038e-07	8.3e-09
323.15	0.7326	-1.017e-07	8.3e-09
323.15	0.7836	-9.27e-08	8.3e-09
323.15	0.8526	-7.48e-08	8.3e-09
323.15	0.9465	-3.22e-08	8.2e-09
333.15	0.0842	-1.8e-09	8.1e-09
333.15	0.1662	-5.8e-09	8.1e-09
333.15	0.2285	-1.29e-08	8.1e-09
333.15	0.2691	-1.76e-08	8.2e-09
333.15	0.3361	-2.86e-08	8.2e-09
333.15	0.3944	-4.15e-08	8.2e-09
333.15	0.4533	-5.29e-08	8.2e-09
333.15	0.5269	-6.69e-08	8.2e-09
333.15	0.5889	-7.52e-08	8.3e-09
333.15	0.6614	-8.26e-08	8.3e-09
333.15	0.7213	-8.3e-08	8.3e-09
333.15	0.7642	-7.86e-08	8.3e-09
333.15	0.8323	-6.64e-08	8.2e-09
333.15	0.9441	-2.78e-08	8.2e-09
343.15	0.0843	6.8e-09	8.1e-09
343.15	0.1645	8.5e-09	8.1e-09
343.15	0.2536	3.2e-09	8.1e-09
343.15	0.2966	-1.3e-09	8.1e-09
343.15	0.3348	-7.5e-09	8.1e-09
343.15	0.3695	-1.29e-08	8.1e-09
343.15	0.4226	-2.19e-08	8.2e-09
343.15	0.4852	-3.36e-08	8.2e-09
343.15	0.5425	-4.42e-08	8.2e-09
343.15	0.6154	-5.58e-08	8.2e-09
343.15	0.6856	-6.17e-08	8.2e-09
343.15	0.7556	-6.15e-08	8.2e-09
343.15	0.8552	-4.91e-08	8.2e-09
343.15	0.9356	-2.65e-08	8.2e-09
353.15	0.0329	6.7e-09	8.1e-09
353.15	0.0695	1.17e-08	8.1e-09
353.15	0.1526	2.13e-08	8.2e-09
353.15	0.2231	2.25e-08	8.2e-09
353.15	0.2865	1.97e-08	8.2e-09
353.15	0.3312	1.65e-08	8.2e-09
353.15	0.4523	-3.3e-09	8.1e-09
353.15	0.4986	-1.17e-08	8.1e-09
353.15	0.5629	-2.35e-08	8.2e-09
353.15	0.6225	-3.21e-08	8.2e-09
353.15	0.6851	-4.03e-08	8.2e-09
353.15	0.7652	-4.35e-08	8.2e-09
353.15	0.8442	-3.71e-08	8.2e-09
353.15	0.9499	-1.64e-08	8.2e-09

System: styrene + cyclohexanone; phases: Liquid
Fixed: Pressure, kPa = 101.3
Property: Excess molar volume, m3/mol (Liquid); method: Calculated with densities of this investigation
Temperature, K	Mole fraction of styrene	Excess molar volume, m3/mol	uncertainty
298.15	0.0862	-5.92e-08	7.9e-09
298.15	0.1553	-9.95e-08	8e-09
298.15	0.2456	-1.431e-07	8.1e-09
298.15	0.3196	-1.756e-07	8.2e-09
298.15	0.3858	-2.001e-07	8.2e-09
298.15	0.4556	-2.224e-07	8.3e-09
298.15	0.5365	-2.404e-07	8.3e-09
298.15	0.6052	-2.453e-07	8.3e-09
298.15	0.6543	-2.405e-07	8.3e-09
298.15	0.7152	-2.283e-07	8.3e-09
298.15	0.7762	-2.033e-07	8.2e-09
298.15	0.8221	-1.748e-07	8.2e-09
298.15	0.8795	-1.303e-07	8e-09
298.15	0.9305	-8.26e-08	7.9e-09
303.15	0.0692	-4.21e-08	7.8e-09
303.15	0.1562	-8.69e-08	7.9e-09
303.15	0.2356	-1.202e-07	8e-09
303.15	0.2957	-1.444e-07	8.1e-09
303.15	0.3552	-1.662e-07	8.1e-09
303.15	0.4256	-1.905e-07	8.2e-09
303.15	0.4921	-2.061e-07	8.2e-09
303.15	0.5662	-2.191e-07	8.3e-09
303.15	0.6125	-2.203e-07	8.3e-09
303.15	0.6695	-2.163e-07	8.2e-09
303.15	0.7225	-2.06e-07	8.2e-09
303.15	0.7852	-1.802e-07	8.2e-09
303.15	0.8695	-1.289e-07	8e-09
303.15	0.9236	-8.25e-08	7.9e-09
313.15	0.076	-3.91e-08	7.8e-09
313.15	0.1581	-7.45e-08	7.9e-09
313.15	0.2169	-9.55e-08	8e-09
313.15	0.2902	-1.213e-07	8e-09
313.15	0.3652	-1.476e-07	8.1e-09
313.15	0.4026	-1.583e-07	8.1e-09
313.15	0.4852	-1.797e-07	8.2e-09
313.15	0.5215	-1.882e-07	8.2e-09
313.15	0.5698	-1.948e-07	8.2e-09
313.15	0.6259	-1.965e-07	8.2e-09
313.15	0.6951	-1.915e-07	8.2e-09
313.15	0.7256	-1.836e-07	8.2e-09
313.15	0.8852	-1.063e-07	8e-09
313.15	0.9258	-7.33e-08	7.9e-09
323.15	0.0759	-3.2e-08	7.8e-09
323.15	0.1374	-5.43e-08	7.9e-09
323.15	0.2288	-8.28e-08	7.9e-09
323.15	0.3026	-1.047e-07	8e-09
323.15	0.3695	-1.245e-07	8e-09
323.15	0.4156	-1.375e-07	8.1e-09
323.15	0.4852	-1.547e-07	8.1e-09
323.15	0.5526	-1.684e-07	8.1e-09
323.15	0.6195	-1.737e-07	8.1e-09
323.15	0.6775	-1.706e-07	8.1e-09
323.15	0.7385	-1.618e-07	8.1e-09
323.15	0.8056	-1.395e-07	8.1e-09
323.15	0.8546	-1.148e-07	8e-09
323.15	0.9358	-5.76e-08	7.9e-09
333.15	0.0676	-2.31e-08	7.8e-09
333.15	0.1454	-4.35e-08	7.8e-09
333.15	0.2295	-6.58e-08	7.9e-09
333.15	0.2923	-8.21e-08	7.9e-09
333.15	0.3585	-9.95e-08	8e-09
333.15	0.4164	-1.133e-07	8e-09
333.15	0.4689	-1.259e-07	8e-09
333.15	0.5142	-1.356e-07	8.1e-09
333.15	0.5856	-1.466e-07	8.1e-09
333.15	0.6456	-1.503e-07	8.1e-09
333.15	0.6985	-1.484e-07	8.1e-09
333.15	0.7656	-1.368e-07	8.1e-09
333.15	0.8445	-1.081e-07	8e-09
333.15	0.9389	-4.88e-08	7.9e-09
343.15	0.0803	-1.81e-08	7.8e-09
343.15	0.1556	-3.39e-08	7.8e-09
343.15	0.2363	-4.95e-08	7.9e-09
343.15	0.3155	-6.68e-08	7.9e-09
343.15	0.3856	-8.15e-08	7.9e-09
343.15	0.4256	-9.11e-08	8e-09
343.15	0.5069	-1.091e-07	8e-09
343.15	0.5896	-1.231e-07	8e-09
343.15	0.6256	-1.261e-07	8e-09
343.15	0.7012	-1.263e-07	8e-09
343.15	0.7583	-1.192e-07	8e-09
343.15	0.8065	-1.08e-07	8e-09
343.15	0.8644	-8.39e-08	7.9e-09
343.15	0.9435	-4.13e-08	7.8e-09
353.15	0.0586	-9.3e-09	7.8e-09
353.15	0.1358	-1.86e-08	7.8e-09
353.15	0.2086	-2.62e-08	7.8e-09
353.15	0.2695	-3.57e-08	7.8e-09
353.15	0.3558	-5.27e-08	7.9e-09
353.15	0.4285	-6.83e-08	7.9e-09
353.15	0.4823	-8.05e-08	7.9e-09
353.15	0.5425	-9.17e-08	8e-09
353.15	0.6026	-1.011e-07	8e-09
353.15	0.6759	-1.056e-07	8e-09
353.15	0.7426	-1.037e-07	8e-09
353.15	0.8096	-9.16e-08	8e-09
353.15	0.8513	-7.86e-08	7.9e-09
353.15	0.9245	-4.67e-08	7.9e-09
