Measured thermophysical data. Electrostriction of water and lower alcohols around ammonium nitrate - Volumetric approach
Source: J. Chem. Thermodyn., 2018, 10.1016/j.jct.2018.05.018
Compound 1: ammonium nitrate, H4N2O3, InChI=1S/NO3.H3N/c2-1(3)4;/h;1H3/q-1;/p+1, purity 99%
Compound 2: methanol, CH4O, InChI=1S/CH4O/c1-2/h2H,1H3, purity 99%
Compound 3: ethanol, C2H6O, InChI=1S/C2H6O/c1-2-3/h3H,2H2,1H3, purity 99%
Compound 4: propan-1-ol, C3H8O, InChI=1S/C3H8O/c1-2-3-4/h4H,2-3H2,1H3, purity 99%
Compound 5: water, H2O, InChI=1S/H2O/h1H2, purity 99.9%

System: methanol; phases: Liquid
Fixed: Pressure, kPa = 100
Property: Mass density, kg/m3 (Liquid); method: Vibrating tube method
Temperature, K	Mass density, kg/m3	uncertainty
293.15	791.41	1.54
298.15	786.65	1.54
303.15	781.85	1.54
308.15	776.95	1.54
313.15	771.97	1.54

System: ethanol; phases: Liquid
Fixed: Pressure, kPa = 100
Property: Mass density, kg/m3 (Liquid); method: Vibrating tube method
Temperature, K	Mass density, kg/m3	uncertainty
293.15	789.48	1.54
298.15	785.12	1.54
303.15	780.86	1.54
308.15	776.48	1.54
313.15	772.17	1.54
318.15	767.6	1.54
323.15	763.22	1.54

System: propan-1-ol; phases: Liquid
Fixed: Pressure, kPa = 100
Property: Mass density, kg/m3 (Liquid); method: Vibrating tube method
Temperature, K	Mass density, kg/m3	uncertainty
293.15	803.52	1.54
298.15	799.52	1.54
303.15	795.5	1.54
308.15	791.43	1.54
313.15	787.31	1.54
318.15	783.11	1.54
323.15	778.79	1.54

System: ammonium nitrate + water; phases: Liquid
Fixed: Pressure, kPa = 100
Property: Mass density, kg/m3 (Liquid); method: Vibrating tube method
Temperature, K	Molality, mol/kg of ammonium nitrate	Mass density, kg/m3	uncertainty
293.15	0	998.2	1.53
293.15	0.05141	999.88	1.53
293.15	0.07471	1000.6	1.5
293.15	0.09972	1001.4	1.5
293.15	0.1996	1004.6	1.5
293.15	0.3059	1008	1.5
293.15	0.3983	1010.8	1.5
293.15	0.5052	1014.1	1.5
293.15	0.6001	1017	1.5
293.15	0.7034	1020.1	1.5
293.15	0.7983	1022.9	1.5
293.15	1.248	1035.7	1.5
293.15	1.489	1042.3	1.5
293.15	1.745	1049.1	1.5
293.15	1.996	1055.6	1.5
293.15	2.249	1062	1.5
293.15	3	1080	1.5
293.15	4	1101.8	1.5
293.15	5.496	1130.7	1.5
293.15	5.987	1139.3	1.5
293.15	7.964	1170.7	1.5
293.15	8.934	1184.2	1.5
293.15	10.97	1210.1	1.5
298.15	0	997.05	1.53
298.15	0.05141	998.7	1.53
298.15	0.07471	999.44	1.53
298.15	0.09972	1000.2	1.5
298.15	0.1996	1003.4	1.5
298.15	0.3059	1006.7	1.5
298.15	0.3983	1009.5	1.5
298.15	0.5052	1012.7	1.5
298.15	0.6001	1015.5	1.5
298.15	0.7034	1018.6	1.5
298.15	0.7983	1021.3	1.5
298.15	1.248	1034	1.5
298.15	1.489	1040.5	1.5
298.15	1.745	1047.3	1.5
298.15	1.996	1053.7	1.5
298.15	2.249	1060	1.5
298.15	3	1077.7	1.5
298.15	4	1099.3	1.5
298.15	5.496	1127.8	1.5
298.15	5.987	1136.4	1.5
298.15	7.964	1167.4	1.5
298.15	8.934	1181.1	1.5
298.15	10.97	1206.6	1.5
303.15	0	995.65	1.53
303.15	0.05141	997.28	1.53
303.15	0.07471	998.01	1.53
303.15	0.09972	998.79	1.53
303.15	0.1996	1001.9	1.5
303.15	0.3059	1005.1	1.5
303.15	0.3983	1007.9	1.5
303.15	0.5052	1011.1	1.5
303.15	0.6001	1013.9	1.5
303.15	0.7034	1016.9	1.5
303.15	0.7983	1019.6	1.5
303.15	1.248	1032.2	1.5
303.15	1.489	1038.6	1.5
303.15	1.745	1045.3	1.5
303.15	1.996	1051.6	1.5
303.15	2.249	1057.9	1.5
303.15	3	1075.4	1.5
303.15	4	1096.9	1.5
303.15	5.496	1125.4	1.5
303.15	5.987	1133.8	1.5
303.15	7.964	1164.7	1.5
303.15	8.934	1178.1	1.5
303.15	10.97	1203.4	1.5
308.15	0	994.02	1.53
308.15	0.05141	995.64	1.53
308.15	0.07471	996.37	1.53
308.15	0.09972	997.13	1.53
308.15	0.1996	1000.2	1.5
308.15	0.3059	1003.4	1.5
308.15	0.3983	1006.1	1.5
308.15	0.5052	1009.3	1.5
308.15	0.6001	1012	1.5
308.15	0.7034	1015	1.5
308.15	0.7983	1017.7	1.5
308.15	1.248	1030.1	1.5
308.15	1.489	1036.4	1.5
308.15	1.745	1043	1.5
308.15	1.996	1049.3	1.5
308.15	2.249	1055.4	1.5
308.15	3	1072.7	1.5
308.15	4	1093.9	1.5
308.15	5.496	1122.2	1.5
308.15	5.987	1130.6	1.5
308.15	7.964	1161.5	1.5
308.15	8.934	1174.9	1.5
308.15	10.97	1200.3	1.5
313.15	0	992.22	1.53
313.15	0.05141	993.82	1.53
313.15	0.07471	994.53	1.53
313.15	0.09972	995.3	1.53
313.15	0.1996	998.33	1.53
313.15	0.3059	1001.5	1.5
313.15	0.3983	1004.2	1.5
313.15	0.5052	1007.4	1.5
313.15	0.6001	1010.1	1.5
313.15	0.7034	1013	1.5
313.15	0.7983	1015.7	1.5
313.15	1.248	1028	1.5
313.15	1.489	1034.2	1.5
313.15	1.745	1040.8	1.5
313.15	1.996	1047	1.5
313.15	2.249	1053.1	1.5
313.15	3	1070.3	1.5
313.15	4	1091.3	1.5
313.15	5.496	1119.3	1.5
313.15	5.987	1127.8	1.5
313.15	7.964	1158.4	1.5
313.15	8.934	1171.8	1.5
313.15	10.97	1197.5	1.5

System: ammonium nitrate + methanol; phases: Liquid
Fixed: Pressure, kPa = 100
Property: Mass density, kg/m3 (Liquid); method: Vibrating tube method
Temperature, K	Molality, mol/kg of ammonium nitrate	Mass density, kg/m3	uncertainty
293.15	0	791.41	1.55
293.15	0.01993	792.24	1.55
293.15	0.03988	793.05	1.55
293.15	0.05075	793.49	1.55
293.15	0.06084	793.9	1.55
293.15	0.07969	794.66	1.55
293.15	0.08916	795.04	1.55
293.15	0.09898	795.43	1.55
293.15	0.1492	797.42	1.55
293.15	0.1992	799.38	1.55
293.15	0.2511	801.39	1.55
293.15	0.2937	803.03	1.55
293.15	0.4025	807.16	1.55
293.15	0.4977	810.71	1.55
293.15	0.6052	814.67	1.55
293.15	0.7865	821.21	1.54
293.15	0.8957	824.97	1.54
293.15	0.9971	828.53	1.54
293.15	1.2	835.44	1.54
293.15	1.3	838.64	1.54
293.15	1.493	844.98	1.54
293.15	1.602	848.52	1.54
293.15	1.801	854.75	1.54
293.15	1.993	860.78	1.54
293.15	2.085	863.56	1.54
293.15	2.119	864.61	1.54
298.15	0	786.65	1.55
298.15	0.01993	787.49	1.55
298.15	0.03988	788.3	1.55
298.15	0.05075	788.75	1.55
298.15	0.06084	789.16	1.55
298.15	0.07969	789.92	1.55
298.15	0.08916	790.3	1.55
298.15	0.09898	790.69	1.55
298.15	0.1492	792.69	1.55
298.15	0.1992	794.65	1.55
298.15	0.2511	796.67	1.55
298.15	0.2937	798.31	1.55
298.15	0.4025	802.46	1.55
298.15	0.4977	806.03	1.55
298.15	0.6052	810.01	1.55
298.15	0.7865	816.53	1.54
298.15	0.8957	820.35	1.54
298.15	0.9971	823.92	1.54
298.15	1.2	830.85	1.54
298.15	1.3	834.18	1.54
298.15	1.493	840.52	1.54
298.15	1.602	844.09	1.54
298.15	1.801	850.41	1.54
298.15	1.993	856.47	1.54
298.15	2.085	859.31	1.54
298.15	2.119	860.34	1.54
303.15	0	781.85	1.55
303.15	0.01993	782.7	1.55
303.15	0.03988	783.52	1.55
303.15	0.05075	783.97	1.55
303.15	0.06084	784.39	1.55
303.15	0.07969	785.16	1.55
303.15	0.08916	785.54	1.55
303.15	0.09898	785.94	1.55
303.15	0.1492	787.95	1.55
303.15	0.1992	789.93	1.55
303.15	0.2511	791.97	1.55
303.15	0.2937	793.63	1.55
303.15	0.4025	797.79	1.55
303.15	0.4977	801.41	1.55
303.15	0.6052	805.45	1.55
303.15	0.7865	812.04	1.54
303.15	0.8957	815.89	1.54
303.15	0.9971	819.49	1.54
303.15	1.2	826.34	1.54
303.15	1.3	829.69	1.54
303.15	1.493	836.06	1.54
303.15	1.602	839.72	1.54
303.15	1.801	846.06	1.54
303.15	1.993	852.16	1.54
303.15	2.085	854.92	1.54
303.15	2.119	856	1.54
308.15	0	776.95	1.55
308.15	0.01993	777.8	1.55
308.15	0.03988	778.64	1.55
308.15	0.05075	779.1	1.55
308.15	0.06084	779.51	1.55
308.15	0.07969	780.29	1.55
308.15	0.08916	780.68	1.55
308.15	0.09898	781.08	1.55
308.15	0.1492	783.11	1.55
308.15	0.1992	785.11	1.55
308.15	0.2511	787.16	1.55
308.15	0.2937	788.82	1.55
308.15	0.4025	793.01	1.55
308.15	0.4977	796.65	1.55
308.15	0.6052	800.69	1.55
308.15	0.7865	807.33	1.55
308.15	0.8957	811.23	1.54
308.15	0.9971	814.86	1.54
308.15	1.2	821.81	1.54
308.15	1.3	825.19	1.54
308.15	1.493	831.63	1.54
308.15	1.602	835.29	1.54
308.15	1.801	841.61	1.54
308.15	1.993	847.76	1.54
308.15	2.085	850.56	1.54
308.15	2.119	851.58	1.54
313.15	0	771.97	1.55
313.15	0.01993	772.84	1.55
313.15	0.03988	773.7	1.55
313.15	0.05075	774.16	1.55
313.15	0.06084	774.58	1.55
313.15	0.07969	775.37	1.55
313.15	0.08916	775.77	1.55
313.15	0.09898	776.17	1.55
313.15	0.1492	778.23	1.55
313.15	0.1992	780.24	1.55
313.15	0.2511	782.32	1.55
313.15	0.2937	784.01	1.55
313.15	0.4025	788.27	1.55
313.15	0.4977	791.93	1.55
313.15	0.6052	796.02	1.55
313.15	0.7865	802.67	1.55
313.15	0.8957	806.65	1.55
313.15	0.9971	810.29	1.54
313.15	1.2	817.29	1.54
313.15	1.3	820.71	1.54
313.15	1.493	827.09	1.54
313.15	1.602	830.72	1.54
313.15	1.801	837.12	1.54
313.15	1.993	843.25	1.54
313.15	2.085	846.11	1.54
313.15	2.119	847.14	1.54

System: ammonium nitrate + ethanol; phases: Liquid
Fixed: Pressure, kPa = 100
Property: Mass density, kg/m3 (Liquid); method: Vibrating tube method
Temperature, K	Molality, mol/kg of ammonium nitrate	Mass density, kg/m3	uncertainty
293.15	0	789.48	1.55
293.15	0.015	790.08	1.55
293.15	0.01977	790.27	1.55
293.15	0.02479	790.47	1.55
293.15	0.03013	790.68	1.55
293.15	0.0348	790.87	1.55
293.15	0.03992	791.08	1.55
293.15	0.04488	791.27	1.55
293.15	0.04498	791.28	1.55
293.15	0.04993	791.47	1.55
293.15	0.05011	791.48	1.55
293.15	0.06976	792.26	1.55
293.15	0.1013	793.5	1.55
293.15	0.1697	796.14	1.55
293.15	0.2	797.28	1.55
293.15	0.2005	797.3	1.55
293.15	0.2498	799.15	1.55
293.15	0.2699	799.89	1.55
293.15	0.2993	800.96	1.55
293.15	0.3491	802.76	1.54
293.15	0.3993	804.54	1.54
293.15	0.4491	806.27	1.54
293.15	0.4992	807.99	1.54
298.15	0	785.12	1.55
298.15	0.015	785.75	1.55
298.15	0.01977	785.95	1.55
298.15	0.02479	786.16	1.55
298.15	0.03013	786.37	1.55
298.15	0.0348	786.57	1.55
298.15	0.03992	786.78	1.55
298.15	0.04488	786.98	1.55
298.15	0.04498	786.98	1.55
298.15	0.04993	787.18	1.55
298.15	0.05011	787.19	1.55
298.15	0.06976	787.98	1.55
298.15	0.1013	789.24	1.55
298.15	0.1697	791.92	1.55
298.15	0.2	793.09	1.55
298.15	0.2005	793.11	1.55
298.15	0.2498	794.98	1.55
298.15	0.2699	795.74	1.55
298.15	0.2993	796.83	1.55
298.15	0.3491	798.67	1.55
298.15	0.3993	800.49	1.54
298.15	0.4491	802.28	1.54
298.15	0.4992	804.05	1.54
303.15	0	780.86	1.55
303.15	0.015	781.49	1.55
303.15	0.01977	781.69	1.55
303.15	0.02479	781.9	1.55
303.15	0.03013	782.12	1.55
303.15	0.0348	782.32	1.55
303.15	0.03992	782.53	1.55
303.15	0.04488	782.73	1.55
303.15	0.04498	782.74	1.55
303.15	0.04993	782.94	1.54
303.15	0.05011	782.95	1.55
303.15	0.06976	783.75	1.55
303.15	0.1013	785.02	1.55
303.15	0.1697	787.72	1.55
303.15	0.2	788.89	1.55
303.15	0.2005	788.91	1.55
303.15	0.2498	790.79	1.55
303.15	0.2699	791.55	1.55
303.15	0.2993	792.65	1.55
303.15	0.3491	794.51	1.55
303.15	0.3993	796.34	1.55
303.15	0.4491	798.15	1.54
303.15	0.4992	799.94	1.54
308.15	0	776.48	1.55
308.15	0.015	777.15	1.55
308.15	0.01977	777.36	1.55
308.15	0.02479	777.57	1.55
308.15	0.03013	777.79	1.55
308.15	0.0348	777.99	1.55
308.15	0.03992	778.2	1.55
308.15	0.04488	778.41	1.55
308.15	0.04498	778.41	1.55
308.15	0.04993	778.61	1.55
308.15	0.05011	778.62	1.55
308.15	0.06976	779.43	1.55
308.15	0.1013	780.69	1.55
308.15	0.1697	783.37	1.55
308.15	0.2	784.54	1.55
308.15	0.2005	784.56	1.55
308.15	0.2498	786.42	1.55
308.15	0.2699	787.17	1.55
308.15	0.2993	788.27	1.55
308.15	0.3491	790.1	1.55
308.15	0.3993	791.92	1.55
308.15	0.4491	793.71	1.54
308.15	0.4992	795.5	1.55
313.15	0	772.17	1.55
313.15	0.015	772.74	1.55
313.15	0.01977	772.95	1.55
313.15	0.02479	773.17	1.55
313.15	0.03013	773.39	1.55
313.15	0.0348	773.59	1.55
313.15	0.03992	773.8	1.55
313.15	0.04488	774.01	1.55
313.15	0.04498	774.02	1.55
313.15	0.04993	774.22	1.55
313.15	0.05011	774.23	1.55
313.15	0.06976	775.04	1.55
313.15	0.1013	776.31	1.55
313.15	0.1697	779	1.55
313.15	0.2	780.17	1.55
313.15	0.2005	780.19	1.55
313.15	0.2498	782.05	1.55
313.15	0.2699	782.8	1.55
313.15	0.2993	783.9	1.55
313.15	0.3491	785.73	1.55
313.15	0.3993	787.55	1.55
313.15	0.4491	789.33	1.54
313.15	0.4992	791.11	1.55
318.15	0	767.6	1.55
318.15	0.015	768.28	1.55
318.15	0.01977	768.49	1.55
318.15	0.02479	768.7	1.55
318.15	0.03013	768.93	1.55
318.15	0.0348	769.13	1.55
318.15	0.03992	769.35	1.55
318.15	0.04488	769.56	1.55
318.15	0.04498	769.57	1.55
318.15	0.04993	769.78	1.54
318.15	0.05011	769.78	1.55
318.15	0.06976	770.6	1.55
318.15	0.1013	771.89	1.55
318.15	0.1697	774.61	1.55
318.15	0.2	775.79	1.55
318.15	0.2005	775.81	1.55
318.15	0.2498	777.7	1.55
318.15	0.2699	778.46	1.55
318.15	0.2993	779.56	1.55
318.15	0.3491	781.42	1.55
318.15	0.3993	783.27	1.55
318.15	0.4491	785.1	1.55
318.15	0.4992	786.91	1.54
323.15	0	763.22	1.54
323.15	0.015	763.7	1.55
323.15	0.01977	763.91	1.55
323.15	0.02479	764.13	1.55
323.15	0.03013	764.36	1.55
323.15	0.0348	764.57	1.55
323.15	0.03992	764.79	1.55
323.15	0.04488	765	1.55
323.15	0.04498	765	1.55
323.15	0.04993	765.21	1.55
323.15	0.05011	765.22	1.55
323.15	0.06976	766.05	1.55
323.15	0.1013	767.34	1.55
323.15	0.1697	770.07	1.55
323.15	0.2	771.24	1.55
323.15	0.2005	771.26	1.55
323.15	0.2498	773.15	1.55
323.15	0.2699	773.91	1.55
323.15	0.2993	775.01	1.55
323.15	0.3491	776.87	1.55
323.15	0.3993	778.72	1.55
323.15	0.4491	780.54	1.55
323.15	0.4992	782.35	1.55

System: ammonium nitrate + propan-1-ol; phases: Liquid
Fixed: Pressure, kPa = 100
Property: Mass density, kg/m3 (Liquid); method: Vibrating tube method
Temperature, K	Molality, mol/kg of ammonium nitrate	Mass density, kg/m3	uncertainty
293.15	0	803.52	1.55
293.15	0.0192	804.45	1.55
293.15	0.02	804.35	1.55
293.15	0.02497	804.55	1.54
293.15	0.02997	804.7	1.55
293.15	0.03501	804.97	1.55
293.15	0.04003	805.17	1.54
293.15	0.05027	805.47	1.55
293.15	0.06008	805.99	1.55
293.15	0.07009	806.2	1.55
293.15	0.08078	806.76	1.54
293.15	0.08984	806.89	1.55
293.15	0.1001	807.48	1.55
293.15	0.11	807.69	1.55
293.15	0.12	808.22	1.54
293.15	0.1298	808.28	1.54
293.15	0.141	808.92	1.56
298.15	0	799.52	1.55
298.15	0.0192	800.42	1.55
298.15	0.02	800.36	1.54
298.15	0.02497	800.53	1.54
298.15	0.02997	800.72	1.55
298.15	0.03501	800.92	1.55
298.15	0.04003	801.14	1.54
298.15	0.05027	801.44	1.55
298.15	0.06008	801.92	1.55
298.15	0.07009	802.2	1.55
298.15	0.08078	802.69	1.55
298.15	0.08984	802.91	1.55
298.15	0.1001	803.46	1.55
298.15	0.11	803.71	1.55
298.15	0.12	804.19	1.54
298.15	0.1298	804.31	1.54
298.15	0.141	804.91	1.55
303.15	0	795.5	1.55
303.15	0.0192	796.32	1.55
303.15	0.02	796.27	1.54
303.15	0.02497	796.43	1.54
303.15	0.02997	796.6	1.54
303.15	0.03501	796.79	1.55
303.15	0.04003	797.05	1.55
303.15	0.05027	797.36	1.55
303.15	0.06008	797.78	1.55
303.15	0.07009	798.1	1.55
303.15	0.08078	798.62	1.55
303.15	0.08984	798.82	1.55
303.15	0.1001	799.39	1.55
303.15	0.11	799.64	1.55
303.15	0.12	800.12	1.54
303.15	0.1298	800.24	1.54
303.15	0.141	800.83	1.55
308.15	0	791.43	1.55
308.15	0.0192	792.13	1.54
308.15	0.02	792.1	1.54
308.15	0.02497	792.25	1.54
308.15	0.02997	792.42	1.55
308.15	0.03501	792.62	1.55
308.15	0.04003	792.87	1.54
308.15	0.05027	793.18	1.54
308.15	0.06008	793.57	1.55
308.15	0.07009	793.92	1.55
308.15	0.08078	794.45	1.55
308.15	0.08984	794.64	1.55
308.15	0.1001	795.22	1.55
308.15	0.11	795.44	1.55
308.15	0.12	795.95	1.54
308.15	0.1298	796.08	1.54
308.15	0.141	796.67	1.55
313.15	0	787.31	1.54
313.15	0.0192	787.85	1.54
313.15	0.02	787.82	1.54
313.15	0.02497	787.98	1.54
313.15	0.02997	788.13	1.55
313.15	0.03501	788.34	1.55
313.15	0.04003	788.6	1.55
313.15	0.05027	788.92	1.54
313.15	0.06008	789.29	1.55
313.15	0.07009	789.64	1.55
313.15	0.08078	790.23	1.55
313.15	0.08984	790.36	1.55
313.15	0.1001	790.97	1.55
313.15	0.11	791.19	1.55
313.15	0.12	791.69	1.54
313.15	0.1298	791.83	1.54
313.15	0.141	792.41	1.55
318.15	0	783.11	1.54
318.15	0.0192	783.46	1.54
318.15	0.02	783.46	1.55
318.15	0.02497	783.62	1.54
318.15	0.02997	783.74	1.55
318.15	0.03501	783.99	1.55
318.15	0.04003	784.23	1.55
318.15	0.05027	784.55	1.54
318.15	0.06008	784.91	1.55
318.15	0.07009	785.28	1.55
318.15	0.08078	785.85	1.55
318.15	0.08984	786.02	1.55
318.15	0.1001	786.62	1.55
318.15	0.11	786.83	1.54
318.15	0.12	787.33	1.54
318.15	0.1298	787.47	1.54
318.15	0.141	788.06	1.55
323.15	0	778.79	1.54
323.15	0.0192	778.95	1.54
323.15	0.02	778.97	1.54
323.15	0.02497	779.11	1.54
323.15	0.02997	779.26	1.55
323.15	0.03501	779.49	1.55
323.15	0.04003	779.68	1.55
323.15	0.05027	780.06	1.55
323.15	0.06008	780.41	1.55
323.15	0.07009	780.77	1.55
323.15	0.08078	781.39	1.55
323.15	0.08984	781.5	1.55
323.15	0.1001	782.14	1.55
323.15	0.11	782.33	1.54
323.15	0.12	782.85	1.54
323.15	0.1298	782.98	1.54
323.15	0.141	783.57	1.56
