Measured thermophysical data. Thermodynamics properties of binary mixtures of aqueous solutions of glycols at several temperatures and atmospheric pressure
Source: J. Chem. Thermodyn., 2018, 10.1016/j.jct.2018.02.022
Compound 1: ethanol, C2H6O, InChI=1S/C2H6O/c1-2-3/h3H,2H2,1H3, purity 99.9%
Compound 2: 1,2-ethanediol, C2H6O2, InChI=1S/C2H6O2/c3-1-2-4/h3-4H,1-2H2, purity 99.9%
Compound 3: diethylene glycol, C4H10O3, InChI=1S/C4H10O3/c5-1-3-7-4-2-6/h5-6H,1-4H2, purity 99%
Compound 4: triethylene glycol, C6H14O4, InChI=1S/C6H14O4/c7-1-3-9-5-6-10-4-2-8/h7-8H,1-6H2, purity 99%
Compound 5: glycerol, C3H8O3, InChI=1S/C3H8O3/c4-1-3(6)2-5/h3-6H,1-2H2, purity 99.9%
Compound 6: water, H2O, InChI=1S/H2O/h1H2

System: ethanol; phases: Liquid
Fixed: Pressure, kPa = 92.3
Property: Mass density, kg/m3 (Liquid); method: Vibrating tube method
Temperature, K	Mass density, kg/m3	uncertainty
293.15	789.547	3.002
298.15	785.26	3.002
303.15	780.941	3.002
308.15	776.592	3.002

System: ethanol; phases: Liquid
Fixed: Pressure, kPa = 92.3
Fixed: Frequency, MHz = 3
Property: Speed of sound, m/s (Liquid); method: Single path-length method
Temperature, K	Speed of sound, m/s	uncertainty
293.15	1160.65	1.78
298.15	1143.5	1.78
303.15	1126.44	1.78
308.15	1109.59	1.78

System: ethanol; phases: Liquid
Fixed: Pressure, kPa = 92.3
Property: Viscosity, Pa*s (Liquid); method: Concentric cylinders viscometry
Temperature, K	Viscosity, Pa*s	uncertainty
293.15	0.0012019	0.0001684
298.15	0.0010914	0.0001529
303.15	0.00099196	0.00013902
308.15	0.00090388	0.00012669

System: 1,2-ethanediol; phases: Liquid
Fixed: Pressure, kPa = 92.3
Property: Mass density, kg/m3 (Liquid); method: Vibrating tube method
Temperature, K	Mass density, kg/m3	uncertainty
293.15	1113.725	3.001
298.15	1110.225	3.001
303.15	1106.715	3.001
308.15	1103.194	3.001

System: 1,2-ethanediol; phases: Liquid
Fixed: Pressure, kPa = 92.3
Fixed: Frequency, MHz = 3
Property: Speed of sound, m/s (Liquid); method: Single path-length method
Temperature, K	Speed of sound, m/s	uncertainty
293.15	1666.55	1.78
298.15	1654.67	1.78
303.15	1642.87	1.78
308.15	1631.23	1.78

System: 1,2-ethanediol; phases: Liquid
Fixed: Pressure, kPa = 92.3
Property: Viscosity, Pa*s (Liquid); method: Concentric cylinders viscometry
Temperature, K	Viscosity, Pa*s	uncertainty
293.15	0.020613	0.002887
298.15	0.016223	0.002272
303.15	0.013867	0.001942
308.15	0.011483	0.001608

System: diethylene glycol; phases: Liquid
Fixed: Pressure, kPa = 92.3
Property: Mass density, kg/m3 (Liquid); method: Vibrating tube method
Temperature, K	Mass density, kg/m3	uncertainty
293.15	1116.733	3.015
298.15	1113.174	3.014
303.15	1109.599	3.014
308.15	1106.013	3.014

System: diethylene glycol; phases: Liquid
Fixed: Pressure, kPa = 92.3
Fixed: Frequency, MHz = 3
Property: Speed of sound, m/s (Liquid); method: Single path-length method
Temperature, K	Speed of sound, m/s	uncertainty
293.15	1591.03	2.04
298.15	1579.13	2.04
303.15	1567.21	2.04
308.15	1555.26	2.04

System: diethylene glycol; phases: Liquid
Fixed: Pressure, kPa = 92.3
Property: Viscosity, Pa*s (Liquid); method: Concentric cylinders viscometry
Temperature, K	Viscosity, Pa*s	uncertainty
293.15	0.035893	0.00503
298.15	0.027667	0.003877
303.15	0.022478	0.00315
308.15	0.01827	0.00256

System: triethylene glycol; phases: Liquid
Fixed: Pressure, kPa = 92.3
Property: Mass density, kg/m3 (Liquid); method: Vibrating tube method
Temperature, K	Mass density, kg/m3	uncertainty
293.15	1123.477	3.015
298.15	1119.586	3.015
303.15	1115.703	3.015
308.15	1111.814	3.014

System: triethylene glycol; phases: Liquid
Fixed: Pressure, kPa = 92.3
Fixed: Frequency, MHz = 3
Property: Speed of sound, m/s (Liquid); method: Single path-length method
Temperature, K	Speed of sound, m/s	uncertainty
293.15	1626.77	2.04
298.15	1611.61	2.04
303.15	1596.57	2.04
308.15	1581.69	2.04

System: triethylene glycol; phases: Liquid
Fixed: Pressure, kPa = 92.3
Property: Viscosity, Pa*s (Liquid); method: Concentric cylinders viscometry
Temperature, K	Viscosity, Pa*s	uncertainty
293.15	0.04806	0.006735
298.15	0.036883	0.005169
303.15	0.029592	0.004147
308.15	0.023721	0.003324

System: glycerol; phases: Liquid
Fixed: Pressure, kPa = 92.3
Property: Mass density, kg/m3 (Liquid); method: Vibrating tube method
Temperature, K	Mass density, kg/m3	uncertainty
293.15	1260.734	3.006
298.15	1257.647	3.006
303.15	1254.48	3.006
308.15	1251.378	3.006

System: glycerol; phases: Liquid
Fixed: Pressure, kPa = 92.3
Fixed: Frequency, MHz = 3
Property: Speed of sound, m/s (Liquid); method: Single path-length method
Temperature, K	Speed of sound, m/s	uncertainty
293.15	1925.46	1.84
298.15	1911.91	1.84
303.15	1899.61	1.84
308.15	1888.11	1.84

System: glycerol; phases: Liquid
Fixed: Pressure, kPa = 92.3
Property: Viscosity, Pa*s (Liquid); method: Concentric cylinders viscometry
Temperature, K	Viscosity, Pa*s	uncertainty
293.15	1.4084	0.2055
298.15	0.90044	0.13012
303.15	0.59309	0.08501
308.15	0.40176	0.05721

System: water; phases: Liquid
Fixed: Pressure, kPa = 92.3
Property: Mass density, kg/m3 (Liquid); method: Vibrating tube method
Temperature, K	Mass density, kg/m3	uncertainty
293.15	998.429	3
298.15	997.267	3
303.15	995.867	3
308.15	994.252	3

System: water; phases: Liquid
Fixed: Pressure, kPa = 92.3
Fixed: Frequency, MHz = 3
Property: Speed of sound, m/s (Liquid); method: Single path-length method
Temperature, K	Speed of sound, m/s	uncertainty
293.15	1482.78	1.78
298.15	1496.99	1.78
303.15	1509.32	1.78
308.15	1519.89	1.78

System: water; phases: Liquid
Fixed: Pressure, kPa = 92.3
Property: Viscosity, Pa*s (Liquid); method: Concentric cylinders viscometry
Temperature, K	Viscosity, Pa*s	uncertainty
293.15	0.0010673	0.0001496
298.15	0.00089689	0.00012572
303.15	0.0008385	0.00011754
308.15	0.00075887	0.0001064

System: ethanol + water; phases: Liquid
Fixed: Pressure, kPa = 92.3
Property: Mass density, kg/m3 (Liquid); method: Vibrating tube method
Temperature, K	Mole fraction of ethanol	Mass density, kg/m3	uncertainty
293.15	0.0024	997.039	3.01
293.15	0.0202	989.382	3.227
293.15	0.0295	985.977	3.225
293.15	0.0366	983.574	3.224
293.15	0.0513	978.913	3.222
293.15	0.06	976.452	3.221
293.15	0.0707	973.538	3.22
293.15	0.0801	971.049	3.219
293.15	0.0904	968.313	3.218
293.15	0.0997	965.87	3.217
293.15	0.1294	957.918	3.213
293.15	0.1497	952.184	3.211
293.15	0.2008	937.088	3.205
293.15	0.2503	922.612	3.199
293.15	0.2998	908.897	3.193
293.15	0.3507	895.841	3.188
293.15	0.3992	884.433	3.183
293.15	0.4514	873.258	3.179
293.15	0.5002	863.248	3.175
293.15	0.5494	854.117	3.172
293.15	0.6018	845.002	3.168
293.15	0.6503	837.196	3.165
293.15	0.7006	829.434	3.162
293.15	0.7355	824.262	3.16
293.15	0.7965	815.831	3.157
293.15	0.8433	809.567	3.155
293.15	0.892	803.132	3.153
293.15	0.9093	800.938	3.152
293.15	0.9207	799.51	3.152
293.15	0.9307	798.225	3.151
293.15	0.9398	797.133	3.151
293.15	0.9483	796.043	3.15
293.15	0.9603	794.596	3.15
293.15	0.9702	793.374	3.149
293.15	0.9801	792.038	3.149
293.15	0.9895	791.076	3.115
298.15	0.0024	995.871	3.01
298.15	0.0202	988.159	3.226
298.15	0.0295	984.669	3.225
298.15	0.0366	982.196	3.224
298.15	0.0513	977.287	3.222
298.15	0.06	974.729	3.221
298.15	0.0707	971.631	3.219
298.15	0.0801	968.969	3.218
298.15	0.0904	966.039	3.217
298.15	0.0997	963.419	3.216
298.15	0.1294	954.963	3.212
298.15	0.1497	948.951	3.21
298.15	0.2008	933.41	3.203
298.15	0.2503	918.708	3.197
298.15	0.2998	904.858	3.191
298.15	0.3507	891.711	3.186
298.15	0.3992	880.239	3.182
298.15	0.4514	869.012	3.177
298.15	0.5002	858.963	3.173
298.15	0.5494	849.801	3.17
298.15	0.6018	840.665	3.167
298.15	0.6503	832.839	3.164
298.15	0.7006	825.07	3.161
298.15	0.7355	819.907	3.159
298.15	0.7965	811.475	3.156
298.15	0.8433	805.219	3.154
298.15	0.892	798.808	3.151
298.15	0.9093	796.615	3.151
298.15	0.9207	795.193	3.15
298.15	0.9307	793.91	3.15
298.15	0.9398	792.821	3.149
298.15	0.9483	791.735	3.149
298.15	0.9603	790.291	3.148
298.15	0.9702	789.073	3.148
298.15	0.9801	787.741	3.147
298.15	0.9895	786.779	3.114
303.15	0.0024	994.464	3.01
303.15	0.0202	986.01	3.225
303.15	0.0295	983.11	3.224
303.15	0.0366	980.577	3.223
303.15	0.0513	975.532	3.221
303.15	0.06	972.787	3.22
303.15	0.0707	969.513	3.218
303.15	0.0801	966.689	3.217
303.15	0.0904	963.577	3.216
303.15	0.0997	960.797	3.215
303.15	0.1294	951.878	3.211
303.15	0.1497	945.612	3.208
303.15	0.2008	929.658	3.202
303.15	0.2503	914.742	3.195
303.15	0.2998	900.761	3.19
303.15	0.3507	887.521	3.185
303.15	0.3992	875.988	3.18
303.15	0.4514	864.712	3.176
303.15	0.5002	854.622	3.172
303.15	0.5494	845.433	3.168
303.15	0.6018	836.274	3.165
303.15	0.6503	828.435	3.162
303.15	0.7006	820.66	3.159
303.15	0.7355	815.498	3.157
303.15	0.7965	807.074	3.154
303.15	0.8433	800.833	3.152
303.15	0.892	794.442	3.15
303.15	0.9093	792.256	3.149
303.15	0.9207	790.841	3.148
303.15	0.9307	789.562	3.148
303.15	0.9398	788.477	3.148
303.15	0.9483	787.394	3.147
303.15	0.9603	785.958	3.147
303.15	0.9702	784.743	3.146
303.15	0.9801	783.417	3.146
303.15	0.9895	782.456	3.113
308.15	0.0024	992.863	3.01
308.15	0.0202	984.706	3.225
308.15	0.0295	981.361	3.223
308.15	0.0366	978.735	3.222
308.15	0.0513	973.534	3.22
308.15	0.06	970.651	3.219
308.15	0.0707	967.196	3.217
308.15	0.0801	964.224	3.216
308.15	0.0904	960.944	3.215
308.15	0.0997	958.013	3.213
308.15	0.1294	948.682	3.209
308.15	0.1497	942.174	3.207
308.15	0.2008	925.836	3.2
308.15	0.2503	910.712	3.194
308.15	0.2998	896.603	3.188
308.15	0.3507	883.273	3.183
308.15	0.3992	871.678	3.178
308.15	0.4514	860.353	3.174
308.15	0.5002	850.223	3.17
308.15	0.5494	841.009	3.167
308.15	0.6018	831.83	3.163
308.15	0.6503	823.98	3.16
308.15	0.7006	816.2	3.158
308.15	0.7355	811.052	3.156
308.15	0.7965	802.628	3.153
308.15	0.8433	796.401	3.15
308.15	0.892	790.037	3.148
308.15	0.9093	787.861	3.147
308.15	0.9207	786.448	3.147
308.15	0.9307	785.175	3.146
308.15	0.9398	784.096	3.146
308.15	0.9483	783.019	3.146
308.15	0.9603	781.59	3.145
308.15	0.9702	780.379	3.145
308.15	0.9801	779.061	3.144
308.15	0.9895	778.103	3.111
293.15	0	998.429	3.001
298.15	0	997.267	3.001
303.15	0	995.867	3.001
308.15	0	994.252	3.001
293.15	1	789.547	3.002
298.15	1	785.26	3.002
303.15	1	780.941	3.002
308.15	1	776.592	3.002
293.15	0.0201	989.54	3.23
293.15	0.0408	982.27	3.22
293.15	0.0497	979.54	3.22
293.15	0.06	976.51	3.22
293.15	0.0796	971.24	3.22
293.15	0.1004	963.75	3.22
293.15	0.1499	951.92	3.21
293.15	0.1984	935.19	3.2
293.15	0.2499	922.7	3.2
293.15	0.3016	908.77	3.19
293.15	0.3499	896.37	3.19
293.15	0.399	884.54	3.18
293.15	0.4495	873.57	3.18
293.15	0.4989	864.28	3.18
293.15	0.5495	854.95	3.17
293.15	0.6067	844.7	3.17
293.15	0.6503	837.27	3.17
293.15	0.6956	830.42	3.16
293.15	0.75	822.4	3.16
293.15	0.7843	817.86	3.16
293.15	0.8475	809.97	3.16
293.15	0.8864	804.22	3.15
293.15	0.929	798.49	3.15
298.15	0.0201	988.31	3.23
298.15	0.0408	980.85	3.22
298.15	0.0497	977.99	3.22
298.15	0.06	974.31	3.22
298.15	0.0796	969.17	3.22
298.15	0.1004	961.4	3.21
298.15	0.1499	948.9	3.21
298.15	0.1984	931.84	3.2
298.15	0.2499	918.95	3.2
298.15	0.3016	904.86	3.19
298.15	0.3499	892.28	3.19
298.15	0.399	880.34	3.18
298.15	0.4495	869.34	3.18
298.15	0.4989	860.04	3.17
298.15	0.5495	850.72	3.17
298.15	0.6067	840.19	3.17
298.15	0.6503	832.95	3.16
298.15	0.6956	826.05	3.16
298.15	0.75	818.03	3.16
298.15	0.7843	813.49	3.16
298.15	0.8475	805.63	3.15
298.15	0.8864	799.93	3.15
298.15	0.929	794.19	3.15
303.15	0.0201	986.86	3.23
303.15	0.0408	978.54	3.22
303.15	0.0497	976.06	3.22
303.15	0.06	971.89	3.22
303.15	0.0796	966.81	3.22
303.15	0.1004	958.69	3.21
303.15	0.1499	945.56	3.21
303.15	0.1984	928.77	3.2
303.15	0.2499	915.3	3.2
303.15	0.3016	900.76	3.19
303.15	0.3499	888.09	3.18
303.15	0.399	876.09	3.18
303.15	0.4495	865.03	3.18
303.15	0.4989	855.7	3.17
303.15	0.5495	846.35	3.17
303.15	0.6067	835.6	3.16
303.15	0.6503	828.55	3.16
303.15	0.6956	821.65	3.16
303.15	0.75	813.63	3.16
303.15	0.7843	809.09	3.15
303.15	0.8475	801.24	3.15
303.15	0.8864	795.58	3.15
303.15	0.929	789.85	3.15
308.15	0.0201	985.15	3.23
308.15	0.0408	976.58	3.22
308.15	0.0497	973.32	3.22
308.15	0.06	969.36	3.22
308.15	0.0796	964.08	3.22
308.15	0.1004	955.87	3.21
308.15	0.1499	942.15	3.21
308.15	0.1984	925.04	3.2
308.15	0.2499	911.28	3.19
308.15	0.3016	896.6	3.19
308.15	0.3499	883.84	3.18
308.15	0.399	871.78	3.18
308.15	0.4495	860.66	3.17
308.15	0.4989	851.3	3.17
308.15	0.5495	841.93	3.17
308.15	0.6067	831.06	3.16
308.15	0.6503	824.09	3.16
308.15	0.6956	817.19	3.16
308.15	0.75	809.16	3.15
308.15	0.7843	804.63	3.15
308.15	0.8475	796.81	3.15
308.15	0.8864	791.17	3.15
308.15	0.929	785.46	3.15

System: ethanol + water; phases: Liquid
Fixed: Pressure, kPa = 92.3
Fixed: Frequency, MHz = 3
Property: Speed of sound, m/s (Liquid); method: Single path-length method
Temperature, K	Mole fraction of ethanol	Speed of sound, m/s	uncertainty
293.15	0.0024	1487.73	1.79
293.15	0.0202	1522.47	1.79
293.15	0.0295	1539.98	1.79
293.15	0.0366	1552.98	1.79
293.15	0.0513	1578	1.79
293.15	0.06	1590.75	1.79
293.15	0.0707	1604.25	1.79
293.15	0.0801	1613.76	1.79
293.15	0.0904	1621.49	1.79
293.15	0.0997	1625.74	1.79
293.15	0.1294	1623.76	1.79
293.15	0.1497	1611.87	1.79
293.15	0.2008	1566.56	1.79
293.15	0.2503	1520.22	1.79
293.15	0.2998	1478.23	1.79
293.15	0.3507	1440.37	1.79
293.15	0.3992	1408.88	1.79
293.15	0.4514	1379.03	1.79
293.15	0.5002	1353.45	1.79
293.15	0.5494	1330.43	1.79
293.15	0.6018	1307.82	1.79
293.15	0.6503	1288.48	1.79
293.15	0.7006	1269.09	1.79
293.15	0.7355	1255.96	1.79
293.15	0.7965	1234.14	1.79
293.15	0.8433	1217.42	1.79
293.15	0.892	1199.65	1.78
293.15	0.9093	1193.54	1.78
293.15	0.9207	1189.49	1.78
293.15	0.9307	1185.76	1.78
293.15	0.9398	1182.61	1.78
293.15	0.9483	1179.44	1.78
293.15	0.9603	1175.34	1.78
293.15	0.9702	1171.74	1.78
293.15	0.9801	1168.51	1.78
293.15	0.9895	1165.01	1.78
298.15	0.0024	1501.46	1.79
298.15	0.0202	1532.68	1.79
298.15	0.0295	1548.2	1.79
298.15	0.0366	1559.61	1.79
298.15	0.0513	1581.28	1.79
298.15	0.06	1592.07	1.79
298.15	0.0707	1603.21	1.79
298.15	0.0801	1610.7	1.79
298.15	0.0904	1616.37	1.79
298.15	0.0997	1618.97	1.79
298.15	0.1294	1613.29	1.79
298.15	0.1497	1600.11	1.79
298.15	0.2008	1553.74	1.79
298.15	0.2503	1506.97	1.79
298.15	0.2998	1464.53	1.79
298.15	0.3507	1426.17	1.79
298.15	0.3992	1394.22	1.79
298.15	0.4514	1363.91	1.79
298.15	0.5002	1337.91	1.79
298.15	0.5494	1314.51	1.79
298.15	0.6018	1291.54	1.79
298.15	0.6503	1271.85	1.79
298.15	0.7006	1252.3	1.79
298.15	0.7355	1239.1	1.79
298.15	0.7965	1217.02	1.79
298.15	0.8433	1200.22	1.79
298.15	0.892	1182.48	1.78
298.15	0.9093	1176.33	1.78
298.15	0.9207	1172.28	1.78
298.15	0.9307	1168.56	1.78
298.15	0.9398	1165.41	1.78
298.15	0.9483	1162.31	1.78
298.15	0.9603	1158.13	1.78
298.15	0.9702	1154.53	1.78
298.15	0.9801	1151.32	1.78
298.15	0.9895	1147.81	1.78
303.15	0.0024	1513.38	1.79
303.15	0.0202	1541.27	1.79
303.15	0.0295	1554.96	1.79
303.15	0.0366	1564.94	1.79
303.15	0.0513	1583.45	1.79
303.15	0.06	1592.43	1.79
303.15	0.0707	1601.37	1.79
303.15	0.0801	1607.01	1.79
303.15	0.0904	1610.77	1.79
303.15	0.0997	1611.87	1.79
303.15	0.1294	1602.74	1.79
303.15	0.1497	1588.34	1.79
303.15	0.2008	1540.81	1.79
303.15	0.2503	1493.53	1.79
303.15	0.2998	1450.63	1.79
303.15	0.3507	1411.8	1.79
303.15	0.3992	1379.42	1.79
303.15	0.4514	1348.69	1.79
303.15	0.5002	1322.3	1.79
303.15	0.5494	1298.56	1.79
303.15	0.6018	1275.24	1.79
303.15	0.6503	1255.29	1.79
303.15	0.7006	1235.5	1.79
303.15	0.7355	1222.17	1.79
303.15	0.7965	1199.89	1.79
303.15	0.8433	1183.11	1.79
303.15	0.892	1165.38	1.78
303.15	0.9093	1159.25	1.78
303.15	0.9207	1155.19	1.78
303.15	0.9307	1151.48	1.78
303.15	0.9398	1148.33	1.78
303.15	0.9483	1145.24	1.78
303.15	0.9603	1141.09	1.78
303.15	0.9702	1137.48	1.78
303.15	0.9801	1134.29	1.78
303.15	0.9895	1130.78	1.78
308.15	0.0024	1523.29	1.79
308.15	0.0202	1548.34	1.79
308.15	0.0295	1560.33	1.79
308.15	0.0366	1568.92	1.79
308.15	0.0513	1584.52	1.79
308.15	0.06	1591.83	1.79
308.15	0.0707	1598.74	1.79
308.15	0.0801	1602.67	1.79
308.15	0.0904	1604.68	1.79
308.15	0.0997	1604.39	1.79
308.15	0.1294	1592.26	1.79
308.15	0.1497	1576.55	1.79
308.15	0.2008	1527.79	1.79
308.15	0.2503	1479.96	1.79
308.15	0.2998	1436.64	1.79
308.15	0.3507	1397.33	1.79
308.15	0.3992	1364.56	1.79
308.15	0.4514	1333.43	1.79
308.15	0.5002	1306.71	1.79
308.15	0.5494	1282.65	1.79
308.15	0.6018	1259.01	1.79
308.15	0.6503	1238.82	1.79
308.15	0.7006	1218.82	1.79
308.15	0.7355	1206.33	1.79
308.15	0.7965	1183.04	1.79
308.15	0.8433	1166.12	1.79
308.15	0.892	1148.65	1.78
308.15	0.9093	1142.56	1.78
308.15	0.9207	1138.28	1.78
308.15	0.9307	1134.56	1.78
308.15	0.9398	1131.43	1.78
308.15	0.9483	1128.37	1.78
308.15	0.9603	1124.21	1.78
308.15	0.9702	1120.63	1.78
308.15	0.9801	1117.45	1.78
308.15	0.9895	1113.96	1.78
293.15	0	1482.78	1.79
298.15	0	1496.99	1.79
303.15	0	1509.32	1.79
308.15	0	1519.89	1.79
293.15	1	1160.65	1.78
298.15	1	1143.5	1.78
303.15	1	1126.44	1.78
308.15	1	1109.59	1.78

System: ethanol + water; phases: Liquid
Fixed: Pressure, kPa = 92.3
Property: Viscosity, Pa*s (Liquid); method: Concentric cylinders viscometry
Temperature, K	Mole fraction of ethanol	Viscosity, Pa*s	uncertainty
293.15	0.0201	0.0012466	0.0001747
293.15	0.0408	0.0015294	0.0002143
293.15	0.0497	0.0016484	0.0002309
293.15	0.06	0.0018209	0.0002551
293.15	0.0796	0.0020453	0.0002865
293.15	0.1004	0.0023105	0.0003236
293.15	0.1499	0.0027199	0.000381
293.15	0.1984	0.0028573	0.0004002
293.15	0.2499	0.0028641	0.0004012
293.15	0.3016	0.0027931	0.0003912
293.15	0.3499	0.0026808	0.0003755
293.15	0.399	0.0025504	0.0003572
293.15	0.4495	0.0024052	0.0003369
293.15	0.4989	0.0022906	0.0003209
293.15	0.5495	0.0021768	0.0003049
293.15	0.6067	0.0019968	0.0002797
293.15	0.6503	0.0018947	0.0002654
293.15	0.6956	0.0017878	0.0002504
293.15	0.75	0.0016797	0.0002353
293.15	0.7843	0.001612	0.0002258
293.15	0.8475	0.001518	0.0002127
293.15	0.8864	0.0014196	0.0001989
293.15	0.929	0.0013407	0.0001878
298.15	0.0201	0.001098	0.0001539
298.15	0.0408	0.0013359	0.0001872
298.15	0.0497	0.0014322	0.0002007
298.15	0.06	0.0015515	0.0002174
298.15	0.0796	0.001748	0.0002449
298.15	0.1004	0.0019469	0.0002727
298.15	0.1499	0.0022424	0.0003141
298.15	0.1984	0.0023706	0.0003321
298.15	0.2499	0.0024286	0.0003402
298.15	0.3016	0.0023393	0.0003277
298.15	0.3499	0.0022633	0.000317
298.15	0.399	0.0021697	0.0003039
298.15	0.4495	0.0020662	0.0002894
298.15	0.4989	0.0019557	0.000274
298.15	0.5495	0.0018796	0.0002633
298.15	0.6067	0.0017439	0.0002443
298.15	0.6503	0.0016588	0.0002324
298.15	0.6956	0.0015722	0.0002203
298.15	0.75	0.0014825	0.0002077
298.15	0.7843	0.00143	0.0002003
298.15	0.8475	0.0013415	0.000188
298.15	0.8864	0.0012707	0.000178
298.15	0.929	0.0012043	0.0001687
303.15	0.0201	0.0009816	0.0001376
303.15	0.0408	0.0011624	0.0001629
303.15	0.0497	0.0012233	0.0001714
303.15	0.06	0.0013232	0.0001854
303.15	0.0796	0.0014901	0.0002088
303.15	0.1004	0.0016564	0.0002321
303.15	0.1499	0.0018798	0.0002633
303.15	0.1984	0.001994	0.0002793
303.15	0.2499	0.0020483	0.0002869
303.15	0.3016	0.0019822	0.0002777
303.15	0.3499	0.0019337	0.0002709
303.15	0.399	0.0018632	0.000261
303.15	0.4495	0.0017832	0.0002498
303.15	0.4989	0.0016966	0.0002377
303.15	0.5495	0.001636	0.0002292
303.15	0.6067	0.0015285	0.0002141
303.15	0.6503	0.0014603	0.0002046
303.15	0.6956	0.0013881	0.0001945
303.15	0.75	0.0013153	0.0001843
303.15	0.7843	0.0012718	0.0001782
303.15	0.8475	0.0012012	0.0001683
303.15	0.8864	0.0011413	0.0001599
303.15	0.929	0.0010861	0.0001522
308.15	0.0201	0.0008821	0.0001236
308.15	0.0408	0.0010059	0.000141
308.15	0.0497	0.0010727	0.0001503
308.15	0.06	0.0011578	0.0001622
308.15	0.0796	0.0012843	0.00018
308.15	0.1004	0.0014296	0.0002003
308.15	0.1499	0.0015909	0.0002229
308.15	0.1984	0.0016959	0.0002376
308.15	0.2499	0.001719	0.0002408
308.15	0.3016	0.0016971	0.0002377
308.15	0.3499	0.0016639	0.0002331
308.15	0.399	0.0016169	0.0002265
308.15	0.4495	0.0015499	0.0002171
308.15	0.4989	0.0014816	0.0002076
308.15	0.5495	0.0014371	0.0002013
308.15	0.6067	0.0013466	0.0001887
308.15	0.6503	0.0012918	0.000181
308.15	0.6956	0.0012294	0.0001723
308.15	0.75	0.0011713	0.0001641
308.15	0.7843	0.0011348	0.000159
308.15	0.8475	0.0010772	0.000151
308.15	0.8864	0.0010267	0.0001439
308.15	0.929	0.0009821	0.0001376
293.15	0	0.0010673	0.0001496
298.15	0	0.00089689	0.00012572
303.15	0	0.0008385	0.00011754
308.15	0	0.00075887	0.0001064
293.15	1	0.0012019	0.0001684
298.15	1	0.0010914	0.0001529
303.15	1	0.00099196	0.00013902
308.15	1	0.00090388	0.00012669

System: 1,2-ethanediol + water; phases: Liquid
Fixed: Pressure, kPa = 92.3
Property: Mass density, kg/m3 (Liquid); method: Vibrating tube method
Temperature, K	Mole fraction of 1,2-ethanediol	Mass density, kg/m3	uncertainty
293.15	0.0101	1002.829	3.167
293.15	0.0201	1006.956	3.235
293.15	0.0302	1011.025	3.237
293.15	0.0407	1015.066	3.238
293.15	0.0506	1018.749	3.24
293.15	0.0605	1022.309	3.242
293.15	0.0704	1025.778	3.243
293.15	0.0801	1029.042	3.245
293.15	0.0905	1032.343	3.246
293.15	0.0997	1035.298	3.248
293.15	0.1493	1048.743	3.254
293.15	0.1985	1059.448	3.259
293.15	0.2487	1069.199	3.264
293.15	0.2998	1076.801	3.267
293.15	0.3318	1080.901	3.269
293.15	0.3981	1087.835	3.273
293.15	0.4521	1092.39	3.275
293.15	0.4934	1095.399	3.276
293.15	0.552	1099.003	3.278
293.15	0.5846	1100.786	3.279
293.15	0.6481	1103.654	3.28
293.15	0.6773	1104.876	3.281
293.15	0.7421	1107.157	3.282
293.15	0.7811	1108.406	3.283
293.15	0.8497	1110.31	3.284
293.15	0.9002	1111.546	3.284
293.15	0.9059	1111.665	3.284
293.15	0.912	1111.779	3.284
293.15	0.9299	1112.182	3.285
293.15	0.9413	1112.433	3.285
293.15	0.9495	1112.623	3.285
293.15	0.9546	1112.726	3.285
293.15	0.9681	1112.988	3.285
293.15	0.9789	1113.191	3.285
293.15	0.9893	1113.396	3.229
298.15	0.0101	1001.541	3.167
298.15	0.0201	1005.567	3.234
298.15	0.0302	1009.564	3.236
298.15	0.0407	1013.505	3.238
298.15	0.0506	1017.078	3.239
298.15	0.0605	1020.555	3.241
298.15	0.0704	1023.962	3.243
298.15	0.0801	1027.147	3.244
298.15	0.0905	1030.368	3.246
298.15	0.0997	1033.238	3.247
298.15	0.1493	1046.402	3.253
298.15	0.1985	1056.961	3.258
298.15	0.2487	1066.321	3.262
298.15	0.2998	1073.788	3.266
298.15	0.3318	1077.774	3.268
298.15	0.3981	1084.61	3.271
298.15	0.4521	1089.105	3.273
298.15	0.4934	1092.048	3.275
298.15	0.552	1095.614	3.277
298.15	0.5846	1097.376	3.277
298.15	0.6481	1100.225	3.279
298.15	0.6773	1101.431	3.279
298.15	0.7421	1103.692	3.28
298.15	0.7811	1104.938	3.281
298.15	0.8497	1106.827	3.282
298.15	0.9002	1108.058	3.283
298.15	0.9059	1108.174	3.283
298.15	0.912	1108.286	3.283
298.15	0.9299	1108.689	3.283
298.15	0.9413	1108.94	3.283
298.15	0.9495	1109.129	3.283
298.15	0.9546	1109.231	3.283
298.15	0.9681	1109.49	3.283
298.15	0.9789	1109.691	3.283
298.15	0.9893	1109.896	3.228
303.15	0.0101	1000.037	3.166
303.15	0.0201	1004.002	3.233
303.15	0.0302	1007.879	3.235
303.15	0.0407	1011.759	3.237
303.15	0.0506	1015.244	3.239
303.15	0.0605	1018.727	3.24
303.15	0.0704	1022.118	3.242
303.15	0.0801	1025.104	3.243
303.15	0.0905	1028.308	3.245
303.15	0.0997	1031.047	3.246
303.15	0.1493	1044.063	3.252
303.15	0.1985	1054.471	3.257
303.15	0.2487	1063.376	3.261
303.15	0.2998	1070.697	3.265
303.15	0.3318	1074.592	3.266
303.15	0.3981	1081.335	3.27
303.15	0.4521	1085.692	3.272
303.15	0.4934	1088.59	3.273
303.15	0.552	1092.191	3.275
303.15	0.5846	1093.942	3.276
303.15	0.6481	1096.768	3.277
303.15	0.6773	1097.962	3.278
303.15	0.7421	1100.208	3.279
303.15	0.7811	1101.444	3.279
303.15	0.8497	1103.327	3.28
303.15	0.9002	1104.55	3.281
303.15	0.9059	1104.669	3.281
303.15	0.912	1104.782	3.281
303.15	0.9299	1105.186	3.281
303.15	0.9413	1105.432	3.281
303.15	0.9495	1105.622	3.281
303.15	0.9546	1105.724	3.281
303.15	0.9681	1105.98	3.282
303.15	0.9789	1106.18	3.282
303.15	0.9893	1106.387	3.226
308.15	0.0101	998.43	3.166
308.15	0.0201	1002.324	3.233
308.15	0.0302	1006.129	3.234
308.15	0.0407	1009.896	3.236
308.15	0.0506	1013.359	3.238
308.15	0.0605	1016.685	3.239
308.15	0.0704	1019.918	3.241
308.15	0.0801	1022.9	3.242
308.15	0.0905	1026.046	3.244
308.15	0.0997	1028.71	3.245
308.15	0.1493	1041.45	3.251
308.15	0.1985	1051.737	3.255
308.15	0.2487	1060.371	3.26
308.15	0.2998	1067.567	3.263
308.15	0.3318	1071.384	3.265
308.15	0.3981	1077.992	3.268
308.15	0.4521	1082.37	3.27
308.15	0.4934	1085.257	3.272
308.15	0.552	1088.74	3.273
308.15	0.5846	1090.48	3.274
308.15	0.6481	1093.288	3.275
308.15	0.6773	1094.476	3.276
308.15	0.7421	1096.71	3.277
308.15	0.7811	1097.939	3.278
308.15	0.8497	1099.811	3.279
308.15	0.9002	1101.031	3.279
308.15	0.9059	1101.15	3.279
308.15	0.912	1101.26	3.279
308.15	0.9299	1101.661	3.279
308.15	0.9413	1101.909	3.28
308.15	0.9495	1102.102	3.28
308.15	0.9546	1102.203	3.28
308.15	0.9681	1102.459	3.28
308.15	0.9789	1102.654	3.28
308.15	0.9893	1102.859	3.225
293.15	0	998.429	3.001
298.15	0	997.267	3.001
303.15	0	995.867	3.001
308.15	0	994.252	3.001
293.15	1	1113.725	3.001
298.15	1	1110.225	3.001
303.15	1	1106.715	3.001
308.15	1	1103.194	3.001
293.15	0.0494	1018.402	3.24
293.15	0.0986	1034.8	3.248
293.15	0.1483	1048.464	3.254
293.15	0.2072	1061.508	3.26
293.15	0.2466	1068.682	3.264
293.15	0.298	1076.499	3.267
293.15	0.3399	1081.798	3.27
293.15	0.3921	1087.306	3.273
293.15	0.4446	1091.877	3.275
293.15	0.5007	1095.914	3.277
293.15	0.5485	1098.81	3.278
293.15	0.6004	1101.51	3.279
293.15	0.6451	1103.534	3.28
293.15	0.7012	1105.75	3.282
293.15	0.7435	1107.221	3.282
293.15	0.7907	1108.688	3.283
293.15	0.8505	1110.325	3.284
293.15	0.89	1111.29	3.284
293.15	0.9532	1112.691	3.285
298.15	0.0494	1016.76	3.239
298.15	0.0986	1032.776	3.247
298.15	0.1483	1046.118	3.253
298.15	0.2072	1058.856	3.259
298.15	0.2466	1065.864	3.262
298.15	0.298	1073.506	3.266
298.15	0.3399	1078.691	3.268
298.15	0.3921	1084.091	3.271
298.15	0.4446	1088.582	3.273
298.15	0.5007	1092.559	3.275
298.15	0.5485	1095.419	3.276
298.15	0.6004	1098.092	3.278
298.15	0.6451	1100.099	3.279
298.15	0.7012	1102.3	3.28
298.15	0.7435	1103.762	3.281
298.15	0.7907	1105.219	3.281
298.15	0.8505	1106.844	3.282
298.15	0.89	1107.803	3.283
298.15	0.9532	1109.194	3.283
303.15	0.0494	1014.981	3.238
303.15	0.0986	1030.679	3.246
303.15	0.1483	1043.727	3.252
303.15	0.2072	1056.162	3.258
303.15	0.2466	1062.997	3.261
303.15	0.298	1070.452	3.264
303.15	0.3399	1075.516	3.267
303.15	0.3921	1080.799	3.269
303.15	0.4446	1085.21	3.271
303.15	0.5007	1089.132	3.273
303.15	0.5485	1091.967	3.275
303.15	0.6004	1094.627	3.276
303.15	0.6451	1096.629	3.277
303.15	0.7012	1098.828	3.278
303.15	0.7435	1100.287	3.279
303.15	0.7907	1101.739	3.28
303.15	0.8505	1103.353	3.28
303.15	0.89	1104.302	3.281
303.15	0.9532	1105.684	3.281
308.15	0.0494	1013.023	3.238
308.15	0.0986	1028.374	3.245
308.15	0.1483	1041.14	3.251
308.15	0.2072	1053.317	3.256
308.15	0.2466	1060.017	3.259
308.15	0.298	1067.333	3.263
308.15	0.3399	1072.309	3.265
308.15	0.3921	1077.509	3.268
308.15	0.4446	1081.857	3.27
308.15	0.5007	1085.732	3.272
308.15	0.5485	1088.537	3.273
308.15	0.6004	1091.172	3.274
308.15	0.6451	1093.158	3.275
308.15	0.7012	1095.34	3.276
308.15	0.7435	1096.789	3.277
308.15	0.7907	1098.231	3.278
308.15	0.8505	1099.835	3.279
308.15	0.89	1100.78	3.279
308.15	0.9532	1102.16	3.28

System: 1,2-ethanediol + water; phases: Liquid
Fixed: Pressure, kPa = 92.3
Fixed: Frequency, MHz = 3
Property: Speed of sound, m/s (Liquid); method: Single path-length method
Temperature, K	Mole fraction of 1,2-ethanediol	Speed of sound, m/s	uncertainty
293.15	0.0101	1498.93	1.79
293.15	0.0201	1514.6	1.79
293.15	0.0302	1529.67	1.79
293.15	0.0407	1544.58	1.79
293.15	0.0506	1558.08	1.79
293.15	0.0605	1570.84	1.79
293.15	0.0704	1583.2	1.79
293.15	0.0801	1594.04	1.79
293.15	0.0905	1605.57	1.79
293.15	0.0997	1614.83	1.79
293.15	0.1493	1656.21	1.79
293.15	0.1985	1684.47	1.79
293.15	0.2487	1702.1	1.79
293.15	0.2998	1712.9	1.79
293.15	0.3318	1716.56	1.79
293.15	0.3981	1719.42	1.79
293.15	0.4521	1718.62	1.79
293.15	0.4934	1716.07	1.79
293.15	0.552	1711.48	1.79
293.15	0.5846	1708.34	1.79
293.15	0.6481	1702.12	1.79
293.15	0.6773	1698.98	1.79
293.15	0.7421	1692.21	1.79
293.15	0.7811	1688.03	1.79
293.15	0.8497	1680.95	1.79
293.15	0.9002	1675.96	1.78
293.15	0.9059	1675.47	1.78
293.15	0.912	1675	1.78
293.15	0.9299	1673.27	1.78
293.15	0.9413	1672.18	1.78
293.15	0.9495	1671.36	1.78
293.15	0.9546	1671	1.78
293.15	0.9681	1669.88	1.78
293.15	0.9789	1668.97	1.78
293.15	0.9893	1667.93	1.78
298.15	0.0101	1511.93	1.79
298.15	0.0201	1526.27	1.79
298.15	0.0302	1540.19	1.79
298.15	0.0407	1553.85	1.79
298.15	0.0506	1566.21	1.79
298.15	0.0605	1577.87	1.79
298.15	0.0704	1589.19	1.79
298.15	0.0801	1599.04	1.79
298.15	0.0905	1609.57	1.79
298.15	0.0997	1617.97	1.79
298.15	0.1493	1655.52	1.79
298.15	0.1985	1680.95	1.79
298.15	0.2487	1696.52	1.79
298.15	0.2998	1705.75	1.79
298.15	0.3318	1708.69	1.79
298.15	0.3981	1710.37	1.79
298.15	0.4521	1708.84	1.79
298.15	0.4934	1705.92	1.79
298.15	0.552	1700.89	1.79
298.15	0.5846	1697.57	1.79
298.15	0.6481	1691.05	1.79
298.15	0.6773	1687.79	1.79
298.15	0.7421	1680.83	1.79
298.15	0.7811	1676.54	1.79
298.15	0.8497	1669.34	1.79
298.15	0.9002	1664.26	1.78
298.15	0.9059	1663.75	1.78
298.15	0.912	1663.28	1.78
298.15	0.9299	1661.53	1.78
298.15	0.9413	1660.42	1.78
298.15	0.9495	1659.59	1.78
298.15	0.9546	1659.22	1.78
298.15	0.9681	1658.08	1.78
298.15	0.9789	1657.17	1.78
298.15	0.9893	1656.1	1.78
303.15	0.0101	1523.14	1.79
303.15	0.0201	1536.35	1.79
303.15	0.0302	1549.13	1.79
303.15	0.0407	1561.66	1.79
303.15	0.0506	1572.97	1.79
303.15	0.0605	1583.61	1.79
303.15	0.0704	1593.95	1.79
303.15	0.0801	1602.94	1.79
303.15	0.0905	1612.5	1.79
303.15	0.0997	1620.16	1.79
303.15	0.1493	1654.1	1.79
303.15	0.1985	1676.89	1.79
303.15	0.2487	1690.54	1.79
303.15	0.2998	1698.29	1.79
303.15	0.3318	1700.53	1.79
303.15	0.3981	1701.11	1.79
303.15	0.4521	1698.89	1.79
303.15	0.4934	1695.65	1.79
303.15	0.552	1690.21	1.79
303.15	0.5846	1686.72	1.79
303.15	0.6481	1679.92	1.79
303.15	0.6773	1676.57	1.79
303.15	0.7421	1669.44	1.79
303.15	0.7811	1665.05	1.79
303.15	0.8497	1657.73	1.79
303.15	0.9002	1652.57	1.78
303.15	0.9059	1652.06	1.78
303.15	0.912	1651.59	1.78
303.15	0.9299	1649.81	1.78
303.15	0.9413	1648.69	1.78
303.15	0.9495	1647.83	1.78
303.15	0.9546	1647.47	1.78
303.15	0.9681	1646.31	1.78
303.15	0.9789	1645.38	1.78
303.15	0.9893	1644.3	1.78
308.15	0.0101	1532.65	1.79
308.15	0.0201	1544.82	1.79
308.15	0.0302	1556.58	1.79
308.15	0.0407	1568.06	1.79
308.15	0.0506	1578.41	1.79
308.15	0.0605	1588.01	1.79
308.15	0.0704	1597.42	1.79
308.15	0.0801	1605.68	1.79
308.15	0.0905	1614.35	1.79
308.15	0.0997	1621.33	1.79
308.15	0.1493	1652.02	1.79
308.15	0.1985	1672.24	1.79
308.15	0.2487	1684.15	1.79
308.15	0.2998	1690.59	1.79
308.15	0.3318	1692.18	1.79
308.15	0.3981	1691.66	1.79
308.15	0.4521	1688.77	1.79
308.15	0.4934	1685.25	1.79
308.15	0.552	1679.44	1.79
308.15	0.5846	1675.82	1.79
308.15	0.6481	1668.78	1.79
308.15	0.6773	1665.33	1.79
308.15	0.7421	1658.04	1.79
308.15	0.7811	1653.58	1.79
308.15	0.8497	1646.14	1.79
308.15	0.9002	1640.91	1.78
308.15	0.9059	1640.42	1.78
308.15	0.912	1639.92	1.78
308.15	0.9299	1638.12	1.78
308.15	0.9413	1636.98	1.78
308.15	0.9495	1636.12	1.78
308.15	0.9546	1635.76	1.78
308.15	0.9681	1634.58	1.78
308.15	0.9789	1633.64	1.78
308.15	0.9893	1632.55	1.78
293.15	0	1482.78	1.79
298.15	0	1496.99	1.79
303.15	0	1509.32	1.79
308.15	0	1519.89	1.79
293.15	1	1666.55	1.78
298.15	1	1654.67	1.78
303.15	1	1642.87	1.78
308.15	1	1631.23	1.78

System: 1,2-ethanediol + water; phases: Liquid
Fixed: Pressure, kPa = 92.3
Property: Viscosity, Pa*s (Liquid); method: Concentric cylinders viscometry
Temperature, K	Mole fraction of 1,2-ethanediol	Viscosity, Pa*s	uncertainty
293.15	0.0494	0.0015411	0.0002159
293.15	0.0986	0.0020779	0.0002911
293.15	0.1483	0.0026988	0.000378
293.15	0.2072	0.0035171	0.0004926
293.15	0.2466	0.0041037	0.0005748
293.15	0.298	0.0049398	0.0006918
293.15	0.3399	0.0056626	0.0007931
293.15	0.3921	0.0066208	0.0009273
293.15	0.4446	0.0076382	0.0010697
293.15	0.5007	0.0087819	0.0012299
293.15	0.5485	0.0098101	0.0013739
293.15	0.6004	0.010949	0.001533
293.15	0.6451	0.011971	0.001677
293.15	0.7012	0.013332	0.001867
293.15	0.7435	0.014346	0.002009
293.15	0.7907	0.015515	0.002173
293.15	0.8505	0.016943	0.002373
293.15	0.89	0.017914	0.002509
293.15	0.9532	0.01948	0.002728
298.15	0.0494	0.0012528	0.0001755
298.15	0.0986	0.0016802	0.0002354
298.15	0.1483	0.0021667	0.0003035
298.15	0.2072	0.0028109	0.0003937
298.15	0.2466	0.0032759	0.0004588
298.15	0.298	0.0039358	0.0005512
298.15	0.3399	0.0045071	0.0006312
298.15	0.3921	0.0052608	0.0007368
298.15	0.4446	0.0060624	0.000849
298.15	0.5007	0.0069593	0.0009747
298.15	0.5485	0.0077637	0.0010873
298.15	0.6004	0.0086621	0.0012131
298.15	0.6451	0.009461	0.001325
298.15	0.7012	0.010549	0.001477
298.15	0.7435	0.011324	0.001586
298.15	0.7907	0.012236	0.001714
298.15	0.8505	0.013347	0.001869
298.15	0.89	0.014115	0.001977
298.15	0.9532	0.015353	0.00215
303.15	0.0494	0.0011644	0.0001632
303.15	0.0986	0.001555	0.0002179
303.15	0.1483	0.0019899	0.0002787
303.15	0.2072	0.0025643	0.0003592
303.15	0.2466	0.0029649	0.0004153
303.15	0.298	0.0035412	0.000496
303.15	0.3399	0.0040293	0.0005643
303.15	0.3921	0.0046704	0.0006541
303.15	0.4446	0.0053492	0.0007492
303.15	0.5007	0.0061085	0.0008555
303.15	0.5485	0.0067709	0.0009483
303.15	0.6004	0.0075185	0.001053
303.15	0.6451	0.0081729	0.0011446
303.15	0.7012	0.0090846	0.0012723
303.15	0.7435	0.0098077	0.0013736
303.15	0.7907	0.010548	0.001477
303.15	0.8505	0.011535	0.001615
303.15	0.89	0.012146	0.001701
303.15	0.9532	0.013124	0.001838
308.15	0.0494	0.0010591	0.0001484
308.15	0.0986	0.0013803	0.0001934
308.15	0.1483	0.0017411	0.0002439
308.15	0.2072	0.0022259	0.0003118
308.15	0.2466	0.0025722	0.0003603
308.15	0.298	0.0030662	0.0004295
308.15	0.3399	0.0034801	0.0004874
308.15	0.3921	0.0040265	0.0005639
308.15	0.4446	0.0046048	0.0006449
308.15	0.5007	0.0052448	0.0007345
308.15	0.5485	0.0058106	0.0008138
308.15	0.6004	0.0064446	0.0009026
308.15	0.6451	0.0070015	0.0009806
308.15	0.7012	0.0077251	0.0010819
308.15	0.7435	0.0082696	0.0011581
308.15	0.7907	0.0088575	0.0012405
308.15	0.8505	0.0096172	0.0013469
308.15	0.89	0.010112	0.001416
308.15	0.9532	0.010888	0.001525
293.15	0	0.0010673	0.0001496
298.15	0	0.00089689	0.00012572
303.15	0	0.0008385	0.00011754
308.15	0	0.00075887	0.0001064
293.15	1	0.020613	0.002887
298.15	1	0.016223	0.002272
303.15	1	0.013867	0.001942
308.15	1	0.011483	0.001608

System: diethylene glycol + water; phases: Liquid
Fixed: Pressure, kPa = 92.3
Property: Mass density, kg/m3 (Liquid); method: Vibrating tube method
Temperature, K	Mole fraction of diethylene glycol	Mass density, kg/m3	uncertainty
293.15	0.0097	1006.17	3.155
293.15	0.0201	1013.774	3.238
293.15	0.0297	1020.398	3.241
293.15	0.0397	1026.981	3.244
293.15	0.0502	1033.245	3.247
293.15	0.0591	1038.24	3.249
293.15	0.0703	1044.159	3.252
293.15	0.0796	1048.669	3.254
293.15	0.0897	1053.152	3.256
293.15	0.1004	1057.714	3.258
293.15	0.1507	1074.468	3.267
293.15	0.1996	1085.68	3.272
293.15	0.2467	1093.589	3.276
293.15	0.2943	1098.855	3.279
293.15	0.3511	1103.727	3.282
293.15	0.3995	1106.647	3.284
293.15	0.4527	1109.078	3.285
293.15	0.5008	1110.756	3.287
293.15	0.5449	1111.946	3.288
293.15	0.5834	1112.812	3.288
293.15	0.6482	1113.95	3.29
293.15	0.6982	1114.602	3.291
293.15	0.7444	1115.11	3.292
293.15	0.7962	1115.574	3.293
293.15	0.8401	1115.893	3.294
293.15	0.8947	1116.234	3.296
293.15	0.9092	1116.317	3.296
293.15	0.919	1116.369	3.297
293.15	0.9303	1116.392	3.297
293.15	0.9393	1116.4	3.297
293.15	0.9473	1116.498	3.298
293.15	0.9566	1116.546	3.298
293.15	0.9694	1116.601	3.298
293.15	0.9801	1116.648	3.299
293.15	0.9915	1116.69	3.161
298.15	0.0097	1004.885	3.155
298.15	0.0201	1012.33	3.237
298.15	0.0297	1018.801	3.24
298.15	0.0397	1025.226	3.243
298.15	0.0502	1031.33	3.246
298.15	0.0591	1036.189	3.248
298.15	0.0703	1041.951	3.251
298.15	0.0796	1046.341	3.253
298.15	0.0897	1050.705	3.255
298.15	0.1004	1055.142	3.257
298.15	0.1507	1071.485	3.265
298.15	0.1996	1082.45	3.271
298.15	0.2467	1090.206	3.275
298.15	0.2943	1095.375	3.277
298.15	0.3511	1100.191	3.28
298.15	0.3995	1103.051	3.282
298.15	0.4527	1105.496	3.283
298.15	0.5008	1107.171	3.285
298.15	0.5449	1108.361	3.286
298.15	0.5834	1109.228	3.287
298.15	0.6482	1110.368	3.288
298.15	0.6982	1111.024	3.289
298.15	0.7444	1111.536	3.29
298.15	0.7962	1112.005	3.291
298.15	0.8401	1112.329	3.293
298.15	0.8947	1112.673	3.294
298.15	0.9092	1112.755	3.294
298.15	0.919	1112.81	3.295
298.15	0.9303	1112.845	3.295
298.15	0.9393	1112.85	3.295
298.15	0.9473	1112.94	3.296
298.15	0.9566	1112.989	3.296
298.15	0.9694	1113.044	3.296
298.15	0.9801	1113.092	3.297
298.15	0.9915	1113.135	3.159
303.15	0.0097	1003.366	3.155
303.15	0.0201	1010.671	3.236
303.15	0.0297	1017.004	3.239
303.15	0.0397	1023.281	3.242
303.15	0.0502	1029.242	3.245
303.15	0.0591	1033.98	3.247
303.15	0.0703	1039.597	3.25
303.15	0.0796	1043.879	3.252
303.15	0.0897	1048.134	3.254
303.15	0.1004	1052.456	3.256
303.15	0.1507	1068.416	3.264
303.15	0.1996	1079.151	3.269
303.15	0.2467	1086.765	3.273
303.15	0.2943	1091.844	3.276
303.15	0.3511	1096.608	3.278
303.15	0.3995	1099.417	3.28
303.15	0.4527	1101.877	3.282
303.15	0.5008	1103.557	3.283
303.15	0.5449	1104.748	3.284
303.15	0.5834	1105.614	3.285
303.15	0.6482	1106.76	3.286
303.15	0.6982	1107.423	3.287
303.15	0.7444	1107.937	3.288
303.15	0.7962	1108.413	3.29
303.15	0.8401	1108.739	3.291
303.15	0.8947	1109.088	3.292
303.15	0.9092	1109.172	3.293
303.15	0.919	1109.229	3.293
303.15	0.9303	1109.267	3.293
303.15	0.9393	1109.277	3.293
303.15	0.9473	1109.361	3.294
303.15	0.9566	1109.41	3.294
303.15	0.9694	1109.467	3.294
303.15	0.9801	1109.516	3.295
303.15	0.9915	1109.562	3.158
308.15	0.0097	1001.634	3.154
308.15	0.0201	1008.814	3.236
308.15	0.0297	1015.021	3.238
308.15	0.0397	1021.167	3.241
308.15	0.0502	1026.994	3.244
308.15	0.0591	1031.626	3.246
308.15	0.0703	1037.108	3.249
308.15	0.0796	1041.293	3.251
308.15	0.0897	1045.448	3.253
308.15	0.1004	1049.659	3.255
308.15	0.1507	1065.271	3.262
308.15	0.1996	1075.794	3.267
308.15	0.2467	1083.272	3.271
308.15	0.2943	1088.253	3.274
308.15	0.3511	1092.986	3.276
308.15	0.3995	1095.833	3.278
308.15	0.4527	1098.237	3.28
308.15	0.5008	1099.92	3.281
308.15	0.5449	1101.11	3.282
308.15	0.5834	1101.985	3.283
308.15	0.6482	1103.133	3.284
308.15	0.6982	1103.802	3.285
308.15	0.7444	1104.328	3.286
308.15	0.7962	1104.809	3.288
308.15	0.8401	1105.138	3.289
308.15	0.8947	1105.494	3.29
308.15	0.9092	1105.578	3.291
308.15	0.919	1105.636	3.291
308.15	0.9303	1105.678	3.291
308.15	0.9393	1105.694	3.291
308.15	0.9473	1105.769	3.292
308.15	0.9566	1105.82	3.292
308.15	0.9694	1105.878	3.292
308.15	0.9801	1105.926	3.293
308.15	0.9915	1105.973	3.157
293.15	0	998.429	3.001
298.15	0	997.267	3.001
303.15	0	995.867	3.001
308.15	0	994.252	3.001
293.15	1	1116.733	3.015
298.15	1	1113.174	3.015
303.15	1	1109.599	3.014
308.15	1	1106.013	3.014
293.15	0.049	1032.591	3.247
293.15	0.0992	1057.143	3.258
293.15	0.149	1074.037	3.266
293.15	0.1998	1085.893	3.272
293.15	0.249	1093.806	3.276
293.15	0.2987	1099.437	3.279
293.15	0.3501	1103.603	3.282
293.15	0.4007	1106.626	3.284
293.15	0.4504	1108.903	3.285
293.15	0.4973	1110.602	3.286
293.15	0.553	1112.185	3.288
293.15	0.5938	1113.094	3.289
293.15	0.6514	1114.071	3.29
293.15	0.6864	1114.522	3.291
293.15	0.7556	1115.186	3.292
293.15	0.7999	1115.521	3.293
293.15	0.8525	1115.894	3.295
293.15	0.9002	1116.233	3.296
293.15	0.9554	1116.574	3.298
298.15	0.049	1030.669	3.246
298.15	0.0992	1054.615	3.257
298.15	0.149	1071.09	3.265
298.15	0.1998	1082.664	3.271
298.15	0.249	1090.405	3.275
298.15	0.2987	1095.935	3.278
298.15	0.3501	1100.047	3.28
298.15	0.4007	1103.049	3.282
298.15	0.4504	1105.321	3.283
298.15	0.4973	1107.021	3.285
298.15	0.553	1108.607	3.286
298.15	0.5938	1109.516	3.287
298.15	0.6514	1110.493	3.288
298.15	0.6864	1110.943	3.289
298.15	0.7556	1111.608	3.29
298.15	0.7999	1111.947	3.291
298.15	0.8525	1112.329	3.293
298.15	0.9002	1112.677	3.294
298.15	0.9554	1113.023	3.296
303.15	0.049	1028.576	3.245
303.15	0.0992	1051.966	3.256
303.15	0.149	1068.055	3.264
303.15	0.1998	1079.366	3.269
303.15	0.249	1086.946	3.273
303.15	0.2987	1092.382	3.276
303.15	0.3501	1096.446	3.278
303.15	0.4007	1099.431	3.28
303.15	0.4504	1101.701	3.281
303.15	0.4973	1103.405	3.283
303.15	0.553	1104.997	3.284
303.15	0.5938	1105.91	3.285
303.15	0.6514	1106.888	3.286
303.15	0.6864	1107.338	3.287
303.15	0.7556	1108.005	3.289
303.15	0.7999	1108.346	3.29
303.15	0.8525	1108.736	3.291
303.15	0.9002	1109.094	3.292
303.15	0.9554	1109.446	3.294
308.15	0.049	1026.325	3.244
308.15	0.0992	1049.205	3.254
308.15	0.149	1064.938	3.262
308.15	0.1998	1076.008	3.268
308.15	0.249	1083.444	3.271
308.15	0.2987	1088.798	3.274
308.15	0.3501	1092.823	3.276
308.15	0.4007	1095.796	3.278
308.15	0.4504	1098.068	3.28
308.15	0.4973	1099.779	3.281
308.15	0.553	1101.377	3.282
308.15	0.5938	1102.291	3.283
308.15	0.6514	1103.268	3.284
308.15	0.6864	1103.717	3.285
308.15	0.7556	1104.385	3.287
308.15	0.7999	1104.732	3.288
308.15	0.8525	1105.132	3.289
308.15	0.9002	1105.502	3.29
308.15	0.9554	1105.863	3.292

System: diethylene glycol + water; phases: Liquid
Fixed: Pressure, kPa = 92.3
Fixed: Frequency, MHz = 3
Property: Speed of sound, m/s (Liquid); method: Single path-length method
Temperature, K	Mole fraction of diethylene glycol	Speed of sound, m/s	uncertainty
293.15	0.0097	1511.15	1.79
293.15	0.0201	1539.56	1.79
293.15	0.0297	1563.59	1.8
293.15	0.0397	1586.15	1.8
293.15	0.0502	1607.67	1.8
293.15	0.0591	1623.95	1.8
293.15	0.0703	1642.55	1.8
293.15	0.0796	1655.49	1.8
293.15	0.0897	1667.88	1.8
293.15	0.1004	1679.66	1.8
293.15	0.1507	1713.04	1.81
293.15	0.1996	1723.89	1.82
293.15	0.2467	1723.01	1.83
293.15	0.2943	1716.57	1.83
293.15	0.3511	1705.08	1.85
293.15	0.3995	1694.05	1.86
293.15	0.4527	1681.69	1.87
293.15	0.5008	1670.71	1.88
293.15	0.5449	1661.45	1.89
293.15	0.5834	1653.41	1.9
293.15	0.6482	1640.67	1.92
293.15	0.6982	1632.2	1.94
293.15	0.7444	1624.39	1.95
293.15	0.7962	1616.66	1.97
293.15	0.8401	1610.38	1.98
293.15	0.8947	1603.32	2
293.15	0.9092	1601.45	2.01
293.15	0.919	1600.23	2.01
293.15	0.9303	1599.06	2.02
293.15	0.9393	1598.01	2.02
293.15	0.9473	1597.15	2.02
293.15	0.9566	1595.98	2.03
293.15	0.9694	1594.59	2.03
293.15	0.9801	1593.4	2.04
293.15	0.9915	1592.14	2.04
298.15	0.0097	1522.97	1.79
298.15	0.0201	1549.09	1.79
298.15	0.0297	1571.11	1.8
298.15	0.0397	1591.7	1.8
298.15	0.0502	1611.33	1.8
298.15	0.0591	1626.12	1.8
298.15	0.0703	1643.04	1.8
298.15	0.0796	1654.71	1.8
298.15	0.0897	1665.88	1.8
298.15	0.1004	1676.48	1.8
298.15	0.1507	1705.92	1.81
298.15	0.1996	1714.67	1.82
298.15	0.2467	1712.57	1.83
298.15	0.2943	1705.45	1.83
298.15	0.3511	1693.48	1.85
298.15	0.3995	1682.2	1.86
298.15	0.4527	1669.76	1.87
298.15	0.5008	1658.74	1.88
298.15	0.5449	1649.42	1.89
298.15	0.5834	1641.4	1.9
298.15	0.6482	1628.68	1.92
298.15	0.6982	1620.25	1.94
298.15	0.7444	1612.47	1.95
298.15	0.7962	1604.75	1.97
298.15	0.8401	1598.51	1.98
298.15	0.8947	1591.46	2
298.15	0.9092	1589.6	2.01
298.15	0.919	1588.38	2.01
298.15	0.9303	1587.24	2.02
298.15	0.9393	1586.16	2.02
298.15	0.9473	1585.29	2.02
298.15	0.9566	1584.12	2.03
298.15	0.9694	1582.74	2.03
298.15	0.9801	1581.55	2.04
298.15	0.9915	1580.29	2.04
303.15	0.0097	1533.23	1.79
303.15	0.0201	1557.23	1.79
303.15	0.0297	1577.38	1.8
303.15	0.0397	1596.13	1.8
303.15	0.0502	1614.02	1.8
303.15	0.0591	1627.38	1.8
303.15	0.0703	1642.71	1.8
303.15	0.0796	1653.19	1.8
303.15	0.0897	1663.2	1.8
303.15	0.1004	1672.68	1.8
303.15	0.1507	1698.47	1.81
303.15	0.1996	1705.09	1.82
303.15	0.2467	1701.82	1.83
303.15	0.2943	1694.07	1.83
303.15	0.3511	1681.7	1.85
303.15	0.3995	1670.2	1.86
303.15	0.4527	1657.65	1.87
303.15	0.5008	1646.57	1.88
303.15	0.5449	1637.26	1.89
303.15	0.5834	1629.22	1.9
303.15	0.6482	1616.58	1.92
303.15	0.6982	1608.12	1.94
303.15	0.7444	1600.43	1.95
303.15	0.7962	1592.72	1.97
303.15	0.8401	1586.58	1.98
303.15	0.8947	1579.52	2
303.15	0.9092	1577.65	2.01
303.15	0.919	1576.47	2.01
303.15	0.9303	1575.31	2.02
303.15	0.9393	1574.27	2.02
303.15	0.9473	1573.35	2.02
303.15	0.9566	1572.17	2.03
303.15	0.9694	1570.82	2.03
303.15	0.9801	1569.62	2.04
303.15	0.9915	1568.35	2.04
308.15	0.0097	1541.96	1.79
308.15	0.0201	1563.99	1.79
308.15	0.0297	1582.41	1.8
308.15	0.0397	1599.44	1.8
308.15	0.0502	1615.66	1.8
308.15	0.0591	1627.75	1.8
308.15	0.0703	1641.6	1.8
308.15	0.0796	1650.94	1.8
308.15	0.0897	1659.89	1.8
308.15	0.1004	1668.31	1.8
308.15	0.1507	1690.55	1.81
308.15	0.1996	1695.23	1.82
308.15	0.2467	1690.86	1.83
308.15	0.2943	1682.5	1.83
308.15	0.3511	1669.71	1.85
308.15	0.3995	1658.05	1.86
308.15	0.4527	1645.42	1.87
308.15	0.5008	1634.33	1.88
308.15	0.5449	1625.03	1.89
308.15	0.5834	1617.03	1.9
308.15	0.6482	1604.4	1.92
308.15	0.6982	1596.02	1.94
308.15	0.7444	1588.33	1.95
308.15	0.7962	1580.66	1.97
308.15	0.8401	1574.51	1.98
308.15	0.8947	1567.53	2
308.15	0.9092	1565.66	2.01
308.15	0.919	1564.48	2.01
308.15	0.9303	1563.32	2.02
308.15	0.9393	1562.29	2.02
308.15	0.9473	1561.39	2.02
308.15	0.9566	1560.2	2.03
308.15	0.9694	1558.86	2.03
308.15	0.9801	1557.66	2.04
308.15	0.9915	1556.4	2.04
293.15	0	1482.78	1.79
298.15	0	1496.99	1.79
303.15	0	1509.32	1.79
308.15	0	1519.89	1.79
293.15	1	1591.03	2.04
298.15	1	1579.13	2.04
303.15	1	1567.21	2.04
308.15	1	1555.26	2.04

System: diethylene glycol + water; phases: Liquid
Fixed: Pressure, kPa = 92.3
Property: Viscosity, Pa*s (Liquid); method: Concentric cylinders viscometry
Temperature, K	Mole fraction of diethylene glycol	Viscosity, Pa*s	uncertainty
293.15	0.049	0.0021195	0.0002969
293.15	0.0992	0.0036023	0.0005046
293.15	0.149	0.0054585	0.0007645
293.15	0.1998	0.00766	0.0010729
293.15	0.249	0.010042	0.001407
293.15	0.2987	0.012546	0.001757
293.15	0.3501	0.015181	0.002126
293.15	0.4007	0.017722	0.002482
293.15	0.4504	0.020131	0.00282
293.15	0.4973	0.0223	0.003124
293.15	0.553	0.024679	0.003458
293.15	0.5938	0.026232	0.003675
293.15	0.6514	0.028302	0.003966
293.15	0.6864	0.029453	0.004127
293.15	0.7556	0.031369	0.004396
293.15	0.7999	0.032414	0.004542
293.15	0.8525	0.033475	0.004691
293.15	0.9002	0.034402	0.004821
293.15	0.9554	0.035256	0.004941
298.15	0.049	0.0017169	0.0002405
298.15	0.0992	0.0028765	0.0004029
298.15	0.149	0.0043139	0.0006042
298.15	0.1998	0.0060225	0.0008435
298.15	0.249	0.007847	0.0010991
298.15	0.2987	0.0097716	0.0013687
298.15	0.3501	0.011794	0.001652
298.15	0.4007	0.013738	0.001924
298.15	0.4504	0.015591	0.002184
298.15	0.4973	0.017243	0.002415
298.15	0.553	0.019067	0.002671
298.15	0.5938	0.020226	0.002834
298.15	0.6514	0.021858	0.003062
298.15	0.6864	0.022698	0.00318
298.15	0.7556	0.024168	0.003386
298.15	0.7999	0.024945	0.003495
298.15	0.8525	0.025798	0.003615
298.15	0.9002	0.026493	0.003713
298.15	0.9554	0.027151	0.003805
303.15	0.049	0.0015996	0.0002241
303.15	0.0992	0.0026047	0.0003648
303.15	0.149	0.0038298	0.0005364
303.15	0.1998	0.00527	0.0007381
303.15	0.249	0.0067656	0.0009476
303.15	0.2987	0.0083262	0.0011662
303.15	0.3501	0.0099513	0.0013939
303.15	0.4007	0.011497	0.00161
303.15	0.4504	0.012969	0.001817
303.15	0.4973	0.014258	0.001997
303.15	0.553	0.015686	0.002197
303.15	0.5938	0.016616	0.002328
303.15	0.6514	0.017902	0.002508
303.15	0.6864	0.018563	0.002601
303.15	0.7556	0.019682	0.002758
303.15	0.7999	0.020325	0.002848
303.15	0.8525	0.020975	0.002939
303.15	0.9002	0.021553	0.00302
303.15	0.9554	0.022071	0.003093
308.15	0.049	0.0014129	0.000198
308.15	0.0992	0.0022728	0.0003184
308.15	0.149	0.0032968	0.0004618
308.15	0.1998	0.0045013	0.0006305
308.15	0.249	0.0057533	0.0008058
308.15	0.2987	0.0070557	0.0009883
308.15	0.3501	0.0084013	0.0011767
308.15	0.4007	0.0096481	0.0013514
308.15	0.4504	0.010795	0.001512
308.15	0.4973	0.011817	0.001655
308.15	0.553	0.012939	0.001813
308.15	0.5938	0.013665	0.001914
308.15	0.6514	0.014672	0.002055
308.15	0.6864	0.01518	0.002127
308.15	0.7556	0.016062	0.00225
308.15	0.7999	0.016575	0.002322
308.15	0.8525	0.017079	0.002393
308.15	0.9002	0.017532	0.002457
308.15	0.9554	0.017949	0.002515
293.15	0	0.0010673	0.0001496
298.15	0	0.00089689	0.00012572
303.15	0	0.0008385	0.00011754
308.15	0	0.00075887	0.0001064
293.15	1	0.035893	0.005031
298.15	1	0.027667	0.003878
303.15	1	0.022478	0.00315
308.15	1	0.01827	0.00256

System: triethylene glycol + water; phases: Liquid
Fixed: Pressure, kPa = 92.3
Property: Mass density, kg/m3 (Liquid); method: Vibrating tube method
Temperature, K	Mole fraction of triethylene glycol	Mass density, kg/m3	uncertainty
293.15	0.0101	1009.83	3.169
293.15	0.0196	1019.709	3.241
293.15	0.029	1028.875	3.245
293.15	0.0381	1036.741	3.249
293.15	0.0496	1045.761	3.253
293.15	0.0601	1053.181	3.256
293.15	0.0689	1058.687	3.259
293.15	0.0801	1065	3.262
293.15	0.0905	1070.231	3.264
293.15	0.0996	1074.379	3.266
293.15	0.1479	1090.644	3.275
293.15	0.2004	1101.267	3.28
293.15	0.2462	1107.121	3.283
293.15	0.3004	1111.57	3.285
293.15	0.3474	1114.222	3.287
293.15	0.3948	1116.154	3.288
293.15	0.4467	1117.712	3.29
293.15	0.5021	1118.967	3.291
293.15	0.548	1119.771	3.292
293.15	0.5923	1120.433	3.293
293.15	0.6442	1121.04	3.294
293.15	0.7095	1121.664	3.295
293.15	0.7531	1122.027	3.296
293.15	0.7859	1122.278	3.297
293.15	0.8387	1122.621	3.298
293.15	0.9031	1123.012	3.3
293.15	0.9181	1123.079	3.3
293.15	0.9344	1123.16	3.301
293.15	0.9569	1123.277	3.302
293.15	0.9782	1123.366	3.302
298.15	0.0101	1008.379	3.169
298.15	0.0196	1017.879	3.24
298.15	0.029	1027.039	3.244
298.15	0.0381	1034.701	3.248
298.15	0.0496	1043.48	3.252
298.15	0.0601	1050.699	3.255
298.15	0.0689	1056.054	3.258
298.15	0.0801	1062.197	3.261
298.15	0.0905	1067.29	3.263
298.15	0.0996	1071.333	3.265
298.15	0.1479	1087.214	3.273
298.15	0.2004	1097.629	3.278
298.15	0.2462	1103.393	3.281
298.15	0.3004	1107.789	3.284
298.15	0.3474	1110.414	3.285
298.15	0.3948	1112.332	3.286
298.15	0.4467	1113.88	3.288
298.15	0.5021	1115.129	3.289
298.15	0.548	1115.929	3.29
298.15	0.5923	1116.587	3.291
298.15	0.6442	1117.188	3.292
298.15	0.7095	1117.805	3.293
298.15	0.7531	1118.169	3.294
298.15	0.7859	1118.416	3.295
298.15	0.8387	1118.746	3.296
298.15	0.9031	1119.131	3.298
298.15	0.9181	1119.196	3.298
298.15	0.9344	1119.278	3.299
298.15	0.9569	1119.392	3.299
298.15	0.9782	1119.477	3.3
303.15	0.0101	1006.695	3.168
303.15	0.0196	1016.055	3.239
303.15	0.029	1025.028	3.243
303.15	0.0381	1032.503	3.247
303.15	0.0496	1041.066	3.251
303.15	0.0601	1048.097	3.254
303.15	0.0689	1053.316	3.256
303.15	0.0801	1059.303	3.259
303.15	0.0905	1064.27	3.262
303.15	0.0996	1068.21	3.264
303.15	0.1479	1083.731	3.271
303.15	0.2004	1093.951	3.276
303.15	0.2462	1099.632	3.279
303.15	0.3004	1103.987	3.282
303.15	0.3474	1106.587	3.283
303.15	0.3948	1108.496	3.285
303.15	0.4467	1110.038	3.286
303.15	0.5021	1111.282	3.287
303.15	0.548	1112.08	3.288
303.15	0.5923	1112.734	3.289
303.15	0.6442	1113.331	3.29
303.15	0.7095	1113.945	3.291
303.15	0.7531	1114.304	3.292
303.15	0.7859	1114.547	3.293
303.15	0.8387	1114.874	3.294
303.15	0.9031	1115.252	3.296
303.15	0.9181	1115.312	3.296
303.15	0.9344	1115.396	3.297
303.15	0.9569	1115.503	3.297
303.15	0.9782	1115.592	3.298
308.15	0.0101	1005.032	3.168
308.15	0.0196	1014.271	3.238
308.15	0.029	1022.856	3.242
308.15	0.0381	1030.162	3.245
308.15	0.0496	1038.523	3.249
308.15	0.0601	1045.381	3.253
308.15	0.0689	1050.481	3.255
308.15	0.0801	1056.319	3.258
308.15	0.0905	1061.171	3.26
308.15	0.0996	1065.013	3.262
308.15	0.1479	1080.199	3.269
308.15	0.2004	1090.242	3.274
308.15	0.2462	1095.849	3.277
308.15	0.3004	1100.159	3.28
308.15	0.3474	1102.741	3.281
308.15	0.3948	1104.642	3.283
308.15	0.4467	1106.18	3.284
308.15	0.5021	1107.423	3.285
308.15	0.548	1108.218	3.286
308.15	0.5923	1108.871	3.287
308.15	0.6442	1109.464	3.288
308.15	0.7095	1110.082	3.289
308.15	0.7531	1110.432	3.29
308.15	0.7859	1110.677	3.291
308.15	0.8387	1110.998	3.292
308.15	0.9031	1111.373	3.294
308.15	0.9181	1111.423	3.294
308.15	0.9344	1111.515	3.294
308.15	0.9569	1111.619	3.295
308.15	0.9782	1111.707	3.296
293.15	0	998.429	3.001
298.15	0	997.267	3.001
303.15	0	995.867	3.001
308.15	0	994.252	3.001
293.15	1	1123.477	3.015
298.15	1	1119.586	3.015
303.15	1	1115.703	3.015
308.15	1	1111.814	3.015
293.15	0.025	1024.911	3.243
293.15	0.0489	1044.887	3.252
293.15	0.0754	1062.235	3.261
293.15	0.0993	1074.348	3.266
293.15	0.15	1091.94	3.275
293.15	0.1993	1101.822	3.28
293.15	0.2526	1107.939	3.283
293.15	0.2998	1111.261	3.285
293.15	0.3539	1113.94	3.287
293.15	0.4009	1115.826	3.288
293.15	0.4492	1117.526	3.29
293.15	0.4992	1119.037	3.291
293.15	0.5484	1120.205	3.292
293.15	0.5996	1121.027	3.293
293.15	0.6506	1121.459	3.294
293.15	0.701	1121.616	3.295
293.15	0.7567	1121.705	3.296
293.15	0.8035	1121.913	3.297
293.15	0.8406	1122.247	3.298
293.15	0.8981	1123.022	3.3
293.15	0.9489	1123.572	3.302
298.15	0.025	1023.095	3.242
298.15	0.0489	1042.583	3.251
298.15	0.0754	1059.509	3.259
298.15	0.0993	1071.331	3.265
298.15	0.15	1088.51	3.273
298.15	0.1993	1098.179	3.278
298.15	0.2526	1104.187	3.282
298.15	0.2998	1107.47	3.283
298.15	0.3539	1110.13	3.285
298.15	0.4009	1112.009	3.286
298.15	0.4492	1113.702	3.288
298.15	0.4992	1115.204	3.289
298.15	0.5484	1116.361	3.29
298.15	0.5996	1117.175	3.291
298.15	0.6506	1117.601	3.292
298.15	0.701	1117.756	3.293
298.15	0.7567	1117.845	3.294
298.15	0.8035	1118.05	3.295
298.15	0.8406	1118.38	3.296
298.15	0.8981	1119.145	3.298
298.15	0.9489	1119.685	3.299
303.15	0.025	1021.124	3.241
303.15	0.0489	1040.158	3.25
303.15	0.0754	1056.69	3.258
303.15	0.0993	1068.238	3.264
303.15	0.15	1085.03	3.272
303.15	0.1993	1094.498	3.277
303.15	0.2526	1100.405	3.28
303.15	0.2998	1103.652	3.282
303.15	0.3539	1106.301	3.283
303.15	0.4009	1108.177	3.284
303.15	0.4492	1109.867	3.286
303.15	0.4992	1111.363	3.287
303.15	0.5484	1112.514	3.288
303.15	0.5996	1113.319	3.289
303.15	0.6506	1113.74	3.29
303.15	0.701	1113.891	3.291
303.15	0.7567	1113.977	3.292
303.15	0.8035	1114.181	3.293
303.15	0.8406	1114.508	3.294
303.15	0.8981	1115.265	3.296
303.15	0.9489	1115.798	3.297
308.15	0.025	1019.054	3.24
308.15	0.0489	1037.636	3.249
308.15	0.0754	1053.782	3.257
308.15	0.0993	1065.065	3.262
308.15	0.15	1081.49	3.27
308.15	0.1993	1090.776	3.275
308.15	0.2526	1096.597	3.278
308.15	0.2998	1099.817	3.28
308.15	0.3539	1102.458	3.281
308.15	0.4009	1104.332	3.282
308.15	0.4492	1106.018	3.284
308.15	0.4992	1107.509	3.285
308.15	0.5484	1108.652	3.286
308.15	0.5996	1109.451	3.287
308.15	0.6506	1109.869	3.288
308.15	0.701	1110.021	3.289
308.15	0.7567	1110.109	3.29
308.15	0.8035	1110.313	3.291
308.15	0.8406	1110.638	3.292
308.15	0.8981	1111.387	3.293
308.15	0.9489	1111.911	3.295

System: triethylene glycol + water; phases: Liquid
Fixed: Pressure, kPa = 92.3
Fixed: Frequency, MHz = 3
Property: Speed of sound, m/s (Liquid); method: Single path-length method
Temperature, K	Mole fraction of triethylene glycol	Speed of sound, m/s	uncertainty
293.15	0.0101	1526.71	1.79
293.15	0.0196	1563.29	1.79
293.15	0.029	1595.66	1.8
293.15	0.0381	1622.51	1.8
293.15	0.0496	1651.61	1.8
293.15	0.0601	1673.75	1.8
293.15	0.0689	1688.96	1.8
293.15	0.0801	1704.87	1.8
293.15	0.0905	1716.55	1.8
293.15	0.0996	1724.68	1.8
293.15	0.1479	1744.45	1.81
293.15	0.2004	1742.02	1.82
293.15	0.2462	1732.13	1.82
293.15	0.3004	1718.19	1.83
293.15	0.3474	1706.1	1.84
293.15	0.3948	1694.85	1.85
293.15	0.4467	1683.86	1.87
293.15	0.5021	1673.62	1.88
293.15	0.548	1666.35	1.89
293.15	0.5923	1659.96	1.9
293.15	0.6442	1653.73	1.92
293.15	0.7095	1647.03	1.94
293.15	0.7531	1642.92	1.95
293.15	0.7859	1640.18	1.96
293.15	0.8387	1636.46	1.98
293.15	0.9031	1632.06	2.01
293.15	0.9181	1631.35	2.01
293.15	0.9344	1630.51	2.02
293.15	0.9569	1629.23	2.03
293.15	0.9782	1628.12	2.03
298.15	0.0101	1537.44	1.79
298.15	0.0196	1570.95	1.79
298.15	0.029	1600.5	1.8
298.15	0.0381	1624.97	1.8
298.15	0.0496	1651.38	1.8
298.15	0.0601	1671.44	1.8
298.15	0.0689	1685.1	1.8
298.15	0.0801	1699.36	1.8
298.15	0.0905	1709.75	1.8
298.15	0.0996	1716.92	1.8
298.15	0.1479	1733.38	1.81
298.15	0.2004	1729.33	1.82
298.15	0.2462	1718.76	1.82
298.15	0.3004	1704.42	1.83
298.15	0.3474	1692.09	1.84
298.15	0.3948	1680.7	1.85
298.15	0.4467	1669.58	1.87
298.15	0.5021	1659.23	1.88
298.15	0.548	1651.87	1.89
298.15	0.5923	1645.4	1.9
298.15	0.6442	1639.08	1.92
298.15	0.7095	1632.31	1.94
298.15	0.7531	1628.13	1.95
298.15	0.7859	1625.31	1.96
298.15	0.8387	1621.47	1.98
298.15	0.9031	1616.97	2.01
298.15	0.9181	1616.25	2.01
298.15	0.9344	1615.38	2.02
298.15	0.9569	1614.07	2.03
298.15	0.9782	1612.93	2.03
303.15	0.0101	1546.56	1.79
303.15	0.0196	1577.25	1.79
303.15	0.029	1604.22	1.8
303.15	0.0381	1626.45	1.8
303.15	0.0496	1650.37	1.8
303.15	0.0601	1668.44	1.8
303.15	0.0689	1680.68	1.8
303.15	0.0801	1693.39	1.8
303.15	0.0905	1702.55	1.8
303.15	0.0996	1708.81	1.8
303.15	0.1479	1722.14	1.81
303.15	0.2004	1716.55	1.82
303.15	0.2462	1705.34	1.82
303.15	0.3004	1690.62	1.83
303.15	0.3474	1678.1	1.84
303.15	0.3948	1666.59	1.85
303.15	0.4467	1655.37	1.87
303.15	0.5021	1644.92	1.88
303.15	0.548	1637.48	1.89
303.15	0.5923	1630.95	1.9
303.15	0.6442	1624.53	1.92
303.15	0.7095	1617.7	1.94
303.15	0.7531	1613.4	1.95
303.15	0.7859	1610.53	1.96
303.15	0.8387	1606.6	1.98
303.15	0.9031	1602	2.01
303.15	0.9181	1601.26	2.01
303.15	0.9344	1600.37	2.02
303.15	0.9569	1599.04	2.03
303.15	0.9782	1597.88	2.03
308.15	0.0101	1554.15	1.79
308.15	0.0196	1582.25	1.79
308.15	0.029	1606.81	1.8
308.15	0.0381	1626.99	1.8
308.15	0.0496	1648.59	1.8
308.15	0.0601	1664.8	1.8
308.15	0.0689	1675.75	1.8
308.15	0.0801	1686.96	1.8
308.15	0.0905	1694.97	1.8
308.15	0.0996	1700.36	1.8
308.15	0.1479	1710.76	1.81
308.15	0.2004	1703.72	1.82
308.15	0.2462	1691.91	1.82
308.15	0.3004	1676.84	1.83
308.15	0.3474	1664.16	1.84
308.15	0.3948	1652.54	1.85
308.15	0.4467	1641.23	1.87
308.15	0.5021	1630.7	1.88
308.15	0.548	1623.22	1.89
308.15	0.5923	1616.64	1.9
308.15	0.6442	1610.11	1.92
308.15	0.7095	1603.23	1.94
308.15	0.7531	1598.82	1.95
308.15	0.7859	1595.9	1.96
308.15	0.8387	1591.88	1.98
308.15	0.9031	1587.2	2.01
308.15	0.9181	1586.45	2.01
308.15	0.9344	1585.54	2.02
308.15	0.9569	1584.19	2.03
308.15	0.9782	1582.99	2.03
293.15	0	1482.78	1.79
298.15	0	1496.99	1.79
303.15	0	1509.32	1.79
308.15	0	1519.89	1.79
293.15	1	1626.77	2.04
298.15	1	1611.61	2.04
303.15	1	1596.57	2.04
308.15	1	1581.69	2.04

System: triethylene glycol + water; phases: Liquid
Fixed: Pressure, kPa = 92.3
Property: Viscosity, Pa*s (Liquid); method: Concentric cylinders viscometry
Temperature, K	Mole fraction of triethylene glycol	Viscosity, Pa*s	uncertainty
293.15	0.025	0.0018807	0.0002635
293.15	0.0489	0.0029209	0.0004091
293.15	0.0754	0.004368	0.0006118
293.15	0.0993	0.0059885	0.0008387
293.15	0.15	0.01019	0.001427
293.15	0.1993	0.014461	0.002025
293.15	0.2526	0.019409	0.002719
293.15	0.2998	0.023566	0.003301
293.15	0.3539	0.027832	0.003899
293.15	0.4009	0.031198	0.004371
293.15	0.4492	0.034102	0.004778
293.15	0.4992	0.036666	0.005137
293.15	0.5484	0.038842	0.005442
293.15	0.5996	0.040642	0.005695
293.15	0.6506	0.042147	0.005906
293.15	0.701	0.043666	0.006119
293.15	0.7567	0.044872	0.006289
293.15	0.8035	0.045731	0.006409
293.15	0.8406	0.046363	0.006498
293.15	0.8981	0.046959	0.006582
293.15	0.9489	0.047639	0.006678
298.15	0.025	0.0015244	0.0002136
298.15	0.0489	0.0023287	0.0003262
298.15	0.0754	0.0034558	0.000484
298.15	0.0993	0.0046771	0.0006551
298.15	0.15	0.0078134	0.0010943
298.15	0.1993	0.011204	0.001569
298.15	0.2526	0.014938	0.002092
298.15	0.2998	0.018089	0.002534
298.15	0.3539	0.021313	0.002985
298.15	0.4009	0.023848	0.003341
298.15	0.4492	0.026051	0.00365
298.15	0.4992	0.028012	0.003924
298.15	0.5484	0.029675	0.004158
298.15	0.5996	0.031059	0.004352
298.15	0.6506	0.032211	0.004513
298.15	0.701	0.033324	0.004669
298.15	0.7567	0.034323	0.00481
298.15	0.8035	0.034995	0.004904
298.15	0.8406	0.035505	0.004976
298.15	0.8981	0.035949	0.005038
298.15	0.9489	0.036463	0.005111
303.15	0.025	0.0014252	0.0001997
303.15	0.0489	0.0021346	0.000299
303.15	0.0754	0.0031085	0.0004354
303.15	0.0993	0.0041446	0.0005805
303.15	0.15	0.0067322	0.0009429
303.15	0.1993	0.0094557	0.0013244
303.15	0.2526	0.012393	0.001736
303.15	0.2998	0.014864	0.002082
303.15	0.3539	0.017362	0.002432
303.15	0.4009	0.019333	0.002708
303.15	0.4492	0.02106	0.00295
303.15	0.4992	0.02258	0.003163
303.15	0.5484	0.0239	0.003348
303.15	0.5996	0.024956	0.003496
303.15	0.6506	0.025863	0.003624
303.15	0.701	0.026756	0.003749
303.15	0.7567	0.027547	0.00386
303.15	0.8035	0.028081	0.003935
303.15	0.8406	0.028484	0.003992
303.15	0.8981	0.028875	0.004047
303.15	0.9489	0.029264	0.004101
308.15	0.025	0.0012655	0.0001773
308.15	0.0489	0.0018652	0.0002613
308.15	0.0754	0.00268	0.0003754
308.15	0.0993	0.0035609	0.0004987
308.15	0.15	0.0056168	0.0007867
308.15	0.1993	0.0079621	0.0011152
308.15	0.2526	0.010326	0.001446
308.15	0.2998	0.012253	0.001716
308.15	0.3539	0.014187	0.001987
308.15	0.4009	0.015719	0.002202
308.15	0.4492	0.017034	0.002386
308.15	0.4992	0.018218	0.002552
308.15	0.5484	0.01923	0.002694
308.15	0.5996	0.020072	0.002812
308.15	0.6506	0.020774	0.00291
308.15	0.701	0.021476	0.003009
308.15	0.7567	0.022101	0.003097
308.15	0.8035	0.022513	0.003155
308.15	0.8406	0.02283	0.003199
308.15	0.8981	0.023145	0.003243
308.15	0.9489	0.023456	0.003287
293.15	0	0.0010673	0.0001496
298.15	0	0.00089689	0.00012572
303.15	0	0.0008385	0.00011754
308.15	0	0.00075887	0.0001064
293.15	1	0.04806	0.006737
298.15	1	0.036883	0.00517
303.15	1	0.029592	0.004147
308.15	1	0.023721	0.003324

System: glycerol + water; phases: Liquid
Fixed: Pressure, kPa = 92.3
Property: Mass density, kg/m3 (Liquid); method: Vibrating tube method
Temperature, K	Mole fraction of glycerol	Mass density, kg/m3	uncertainty
293.15	0.011	1010.846	3.2
293.15	0.021	1021.706	3.242
293.15	0.0302	1031.172	3.246
293.15	0.0398	1040.581	3.25
293.15	0.0546	1054.092	3.257
293.15	0.0651	1062.838	3.261
293.15	0.0721	1068.613	3.264
293.15	0.0793	1073.973	3.266
293.15	0.0898	1081.795	3.27
293.15	0.0998	1088.821	3.273
293.15	0.1198	1101.67	3.28
293.15	0.1549	1121.664	3.29
293.15	0.2024	1143.696	3.301
293.15	0.2534	1162.812	3.311
293.15	0.2959	1176.001	3.318
293.15	0.3504	1190.052	3.325
293.15	0.4006	1200.88	3.331
293.15	0.4477	1209.472	3.336
293.15	0.4983	1217.478	3.34
293.15	0.5471	1224.328	3.344
293.15	0.6046	1231.025	3.348
293.15	0.6469	1235.491	3.35
293.15	0.7006	1240.517	3.353
293.15	0.7465	1244.436	3.356
293.15	0.7942	1248.13	3.358
293.15	0.8497	1251.948	3.36
293.15	0.8993	1254.992	3.362
293.15	0.9196	1256.264	3.363
293.15	0.9322	1256.968	3.363
293.15	0.9462	1257.78	3.364
293.15	0.9562	1258.296	3.364
293.15	0.9855	1259.957	3.365
298.15	0.011	1009.542	3.2
298.15	0.021	1020.28	3.241
298.15	0.0302	1029.637	3.245
298.15	0.0398	1038.941	3.25
298.15	0.0546	1052.297	3.256
298.15	0.0651	1060.942	3.26
298.15	0.0721	1066.653	3.263
298.15	0.0793	1071.951	3.265
298.15	0.0898	1079.69	3.269
298.15	0.0998	1086.641	3.272
298.15	0.1198	1099.358	3.279
298.15	0.1549	1119.162	3.288
298.15	0.2024	1141.007	3.299
298.15	0.2534	1159.989	3.309
298.15	0.2959	1173.099	3.316
298.15	0.3504	1187.085	3.324
298.15	0.4006	1197.863	3.329
298.15	0.4477	1206.423	3.334
298.15	0.4983	1214.397	3.339
298.15	0.5471	1221.234	3.342
298.15	0.6046	1227.927	3.346
298.15	0.6469	1232.398	3.349
298.15	0.7006	1237.441	3.352
298.15	0.7465	1241.37	3.354
298.15	0.7942	1245.064	3.356
298.15	0.8497	1248.808	3.359
298.15	0.8993	1251.84	3.36
298.15	0.9196	1253.096	3.361
298.15	0.9322	1253.819	3.362
298.15	0.9462	1254.682	3.362
298.15	0.9562	1255.2	3.363
298.15	0.9855	1256.867	3.364
303.15	0.011	1008.017	3.199
303.15	0.021	1018.648	3.24
303.15	0.0302	1027.911	3.244
303.15	0.0398	1037.12	3.249
303.15	0.0546	1050.338	3.255
303.15	0.0651	1058.895	3.259
303.15	0.0721	1064.549	3.262
303.15	0.0793	1069.797	3.264
303.15	0.0898	1077.458	3.268
303.15	0.0998	1084.342	3.271
303.15	0.1198	1096.936	3.277
303.15	0.1549	1116.572	3.287
303.15	0.2024	1138.249	3.298
303.15	0.2534	1157.111	3.308
303.15	0.2959	1170.148	3.315
303.15	0.3504	1184.069	3.322
303.15	0.4006	1194.809	3.328
303.15	0.4477	1203.344	3.332
303.15	0.4983	1211.292	3.337
303.15	0.5471	1218.116	3.341
303.15	0.6046	1224.795	3.344
303.15	0.6469	1229.266	3.347
303.15	0.7006	1234.314	3.35
303.15	0.7465	1238.262	3.352
303.15	0.7942	1241.97	3.355
303.15	0.8497	1245.721	3.357
303.15	0.8993	1248.752	3.359
303.15	0.9196	1249.998	3.359
303.15	0.9322	1250.718	3.36
303.15	0.9462	1251.513	3.36
303.15	0.9562	1252.033	3.361
303.15	0.9855	1253.694	3.362
308.15	0.011	1006.302	3.198
308.15	0.021	1016.827	3.239
308.15	0.0302	1026.006	3.244
308.15	0.0398	1035.131	3.248
308.15	0.0546	1048.228	3.254
308.15	0.0651	1056.705	3.258
308.15	0.0721	1062.309	3.261
308.15	0.0793	1067.513	3.263
308.15	0.0898	1075.128	3.267
308.15	0.0998	1081.926	3.27
308.15	0.1198	1094.417	3.276
308.15	0.1549	1113.895	3.286
308.15	0.2024	1135.428	3.297
308.15	0.2534	1154.175	3.306
308.15	0.2959	1167.149	3.313
308.15	0.3504	1181.017	3.32
308.15	0.4006	1191.72	3.326
308.15	0.4477	1200.232	3.331
308.15	0.4983	1208.144	3.335
308.15	0.5471	1214.972	3.339
308.15	0.6046	1221.642	3.343
308.15	0.6469	1226.107	3.345
308.15	0.7006	1231.148	3.348
308.15	0.7465	1235.107	3.351
308.15	0.7942	1238.829	3.353
308.15	0.8497	1242.597	3.355
308.15	0.8993	1245.638	3.357
308.15	0.9196	1246.892	3.358
308.15	0.9322	1247.615	3.358
308.15	0.9462	1248.403	3.359
308.15	0.9562	1248.931	3.359
308.15	0.9855	1250.587	3.36
293.15	0	998.429	3.001
298.15	0	997.267	3.001
303.15	0	995.867	3.001
308.15	0	994.252	3.001
293.15	1	1260.734	3.007
298.15	1	1257.647	3.007
303.15	1	1254.48	3.007
308.15	1	1251.378	3.006

System: glycerol + water; phases: Liquid
Fixed: Pressure, kPa = 92.3
Fixed: Frequency, MHz = 3
Property: Speed of sound, m/s (Liquid); method: Single path-length method
Temperature, K	Mole fraction of glycerol	Speed of sound, m/s	uncertainty
293.15	0.011	1505.6	1.79
293.15	0.021	1526.4	1.79
293.15	0.0302	1544.81	1.79
293.15	0.0398	1563.39	1.79
293.15	0.0546	1590.14	1.79
293.15	0.0651	1608.23	1.79
293.15	0.0721	1619.83	1.8
293.15	0.0793	1630.88	1.8
293.15	0.0898	1646.92	1.8
293.15	0.0998	1661.32	1.8
293.15	0.1198	1687.47	1.8
293.15	0.1549	1727.65	1.8
293.15	0.2024	1770.16	1.8
293.15	0.2534	1804.71	1.8
293.15	0.2959	1826.91	1.8
293.15	0.3504	1846.66	1.81
293.15	0.4006	1863.91	1.81
293.15	0.4477	1874.9	1.81
293.15	0.4983	1884.38	1.82
293.15	0.5471	1891.74	1.82
293.15	0.6046	1898.35	1.82
293.15	0.6469	1902.36	1.82
293.15	0.7006	1906.78	1.83
293.15	0.7465	1910.18	1.83
293.15	0.7942	1913.5	1.83
293.15	0.8497	1916.85	1.84
293.15	0.8993	1919.12	1.84
293.15	0.9196	1920.62	1.84
293.15	0.9322	1921.27	1.84
293.15	0.9462	1922.09	1.85
293.15	0.9562	1922.59	1.85
293.15	0.9855	1924.28	1.85
298.15	0.011	1518.45	1.79
298.15	0.021	1538.04	1.79
298.15	0.0302	1555.36	1.79
298.15	0.0398	1572.83	1.79
298.15	0.0546	1597.95	1.79
298.15	0.0651	1614.97	1.79
298.15	0.0721	1625.84	1.8
298.15	0.0793	1636.25	1.8
298.15	0.0898	1651.31	1.8
298.15	0.0998	1664.87	1.8
298.15	0.1198	1689.46	1.8
298.15	0.1549	1727.27	1.8
298.15	0.2024	1767.37	1.8
298.15	0.2534	1800.03	1.8
298.15	0.2959	1821.01	1.8
298.15	0.3504	1841.62	1.81
298.15	0.4006	1856.06	1.81
298.15	0.4477	1866.49	1.81
298.15	0.4983	1875.43	1.82
298.15	0.5471	1882.38	1.82
298.15	0.6046	1888.56	1.82
298.15	0.6469	1892.28	1.82
298.15	0.7006	1896.3	1.83
298.15	0.7465	1899.38	1.83
298.15	0.7942	1902.3	1.83
298.15	0.8497	1905.19	1.84
298.15	0.8993	1906.98	1.84
298.15	0.9196	1908.25	1.84
298.15	0.9322	1908.73	1.84
298.15	0.9462	1909.83	1.85
298.15	0.9562	1909.75	1.85
298.15	0.9855	1911.03	1.85
303.15	0.011	1529.51	1.79
303.15	0.021	1548.01	1.79
303.15	0.0302	1564.32	1.79
303.15	0.0398	1580.77	1.79
303.15	0.0546	1604.42	1.79
303.15	0.0651	1620.42	1.79
303.15	0.0721	1630.64	1.8
303.15	0.0793	1640.47	1.8
303.15	0.0898	1654.62	1.8
303.15	0.0998	1667.38	1.8
303.15	0.1198	1690.56	1.8
303.15	0.1549	1726.17	1.8
303.15	0.2024	1764.01	1.8
303.15	0.2534	1794.88	1.8
303.15	0.2959	1814.74	1.8
303.15	0.3504	1834.28	1.81
303.15	0.4006	1847.98	1.81
303.15	0.4477	1857.88	1.81
303.15	0.4983	1866.37	1.82
303.15	0.5471	1872.92	1.82
303.15	0.6046	1878.78	1.82
303.15	0.6469	1882.26	1.82
303.15	0.7006	1885.99	1.83
303.15	0.7465	1888.83	1.83
303.15	0.7942	1891.48	1.83
303.15	0.8497	1894.13	1.84
303.15	0.8993	1895.57	1.84
303.15	0.9196	1896.67	1.84
303.15	0.9322	1896.86	1.84
303.15	0.9462	1897.21	1.85
303.15	0.9562	1897.81	1.85
303.15	0.9855	1898.92	1.85
308.15	0.011	1538.75	1.79
308.15	0.021	1556.37	1.79
308.15	0.0302	1571.78	1.79
308.15	0.0398	1587.3	1.79
308.15	0.0546	1609.57	1.79
308.15	0.0651	1624.6	1.79
308.15	0.0721	1634.28	1.8
308.15	0.0793	1643.59	1.8
308.15	0.0898	1656.87	1.8
308.15	0.0998	1668.89	1.8
308.15	0.1198	1690.78	1.8
308.15	0.1549	1724.33	1.8
308.15	0.2024	1760.1	1.8
308.15	0.2534	1789.3	1.8
308.15	0.2959	1808.1	1.8
308.15	0.3504	1826.67	1.81
308.15	0.4006	1839.66	1.81
308.15	0.4477	1849.04	1.81
308.15	0.4983	1857.61	1.82
308.15	0.5471	1863.38	1.82
308.15	0.6046	1868.95	1.82
308.15	0.6469	1872.24	1.82
308.15	0.7006	1875.71	1.83
308.15	0.7465	1878.38	1.83
308.15	0.7942	1880.88	1.83
308.15	0.8497	1883.56	1.84
308.15	0.8993	1884.63	1.84
308.15	0.9196	1885.55	1.84
308.15	0.9322	1885.84	1.84
308.15	0.9462	1886.34	1.85
308.15	0.9562	1886.62	1.85
308.15	0.9855	1887.47	1.85
293.15	0	1482.78	1.79
298.15	0	1496.99	1.79
303.15	0	1509.32	1.79
308.15	0	1519.89	1.79
293.15	1	1925.46	1.85
298.15	1	1911.91	1.85
303.15	1	1899.61	1.85
308.15	1	1888.11	1.85

System: glycerol + water; phases: Liquid
Fixed: Pressure, kPa = 92.3
Property: Viscosity, Pa*s (Liquid); method: Concentric cylinders viscometry
Temperature, K	Mole fraction of glycerol	Viscosity, Pa*s	uncertainty
293.15	0.0998	0.003277	0.000459
293.15	0.1549	0.0056618	0.000793
293.15	0.2534	0.013669	0.001914
293.15	0.2959	0.019733	0.002764
293.15	0.3504	0.0302	0.00423
293.15	0.4006	0.045084	0.006316
293.15	0.4477	0.063419	0.008887
293.15	0.4983	0.090213	0.012659
293.15	0.5471	0.12425	0.01747
293.15	0.6046	0.18207	0.0257
293.15	0.6469	0.23423	0.03317
293.15	0.7006	0.32203	0.04582
293.15	0.7465	0.41977	0.06002
293.15	0.7942	0.53566	0.07698
293.15	0.8497	0.70587	0.1021
293.15	0.8993	0.89716	0.13061
293.15	0.9462	1.1251	0.1649
298.15	0.0998	0.0026306	0.0003685
298.15	0.1549	0.0044156	0.0006184
298.15	0.2534	0.0104	0.001457
298.15	0.2959	0.014914	0.002089
298.15	0.3504	0.022908	0.003209
298.15	0.4006	0.03373	0.004725
298.15	0.4477	0.046856	0.006564
298.15	0.4983	0.065723	0.00921
298.15	0.5471	0.089213	0.012517
298.15	0.6046	0.12631	0.01776
298.15	0.6469	0.16354	0.02306
298.15	0.7006	0.22014	0.03114
298.15	0.7465	0.28391	0.04031
298.15	0.7942	0.35824	0.05106
298.15	0.8497	0.46379	0.06643
298.15	0.8993	0.58438	0.08412
298.15	0.9462	0.72578	0.10502
303.15	0.0998	0.0024049	0.0003369
303.15	0.1549	0.0039316	0.0005507
303.15	0.2534	0.0088071	0.0012335
303.15	0.2959	0.012343	0.001729
303.15	0.3504	0.01845	0.002584
303.15	0.4006	0.026454	0.003705
303.15	0.4477	0.036006	0.005044
303.15	0.4983	0.049183	0.00689
303.15	0.5471	0.065385	0.009162
303.15	0.6046	0.091755	0.012875
303.15	0.6469	0.11657	0.01638
303.15	0.7006	0.15403	0.0217
303.15	0.7465	0.19675	0.02779
303.15	0.7942	0.24524	0.03474
303.15	0.8497	0.31435	0.0447
303.15	0.8993	0.39129	0.05585
303.15	0.9462	0.47766	0.06844
308.15	0.0998	0.0021018	0.0002944
308.15	0.1549	0.0033855	0.0004742
308.15	0.2534	0.0074401	0.001042
308.15	0.2959	0.010246	0.001435
308.15	0.3504	0.01492	0.00209
308.15	0.4006	0.020874	0.002924
308.15	0.4477	0.027915	0.00391
308.15	0.4983	0.037432	0.005244
308.15	0.5471	0.04912	0.006881
308.15	0.6046	0.065972	0.009244
308.15	0.6469	0.085299	0.011964
308.15	0.7006	0.11101	0.0156
308.15	0.7465	0.14028	0.01974
308.15	0.7942	0.17249	0.02433
308.15	0.8497	0.21885	0.03095
308.15	0.8993	0.27027	0.03834
308.15	0.9462	0.32669	0.04648
293.15	0	0.0010673	0.0001496
298.15	0	0.00089689	0.00012572
303.15	0	0.0008385	0.00011754
308.15	0	0.00075887	0.0001064
293.15	1	1.4084	0.208
298.15	1	0.90044	0.13104
303.15	1	0.59309	0.08538
308.15	1	0.40176	0.05736
