Measured thermophysical data. Volumetric behaviour of amino acids and their group contributions in aqueous lactose solutions at different temperatures
Source: J. Chem. Thermodyn., 2011, 10.1016/j.jct.2010.08.004
Compound 1: 2-aminoacetic acid, C2H5NO2, InChI=1S/C2H5NO2/c3-1-2(4)5/h1,3H2,(H,4,5), purity 98%
Compound 2: (S)-2-aminopropanoic acid, C3H7NO2, InChI=1S/C3H7NO2/c1-2(4)3(5)6/h2H,4H2,1H3,(H,5,6)/t2-/m0/s1, purity 99%
Compound 3: L-valine, C5H11NO2, InChI=1S/C5H11NO2/c1-3(2)4(6)5(7)8/h3-4H,6H2,1-2H3,(H,7,8)/t4-/m0/s1, purity 99%
Compound 4: 4-O-.beta.-D-galactopyranosyl-D-glucose, C12H22O11, InChI=1S/C12H22O11/c13-1-4(16)7(18)11(5(17)2-14)23-12-10(21)9(20)8(19)6(3-15)22-12/h1,4-12,14-21H,2-3H2/t4-,5+,6+,7+,8-,9-,10+,11+,12-/m0/s1, purity 98%
Compound 5: water, H2O, InChI=1S/H2O/h1H2, purity 99.9%
Compound 6: L-leucine, C6H13NO2, InChI=1S/C6H13NO2/c1-4(2)3-5(7)6(8)9/h4-5H,3,7H2,1-2H3,(H,8,9)/t5-/m0/s1, purity 99%

System: L-valine + water; phases: Liquid
Fixed: Pressure, kPa = 101
Property: Mass density, kg/m3 (Liquid); method: Vibrating tube method
Temperature, K	Molality, mol/kg of L-valine	Mass density, kg/m3	uncertainty
293.15	0	998.219	0.034
293.15	0.04524	999.424	0.034
293.15	0.09973	1000.872	0.034
293.15	0.15199	1002.238	0.035
293.15	0.19636	1003.397	0.035
293.15	0.25422	1004.897	0.036
293.15	0.2955	1006.01	0.037
298.15	0	997.05	0.034
298.15	0.04524	998.244	0.034
298.15	0.09973	999.672	0.034
298.15	0.15199	1001.033	0.034
298.15	0.19636	1002.182	0.035
298.15	0.25422	1003.667	0.036
298.15	0.2955	1004.718	0.037
303.15	0	995.645	0.035
303.15	0.04524	996.827	0.035
303.15	0.09973	998.242	0.035
303.15	0.15199	999.59	0.034
303.15	0.19636	1000.729	0.035
303.15	0.25422	1002.201	0.036
303.15	0.2955	1003.245	0.036
308.15	0	994.02	0.036
308.15	0.04524	995.195	0.036
308.15	0.09973	996.6	0.035
308.15	0.15199	997.939	0.035
308.15	0.19636	999.067	0.035
308.15	0.25422	1000.527	0.035
308.15	0.2955	1001.561	0.036

System: L-leucine + water; phases: Liquid
Fixed: Pressure, kPa = 101
Property: Mass density, kg/m3 (Liquid); method: Vibrating tube method
Temperature, K	Molality, mol/kg of L-leucine	Mass density, kg/m3	uncertainty
293.15	0	998.219	0.034
293.15	0.03401	999.039	0.034
293.15	0.03488	999.061	0.034
293.15	0.05007	999.427	0.034
293.15	0.08154	1000.182	0.034
293.15	0.11898	1001.075	0.034
293.15	0.14274	1001.64	0.035
298.15	0	997.05	0.034
298.15	0.03401	997.855	0.035
298.15	0.03488	997.877	0.034
298.15	0.05007	998.236	0.034
298.15	0.08154	998.978	0.034
298.15	0.11898	999.854	0.034
298.15	0.14274	1000.41	0.034
303.15	0	995.645	0.035
303.15	0.03401	996.441	0.035
303.15	0.03488	996.462	0.035
303.15	0.05007	996.817	0.035
303.15	0.08154	997.55	0.035
303.15	0.11898	998.417	0.035
303.15	0.14274	998.966	0.035
308.15	0	994.02	0.036
308.15	0.03401	994.81	0.036
308.15	0.03488	994.83	0.036
308.15	0.05007	995.182	0.036
308.15	0.08154	995.908	0.036
308.15	0.11898	996.767	0.035
308.15	0.14274	997.31	0.035

System: 2-aminoacetic acid + water; phases: Liquid
Fixed: Pressure, kPa = 101
Property: Mass density, kg/m3 (Liquid); method: Vibrating tube method
Temperature, K	Molality, mol/kg of 2-aminoacetic acid	Mass density, kg/m3	uncertainty
293.15	0	998.219	0.034
293.15	0.05482	999.976	0.034
293.15	0.11064	1001.749	0.035
293.15	0.17921	1003.911	0.036
293.15	0.20435	1004.694	0.036
293.15	0.27545	1006.902	0.038
293.15	0.29661	1007.578	0.038
298.15	0	997.05	0.034
298.15	0.05482	998.789	0.034
298.15	0.11064	1000.545	0.034
298.15	0.17921	1002.68	0.036
298.15	0.20435	1003.457	0.036
298.15	0.27545	1005.644	0.037
298.15	0.29661	1006.284	0.038
303.15	0	995.645	0.035
303.15	0.05482	997.364	0.035
303.15	0.11064	999.102	0.035
303.15	0.17921	1001.223	0.035
303.15	0.20435	1001.996	0.036
303.15	0.27545	1004.172	0.037
303.15	0.29661	1004.814	0.037
308.15	0	994.02	0.036
308.15	0.05482	995.728	0.036
308.15	0.11064	997.455	0.035
308.15	0.17921	999.562	0.035
308.15	0.20435	1000.332	0.035
308.15	0.27545	1002.496	0.036
308.15	0.29661	1003.131	0.037

System: 2-aminoacetic acid + 4-O-.beta.-D-galactopyranosyl-D-glucose + water; phases: Liquid
Fixed: Solvent: Mass fraction of 4-O-.beta.-D-galactopyranosyl-D-glucose = 0.0397
Fixed: Pressure, kPa = 101
Property: Mass density, kg/m3 (Liquid); method: Vibrating tube method
Temperature, K	Molality, mol/kg of 2-aminoacetic acid	Mass density, kg/m3	uncertainty
293.15	0	1013.245	0.418
293.15	0.05031	1014.846	0.42
293.15	0.11135	1016.759	0.422
293.15	0.15179	1018.011	0.423
293.15	0.2002	1019.486	0.425
293.15	0.24643	1020.887	0.427
293.15	0.29921	1022.453	0.428
298.15	0	1011.996	0.416
298.15	0.05031	1013.576	0.418
298.15	0.11135	1015.47	0.42
298.15	0.15179	1016.709	0.422
298.15	0.2002	1018.167	0.424
298.15	0.24643	1019.56	0.425
298.15	0.29921	1021.116	0.427
303.15	0	1010.523	0.415
303.15	0.05031	1012.085	0.417
303.15	0.11135	1013.961	0.419
303.15	0.15179	1015.19	0.42
303.15	0.2002	1016.651	0.422
303.15	0.24643	1018.034	0.423
303.15	0.29921	1019.598	0.425
308.15	0	1008.841	0.413
308.15	0.05031	1010.391	0.415
308.15	0.11135	1012.252	0.417
308.15	0.15179	1013.471	0.418
308.15	0.2002	1014.922	0.42
308.15	0.24643	1016.296	0.421
308.15	0.29921	1017.849	0.423

System: 2-aminoacetic acid + 4-O-.beta.-D-galactopyranosyl-D-glucose + water; phases: Liquid
Fixed: Solvent: Mass fraction of 4-O-.beta.-D-galactopyranosyl-D-glucose = 0.0584
Fixed: Pressure, kPa = 101
Property: Mass density, kg/m3 (Liquid); method: Vibrating tube method
Temperature, K	Molality, mol/kg of 2-aminoacetic acid	Mass density, kg/m3	uncertainty
293.15	0	1020.434	0.426
293.15	0.05181	1022.07	0.428
293.15	0.10076	1023.606	0.43
293.15	0.15902	1025.42	0.432
293.15	0.20044	1026.697	0.433
293.15	0.25603	1028.395	0.435
293.15	0.28892	1029.399	0.436
298.15	0	1019.145	0.425
298.15	0.05181	1020.764	0.427
298.15	0.10076	1022.281	0.428
298.15	0.15902	1024.074	0.43
298.15	0.20044	1025.339	0.432
298.15	0.25603	1027.022	0.434
298.15	0.28892	1028.011	0.435
303.15	0	1017.634	0.423
303.15	0.05181	1019.236	0.425
303.15	0.10076	1020.74	0.427
303.15	0.15902	1022.517	0.429
303.15	0.20044	1023.771	0.43
303.15	0.25603	1025.445	0.432
303.15	0.28892	1026.43	0.433
308.15	0	1015.93	0.421
308.15	0.05181	1017.517	0.423
308.15	0.10076	1019.007	0.425
308.15	0.15902	1020.767	0.427
308.15	0.20044	1022.011	0.428
308.15	0.25603	1023.669	0.43
308.15	0.28892	1024.644	0.431

System: 2-aminoacetic acid + 4-O-.beta.-D-galactopyranosyl-D-glucose + water; phases: Liquid
Fixed: Solvent: Mass fraction of 4-O-.beta.-D-galactopyranosyl-D-glucose = 0.02
Fixed: Pressure, kPa = 101
Property: Mass density, kg/m3 (Liquid); method: Vibrating tube method
Temperature, K	Molality, mol/kg of 2-aminoacetic acid	Mass density, kg/m3	uncertainty
293.15	0	1005.719	0.409
293.15	0.04519	1007.174	0.411
293.15	0.1102	1009.241	0.413
293.15	0.16151	1010.849	0.415
293.15	0.20538	1012.207	0.417
293.15	0.24287	1013.362	0.418
293.15	0.29858	1015.057	0.42
298.15	0	1004.512	0.408
298.15	0.04519	1005.947	0.41
298.15	0.1102	1007.988	0.412
298.15	0.16151	1009.582	0.414
298.15	0.20538	1010.923	0.415
298.15	0.24287	1012.071	0.417
298.15	0.29858	1013.754	0.418
303.15	0	1003.074	0.406
303.15	0.04519	1004.495	0.408
303.15	0.1102	1006.518	0.41
303.15	0.16151	1008.095	0.412
303.15	0.20538	1009.425	0.414
303.15	0.24287	1010.562	0.415
303.15	0.29858	1012.232	0.417
308.15	0	1001.423	0.404
308.15	0.04519	1002.83	0.406
308.15	0.1102	1004.835	0.408
308.15	0.16151	1006.401	0.41
308.15	0.20538	1007.728	0.412
308.15	0.24287	1008.855	0.413
308.15	0.29858	1010.513	0.415

System: (S)-2-aminopropanoic acid + 4-O-.beta.-D-galactopyranosyl-D-glucose + water; phases: Liquid
Fixed: Solvent: Mass fraction of 4-O-.beta.-D-galactopyranosyl-D-glucose = 0.0212
Fixed: Pressure, kPa = 101
Property: Mass density, kg/m3 (Liquid); method: Vibrating tube method
Temperature, K	Molality, mol/kg of (S)-2-aminopropanoic acid	Mass density, kg/m3	uncertainty
293.15	0	1006.173	0.247
293.15	0.05319	1007.684	0.248
293.15	0.09804	1008.947	0.249
293.15	0.15416	1010.518	0.251
293.15	0.19488	1011.649	0.252
293.15	0.24413	1013.001	0.253
293.15	0.32455	1015.189	0.255
298.15	0	1004.957	0.246
298.15	0.05319	1006.462	0.247
298.15	0.09804	1007.718	0.248
298.15	0.15416	1009.272	0.25
298.15	0.19488	1010.389	0.251
298.15	0.24413	1011.728	0.252
298.15	0.32455	1013.884	0.253
303.15	0	1003.515	0.245
303.15	0.05319	1005.003	0.246
303.15	0.09804	1006.247	0.247
303.15	0.15416	1007.79	0.249
303.15	0.19488	1008.905	0.249
303.15	0.24413	1010.234	0.251
303.15	0.32455	1012.404	0.252
308.15	0	1001.861	0.244
308.15	0.05319	1003.34	0.245
308.15	0.09804	1004.577	0.246
308.15	0.15416	1006.11	0.247
308.15	0.19488	1007.213	0.248
308.15	0.24413	1008.537	0.249
308.15	0.32455	1010.677	0.251

System: (S)-2-aminopropanoic acid + 4-O-.beta.-D-galactopyranosyl-D-glucose + water; phases: Liquid
Fixed: Solvent: Mass fraction of 4-O-.beta.-D-galactopyranosyl-D-glucose = 0.0592
Fixed: Pressure, kPa = 101
Property: Mass density, kg/m3 (Liquid); method: Vibrating tube method
Temperature, K	Molality, mol/kg of (S)-2-aminopropanoic acid	Mass density, kg/m3	uncertainty
293.15	0	1020.737	0.259
293.15	0.05906	1022.376	0.26
293.15	0.1021	1023.559	0.261
293.15	0.1476	1024.796	0.262
293.15	0.21007	1026.478	0.264
293.15	0.24103	1027.302	0.265
293.15	0.28869	1028.565	0.266
298.15	0	1019.447	0.258
298.15	0.05906	1021.07	0.259
298.15	0.1021	1022.24	0.26
298.15	0.1476	1023.467	0.261
298.15	0.21007	1025.135	0.263
298.15	0.24103	1025.95	0.263
298.15	0.28869	1027.202	0.264
303.15	0	1017.935	0.257
303.15	0.05906	1019.545	0.258
303.15	0.1021	1020.707	0.259
303.15	0.1476	1021.928	0.26
303.15	0.21007	1023.587	0.261
303.15	0.24103	1024.401	0.262
303.15	0.28869	1025.65	0.263
308.15	0	1016.225	0.255
308.15	0.05906	1017.819	0.257
308.15	0.1021	1018.972	0.258
308.15	0.1476	1020.184	0.259
308.15	0.21007	1021.835	0.26
308.15	0.24103	1022.648	0.261
308.15	0.28869	1023.891	0.262

System: (S)-2-aminopropanoic acid + 4-O-.beta.-D-galactopyranosyl-D-glucose + water; phases: Liquid
Fixed: Solvent: Mass fraction of 4-O-.beta.-D-galactopyranosyl-D-glucose = 0.0394
Fixed: Pressure, kPa = 101
Property: Mass density, kg/m3 (Liquid); method: Vibrating tube method
Temperature, K	Molality, mol/kg of (S)-2-aminopropanoic acid	Mass density, kg/m3	uncertainty
293.15	0	1013.315	0.253
293.15	0.05829	1014.952	0.254
293.15	0.10803	1016.338	0.255
293.15	0.15002	1017.499	0.256
293.15	0.19743	1018.802	0.258
293.15	0.25318	1020.322	0.259
293.15	0.31114	1021.89	0.26
298.15	0	1012.059	0.252
298.15	0.05829	1013.691	0.253
298.15	0.10803	1015.07	0.254
298.15	0.15002	1016.224	0.255
298.15	0.19743	1017.516	0.256
298.15	0.25318	1019.02	0.258
298.15	0.31114	1020.568	0.259
303.15	0	1010.58	0.251
303.15	0.05829	1012.194	0.252
303.15	0.10803	1013.558	0.253
303.15	0.15002	1014.702	0.254
303.15	0.19743	1015.983	0.255
303.15	0.25318	1017.478	0.256
303.15	0.31114	1019.029	0.258
308.15	0	1008.897	0.249
308.15	0.05829	1010.5	0.251
308.15	0.10803	1011.856	0.252
308.15	0.15002	1012.991	0.253
308.15	0.19743	1014.264	0.254
308.15	0.25318	1015.749	0.255
308.15	0.31114	1017.279	0.256

System: 4-O-.beta.-D-galactopyranosyl-D-glucose + L-valine + water; phases: Liquid
Fixed: Solvent: Mass fraction of 4-O-.beta.-D-galactopyranosyl-D-glucose = 0.0206
Fixed: Pressure, kPa = 101
Property: Mass density, kg/m3 (Liquid); method: Vibrating tube method
Temperature, K	Molality, mol/kg of L-valine	Mass density, kg/m3	uncertainty
293.15	0	1005.924	0.247
293.15	0.05162	1007.279	0.248
293.15	0.10621	1008.692	0.249
293.15	0.14958	1009.805	0.25
293.15	0.19905	1011.057	0.251
293.15	0.24951	1012.319	0.252
293.15	0.30083	1013.593	0.253
298.15	0	1004.714	0.246
298.15	0.05162	1006.05	0.247
298.15	0.10621	1007.447	0.248
298.15	0.14958	1008.543	0.249
298.15	0.19905	1009.788	0.25
298.15	0.24951	1011.038	0.251
298.15	0.30083	1012.299	0.252
303.15	0	1003.271	0.245
303.15	0.05162	1004.599	0.246
303.15	0.10621	1005.983	0.247
303.15	0.14958	1007.073	0.248
303.15	0.19905	1008.301	0.249
303.15	0.24951	1009.538	0.25
303.15	0.30083	1010.786	0.251
308.15	0	1001.623	0.244
308.15	0.05162	1002.936	0.245
308.15	0.10621	1004.308	0.246
308.15	0.14958	1005.384	0.247
308.15	0.19905	1006.606	0.248
308.15	0.24951	1007.834	0.249
308.15	0.30083	1009.071	0.25

System: 4-O-.beta.-D-galactopyranosyl-D-glucose + L-valine + water; phases: Liquid
Fixed: Solvent: Mass fraction of 4-O-.beta.-D-galactopyranosyl-D-glucose = 0.04
Fixed: Pressure, kPa = 101
Property: Mass density, kg/m3 (Liquid); method: Vibrating tube method
Temperature, K	Molality, mol/kg of L-valine	Mass density, kg/m3	uncertainty
293.15	0	1013.334	0.253
293.15	0.05525	1014.745	0.254
293.15	0.09548	1015.761	0.255
293.15	0.14717	1017.055	0.256
293.15	0.20672	1018.53	0.257
293.15	0.25278	1019.644	0.258
293.15	0.29624	1020.69	0.259
298.15	0	1012.08	0.252
298.15	0.05525	1013.477	0.253
298.15	0.09548	1014.481	0.254
298.15	0.14717	1015.759	0.255
298.15	0.20672	1017.22	0.256
298.15	0.25278	1018.322	0.257
298.15	0.29624	1019.352	0.258
303.15	0	1010.606	0.251
303.15	0.05525	1011.987	0.252
303.15	0.09548	1012.981	0.253
303.15	0.14717	1014.247	0.254
303.15	0.20672	1015.69	0.255
303.15	0.25278	1016.787	0.256
303.15	0.29624	1017.81	0.257
308.15	0	1008.924	0.249
308.15	0.05525	1010.291	0.251
308.15	0.09548	1011.276	0.251
308.15	0.14717	1012.53	0.252
308.15	0.20672	1013.961	0.254
308.15	0.25278	1015.051	0.254
308.15	0.29624	1016.07	0.255

System: 4-O-.beta.-D-galactopyranosyl-D-glucose + L-valine + water; phases: Liquid
Fixed: Solvent: Mass fraction of 4-O-.beta.-D-galactopyranosyl-D-glucose = 0.0619
Fixed: Pressure, kPa = 101
Property: Mass density, kg/m3 (Liquid); method: Vibrating tube method
Temperature, K	Molality, mol/kg of L-valine	Mass density, kg/m3	uncertainty
293.15	0	1021.598	0.26
293.15	0.05494	1022.966	0.261
293.15	0.1021	1024.123	0.262
293.15	0.15256	1025.344	0.263
293.15	0.19479	1026.351	0.264
293.15	0.24284	1027.48	0.265
293.15	0.28498	1028.46	0.265
298.15	0	1020.301	0.259
298.15	0.05494	1021.651	0.26
298.15	0.1021	1022.795	0.261
298.15	0.15256	1024.002	0.262
298.15	0.19479	1025.001	0.263
298.15	0.24284	1026.125	0.264
298.15	0.28498	1027.098	0.264
303.15	0	1018.786	0.258
303.15	0.05494	1020.123	0.259
303.15	0.1021	1021.256	0.26
303.15	0.15256	1022.452	0.261
303.15	0.19479	1023.438	0.261
303.15	0.24284	1024.548	0.262
303.15	0.28498	1025.508	0.263
308.15	0	1017.08	0.256
308.15	0.05494	1018.398	0.257
308.15	0.1021	1019.515	0.258
308.15	0.15256	1020.698	0.259
308.15	0.19479	1021.675	0.26
308.15	0.24284	1022.775	0.261
308.15	0.28498	1023.725	0.262

System: L-leucine + 4-O-.beta.-D-galactopyranosyl-D-glucose + water; phases: Liquid
Fixed: Solvent: Mass fraction of 4-O-.beta.-D-galactopyranosyl-D-glucose = 0.0205
Fixed: Pressure, kPa = 101
Property: Mass density, kg/m3 (Liquid); method: Vibrating tube method
Temperature, K	Molality, mol/kg of L-leucine	Mass density, kg/m3	uncertainty
293.15	0	1005.899	0.247
293.15	0.03136	1006.64	0.248
293.15	0.05356	1007.159	0.248
293.15	0.07971	1007.766	0.248
293.15	0.0994	1008.218	0.249
293.15	0.11518	1008.575	0.249
293.15	0.14899	1009.342	0.25
298.15	0	1004.687	0.246
298.15	0.03136	1005.411	0.247
298.15	0.05356	1005.918	0.247
298.15	0.07971	1006.511	0.247
298.15	0.0994	1006.955	0.248
298.15	0.11518	1007.308	0.248
298.15	0.14899	1008.056	0.249
303.15	0	1003.244	0.245
303.15	0.03136	1003.959	0.245
303.15	0.05356	1004.46	0.246
303.15	0.07971	1005.046	0.246
303.15	0.0994	1005.48	0.247
303.15	0.11518	1005.826	0.247
303.15	0.14899	1006.563	0.248
308.15	0	1001.594	0.243
308.15	0.03136	1002.302	0.244
308.15	0.05356	1002.798	0.244
308.15	0.07971	1003.375	0.245
308.15	0.0994	1003.805	0.245
308.15	0.11518	1004.149	0.246
308.15	0.14899	1004.878	0.246

System: L-leucine + 4-O-.beta.-D-galactopyranosyl-D-glucose + water; phases: Liquid
Fixed: Solvent: Mass fraction of 4-O-.beta.-D-galactopyranosyl-D-glucose = 0.036
Fixed: Pressure, kPa = 101
Property: Mass density, kg/m3 (Liquid); method: Vibrating tube method
Temperature, K	Molality, mol/kg of L-leucine	Mass density, kg/m3	uncertainty
293.15	0	1011.794	0.252
293.15	0.0285	1012.454	0.252
293.15	0.0517	1012.986	0.253
293.15	0.07984	1013.625	0.253
293.15	0.09246	1013.909	0.254
293.15	0.11638	1014.443	0.254
293.15	0.14326	1015.038	0.254
298.15	0	1010.56	0.251
298.15	0.0285	1011.204	0.251
298.15	0.0517	1011.722	0.252
298.15	0.07984	1012.343	0.252
298.15	0.09246	1012.617	0.252
298.15	0.11638	1013.136	0.253
298.15	0.14326	1013.715	0.253
303.15	0	1009.09	0.25
303.15	0.0285	1009.726	0.25
303.15	0.0517	1010.235	0.251
303.15	0.07984	1010.847	0.251
303.15	0.09246	1011.117	0.251
303.15	0.11638	1011.625	0.252
303.15	0.14326	1012.189	0.252
308.15	0	1007.419	0.248
308.15	0.0285	1008.049	0.249
308.15	0.0517	1008.555	0.249
308.15	0.07984	1009.162	0.25
308.15	0.09246	1009.431	0.25
308.15	0.11638	1009.938	0.25
308.15	0.14326	1010.501	0.251

System: L-leucine + 4-O-.beta.-D-galactopyranosyl-D-glucose + water; phases: Liquid
Fixed: Solvent: Mass fraction of 4-O-.beta.-D-galactopyranosyl-D-glucose = 0.0594
Fixed: Pressure, kPa = 101
Property: Mass density, kg/m3 (Liquid); method: Vibrating tube method
Temperature, K	Molality, mol/kg of L-leucine	Mass density, kg/m3	uncertainty
293.15	0	1021.314	0.26
293.15	0.02637	1021.897	0.26
293.15	0.04915	1022.397	0.26
293.15	0.07573	1022.975	0.261
293.15	0.09047	1023.295	0.261
293.15	0.11108	1023.738	0.262
293.15	0.13414	1024.231	0.262
298.15	0	1020.022	0.259
298.15	0.02637	1020.596	0.259
298.15	0.04915	1021.088	0.259
298.15	0.07573	1021.656	0.26
298.15	0.09047	1021.969	0.26
298.15	0.11108	1022.404	0.26
298.15	0.13414	1022.887	0.261
303.15	0	1018.507	0.257
303.15	0.02637	1019.069	0.258
303.15	0.04915	1019.551	0.258
303.15	0.07573	1020.11	0.259
303.15	0.09047	1020.418	0.259
303.15	0.11108	1020.846	0.259
303.15	0.13414	1021.324	0.26
308.15	0	1016.797	0.256
308.15	0.02637	1017.349	0.256
308.15	0.04915	1017.823	0.257
308.15	0.07573	1018.372	0.257
308.15	0.09047	1018.676	0.257
308.15	0.11108	1019.097	0.258
308.15	0.13414	1019.566	0.258
