Measured thermophysical data. Measurements of bubble point pressure and saturated liquid density for ((R1234yf + R290))
Source: J. Chem. Thermodyn., 2018, 10.1016/j.jct.2017.10.016
Compound 1: 2,3,3,3-tetrafluoro-1-propene, C3H2F4, InChI=1S/C3H2F4/c1-2(4)3(5,6)7/h1H2, purity 99.9%
Compound 2: propane, C3H8, InChI=1S/C3H8/c1-3-2/h3H2,1-2H3, purity 99.9%

System: 2,3,3,3-tetrafluoro-1-propene + propane; phases: Liquid, Gas
Property: Vapor or sublimation pressure, kPa (Liquid); method: Closed cell (Static) method
Temperature, K	Mole fraction of 2,3,3,3-tetrafluoro-1-propene	Vapor or sublimation pressure, kPa	uncertainty
299.859	0.113	1050.3	5.1
295.005	0.113	932	4.9
290.022	0.113	818.1	4.7
284.934	0.113	712.3	4.6
280.008	0.113	619.4	4.4
274.959	0.113	532.8	4.3
270.159	0.113	458	4.3
290.023	0.217	837.2	4.7
284.906	0.217	728.5	4.5
279.909	0.217	632.3	4.4
274.83	0.217	544.6	4.3
269.891	0.217	467.5	4.2
264.947	0.217	398.3	4.2
260.217	0.217	337	4.1
255.048	0.217	282.7	4.1
294.958	0.322	959.3	4.9
290.084	0.322	841.2	4.7
284.897	0.322	730.3	4.5
280.026	0.322	637.1	4.4
275.196	0.322	548.9	4.3
269.948	0.322	469	4.2
264.816	0.322	398.7	4.2
259.895	0.322	336.6	4.1
255.243	0.322	284	4.1
299.041	0.422	1051.9	5.3
294.96	0.422	945.8	5
289.967	0.422	828.7	4.7
284.967	0.422	722.6	4.6
279.978	0.422	626.2	4.5
275.159	0.422	539.1	4.3
270.15	0.422	465.9	4.3
265.384	0.422	401.2	4.2
260.268	0.422	335.8	4.1
257.01	0.422	300.4	4.1
299.908	0.533	1041.4	5.3
294.971	0.533	921.4	5.1
290.005	0.533	807.1	4.8
289.939	0.533	806.2	4.8
284.946	0.533	700.3	4.7
280.171	0.533	608.5	4.5
274.77	0.533	521.7	4.4
269.808	0.533	448.6	4.2
264.852	0.533	381	4.2
259.898	0.533	321.3	4.1
300.135	0.625	1013.5	5.4
295.22	0.625	894.1	5.1
290.113	0.625	781.2	4.9
285.177	0.625	680.9	4.6
280.144	0.625	590.8	4.4
275.021	0.625	507.1	4.4

System: 2,3,3,3-tetrafluoro-1-propene + propane; phases: Liquid, Gas
Property: Mass density, kg/m3 (Liquid); method: Buoyancy - hydrostatic balance with magnetic suspension - one sinker
Temperature, K	Mole fraction of 2,3,3,3-tetrafluoro-1-propene	Mass density, kg/m3	uncertainty
299.859	0.113	558.16	3.5
295.005	0.113	567.56	3.51
290.022	0.113	576.78	3.58
284.934	0.113	585.81	3.66
280.008	0.113	594.34	3.73
274.959	0.113	602.76	3.79
270.159	0.113	610.61	3.85
290.023	0.217	638.62	3.57
284.906	0.217	649.05	3.65
279.909	0.217	658.85	3.71
274.83	0.217	668.53	3.77
269.891	0.217	677.65	3.83
264.947	0.217	686.56	3.85
260.217	0.217	695.43	3.86
255.048	0.217	705.65	3.85
294.958	0.322	689.46	3.56
290.084	0.322	700.83	3.63
284.897	0.322	712.55	3.68
280.026	0.322	723.1	3.69
275.196	0.322	733.29	3.73
269.948	0.322	744.13	3.78
264.816	0.322	754.19	3.8
259.895	0.322	763.53	3.81
255.243	0.322	772.45	3.85
299.041	0.422	742.17	3.44
294.96	0.422	750.87	3.6
289.967	0.422	762.51	3.62
284.967	0.422	774.16	3.66
279.978	0.422	784.38	3.7
275.159	0.422	794.82	3.76
270.15	0.422	805.93	3.78
265.384	0.422	815.01	3.81
260.268	0.422	825.19	3.83
257.01	0.422	831.62	3.78
299.908	0.533	803.63	3.42
294.971	0.533	815.76	3.5
290.005	0.533	827.87	3.56
289.939	0.533	828.05	3.56
284.946	0.533	840.56	3.6
280.171	0.533	852.23	3.68
274.77	0.533	865.74	3.72
269.808	0.533	876.78	3.8
264.852	0.533	887.37	3.86
259.898	0.533	897.69	3.9
300.135	0.625	854.48	3.38
295.22	0.625	868.11	3.47
290.113	0.625	882	3.56
285.177	0.625	895.02	3.6
280.144	0.625	907.78	3.63
275.021	0.625	920.19	3.61
