Measured thermophysical data. Volumetric behavior of the ternary system (methyl tert-butyl ether + methylbenzene + butan-1-ol) and its binary sub-system (methyl tert-butyl ether + butan-1-ol) within the temperature range (298.15 to 328.15) K
Source: J. Chem. Thermodyn., 2015, 10.1016/j.jct.2015.06.009
Compound 1: 2-methoxy-2-methylpropane, C5H12O, InChI=1S/C5H12O/c1-5(2,3)6-4/h1-4H3, purity 99.5%
Compound 2: toluene, C7H8, InChI=1S/C7H8/c1-7-5-3-2-4-6-7/h2-6H,1H3, purity 99.9%
Compound 3: butan-1-ol, C4H10O, InChI=1S/C4H10O/c1-2-3-4-5/h5H,2-4H2,1H3, purity 99.8%

System: 2-methoxy-2-methylpropane; phases: Liquid
Property: Refractive index (Na D-line) (Liquid); method: Standard Abbe refractometry
Temperature, K	Pressure, kPa	Refractive index (Na D-line)	uncertainty
298.15	101.325	1.36648	0.00031

System: 2-methoxy-2-methylpropane; phases: Liquid
Fixed: Pressure, kPa = 101
Property: Mass density, kg/m3 (Liquid); method: Vibrating tube method
Temperature, K	Mass density, kg/m3	uncertainty
298.15	735.21	0.16
308.15	724.64	0.16
318.15	714	0.17
328.15	703.29	0.17

System: 2-methoxy-2-methylpropane; phases: Liquid
Fixed: Pressure, kPa = 101
Fixed: Frequency, MHz = 3
Property: Speed of sound, m/s (Liquid); method: Sing-around technique in a fixed-path interferometer
Temperature, K	Speed of sound, m/s	uncertainty
298.15	1036.27	1.13
308.15	990.46	1.12
318.15	944.87	1.12

System: toluene; phases: Liquid
Property: Refractive index (Na D-line) (Liquid); method: Standard Abbe refractometry
Temperature, K	Pressure, kPa	Refractive index (Na D-line)	uncertainty
298.15	101.325	1.49393	0.00031

System: toluene; phases: Liquid
Fixed: Pressure, kPa = 101
Property: Mass density, kg/m3 (Liquid); method: Vibrating tube method
Temperature, K	Mass density, kg/m3	uncertainty
298.15	862.18	0.13
308.15	852.87	0.13
318.15	843.58	0.13
328.15	834.29	0.13

System: toluene; phases: Liquid
Fixed: Pressure, kPa = 101
Fixed: Frequency, MHz = 3
Property: Speed of sound, m/s (Liquid); method: Sing-around technique in a fixed-path interferometer
Temperature, K	Speed of sound, m/s	uncertainty
298.15	1305.33	1.17
308.15	1262.52	1.16
318.15	1220.25	1.16
328.15	1178.53	1.15

System: butan-1-ol; phases: Liquid
Property: Refractive index (Na D-line) (Liquid); method: Standard Abbe refractometry
Temperature, K	Pressure, kPa	Refractive index (Na D-line)	uncertainty
298.15	101.325	1.39733	0.00031

System: butan-1-ol; phases: Liquid
Fixed: Pressure, kPa = 101
Property: Mass density, kg/m3 (Liquid); method: Vibrating tube method
Temperature, K	Mass density, kg/m3	uncertainty
298.15	805.73	0.14
308.15	798.07	0.15
318.15	790.37	0.15
328.15	782.58	0.15

System: butan-1-ol; phases: Liquid
Fixed: Pressure, kPa = 101
Fixed: Frequency, MHz = 3
Property: Speed of sound, m/s (Liquid); method: Sing-around technique in a fixed-path interferometer
Temperature, K	Speed of sound, m/s	uncertainty
298.15	1240.02	1.18
308.15	1206.63	1.17
318.15	1173.37	1.17
328.15	1140.42	1.16

System: butan-1-ol + 2-methoxy-2-methylpropane; phases: Liquid
Fixed: Pressure, kPa = 101
Property: Mass density, kg/m3 (Liquid); method: Vibrating tube method
Temperature, K	Mole fraction of 2-methoxy-2-methylpropane	Mass density, kg/m3	uncertainty
298.15	1	735.22	0.16
298.15	0.9367	739.95	0.16
298.15	0.87553	744.44	0.16
298.15	0.79526	750.27	0.16
298.15	0.73469	754.56	0.16
298.15	0.6708	759.06	0.16
298.15	0.60012	764.05	0.15
298.15	0.54509	768.04	0.15
298.15	0.46519	773.54	0.15
298.15	0.39158	778.65	0.15
298.15	0.34009	782.26	0.15
298.15	0.26466	787.54	0.15
298.15	0.19301	792.46	0.15
298.15	0.13153	796.77	0.15
298.15	0.06569	801.27	0.15
298.15	0.03132	803.61	0.15
298.15	0	805.73	0.14
308.15	1	724.64	0.16
308.15	0.9367	729.44	0.16
308.15	0.87553	734.2	0.16
308.15	0.79526	740.28	0.16
308.15	0.73469	744.74	0.16
308.15	0.6708	749.44	0.16
308.15	0.60012	754.64	0.16
308.15	0.54509	758.63	0.16
308.15	0.46519	764.48	0.15
308.15	0.39158	769.83	0.15
308.15	0.34009	773.61	0.15
308.15	0.26466	779.11	0.15
308.15	0.19301	784.25	0.15
308.15	0.13153	788.76	0.15
308.15	0.06569	793.42	0.15
308.15	0.03132	795.86	0.15
308.15	0	798.07	0.15
318.15	1	714.01	0.17
318.15	0.9367	719.05	0.17
318.15	0.87553	723.89	0.16
318.15	0.79526	730.2	0.16
318.15	0.73469	734.85	0.16
318.15	0.6708	739.77	0.16
318.15	0.60012	745.19	0.16
318.15	0.54509	749.33	0.16
318.15	0.46519	755.43	0.16
318.15	0.39158	761.01	0.16
318.15	0.34009	764.93	0.15
318.15	0.26466	770.65	0.15
318.15	0.19301	775.99	0.15
318.15	0.13153	780.66	0.15
318.15	0.06569	785.54	0.15
318.15	0.03132	788.07	0.15
318.15	0	790.37	0.15
328.15	1	703.38	0.17
328.15	0.9367	708.44	0.17
328.15	0.87553	713.5	0.17
328.15	0.73469	724.9	0.16
328.15	0.6708	729.95	0.16
328.15	0.60012	735.66	0.16
328.15	0.54509	739.91	0.16
328.15	0.46519	746.28	0.16
328.15	0.39158	752.07	0.16
328.15	0.34009	756.13	0.16
328.15	0.26466	762.09	0.16
328.15	0.19301	767.64	0.15
328.15	0.13153	772.49	0.15
328.15	0.06569	777.56	0.15
328.15	0.03132	780.19	0.15
328.15	0	782.58	0.15

System: butan-1-ol + 2-methoxy-2-methylpropane; phases: Liquid
Fixed: Pressure, kPa = 101
Fixed: Frequency, MHz = 3
Property: Speed of sound, m/s (Liquid); method: Sing-around technique in a fixed-path interferometer
Temperature, K	Mole fraction of 2-methoxy-2-methylpropane	Speed of sound, m/s	uncertainty
298.15	1	1036.36	1.13
298.15	0.9367	1050.64	1.13
298.15	0.87553	1063.64	1.14
298.15	0.79526	1079.53	1.14
298.15	0.73469	1091.27	1.14
298.15	0.6708	1103.53	1.15
298.15	0.60012	1117.3	1.15
298.15	0.54509	1128.27	1.15
298.15	0.46519	1144.35	1.16
298.15	0.39158	1159.35	1.16
298.15	0.34009	1170.28	1.16
298.15	0.26466	1185.73	1.17
298.15	0.19301	1200.68	1.17
298.15	0.13153	1213.63	1.17
298.15	0.06569	1227.03	1.18
298.15	0.03132	1233.87	1.18
298.15	0	1240.02	1.18
308.15	1	990.57	1.12
308.15	0.9367	1005.42	1.13
308.15	0.87553	1019.05	1.13
308.15	0.79526	1036.04	1.13
308.15	0.73469	1048.42	1.14
308.15	0.6708	1061.45	1.14
308.15	0.60012	1076.09	1.14
308.15	0.54509	1087.4	1.14
308.15	0.46519	1104.62	1.15
308.15	0.39158	1120.54	1.15
308.15	0.34009	1131.88	1.15
308.15	0.26466	1148.58	1.16
308.15	0.19301	1164.51	1.16
308.15	0.13153	1178.39	1.17
308.15	0.06569	1192.65	1.17
308.15	0.03132	1199.98	1.17
308.15	0	1206.63	1.17
318.15	1	944.94	1.12
318.15	0.9367	960.39	1.12
318.15	0.87553	974.75	1.12
318.15	0.79526	992.74	1.13
318.15	0.73469	1005.68	1.13
318.15	0.6708	1019.51	1.13
318.15	0.60012	1034.93	1.14
318.15	0.54509	1047.16	1.14
318.15	0.46519	1065.25	1.14
318.15	0.39158	1081.97	1.15
318.15	0.34009	1094.05	1.15
318.15	0.26466	1111.66	1.15
318.15	0.19301	1128.46	1.16
318.15	0.13153	1143.03	1.16
318.15	0.06569	1158.43	1.16
318.15	0.03132	1166.28	1.17
318.15	0	1173.37	1.17
328.15	0.9367	917.28	1.11
328.15	0.87553	932.29	1.12
328.15	0.73469	963.43	1.12
328.15	0.6708	978.48	1.13
328.15	0.60012	995.48	1.13
328.15	0.54509	1007.01	1.13
328.15	0.46519	1026.32	1.14
328.15	0.39158	1043.76	1.14
328.15	0.34009	1056.37	1.14
328.15	0.26466	1075.02	1.15
328.15	0.19301	1092.71	1.15
328.15	0.13153	1108.19	1.15
328.15	0.06569	1124.39	1.16
328.15	0.03132	1132.81	1.16
328.15	0	1140.42	1.16

System: butan-1-ol + toluene + 2-methoxy-2-methylpropane; phases: Liquid
Fixed: Pressure, kPa = 101
Property: Mass density, kg/m3 (Liquid); method: Vibrating tube method
Temperature, K	Mole fraction of 2-methoxy-2-methylpropane	Mole fraction of toluene	Mass density, kg/m3	uncertainty
298.15	1	0	735.2	0.16
298.15	0.95107	0.00983	739.45	0.16
298.15	0.88903	0.02229	744.66	0.16
298.15	0.82446	0.03525	750.03	0.16
298.15	0.74068	0.05208	757.02	0.16
298.15	0.67429	0.06541	762.55	0.15
298.15	0.57938	0.08447	770.44	0.15
298.15	0.51895	0.09661	775.55	0.15
298.15	0.43731	0.113	782.26	0.15
298.15	0.36421	0.12768	788.45	0.15
298.15	0.29075	0.14243	794.56	0.15
298.15	0.22817	0.155	799.8	0.14
298.15	0.14989	0.17072	806.38	0.14
298.15	0.07766	0.18523	812.36	0.14
298.15	0	0.20082	818.72	0.14
308.15	1	0	724.62	0.16
308.15	0.95107	0.00983	728.98	0.16
308.15	0.88903	0.02229	734.35	0.16
308.15	0.82446	0.03525	739.88	0.16
308.15	0.74068	0.05208	747.09	0.16
308.15	0.67429	0.06541	752.79	0.16
308.15	0.57938	0.08447	760.91	0.15
308.15	0.51895	0.09661	766.15	0.15
308.15	0.43731	0.113	773.08	0.15
308.15	0.36421	0.12768	779.44	0.15
308.15	0.29075	0.14243	785.71	0.15
308.15	0.22817	0.155	791.09	0.15
308.15	0.14989	0.17072	797.83	0.15
308.15	0.07766	0.18523	803.96	0.14
308.15	0	0.20082	810.48	0.14
318.15	1	0	713.98	0.17
318.15	0.95107	0.00983	718.46	0.17
318.15	0.88903	0.02229	723.99	0.16
318.15	0.82446	0.03525	729.67	0.16
318.15	0.74068	0.05208	737.09	0.16
318.15	0.67429	0.06541	742.97	0.16
318.15	0.57938	0.08447	751.33	0.16
318.15	0.51895	0.09661	756.75	0.16
318.15	0.43731	0.113	763.86	0.15
318.15	0.36421	0.12768	770.38	0.15
318.15	0.29075	0.14243	776.82	0.15
318.15	0.22817	0.155	782.34	0.15
318.15	0.14989	0.17072	789.24	0.15
318.15	0.07766	0.18523	795.52	0.15
318.15	0	0.20082	802.18	0.14
328.15	1	0	703.21	0.17
328.15	0.88903	0.02229	713.55	0.17
328.15	0.82446	0.03525	719.34	0.17
328.15	0.74068	0.05208	727.01	0.16
328.15	0.67429	0.06541	733.03	0.16
328.15	0.57938	0.08447	741.7	0.16
328.15	0.51895	0.09661	747.16	0.16
328.15	0.43731	0.113	754.51	0.16
328.15	0.36421	0.12768	761.22	0.15
328.15	0.29075	0.14243	767.82	0.15
328.15	0.22817	0.155	773.47	0.15
328.15	0.14989	0.17072	780.54	0.15
328.15	0.07766	0.18523	786.96	0.15
328.15	0	0.20082	793.77	0.15
298.15	1	0	735.2	0.16
298.15	0.89207	0.04387	745.47	0.16
298.15	0.82329	0.07182	752.03	0.16
298.15	0.74598	0.10324	759.4	0.15
298.15	0.68046	0.12987	765.67	0.15
298.15	0.62772	0.15131	770.64	0.15
298.15	0.55889	0.17929	777.23	0.15
298.15	0.47879	0.21184	784.9	0.15
298.15	0.41365	0.23831	791.13	0.15
298.15	0.34964	0.26433	797.26	0.14
298.15	0.26842	0.29734	804.95	0.14
298.15	0.19532	0.32705	812.1	0.14
298.15	0.11839	0.35832	819.48	0.14
298.15	0.06896	0.37841	824.14	0.14
298.15	0	0.40644	830.53	0.14
308.15	1	0	724.63	0.16
308.15	0.89207	0.04387	735.12	0.16
308.15	0.82329	0.07182	741.83	0.16
308.15	0.74598	0.10324	749.37	0.16
308.15	0.68046	0.12987	755.78	0.16
308.15	0.62772	0.15131	760.86	0.15
308.15	0.55889	0.17929	767.59	0.15
308.15	0.47879	0.21184	775.42	0.15
308.15	0.41365	0.23831	781.77	0.15
308.15	0.34964	0.26433	788.02	0.15
308.15	0.26842	0.29734	795.84	0.15
308.15	0.19532	0.32705	803.11	0.14
308.15	0.11839	0.35832	810.59	0.14
308.15	0.06896	0.37841	815.33	0.14
308.15	0	0.40644	821.82	0.14
318.15	1	0	713.98	0.17
318.15	0.89207	0.04387	724.72	0.16
318.15	0.82329	0.07182	731.58	0.16
318.15	0.74598	0.10324	739.29	0.16
318.15	0.68046	0.12987	745.84	0.16
318.15	0.62772	0.15131	751.04	0.16
318.15	0.55889	0.17929	757.93	0.15
318.15	0.47879	0.21184	765.88	0.15
318.15	0.41365	0.23831	772.36	0.15
318.15	0.34964	0.26433	778.72	0.15
318.15	0.26842	0.29734	786.68	0.15
318.15	0.19532	0.32705	794.06	0.15
318.15	0.11839	0.35832	801.66	0.14
318.15	0.06896	0.37841	806.46	0.14
318.15	0	0.40644	813.05	0.14
328.15	1	0	703.21	0.17
328.15	0.89207	0.04387	714.18	0.17
328.15	0.82329	0.07182	721.48	0.16
328.15	0.68046	0.12987	735.74	0.16
328.15	0.62772	0.15131	741.1	0.16
328.15	0.55889	0.17929	748.19	0.16
328.15	0.47879	0.21184	756.25	0.16
328.15	0.41365	0.23831	762.85	0.15
328.15	0.34964	0.26433	769.32	0.15
328.15	0.26842	0.29734	777.41	0.15
328.15	0.19532	0.32705	784.91	0.15
328.15	0.11839	0.35832	792.62	0.15
328.15	0.06896	0.37841	797.5	0.14
328.15	0	0.40644	804.18	0.14
298.15	1	0	735.21	0.16
298.15	0.95403	0.02755	740.01	0.16
298.15	0.88806	0.06709	746.93	0.16
298.15	0.82117	0.10718	753.97	0.16
298.15	0.75736	0.14542	760.74	0.15
298.15	0.69462	0.18302	767.35	0.15
298.15	0.607	0.23554	776.7	0.15
298.15	0.53837	0.27667	784.01	0.15
298.15	0.47705	0.31342	790.51	0.15
298.15	0.38206	0.37035	800.69	0.14
298.15	0.31342	0.41148	807.93	0.14
298.15	0.23599	0.45789	816.26	0.14
298.15	0.15402	0.50702	824.94	0.14
298.15	0.08743	0.54693	831.94	0.14
298.15	0.03592	0.5778	837.21	0.13
298.15	0	0.59933	840.92	0.13
308.15	1	0	724.64	0.16
308.15	0.95403	0.02755	729.54	0.16
308.15	0.88806	0.06709	736.57	0.16
308.15	0.82117	0.10718	743.74	0.16
308.15	0.75736	0.14542	750.65	0.16
308.15	0.69462	0.18302	757.35	0.15
308.15	0.607	0.23554	766.85	0.15
308.15	0.53837	0.27667	774.21	0.15
308.15	0.47705	0.31342	780.84	0.15
308.15	0.38206	0.37035	791.18	0.15
308.15	0.31342	0.41148	798.52	0.14
308.15	0.23599	0.45789	806.95	0.14
308.15	0.15402	0.50702	815.72	0.14
308.15	0.08743	0.54693	822.79	0.14
308.15	0.03592	0.5778	828.13	0.14
308.15	0	0.59933	831.87	0.14
318.15	1	0	714	0.17
318.15	0.95403	0.02755	719.07	0.17
318.15	0.88806	0.06709	726.16	0.16
318.15	0.75736	0.14542	740.47	0.16
318.15	0.69462	0.18302	747.3	0.16
318.15	0.607	0.23554	756.88	0.16
318.15	0.53837	0.27667	764.42	0.15
318.15	0.47705	0.31342	771.15	0.15
318.15	0.38206	0.37035	781.62	0.15
318.15	0.31342	0.41148	789.09	0.15
318.15	0.23599	0.45789	797.6	0.14
318.15	0.15402	0.50702	806.46	0.14
318.15	0.08743	0.54693	813.61	0.14
318.15	0.03592	0.5778	819.01	0.14
318.15	0	0.59933	822.79	0.14
328.15	1	0	703.21	0.17
328.15	0.88806	0.06709	715.61	0.17
328.15	0.69462	0.18302	737.22	0.16
328.15	0.53837	0.27667	754.57	0.16
328.15	0.47705	0.31342	761.36	0.15
328.15	0.38206	0.37035	771.98	0.15
328.15	0.31342	0.41148	779.49	0.15
328.15	0.23599	0.45789	788.15	0.15
328.15	0.15402	0.50702	797.11	0.14
328.15	0.08743	0.54693	804.33	0.14
328.15	0.03592	0.5778	809.79	0.14
328.15	0	0.59933	813.62	0.14
298.15	1	0	735.2	0.16
298.15	0.94845	0.04122	741.14	0.16
298.15	0.89206	0.08631	747.61	0.16
298.15	0.83506	0.13188	754.17	0.16
298.15	0.76385	0.18881	762.4	0.15
298.15	0.69386	0.24477	770.51	0.15
298.15	0.62978	0.29601	777.96	0.15
298.15	0.55014	0.35969	787.29	0.15
298.15	0.47556	0.41931	796.03	0.14
298.15	0.40978	0.4719	803.72	0.14
298.15	0.33947	0.52812	812	0.14
298.15	0.2585	0.59286	821.51	0.14
298.15	0.17727	0.6578	831.03	0.14
298.15	0.12501	0.69959	837.08	0.13
298.15	0.05053	0.75914	845.66	0.13
298.15	0	0.79954	851.36	0.13
308.15	1	0	724.63	0.16
308.15	0.94845	0.04122	730.66	0.16
308.15	0.89206	0.08631	737.23	0.16
308.15	0.83506	0.13188	743.89	0.16
308.15	0.76385	0.18881	752.23	0.16
308.15	0.69386	0.24477	760.44	0.15
308.15	0.62978	0.29601	767.98	0.15
308.15	0.55014	0.35969	777.41	0.15
308.15	0.47556	0.41931	786.25	0.15
308.15	0.40978	0.4719	794.04	0.14
308.15	0.33947	0.52812	802.38	0.14
308.15	0.2585	0.59286	811.98	0.14
308.15	0.17727	0.6578	821.57	0.14
308.15	0.12501	0.69959	827.68	0.14
308.15	0.05053	0.75914	836.32	0.13
308.15	0	0.79954	842.08	0.13
318.15	1	0	713.98	0.17
318.15	0.94845	0.04122	720.12	0.17
318.15	0.89206	0.08631	726.79	0.16
318.15	0.83506	0.13188	733.52	0.16
318.15	0.76385	0.18881	742.01	0.16
318.15	0.69386	0.24477	750.33	0.16
318.15	0.62978	0.29601	757.97	0.15
318.15	0.55014	0.35969	767.5	0.15
318.15	0.47556	0.41931	776.44	0.15
318.15	0.40978	0.4719	784.31	0.15
318.15	0.33947	0.52812	792.74	0.15
318.15	0.2585	0.59286	802.42	0.14
318.15	0.17727	0.6578	812.09	0.14
318.15	0.12501	0.69959	818.25	0.14
318.15	0.05053	0.75914	826.97	0.14
318.15	0	0.79954	832.78	0.14
328.15	1	0	703.21	0.17
328.15	0.94845	0.04122	709.46	0.17
328.15	0.89206	0.08631	716.24	0.17
328.15	0.83506	0.13188	723.13	0.16
328.15	0.76385	0.18881	731.71	0.16
328.15	0.69386	0.24477	740.13	0.16
328.15	0.62978	0.29601	747.86	0.16
328.15	0.55014	0.35969	757.52	0.15
328.15	0.47556	0.41931	766.56	0.15
328.15	0.40978	0.4719	774.51	0.15
328.15	0.33947	0.52812	783.01	0.15
328.15	0.2585	0.59286	792.79	0.15
328.15	0.17727	0.6578	802.54	0.14
328.15	0.12501	0.69959	808.75	0.14
328.15	0.05053	0.75914	817.54	0.14
328.15	0	0.79954	823.42	0.14

System: butan-1-ol + toluene + 2-methoxy-2-methylpropane; phases: Liquid
Fixed: Pressure, kPa = 101
Fixed: Frequency, MHz = 3
Property: Speed of sound, m/s (Liquid); method: Sing-around technique in a fixed-path interferometer
Temperature, K	Mole fraction of 2-methoxy-2-methylpropane	Mole fraction of toluene	Speed of sound, m/s	uncertainty
298.15	1	0	1036.23	1.13
298.15	0.95107	0.00983	1048.04	1.13
298.15	0.88903	0.02229	1062.16	1.14
298.15	0.82446	0.03525	1076.13	1.14
298.15	0.74068	0.05208	1093.91	1.14
298.15	0.67429	0.06541	1107.77	1.14
298.15	0.57938	0.08447	1127.68	1.15
298.15	0.51895	0.09661	1140.38	1.15
298.15	0.43731	0.113	1157.59	1.15
298.15	0.36421	0.12768	1173.33	1.16
298.15	0.29075	0.14243	1188.9	1.16
298.15	0.22817	0.155	1202.17	1.16
298.15	0.14989	0.17072	1218.74	1.17
298.15	0.07766	0.18523	1233.31	1.17
298.15	0	0.20082	1248.04	1.17
308.15	1	0	990.42	1.12
308.15	0.95107	0.00983	1002.59	1.13
308.15	0.88903	0.02229	1017.3	1.13
308.15	0.82446	0.03525	1031.98	1.13
308.15	0.74068	0.05208	1050.61	1.14
308.15	0.67429	0.06541	1065.15	1.14
308.15	0.57938	0.08447	1085.94	1.14
308.15	0.51895	0.09661	1099.26	1.14
308.15	0.43731	0.113	1117.28	1.15
308.15	0.36421	0.12768	1133.73	1.15
308.15	0.29075	0.14243	1149.92	1.15
308.15	0.22817	0.155	1163.85	1.16
308.15	0.14989	0.17072	1181.16	1.16
308.15	0.07766	0.18523	1196.47	1.16
308.15	0	0.20082	1212.18	1.17
318.15	1	0	944.74	1.12
318.15	0.95107	0.00983	957.46	1.12
318.15	0.88903	0.02229	972.61	1.12
318.15	0.82446	0.03525	988.11	1.12
318.15	0.74068	0.05208	1007.38	1.13
318.15	0.67429	0.06541	1022.61	1.13
318.15	0.57938	0.08447	1044.33	1.14
318.15	0.51895	0.09661	1058.38	1.14
318.15	0.43731	0.113	1077.16	1.14
318.15	0.36421	0.12768	1094.28	1.14
318.15	0.29075	0.14243	1111.19	1.15
318.15	0.22817	0.155	1125.73	1.15
318.15	0.14989	0.17072	1143.74	1.15
318.15	0.07766	0.18523	1159.96	1.16
318.15	0	0.20082	1176.47	1.16
328.15	0.88903	0.02229	930.18	1.12
328.15	0.82446	0.03525	945.62	1.12
328.15	0.74068	0.05208	964.79	1.12
328.15	0.67429	0.06541	980.65	1.12
328.15	0.57938	0.08447	1003.2	1.13
328.15	0.51895	0.09661	1017.71	1.13
328.15	0.43731	0.113	1037.27	1.14
328.15	0.36421	0.12768	1055.22	1.14
328.15	0.29075	0.14243	1072.78	1.14
328.15	0.22817	0.155	1087.95	1.14
328.15	0.14989	0.17072	1106.81	1.15
328.15	0.07766	0.18523	1123.71	1.15
328.15	0	0.20082	1141.15	1.16
298.15	1	0	1036.31	1.13
298.15	0.89207	0.04387	1062.5	1.14
298.15	0.82329	0.07182	1078.67	1.14
298.15	0.74598	0.10324	1096.46	1.14
298.15	0.68046	0.12987	1111.29	1.14
298.15	0.62772	0.15131	1123.08	1.15
298.15	0.55889	0.17929	1138.42	1.15
298.15	0.47879	0.21184	1156.22	1.15
298.15	0.41365	0.23831	1170.55	1.15
298.15	0.34964	0.26433	1184.59	1.16
298.15	0.26842	0.29734	1201.97	1.16
298.15	0.19532	0.32705	1217.72	1.16
298.15	0.11839	0.35832	1233.51	1.17
298.15	0.06896	0.37841	1243.04	1.17
298.15	0	0.40644	1255.48	1.17
308.15	1	0	990.44	1.12
308.15	0.89207	0.04387	1017.33	1.13
308.15	0.82329	0.07182	1034.24	1.13
308.15	0.74598	0.10324	1052.68	1.13
308.15	0.68046	0.12987	1068.03	1.14
308.15	0.62772	0.15131	1080.22	1.14
308.15	0.55889	0.17929	1096.13	1.14
308.15	0.47879	0.21184	1114.58	1.14
308.15	0.41365	0.23831	1129.45	1.15
308.15	0.34964	0.26433	1143.95	1.15
308.15	0.26842	0.29734	1161.79	1.15
308.15	0.19532	0.32705	1178.21	1.16
308.15	0.11839	0.35832	1194.55	1.16
308.15	0.06896	0.37841	1204.52	1.16
308.15	0	0.40644	1217.59	1.16
318.15	1	0	944.85	1.12
318.15	0.89207	0.04387	972.59	1.12
318.15	0.82329	0.07182	990.21	1.12
318.15	0.74598	0.10324	1009.27	1.13
318.15	0.68046	0.12987	1025	1.13
318.15	0.62772	0.15131	1037.69	1.13
318.15	0.55889	0.17929	1054.56	1.13
318.15	0.47879	0.21184	1073.09	1.14
318.15	0.41365	0.23831	1088.47	1.14
318.15	0.34964	0.26433	1103.45	1.14
318.15	0.26842	0.29734	1121.92	1.15
318.15	0.19532	0.32705	1138.92	1.15
318.15	0.11839	0.35832	1155.88	1.15
318.15	0.06896	0.37841	1166.24	1.15
318.15	0	0.40644	1180.1	1.16
328.15	0.89207	0.04387	929.35	1.11
328.15	0.82329	0.07182	947.57	1.12
328.15	0.68046	0.12987	982.39	1.12
328.15	0.62772	0.15131	995.44	1.13
328.15	0.55889	0.17929	1012.4	1.13
328.15	0.47879	0.21184	1032.14	1.13
328.15	0.41365	0.23831	1048.02	1.13
328.15	0.34964	0.26433	1063.5	1.14
328.15	0.26842	0.29734	1082.6	1.14
328.15	0.19532	0.32705	1100.25	1.14
328.15	0.11839	0.35832	1117.68	1.15
328.15	0.06896	0.37841	1128.54	1.15
328.15	0	0.40644	1142.99	1.15
298.15	1	0	1036.24	1.13
298.15	0.95403	0.02755	1047.87	1.13
298.15	0.88806	0.06709	1064.42	1.14
298.15	0.82117	0.10718	1081.03	1.14
298.15	0.75736	0.14542	1096.79	1.14
298.15	0.69462	0.18302	1111.97	1.14
298.15	0.607	0.23554	1133.14	1.15
298.15	0.53837	0.27667	1149.41	1.15
298.15	0.47705	0.31342	1163.61	1.15
298.15	0.38206	0.37035	1185.43	1.15
298.15	0.31342	0.41148	1200.85	1.16
298.15	0.23599	0.45789	1218	1.16
298.15	0.15402	0.50702	1235.19	1.16
298.15	0.08743	0.54693	1248.33	1.17
298.15	0.03592	0.5778	1257.73	1.17
298.15	0	0.59933	1263.81	1.17
308.15	1	0	990.43	1.12
308.15	0.95403	0.02755	1002.33	1.13
308.15	0.88806	0.06709	1019.31	1.13
308.15	0.82117	0.10718	1036.35	1.13
308.15	0.75736	0.14542	1052.55	1.13
308.15	0.69462	0.18302	1068.12	1.14
308.15	0.607	0.23554	1089.89	1.14
308.15	0.53837	0.27667	1106.44	1.14
308.15	0.47705	0.31342	1121.24	1.14
308.15	0.38206	0.37035	1143.66	1.15
308.15	0.31342	0.41148	1159.45	1.15
308.15	0.23599	0.45789	1177.1	1.15
308.15	0.15402	0.50702	1194.74	1.16
308.15	0.08743	0.54693	1208.37	1.16
308.15	0.03592	0.5778	1218.15	1.16
308.15	0	0.59933	1224.58	1.16
318.15	1	0	944.91	1.12
318.15	0.95403	0.02755	957.15	1.12
318.15	0.88806	0.06709	974.33	1.12
318.15	0.75736	0.14542	1008.45	1.13
318.15	0.69462	0.18302	1024.78	1.13
318.15	0.607	0.23554	1046.69	1.13
318.15	0.53837	0.27667	1063.72	1.13
318.15	0.47705	0.31342	1079.08	1.14
318.15	0.38206	0.37035	1102.08	1.14
318.15	0.31342	0.41148	1118.48	1.14
318.15	0.23599	0.45789	1136.44	1.15
318.15	0.15402	0.50702	1154.66	1.15
318.15	0.08743	0.54693	1168.83	1.15
318.15	0.03592	0.5778	1179.05	1.15
318.15	0	0.59933	1185.72	1.15
328.15	0.88806	0.06709	930.48	1.11
328.15	0.69462	0.18302	982.05	1.12
328.15	0.53837	0.27667	1021.72	1.13
328.15	0.47705	0.31342	1037.27	1.13
328.15	0.38206	0.37035	1061	1.13
328.15	0.31342	0.41148	1077.63	1.14
328.15	0.23599	0.45789	1096.37	1.14
328.15	0.15402	0.50702	1115.13	1.14
328.15	0.08743	0.54693	1129.67	1.14
328.15	0.03592	0.5778	1140.45	1.15
328.15	0	0.59933	1147.5	1.15
298.15	1	0	1036.25	1.13
298.15	0.94845	0.04122	1049.66	1.13
298.15	0.89206	0.08631	1064.26	1.14
298.15	0.83506	0.13188	1079.07	1.14
298.15	0.76385	0.18881	1097.51	1.14
298.15	0.69386	0.24477	1115.59	1.14
298.15	0.62978	0.29601	1132.07	1.14
298.15	0.55014	0.35969	1152.4	1.15
298.15	0.47556	0.41931	1171.24	1.15
298.15	0.40978	0.4719	1187.49	1.15
298.15	0.33947	0.52812	1204.61	1.16
298.15	0.2585	0.59286	1223.76	1.16
298.15	0.17727	0.6578	1242.14	1.16
298.15	0.12501	0.69959	1253.34	1.16
298.15	0.05053	0.75914	1268.16	1.17
298.15	0	0.79954	1277.29	1.17
308.15	1	0	990.41	1.12
308.15	0.94845	0.04122	1004.08	1.13
308.15	0.89206	0.08631	1018.99	1.13
308.15	0.83506	0.13188	1034.11	1.13
308.15	0.76385	0.18881	1052.86	1.13
308.15	0.69386	0.24477	1071.17	1.14
308.15	0.62978	0.29601	1088.06	1.14
308.15	0.55014	0.35969	1108.75	1.14
308.15	0.47556	0.41931	1128.01	1.14
308.15	0.40978	0.4719	1144.62	1.15
308.15	0.33947	0.52812	1162.12	1.15
308.15	0.2585	0.59286	1181.72	1.15
308.15	0.17727	0.6578	1200.54	1.15
308.15	0.12501	0.69959	1212.09	1.16
308.15	0.05053	0.75914	1227.41	1.16
308.15	0	0.79954	1237.06	1.16
318.15	1	0	944.82	1.12
318.15	0.94845	0.04122	958.71	1.12
318.15	0.89206	0.08631	974	1.12
318.15	0.83506	0.13188	989.33	1.12
318.15	0.76385	0.18881	1008.37	1.13
318.15	0.69386	0.24477	1027.1	1.13
318.15	0.62978	0.29601	1044.35	1.13
318.15	0.55014	0.35969	1065.36	1.13
318.15	0.47556	0.41931	1085.01	1.14
318.15	0.40978	0.4719	1101.95	1.14
318.15	0.33947	0.52812	1119.9	1.14
318.15	0.2585	0.59286	1139.99	1.14
318.15	0.17727	0.6578	1159.28	1.15
318.15	0.12501	0.69959	1171.18	1.15
318.15	0.05053	0.75914	1187.28	1.15
318.15	0	0.79954	1197.28	1.15
328.15	0.94845	0.04122	914.11	1.11
328.15	0.89206	0.08631	930.88	1.11
328.15	0.83506	0.13188	946.44	1.12
328.15	0.76385	0.18881	964.5	1.12
328.15	0.69386	0.24477	984.34	1.12
328.15	0.62978	0.29601	1000.96	1.12
328.15	0.55014	0.35969	1022.47	1.13
328.15	0.47556	0.41931	1042.59	1.13
328.15	0.40978	0.4719	1059.86	1.13
328.15	0.33947	0.52812	1078.14	1.13
328.15	0.2585	0.59286	1098.75	1.14
328.15	0.17727	0.6578	1118.64	1.14
328.15	0.12501	0.69959	1130.96	1.14
328.15	0.05053	0.75914	1147.63	1.14
328.15	0	0.79954	1158.25	1.15

System: butan-1-ol + toluene; phases: Liquid
Fixed: Pressure, kPa = 101
Property: Mass density, kg/m3 (Liquid); method: Vibrating tube method
Temperature, K	Mole fraction of toluene	Mass density, kg/m3	uncertainty
298.15	0.20082	818.72	0.14
308.15	0.20082	810.48	0.14
318.15	0.20082	802.18	0.14
328.15	0.20082	793.77	0.15
298.15	0.40644	830.53	0.14
308.15	0.40644	821.82	0.14
318.15	0.40644	813.05	0.14
328.15	0.40644	804.18	0.14
298.15	0.59933	840.92	0.13
308.15	0.59933	831.87	0.14
318.15	0.59933	822.79	0.14
328.15	0.59933	813.62	0.14
298.15	0.79954	851.36	0.13
308.15	0.79954	842.08	0.13
318.15	0.79954	832.78	0.14
328.15	0.79954	823.42	0.14

System: butan-1-ol + toluene; phases: Liquid
Fixed: Pressure, kPa = 101
Fixed: Frequency, MHz = 3
Property: Speed of sound, m/s (Liquid); method: Sing-around technique in a fixed-path interferometer
Temperature, K	Mole fraction of toluene	Speed of sound, m/s	uncertainty
298.15	0.20082	1248.04	1.17
308.15	0.20082	1212.18	1.17
318.15	0.20082	1176.47	1.16
328.15	0.20082	1141.15	1.16
298.15	0.40644	1255.48	1.17
308.15	0.40644	1217.59	1.16
318.15	0.40644	1180.1	1.16
328.15	0.40644	1142.99	1.15
298.15	0.59933	1263.81	1.17
308.15	0.59933	1224.58	1.16
318.15	0.59933	1185.72	1.15
328.15	0.59933	1147.5	1.15
298.15	0.79954	1277.29	1.17
308.15	0.79954	1237.06	1.16
318.15	0.79954	1197.28	1.15
328.15	0.79954	1158.25	1.15
