Measured thermophysical data. Excess isobaric molar heat capacities and excess molar volumes for ethanol + n-decane and n-undecane systems
Source: J. Chem. Thermodyn., 2005, 10.1016/j.jct.2004.12.010
Compound 1: ethanol, C2H6O, InChI=1S/C2H6O/c1-2-3/h3H,2H2,1H3, purity 99%
Compound 2: decane, C10H22, InChI=1S/C10H22/c1-3-5-7-9-10-8-6-4-2/h3-10H2,1-2H3, purity 99%
Compound 3: undecane, C11H24, InChI=1S/C11H24/c1-3-5-7-9-11-10-8-6-4-2/h3-11H2,1-2H3, purity 99%

System: ethanol; phases: Liquid
Fixed: Pressure, kPa = 101.325
Property: Molar heat capacity at constant pressure, J/K/mol (Liquid); method: Large sample (1 g) DSC
Temperature, K	Molar heat capacity at constant pressure, J/K/mol	uncertainty
283.15	106.53	1.65
288.15	108.27	1.68
293.15	110.06	1.71
298.15	112.03	1.74
303.15	114.01	1.77

System: ethanol; phases: Liquid
Fixed: Pressure, kPa = 101.325
Property: Mass density, kg/m3 (Liquid); method: VIBTUB:UFactor:2
Temperature, K	Mass density, kg/m3	uncertainty
278.15	802.19	0.35
283.15	797.88	0.35
288.15	793.59	0.35
293.15	789.31	0.35
298.15	785.1	0.35
303.15	780.99	0.35
308.15	776.92	0.36

System: decane; phases: Liquid
Fixed: Pressure, kPa = 101.325
Property: Molar heat capacity at constant pressure, J/K/mol (Liquid); method: Large sample (1 g) DSC
Temperature, K	Molar heat capacity at constant pressure, J/K/mol	uncertainty
283.15	307.14	4.76
288.15	309.28	4.79
293.15	311.37	4.82
298.15	313.58	4.86
303.15	315.73	4.89

System: decane; phases: Liquid
Fixed: Pressure, kPa = 101.325
Property: Mass density, kg/m3 (Liquid); method: VIBTUB:UFactor:2
Temperature, K	Mass density, kg/m3	uncertainty
278.15	741.2	0.49
283.15	737.36	0.49
288.15	733.55	0.49
293.15	729.77	0.49
298.15	726.03	0.49
303.15	722.33	0.49
308.15	718.66	0.49

System: undecane; phases: Liquid
Fixed: Pressure, kPa = 101.325
Property: Molar heat capacity at constant pressure, J/K/mol (Liquid); method: Large sample (1 g) DSC
Temperature, K	Molar heat capacity at constant pressure, J/K/mol	uncertainty
283.15	337.29	5.23
288.15	339.47	5.26
293.15	341.6	5.29
298.15	343.98	5.33
303.15	346.3	5.36

System: undecane; phases: Liquid
Fixed: Pressure, kPa = 101.325
Property: Mass density, kg/m3 (Liquid); method: VIBTUB:UFactor:2
Temperature, K	Mass density, kg/m3	uncertainty
278.15	751.31	0.49
283.15	747.58	0.49
288.15	743.85	0.49
293.15	740.13	0.49
298.15	736.48	0.49
303.15	732.9	0.49
308.15	729.35	0.49

System: ethanol + decane; phases: Liquid
Fixed: Pressure, kPa = 100
Property: Molar heat capacity at constant pressure, J/K/mol (Liquid); method: Large sample (1 g) DSC
Mole fraction of ethanol	Temperature, K	Molar heat capacity at constant pressure, J/K/mol	uncertainty
0.05437	283.15	303.19	4.7
0.05437	288.15	306.06	4.74
0.05437	293.15	308.98	4.79
0.05437	298.15	311.9	4.83
0.05437	303.15	314.75	4.88
0.09778	283.15	296.73	4.6
0.09778	288.15	298.9	4.63
0.09778	293.15	302.05	4.68
0.09778	298.15	305.29	4.73
0.09778	303.15	308.54	4.78
0.16631	283.15	283.96	4.4
0.16631	288.15	287.12	4.45
0.16631	293.15	290.34	4.5
0.16631	298.15	293.71	4.55
0.16631	303.15	297.1	4.6
0.27447	283.15	262.01	4.06
0.27447	288.15	265.49	4.11
0.27447	293.15	268.54	4.16
0.27447	298.15	272.14	4.22
0.27447	303.15	275.78	4.27
0.3929	283.15	237.52	3.68
0.3929	288.15	240.72	3.73
0.3929	293.15	244.08	3.78
0.3929	298.15	247.65	3.84
0.3929	303.15	251.26	3.89
0.49511	283.15	216.07	3.35
0.49511	288.15	219.22	3.4
0.49511	293.15	222.43	3.45
0.49511	298.15	225.82	3.5
0.49511	303.15	229.33	3.55
0.59448	283.15	195.16	3.02
0.59448	288.15	198.07	3.07
0.59448	293.15	201.12	3.12
0.59448	298.15	204.35	3.17
0.59448	303.15	207.69	3.22
0.72917	283.15	166.15	2.57
0.72917	288.15	168.78	2.61
0.72917	293.15	171.53	2.66
0.72917	298.15	174.45	2.7
0.72917	303.15	177.49	2.75
0.79857	283.15	150.85	2.34
0.79857	288.15	153.3	2.37
0.79857	293.15	155.84	2.41
0.79857	298.15	158.55	2.46
0.79857	303.15	161.37	2.5
0.89726	283.15	129.2	2
0.89726	288.15	131.33	2.03
0.89726	293.15	133.54	2.07
0.89726	298.15	135.86	2.1
0.89726	303.15	138.29	2.14
0.95053	283.15	117.08	1.81
0.95053	288.15	119.04	1.84
0.95053	293.15	121.07	1.88
0.95053	298.15	123.23	1.91
0.95053	303.15	125.47	1.94

System: ethanol + decane; phases: Liquid
Fixed: Pressure, kPa = 100
Property: Mass density, kg/m3 (Liquid); method: VIBTUB:UFactor:2
Mole fraction of ethanol	Temperature, K	Mass density, kg/m3	uncertainty
0.05437	278.15	741.73	0.48
0.05437	283.15	737.87	0.48
0.05437	288.15	734.01	0.48
0.05437	293.15	730.15	0.48
0.05437	298.15	726.34	0.48
0.05437	303.15	722.56	0.48
0.05437	308.15	718.82	0.48
0.09778	278.15	742.36	0.47
0.09778	283.15	738.46	0.47
0.09778	288.15	734.58	0.47
0.09778	293.15	730.71	0.47
0.09778	298.15	726.87	0.47
0.09778	303.15	723.07	0.47
0.09778	308.15	719.3	0.47
0.16631	278.15	743.48	0.46
0.16631	283.15	739.56	0.46
0.16631	288.15	735.65	0.47
0.16631	293.15	731.74	0.47
0.16631	298.15	727.88	0.47
0.16631	303.15	724.06	0.47
0.16631	308.15	720.25	0.47
0.20065	278.15	744.12	0.46
0.20065	283.15	740.2	0.46
0.20065	288.15	736.28	0.46
0.20065	293.15	732.35	0.46
0.20065	298.15	728.47	0.46
0.20065	303.15	724.62	0.46
0.20065	308.15	720.8	0.46
0.28315	278.15	745.94	0.45
0.28315	283.15	741.99	0.45
0.28315	288.15	738.04	0.45
0.28315	293.15	734.08	0.45
0.28315	298.15	730.17	0.45
0.28315	303.15	726.27	0.45
0.28315	308.15	722.4	0.45
0.3929	278.15	748.95	0.43
0.3929	283.15	744.94	0.43
0.3929	288.15	740.94	0.43
0.3929	293.15	736.94	0.43
0.3929	298.15	732.99	0.44
0.3929	303.15	729.06	0.44
0.3929	308.15	725.14	0.44
0.49511	278.15	752.49	0.42
0.49511	283.15	748.48	0.42
0.49511	288.15	744.46	0.42
0.49511	293.15	740.41	0.42
0.49511	298.15	736.43	0.42
0.49511	303.15	732.45	0.42
0.49511	308.15	728.5	0.42
0.59448	278.15	756.9	0.41
0.59448	283.15	752.85	0.41
0.59448	288.15	748.78	0.41
0.59448	293.15	744.7	0.41
0.59448	298.15	740.66	0.41
0.59448	303.15	736.66	0.41
0.59448	308.15	732.67	0.41
0.72814	278.15	764.92	0.39
0.72814	283.15	760.82	0.39
0.72814	288.15	756.69	0.39
0.72814	293.15	752.56	0.39
0.72814	298.15	748.48	0.39
0.72814	303.15	744.44	0.39
0.72814	308.15	740.43	0.39
0.79857	278.15	770.87	0.38
0.79857	283.15	766.71	0.38
0.79857	288.15	762.55	0.38
0.79857	293.15	758.4	0.38
0.79857	298.15	754.29	0.38
0.79857	303.15	750.23	0.38
0.79857	308.15	746.19	0.38
0.89726	278.15	782.63	0.36
0.89726	283.15	778.36	0.36
0.89726	288.15	774.13	0.37
0.89726	293.15	769.94	0.37
0.89726	298.15	765.79	0.37
0.89726	303.15	761.68	0.37
0.89726	308.15	757.6	0.37
0.95053	278.15	791.56	0.36
0.95053	283.15	787.25	0.36
0.95053	288.15	782.98	0.36
0.95053	293.15	778.76	0.36
0.95053	298.15	774.58	0.36
0.95053	303.15	770.45	0.36
0.95053	308.15	766.36	0.36

System: ethanol + undecane; phases: Liquid
Fixed: Pressure, kPa = 100
Property: Molar heat capacity at constant pressure, J/K/mol (Liquid); method: Large sample (1 g) DSC
Mole fraction of ethanol	Temperature, K	Molar heat capacity at constant pressure, J/K/mol	uncertainty
0.05238	283.15	332.39	5.15
0.05238	288.15	335.24	5.19
0.05238	293.15	338.15	5.24
0.05238	298.15	341.13	5.28
0.05238	303.15	343.99	5.33
0.09556	283.15	323.66	5.01
0.09556	288.15	326.83	5.06
0.09556	293.15	330.04	5.11
0.09556	298.15	333.32	5.16
0.09556	303.15	336.59	5.21
0.18612	283.15	303.97	4.71
0.18612	288.15	307.32	4.76
0.18612	293.15	310.74	4.81
0.18612	298.15	314.32	4.87
0.18612	303.15	317.93	4.93
0.27964	283.15	282.71	4.38
0.27964	288.15	286.07	4.43
0.27964	293.15	289.57	4.49
0.27964	298.15	293.24	4.54
0.27964	303.15	296.96	4.6
0.31812	283.15	273.82	4.24
0.31812	288.15	277.15	4.29
0.31812	293.15	280.65	4.35
0.31812	298.15	284.29	4.4
0.31812	303.15	288.04	4.46
0.41498	283.15	250.88	3.89
0.41498	288.15	254.17	3.94
0.41498	293.15	257.55	3.99
0.41498	298.15	261.14	4.05
0.41498	303.15	264.79	4.1
0.47569	283.15	236.67	3.67
0.47569	288.15	239.94	3.72
0.47569	293.15	243.17	3.77
0.47569	298.15	246.73	3.82
0.47569	303.15	250.27	3.88
0.51138	283.15	228	3.53
0.51138	288.15	231.08	3.58
0.51138	293.15	234.28	3.63
0.51138	298.15	237.78	3.68
0.51138	303.15	241.36	3.74
0.57409	283.15	213.15	3.3
0.57409	288.15	216.04	3.35
0.57409	293.15	219.17	3.4
0.57409	298.15	222.51	3.45
0.57409	303.15	225.87	3.5
0.68099	283.15	186.4	2.89
0.68099	288.15	189.12	2.93
0.68099	293.15	191.99	2.97
0.68099	298.15	195.06	3.02
0.68099	303.15	198.28	3.07
0.78589	283.15	160.36	2.48
0.78589	288.15	162.79	2.52
0.78589	293.15	165.39	2.56
0.78589	298.15	168.19	2.61
0.78589	303.15	171.04	2.65
0.89574	283.15	132.68	2.06
0.89574	288.15	134.84	2.09
0.89574	293.15	137.08	2.12
0.89574	298.15	139.53	2.16
0.89574	303.15	141.99	2.2

System: ethanol + undecane; phases: Liquid
Fixed: Pressure, kPa = 100
Property: Mass density, kg/m3 (Liquid); method: VIBTUB:UFactor:2
Mole fraction of ethanol	Temperature, K	Mass density, kg/m3	uncertainty
0.05238	278.15	751.59	0.48
0.05238	283.15	747.8	0.48
0.05238	288.15	744.02	0.48
0.05238	293.15	740.25	0.48
0.05238	298.15	736.55	0.48
0.05238	303.15	732.89	0.48
0.05238	308.15	729.28	0.48
0.09556	278.15	752.04	0.47
0.09556	283.15	748.22	0.47
0.09556	288.15	744.43	0.47
0.09556	293.15	740.64	0.47
0.09556	298.15	736.91	0.47
0.09556	303.15	733.21	0.47
0.09556	308.15	729.57	0.47
0.18612	278.15	753.16	0.46
0.18612	283.15	749.31	0.46
0.18612	288.15	745.48	0.46
0.18612	293.15	741.66	0.46
0.18612	298.15	737.87	0.46
0.18612	303.15	734.14	0.46
0.18612	308.15	730.46	0.46
0.27964	278.15	754.69	0.45
0.27964	283.15	750.82	0.45
0.27964	288.15	746.93	0.45
0.27964	293.15	743.05	0.45
0.27964	298.15	739.24	0.45
0.27964	303.15	735.48	0.45
0.27964	308.15	731.72	0.45
0.31812	278.15	755.4	0.44
0.31812	283.15	751.52	0.44
0.31812	288.15	747.63	0.44
0.31812	293.15	743.74	0.44
0.31812	298.15	739.91	0.44
0.31812	303.15	736.11	0.44
0.31812	308.15	732.34	0.45
0.37437	278.15	756.61	0.44
0.37437	283.15	752.74	0.44
0.37437	288.15	748.8	0.44
0.37437	293.15	744.89	0.44
0.37437	298.15	741.03	0.44
0.37437	303.15	737.22	0.44
0.37437	308.15	733.43	0.44
0.41498	278.15	757.58	0.43
0.41498	283.15	753.66	0.43
0.41498	288.15	749.73	0.43
0.41498	293.15	745.82	0.43
0.41498	298.15	741.95	0.43
0.41498	303.15	738.1	0.43
0.41498	308.15	734.32	0.43
0.47569	278.15	759.26	0.42
0.47569	283.15	755.28	0.42
0.47569	288.15	751.32	0.42
0.47569	293.15	747.37	0.42
0.47569	298.15	743.47	0.42
0.47569	303.15	739.62	0.42
0.47569	308.15	735.8	0.42
0.51138	278.15	760.31	0.42
0.51138	283.15	756.36	0.42
0.51138	288.15	752.39	0.42
0.51138	293.15	748.42	0.42
0.51138	298.15	744.5	0.42
0.51138	303.15	740.62	0.42
0.51138	308.15	736.78	0.42
0.57409	278.15	762.54	0.41
0.57409	283.15	758.54	0.41
0.57409	288.15	754.54	0.41
0.57409	293.15	750.56	0.41
0.57409	298.15	746.6	0.41
0.57409	303.15	742.7	0.41
0.57409	308.15	738.82	0.41
0.68098	278.15	767.24	0.39
0.68098	283.15	763.17	0.39
0.68098	288.15	759.09	0.4
0.68098	293.15	755.05	0.4
0.68098	298.15	751.05	0.4
0.68098	303.15	747.12	0.4
0.68098	308.15	743.18	0.4
0.78589	278.15	773.69	0.38
0.78589	283.15	769.58	0.38
0.78589	288.15	765.46	0.38
0.78589	293.15	761.36	0.38
0.78589	298.15	757.31	0.38
0.78589	303.15	753.32	0.38
0.78589	308.15	749.36	0.38
0.89574	278.15	784.12	0.36
0.89574	283.15	779.96	0.36
0.89574	288.15	775.78	0.37
0.89574	293.15	771.62	0.37
0.89574	298.15	767.52	0.37
0.89574	303.15	763.46	0.37
0.89574	308.15	759.45	0.37
