Measured thermophysical data. Solubility data for toluene in various aqueous alkanolamine solutions
Source: J. Chem. Thermodyn., 2007, 10.1016/j.jct.2006.07.027
Compound 1: toluene, C7H8, InChI=1S/C7H8/c1-7-5-3-2-4-6-7/h2-6H,1H3
Compound 2: N-methyldiethanolamine, C5H13NO2, InChI=1S/C5H13NO2/c1-6(2-4-7)3-5-8/h7-8H,2-5H2,1H3
Compound 3: 2-(2-aminoethoxy)ethanol, C4H11NO2, InChI=1S/C4H11NO2/c5-1-3-7-4-2-6/h6H,1-5H2
Compound 4: 2-aminoethan-1-ol, C2H7NO, InChI=1S/C2H7NO/c3-1-2-4/h4H,1-3H2
Compound 5: diethanolamine, C4H11NO2, InChI=1S/C4H11NO2/c6-3-1-5-2-4-7/h5-7H,1-4H2
Compound 6: water, H2O, InChI=1S/H2O/h1H2

System: toluene + water; phases: Liquid mixture 1, Liquid mixture 2, Gas
Property: Vapor or sublimation pressure, kPa (Liquid mixture 1); method: CCELL:UFactor:6
Temperature, K	Vapor or sublimation pressure, kPa	uncertainty
299.58	10.2	0.4
302.58	11.7	0.4
307.64	14.1	0.5
312.66	17.2	0.5
322.67	25.5	0.7
342.71	56.2	1.5
352.64	83.3	2.1
362.71	121.2	3
372.65	171.5	4.3
382.73	239	5.9
392.64	324.7	7.9
392.88	327.2	8
397.79	378.4	9.2
402.34	431.2	10.5

System: toluene + water; phases: Liquid mixture 1, Liquid mixture 2
Property: Mole fraction of toluene (Liquid mixture 1); method: CHROM:UFactor:4
Temperature, K	Pressure, kPa	Mole fraction of toluene	uncertainty
297.6	7074	0.000107	6e-06
297.6	10706	0.000102	7e-06
297.62	3810	0.000113	1e-05
297.64	513.3	0.000116	7e-06
312.56	508.5	0.000135	9e-06
312.59	1010	0.000126	6e-06
343.18	521.5	0.000182	8e-06
372.76	508.4	0.000288	1.1e-05
392.81	7564	0.000371	1.2e-05
392.82	10303	0.000364	1.2e-05
392.84	520.9	0.000406	1.4e-05
392.84	2570	0.000393	1.6e-05
392.84	5129	0.000386	1.4e-05

System: N-methyldiethanolamine + toluene + water; phases: Liquid mixture 1, Liquid mixture 2, Gas
Property: Vapor or sublimation pressure, kPa (Liquid mixture 1); method: CCELL:UFactor:6
Temperature, K	Solvent: Mass fraction of N-methyldiethanolamine	Vapor or sublimation pressure, kPa	uncertainty
295.63	0.5	6.3	0.3
297.59	0.25	6.9	0.3
302.58	0.25	8.7	0.3
302.63	0.5	8.7	0.3
307.59	0.25	11.1	0.4
312.64	0.25	14.3	0.5
312.67	0.5	14.2	0.5
317.69	0.25	18.5	0.6
322.66	0.5	22.1	0.7
322.67	0.25	23.1	0.7
327.68	0.25	29.3	0.8
332.66	0.5	34.8	1
342.63	0.25	54.8	1.4
342.68	0.5	53.2	1.4
352.71	0.5	78.5	2
362.75	0.25	119.1	3
362.75	0.5	114	2.9
372.79	0.25	167.4	4.2
372.85	0.5	161.1	4
382.84	0.25	233.3	5.8
382.84	0.5	222.1	5.5
392.92	0.25	317.6	7.8
392.94	0.5	301.4	7.4

System: N-methyldiethanolamine + toluene + water; phases: Liquid mixture 1, Liquid mixture 2
Property: Mole fraction of toluene (Liquid mixture 1); method: CHROM:UFactor:4
Solvent: Mass fraction of N-methyldiethanolamine	Temperature, K	Pressure, kPa	Mole fraction of toluene	uncertainty
0.25	298.06	2483	0.00027	1.8e-05
0.25	298.07	499.7	0.000322	2e-05
0.25	333	8143	0.000485	7.3e-05
0.25	333.01	2488	0.000526	2.1e-05
0.25	333.03	500.5	0.000567	2.4e-05
0.25	363.12	504.5	0.00108	6.2e-05
0.25	393.25	2535	0.00178	0.000109
0.25	393.27	8045	0.00164	0.000169
0.25	393.3	505.8	0.00226	0.00016
0.25	393.31	2496	0.00178	0.000136
0.5	298.02	2486	0.00131	4.1e-05
0.5	298.09	500.7	0.00162	5e-05
0.5	333.09	504.1	0.00304	9.4e-05
0.5	333.1	2540	0.00282	8.7e-05
0.5	363.21	513.1	0.00602	0.000187
0.5	393.38	533	0.0101	0.000313
0.5	393.38	2579	0.0097	0.000301

System: toluene + 2-(2-aminoethoxy)ethanol + water; phases: Liquid mixture 1, Liquid mixture 2, Gas
Fixed: Solvent: Mass fraction of 2-(2-aminoethoxy)ethanol = 0.35
Property: Vapor or sublimation pressure, kPa (Liquid mixture 1); method: CCELL:UFactor:6
Temperature, K	Vapor or sublimation pressure, kPa	uncertainty
292.81	6.1	0.3
294.36	6.5	0.3
302.81	9.4	0.4
312.78	14.8	0.5
322.77	23.1	0.7
332.83	35.7	1
342.78	53.6	1.4
352.7	80.4	2.1
362.81	116	2.9
372.84	164.4	4.1
382.86	228.2	5.6
392.9	307.7	7.5
394.01	317.9	7.8

System: toluene + 2-(2-aminoethoxy)ethanol + water; phases: Liquid mixture 1, Liquid mixture 2
Property: Mole fraction of toluene (Liquid mixture 1); method: CHROM:UFactor:4
Solvent: Mass fraction of 2-(2-aminoethoxy)ethanol	Temperature, K	Pressure, kPa	Mole fraction of toluene	uncertainty
0.35	298.17	499.7	0.0006	1.9e-05
0.35	298.2	2481	0.000528	1.6e-05
0.35	298.22	4987	0.000503	1.6e-05
0.35	333.15	494.1	0.00105	3.3e-05
0.35	333.18	5066	0.000881	2.7e-05
0.35	363.13	501.5	0.00187	5.8e-05
0.35	393.25	495.6	0.00309	9.6e-05
0.35	393.29	5009	0.00265	8.2e-05
0.525	298.17	509.7	0.00159	4.9e-05
0.525	313.46	506.6	0.00201	6.2e-05
0.525	333.19	507.2	0.00301	9.3e-05
0.525	353.22	514.1	0.00424	0.000131
0.7	298.17	511.5	0.0071	0.00022
0.7	333.19	523.9	0.0119	0.000369
0.7	353.23	516	0.0166	0.000514

System: toluene + 2-aminoethan-1-ol + water; phases: Liquid mixture 1, Liquid mixture 2
Fixed: Solvent: Mass fraction of 2-aminoethan-1-ol = 0.146
Property: Mole fraction of toluene (Liquid mixture 1); method: CHROM:UFactor:4
Temperature, K	Pressure, kPa	Mole fraction of toluene	uncertainty
298.19	506.6	0.000219	1.7e-05
313.18	523.9	0.000238	8e-06
333.19	521.4	0.00031	1.7e-05
353.23	522.7	0.000419	2e-05

System: toluene + diethanolamine + water; phases: Liquid mixture 1, Liquid mixture 2
Fixed: Solvent: Mass fraction of diethanolamine = 0.35
Property: Mole fraction of toluene (Liquid mixture 1); method: CHROM:UFactor:4
Temperature, K	Pressure, kPa	Mole fraction of toluene	uncertainty
298.18	516	0.000455	1.9e-05
313.2	509.4	0.000541	2.2e-05
333.21	514	0.000726	4.1e-05
353.25	516.2	0.000994	4.6e-05
