Measured thermophysical data. Fluorination effects on the thermodynamic, thermophysical and surface properties of ionic liquids
Source: J. Chem. Thermodyn., 2016, 10.1016/j.jct.2016.02.013
Compound 1: tetrabutylammonium heptadecafluorooctanesulfonate, C24H36F17NO3S, InChI=1S/C16H36N.C8HF17O3S/c1-5-9-13-17(14-10-6-2,15-11-7-3)16-12-8-4;9-1(10,3(13,14)5(17,18)7(21,22)23)2(11,12)4(15,16)6(19,20)8(24,25)29(26,27)28/h5-16H2,1-4H3;(H,26,27,28)/q+1;/p-1, purity 98%
Compound 2: tetrabutylammonium perfluorobutanesulfonate, C20H36F9NO3S, InChI=1S/C16H36N.C4HF9O3S/c1-5-9-13-17(14-10-6-2,15-11-7-3)16-12-8-4;5-1(6,3(9,10)11)2(7,8)4(12,13)17(14,15)16/h5-16H2,1-4H3;(H,14,15,16)/q+1;/p-1, purity 98%
Compound 3: 1-ethyl-3-methylpyridinium perfluorobutanesulfonate, C12H12F9NO3S, InChI=1S/C8H12N.C4HF9O3S/c1-3-9-6-4-5-8(2)7-9;5-1(6,3(9,10)11)2(7,8)4(12,13)17(14,15)16/h4-7H,3H2,1-2H3;(H,14,15,16)/q+1;/p-1, purity 99%
Compound 4: cholinium perfluorobutanesulfonate, C9H14F9NO4S, InChI=1S/C5H14NO.C4HF9O3S/c1-6(2,3)4-5-7;5-1(6,3(9,10)11)2(7,8)4(12,13)17(14,15)16/h7H,4-5H2,1-3H3;(H,14,15,16)/q+1;/p-1, purity 97%
Compound 5: cholinium bis(nonafluorobutylsulfonyl)imide, C13H14F18N2O5S2, InChI=1S/C8F18NO4S2.C5H14NO/c9-1(10,5(17,18)19)3(13,14)7(23,24)32(28,29)27-33(30,31)8(25,26)4(15,16)2(11,12)6(20,21)22;1-6(2,3)4-5-7/h;7H,4-5H2,1-3H3/q-1;+1, purity 97%
Compound 6: 1-ethyl-1-methylpyrrolidinium bis(nonafluorobutylsulfonyl)imide, C15H16F18N2O4S2, InChI=1S/C8F18NO4S2.C7H16N/c9-1(10,5(17,18)19)3(13,14)7(23,24)32(28,29)27-33(30,31)8(25,26)4(15,16)2(11,12)6(20,21)22;1-3-8(2)6-4-5-7-8/h;3-7H2,1-2H3/q-1;+1, purity 97%
Compound 7: 1-butyl-1-methylpyrrolidinium bis(nonafluorobutylsulfonyl)imide, C17H20F18N2O4S2, InChI=1S/C9H20N.C8F18NO4S2/c1-3-4-7-10(2)8-5-6-9-10;9-1(10,5(17,18)19)3(13,14)7(23,24)32(28,29)27-33(30,31)8(25,26)4(15,16)2(11,12)6(20,21)22/h3-9H2,1-2H3;/q+1;-1, purity 98%
Compound 8: 1-ethyl-3-methylpyridinium perfluoropentanoate, C13H12F9NO2, InChI=1S/C8H12N.C5HF9O2/c1-3-9-6-4-5-8(2)7-9;6-2(7,1(15)16)3(8,9)4(10,11)5(12,13)14/h4-7H,3H2,1-2H3;(H,15,16)/q+1;/p-1

System: tetrabutylammonium heptadecafluorooctanesulfonate; phases: Liquid, Air at 1 atmosphere
Property: Surface tension liquid-gas, N/m (Liquid); method: Pendant drop shape
Temperature, K	Surface tension liquid-gas, N/m	uncertainty
298.4	0.02198	0.00034
303.2	0.0216	0.00034
313.3	0.02111	0.00033
323.2	0.02065	0.00033
333.2	0.02014	0.00032
343	0.01955	0.00031

System: tetrabutylammonium perfluorobutanesulfonate; phases: Liquid, Air at 1 atmosphere
Property: Surface tension liquid-gas, N/m (Liquid); method: Pendant drop shape
Temperature, K	Surface tension liquid-gas, N/m	uncertainty
333.1	0.02277	0.00035
338	0.02257	0.00035
343.1	0.02236	0.00035
348.3	0.0222	0.00034
353.4	0.02195	0.00034

System: 1-ethyl-3-methylpyridinium perfluorobutanesulfonate; phases: Liquid, Air at 1 atmosphere
Property: Surface tension liquid-gas, N/m (Liquid); method: Pendant drop shape
Temperature, K	Surface tension liquid-gas, N/m	uncertainty
298.3	0.02635	0.00032
303.4	0.02616	0.00032
313.4	0.02577	0.00031
323.6	0.02539	0.00031
332.9	0.02512	0.00031
343	0.0247	0.0003

System: cholinium perfluorobutanesulfonate; phases: Crystal, Liquid, Air at 1 atmosphere
Property: Normal melting temperature, K (Crystal); method: DTA
Normal melting temperature, K	uncertainty
436	4

System: cholinium bis(nonafluorobutylsulfonyl)imide; phases: Crystal, Liquid, Air at 1 atmosphere
Property: Normal melting temperature, K (Crystal); method: DTA
Normal melting temperature, K	uncertainty
303	4

System: cholinium bis(nonafluorobutylsulfonyl)imide; phases: Liquid, Air at 1 atmosphere
Property: Surface tension liquid-gas, N/m (Liquid); method: Pendant drop shape
Temperature, K	Surface tension liquid-gas, N/m	uncertainty
313.4	0.02504	0.00047
323.4	0.02439	0.00046
333.3	0.0238	0.00045
343.4	0.02324	0.00044
353.5	0.02267	0.00043

System: cholinium bis(nonafluorobutylsulfonyl)imide; phases: Metastable liquid
Fixed: Pressure, kPa = 101.325
Property: Mass density, kg/m3 (Metastable liquid); method: Vibrating tube method
Temperature, K	Mass density, kg/m3	uncertainty
308.15	1679.4	5.5
313.15	1673.6	5.5
318.15	1667.6	5.4
323.15	1661.6	5.4
328.15	1655.9	5.4
333.15	1650.1	5.3
338.15	1644.4	5.3
343.15	1638.8	5.3
348.15	1633.1	5.2
353.15	1627.2	5.2

System: cholinium bis(nonafluorobutylsulfonyl)imide; phases: Metastable liquid
Fixed: Pressure, kPa = 101.325
Property: Viscosity, Pa*s (Metastable liquid); method: Concentric cylinders viscometry
Temperature, K	Viscosity, Pa*s	uncertainty
308.15	1.338	0.064
313.15	0.9471	0.0417
318.15	0.6846	0.028
323.15	0.5061	0.0192
328.15	0.3799	0.0135
333.15	0.2903	0.0096
338.15	0.2248	0.007
343.15	0.1767	0.0052
348.15	0.1407	0.004
353.15	0.1134	0.0031

System: cholinium bis(nonafluorobutylsulfonyl)imide; phases: Metastable liquid
Fixed: Pressure, kPa = 101.325
Property: Refractive index (Na D-line) (Metastable liquid); method: Standard Abbe refractometry
Temperature, K	Refractive index (Na D-line)	uncertainty
308.15	1.37365	0.00068
313.15	1.37234	0.00068
318.15	1.37103	0.00068
323.15	1.36975	0.00068
328.15	1.36845	0.00068
333.15	1.36714	0.00068
338.15	1.3659	0.00068
343.15	1.36463	0.00068
348.15	1.36338	0.00068
353.15	1.36212	0.00068

System: cholinium bis(nonafluorobutylsulfonyl)imide; phases: Metastable liquid
Fixed: Pressure, kPa = 101.325
Property: Electrical conductivity, S/m (Metastable liquid); method: Alternating current cell with electrodes
Temperature, K	Electrical conductivity, S/m	uncertainty
308.15	0.0096	0.0002
313.15	0.0128	0.0002
318.15	0.017	0.0003
323.15	0.0227	0.0003

System: 1-ethyl-1-methylpyrrolidinium bis(nonafluorobutylsulfonyl)imide; phases: Crystal, Liquid, Air at 1 atmosphere
Property: Normal melting temperature, K (Crystal); method: DTA
Normal melting temperature, K	uncertainty
428	4

System: 1-butyl-1-methylpyrrolidinium bis(nonafluorobutylsulfonyl)imide; phases: Crystal, Liquid, Air at 1 atmosphere
Property: Normal melting temperature, K (Crystal); method: DTA
Normal melting temperature, K	uncertainty
371	4

System: 1-ethyl-3-methylpyridinium perfluoropentanoate; phases: Crystal, Liquid, Air at 1 atmosphere
Property: Normal melting temperature, K (Crystal); method: DTA
Normal melting temperature, K	uncertainty
275	4

System: 1-ethyl-3-methylpyridinium perfluoropentanoate; phases: Liquid, Air at 1 atmosphere
Property: Surface tension liquid-gas, N/m (Liquid); method: Pendant drop shape
Temperature, K	Surface tension liquid-gas, N/m	uncertainty
298.3	0.02683	0.00032
308.2	0.02649	0.00032
317.9	0.02607	0.00031
328	0.02571	0.00031
338	0.02531	0.00031
347	0.02494	0.00031

System: 1-ethyl-3-methylpyridinium perfluoropentanoate; phases: Liquid
Fixed: Pressure, kPa = 101.325
Property: Mass density, kg/m3 (Liquid); method: Vibrating tube method
Temperature, K	Mass density, kg/m3	uncertainty
293.15	1458.7	1.6
298.15	1453.6	1.6
303.15	1448.6	1.6
308.15	1443.6	1.6
313.15	1438.7	1.5
318.15	1433.7	1.5
323.15	1428.9	1.5
328.15	1424	1.5
333.15	1419.2	1.5
338.15	1414.3	1.5
343.15	1409.4	1.5
348.15	1404.5	1.5
353.15	1399.5	1.5

System: 1-ethyl-3-methylpyridinium perfluoropentanoate; phases: Liquid
Fixed: Pressure, kPa = 101.325
Property: Viscosity, Pa*s (Liquid); method: Concentric cylinders viscometry
Temperature, K	Viscosity, Pa*s	uncertainty
293.15	0.196	0.0052
298.15	0.1471	0.0036
303.15	0.1108	0.0025
308.15	0.08539	0.00186
313.15	0.06781	0.00143
318.15	0.05367	0.00111
323.15	0.0436	0.00091
328.15	0.03594	0.00075
333.15	0.03035	0.00063
338.15	0.02532	0.00053
343.15	0.02161	0.00045
348.15	0.01861	0.00039
353.15	0.01639	0.00034

System: 1-ethyl-3-methylpyridinium perfluoropentanoate; phases: Liquid
Fixed: Pressure, kPa = 101.325
Property: Refractive index (Na D-line) (Liquid); method: Standard Abbe refractometry
Temperature, K	Refractive index (Na D-line)	uncertainty
293.15	1.42282	0.00037
298.15	1.42137	0.00037
303.15	1.4199	0.00037
308.15	1.41844	0.00037
313.15	1.41697	0.00037
318.15	1.41553	0.00037
323.15	1.41406	0.00037
328.15	1.4126	0.00037
333.15	1.41114	0.00037
338.15	1.40955	0.00037
343.15	1.40811	0.00037
348.15	1.40672	0.00037
353.15	1.40531	0.00037

System: 1-ethyl-3-methylpyridinium perfluoropentanoate; phases: Liquid
Fixed: Pressure, kPa = 101.325
Property: Electrical conductivity, S/m (Liquid); method: Alternating current cell with electrodes
Temperature, K	Electrical conductivity, S/m	uncertainty
293.15	0.0915	0.0015
298.15	0.12	0.002
303.15	0.155	0.002
308.15	0.194	0.003
313.15	0.239	0.003
318.15	0.289	0.004
323.15	0.355	0.004
