Measured thermophysical data. Solubility of dibenzothiophene in nine organic solvents: Experimental measurement and thermodynamic modelling
Source: J. Chem. Thermodyn., 2019, 10.1016/j.jct.2018.09.017
Compound 1: dibenzothiophene, C12H8S, InChI=1S/C12H8S/c1-3-7-11-9(5-1)10-6-2-4-8-12(10)13-11/h1-8H, purity 98%
Compound 2: 3,6-dioxa-1-decanol, C8H18O3, InChI=1S/C8H18O3/c1-2-3-5-10-7-8-11-6-4-9/h9H,2-8H2,1H3, purity 99%
Compound 3: diethylene glycol, C4H10O3, InChI=1S/C4H10O3/c5-1-3-7-4-2-6/h5-6H,1-4H2, purity 99%
Compound 4: dimethyl sulfoxide, C2H6OS, InChI=1S/C2H6OS/c1-4(2)3/h1-2H3, purity 99%
Compound 5: octane, C8H18, InChI=1S/C8H18/c1-3-5-7-8-6-4-2/h3-8H2,1-2H3, purity 99%
Compound 6: sulfolane, C4H8O2S, InChI=1S/C4H8O2S/c5-7(6)3-1-2-4-7/h1-4H2, purity 99%
Compound 7: propan-1-ol, C3H8O, InChI=1S/C3H8O/c1-2-3-4/h4H,2-3H2,1H3, purity 99%
Compound 8: acetone, C3H6O, InChI=1S/C3H6O/c1-3(2)4/h1-2H3, purity 99.5%
Compound 9: ethanol, C2H6O, InChI=1S/C2H6O/c1-2-3/h3H,2H2,1H3, purity 99.7%
Compound 10: acetonitrile, C2H3N, InChI=1S/C2H3N/c1-2-3/h1H3, purity 99%
Compound 11: dimethylformamide, C3H7NO, InChI=1S/C3H7NO/c1-4(2)3-5/h3H,1-2H3, purity 99.5%
Compound 12: cis-decahydronaphthalene, C10H18, InChI=1S/C10H18/c1-2-6-10-8-4-3-7-9(10)5-1/h9-10H,1-8H2/t9-,10+, purity 99%
Compound 13: trans-decahydronaphthalene, C10H18, InChI=1S/C10H18/c1-2-6-10-8-4-3-7-9(10)5-1/h9-10H,1-8H2/t9-,10-, purity 99%

System: dibenzothiophene + dimethylformamide; phases: Liquid, Crystal
Fixed: Pressure, kPa = 101.3
Property: Solid-liquid equilibrium temperature, K (Liquid); method: VISOBS
Mole fraction of dibenzothiophene	Solid-liquid equilibrium temperature, K	uncertainty
0.1133	289.45	3.18
0.1305	294.25	3.52
0.1475	298.65	3.66
0.1645	302.65	3.59
0.1838	306.55	3.36
0.2056	310.15	3.42
0.2309	314.35	3.67
0.2574	318.35	3.79
0.2854	322.35	3.72
0.3129	325.55	3.72
0.3437	329.25	4.14

System: dibenzothiophene + acetone; phases: Liquid, Crystal
Fixed: Pressure, kPa = 101.3
Property: Solid-liquid equilibrium temperature, K (Liquid); method: VISOBS
Mole fraction of dibenzothiophene	Solid-liquid equilibrium temperature, K	uncertainty
0.0769	300.15	3.36
0.0792	301.15	1.99
0.0884	303.15	2.3
0.1066	308.15	2.73
0.1204	311.25	2.7
0.1358	314.65	2.59
0.1556	317.95	2.52
0.1793	321.65	2.43
0.2168	326.25	2.49
0.2608	330.95	2.56
0.319	336.25	2.94
0.3721	341.15	3.45

System: dibenzothiophene + dimethyl sulfoxide; phases: Liquid, Crystal
Fixed: Pressure, kPa = 101.3
Property: Solid-liquid equilibrium temperature, K (Liquid); method: VISOBS
Mole fraction of dibenzothiophene	Solid-liquid equilibrium temperature, K	uncertainty
0.0567	292.95	1.99
0.0668	296.45	2.5
0.0791	301.25	3
0.0925	306.15	2.89
0.1076	310.15	2.71
0.1272	314.85	2.36
0.1502	318.05	2.46
0.1771	322.95	2.64
0.2005	325.45	2.59
0.2336	330.15	2.9
0.2638	333.25	2.72

System: dibenzothiophene + diethylene glycol; phases: Liquid, Crystal
Fixed: Pressure, kPa = 101.3
Property: Solid-liquid equilibrium temperature, K (Liquid); method: VISOBS
Mole fraction of dibenzothiophene	Solid-liquid equilibrium temperature, K	uncertainty
0.00027	287.85	0.98
0.00062	299.95	2.1
0.00093	309.95	2.36
0.00119	314.15	1.3
0.00163	317.65	1.03
0.0023	320.95	1.05
0.00328	324.95	0.95
0.00443	326.85	0.56
0.00619	328.15	0.5
0.00951	330.15	0.57
0.01435	332.35	0.6
0.02033	334.15	0.68

System: dibenzothiophene + 3,6-dioxa-1-decanol; phases: Liquid, Crystal
Fixed: Pressure, kPa = 101.3
Property: Solid-liquid equilibrium temperature, K (Liquid); method: VISOBS
Mole fraction of dibenzothiophene	Solid-liquid equilibrium temperature, K	uncertainty
0.063	282.75	3.02
0.0695	285.85	2.5
0.0873	291.65	3.24
0.1049	298.95	3.72
0.1232	304.35	3.48
0.1436	309.85	3.85
0.167	316.05	3.81
0.1923	320.95	3.2
0.2171	324.35	3.29
0.2454	328.95	3.45
0.2797	333.15	3.44

System: dibenzothiophene + sulfolane; phases: Liquid, Crystal
Fixed: Pressure, kPa = 101.3
Property: Solid-liquid equilibrium temperature, K (Liquid); method: VISOBS
Mole fraction of dibenzothiophene	Solid-liquid equilibrium temperature, K	uncertainty
0.0541	297.65	4.44
0.0563	299.45	3.32
0.0609	301.75	1.56
0.0712	303.45	1.74
0.0923	309.15	2.46
0.1087	313.35	2.64
0.125	317.05	2.7
0.1445	321.05	2.97
0.1632	324.85	2.69
0.1852	327.75	2.54
0.2139	331.75	2.65
0.2421	334.75	2.75
0.2714	338.25	2.99
0.2943	340.45	2.84

System: dibenzothiophene + propan-1-ol; phases: Liquid, Crystal
Fixed: Pressure, kPa = 101.3
Property: Solid-liquid equilibrium temperature, K (Liquid); method: VISOBS
Mole fraction of dibenzothiophene	Solid-liquid equilibrium temperature, K	uncertainty
0.0065	288.05	2.87
0.0083	295.95	2.98
0.0099	300.15	2.24
0.0118	303.85	2.08
0.0143	307.85	2.4
0.0183	314.65	2.63
0.0232	320.65	2
0.0292	324.05	1.88
0.0363	328.95	2.18
0.043	332.25	2.49
0.0486	336.05	3.31

System: dibenzothiophene + octane; phases: Liquid, Crystal
Fixed: Pressure, kPa = 101.3
Property: Solid-liquid equilibrium temperature, K (Liquid); method: VISOBS
Mole fraction of dibenzothiophene	Solid-liquid equilibrium temperature, K	uncertainty
0.0232	292.05	4.07
0.0244	294.15	2.67
0.0277	297.15	2.25
0.0317	300.05	2.33
0.0373	304.15	2.54
0.0438	308.25	2.98
0.0521	314.15	2.83
0.062	318.15	2.8
0.0767	325.15	3.91
0.0995	337.15	5.25

System: dibenzothiophene + ethanol; phases: Liquid, Crystal
Fixed: Pressure, kPa = 101.3
Property: Solid-liquid equilibrium temperature, K (Liquid); method: VISOBS
Mole fraction of dibenzothiophene	Solid-liquid equilibrium temperature, K	uncertainty
0.0062	294.55	2.96
0.0074	300.25	3.46
0.0082	303.85	2.81
0.0092	306.45	2.47
0.0106	310.25	2.76
0.0121	313.95	3.02
0.0141	318.95	2.82
0.0164	322.55	2.47
0.0197	327.35	2.26
0.0239	331.15	2.18

System: dibenzothiophene + acetonitrile; phases: Liquid, Crystal
Fixed: Pressure, kPa = 101.3
Property: Solid-liquid equilibrium temperature, K (Liquid); method: VISOBS
Mole fraction of dibenzothiophene	Solid-liquid equilibrium temperature, K	uncertainty
0.0103	289.35	2.85
0.0107	290.45	2.29
0.0121	293.25	2.33
0.0143	297.35	2.36
0.0175	302.15	2.29
0.0199	304.55	2.07
0.0244	309.25	2.08
0.0299	313.05	1.92
0.0365	316.95	1.87
0.0456	321.05	2.08

System: dibenzothiophene + cis-decahydronaphthalene + trans-decahydronaphthalene; phases: Liquid, Crystal
Fixed: Solvent: Mole fraction of cis-decahydronaphthalene = 0.388
Fixed: Pressure, kPa = 101.3
Property: Solid-liquid equilibrium temperature, K (Liquid); method: VISOBS
Mole fraction of dibenzothiophene	Solid-liquid equilibrium temperature, K	uncertainty
0.0408	294.15	6.81
0.042	296.15	4.37
0.0445	298.15	3.84
0.049	302.15	4.18
0.0516	304.15	3.82
0.0571	308.15	3.9
0.0706	317.15	3.72
0.0891	325.15	4.13
0.1007	331.15	6.59
0.1069	337.15	10.35
