Measured thermophysical data. Coupled diffusion in aqueous citric acid + calcium citrate solutions
Source: J. Chem. Thermodyn., 2019, 10.1016/j.jct.2018.11.003
Compound 1: citric acid, C6H8O7, InChI=1S/C6H8O7/c7-3(8)1-6(13,5(11)12)2-4(9)10/h13H,1-2H2,(H,7,8)(H,9,10)(H,11,12), purity 99.5%
Compound 2: calcium citrate, C12H10Ca3O14, InChI=1S/2C6H8O7.3Ca/c2*7-3(8)1-6(13,5(11)12)2-4(9)10;;;/h2*13H,1-2H2,(H,7,8)(H,9,10)(H,11,12);;;/q;;3*+2/p-6, purity 99%
Compound 3: water, H2O, InChI=1S/H2O/h1H2, purity 99.9%

System: citric acid + water; phases: Liquid
Fixed: Pressure, kPa = 101.3
Fixed: Temperature, K = 298.15
Property: Binary diffusion coefficient, m2/s (Liquid); method: Taylor dispersion method
Amount concentration (molarity), mol/dm3 of citric acid	Binary diffusion coefficient, m2/s	uncertainty
0.002	8.48e-10	0.04
0.00499	7.9e-10	0.021
0.00997	7.6e-10	0.029
0.05	7.19e-10	0.031

System: calcium citrate + water; phases: Liquid
Fixed: Pressure, kPa = 101.3
Fixed: Temperature, K = 298.15
Property: Binary diffusion coefficient, m2/s (Liquid); method: Taylor dispersion method
Amount concentration (molarity), mol/dm3 of calcium citrate	Binary diffusion coefficient, m2/s	uncertainty
0.0002	6.18e-10	0.03
0.000402	6.18e-10	0.056
0.000603	6.16e-10	0.047
0.000801	6.11e-10	0.027
