Measured thermophysical data. Ternary phase diagram of phenanthrene and carbazole in different solvents and its application in the separation of them
Source: J. Chem. Thermodyn., 2019, 10.1016/j.jct.2018.11.025
Compound 1: dimethylformamide, C3H7NO, InChI=1S/C3H7NO/c1-4(2)3-5/h3H,1-2H3, purity 99.5%
Compound 2: acetone, C3H6O, InChI=1S/C3H6O/c1-3(2)4/h1-2H3, purity 99.5%
Compound 3: acetonitrile, C2H3N, InChI=1S/C2H3N/c1-2-3/h1H3, purity 99%
Compound 4: toluene, C7H8, InChI=1S/C7H8/c1-7-5-3-2-4-6-7/h2-6H,1H3, purity 99.5%
Compound 5: phenanthrene, C14H10, InChI=1S/C14H10/c1-3-7-13-11(5-1)9-10-12-6-2-4-8-14(12)13/h1-10H, purity 95%
Compound 6: 9H-carbazole, C12H9N, InChI=1S/C12H9N/c1-3-7-11-9(5-1)10-6-2-4-8-12(10)13-11/h1-8,13H, purity 96%

System: phenanthrene; phases: Crystal 2, Crystal 1, Air at 1 atmosphere
Property: Triple point temperature, K (Crystal 2); method: DSC
Triple point temperature, K	uncertainty
339.52	0.93

System: phenanthrene; phases: Crystal 1, Liquid, Air at 1 atmosphere
Property: Normal melting temperature, K (Crystal 1); method: DTA
Normal melting temperature, K	uncertainty
371.71	0.7

System: 9H-carbazole; phases: Crystal, Liquid, Air at 1 atmosphere
Property: Normal melting temperature, K (Crystal); method: DTA
Normal melting temperature, K	uncertainty
517.04	0.7

System: phenanthrene + 9H-carbazole + dimethylformamide; phases: Liquid, Crystal
Fixed: Temperature, K = 308.15
Fixed: Pressure, kPa = 101.3
Property: Mass fraction of phenanthrene (Liquid); method: Chromatography
Mass fraction of 9H-carbazole	Mass fraction of phenanthrene	uncertainty
0	0.4879	0.0488
0.0708	0.4354	0.0438
0.0996	0.4181	0.0424
0.1035	0.4208	0.0427
0.1291	0.414	0.0427
0.189	0.3551	0.0392
0.2118	0.3552	0.0381
0.2117	0.3437	0.0374
0.2278	0.3278	0.051

System: phenanthrene + 9H-carbazole + dimethylformamide; phases: Liquid, Crystal
Fixed: Temperature, K = 308.15
Fixed: Pressure, kPa = 101.3
Property: Mass fraction of 9H-carbazole (Liquid); method: Chromatography
Mass fraction of phenanthrene	Mass fraction of 9H-carbazole	uncertainty
0.3552	0.2118	0.0212
0.3437	0.2117	0.0298
0.3278	0.2278	0.0259
0.2752	0.2407	0.0249
0.203	0.2573	0.0262
0.1649	0.2668	0.0271
0.1276	0.2789	0.0283
0.108	0.2874	0.0288
0.0856	0.2832	0.0284
0	0.3118	0.0312

System: phenanthrene + 9H-carbazole + acetone; phases: Liquid, Crystal
Fixed: Temperature, K = 308.15
Fixed: Pressure, kPa = 101.3
Property: Mass fraction of phenanthrene (Liquid); method: Chromatography
Mass fraction of 9H-carbazole	Mass fraction of phenanthrene	uncertainty
0	0.4653	0.0465
0.0573	0.411	0.0415
0.0806	0.3849	0.0398
0.0832	0.3817	0.0395

System: phenanthrene + 9H-carbazole + acetone; phases: Liquid, Crystal
Fixed: Temperature, K = 308.15
Fixed: Pressure, kPa = 101.3
Property: Mass fraction of 9H-carbazole (Liquid); method: Chromatography
Mass fraction of phenanthrene	Mass fraction of 9H-carbazole	uncertainty
0.3849	0.0806	0.0323
0.3817	0.0832	0.0103
0.3774	0.082	0.0133
0.2291	0.0872	0.0091
0.2038	0.0901	0.009
0.1657	0.087	0.0087
0.1243	0.0891	0.0089
0.0883	0.0867	0.0087
0.0495	0.0841	0.0084
0	0.0864	0.0086

System: phenanthrene + 9H-carbazole + acetonitrile; phases: Liquid, Crystal
Fixed: Temperature, K = 308.15
Fixed: Pressure, kPa = 101.3
Property: Mass fraction of phenanthrene (Liquid); method: Chromatography
Mass fraction of 9H-carbazole	Mass fraction of phenanthrene	uncertainty
0	0.1669	0.0167
0.0346	0.1627	0.0209
0.0284	0.1612	0.0168
0.033	0.1535	0.0314
0.0337	0.1593	0.0248

System: phenanthrene + 9H-carbazole + acetonitrile; phases: Liquid, Crystal
Fixed: Temperature, K = 308.15
Fixed: Pressure, kPa = 101.3
Property: Mass fraction of 9H-carbazole (Liquid); method: Chromatography
Mass fraction of phenanthrene	Mass fraction of 9H-carbazole	uncertainty
0.1612	0.0284	0.0284
0.1535	0.033	0.0033
0.1593	0.0337	0.0076
0.1402	0.0329	0.0037
0.1068	0.028	0.0029
0.0921	0.0304	0.0034
0.0322	0.0239	0.0024
0	0.0228	0.0023

System: phenanthrene + 9H-carbazole + toluene; phases: Liquid, Crystal
Fixed: Temperature, K = 308.15
Fixed: Pressure, kPa = 101.3
Property: Mass fraction of 9H-carbazole (Liquid); method: Chromatography
Mass fraction of phenanthrene	Mass fraction of 9H-carbazole	uncertainty
0.3402	0.011	0.011
0.3411	0.0086	0.0086
0.2978	0.0099	0.0011
0.2234	0.0093	0.0009
0.1794	0.0097	0.001
0.1259	0.0083	0.0009
0.0653	0.0073	0.0007
0	0.0066	0.0007

System: phenanthrene + 9H-carbazole + toluene; phases: Liquid, Crystal
Fixed: Temperature, K = 308.15
Fixed: Pressure, kPa = 101.3
Property: Mass fraction of phenanthrene (Liquid); method: Chromatography
Mass fraction of 9H-carbazole	Mass fraction of phenanthrene	uncertainty
0	0.3989	0.0399
0.011	0.3402	0.034
0.0086	0.3411	0.0345

System: phenanthrene + dimethylformamide; phases: Liquid, Crystal
Property: Mass fraction of phenanthrene (Liquid); method: Chromatography
Temperature, K	Pressure, kPa	Mass fraction of phenanthrene	uncertainty
308.15	101.3	0.4879	0.0488

System: 9H-carbazole + dimethylformamide; phases: Liquid, Crystal
Property: Mass fraction of 9H-carbazole (Liquid); method: Chromatography
Temperature, K	Pressure, kPa	Mass fraction of 9H-carbazole	uncertainty
308.15	101.3	0.3118	0.0312

System: phenanthrene + acetone; phases: Liquid, Crystal
Property: Mass fraction of phenanthrene (Liquid); method: Chromatography
Temperature, K	Pressure, kPa	Mass fraction of phenanthrene	uncertainty
308.15	101.3	0.4653	0.0465

System: 9H-carbazole + acetone; phases: Liquid, Crystal
Property: Mass fraction of 9H-carbazole (Liquid); method: Chromatography
Temperature, K	Pressure, kPa	Mass fraction of 9H-carbazole	uncertainty
308.15	101.3	0.0864	0.0086

System: phenanthrene + acetonitrile; phases: Liquid, Crystal
Property: Mass fraction of phenanthrene (Liquid); method: Chromatography
Temperature, K	Pressure, kPa	Mass fraction of phenanthrene	uncertainty
308.15	101.3	0.1669	0.0167

System: 9H-carbazole + acetonitrile; phases: Liquid, Crystal
Property: Mass fraction of 9H-carbazole (Liquid); method: Chromatography
Temperature, K	Pressure, kPa	Mass fraction of 9H-carbazole	uncertainty
308.15	101.3	0.0228	0.0023

System: 9H-carbazole + toluene; phases: Liquid, Crystal
Property: Mass fraction of 9H-carbazole (Liquid); method: Chromatography
Temperature, K	Pressure, kPa	Mass fraction of 9H-carbazole	uncertainty
308.15	101.3	0.0066	0.0007

System: phenanthrene + toluene; phases: Liquid, Crystal
Property: Mass fraction of phenanthrene (Liquid); method: Chromatography
Temperature, K	Pressure, kPa	Mass fraction of phenanthrene	uncertainty
308.15	101.3	0.3989	0.0399

System: phenanthrene + 9H-carbazole; phases: Crystal, Liquid
Property: Solid-liquid equilibrium temperature, K (Crystal); method: DTA
Mass fraction of phenanthrene	Pressure, kPa	Solid-liquid equilibrium temperature, K	uncertainty
0.8972	101.3	377.15	0.7
