Measured thermophysical data. Liquid phase equilibrium of the ternary systems, water + propionic or butyric acid + mesityl oxide, at (298.2 and 323.2) K
Source: J. Chem. Thermodyn., 2017, 10.1016/j.jct.2017.03.018
Compound 1: 4-methyl-3-penten-2-one, C6H10O, InChI=1S/C6H10O/c1-5(2)4-6(3)7/h4H,1-3H3, purity 98%
Compound 2: propanoic acid, C3H6O2, InChI=1S/C3H6O2/c1-2-3(4)5/h2H2,1H3,(H,4,5), purity 99.5%
Compound 3: butanoic acid, C4H8O2, InChI=1S/C4H8O2/c1-2-3-4(5)6/h2-3H2,1H3,(H,5,6), purity 99.5%
Compound 4: water, H2O, InChI=1S/H2O/h1H2, purity 99.8%

System: propanoic acid + 4-methyl-3-penten-2-one + water; phases: Liquid mixture 1, Liquid mixture 2
Fixed: Pressure, kPa = 101
Property: Mass fraction of propanoic acid (Liquid mixture 1); method: Chromatography
Property: Mass fraction of propanoic acid (Liquid mixture 2); method: Chromatography
Property: Mass fraction of water (Liquid mixture 2); method: Chromatography
Temperature, K	Mass fraction of water	Mass fraction of propanoic acid	uncertainty	Mass fraction of propanoic acid	uncertainty	Mass fraction of water	uncertainty
298.2	0.038	0		0		0.974	
323.2	0.045	0		0		0.98	
323.2	0.088	0.039	0.022	0.013	0.009	0.967	
323.2	0.117	0.089	0.025	0.027	0.009	0.951	
323.2	0.155	0.139	0.025	0.041	0.009	0.936	
323.2	0.181	0.182	0.029	0.056	0.008	0.919	
323.2	0.212	0.248	0.026	0.089	0.008	0.878	
323.2	0.244	0.283	0.02	0.122	0.008	0.836	
323.2	0.289	0.313	0.017	0.154	0.008	0.798	
323.2	0.373	0.324	0.017	0.178	0.008	0.765	
298.2	0.076	0.037	0.023	0.012	0.01	0.965	
298.2	0.097	0.077	0.029	0.023	0.009	0.952	
298.2	0.132	0.14	0.032	0.038	0.008	0.935	
298.2	0.149	0.191	0.033	0.055	0.009	0.914	
298.2	0.182	0.253	0.027	0.079	0.009	0.888	
298.2	0.21	0.296	0.022	0.104	0.008	0.86	
298.2	0.247	0.331	0.018	0.122	0.008	0.834	
298.2	0.313	0.353	0.017	0.177	0.009	0.772	

System: butanoic acid + 4-methyl-3-penten-2-one + water; phases: Liquid mixture 2, Liquid mixture 1
Fixed: Pressure, kPa = 101
Property: Mass fraction of water (Liquid mixture 2); method: Chromatography
Property: Mass fraction of water (Liquid mixture 1); method: Chromatography
Property: Mass fraction of butanoic acid (Liquid mixture 1); method: Chromatography
Temperature, K	Mass fraction of butanoic acid	Mass fraction of water	uncertainty	Mass fraction of water	uncertainty	Mass fraction of butanoic acid	uncertainty
298.2	0	0.974	0.008	0.038	0.013	0	
298.2	0.067	0.92	0.009	0.209	0.016	0.477	
323.2	0	0.98	0.008	0.045	0.013	0	
323.2	0.007	0.975	0.009	0.087	0.016	0.056	
323.2	0.014	0.969	0.009	0.108	0.015	0.115	
323.2	0.019	0.964	0.009	0.137	0.014	0.17	
323.2	0.027	0.957	0.009	0.149	0.014	0.218	
323.2	0.038	0.948	0.009	0.169	0.014	0.294	
323.2	0.044	0.942	0.009	0.186	0.013	0.355	
323.2	0.056	0.931	0.009	0.193	0.014	0.416	
323.2	0.073	0.914	0.009	0.218	0.015	0.469	
298.2	0.007	0.97	0.009	0.079	0.015	0.067	
323.2	0.088	0.9	0.009	0.231	0.015	0.496	
298.2	0.013	0.965	0.009	0.097	0.014	0.122	
298.2	0.017	0.961	0.009	0.113	0.014	0.173	
298.2	0.026	0.955	0.009	0.135	0.014	0.225	
298.2	0.033	0.948	0.009	0.146	0.013	0.298	
298.2	0.038	0.946	0.009	0.158	0.014	0.343	
298.2	0.047	0.939	0.009	0.18	0.014	0.397	
298.2	0.058	0.929	0.009	0.19	0.014	0.444	
