Measured thermophysical data. Measurement and correlation of solubility of ciclesonide in seven pure organic solvents
Source: J. Chem. Thermodyn., 2017, 10.1016/j.jct.2016.10.014
Compound 1: Ciclesonide, C32H44O7, InChI=1S/C32H44O7/c1-18(2)28(36)37-17-25(35)32-26(38-29(39-32)19-8-6-5-7-9-19)15-23-22-11-10-20-14-21(33)12-13-30(20,3)27(22)24(34)16-31(23,32)4/h12-14,18-19,22-24,26-27,29,34H,5-11,15-17H2,1-4H3/t22-,23-,24-,26+,27+,29+,30-,31-,32+/m0/s1, purity 99.1%
Compound 2: propan-2-ol, C3H8O, InChI=1S/C3H8O/c1-3(2)4/h3-4H,1-2H3, purity 99.7%
Compound 3: propan-1-ol, C3H8O, InChI=1S/C3H8O/c1-2-3-4/h4H,2-3H2,1H3, purity 99.8%
Compound 4: butan-1-ol, C4H10O, InChI=1S/C4H10O/c1-2-3-4-5/h5H,2-4H2,1H3, purity 99.5%
Compound 5: ethanol, C2H6O, InChI=1S/C2H6O/c1-2-3/h3H,2H2,1H3, purity 99.7%
Compound 6: acetonitrile, C2H3N, InChI=1S/C2H3N/c1-2-3/h1H3, purity 99.5%
Compound 7: toluene, C7H8, InChI=1S/C7H8/c1-7-5-3-2-4-6-7/h2-6H,1H3, purity 99.5%
Compound 8: ethyl acetate, C4H8O2, InChI=1S/C4H8O2/c1-3-6-4(2)5/h3H2,1-2H3, purity 99.5%

System: Ciclesonide; phases: Crystal, Liquid, Air at 1 atmosphere
Property: Normal melting temperature, K (Crystal); method: DTA
Normal melting temperature, K	uncertainty
479.2	0.6

System: Ciclesonide; phases: Crystal, Liquid, Air at 1 atmosphere
Property: Molar enthalpy of transition or fusion, kJ/mol (Crystal); method: DSC
Molar enthalpy of transition or fusion, kJ/mol	uncertainty
26.92	0.6

System: Ciclesonide; phases: Crystal
Fixed: Pressure, kPa = 101.325
Property: Molar heat capacity at constant pressure, J/K/mol (Crystal); method: Small sample (50 mg) DSC
Temperature, K	Molar heat capacity at constant pressure, J/K/mol	uncertainty
303.3	423.250221968	42.768385996
303.63	426.224003548	43.038729776
303.96	424.656009624	42.876523508
304.3	427.035034888	43.146867288
304.63	426.656553596	43.092798532
304.96	423.682772016	42.768385996
305.3	422.00664058	42.606179728
305.63	429.630335176	43.417211068
305.96	431.684947904	43.633486092
306.3	432.550048	43.687554848
306.63	436.6052047	44.120104896
306.96	442.931249152	44.768929968
307.3	445.634686952	45.039273748
307.63	449.31136236	45.41775504
307.96	457.800157052	46.22878638
308.3	459.04373844	46.390992648
308.63	462.666345092	46.715405184
308.96	462.666345092	46.715405184
309.3	470.073764664	47.472367768
309.63	470.073764664	47.472367768
309.96	467.478464376	47.202023988
310.3	467.478464376	47.202023988
310.63	471.912102368	47.634574036
310.96	471.263277296	47.58050528
311.3	471.101071028	47.58050528
311.63	476.724221652	48.175261596
311.96	478.130009308	48.283399108
312.3	480.67124084	48.553742888
312.63	478.075940552	48.283399108
312.96	479.914278256	48.499674132
313.3	476.183534092	48.12119284
313.63	471.263277296	47.58050528
313.96	465.315714136	46.985748964
314.3	480.076484524	48.499674132
314.63	475.53470902	48.067124084
314.96	482.29330352	48.715949156
315.3	483.158403616	48.824086668
315.63	489.916998116	49.47291174
315.96	487.483904096	49.256636716
316.3	490.94430448	49.581049252
316.63	495.432011228	50.0135993
316.96	494.99946118	50.0135993
317.3	492.782642184	49.74325552
317.63	493.161123476	49.797324276
317.96	491.863473332	49.689186764
318.3	490.836166968	49.581049252
318.63	495.648286252	50.067668056
318.96	494.99946118	50.0135993
319.3	500.568543048	50.55428686
319.63	499.973786732	50.500218104
319.96	503.434187116	50.82463064
320.3	508.678856448	51.3653182
320.63	508.678856448	51.3653182
320.96	511.382294248	51.63566198
321.3	515.491519704	52.068212028
321.63	520.844326548	52.608899588
321.96	526.90002722	53.25772466
322.3	533.063865404	53.852480976
322.63	539.552116124	54.501306048
322.96	545.82409182	55.15013112
323.3	546.797329428	55.204199876
323.63	550.528073592	55.582681168
323.96	546.797329428	55.204199876
324.3	549.717042252	55.528612412
324.63	548.635667132	55.4204749
324.96	550.69027986	55.636749924
325.3	550.582142348	55.582681168
325.63	550.257729812	55.582681168
325.96	549.933317276	55.528612412
326.3	554.096611488	55.96116246
326.63	556.36749924	56.177437484
326.96	556.09715546	56.177437484
327.3	556.09715546	56.177437484
327.63	553.231511392	55.853024948
327.96	558.584318236	56.393712508
328.3	559.34128082	56.50185002
328.63	561.287756036	56.664056288
328.96	562.963887472	56.880331312
329.3	563.504575032	56.934400068
329.63	563.720850056	56.934400068
329.96	564.369675128	56.988468824
330.3	567.019044172	57.258812604
330.63	571.182338384	57.691362652
330.96	569.127725656	57.475087628
331.3	571.182338384	57.691362652
331.63	571.23640714	57.691362652
331.96	571.668957188	57.745431408
332.3	572.155575992	57.799500164
332.63	573.345088624	57.907637676
332.96	576.048526424	58.177981456
333.3	574.75087628	58.069843944
333.63	573.831707428	57.961706432
333.96	573.236951112	57.907637676
334.3	574.696807524	58.015775188
334.63	578.211276664	58.39425648
334.96	577.238039056	58.286118968
335.3	578.80603298	58.448325236
335.63	579.238583028	58.502393992
335.96	579.508926808	58.502393992
336.3	579.508926808	58.502393992
336.63	582.753052168	58.880875284
336.96	579.07637676	58.502393992
337.3	579.833339344	58.556462748
337.63	580.049614368	58.556462748
337.96	583.618152264	58.93494404
338.3	579.725201832	58.556462748
338.63	581.130989488	58.66460026
338.96	583.40187724	58.93494404
339.3	583.13153346	58.880875284
339.63	583.13153346	58.880875284
339.96	584.645458628	59.043081552
340.3	584.645458628	59.043081552
340.63	586.37565882	59.20528782
340.96	588.322134036	59.421562844
341.3	584.969871164	59.097150308
341.63	586.970415136	59.259356576
341.96	588.213996524	59.421562844
342.3	588.646546572	59.4756316
342.63	587.402965184	59.313425332
342.96	590.755228056	59.637837868
343.3	592.809840784	59.854112892
343.63	591.349984372	59.74597538
343.96	593.296459588	59.908181648
344.3	593.783078392	59.962250404
344.63	593.13425332	59.908181648
344.96	593.512734612	59.962250404
345.3	593.837147148	59.962250404
345.63	590.052334228	59.583769112
345.96	594.864453512	60.070387916
346.3	599.838779064	60.611075476
346.63	605.245654664	61.151763036
346.96	609.679292656	61.584313084
347.3	613.572243088	61.962794376
347.63	617.086712228	62.341275668
347.96	617.357056008	62.341275668
348.3	617.357056008	62.341275668
348.63	615.194305768	62.125000644
348.96	611.51763036	61.746519352
349.3	607.840954952	61.422106816
349.63	604.110210788	61.043625524
349.96	599.838779064	60.55700672
350.3	595.945828632	60.178525428
350.63	602.434079352	60.8273505
350.96	604.704967104	61.09769428
351.3	608.597917536	61.476175572
351.63	613.193761796	61.962794376
351.96	624.007512996	63.044169496
352.3	620.925593904	62.71975696
352.63	626.332469504	63.26044452
352.96	631.901551372	63.80113208
353.3	632.009688884	63.855200836
353.63	632.225963908	63.855200836
353.96	637.795045776	64.395888396
354.3	627.143500844	63.314513276
354.63	632.712582712	63.909269592
354.96	627.46791338	63.368582032
355.3	622.169175292	62.827894472
355.63	626.710950796	63.314513276
355.96	626.873157064	63.314513276
356.3	626.981294576	63.314513276
356.63	627.089432088	63.314513276
356.96	627.46791338	63.368582032
357.3	627.46791338	63.368582032
357.63	626.548744528	63.26044452
357.96	624.980750604	63.098238252
358.3	624.007512996	63.044169496
358.63	623.358687924	62.936031984
358.96	623.1424129	62.936031984
359.3	623.1424129	62.936031984
359.63	624.061581752	63.044169496
359.96	625.737713188	63.206375764
360.3	628.927769792	63.5307883
360.63	628.495219744	63.476719544
360.96	629.576594864	63.584857056
361.3	630.98238252	63.747063324
361.63	632.550376444	63.909269592
361.96	633.469545296	63.963338348
362.3	632.658513956	63.909269592
362.63	634.875332952	64.125544616
362.96	634.875332952	64.125544616
363.3	632.820720224	63.909269592
363.63	634.929401708	64.125544616
363.96	635.686364292	64.179613372
364.3	637.092151948	64.34181964
364.63	642.985646352	64.936575956
364.96	638.389802092	64.449957152
365.3	634.064301612	64.017407104
365.63	629.63066362	63.584857056
365.96	635.145676732	64.125544616
366.3	635.794501804	64.233682128
366.63	636.227051852	64.233682128
366.96	641.633927452	64.828438444
367.3	633.41547654	63.963338348
367.63	630.657969984	63.692994568
367.96	633.091064004	63.963338348
368.3	641.471721184	64.774369688
368.63	640.390346064	64.666232176
368.96	640.660689844	64.720300932
369.3	637.849114532	64.395888396
369.63	637.578770752	64.395888396
369.96	637.578770752	64.395888396
370.3	637.632839508	64.395888396
370.63	638.119458312	64.449957152
370.96	638.82235214	64.504025908
371.3	639.741520992	64.61216342
371.63	640.876964868	64.720300932
371.96	636.984014436	64.34181964
372.3	641.201377404	64.774369688
372.63	645.905359176	65.260988492
372.96	638.82235214	64.504025908
373.3	644.49957152	65.098782224
373.63	646.067565444	65.260988492
373.96	644.067021472	65.044713468
374.3	644.067021472	65.044713468
374.63	645.094327836	65.15285098
374.96	637.903183288	64.449957152
375.3	639.795589748	64.61216342
375.63	638.984558408	64.558094664
375.96	647.148940564	65.369126004
376.3	644.22922774	65.044713468
376.63	643.4181964	64.990644712
376.96	646.013496688	65.260988492
377.3	639.687452236	64.61216342
377.63	633.253270272	63.963338348
377.96	637.74097702	64.395888396
378.3	641.52578994	64.774369688
378.63	641.52578994	64.774369688
378.96	647.905903148	65.42319476
379.3	645.256534104	65.15285098
379.63	641.093239892	64.774369688
379.96	639.741520992	64.61216342
380.3	646.1216342	65.260988492
380.63	644.607709032	65.098782224
380.96	645.797221664	65.206919736
381.3	646.93266554	65.315057248
381.63	641.52578994	64.774369688
381.96	646.93266554	65.315057248
382.3	643.742608936	65.044713468
382.63	652.33954114	65.909813564
382.96	652.33954114	65.909813564
383.3	652.33954114	65.909813564
383.63	649.419828316	65.585401028
383.96	649.63610334	65.585401028
384.3	650.122722144	65.639469784
384.63	650.555272192	65.69353854
384.96	653.583122528	66.017951076
385.3	650.284928412	65.69353854
385.63	651.690716068	65.801676052
385.96	651.690716068	65.801676052
386.3	656.773179132	66.342363612
386.63	654.934841428	66.126088588
386.96	657.962691764	66.450501124
387.3	654.556360136	66.126088588
387.63	655.85401028	66.2342261
387.96	656.827247888	66.342363612
388.3	658.395241812	66.50456988
388.63	655.04297894	66.180157344
388.96	657.692347984	66.450501124
389.3	656.286560328	66.288294856
389.63	655.5836665	66.2342261
389.96	654.448222624	66.072019832
390.3	658.01676052	66.450501124
390.63	655.637735256	66.2342261
390.96	663.261429852	66.991188684
391.3	664.829423776	67.153394952
391.63	660.612060808	66.720844904
391.96	662.07191722	66.883051172
392.3	663.099223584	66.991188684
392.63	664.072461192	67.04525744
392.96	660.557992052	66.720844904
393.3	663.099223584	66.991188684
393.63	662.288192244	66.883051172
393.96	662.288192244	66.883051172
394.3	664.180598704	67.099326196
394.63	662.61260478	66.937119928
394.96	669.208993012	67.585945
395.3	667.532861576	67.423738732
395.63	665.910798896	67.261532464
395.96	668.235755404	67.477807488
396.3	667.7491366	67.423738732
396.63	669.317130524	67.585945
396.96	668.073549136	67.477807488
397.3	675.04841866	68.180701316
397.63	672.182774592	67.910357536
397.96	674.021112296	68.072563804
398.3	672.723462152	67.964426292
398.63	674.183318564	68.072563804
398.96	671.966499568	67.85628878
399.3	679.482056652	68.613251364
399.63	670.776986936	67.748151268
399.96	677.427443924	68.39697634
400.3	672.07463708	67.85628878
400.63	671.53394952	67.802220024
400.96	674.940281148	68.180701316
401.3	671.588018276	67.85628878
401.63	676.67048134	68.342907584
401.96	679.968675456	68.66732012
402.3	676.724550096	68.342907584
402.63	676.832687608	68.342907584
402.96	676.94082512	68.342907584
403.3	676.94082512	68.342907584
403.63	676.94082512	68.342907584
403.96	676.778618852	68.342907584
404.3	676.508275072	68.342907584
404.63	676.021656268	68.288838828
404.96	683.266869572	68.991732656
405.3	683.537213352	69.045801412
405.63	688.403401392	69.532420216
405.96	681.698875648	68.829526388
406.3	675.697243732	68.234770072
406.63	670.614780668	67.748151268
406.96	678.130337752	68.505113852
407.3	678.130337752	68.505113852
407.63	678.725094068	68.559182608
407.96	676.021656268	68.288838828
408.3	685.916238616	69.262076436
408.63	681.104119332	68.775457632
408.96	688.727813928	69.532420216
409.3	685.916238616	69.262076436
409.63	682.563975744	68.9376639
409.96	689.592914024	69.640557728
410.3	690.025464072	69.694626484
410.63	689.863257804	69.694626484
410.96	688.83595144	69.586488972
411.3	692.026008044	69.910901508
411.63	694.621308332	70.181245288
411.96	691.485320484	69.856832752
412.3	694.134689528	70.127176532
412.63	690.45801412	69.74869524
412.96	689.863257804	69.694626484
413.3	692.837039384	69.964970264
413.63	695.486408428	70.235314044
413.96	692.837039384	69.964970264
414.3	695.270133404	70.235314044
414.63	697.000333596	70.397520312
414.96	692.458558092	69.910901508
415.3	692.728901872	69.964970264
415.63	692.728901872	69.964970264
415.96	691.647526752	69.856832752
416.3	691.647526752	69.856832752
416.63	691.755664264	69.856832752
416.96	691.971939288	69.910901508
417.3	692.188214312	69.910901508
417.63	692.188214312	69.910901508
417.96	696.892196084	70.397520312
418.3	694.080620772	70.073107776
418.63	696.297439768	70.343451556
418.96	692.62076436	69.964970264
419.3	691.755664264	69.856832752
419.63	694.945720868	70.181245288
419.96	691.917870532	69.856832752
420.3	693.377726944	70.01903902
420.63	694.945720868	70.181245288
420.96	698.02763996	70.505657824
421.3	691.431251728	69.856832752
421.63	684.78079474	69.20800768
421.96	678.671025312	68.559182608
422.3	674.021112296	68.072563804
422.63	695.756752208	70.2893828
422.96	692.89110814	70.01903902
423.3	688.83595144	69.586488972
423.63	695.702683452	70.2893828
423.96	702.515346708	70.938207872
424.3	694.026552016	70.073107776
424.63	692.134145556	69.910901508
424.96	692.35042058	69.910901508
425.3	696.351508524	70.343451556
425.63	696.729989816	70.397520312
425.96	681.915150672	68.883595144
426.3	681.482600624	68.829526388
426.63	686.835407468	69.370213948
426.96	686.835407468	69.370213948
427.3	692.026008044	69.910901508
427.63	686.997613736	69.370213948
427.96	693.053314408	70.01903902
428.3	694.837583356	70.181245288
428.63	701.00142154	70.776001604
428.96	701.433971588	70.83007036
429.3	685.3214823	69.20800768
429.63	700.406665224	70.721932848
429.96	694.675377088	70.181245288
430.3	699.433427616	70.613795336
430.63	699.811908908	70.667864092
430.96	698.8386713	70.55972658
431.3	699.92004642	70.667864092
431.63	698.892740056	70.55972658
431.96	698.8386713	70.55972658
432.3	693.053314408	70.01903902
432.63	698.56832752	70.55972658
432.96	698.56832752	70.55972658
433.3	698.352052496	70.505657824
433.63	698.081708716	70.505657824
433.96	697.75729618	70.451589068
434.3	702.08279666	70.884139116
434.63	699.811908908	70.667864092
434.96	698.514258764	70.55972658
435.3	698.514258764	70.55972658
435.63	700.568871492	70.776001604
435.96	699.163083836	70.613795336
436.3	699.10901508	70.613795336
436.63	694.567239576	70.127176532
436.96	695.540477184	70.235314044
437.3	696.729989816	70.343451556
437.63	699.433427616	70.613795336
437.96	698.243914984	70.505657824
438.3	696.297439768	70.343451556
438.63	693.864345748	70.073107776
438.96	695.32420216	70.235314044
439.3	696.081164744	70.2893828
439.63	696.081164744	70.2893828
439.96	695.756752208	70.2893828
440.3	694.7835146	70.181245288
440.63	694.026552016	70.073107776
440.96	694.026552016	70.073107776
441.3	694.026552016	70.073107776
441.63	695.59454594	70.235314044
441.96	698.135777472	70.505657824
442.3	700.839215272	70.776001604
442.63	703.650790584	71.046345384
442.96	706.462365896	71.37075792
443.3	709.328009964	71.6411017
443.63	711.761103984	71.91144548
443.96	712.680272836	71.965514236
444.3	712.680272836	71.965514236
444.63	710.73379762	71.803307968
444.96	707.597809772	71.478895432
445.3	703.70485934	71.10041414
445.63	699.757840152	70.667864092
445.96	695.378270916	70.235314044
446.3	691.323114216	69.802763996
446.63	687.322026272	69.424282704
446.96	694.350964552	70.127176532
447.3	692.782970628	69.964970264
447.63	700.298527712	70.721932848
447.96	700.46073398	70.721932848
448.3	702.461277952	70.938207872
448.63	698.189846228	70.505657824
448.96	699.163083836	70.613795336
449.3	698.784602544	70.55972658
449.63	697.973571204	70.505657824
449.96	698.135777472	70.505657824
450.3	697.919502448	70.505657824
450.63	701.5421091	70.83007036
450.96	701.325834076	70.83007036
451.3	701.325834076	70.83007036
451.63	701.433971588	70.83007036
451.96	692.188214312	69.910901508
452.3	698.29798374	70.505657824
452.63	700.082252688	70.721932848
452.96	700.785146516	70.776001604
453.3	706.029815848	71.316689164
453.63	705.164715752	71.208551652
453.96	704.191478144	71.10041414
454.3	704.948440728	71.208551652
454.63	705.380990776	71.262620408
454.96	705.705403312	71.262620408
455.3	705.705403312	71.262620408
455.63	711.112278912	71.803307968
455.96	711.490760204	71.857376724
456.3	713.545372932	72.073651748
456.63	710.896003888	71.803307968
456.96	708.787322404	71.587032944
457.3	712.301791544	71.965514236
457.63	710.084972548	71.695170456
457.96	711.436691448	71.857376724
458.3	711.598897716	71.857376724
458.63	717.005773316	72.398064284
458.96	715.005229344	72.235858016
459.3	715.924398196	72.289926772
459.63	716.519154512	72.343995528
459.96	715.708123172	72.289926772
460.3	714.78895432	72.18178926
460.63	713.923854224	72.127720504
460.96	713.275029152	72.019582992
461.3	712.734341592	71.965514236
461.63	712.3558603	71.965514236
461.96	712.247722788	71.91144548
462.3	712.247722788	71.91144548
462.63	712.62620408	71.965514236
462.96	713.383166664	72.073651748
463.3	714.410473028	72.127720504
463.63	715.708123172	72.289926772
463.96	716.95170456	72.398064284
464.3	718.249354704	72.560270552
464.63	719.65514236	72.668408064
464.96	721.709755088	72.884683088
465.3	722.250442648	72.938751844
465.63	723.385886524	73.046889356
465.96	724.359124132	73.155026868
466.3	719.65514236	72.668408064
466.63	720.19582992	72.72247682
466.96	720.682448724	72.776545576
467.3	722.304511404	72.938751844
467.63	725.170155472	73.26316438
467.96	727.76545576	73.479439404
468.3	730.090412268	73.749783184
468.63	730.090412268	73.749783184
468.96	729.874137244	73.695714428
469.3	728.360212076	73.587576916
469.63	725.494568008	73.26316438
469.96	727.278836956	73.425370648
470.3	725.927118056	73.317233136
470.63	725.440499252	73.26316438
470.96	724.899811692	73.209095624
471.3	729.65786222	73.695714428
471.63	727.116630688	73.425370648
471.96	727.873593272	73.53350816
472.3	728.252074564	73.53350816
472.63	727.927662028	73.53350816
472.96	727.76545576	73.479439404
473.3	730.360756048	73.749783184

System: Ciclesonide; phases: Liquid
Fixed: Pressure, kPa = 101.325
Property: Molar heat capacity at constant pressure, J/K/mol (Liquid); method: Small sample (50 mg) DSC
Temperature, K	Molar heat capacity at constant pressure, J/K/mol	uncertainty
488.3	778.914498936	78.67003998
488.63	778.968567692	78.67003998
488.96	774.426792188	78.237489932
489.3	774.426792188	78.237489932
489.63	777.616848792	78.561902468
489.96	782.753380612	79.048521272
490.3	782.10455554	78.994452516
490.63	787.51143114	79.535140076
490.96	778.86043018	78.67003998
491.3	794.215956884	80.238033904
491.63	774.913410992	78.291558688
491.96	782.753380612	79.102590028
492.3	789.566043868	79.7514151
492.63	790.160800184	79.805483856
492.96	795.838019564	80.400240172
493.3	796.324638368	80.454308928
493.63	802.704751576	81.103134
493.96	808.436039712	81.64382156
494.3	809.787758612	81.806027828
494.63	812.328990144	82.022302852
494.96	816.276009332	82.4548529
495.3	821.196266128	82.941471704
495.63	827.197898044	83.53622802
495.96	821.953228712	82.99554046
496.3	827.143829288	83.53622802
496.63	831.469329768	83.968778068
496.96	830.333885892	83.860640556
497.3	833.19952996	84.130984336
497.63	835.09193642	84.34725936
497.96	835.686692736	84.401328116
498.3	841.093568336	84.942015676
498.63	840.282536996	84.88794692
498.96	839.525574412	84.779809408
499.3	839.201161876	84.779809408
499.63	839.201161876	84.779809408
499.96	840.012193216	84.833878164
500.3	841.093568336	84.942015676
500.63	842.1208747	85.050153188
500.96	843.4725936	85.212359456
501.3	844.8243125	85.320496968
501.63	845.797550108	85.42863448
501.96	845.797550108	85.42863448
502.3	845.310931304	85.374565724
502.63	842.715631016	85.104221944
502.96	848.122506616	85.644909504
503.3	840.606949532	84.88794692
503.63	841.472049628	84.996084432
503.96	845.743481352	85.42863448
504.3	843.797006136	85.212359456
504.63	846.44637518	85.482703236
504.96	845.797550108	85.42863448
505.3	849.636431784	85.807115772
505.63	852.069525804	86.077459552
505.96	853.259038436	86.185597064
506.3	853.259038436	86.185597064
506.63	857.26012638	86.564078356
506.96	854.610757336	86.293734576
507.3	859.368807864	86.78035338
507.63	857.26012638	86.564078356
507.96	855.421788676	86.401872088
508.3	854.448551068	86.293734576
508.63	857.638607672	86.618147112
508.96	858.665914036	86.726284624
509.3	856.611301308	86.5100096
509.63	860.720526764	86.942559648
509.96	860.720526764	86.942559648
510.3	858.3415015	86.672215868
510.63	861.85597064	87.05069716
510.96	859.747289156	86.834422136
511.3	854.718894848	86.347803332
511.63	854.610757336	86.347803332
511.96	864.82975222	87.32104094
512.3	854.448551068	86.293734576
512.63	855.746201212	86.455940844
512.96	860.558320496	86.942559648
513.3	864.82975222	87.32104094
513.63	864.82975222	87.32104094
513.96	869.587802748	87.807659744
514.3	867.8035338	87.645453476
514.63	866.614021168	87.537315964
514.96	867.479121264	87.59138472
515.3	865.478577292	87.429178452
515.63	870.561040356	87.915797256
515.96	872.994134376	88.186141036
516.3	870.831384136	87.969866012
516.63	870.77731538	87.969866012
516.96	869.587802748	87.807659744
517.3	873.48075318	88.240209792
517.63	870.77731538	87.969866012
517.96	874.670265812	88.348347304
518.3	873.859234472	88.240209792
518.63	878.671353756	88.726828596
518.96	878.671353756	88.726828596
519.3	880.725966484	88.94310362
519.63	872.453446816	88.13207228
519.96	878.509147488	88.726828596
520.3	878.88762878	88.780897352
520.63	880.996310264	88.997172376
520.96	873.859234472	88.294278548

System: butan-1-ol + Ciclesonide; phases: Liquid, Crystal
Fixed: Pressure, kPa = 101.3
Property: Mole fraction of Ciclesonide (Liquid); method: gravimetric method
Temperature, K	Mole fraction of Ciclesonide	uncertainty
278.15	0.0669	0.0027
280.65	0.0689	0.0028
283.15	0.0716	0.0029
285.65	0.0743	0.003
288.15	0.0779	0.0031
290.65	0.0815	0.0033
293.15	0.0852	0.0034
295.65	0.0898	0.0036
298.15	0.0942	0.0038
300.65	0.0993	0.004
303.15	0.105	0.004
305.65	0.111	0.004
308.15	0.118	0.005
310.65	0.124	0.005
313.15	0.131	0.005

System: propan-2-ol + Ciclesonide; phases: Liquid, Crystal
Fixed: Pressure, kPa = 101.3
Property: Mole fraction of Ciclesonide (Liquid); method: gravimetric method
Temperature, K	Mole fraction of Ciclesonide	uncertainty
278.15	0.00814	0.00033
280.65	0.00948	0.00038
283.15	0.0111	0.0004
285.65	0.013	0.0005
288.15	0.0151	0.0006
290.65	0.0175	0.0007
293.15	0.0203	0.0008
295.65	0.0234	0.0009
298.15	0.0271	0.0011
300.65	0.0312	0.0013
303.15	0.0359	0.0014
305.65	0.0411	0.0016
308.15	0.047	0.0019
310.65	0.0536	0.0021
313.15	0.061	0.0024

System: propan-1-ol + Ciclesonide; phases: Liquid, Crystal
Fixed: Pressure, kPa = 101.3
Property: Mole fraction of Ciclesonide (Liquid); method: gravimetric method
Temperature, K	Mole fraction of Ciclesonide	uncertainty
278.15	0.0141	0.0006
280.65	0.0164	0.0007
283.15	0.0191	0.0008
285.65	0.0222	0.0009
288.15	0.025	0.001
290.65	0.029	0.0012
293.15	0.0334	0.0013
295.65	0.0385	0.0015
298.15	0.0437	0.0018
300.65	0.05	0.002
303.15	0.0567	0.0023
305.65	0.0644	0.0026
308.15	0.0728	0.0029
310.65	0.0825	0.0033
313.15	0.0925	0.0037

System: ethanol + Ciclesonide; phases: Liquid, Crystal
Fixed: Pressure, kPa = 101.3
Property: Mole fraction of Ciclesonide (Liquid); method: gravimetric method
Temperature, K	Mole fraction of Ciclesonide	uncertainty
278.15	0.00231	9e-05
280.65	0.00276	0.00011
283.15	0.00333	0.00013
285.65	0.00398	0.00016
288.15	0.00478	0.00019
290.65	0.00568	0.00023
293.15	0.00674	0.00027
295.65	0.00796	0.00032
298.15	0.00937	0.00038
300.65	0.011	0.0004
303.15	0.0129	0.0005
305.65	0.0151	0.0006
308.15	0.0176	0.0007
310.65	0.0204	0.0008
313.15	0.0237	0.001

System: ethyl acetate + Ciclesonide; phases: Liquid, Crystal
Fixed: Pressure, kPa = 101.3
Property: Mole fraction of Ciclesonide (Liquid); method: gravimetric method
Temperature, K	Mole fraction of Ciclesonide	uncertainty
278.15	0.0515	0.0021
280.65	0.0559	0.0022
283.15	0.0604	0.0024
285.65	0.0653	0.0026
288.15	0.0704	0.0028
290.65	0.076	0.003
293.15	0.0818	0.0033
295.65	0.088	0.0035
298.15	0.0945	0.0038
300.65	0.101	0.004
303.15	0.109	0.004
305.65	0.116	0.005
308.15	0.124	0.005
310.65	0.133	0.005
313.15	0.141	0.006

System: toluene + Ciclesonide; phases: Liquid, Crystal
Fixed: Pressure, kPa = 101.3
Property: Mole fraction of Ciclesonide (Liquid); method: gravimetric method
Temperature, K	Mole fraction of Ciclesonide	uncertainty
278.15	0.0297	0.0012
280.65	0.0318	0.0013
283.15	0.0342	0.0014
285.65	0.0367	0.0015
288.15	0.0392	0.0016
290.65	0.0421	0.0017
293.15	0.0449	0.0018
295.65	0.0479	0.0019
298.15	0.0511	0.002
300.65	0.0544	0.0022
303.15	0.0579	0.0023
305.65	0.0616	0.0025
308.15	0.0654	0.0026
310.65	0.0694	0.0028
313.15	0.0735	0.0029

System: acetonitrile + Ciclesonide; phases: Liquid, Crystal
Fixed: Pressure, kPa = 101.3
Property: Mole fraction of Ciclesonide (Liquid); method: gravimetric method
Temperature, K	Mole fraction of Ciclesonide	uncertainty
278.15	0.00485	0.00019
280.65	0.00528	0.00021
283.15	0.00576	0.00023
285.65	0.00626	0.00025
288.15	0.00687	0.00028
290.65	0.00739	0.0003
293.15	0.008	0.00032
295.65	0.00865	0.00035
298.15	0.00937	0.00038
300.65	0.0101	0.0004
303.15	0.0109	0.0004
305.65	0.0117	0.0005
308.15	0.0126	0.0005
310.65	0.0135	0.0005
313.15	0.0143	0.0006
