Measured thermophysical data. Liquid-liquid equilibria for toluene/heptane + phenol/cresols + ethylene glycol system
Source: J. Chem. Thermodyn., 2017, 10.1016/j.jct.2017.07.029
Compound 1: toluene, C7H8, InChI=1S/C7H8/c1-7-5-3-2-4-6-7/h2-6H,1H3, purity 99.98%
Compound 2: phenol, C6H6O, InChI=1S/C6H6O/c7-6-4-2-1-3-5-6/h1-5,7H, purity 99.9%
Compound 3: 2-methylphenol, C7H8O, InChI=1S/C7H8O/c1-6-4-2-3-5-7(6)8/h2-5,8H,1H3, purity 99.26%
Compound 4: 3-methylphenol, C7H8O, InChI=1S/C7H8O/c1-6-3-2-4-7(8)5-6/h2-5,8H,1H3, purity 99.19%
Compound 5: 4-methylphenol, C7H8O, InChI=1S/C7H8O/c1-6-2-4-7(8)5-3-6/h2-5,8H,1H3, purity 99.37%
Compound 6: 1,2-ethanediol, C2H6O2, InChI=1S/C2H6O2/c3-1-2-4/h3-4H,1-2H2, purity 99.59%

System: 1,2-ethanediol + toluene + phenol; phases: Liquid mixture 2, Liquid mixture 1
Fixed: Temperature, K = 323.15
Fixed: Pressure, kPa = 101.3
Property: Mole fraction of phenol (Liquid mixture 2); method: Chromatography
Property: Mole fraction of phenol (Liquid mixture 1); method: Chromatography
Property: Mole fraction of toluene (Liquid mixture 1); method: Chromatography
Mole fraction of toluene	Mole fraction of phenol	uncertainty	Mole fraction of phenol	uncertainty	Mole fraction of toluene	uncertainty
0.0281	0		0		0.9922	
0.0313	0.0354	0.0015	0.0072	0.0001	0.9885	
0.0487	0.0964	0.0011	0.0194	0.0002	0.9762	
0.061	0.1343	0.0014	0.0299	0.0003	0.9655	
0.0821	0.1725	0.0017	0.0422	0.0004	0.9528	
0.1178	0.2066	0.002	0.0566	0.0006	0.9319	
0.1489	0.2365	0.0022	0.0778	0.0008	0.891	
0.2001	0.2518	0.0024	0.1029	0.001	0.8418	

System: 2-methylphenol + 1,2-ethanediol + toluene; phases: Liquid mixture 1, Liquid mixture 2
Fixed: Temperature, K = 323.15
Fixed: Pressure, kPa = 101.3
Property: Mole fraction of 2-methylphenol (Liquid mixture 1); method: Chromatography
Property: Mole fraction of 2-methylphenol (Liquid mixture 2); method: Chromatography
Property: Mole fraction of toluene (Liquid mixture 2); method: Chromatography
Mole fraction of toluene	Mole fraction of 2-methylphenol	uncertainty	Mole fraction of 2-methylphenol	uncertainty	Mole fraction of toluene	uncertainty
0.9795	0.016	0.0002	0.029	0.003	0.0293	
0.9603	0.0301	0.0003	0.0543	0.0006	0.0401	
0.9364	0.0469	0.0005	0.0839	0.0009	0.0559	
0.9086	0.064	0.0006	0.1138	0.0011	0.0746	
0.8741	0.0813	0.0008	0.1383	0.0013	0.1019	
0.8364	0.0964	0.001	0.1556	0.0015	0.1308	
0.7646	0.1299	0.0013	0.1844	0.0018	0.2107	
0.9922	0		0		0.0281	

System: 1,2-ethanediol + 3-methylphenol + toluene; phases: Liquid mixture 1, Liquid mixture 2
Fixed: Temperature, K = 323.15
Fixed: Pressure, kPa = 101.3
Property: Mole fraction of 3-methylphenol (Liquid mixture 1); method: Chromatography
Property: Mole fraction of 3-methylphenol (Liquid mixture 2); method: Chromatography
Property: Mole fraction of toluene (Liquid mixture 2); method: Chromatography
Mole fraction of toluene	Mole fraction of 3-methylphenol	uncertainty	Mole fraction of 3-methylphenol	uncertainty	Mole fraction of toluene	uncertainty
0.9653	0.0131	0.0003	0.0326	0.0005	0.0325	
0.9604	0.0229	0.0004	0.058	0.0007	0.0468	
0.9372	0.0383	0.0004	0.0951	0.001	0.0662	
0.9242	0.0503	0.0006	0.1218	0.0012	0.0939	
0.8718	0.0748	0.0007	0.1556	0.0015	0.1479	
0.7911	0.1013	0.001	0.1724	0.0016	0.215	
0.7341	0.1175	0.0012	0.1762	0.0017	0.2609	
0.9922	0		0		0.0281	

System: 4-methylphenol + 1,2-ethanediol + toluene; phases: Liquid mixture 1, Liquid mixture 2
Fixed: Temperature, K = 323.15
Fixed: Pressure, kPa = 101.3
Property: Mole fraction of 4-methylphenol (Liquid mixture 1); method: Chromatography
Property: Mole fraction of 4-methylphenol (Liquid mixture 2); method: Chromatography
Property: Mole fraction of toluene (Liquid mixture 2); method: Chromatography
Mole fraction of toluene	Mole fraction of 4-methylphenol	uncertainty	Mole fraction of 4-methylphenol	uncertainty	Mole fraction of toluene	uncertainty
0.97	0.0111	0.0019	0.028	0.0005	0.0351	
0.9705	0.0185	0.0018	0.0516	0.0006	0.0448	
0.9523	0.0313	0.0003	0.0851	0.0009	0.0688	
0.9257	0.0445	0.0004	0.1138	0.0011	0.0991	
0.8871	0.0599	0.0006	0.1377	0.0013	0.1468	
0.8049	0.0837	0.0008	0.1536	0.0014	0.225	
0.6833	0.11	0.0011	0.1557	0.0015	0.3232	
0.9922	0		0		0.0281	

System: 1,2-ethanediol + toluene; phases: Liquid mixture 1, Liquid mixture 2
Property: Mole fraction of toluene (Liquid mixture 1); method: Chromatography
Temperature, K	Pressure, kPa	Mole fraction of toluene	uncertainty
323.15	101.3	0.9922	0.0001

System: 1,2-ethanediol + toluene; phases: Liquid mixture 2, Liquid mixture 1
Property: Mole fraction of toluene (Liquid mixture 2); method: Chromatography
Temperature, K	Pressure, kPa	Mole fraction of toluene	uncertainty
323.15	101.3	0.0281	0.0002
