Measured thermophysical data. Thermodynamics of binary mixtures of N-methyl-2-pyrrolidinone and ketone. Experimental results and modelling of the solid-liquid equilibrium and vapou-liquid equilibrium. The Modified UNIFAC (Do) model characterization
Source: J. Chem. Thermodyn., 2005, 10.1016/j.jct.2004.11.007
Compound 1: N-methylpyrrolidone, C5H9NO, InChI=1S/C5H9NO/c1-6-4-2-3-5(6)7/h2-4H2,1H3
Compound 2: pentan-3-one, C5H10O, InChI=1S/C5H10O/c1-3-5(6)4-2/h3-4H2,1-2H3
Compound 3: 4-heptanone, C7H14O, InChI=1S/C7H14O/c1-3-5-7(8)6-4-2/h3-6H2,1-2H3
Compound 4: acetone, C3H6O, InChI=1S/C3H6O/c1-3(2)4/h1-2H3
Compound 5: butanone, C4H8O, InChI=1S/C4H8O/c1-3-4(2)5/h3H2,1-2H3, purity 98%
Compound 6: pentan-2-one, C5H10O, InChI=1S/C5H10O/c1-3-4-5(2)6/h3-4H2,1-2H3
Compound 7: cyclopentanone, C5H8O, InChI=1S/C5H8O/c6-5-3-1-2-4-5/h1-4H2
Compound 8: 4-methylpentan-2-one, C6H12O, InChI=1S/C6H12O/c1-5(2)4-6(3)7/h5H,4H2,1-3H3
Compound 9: 2-hexanone, C6H12O, InChI=1S/C6H12O/c1-3-4-5-6(2)7/h3-5H2,1-2H3, purity 99%

System: N-methylpyrrolidone; phases: Crystal, Liquid, Air at 1 atmosphere
Property: Molar enthalpy of transition or fusion, kJ/mol (Crystal); method: DSC
Molar enthalpy of transition or fusion, kJ/mol	uncertainty
11.04	0.29

System: N-methylpyrrolidone; phases: Crystal, Liquid, Air at 1 atmosphere
Property: Triple point temperature, K (Crystal); method: VISOBS:FP
Triple point temperature, K	uncertainty
249.68	0.39

System: N-methylpyrrolidone; phases: Liquid, Gas
Property: Vapor or sublimation pressure, kPa (Liquid); method: EBULLIO:UFactor:32
Temperature, K	Vapor or sublimation pressure, kPa	uncertainty
333.15	0.5	2.5
373.15	3.6	2.6

System: pentan-3-one; phases: Crystal, Liquid, Air at 1 atmosphere
Property: Triple point temperature, K (Crystal); method: VISOBS
Triple point temperature, K	uncertainty
234.36	0.39

System: pentan-3-one; phases: Liquid, Gas
Property: Vapor or sublimation pressure, kPa (Liquid); method: EBULLIO:UFactor:32
Temperature, K	Vapor or sublimation pressure, kPa	uncertainty
373.15	95.9	4.9

System: 4-heptanone; phases: Crystal, Liquid, Air at 1 atmosphere
Property: Triple point temperature, K (Crystal); method: VISOBS
Triple point temperature, K	uncertainty
241.77	0.39

System: acetone; phases: Liquid, Gas
Property: Vapor or sublimation pressure, kPa (Liquid); method: EBULLIO:UFactor:32
Temperature, K	Vapor or sublimation pressure, kPa	uncertainty
333.15	115.7	5.4

System: cyclopentanone; phases: Crystal, Liquid, Air at 1 atmosphere
Property: Triple point temperature, K (Crystal); method: VISOBS
Triple point temperature, K	uncertainty
220.77	0.39

System: 2-hexanone; phases: Crystal, Liquid, Air at 1 atmosphere
Property: Triple point temperature, K (Crystal); method: VISOBS:UFactor:4
Triple point temperature, K	uncertainty
218.42	2

System: 2-hexanone; phases: Liquid, Gas
Property: Vapor or sublimation pressure, kPa (Liquid); method: EBULLIO:UFactor:16
Temperature, K	Vapor or sublimation pressure, kPa	uncertainty
373.15	43.8	1.8

System: 2-hexanone; phases: Crystal, Liquid
Property: Solid-liquid equilibrium temperature, K (Crystal); method: VISOBS:UFactor:4
Pressure, kPa	Solid-liquid equilibrium temperature, K	uncertainty
100	215.57	2

System: pentan-3-one + N-methylpyrrolidone; phases: Liquid, Gas
Fixed: Temperature, K = 373.15
Property: Vapor or sublimation pressure, kPa (Liquid); method: EBULLIO:UFactor:32
Mole fraction of N-methylpyrrolidone	Vapor or sublimation pressure, kPa	uncertainty
0	95.9	4.9
0.093	88.6	4.7
0.1232	84.9	4.6
0.1659	81.2	4.5
0.1889	77.4	4.4
0.2685	69.6	4.2
0.3276	62.6	4
0.415	55.3	3.9
0.5338	48.2	3.7
0.598	41.1	3.5
0.6461	36.8	3.4
0.6905	32.5	3.3
0.7385	28.3	3.2
0.7436	26.2	3.2
0.8074	22.7	3
0.8292	19.3	3
0.8805	16	2.9
0.889	12.1	2.8
1	3.6	2.6

System: pentan-3-one + N-methylpyrrolidone; phases: Liquid, Crystal
Fixed: Pressure, kPa = 100
Property: Solid-liquid equilibrium temperature, K (Liquid); method: VISOBS:UFactor:4
Mole fraction of N-methylpyrrolidone	Solid-liquid equilibrium temperature, K	uncertainty
0.447	220.81	0.62
0.498	224.75	0.62
0.5231	226.39	0.62
0.5501	228.1	0.62
0.5879	230.12	0.62
0.6192	231.98	0.62
0.6613	234.06	0.62
0.6826	235.05	0.62
0.7155	236.7	0.62
0.7485	237.94	0.62
0.7773	239.15	0.62
0.8124	240.63	0.62
0.8691	243.08	0.62
0.9053	244.61	0.62
1	249.68	0.62

System: pentan-3-one + N-methylpyrrolidone; phases: Liquid, Crystal
Fixed: Pressure, kPa = 101.3
Property: Solid-liquid equilibrium temperature, K (Liquid); method: VISOBS:UFactor:4
Mole fraction of N-methylpyrrolidone	Solid-liquid equilibrium temperature, K	uncertainty
0	234.36	0.62
0.1163	230.47	0.62
0.1543	229	0.62
0.1955	226.9	0.62
0.243	224.95	0.62
0.2933	222.36	0.62
0.3256	220.85	0.62
0.3691	219.05	0.62

System: acetone + N-methylpyrrolidone; phases: Liquid, Gas
Fixed: Temperature, K = 333.15
Property: Vapor or sublimation pressure, kPa (Liquid); method: EBULLIO:UFactor:32
Mole fraction of N-methylpyrrolidone	Vapor or sublimation pressure, kPa	uncertainty
0	115.7	5.4
0.2072	95.7	4.9
0.2774	86.5	4.6
0.3741	74.9	4.3
0.4387	68.4	4.2
0.5043	61.2	4
0.5592	54.9	3.8
0.604	50.5	3.7
0.6789	42.5	3.5
0.7892	28.6	3.2
1	0.5	2.5

System: acetone + N-methylpyrrolidone; phases: Liquid, Crystal
Fixed: Pressure, kPa = 100
Property: Solid-liquid equilibrium temperature, K (Liquid); method: VISOBS:UFactor:4
Mole fraction of N-methylpyrrolidone	Solid-liquid equilibrium temperature, K	uncertainty
0.3481	207.15	0.63
0.3893	211.17	0.63
0.429	214.57	0.63
0.4469	216.2	0.63
0.4782	218.74	0.62
0.5121	221.3	0.62
0.5398	223.53	0.62
0.5958	226.49	0.62
0.6403	229.65	0.62
0.691	232.37	0.62
0.7286	235	0.62
0.7643	236.95	0.62
0.8067	239.6	0.62
0.8403	241.66	0.62
0.8766	243.9	0.62
0.9125	245.75	0.62
0.9439	247.21	0.62
1	249.68	0.62

System: butanone + N-methylpyrrolidone; phases: Liquid, Crystal
Fixed: Pressure, kPa = 100
Property: Solid-liquid equilibrium temperature, K (Liquid); method: VISOBS:UFactor:4
Mole fraction of N-methylpyrrolidone	Solid-liquid equilibrium temperature, K	uncertainty
0.312	207.16	0.63
0.337	209.51	0.63
0.3563	211.88	0.63
0.3796	213.85	0.63
0.4066	216.06	0.62
0.436	218.42	0.62
0.4758	220.85	0.62
0.5047	223.06	0.62
0.5396	225.54	0.62
0.578	227.92	0.62
0.6224	230.73	0.62
0.6494	232.1	0.62
0.6794	233.84	0.62
0.7016	235.34	0.62
0.7289	236.85	0.62
0.7685	238.81	0.62
0.8043	240.78	0.62
0.836	242.56	0.62
0.8583	243.58	0.62
0.8858	245.22	0.62
0.9116	246.39	0.62
0.9513	247.71	0.62
1	249.68	0.62

System: pentan-2-one + N-methylpyrrolidone; phases: Liquid, Crystal
Fixed: Pressure, kPa = 100
Property: Solid-liquid equilibrium temperature, K (Liquid); method: VISOBS:UFactor:4
Mole fraction of N-methylpyrrolidone	Solid-liquid equilibrium temperature, K	uncertainty
0.2164	200.58	0.63
0.2555	205.37	0.63
0.2962	209.46	0.63
0.3338	212.95	0.63
0.375	215.95	0.62
0.4123	218.88	0.62
0.4506	221.6	0.62
0.4825	223.56	0.62
0.5144	225.98	0.62
0.5411	227.66	0.62
0.572	229.12	0.62
0.612	231.34	0.62
0.6379	232.95	0.62
0.6739	235.02	0.62
0.7072	236.22	0.62
0.7471	238.4	0.62
0.7841	239.83	0.62
0.808	241.01	0.62
0.8302	242.12	0.62
0.8754	244.27	0.62
0.9233	246.39	0.62
0.9421	247.25	0.62
1	249.68	0.62

System: cyclopentanone + N-methylpyrrolidone; phases: Liquid, Crystal
Fixed: Pressure, kPa = 100
Property: Solid-liquid equilibrium temperature, K (Liquid); method: VISOBS:UFactor:6
Mole fraction of N-methylpyrrolidone	Solid-liquid equilibrium temperature, K	uncertainty
0.438	209	0.93
0.4707	212.19	0.94
0.4892	214.67	0.94
0.5202	218.07	0.94
0.5316	218.99	0.93
0.5729	222.26	0.93
0.6076	225.08	0.93
0.6568	228.22	0.93
0.6907	231.82	0.93
0.7176	233.45	0.93
0.7723	236.87	0.93
0.7951	238.6	0.93
0.8279	240.4	0.93
0.873	242.95	0.93
0.9312	245.81	0.93
1	249.68	0.93

System: 4-methylpentan-2-one + N-methylpyrrolidone; phases: Liquid, Crystal
Fixed: Pressure, kPa = 100
Property: Solid-liquid equilibrium temperature, K (Liquid); method: VISOBS:UFactor:6
Mole fraction of N-methylpyrrolidone	Solid-liquid equilibrium temperature, K	uncertainty
0.3053	214.7	0.93
0.3452	217.5	0.93
0.3924	220.69	0.93
0.4308	223.23	0.93
0.4765	226.13	0.93
0.5344	228.96	0.93
0.5767	231.22	0.93
0.6254	233.48	0.93
0.67	235.7	0.93
0.7278	237.82	0.93
0.7934	240.51	0.93
0.8492	243.36	0.93
0.9135	246.68	0.93
1	249.68	0.93

System: 2-hexanone + N-methylpyrrolidone; phases: Liquid, Gas
Fixed: Temperature, K = 373.15
Property: Vapor or sublimation pressure, kPa (Liquid); method: EBULLIO:UFactor:16
Mole fraction of N-methylpyrrolidone	Vapor or sublimation pressure, kPa	uncertainty
0	43.8	1.8
0.1193	40.2	1.7
0.2235	36.1	1.7
0.2858	32.9	1.6
0.4244	27.7	1.6
0.4681	25.5	1.6
0.5733	21.7	1.5
0.6269	20	1.5
0.7134	17	1.5
0.768	15	1.4
0.8362	12.3	1.4
1	3.6	1.3

System: 2-hexanone + N-methylpyrrolidone; phases: Liquid, Crystal
Fixed: Pressure, kPa = 100
Property: Solid-liquid equilibrium temperature, K (Liquid); method: VISOBS:UFactor:8
Mole fraction of N-methylpyrrolidone	Solid-liquid equilibrium temperature, K	uncertainty
0.313	214.13	1.24
0.3488	217.45	1.24
0.3921	220.4	1.24
0.4261	222.65	1.24
0.4748	225.95	1.24
0.5031	227.47	1.24
0.5474	229.92	1.24
0.5935	232.1	1.24
0.6447	234.61	1.24
0.6951	237.14	1.24
0.7597	239.44	1.24
0.8163	242.18	1.24
0.8372	243.13	1.24
0.8865	245.13	1.24
0.9105	246.36	1.24
1	249.68	1.24

System: 2-hexanone + N-methylpyrrolidone; phases: Liquid, Crystal
Fixed: Pressure, kPa = 100
Property: Solid-liquid equilibrium temperature, K (Liquid); method: VISOBS:UFactor:8
Mole fraction of N-methylpyrrolidone	Solid-liquid equilibrium temperature, K	uncertainty
0	215.57	1.24
0.162	213.74	1.24
0.2069	212.89	1.24
0.2418	212.05	1.24

System: 4-heptanone + N-methylpyrrolidone; phases: Liquid, Crystal
Fixed: Pressure, kPa = 100
Property: Solid-liquid equilibrium temperature, K (Liquid); method: VISOBS:UFactor:4
Mole fraction of N-methylpyrrolidone	Solid-liquid equilibrium temperature, K	uncertainty
0.5209	230.56	0.62
0.5591	232.31	0.62
0.5929	233.84	0.62
0.6184	234.65	0.62
0.6471	235.79	0.62
0.6673	236.58	0.62
0.6914	237.7	0.62
0.7235	238.8	0.62
0.7552	240.06	0.62
0.7819	241.11	0.62
0.8258	242.76	0.62
0.8576	244.1	0.62
0.9173	246.45	0.62
1	249.68	0.62

System: 4-heptanone + N-methylpyrrolidone; phases: Liquid, Crystal
Fixed: Pressure, kPa = 100
Property: Solid-liquid equilibrium temperature, K (Liquid); method: VISOBS:UFactor:4
Mole fraction of N-methylpyrrolidone	Solid-liquid equilibrium temperature, K	uncertainty
0	241.77	0.62
0.1274	239.17	0.62
0.1792	237.41	0.62
0.2385	235.66	0.62
0.2864	234.47	0.62
0.3281	233.19	0.62
0.3784	232.07	0.62
0.4192	230.92	0.62
0.4635	229.41	0.62
