Measured thermophysical data. Molar heat capacities of the mixture {1,8-cineole + ethanol} at several temperatures and atmospheric pressure
Source: J. Chem. Thermodyn., 2016, 10.1016/j.jct.2015.09.012
Compound 1: 1,3,3-trimethyl-2-oxabicyclo[2.2.2]octane, C10H18O, InChI=1S/C10H18O/c1-9(2)8-4-6-10(3,11-9)7-5-8/h8H,4-7H2,1-3H3, purity 99%
Compound 2: ethanol, C2H6O, InChI=1S/C2H6O/c1-2-3/h3H,2H2,1H3

System: 1,3,3-trimethyl-2-oxabicyclo[2.2.2]octane; phases: Liquid
Property: Mass density, kg/m3 (Liquid); method: Vibrating tube method
Temperature, K	Pressure, kPa	Mass density, kg/m3	uncertainty
298.15	101.325	920.51	0.23

System: 1,3,3-trimethyl-2-oxabicyclo[2.2.2]octane; phases: Liquid
Fixed: Pressure, kPa = 101.325
Property: Molar heat capacity at constant pressure, J/K/mol (Liquid); method: Small sample (50 mg) DSC
Temperature, K	Molar heat capacity at constant pressure, J/K/mol	uncertainty
293.26	266.9	4.6
303.48	273	4.7
313.71	279.5	4.8
323.93	285.2	4.9
334.16	290.8	5
344.38	297.7	5.2

System: 1,3,3-trimethyl-2-oxabicyclo[2.2.2]octane; phases: Liquid
Fixed: Pressure, kPa = 100
Property: Molar heat capacity at constant pressure, J/K/mol (Liquid); method: Large sample (1 g) DSC
Temperature, K	Molar heat capacity at constant pressure, J/K/mol	uncertainty
304.7	273.3	4.2
309.6	276.4	4.3
314.6	279.5	4.3
319.5	282.6	4.4
324.5	285.1	4.4

System: ethanol; phases: Liquid
Property: Mass density, kg/m3 (Liquid); method: Vibrating tube method
Temperature, K	Pressure, kPa	Mass density, kg/m3	uncertainty
298.15	101.325	785.2	0.12

System: ethanol; phases: Liquid
Fixed: Pressure, kPa = 100
Property: Molar heat capacity at constant pressure, J/K/mol (Liquid); method: Large sample (1 g) DSC
Temperature, K	Molar heat capacity at constant pressure, J/K/mol	uncertainty
304.7	115.3	1.8
309.6	117.3	1.8
314.6	119.6	1.9
319.5	121.9	1.9
324.5	124.2	1.9

System: ethanol + 1,3,3-trimethyl-2-oxabicyclo[2.2.2]octane; phases: Liquid
Fixed: Pressure, kPa = 100
Property: Molar heat capacity at constant pressure, J/K/mol (Liquid); method: Large sample (1 g) DSC
Temperature, K	Mole fraction of 1,3,3-trimethyl-2-oxabicyclo[2.2.2]octane	Molar heat capacity at constant pressure, J/K/mol	uncertainty
304.7	0	115.3	1.8
304.7	0.0506	123.9	1.9
304.7	0.099	132	2.1
304.7	0.1999	149	2.3
304.7	0.3007	166	2.6
304.7	0.3956	181.7	2.8
304.7	0.5002	199.4	3.1
304.7	0.5975	214.3	3.3
304.7	0.7017	231.6	3.6
304.7	0.8065	247.2	3.8
304.7	0.8964	259.8	4
304.7	0.9501	267	4.1
304.7	1	273.3	4.2
309.6	0	117.3	1.8
309.6	0.0506	126.2	2
309.6	0.099	134.6	2.1
309.6	0.1999	151.8	2.4
309.6	0.3007	169	2.6
309.6	0.3956	184.9	2.9
309.6	0.5002	202.5	3.1
309.6	0.5975	217.4	3.4
309.6	0.7017	235.1	3.6
309.6	0.8065	250.5	3.9
309.6	0.8964	263.7	4.1
309.6	0.9501	269.9	4.2
309.6	1	276.4	4.3
314.6	0	119.6	1.9
314.6	0.0506	128.6	2
314.6	0.099	137.1	2.1
314.6	0.1999	154.6	2.4
314.6	0.3007	171.8	2.7
314.6	0.3956	188.1	2.9
314.6	0.5002	205.5	3.2
314.6	0.5975	221.5	3.4
314.6	0.7017	238	3.7
314.6	0.8065	253.6	3.9
314.6	0.8964	267	4.1
314.6	0.9501	273.4	4.2
314.6	1	279.5	4.3
319.5	0	121.9	1.9
319.5	0.0506	131.1	2
319.5	0.099	139.7	2.2
319.5	0.1999	157.1	2.4
319.5	0.3007	174.9	2.7
319.5	0.3956	191.1	3
319.5	0.5002	208.5	3.2
319.5	0.5975	224.5	3.5
319.5	0.7017	241.2	3.7
319.5	0.8065	256.7	4
319.5	0.8964	269.9	4.2
319.5	0.9501	275.8	4.3
319.5	1	282.6	4.4
324.5	0	124.2	1.9
324.5	0.0506	133.5	2.1
324.5	0.099	142.1	2.2
324.5	0.1999	160	2.5
324.5	0.3007	177.7	2.8
324.5	0.3956	194.1	3
324.5	0.5002	211.3	3.3
324.5	0.5975	227.4	3.5
324.5	0.7017	244.1	3.8
324.5	0.8065	259.3	4
324.5	0.8964	272.5	4.2
324.5	0.9501	279	4.3
324.5	1	285.1	4.4
