Measured thermophysical data. Derived thermodynamic properties for the (ethanol + decane) and  (carbon dioxide + ethanol + decane) systems at high pressures
Source: J. Chem. Thermodyn., 2012, 10.1016/j.jct.2012.06.012
Compound 1: ethanol, C2H6O, InChI=1S/C2H6O/c1-2-3/h3H,2H2,1H3, purity 99.8%
Compound 2: decane, C10H22, InChI=1S/C10H22/c1-3-5-7-9-10-8-6-4-2/h3-10H2,1-2H3, purity 99.7%
Compound 3: carbon dioxide, CO2, InChI=1S/CO2/c2-1-3, purity 99.9999%

System: ethanol + decane; phases: Liquid
Property: Mass density, kg/m3 (Liquid); method: Vibrating tube method
Mole fraction of ethanol	Temperature, K	Pressure, kPa	Mass density, kg/m3	uncertainty
0.0937	313.09	1000	715.17	0.21
0.0937	313.09	2000	716.07	0.23
0.0937	313.09	3000	716.95	0.24
0.0937	313.09	4000	717.82	0.25
0.0937	313.09	5000	718.68	0.27
0.0937	313.09	6000	719.53	0.28
0.0937	313.09	7000	720.36	0.29
0.0937	313.09	8000	721.18	0.31
0.0937	313.09	9000	721.99	0.32
0.0937	313.09	10000	722.79	0.33
0.0937	313.09	11000	723.62	0.34
0.0937	313.09	12000	724.43	0.36
0.0937	313.09	13000	725.25	0.37
0.0937	313.09	14000	726.06	0.38
0.0937	313.09	15000	726.84	0.4
0.0937	313.09	16000	727.61	0.41
0.0937	313.09	17000	728.37	0.42
0.0937	313.09	18000	729.11	0.43
0.0937	313.09	19000	729.84	0.45
0.0937	313.09	20000	730.54	0.46
0.0937	322.99	1000	707.2	0.22
0.0937	322.99	2000	708.15	0.23
0.0937	322.99	3000	709.09	0.24
0.0937	322.99	4000	710.01	0.26
0.0937	322.99	5000	710.92	0.27
0.0937	322.99	6000	711.82	0.29
0.0937	322.99	7000	712.7	0.3
0.0937	322.99	8000	713.57	0.31
0.0937	322.99	9000	714.44	0.33
0.0937	322.99	10000	715.32	0.34
0.0937	322.99	11000	716.18	0.35
0.0937	322.99	12000	717.04	0.37
0.0937	322.99	13000	717.9	0.38
0.0937	322.99	14000	718.73	0.39
0.0937	322.99	15000	719.56	0.4
0.0937	322.99	16000	720.37	0.42
0.0937	322.99	17000	721.18	0.43
0.0937	322.99	18000	721.95	0.44
0.0937	322.99	19000	722.72	0.46
0.0937	322.99	20000	723.46	0.47
0.0937	332.86	1000	699.25	0.22
0.0937	332.86	2000	700.26	0.24
0.0937	332.86	3000	701.26	0.25
0.0937	332.86	4000	702.24	0.26
0.0937	332.86	5000	703.21	0.28
0.0937	332.86	6000	704.16	0.29
0.0937	332.86	7000	705.1	0.31
0.0937	332.86	8000	706.03	0.32
0.0937	332.86	9000	706.94	0.33
0.0937	332.86	10000	707.85	0.35
0.0937	332.86	11000	708.77	0.36
0.0937	332.86	12000	709.67	0.37
0.0937	332.86	13000	710.57	0.39
0.0937	332.86	14000	711.45	0.4
0.0937	332.86	15000	712.31	0.41
0.0937	332.86	16000	713.17	0.43
0.0937	332.86	17000	714.01	0.44
0.0937	332.86	18000	714.82	0.45
0.0937	332.86	19000	715.64	0.47
0.0937	332.86	20000	716.42	0.48
0.0937	342.81	1000	691.26	0.23
0.0937	342.81	2000	692.32	0.24
0.0937	342.81	3000	693.37	0.25
0.0937	342.81	4000	694.4	0.27
0.0937	342.81	5000	695.42	0.28
0.0937	342.81	6000	696.42	0.3
0.0937	342.81	7000	697.41	0.31
0.0937	342.81	8000	698.4	0.33
0.0937	342.81	9000	699.37	0.34
0.0937	342.81	10000	700.35	0.35
0.0937	342.81	11000	701.32	0.37
0.0937	342.81	12000	702.28	0.38
0.0937	342.81	13000	703.21	0.39
0.0937	342.81	14000	704.14	0.41
0.0937	342.81	15000	705.06	0.42
0.0937	342.81	16000	705.95	0.44
0.0937	342.81	17000	706.83	0.45
0.0937	342.81	18000	707.7	0.46
0.0937	342.81	19000	708.56	0.48
0.0937	342.81	20000	709.39	0.49
0.0937	352.69	1000	683.22	0.23
0.0937	352.69	2000	684.34	0.25
0.0937	352.69	3000	685.44	0.26
0.0937	352.69	4000	686.53	0.27
0.0937	352.69	5000	687.61	0.29
0.0937	352.69	6000	688.68	0.3
0.0937	352.69	7000	689.74	0.32
0.0937	352.69	8000	690.8	0.33
0.0937	352.69	9000	691.83	0.35
0.0937	352.69	10000	692.86	0.36
0.0937	352.69	11000	693.89	0.37
0.0937	352.69	12000	694.89	0.39
0.0937	352.69	13000	695.89	0.4
0.0937	352.69	14000	696.87	0.42
0.0937	352.69	15000	697.83	0.43
0.0937	352.69	16000	698.77	0.44
0.0937	352.69	17000	699.71	0.46
0.0937	352.69	18000	700.63	0.47
0.0937	352.69	19000	701.52	0.49
0.0937	352.69	20000	702.39	0.5
0.0937	362.65	1000	675.13	0.23
0.0937	362.65	2000	676.3	0.25
0.0937	362.65	3000	677.46	0.26
0.0937	362.65	4000	678.6	0.28
0.0937	362.65	5000	679.76	0.29
0.0937	362.65	6000	680.91	0.31
0.0937	362.65	7000	682.04	0.32
0.0937	362.65	8000	683.16	0.34
0.0937	362.65	9000	684.25	0.35
0.0937	362.65	10000	685.35	0.37
0.0937	362.65	11000	686.41	0.38
0.0937	362.65	12000	687.48	0.4
0.0937	362.65	13000	688.51	0.41
0.0937	362.65	14000	689.55	0.43
0.0937	362.65	15000	690.57	0.44
0.0937	362.65	16000	691.56	0.45
0.0937	362.65	17000	692.56	0.47
0.0937	362.65	18000	693.53	0.48
0.0937	362.65	19000	694.47	0.5
0.0937	362.65	20000	695.39	0.51
0.1011	313.08	1000	715.15	0.21
0.1011	313.08	2000	716.05	0.23
0.1011	313.08	3000	716.93	0.24
0.1011	313.08	4000	717.8	0.25
0.1011	313.08	5000	718.66	0.27
0.1011	313.08	6000	719.51	0.28
0.1011	313.08	7000	720.34	0.29
0.1011	313.08	8000	721.16	0.31
0.1011	313.08	9000	721.98	0.32
0.1011	313.08	10000	722.8	0.33
0.1011	313.08	11000	723.63	0.34
0.1011	313.08	12000	724.45	0.36
0.1011	313.08	13000	725.26	0.37
0.1011	313.08	14000	726.06	0.38
0.1011	313.08	15000	726.85	0.4
0.1011	313.08	16000	727.63	0.41
0.1011	313.08	17000	728.39	0.42
0.1011	313.08	18000	729.13	0.43
0.1011	313.08	19000	729.85	0.45
0.1011	313.08	20000	730.55	0.46
0.1011	323	1000	707.24	0.22
0.1011	323	2000	708.19	0.23
0.1011	323	3000	709.13	0.24
0.1011	323	4000	710.05	0.26
0.1011	323	5000	710.96	0.27
0.1011	323	6000	711.86	0.29
0.1011	323	7000	712.75	0.3
0.1011	323	8000	713.62	0.31
0.1011	323	9000	714.5	0.33
0.1011	323	10000	715.37	0.34
0.1011	323	11000	716.23	0.35
0.1011	323	12000	717.09	0.37
0.1011	323	13000	717.94	0.38
0.1011	323	14000	718.79	0.39
0.1011	323	15000	719.61	0.4
0.1011	323	16000	720.42	0.42
0.1011	323	17000	721.22	0.43
0.1011	323	18000	722.01	0.44
0.1011	323	19000	722.76	0.46
0.1011	323	20000	723.51	0.47
0.1011	332.87	1000	699.31	0.22
0.1011	332.87	2000	700.32	0.24
0.1011	332.87	3000	701.31	0.25
0.1011	332.87	4000	702.29	0.26
0.1011	332.87	5000	703.26	0.28
0.1011	332.87	6000	704.21	0.29
0.1011	332.87	7000	705.15	0.31
0.1011	332.87	8000	706.08	0.32
0.1011	332.87	9000	707	0.33
0.1011	332.87	10000	707.91	0.35
0.1011	332.87	11000	708.83	0.36
0.1011	332.87	12000	709.73	0.37
0.1011	332.87	13000	710.62	0.39
0.1011	332.87	14000	711.51	0.4
0.1011	332.87	15000	712.38	0.41
0.1011	332.87	16000	713.23	0.43
0.1011	332.87	17000	714.07	0.44
0.1011	332.87	18000	714.88	0.45
0.1011	332.87	19000	715.69	0.47
0.1011	332.87	20000	716.47	0.48
0.1011	342.81	1000	691.32	0.23
0.1011	342.81	2000	692.38	0.24
0.1011	342.81	3000	693.43	0.25
0.1011	342.81	4000	694.46	0.27
0.1011	342.81	5000	695.48	0.28
0.1011	342.81	6000	696.48	0.3
0.1011	342.81	7000	697.47	0.31
0.1011	342.81	8000	698.46	0.33
0.1011	342.81	9000	699.44	0.34
0.1011	342.81	10000	700.42	0.35
0.1011	342.81	11000	701.38	0.37
0.1011	342.81	12000	702.33	0.38
0.1011	342.81	13000	703.27	0.39
0.1011	342.81	14000	704.2	0.41
0.1011	342.81	15000	705.12	0.42
0.1011	342.81	16000	706.02	0.44
0.1011	342.81	17000	706.9	0.45
0.1011	342.81	18000	707.77	0.46
0.1011	342.81	19000	708.63	0.48
0.1011	342.81	20000	709.45	0.49
0.1011	352.7	1000	683.33	0.23
0.1011	352.7	2000	684.45	0.25
0.1011	352.7	3000	685.55	0.26
0.1011	352.7	4000	686.65	0.27
0.1011	352.7	5000	687.72	0.29
0.1011	352.7	6000	688.78	0.3
0.1011	352.7	7000	689.84	0.32
0.1011	352.7	8000	690.9	0.33
0.1011	352.7	9000	691.94	0.35
0.1011	352.7	10000	692.96	0.36
0.1011	352.7	11000	693.98	0.37
0.1011	352.7	12000	695	0.39
0.1011	352.7	13000	695.99	0.4
0.1011	352.7	14000	696.97	0.42
0.1011	352.7	15000	697.93	0.43
0.1011	352.7	16000	698.88	0.44
0.1011	352.7	17000	699.83	0.46
0.1011	352.7	18000	700.74	0.47
0.1011	352.7	19000	701.63	0.49
0.1011	352.7	20000	702.51	0.5
0.1011	362.64	1000	675.19	0.23
0.1011	362.64	2000	676.37	0.25
0.1011	362.64	3000	677.53	0.26
0.1011	362.64	4000	678.69	0.28
0.1011	362.64	5000	679.84	0.29
0.1011	362.64	6000	680.98	0.31
0.1011	362.64	7000	682.11	0.32
0.1011	362.64	8000	683.24	0.34
0.1011	362.64	9000	684.33	0.35
0.1011	362.64	10000	685.43	0.37
0.1011	362.64	11000	686.5	0.38
0.1011	362.64	12000	687.56	0.4
0.1011	362.64	13000	688.62	0.41
0.1011	362.64	14000	689.68	0.43
0.1011	362.64	15000	690.66	0.44
0.1011	362.64	16000	691.66	0.45
0.1011	362.64	17000	692.65	0.47
0.1011	362.64	18000	693.62	0.48
0.1011	362.64	19000	694.56	0.5
0.1011	362.64	20000	695.5	0.51
0.2507	313.11	1000	717.71	0.21
0.2507	313.11	2000	718.61	0.23
0.2507	313.11	3000	719.5	0.24
0.2507	313.11	4000	720.38	0.25
0.2507	313.11	5000	721.25	0.26
0.2507	313.11	6000	722.07	0.28
0.2507	313.11	7000	722.9	0.29
0.2507	313.11	8000	723.74	0.3
0.2507	313.11	9000	724.57	0.32
0.2507	313.11	10000	725.41	0.33
0.2507	313.11	11000	726.25	0.34
0.2507	313.11	12000	727.08	0.35
0.2507	313.11	13000	727.91	0.37
0.2507	313.11	14000	728.72	0.38
0.2507	313.11	15000	729.52	0.39
0.2507	313.11	16000	730.3	0.4
0.2507	313.11	17000	731.07	0.42
0.2507	313.11	18000	731.81	0.43
0.2507	313.11	19000	732.55	0.44
0.2507	313.11	20000	733.26	0.45
0.2507	323.06	1000	709.58	0.22
0.2507	323.06	2000	710.54	0.23
0.2507	323.06	3000	711.48	0.24
0.2507	323.06	4000	712.41	0.26
0.2507	323.06	5000	713.33	0.27
0.2507	323.06	6000	714.23	0.28
0.2507	323.06	7000	715.12	0.3
0.2507	323.06	8000	716.01	0.31
0.2507	323.06	9000	716.9	0.32
0.2507	323.06	10000	717.78	0.34
0.2507	323.06	11000	718.65	0.35
0.2507	323.06	12000	719.53	0.36
0.2507	323.06	13000	720.39	0.37
0.2507	323.06	14000	721.24	0.39
0.2507	323.06	15000	722.08	0.4
0.2507	323.06	16000	722.91	0.41
0.2507	323.06	17000	723.72	0.43
0.2507	323.06	18000	724.51	0.44
0.2507	323.06	19000	725.28	0.45
0.2507	323.06	20000	726.04	0.46
0.2507	332.97	1000	701.45	0.22
0.2507	332.97	2000	702.46	0.23
0.2507	332.97	3000	703.46	0.25
0.2507	332.97	4000	704.44	0.26
0.2507	332.97	5000	705.41	0.28
0.2507	332.97	6000	706.36	0.29
0.2507	332.97	7000	707.31	0.3
0.2507	332.97	8000	708.26	0.32
0.2507	332.97	9000	709.21	0.33
0.2507	332.97	10000	710.12	0.34
0.2507	332.97	11000	711.06	0.36
0.2507	332.97	12000	711.97	0.37
0.2507	332.97	13000	712.88	0.38
0.2507	332.97	14000	713.78	0.4
0.2507	332.97	15000	714.65	0.41
0.2507	332.97	16000	715.53	0.42
0.2507	332.97	17000	716.38	0.44
0.2507	332.97	18000	717.21	0.45
0.2507	332.97	19000	718.03	0.46
0.2507	332.97	20000	718.82	0.47
0.2507	342.93	1000	693.16	0.22
0.2507	342.93	2000	694.23	0.24
0.2507	342.93	3000	695.28	0.25
0.2507	342.93	4000	696.32	0.27
0.2507	342.93	5000	697.34	0.28
0.2507	342.93	6000	698.35	0.3
0.2507	342.93	7000	699.37	0.31
0.2507	342.93	8000	700.38	0.32
0.2507	342.93	9000	701.37	0.34
0.2507	342.93	10000	702.36	0.35
0.2507	342.93	11000	703.34	0.36
0.2507	342.93	12000	704.32	0.38
0.2507	342.93	13000	705.28	0.39
0.2507	342.93	14000	706.23	0.41
0.2507	342.93	15000	707.16	0.42
0.2507	342.93	16000	708.07	0.43
0.2507	342.93	17000	708.97	0.45
0.2507	342.93	18000	709.85	0.46
0.2507	342.93	19000	710.72	0.47
0.2507	342.93	20000	711.57	0.48
0.2507	352.85	1000	684.78	0.23
0.2507	352.85	2000	685.92	0.24
0.2507	352.85	3000	687.03	0.26
0.2507	352.85	4000	688.14	0.27
0.2507	352.85	5000	689.24	0.29
0.2507	352.85	6000	690.33	0.3
0.2507	352.85	7000	691.41	0.32
0.2507	352.85	8000	692.48	0.33
0.2507	352.85	9000	693.55	0.34
0.2507	352.85	10000	694.61	0.36
0.2507	352.85	11000	695.65	0.37
0.2507	352.85	12000	696.68	0.39
0.2507	352.85	13000	697.7	0.4
0.2507	352.85	14000	698.7	0.41
0.2507	352.85	15000	699.68	0.43
0.2507	352.85	16000	700.65	0.44
0.2507	352.85	17000	701.61	0.45
0.2507	352.85	18000	702.54	0.47
0.2507	352.85	19000	703.46	0.48
0.2507	352.85	20000	704.34	0.5
0.2507	362.8	1000	676.12	0.23
0.2507	362.8	2000	677.34	0.25
0.2507	362.8	3000	678.55	0.26
0.2507	362.8	4000	679.73	0.28
0.2507	362.8	5000	680.92	0.29
0.2507	362.8	6000	682.09	0.31
0.2507	362.8	7000	683.25	0.32
0.2507	362.8	8000	684.4	0.34
0.2507	362.8	9000	685.54	0.35
0.2507	362.8	10000	686.66	0.37
0.2507	362.8	11000	687.77	0.38
0.2507	362.8	12000	688.85	0.39
0.2507	362.8	13000	689.91	0.41
0.2507	362.8	14000	691.02	0.42
0.2507	362.8	15000	692.02	0.44
0.2507	362.8	16000	693.05	0.45
0.2507	362.8	17000	694.06	0.46
0.2507	362.8	18000	695.04	0.48
0.2507	362.8	19000	696.01	0.49
0.2507	362.8	20000	696.96	0.51
0.4963	313.08	1000	724.28	0.21
0.4963	313.08	2000	725.2	0.22
0.4963	313.08	3000	726.11	0.24
0.4963	313.08	4000	727	0.25
0.4963	313.08	5000	727.87	0.26
0.4963	313.08	6000	728.73	0.27
0.4963	313.08	7000	729.58	0.29
0.4963	313.08	8000	730.44	0.3
0.4963	313.08	9000	731.3	0.31
0.4963	313.08	10000	732.16	0.32
0.4963	313.08	11000	733	0.33
0.4963	313.08	12000	733.86	0.35
0.4963	313.08	13000	734.7	0.36
0.4963	313.08	14000	735.54	0.37
0.4963	313.08	15000	736.35	0.38
0.4963	313.08	16000	737.16	0.39
0.4963	313.08	17000	737.95	0.41
0.4963	313.08	18000	738.72	0.42
0.4963	313.08	19000	739.47	0.43
0.4963	313.08	20000	740.21	0.45
0.4963	322.98	1000	715.95	0.21
0.4963	322.98	2000	716.92	0.23
0.4963	322.98	3000	717.88	0.24
0.4963	322.98	4000	718.83	0.25
0.4963	322.98	5000	719.75	0.26
0.4963	322.98	6000	720.66	0.28
0.4963	322.98	7000	721.56	0.29
0.4963	322.98	8000	722.48	0.3
0.4963	322.98	9000	723.39	0.32
0.4963	322.98	10000	724.3	0.33
0.4963	322.98	11000	725.2	0.34
0.4963	322.98	12000	726.08	0.35
0.4963	322.98	13000	726.98	0.37
0.4963	322.98	14000	727.85	0.38
0.4963	322.98	15000	728.71	0.39
0.4963	322.98	16000	729.56	0.4
0.4963	322.98	17000	730.39	0.42
0.4963	322.98	18000	731.19	0.43
0.4963	322.98	19000	731.99	0.44
0.4963	322.98	20000	732.78	0.45
0.4963	332.87	1000	707.52	0.22
0.4963	332.87	2000	708.54	0.23
0.4963	332.87	3000	709.55	0.24
0.4963	332.87	4000	710.55	0.26
0.4963	332.87	5000	711.53	0.27
0.4963	332.87	6000	712.5	0.28
0.4963	332.87	7000	713.48	0.3
0.4963	332.87	8000	714.46	0.31
0.4963	332.87	9000	715.43	0.32
0.4963	332.87	10000	716.38	0.34
0.4963	332.87	11000	717.33	0.35
0.4963	332.87	12000	718.27	0.36
0.4963	332.87	13000	719.21	0.37
0.4963	332.87	14000	720.13	0.39
0.4963	332.87	15000	721.03	0.4
0.4963	332.87	16000	721.92	0.41
0.4963	332.87	17000	722.8	0.43
0.4963	332.87	18000	723.66	0.44
0.4963	332.87	19000	724.5	0.45
0.4963	332.87	20000	725.32	0.46
0.4963	342.81	1000	698.84	0.22
0.4963	342.81	2000	699.92	0.24
0.4963	342.81	3000	700.98	0.25
0.4963	342.81	4000	702.03	0.26
0.4963	342.81	5000	703.09	0.28
0.4963	342.81	6000	704.13	0.29
0.4963	342.81	7000	705.18	0.3
0.4963	342.81	8000	706.22	0.32
0.4963	342.81	9000	707.25	0.33
0.4963	342.81	10000	708.27	0.34
0.4963	342.81	11000	709.28	0.36
0.4963	342.81	12000	710.29	0.37
0.4963	342.81	13000	711.26	0.38
0.4963	342.81	14000	712.23	0.4
0.4963	342.81	15000	713.19	0.41
0.4963	342.81	16000	714.13	0.42
0.4963	342.81	17000	715.07	0.44
0.4963	342.81	18000	715.97	0.45
0.4963	342.81	19000	716.86	0.46
0.4963	342.81	20000	717.73	0.48
0.4963	352.69	1000	689.92	0.23
0.4963	352.69	2000	691.07	0.24
0.4963	352.69	3000	692.22	0.25
0.4963	352.69	4000	693.37	0.27
0.4963	352.69	5000	694.5	0.28
0.4963	352.69	6000	695.63	0.3
0.4963	352.69	7000	696.75	0.31
0.4963	352.69	8000	697.86	0.32
0.4963	352.69	9000	698.96	0.34
0.4963	352.69	10000	700.06	0.35
0.4963	352.69	11000	701.13	0.37
0.4963	352.69	12000	702.2	0.38
0.4963	352.69	13000	703.25	0.39
0.4963	352.69	14000	704.28	0.41
0.4963	352.69	15000	705.29	0.42
0.4963	352.69	16000	706.29	0.43
0.4963	352.69	17000	707.26	0.45
0.4963	352.69	18000	708.23	0.46
0.4963	352.69	19000	709.17	0.47
0.4963	352.69	20000	710.11	0.49
0.4963	362.64	1000	680.64	0.23
0.4963	362.64	2000	681.93	0.24
0.4963	362.64	3000	683.18	0.26
0.4963	362.64	4000	684.42	0.27
0.4963	362.64	5000	685.66	0.29
0.4963	362.64	6000	686.87	0.3
0.4963	362.64	7000	688.09	0.32
0.4963	362.64	8000	689.28	0.33
0.4963	362.64	9000	690.44	0.35
0.4963	362.64	10000	691.61	0.36
0.4963	362.64	11000	692.75	0.37
0.4963	362.64	12000	693.89	0.39
0.4963	362.64	13000	694.99	0.4
0.4963	362.64	14000	696.14	0.42
0.4963	362.64	15000	697.17	0.43
0.4963	362.64	16000	698.23	0.44
0.4963	362.64	17000	699.27	0.46
0.4963	362.64	18000	700.3	0.47
0.4963	362.64	19000	701.3	0.48
0.4963	362.64	20000	702.3	0.5
0.7526	313.08	1000	738.33	0.21
0.7526	313.08	2000	739.26	0.21
0.7526	313.08	3000	740.19	0.23
0.7526	313.08	4000	741.1	0.24
0.7526	313.08	5000	741.99	0.25
0.7526	313.08	6000	742.87	0.26
0.7526	313.08	7000	743.75	0.27
0.7526	313.08	8000	744.64	0.28
0.7526	313.08	9000	745.53	0.3
0.7526	313.08	10000	746.41	0.31
0.7526	313.08	11000	747.29	0.32
0.7526	313.08	12000	748.17	0.33
0.7526	313.08	13000	749.03	0.34
0.7526	313.08	14000	749.89	0.35
0.7526	313.08	15000	750.73	0.36
0.7526	313.08	16000	751.56	0.38
0.7526	313.08	17000	752.38	0.39
0.7526	313.08	18000	753.17	0.4
0.7526	313.08	19000	753.95	0.41
0.7526	313.08	20000	754.7	0.43
0.7526	323.03	1000	729.67	0.2
0.7526	323.03	2000	730.66	0.22
0.7526	323.03	3000	731.64	0.23
0.7526	323.03	4000	732.61	0.24
0.7526	323.03	5000	733.56	0.25
0.7526	323.03	6000	734.49	0.27
0.7526	323.03	7000	735.43	0.28
0.7526	323.03	8000	736.37	0.29
0.7526	323.03	9000	737.3	0.3
0.7526	323.03	10000	738.24	0.31
0.7526	323.03	11000	739.17	0.33
0.7526	323.03	12000	740.08	0.34
0.7526	323.03	13000	741	0.35
0.7526	323.03	14000	741.9	0.36
0.7526	323.03	15000	742.78	0.37
0.7526	323.03	16000	743.66	0.38
0.7526	323.03	17000	744.51	0.4
0.7526	323.03	18000	745.35	0.41
0.7526	323.03	19000	746.18	0.42
0.7526	323.03	20000	746.98	0.43
0.7526	332.91	1000	720.88	0.21
0.7526	332.91	2000	721.93	0.22
0.7526	332.91	3000	722.96	0.23
0.7526	332.91	4000	723.98	0.25
0.7526	332.91	5000	725	0.26
0.7526	332.91	6000	726.01	0.27
0.7526	332.91	7000	727.02	0.28
0.7526	332.91	8000	728.03	0.3
0.7526	332.91	9000	729.03	0.31
0.7526	332.91	10000	729.99	0.32
0.7526	332.91	11000	730.98	0.33
0.7526	332.91	12000	731.94	0.35
0.7526	332.91	13000	732.91	0.36
0.7526	332.91	14000	733.85	0.37
0.7526	332.91	15000	734.78	0.38
0.7526	332.91	16000	735.69	0.39
0.7526	332.91	17000	736.6	0.41
0.7526	332.91	18000	737.48	0.42
0.7526	332.91	19000	738.35	0.43
0.7526	332.91	20000	739.19	0.44
0.7526	342.86	1000	711.77	0.21
0.7526	342.86	2000	712.88	0.23
0.7526	342.86	3000	713.97	0.24
0.7526	342.86	4000	715.06	0.25
0.7526	342.86	5000	716.15	0.27
0.7526	342.86	6000	717.23	0.28
0.7526	342.86	7000	718.31	0.29
0.7526	342.86	8000	719.38	0.3
0.7526	342.86	9000	720.44	0.32
0.7526	342.86	10000	721.49	0.33
0.7526	342.86	11000	722.54	0.34
0.7526	342.86	12000	723.57	0.36
0.7526	342.86	13000	724.58	0.37
0.7526	342.86	14000	725.59	0.38
0.7526	342.86	15000	726.57	0.39
0.7526	342.86	16000	727.54	0.4
0.7526	342.86	17000	728.5	0.42
0.7526	342.86	18000	729.43	0.43
0.7526	342.86	19000	730.35	0.44
0.7526	342.86	20000	731.26	0.45
0.7526	352.76	1000	702.43	0.22
0.7526	352.76	2000	703.63	0.23
0.7526	352.76	3000	704.82	0.25
0.7526	352.76	4000	706.01	0.26
0.7526	352.76	5000	707.19	0.27
0.7526	352.76	6000	708.35	0.29
0.7526	352.76	7000	709.51	0.3
0.7526	352.76	8000	710.66	0.31
0.7526	352.76	9000	711.8	0.33
0.7526	352.76	10000	712.92	0.34
0.7526	352.76	11000	714.03	0.35
0.7526	352.76	12000	715.12	0.36
0.7526	352.76	13000	716.21	0.38
0.7526	352.76	14000	717.27	0.39
0.7526	352.76	15000	718.31	0.4
0.7526	352.76	16000	719.35	0.42
0.7526	352.76	17000	720.36	0.43
0.7526	352.76	18000	721.35	0.44
0.7526	352.76	19000	722.32	0.45
0.7526	352.76	20000	723.29	0.47
0.7526	362.71	1000	692.67	0.22
0.7526	362.71	2000	693.99	0.24
0.7526	362.71	3000	695.3	0.25
0.7526	362.71	4000	696.58	0.26
0.7526	362.71	5000	697.86	0.28
0.7526	362.71	6000	699.12	0.29
0.7526	362.71	7000	700.37	0.31
0.7526	362.71	8000	701.6	0.32
0.7526	362.71	9000	702.81	0.33
0.7526	362.71	10000	704.01	0.35
0.7526	362.71	11000	705.19	0.36
0.7526	362.71	12000	706.37	0.37
0.7526	362.71	13000	707.51	0.39
0.7526	362.71	14000	708.68	0.4
0.7526	362.71	15000	709.76	0.41
0.7526	362.71	16000	710.84	0.43
0.7526	362.71	17000	711.92	0.44
0.7526	362.71	18000	712.98	0.45
0.7526	362.71	19000	714.02	0.46
0.7526	362.71	20000	715.03	0.48
0.9014	313.07	1000	753.75	0.19
0.9014	313.07	2000	754.71	0.2
0.9014	313.07	3000	755.67	0.21
0.9014	313.07	4000	756.61	0.22
0.9014	313.07	5000	757.53	0.23
0.9014	313.07	6000	758.44	0.25
0.9014	313.07	7000	759.33	0.26
0.9014	313.07	8000	760.24	0.27
0.9014	313.07	9000	761.14	0.28
0.9014	313.07	10000	762.04	0.29
0.9014	313.07	11000	762.94	0.3
0.9014	313.07	12000	763.84	0.31
0.9014	313.07	13000	764.72	0.32
0.9014	313.07	14000	765.58	0.33
0.9014	313.07	15000	766.45	0.34
0.9014	313.07	16000	767.29	0.35
0.9014	313.07	17000	768.13	0.36
0.9014	313.07	18000	768.94	0.37
0.9014	313.07	19000	769.74	0.38
0.9014	313.07	20000	770.52	0.39
0.9014	322.99	1000	745.03	0.2
0.9014	322.99	2000	746.04	0.21
0.9014	322.99	3000	747.05	0.22
0.9014	322.99	4000	748.04	0.23
0.9014	322.99	5000	749.01	0.24
0.9014	322.99	6000	749.97	0.25
0.9014	322.99	7000	750.92	0.26
0.9014	322.99	8000	751.88	0.28
0.9014	322.99	9000	752.84	0.29
0.9014	322.99	10000	753.79	0.3
0.9014	322.99	11000	754.74	0.31
0.9014	322.99	12000	755.67	0.32
0.9014	322.99	13000	756.6	0.33
0.9014	322.99	14000	757.52	0.34
0.9014	322.99	15000	758.41	0.35
0.9014	322.99	16000	759.31	0.36
0.9014	322.99	17000	760.18	0.37
0.9014	322.99	18000	761.04	0.38
0.9014	322.99	19000	761.88	0.4
0.9014	322.99	20000	762.71	0.41
0.9014	332.86	1000	736.03	0.2
0.9014	332.86	2000	737.11	0.21
0.9014	332.86	3000	738.18	0.22
0.9014	332.86	4000	739.22	0.24
0.9014	332.86	5000	740.19	0.25
0.9014	332.86	6000	741.29	0.26
0.9014	332.86	7000	742.31	0.27
0.9014	332.86	8000	743.33	0.28
0.9014	332.86	9000	744.36	0.29
0.9014	332.86	10000	745.34	0.31
0.9014	332.86	11000	746.35	0.32
0.9014	332.86	12000	747.33	0.33
0.9014	332.86	13000	748.31	0.34
0.9014	332.86	14000	749.26	0.35
0.9014	332.86	15000	750.21	0.36
0.9014	332.86	16000	751.15	0.37
0.9014	332.86	17000	752.07	0.38
0.9014	332.86	18000	752.96	0.4
0.9014	332.86	19000	753.84	0.41
0.9014	332.86	20000	754.71	0.42
0.9014	342.86	1000	726.79	0.21
0.9014	342.86	2000	727.93	0.22
0.9014	342.86	3000	729.05	0.23
0.9014	342.86	4000	730.15	0.24
0.9014	342.86	5000	731.27	0.25
0.9014	342.86	6000	732.36	0.27
0.9014	342.86	7000	733.45	0.28
0.9014	342.86	8000	734.54	0.29
0.9014	342.86	9000	735.62	0.3
0.9014	342.86	10000	736.69	0.31
0.9014	342.86	11000	737.75	0.33
0.9014	342.86	12000	738.79	0.34
0.9014	342.86	13000	739.82	0.35
0.9014	342.86	14000	740.84	0.36
0.9014	342.86	15000	741.84	0.37
0.9014	342.86	16000	742.82	0.38
0.9014	342.86	17000	743.79	0.4
0.9014	342.86	18000	744.74	0.41
0.9014	342.86	19000	745.67	0.42
0.9014	342.86	20000	746.59	0.43
0.9014	352.68	1000	717.22	0.21
0.9014	352.68	2000	718.43	0.22
0.9014	352.68	3000	719.64	0.24
0.9014	352.68	4000	720.84	0.25
0.9014	352.68	5000	722.04	0.26
0.9014	352.68	6000	723.23	0.27
0.9014	352.68	7000	724.41	0.29
0.9014	352.68	8000	725.57	0.3
0.9014	352.68	9000	726.72	0.31
0.9014	352.68	10000	727.86	0.32
0.9014	352.68	11000	728.99	0.34
0.9014	352.68	12000	730.09	0.35
0.9014	352.68	13000	731.17	0.36
0.9014	352.68	14000	732.26	0.37
0.9014	352.68	15000	733.32	0.38
0.9014	352.68	16000	734.36	0.4
0.9014	352.68	17000	735.39	0.41
0.9014	352.68	18000	736.4	0.42
0.9014	352.68	19000	737.39	0.43
0.9014	352.68	20000	738.36	0.44
0.9014	362.64	1000	707.28	0.22
0.9014	362.64	2000	708.6	0.23
0.9014	362.64	3000	709.92	0.24
0.9014	362.64	4000	711.21	0.26
0.9014	362.64	5000	712.52	0.27
0.9014	362.64	6000	713.8	0.28
0.9014	362.64	7000	715.07	0.29
0.9014	362.64	8000	716.3	0.31
0.9014	362.64	9000	717.55	0.32
0.9014	362.64	10000	718.74	0.33
0.9014	362.64	11000	719.95	0.35
0.9014	362.64	12000	721.13	0.36
0.9014	362.64	13000	722.28	0.37
0.9014	362.64	14000	723.43	0.38
0.9014	362.64	15000	724.55	0.39
0.9014	362.64	16000	725.65	0.41
0.9014	362.64	17000	726.75	0.42
0.9014	362.64	18000	727.82	0.43
0.9014	362.64	19000	728.87	0.44
0.9014	362.64	20000	729.9	0.45

System: ethanol + decane + carbon dioxide; phases: Liquid
Fixed: Mole fraction of ethanol = 0.1986
Fixed: Mole fraction of decane = 0.5958
Property: Mass density, kg/m3 (Liquid); method: Vibrating tube method
Temperature, K	Pressure, kPa	Mass density, kg/m3	uncertainty
313.13	4000	735.75	1.17
313.13	5000	737.22	1.18
313.13	6000	738.52	1.2
313.13	7000	739.82	1.21
313.13	8000	741.12	1.23
313.13	9000	742.24	1.24
313.13	10000	743.54	1.26
313.13	11000	744.69	1.27
313.13	12000	745.84	1.29
313.13	13000	746.98	1.3
313.13	14000	748.09	1.31
313.13	15000	749.21	1.33
313.13	16000	750.31	1.34
313.13	17000	751.41	1.36
313.13	18000	752.46	1.37
313.13	19000	753.51	1.38
313.13	20000	754.54	1.4
323.09	4000	725.73	1.15
323.09	5000	726.94	1.16
323.09	6000	728.14	1.18
323.09	7000	729.33	1.19
323.09	8000	730.51	1.21
323.09	9000	731.67	1.22
323.09	10000	732.85	1.24
323.09	11000	734.16	1.26
323.09	12000	735.18	1.27
323.09	13000	736.33	1.28
323.09	14000	737.45	1.3
323.09	15000	738.56	1.31
323.09	16000	739.64	1.33
323.09	17000	740.71	1.34
323.09	18000	741.75	1.36
323.09	19000	742.77	1.37
323.09	20000	743.78	1.39
333	6000	719.72	1.16
333	7000	721.25	1.18
333	8000	722.72	1.2
333	9000	724.21	1.21
333	10000	725.63	1.23
333	11000	726.99	1.24
333	12000	728.32	1.26
333	13000	729.64	1.28
333	14000	730.91	1.29
333	15000	732.18	1.31
333	16000	733.42	1.32
333	17000	734.64	1.34
333	18000	735.82	1.35
333	19000	736.98	1.36
333	20000	738.11	1.38
342.98	6000	708.92	1.15
342.98	7000	710.54	1.16
342.98	8000	712.21	1.18
342.98	9000	713.81	1.2
342.98	10000	715.39	1.21
342.98	11000	717.06	1.23
342.98	12000	718.62	1.25
342.98	13000	720.11	1.26
342.98	14000	721.61	1.28
342.98	15000	723.05	1.29
342.98	16000	724.43	1.31
342.98	17000	725.79	1.33
342.98	18000	727.13	1.34
342.98	19000	728.43	1.36
342.98	20000	729.68	1.37
352.91	6000	698.42	1.13
352.91	7000	700.2	1.15
352.91	8000	701.92	1.16
352.91	9000	703.62	1.18
352.91	10000	705.3	1.2
352.91	11000	706.94	1.22
352.91	12000	708.54	1.23
352.91	13000	710.08	1.25
352.91	14000	711.61	1.27
352.91	15000	713.09	1.28
352.91	16000	714.54	1.3
352.91	17000	715.97	1.31
352.91	18000	717.37	1.33
352.91	19000	718.72	1.35
352.91	20000	720.24	1.36
362.89	6000	687.04	1.11
362.89	7000	690.78	1.13
362.89	8000	692.7	1.15
362.89	9000	694.42	1.17
362.89	10000	696.18	1.19
362.89	11000	697.89	1.2
362.89	12000	699.55	1.22
362.89	13000	701.18	1.24
362.89	14000	702.8	1.26
362.89	15000	704.36	1.27
362.89	16000	705.89	1.29
362.89	17000	705.97	1.3
362.89	18000	707.39	1.32
362.89	19000	708.85	1.34
362.89	20000	710.29	1.35

System: ethanol + decane + carbon dioxide; phases: Liquid
Fixed: Mole fraction of ethanol = 0.0657
Fixed: Mole fraction of decane = 0.7023
Property: Mass density, kg/m3 (Liquid); method: Vibrating tube method
Temperature, K	Pressure, kPa	Mass density, kg/m3	uncertainty
313.09	6000	728.11	1.42
313.09	7000	729.1	1.43
313.09	8000	730.08	1.45
313.09	9000	731.05	1.46
313.09	10000	732.01	1.48
313.09	11000	732.98	1.49
313.09	12000	733.93	1.51
313.09	13000	734.86	1.52
313.09	14000	735.79	1.54
313.09	15000	736.71	1.55
313.09	16000	737.6	1.57
313.09	17000	738.48	1.58
313.09	18010	739.35	1.6
313.09	19000	740.19	1.61
313.09	20000	741.01	1.63
323	4000	717.53	1.36
323	6000	719.6	1.4
323	7000	720.63	1.41
323	8000	721.66	1.43
323	9000	722.69	1.44
323	10000	723.72	1.46
323	11000	724.73	1.48
323	12000	725.74	1.49
323	13000	726.74	1.51
323	14000	727.71	1.52
323	15000	728.68	1.54
323	16000	729.63	1.55
323	17000	730.56	1.57
323	18010	731.46	1.58
323	19000	732.35	1.6
323	20000	733.31	1.61
332.87	6000	710.93	1.38
332.87	7000	712.04	1.39
332.87	8000	713.15	1.41
332.87	9000	714.26	1.43
332.87	10000	715.34	1.44
332.87	11000	716.43	1.46
332.87	12000	717.48	1.48
332.87	13000	718.54	1.49
332.87	14000	719.57	1.51
332.87	15000	720.59	1.52
332.87	16000	721.59	1.54
332.87	17000	722.56	1.55
332.87	18010	723.52	1.57
332.87	19000	724.46	1.59
332.87	20000	725.38	1.6
342.81	6000	702.14	1.36
342.81	7000	703.34	1.37
342.81	8000	704.52	1.39
342.81	9000	705.7	1.41
342.81	10000	706.85	1.42
342.81	11000	708	1.44
342.81	12000	709.13	1.46
342.81	13000	710.24	1.48
342.81	14000	711.34	1.49
342.81	15000	712.41	1.51
342.81	16000	713.47	1.52
342.81	17000	714.51	1.54
342.81	18010	715.53	1.56
342.81	19000	716.53	1.57
342.81	20000	717.5	1.59
352.7	6000	693.39	1.34
352.7	7000	694.67	1.35
352.7	8000	695.94	1.37
352.7	9000	697.19	1.39
352.7	10000	698.43	1.41
352.7	11000	699.66	1.43
352.7	12000	700.86	1.44
352.7	13000	702.05	1.46
352.7	14000	703.21	1.48
352.7	15000	704.36	1.49
352.7	16000	705.49	1.51
352.7	17000	706.58	1.53
352.7	18010	707.67	1.54
352.7	19000	708.73	1.56
352.7	20000	709.77	1.58
362.65	6000	684.51	1.32
362.65	7000	685.91	1.34
362.65	8000	687.27	1.35
362.65	9000	688.62	1.37
362.65	10000	689.93	1.39
362.65	11000	691.23	1.41
362.65	12000	692.54	1.43
362.65	13000	693.78	1.44
362.65	14000	695.02	1.46
362.65	15000	696.22	1.48
362.65	16000	697.42	1.5
362.65	17000	698.58	1.51
362.65	18010	699.73	1.53
362.65	19000	700.85	1.55
362.65	20000	701.96	1.56

System: ethanol + decane + carbon dioxide; phases: Liquid
Fixed: Mole fraction of ethanol = 0.4087
Fixed: Mole fraction of decane = 0.4188
Property: Mass density, kg/m3 (Liquid); method: Vibrating tube method
Temperature, K	Pressure, kPa	Mass density, kg/m3	uncertainty
313.1	6000	739.69	0.85
313.1	7000	740.72	0.86
313.1	8000	741.77	0.88
313.1	9000	742.79	0.89
313.1	10000	743.83	0.91
313.1	11000	744.87	0.92
313.1	12000	745.89	0.93
313.1	13000	746.89	0.95
313.1	14000	747.9	0.96
313.1	15000	748.87	0.97
313.1	16000	749.82	0.98
313.1	17000	750.77	1
313.1	18000	751.69	1.01
313.1	19000	752.59	1.02
313.1	20000	753.46	1.03
323.02	6000	731.16	0.84
323.02	7000	732.27	0.86
323.02	8000	733.4	0.87
323.02	9000	734.52	0.89
323.02	10000	735.63	0.9
323.02	11000	736.72	0.91
323.02	12000	737.8	0.93
323.02	13000	738.87	0.94
323.02	14000	739.94	0.95
323.02	15000	741.03	0.97
323.02	16000	742.04	0.98
323.02	17000	743.04	0.99
323.02	18000	744.02	1.01
323.02	19000	744.96	1.02
323.02	20000	745.9	1.03
332.9	6000	721.75	0.84
332.9	7000	722.94	0.85
332.9	8000	724.14	0.87
332.9	9000	725.34	0.88
332.9	10000	726.53	0.9
332.9	11000	727.71	0.91
332.9	12000	728.87	0.92
332.9	13000	730.01	0.94
332.9	14000	731.13	0.95
332.9	15000	732.23	0.97
332.9	16000	733.31	0.98
332.9	17000	734.38	0.99
332.9	18000	735.41	1.01
332.9	19000	736.42	1.02
332.9	20000	737.41	1.03
342.9	6000	711.81	0.83
342.9	7000	713.13	0.84
342.9	8000	714.44	0.86
342.9	9000	715.75	0.88
342.9	10000	717.03	0.89
342.9	11000	718.3	0.9
342.9	12000	719.54	0.92
342.9	13000	720.76	0.93
342.9	14000	721.96	0.95
342.9	15000	723.15	0.96
342.9	16000	724.3	0.98
342.9	17000	725.44	0.99
342.9	18000	726.56	1
342.9	19000	727.65	1.02
342.9	20000	728.71	1.03
352.73	6000	701.66	0.82
352.73	7000	703.13	0.84
352.73	8000	704.56	0.85
352.73	9000	705.99	0.87
352.73	10000	707.38	0.88
352.73	11000	708.76	0.9
352.73	12000	710.1	0.92
352.73	13000	711.41	0.93
352.73	14000	712.65	0.94
352.73	15000	713.97	0.96
352.73	16000	715.2	0.97
352.73	17000	716.38	0.99
352.73	18000	717.53	1
352.73	19000	718.66	1.02
352.73	20000	719.74	1.03
362.66	6000	690.92	0.82
362.66	7000	692.53	0.83
362.66	8000	694.09	0.85
362.66	9000	695.61	0.86
362.66	10000	697.12	0.88
362.66	11000	698.57	0.9
362.66	12000	700.01	0.91
362.66	13000	701.41	0.93
362.66	14000	702.78	0.94
362.66	15000	704.13	0.96
362.66	16000	705.44	0.97
362.66	17000	706.71	0.99
362.66	18000	707.97	1
362.66	19000	709.18	1.02
362.66	20000	710.39	1.03

System: ethanol + decane + carbon dioxide; phases: Liquid
Fixed: Mole fraction of ethanol = 0.6042
Fixed: Mole fraction of decane = 0.2045
Property: Mass density, kg/m3 (Liquid); method: Vibrating tube method
Temperature, K	Pressure, kPa	Mass density, kg/m3	uncertainty
313.11	3000	756.3	0.48
313.11	4000	757.35	0.49
313.11	5000	758.49	0.51
313.11	6000	759.81	0.52
313.11	7000	761.12	0.53
313.11	8000	762.43	0.54
313.11	9000	763.64	0.55
313.11	10000	764.84	0.56
313.11	11000	766.01	0.57
313.11	12000	767.18	0.59
313.11	13000	768.57	0.6
313.11	14000	769.71	0.61
313.11	15000	770.83	0.62
313.11	16000	771.94	0.63
313.11	17000	773.01	0.64
313.11	18000	774.07	0.65
313.11	19000	775.11	0.66
313.11	20000	776.13	0.67
323.04	3000	745.81	0.48
323.04	4000	747.06	0.49
323.04	5000	748.43	0.51
323.04	6000	749.83	0.52
323.04	7000	751.24	0.53
323.04	8000	752.62	0.54
323.04	9000	753.92	0.55
323.04	10000	755.2	0.57
323.04	11000	756.47	0.58
323.04	12000	757.73	0.59
323.04	13000	758.96	0.6
323.04	14000	760.18	0.61
323.04	15000	761.37	0.62
323.04	16000	762.54	0.63
323.04	17000	763.7	0.65
323.04	18000	764.82	0.66
323.04	19000	765.93	0.67
323.04	20000	767.03	0.68
332.91	3000	734.6	0.48
332.91	4000	736.09	0.49
332.91	5000	737.59	0.51
332.91	6000	739.06	0.52
332.91	7000	740.53	0.53
332.91	8000	741.98	0.54
332.91	9000	743.4	0.56
332.91	10000	744.78	0.57
332.91	11000	746.14	0.58
332.91	12000	747.49	0.59
332.91	13000	748.81	0.61
332.91	14000	750.11	0.62
332.91	15000	751.38	0.63
332.91	16000	752.64	0.64
332.91	17000	753.86	0.65
332.91	18000	755.07	0.66
332.91	19000	756.25	0.67
332.91	20000	757.41	0.69
342.85	3000	722.82	0.48
342.85	4000	724.47	0.49
342.85	5000	726.11	0.51
342.85	6000	727.72	0.52
342.85	7000	729.3	0.53
342.85	8000	730.86	0.55
342.85	9000	732.39	0.56
342.85	10000	733.9	0.57
342.85	11000	735.38	0.59
342.85	12000	736.83	0.6
342.85	13000	738.25	0.61
342.85	14000	739.65	0.62
342.85	15000	741.02	0.63
342.85	16000	742.36	0.65
342.85	17000	743.68	0.66
342.85	18000	744.97	0.67
342.85	19000	746.24	0.68
342.85	20000	747.49	0.69
352.73	3000	710.61	0.48
352.73	4000	712.32	0.5
352.73	5000	714.14	0.51
352.73	6000	715.91	0.52
352.73	7000	717.66	0.54
352.73	8000	719.37	0.55
352.73	9000	721.05	0.56
352.73	10000	722.69	0.58
352.73	11000	724.3	0.59
352.73	12000	725.87	0.6
352.73	13000	727.44	0.62
352.73	14000	728.94	0.63
352.73	15000	730.43	0.64
352.73	16000	731.89	0.65
352.73	17000	733.3	0.67
352.73	18000	734.7	0.68
352.73	19000	736.07	0.69
352.73	20000	737.4	0.7
362.67	4000	698.11	0.5
362.67	5000	701.57	0.51
362.67	6000	703.53	0.52
362.67	7000	705.45	0.54
362.67	8000	707.34	0.55
362.67	9000	709.17	0.57
362.67	10000	710.97	0.58
362.67	11000	712.74	0.59
362.67	12000	714.46	0.61
362.67	13000	716.15	0.62
362.67	14000	717.78	0.63
362.67	15000	719.4	0.65
362.67	16000	720.97	0.66
362.67	17000	722.51	0.67
362.67	18000	724.02	0.69
362.67	19000	725.54	0.7
362.67	20000	726.98	0.71

System: ethanol + decane + carbon dioxide; phases: Liquid
Fixed: Mole fraction of ethanol = 0.7109
Fixed: Mole fraction of decane = 0.0789
Property: Mass density, kg/m3 (Liquid); method: Vibrating tube method
Temperature, K	Pressure, kPa	Mass density, kg/m3	uncertainty
313.1	9000	797.77	0.25
313.1	10000	799.51	0.26
313.1	11000	801.12	0.27
313.1	12000	802.78	0.28
313.1	13000	804.35	0.28
313.1	14000	805.87	0.29
313.1	15000	807.43	0.3
313.1	16000	809.06	0.3
313.1	17000	810.48	0.31
313.1	18000	811.88	0.32
313.1	19000	813.32	0.33
313.1	20000	814.75	0.33
323.03	9000	783.66	0.27
323.03	10000	785.54	0.28
323.03	11000	787.38	0.28
323.03	12000	789.17	0.29
323.03	13000	790.94	0.3
323.03	14000	792.7	0.31
323.03	15000	794.33	0.31
323.03	16000	796.07	0.32
323.03	17000	797.65	0.33
323.03	18000	799.22	0.34
323.03	19000	800.73	0.34
323.03	20000	802.28	0.35
332.89	10000	770.96	0.29
332.89	11000	773.06	0.3
332.89	12000	775.08	0.31
332.89	13000	777.05	0.32
332.89	14000	778.95	0.32
332.89	15000	780.81	0.33
332.89	16000	782.64	0.34
332.89	17000	784.41	0.35
332.89	18000	786.14	0.36
332.89	19000	787.82	0.36
332.89	20000	789.46	0.37
342.84	9000	752.65	0.3
342.84	10000	755.23	0.31
342.84	11000	757.65	0.32
342.84	12000	759.89	0.33
342.84	13000	762.04	0.34
342.84	14000	764.01	0.34
342.84	15000	765.93	0.35
342.84	16000	767.78	0.36
342.84	17000	769.57	0.37
342.84	18000	770.98	0.38
342.84	19000	772.69	0.39
342.84	20000	774.36	0.4
352.72	9000	736.04	0.31
352.72	10000	738.08	0.32
352.72	11000	740.04	0.33
352.72	12000	741.86	0.34
352.72	13000	743.73	0.35
352.72	14000	745.54	0.36
352.72	15000	747.34	0.37
352.72	16000	749.17	0.38
352.72	17000	751	0.39
352.72	18000	752.79	0.4
352.72	19000	754.46	0.41
352.72	20000	756.14	0.43
362.66	9000	720.97	0.33
362.66	10000	723.7	0.34
362.66	11000	726.23	0.34
362.66	12000	728.65	0.35
362.66	13000	730.95	0.36
362.66	14000	733.15	0.37
362.66	15000	735.27	0.38
362.66	16000	737.32	0.39
362.66	17000	739.28	0.4
362.66	18000	741.17	0.41
362.66	19000	743.02	0.42
362.66	20000	744.77	0.43
