Measured thermophysical data. Ultrasound speeds and molar isentropic compressions of (3-butoxypropan-1-amine + water) mixtures from T = (283.15 to 303.15) K
Source: J. Chem. Thermodyn., 2017, 10.1016/j.jct.2017.05.010
Compound 1: 3-butoxy-1-propanamine, C7H17NO, InChI=1S/C7H17NO/c1-2-3-6-9-7-4-5-8/h2-8H2,1H3, purity 99%
Compound 2: water, H2O, InChI=1S/H2O/h1H2, purity 99.9%

System: 3-butoxy-1-propanamine; phases: Liquid
Fixed: Pressure, kPa = 101.325
Property: Speed of sound, m/s (Liquid); method: Single path-length method
Temperature, K	Speed of sound, m/s	uncertainty
283.15	1387.33	1.72
288.15	1367.3	1.72
293.15	1346.7	1.72
298.15	1326.39	1.72
303.15	1306.74	1.72

System: water; phases: Liquid
Fixed: Pressure, kPa = 101.325
Property: Speed of sound, m/s (Liquid); method: Single path-length method
Temperature, K	Speed of sound, m/s	uncertainty
283.15	1447.59	1.41
288.15	1466.25	1.41
293.15	1482.66	1.4
298.15	1497	1.4
303.15	1509.44	1.4

System: water + 3-butoxy-1-propanamine; phases: Liquid
Fixed: Pressure, kPa = 100
Fixed: Frequency, MHz = 3
Property: Speed of sound, m/s (Liquid); method: Single path-length method
Temperature, K	Mole fraction of 3-butoxy-1-propanamine	Speed of sound, m/s	uncertainty
283.15	0	0	0.001
283.15	0.0011	8.19	1.41
283.15	0.0039	30.48	1.47
283.15	0.0061	46.69	1.55
283.15	0.0083	60.58	1.65
283.15	0.0122	84.51	1.7
283.15	0.015	93.09	1.46
283.15	0.0195	96.72	1.41
283.15	0.0224	95.65	1.43
283.15	0.025	93.1	1.42
283.15	0.0284	92.67	1.41
283.15	0.0314	94.27	1.41
283.15	0.0372	94.97	1.41
283.15	0.0406	94.71	1.41
283.15	0.0602	96.02	1.41
283.15	0.0709	93.82	1.42
283.15	0.098	92.66	1.43
283.15	0.1326	85.41	1.49
283.15	0.1854	74.75	1.59
283.15	0.2344	61.68	1.77
283.15	0.2887	46.25	1.83
283.15	0.3904	23.75	1.96
283.15	0.4725	8.39	2.01
283.15	0.531	-0.94	1.96
283.15	0.5916	-11.17	1.81
283.15	0.658	-19.36	1.74
283.15	0.7081	-27.5	1.72
283.15	0.7878	-37.43	1.67
283.15	0.883	-47.78	1.68
283.15	0.9177	-52.7	1.69
283.15	0.9627	-58.23	1.71
283.15	1	-60.26	1.73
288.15	0	0	0.001
288.15	0.0011	8.01	1.41
288.15	0.0039	28.27	1.46
288.15	0.0061	42.95	1.53
288.15	0.0083	55.3	1.59
288.15	0.0122	74.8	1.58
288.15	0.015	78.95	1.41
288.15	0.0195	79.43	1.41
288.15	0.0224	78.22	1.42
288.15	0.025	76.33	1.42
288.15	0.0284	75.59	1.41
288.15	0.0314	76.06	1.41
288.15	0.0372	75.85	1.41
288.15	0.0406	75.08	1.41
288.15	0.0602	73.21	1.42
288.15	0.0709	70.4	1.43
288.15	0.098	65.45	1.46
288.15	0.1326	56.26	1.53
288.15	0.1854	42.19	1.65
288.15	0.2344	27.83	1.82
288.15	0.2887	11.78	1.85
288.15	0.3904	-11.69	2
288.15	0.4725	-27.84	2.05
288.15	0.531	-37.59	1.91
288.15	0.5916	-46.07	1.83
288.15	0.658	-56.6	1.8
288.15	0.7081	-64.99	1.72
288.15	0.7878	-75.15	1.67
288.15	0.883	-85.84	1.68
288.15	0.9177	-90.61	1.69
288.15	0.9627	-96.17	1.71
288.15	1	-98.95	1.73
293.15	0	0	0.001
293.15	0.0011	7.4	1.41
293.15	0.0039	25.84	1.45
293.15	0.0061	38.66	1.5
293.15	0.0083	50.04	1.53
293.15	0.0122	64.15	1.49
293.15	0.015	65.52	1.41
293.15	0.0195	63.86	1.41
293.15	0.0224	62.22	1.42
293.15	0.025	60.95	1.42
293.15	0.0284	59.6	1.42
293.15	0.0314	58.79	1.41
293.15	0.0372	57.57	1.42
293.15	0.0406	56.25	1.42
293.15	0.0602	51.13	1.43
293.15	0.0709	47.87	1.45
293.15	0.098	39.75	1.5
293.15	0.1326	28.22	1.59
293.15	0.1854	10.87	1.72
293.15	0.2344	-4.72	1.84
293.15	0.2887	-20.71	1.87
293.15	0.3904	-45.19	2.05
293.15	0.4725	-62.43	2.11
293.15	0.531	-72.62	2.01
293.15	0.5916	-83.36	1.85
293.15	0.658	-92.32	1.76
293.15	0.7081	-100.57	1.73
293.15	0.7878	-111.36	1.68
293.15	0.883	-122.45	1.68
293.15	0.9177	-127.02	1.69
293.15	0.9627	-132.67	1.71
293.15	1	-135.96	1.73
298.15	0	0	0.001
298.15	0.0011	6.55	1.41
298.15	0.0039	23.26	1.44
298.15	0.0061	34.8	1.48
298.15	0.0083	44.67	1.49
298.15	0.0122	54.13	1.43
298.15	0.015	53.2	1.41
298.15	0.0195	50.23	1.42
298.15	0.0224	48.45	1.42
298.15	0.025	46.89	1.42
298.15	0.0284	45.12	1.43
298.15	0.0314	43.5	1.43
298.15	0.0372	41.14	1.43
298.15	0.0406	39.26	1.44
298.15	0.0602	30.96	1.47
298.15	0.0709	26.59	1.49
298.15	0.098	15.35	1.55
298.15	0.1326	1.81	1.63
298.15	0.1854	-17.85	1.78
298.15	0.2344	-34.56	1.89
298.15	0.2887	-51.48	1.92
298.15	0.3904	-77.56	2.09
298.15	0.4725	-94.87	2.12
298.15	0.531	-105.23	2.03
298.15	0.5916	-116.19	1.86
298.15	0.658	-125.61	1.78
298.15	0.7081	-134.51	1.73
298.15	0.7878	-144.9	1.68
298.15	0.883	-156.39	1.68
298.15	0.9177	-160.91	1.69
298.15	0.9627	-166.67	1.71
298.15	1	-170.61	1.73
303.15	0	0	0.001
303.15	0.0011	5.97	1.41
303.15	0.0039	21.16	1.43
303.15	0.0061	31.39	1.46
303.15	0.0083	39.78	1.46
303.15	0.0122	44.69	1.41
303.15	0.015	42.59	1.42
303.15	0.0195	38.69	1.43
303.15	0.0224	36.17	1.44
303.15	0.025	34.23	1.44
303.15	0.0284	31.78	1.45
303.15	0.0314	29.48	1.45
303.15	0.0372	25.83	1.46
303.15	0.0406	23.53	1.48
303.15	0.0602	12.13	1.51
303.15	0.0709	6.5	1.53
303.15	0.098	-7.28	1.6
303.15	0.1326	-23.11	1.69
303.15	0.1854	-44.95	1.84
303.15	0.2344	-62.75	1.92
303.15	0.2887	-80.06	1.95
303.15	0.3904	-107.11	2.13
303.15	0.4725	-124.95	2.15
303.15	0.531	-135.72	2.06
303.15	0.5916	-146.94	1.88
303.15	0.658	-156.79	1.79
303.15	0.7081	-165.62	1.73
303.15	0.7878	-176.25	1.68
303.15	0.883	-188.19	1.68
303.15	0.9177	-192.79	1.69
303.15	0.9627	-198.74	1.71
303.15	1	-202.7	1.73
