Measured thermophysical data. The standard molar enthalpy of the base catalysed hydrolysis of methyl paraben revisited
Source: J. Chem. Thermodyn., 2016, 10.1016/j.jct.2016.07.042
Compound 1: methanol, CH4O, InChI=1S/CH4O/c1-2/h2H,1H3
Compound 2: sodium hydroxide, HNaO, InChI=1S/Na.H2O/h;1H2/q+1;/p-1
Compound 3: disodium 4-hydroxybenzoate, C7H4Na2O3, InChI=1S/C7H6O3.2Na/c8-6-3-1-5(2-4-6)7(9)10;;/h1-4,8H,(H,9,10);;/q;2*+1/p-2
Compound 4: water, H2O, InChI=1S/H2O/h1H2
Compound 5: methyl 4-hydroxybenzoate, C8H8O3, InChI=1S/C8H8O3/c1-11-8(10)6-2-4-7(9)5-3-6/h2-5,9H,1H3, purity 99%

System: methyl 4-hydroxybenzoate; phases: Crystal, Liquid, Air at 1 atmosphere
Property: Normal melting temperature, K (Crystal); method: DTA
Normal melting temperature, K	uncertainty
398.6	0.5

System: methyl 4-hydroxybenzoate; phases: Crystal, Liquid, Air at 1 atmosphere
Property: Molar enthalpy of transition or fusion, kJ/mol (Crystal); method: DSC
Molar enthalpy of transition or fusion, kJ/mol	uncertainty
30.2	0.7

System: methyl 4-hydroxybenzoate; phases: Crystal
Property: Mass density, kg/m3 (Crystal); method: X-ray diffraction
Temperature, K	Pressure, kPa	Mass density, kg/m3	uncertainty
296	101.325	1394	64

Reaction: 1 methanol + -1 methyl 4-hydroxybenzoate + -2 sodium hydroxide + 1 disodium 4-hydroxybenzoate + 1 water
Property: Molar enthalpy of reaction, kJ/mol
-60.96

Reaction: 1 methanol + -1 methyl 4-hydroxybenzoate + -2 sodium hydroxide + 1 disodium 4-hydroxybenzoate + 1 water
Property: Molar enthalpy of reaction, kJ/mol
-59.02

Reaction: 1 methanol + -1 methyl 4-hydroxybenzoate + -2 sodium hydroxide + 1 disodium 4-hydroxybenzoate + 1 water
Property: Molar enthalpy of reaction, kJ/mol
-55.92
