Measured thermophysical data. Thermochemical behavior of crown ethers in the mixtures of water with organic solvents. Part VIII. Hydrophobic hydration and preferential solvation of 1,4-dioxane in {(1 - x)amide + xH2O} at T = 298.15 K
Source: J. Chem. Thermodyn., 2007, 10.1016/j.jct.2006.07.026
Compound 1: 1,4-dioxane, C4H8O2, InChI=1S/C4H8O2/c1-2-6-4-3-5-1/h1-4H2
Compound 2: formamide, CH3NO, InChI=1S/CH3NO/c2-1-3/h1H,(H2,2,3)
Compound 3: N-methylformamide, C2H5NO, InChI=1S/C2H5NO/c1-3-2-4/h2H,1H3,(H,3,4)
Compound 4: dimethylformamide, C3H7NO, InChI=1S/C3H7NO/c1-4(2)3-5/h3H,1-2H3
Compound 5: water, H2O, InChI=1S/H2O/h1H2

System: N-methylformamide + 1,4-dioxane + water; phases: Liquid
Fixed: Mole fraction of 1,4-dioxane = 0
Fixed: Temperature, K = 298.15
Fixed: Pressure, kPa = 101
Property: Molar enthalpy of solution, kJ/mol (Liquid); method: ISOPERIBOL:UFactor:4
Solvent: Mole fraction of water	Molar enthalpy of solution, kJ/mol	uncertainty
0	1.29	0.07
0.1	1.47	0.07
0.2	1.6	0.06
0.3	1.78	0.09
0.4	1.8	0.07
0.5	1.71	0.08
0.6	1.25	0.05
0.7	0.25	0.06
0.8	-1.49	0.09
0.9	-4.6	0.14
0.92	-5.25	0.16
0.94	-6.05	0.19
0.96	-7.06	0.22
0.98	-8.35	0.26
1	-9.7	0.3

System: formamide + 1,4-dioxane + water; phases: Liquid
Fixed: Mole fraction of 1,4-dioxane = 0
Fixed: Temperature, K = 298.15
Fixed: Pressure, kPa = 101
Property: Molar enthalpy of solution, kJ/mol (Liquid); method: ISOPERIBOL:UFactor:4
Solvent: Mole fraction of water	Molar enthalpy of solution, kJ/mol	uncertainty
0	-2.01	0.08
0.1	-2.24	0.1
0.2	-2.44	0.09
0.3	-2.82	0.09
0.4	-3.32	0.12
0.5	-3.86	0.15
0.6	-4.55	0.15
0.7	-5.39	0.17
0.8	-6.33	0.2
0.9	-7.56	0.23
0.92	-7.98	0.25
0.94	-8.33	0.26
0.96	-8.71	0.27
0.98	-9.1	0.28
1	-9.7	0.3

System: dimethylformamide + 1,4-dioxane + water; phases: Liquid
Fixed: Mole fraction of 1,4-dioxane = 0
Fixed: Temperature, K = 298.15
Fixed: Pressure, kPa = 101
Property: Molar enthalpy of solution, kJ/mol (Liquid); method: ISOPERIBOL:UFactor:6
Solvent: Mole fraction of water	Molar enthalpy of solution, kJ/mol	uncertainty
0	0.86	0.05
0.1	1.41	0.08
0.2	1.99	0.13
0.3	2.7	0.13
0.4	3.38	0.16
0.5	4.24	0.2
0.6	4.47	0.21
0.7	3.82	0.19
0.8	1.79	0.1
0.9	-2.21	0.1
0.92	-3.27	0.15
0.94	-4.69	0.22
0.96	-5.92	0.28
0.98	-7.5	0.35
1	-9.7	0.45
