Measured thermophysical data. Density, speed of sound and refractive index of mixtures containing 2-phenoxyethanol with propanol or butanol at various temperatures
Source: J. Chem. Thermodyn., 2019, 10.1016/j.jct.2018.08.029
Compound 1: 2-phenoxyethanol, C8H10O2, InChI=1S/C8H10O2/c9-6-7-10-8-4-2-1-3-5-8/h1-5,9H,6-7H2, purity 99%
Compound 2: propan-1-ol, C3H8O, InChI=1S/C3H8O/c1-2-3-4/h4H,2-3H2,1H3, purity 99%
Compound 3: propan-2-ol, C3H8O, InChI=1S/C3H8O/c1-3(2)4/h3-4H,1-2H3, purity 99.8%
Compound 4: butan-1-ol, C4H10O, InChI=1S/C4H10O/c1-2-3-4-5/h5H,2-4H2,1H3, purity 99.5%
Compound 5: butan-2-ol, C4H10O, InChI=1S/C4H10O/c1-3-4(2)5/h4-5H,3H2,1-2H3, purity 99%

System: 2-phenoxyethanol; phases: Liquid
Fixed: Pressure, kPa = 100
Property: Mass density, kg/m3 (Liquid); method: Vibrating tube method
Temperature, K	Mass density, kg/m3	uncertainty
293.15	1107	3
303.15	1099	3
313.15	1090	3
323.15	1081	3
298.15	1103	3

System: 2-phenoxyethanol; phases: Liquid
Fixed: Pressure, kPa = 100
Fixed: Frequency, MHz = 3
Property: Speed of sound, m/s (Liquid); method: Single path-length method
Temperature, K	Speed of sound, m/s	uncertainty
293.15	1591.8	1.6
303.15	1557.4	1.6
313.15	1522.9	1.6
323.15	1489.1	1.6
298.15	1574.6	1.6

System: 2-phenoxyethanol; phases: Liquid
Fixed: Pressure, kPa = 100
Property: Refractive index (Na D-line) (Liquid); method: Standard Abbe refractometry
Temperature, K	Refractive index (Na D-line)	uncertainty
293.15	1.539	0.005
303.15	1.534	0.005
313.15	1.53	0.005
323.15	1.526	0.005
298.15	1.536	0.005

System: propan-1-ol; phases: Liquid
Fixed: Pressure, kPa = 100
Property: Mass density, kg/m3 (Liquid); method: Vibrating tube method
Temperature, K	Mass density, kg/m3	uncertainty
293.15	803	3
303.15	796	3
313.15	788	3
323.15	780	3
298.15	800	3

System: propan-1-ol; phases: Liquid
Fixed: Pressure, kPa = 100
Fixed: Frequency, MHz = 3
Property: Speed of sound, m/s (Liquid); method: Single path-length method
Temperature, K	Speed of sound, m/s	uncertainty
293.15	1224.3	1.6
303.15	1189.9	1.6
313.15	1156	1.6
323.15	1122.5	1.6
298.15	1207.3	1.6

System: propan-1-ol; phases: Liquid
Fixed: Pressure, kPa = 100
Property: Refractive index (Na D-line) (Liquid); method: Standard Abbe refractometry
Temperature, K	Refractive index (Na D-line)	uncertainty
293.15	1.385	0.005
303.15	1.381	0.005
313.15	1.377	0.005
323.15	1.373	0.005
298.15	1.383	0.005

System: propan-2-ol; phases: Liquid
Fixed: Pressure, kPa = 100
Property: Mass density, kg/m3 (Liquid); method: Vibrating tube method
Temperature, K	Mass density, kg/m3	uncertainty
293.15	785	3
303.15	777	3
313.15	768	3
323.15	759	3
298.15	781	3

System: propan-2-ol; phases: Liquid
Fixed: Pressure, kPa = 100
Fixed: Frequency, MHz = 3
Property: Speed of sound, m/s (Liquid); method: Single path-length method
Temperature, K	Speed of sound, m/s	uncertainty
293.15	1157.8	1.3
303.15	1122.6	1.3
313.15	1087.4	1.3
323.15	1051.8	1.3
298.15	1140.2	1.3

System: propan-2-ol; phases: Liquid
Fixed: Pressure, kPa = 100
Property: Refractive index (Na D-line) (Liquid); method: Standard Abbe refractometry
Temperature, K	Refractive index (Na D-line)	uncertainty
293.15	1.377	0.005
303.15	1.373	0.005
313.15	1.369	0.005
323.15	1.364	0.005
298.15	1.375	0.005

System: butan-1-ol; phases: Liquid
Fixed: Pressure, kPa = 100
Property: Mass density, kg/m3 (Liquid); method: Vibrating tube method
Temperature, K	Mass density, kg/m3	uncertainty
293.15	810	3
303.15	802	3
313.15	794	3
323.15	787	3
298.15	806	3

System: butan-1-ol; phases: Liquid
Fixed: Pressure, kPa = 100
Fixed: Frequency, MHz = 3
Property: Speed of sound, m/s (Liquid); method: Single path-length method
Temperature, K	Speed of sound, m/s	uncertainty
293.15	1258.4	1.4
303.15	1225	1.4
313.15	1191.8	1.4
323.15	1158.7	1.4
298.15	1241.8	1.4

System: butan-1-ol; phases: Liquid
Fixed: Pressure, kPa = 100
Property: Refractive index (Na D-line) (Liquid); method: Standard Abbe refractometry
Temperature, K	Refractive index (Na D-line)	uncertainty
293.15	1.399	0.005
303.15	1.395	0.005
313.15	1.391	0.005
323.15	1.387	0.005
298.15	1.397	0.005

System: butan-2-ol; phases: Liquid
Fixed: Pressure, kPa = 100
Property: Mass density, kg/m3 (Liquid); method: Vibrating tube method
Temperature, K	Mass density, kg/m3	uncertainty
293.15	806	3
303.15	798	3
313.15	789	3
323.15	780	3
298.15	802	3

System: butan-2-ol; phases: Liquid
Fixed: Pressure, kPa = 100
Fixed: Frequency, MHz = 3
Property: Speed of sound, m/s (Liquid); method: Single path-length method
Temperature, K	Speed of sound, m/s	uncertainty
293.15	1230.1	1.6
303.15	1194.1	1.6
313.15	1157.7	1.6
323.15	1120.7	1.6
298.15	1212.1	1.6

System: butan-2-ol; phases: Liquid
Fixed: Pressure, kPa = 100
Property: Refractive index (Na D-line) (Liquid); method: Standard Abbe refractometry
Temperature, K	Refractive index (Na D-line)	uncertainty
293.15	1.397	0.005
303.15	1.393	0.005
313.15	1.389	0.005
323.15	1.384	0.005
298.15	1.395	0.005

System: 2-phenoxyethanol + propan-1-ol; phases: Liquid
Fixed: Pressure, kPa = 100
Property: Mass density, kg/m3 (Liquid); method: Vibrating tube method
Temperature, K	Mole fraction of 2-phenoxyethanol	Mass density, kg/m3	uncertainty
293.15	0	803	3
293.15	0.1045	856	3
293.15	0.2026	898	3
293.15	0.3043	936	3
293.15	0.3974	967	3
293.15	0.5027	998	3
293.15	0.5992	1024	3
293.15	0.6951	1047	3
293.15	0.8044	1071	3
293.15	0.859	1082	3
293.15	0.9018	1090	3
293.15	1	1107	3
303.15	0	796	3
303.15	0.1045	847	3
303.15	0.2026	890	3
303.15	0.3043	928	3
303.15	0.3974	959	3
303.15	0.5027	990	3
303.15	0.5992	1016	3
303.15	0.6951	1039	3
303.15	0.8044	1062	3
303.15	0.859	1073	3
303.15	0.9018	1081	3
303.15	1	1099	3
313.15	0	788	3
313.15	0.1045	839	3
313.15	0.2026	881	3
313.15	0.3043	919	3
313.15	0.3974	950	3
313.15	0.5027	981	3
313.15	0.5992	1007	3
313.15	0.6951	1030	3
313.15	0.8044	1054	3
313.15	0.859	1064	3
313.15	0.9018	1073	3
313.15	1	1090	3
323.15	0	780	3
323.15	0.1045	831	3
323.15	0.2026	872	3
323.15	0.3043	911	3
323.15	0.3974	942	3
323.15	0.5027	973	3
323.15	0.5992	998	3
323.15	0.6951	1021	3
323.15	0.8044	1045	3
323.15	0.859	1056	3
323.15	0.9018	1064	3
323.15	1	1081	3

System: 2-phenoxyethanol + propan-1-ol; phases: Liquid
Fixed: Pressure, kPa = 100
Fixed: Frequency, MHz = 3
Property: Speed of sound, m/s (Liquid); method: Single path-length method
Temperature, K	Mole fraction of 2-phenoxyethanol	Speed of sound, m/s	uncertainty
293.15	0	1224.3	1.6
293.15	0.1045	1281	1.6
293.15	0.2026	1328.3	1.6
293.15	0.3043	1372.9	1.6
293.15	0.3974	1410.5	1.6
293.15	0.5027	1449.7	1.6
293.15	0.5992	1482.4	1.6
293.15	0.6951	1512.1	1.6
293.15	0.8044	1543	1.6
293.15	0.859	1557.4	1.6
293.15	0.9018	1568.2	1.6
293.15	1	1591.8	1.6
303.15	0	1189.9	1.6
303.15	0.1045	1247.5	1.6
303.15	0.2026	1294.5	1.6
303.15	0.3043	1339.5	1.6
303.15	0.3974	1376.9	1.6
303.15	0.5027	1415.8	1.6
303.15	0.5992	1448.3	1.6
303.15	0.6951	1478.5	1.6
303.15	0.8044	1508.7	1.6
303.15	0.859	1522.9	1.6
303.15	0.9018	1534.1	1.6
303.15	1	1557.4	1.6
313.15	0	1156	1.6
313.15	0.1045	1214	1.6
313.15	0.2026	1261.1	1.6
313.15	0.3043	1306.4	1.6
313.15	0.3974	1343.5	1.6
313.15	0.5027	1382.3	1.6
313.15	0.5992	1414.7	1.6
313.15	0.6951	1444.8	1.6
313.15	0.8044	1474.8	1.6
313.15	0.859	1488.9	1.6
313.15	0.9018	1500.2	1.6
313.15	1	1522.9	1.6
323.15	0	1122.5	1.6
323.15	0.1045	1180.7	1.6
323.15	0.2026	1228	1.6
323.15	0.3043	1273.3	1.6
323.15	0.3974	1310.4	1.6
323.15	0.5027	1349.1	1.6
323.15	0.5992	1381.4	1.6
323.15	0.6951	1411.3	1.6
323.15	0.8044	1441.2	1.6
323.15	0.859	1455.3	1.6
323.15	0.9018	1466.5	1.6
323.15	1	1489.1	1.6

System: 2-phenoxyethanol + propan-1-ol; phases: Liquid
Fixed: Pressure, kPa = 100
Property: Refractive index (Na D-line) (Liquid); method: Standard Abbe refractometry
Temperature, K	Mole fraction of 2-phenoxyethanol	Refractive index (Na D-line)	uncertainty
293.15	0	1.385	0.005
293.15	0.1045	1.411	0.005
293.15	0.2026	1.433	0.005
293.15	0.3043	1.453	0.005
293.15	0.3974	1.469	0.005
293.15	0.5027	1.484	0.005
293.15	0.5992	1.497	0.005
293.15	0.6951	1.508	0.005
293.15	0.8044	1.52	0.005
293.15	0.859	1.526	0.005
293.15	0.9018	1.53	0.005
293.15	1	1.539	0.005
303.15	0	1.381	0.005
303.15	0.1045	1.408	0.005
303.15	0.2026	1.43	0.005
303.15	0.3043	1.45	0.005
303.15	0.3974	1.465	0.005
303.15	0.5027	1.48	0.005
303.15	0.5992	1.493	0.005
303.15	0.6951	1.504	0.005
303.15	0.8044	1.516	0.005
303.15	0.859	1.522	0.005
303.15	0.9018	1.526	0.005
303.15	1	1.534	0.005
313.15	0	1.377	0.005
313.15	0.1045	1.405	0.005
313.15	0.2026	1.426	0.005
313.15	0.3043	1.446	0.005
313.15	0.3974	1.461	0.005
313.15	0.5027	1.476	0.005
313.15	0.5992	1.49	0.005
313.15	0.6951	1.5	0.005
313.15	0.8044	1.512	0.005
313.15	0.859	1.518	0.005
313.15	0.9018	1.521	0.005
313.15	1	1.53	0.005
323.15	0	1.373	0.005
323.15	0.1045	1.401	0.005
323.15	0.2026	1.423	0.005
323.15	0.3043	1.442	0.005
323.15	0.3974	1.457	0.005
323.15	0.5027	1.473	0.005
323.15	0.5992	1.485	0.005
323.15	0.6951	1.497	0.005
323.15	0.8044	1.508	0.005
323.15	0.859	1.513	0.005
323.15	0.9018	1.517	0.005
323.15	1	1.526	0.005

System: 2-phenoxyethanol + propan-2-ol; phases: Liquid
Fixed: Pressure, kPa = 100
Property: Mass density, kg/m3 (Liquid); method: Vibrating tube method
Temperature, K	Mole fraction of 2-phenoxyethanol	Mass density, kg/m3	uncertainty
293.15	0	785	3
293.15	0.098	837	3
293.15	0.1981	882	3
293.15	0.3023	924	3
293.15	0.3974	958	3
293.15	0.4981	990	3
293.15	0.6071	1020	3
293.15	0.7009	1044	3
293.15	0.7974	1066	3
293.15	0.8826	1085	3
293.15	1	1107	3
303.15	0	777	3
303.15	0.098	828	3
303.15	0.1981	874	3
303.15	0.3023	915	3
303.15	0.3974	949	3
303.15	0.4981	981	3
303.15	0.6071	1012	3
303.15	0.7009	1036	3
303.15	0.7974	1058	3
303.15	0.8826	1076	3
303.15	1	1099	3
313.15	0	768	3
313.15	0.098	819	3
313.15	0.1981	865	3
313.15	0.3023	907	3
313.15	0.3974	940	3
313.15	0.4981	972	3
313.15	0.6071	1003	3
313.15	0.7009	1027	3
313.15	0.7974	1049	3
313.15	0.8826	1067	3
313.15	1	1090	3
323.15	0	759	3
323.15	0.098	810	3
323.15	0.1981	856	3
323.15	0.3023	897	3
323.15	0.3974	931	3
323.15	0.4981	963	3
323.15	0.6071	994	3
323.15	0.7009	1018	3
323.15	0.7974	1040	3
323.15	0.8826	1059	3
323.15	1	1081	3

System: 2-phenoxyethanol + propan-2-ol; phases: Liquid
Fixed: Pressure, kPa = 100
Fixed: Frequency, MHz = 3
Property: Speed of sound, m/s (Liquid); method: Single path-length method
Temperature, K	Mole fraction of 2-phenoxyethanol	Speed of sound, m/s	uncertainty
293.15	0	1157.8	1.3
293.15	0.098	1223.8	1.3
293.15	0.1981	1282.5	1.4
293.15	0.3023	1337.7	1.4
293.15	0.3974	1383.4	1.4
293.15	0.4981	1427.3	1.4
293.15	0.6071	1470.3	1.5
293.15	0.7009	1503.6	1.5
293.15	0.7974	1534.7	1.5
293.15	0.8826	1559.8	1.6
293.15	1	1591.8	1.6
303.15	0	1122.6	1.3
303.15	0.098	1189.5	1.3
303.15	0.1981	1248	1.4
303.15	0.3023	1303.7	1.4
303.15	0.3974	1348.8	1.4
303.15	0.4981	1392.9	1.4
303.15	0.6071	1435.6	1.5
303.15	0.7009	1468.9	1.5
303.15	0.7974	1499.9	1.5
303.15	0.8826	1525.1	1.6
303.15	1	1557.4	1.6
313.15	0	1087.4	1.3
313.15	0.098	1154.2	1.3
313.15	0.1981	1213.4	1.4
313.15	0.3023	1268.9	1.4
313.15	0.3974	1314.5	1.4
313.15	0.4981	1358.6	1.4
313.15	0.6071	1401.6	1.5
313.15	0.7009	1434.68	1.49
313.15	0.7974	1465.7	1.5
313.15	0.8826	1490.9	1.6
313.15	1	1522.9	1.6
323.15	0	1051.8	1.3
323.15	0.098	1119	1.3
323.15	0.1981	1178.7	1.4
323.15	0.3023	1234.5	1.4
323.15	0.3974	1280.3	1.4
323.15	0.4981	1324.4	1.4
323.15	0.6071	1367.2	1.5
323.15	0.7009	1400.6	1.5
323.15	0.7974	1431.9	1.5
323.15	0.8826	1457	1.6
323.15	1	1489.1	1.6

System: 2-phenoxyethanol + propan-2-ol; phases: Liquid
Fixed: Pressure, kPa = 100
Property: Refractive index (Na D-line) (Liquid); method: Standard Abbe refractometry
Temperature, K	Mole fraction of 2-phenoxyethanol	Refractive index (Na D-line)	uncertainty
293.15	0	1.377	0.005
293.15	0.098	1.403	0.005
293.15	0.1981	1.427	0.005
293.15	0.3023	1.448	0.005
293.15	0.3974	1.465	0.005
293.15	0.4981	1.481	0.005
293.15	0.6071	1.496	0.005
293.15	0.7009	1.508	0.005
293.15	0.7974	1.518	0.005
293.15	0.8826	1.527	0.005
293.15	1	1.539	0.005
303.15	0	1.373	0.005
303.15	0.098	1.4	0.005
303.15	0.1981	1.423	0.005
303.15	0.3023	1.445	0.005
303.15	0.3974	1.462	0.005
303.15	0.4981	1.478	0.005
303.15	0.6071	1.493	0.005
303.15	0.7009	1.505	0.005
303.15	0.7974	1.515	0.005
303.15	0.8826	1.524	0.005
303.15	1	1.534	0.005
313.15	0	1.369	0.005
313.15	0.098	1.396	0.005
313.15	0.1981	1.42	0.005
313.15	0.3023	1.442	0.005
313.15	0.3974	1.459	0.005
313.15	0.4981	1.475	0.005
313.15	0.6071	1.491	0.005
313.15	0.7009	1.502	0.005
313.15	0.7974	1.512	0.005
313.15	0.8826	1.52	0.005
313.15	1	1.53	0.005
323.15	0	1.364	0.005
323.15	0.098	1.393	0.005
323.15	0.1981	1.417	0.005
323.15	0.3023	1.438	0.005
323.15	0.3974	1.456	0.005
323.15	0.4981	1.472	0.005
323.15	0.6071	1.487	0.005
323.15	0.7009	1.498	0.005
323.15	0.7974	1.508	0.005
323.15	0.8826	1.516	0.005
323.15	1	1.526	0.005

System: 2-phenoxyethanol + butan-1-ol; phases: Liquid
Fixed: Pressure, kPa = 100
Property: Mass density, kg/m3 (Liquid); method: Vibrating tube method
Temperature, K	Mole fraction of 2-phenoxyethanol	Mass density, kg/m3	uncertainty
293.15	0	810	3
293.15	0.1033	851	3
293.15	0.1974	887	3
293.15	0.2967	921	3
293.15	0.3958	953	3
293.15	0.4913	981	3
293.15	0.6029	1013	3
293.15	0.6971	1037	3
293.15	0.7989	1062	3
293.15	0.9011	1086	3
293.15	1	1107	3
303.15	0	802	3
303.15	0.1033	844	3
303.15	0.1974	879	3
303.15	0.2967	913	3
303.15	0.3958	945	3
303.15	0.4913	973	3
303.15	0.6029	1004	3
303.15	0.6971	1029	3
303.15	0.7989	1054	3
303.15	0.9011	1077	3
303.15	1	1099	3
313.15	0	794	3
313.15	0.1033	836	3
313.15	0.1974	870	3
313.15	0.2967	904	3
313.15	0.3958	936	3
313.15	0.4913	965	3
313.15	0.6029	996	3
313.15	0.6971	1020	3
313.15	0.7989	1045	3
313.15	0.9011	1069	3
313.15	1	1090	3
323.15	0	787	3
323.15	0.1033	828	3
323.15	0.1974	862	3
323.15	0.2967	896	3
323.15	0.3958	928	3
323.15	0.4913	956	3
323.15	0.6029	987	3
323.15	0.6971	1012	3
323.15	0.7989	1037	3
323.15	0.9011	1060	3
323.15	1	1081	3

System: 2-phenoxyethanol + butan-1-ol; phases: Liquid
Fixed: Pressure, kPa = 100
Fixed: Frequency, MHz = 3
Property: Speed of sound, m/s (Liquid); method: Single path-length method
Temperature, K	Mole fraction of 2-phenoxyethanol	Speed of sound, m/s	uncertainty
293.15	0	1258.4	1.4
293.15	0.1033	1298.3	1.4
293.15	0.1974	1333.3	1.4
293.15	0.2967	1368.9	1.4
293.15	0.3958	1403.7	1.5
293.15	0.4913	1436.4	1.5
293.15	0.6029	1473.2	1.5
293.15	0.6971	1503.2	1.5
293.15	0.7989	1534.3	1.6
293.15	0.9011	1563.7	1.6
293.15	1	1591.8	1.6
303.15	0	1225	1.4
303.15	0.1033	1265.3	1.4
303.15	0.1974	1299.9	1.4
303.15	0.2967	1335.6	1.4
303.15	0.3958	1370.3	1.5
303.15	0.4913	1402.9	1.5
303.15	0.6029	1439.9	1.5
303.15	0.6971	1469.3	1.5
303.15	0.7989	1500	1.6
303.15	0.9011	1530.1	1.6
303.15	1	1557.4	1.6
313.15	0	1191.8	1.4
313.15	0.1033	1232.3	1.4
313.15	0.1974	1266.9	1.4
313.15	0.2967	1302.7	1.4
313.15	0.3958	1337.4	1.5
313.15	0.4913	1369.9	1.5
313.15	0.6029	1406.3	1.5
313.15	0.6971	1435.9	1.5
313.15	0.7989	1466.4	1.6
313.15	0.9011	1495.7	1.6
313.15	1	1522.9	1.6
323.15	0	1158.7	1.4
323.15	0.1033	1199.4	1.4
323.15	0.1974	1234.3	1.4
323.15	0.2967	1270.1	1.4
323.15	0.3958	1304.8	1.5
323.15	0.4913	1337.2	1.5
323.15	0.6029	1373.4	1.5
323.15	0.6971	1402.8	1.5
323.15	0.7989	1433.1	1.6
323.15	0.9011	1462.5	1.6
323.15	1	1489.1	1.6

System: 2-phenoxyethanol + butan-1-ol; phases: Liquid
Fixed: Pressure, kPa = 100
Property: Refractive index (Na D-line) (Liquid); method: Standard Abbe refractometry
Temperature, K	Mole fraction of 2-phenoxyethanol	Refractive index (Na D-line)	uncertainty
293.15	0	1.399	0.005
293.15	0.1033	1.419	0.005
293.15	0.1974	1.435	0.005
293.15	0.2967	1.451	0.005
293.15	0.3958	1.466	0.005
293.15	0.4913	1.48	0.005
293.15	0.6029	1.494	0.005
293.15	0.6971	1.506	0.005
293.15	0.7989	1.518	0.005
293.15	0.9011	1.528	0.005
293.15	1	1.539	0.005
303.15	0	1.395	0.005
303.15	0.1033	1.415	0.005
303.15	0.1974	1.431	0.005
303.15	0.2967	1.447	0.005
303.15	0.3958	1.462	0.005
303.15	0.4913	1.476	0.005
303.15	0.6029	1.491	0.005
303.15	0.6971	1.502	0.005
303.15	0.7989	1.514	0.005
303.15	0.9011	1.524	0.005
303.15	1	1.534	0.005
313.15	0	1.391	0.005
313.15	0.1033	1.411	0.005
313.15	0.1974	1.428	0.005
313.15	0.2967	1.443	0.005
313.15	0.3958	1.458	0.005
313.15	0.4913	1.472	0.005
313.15	0.6029	1.486	0.005
313.15	0.6971	1.498	0.005
313.15	0.7989	1.509	0.005
313.15	0.9011	1.52	0.005
313.15	1	1.53	0.005
323.15	0	1.387	0.005
323.15	0.1033	1.407	0.005
323.15	0.1974	1.424	0.005
323.15	0.2967	1.44	0.005
323.15	0.3958	1.454	0.005
323.15	0.4913	1.467	0.005
323.15	0.6029	1.482	0.005
323.15	0.6971	1.494	0.005
323.15	0.7989	1.505	0.005
323.15	0.9011	1.516	0.005
323.15	1	1.526	0.005

System: 2-phenoxyethanol + butan-2-ol; phases: Liquid
Fixed: Pressure, kPa = 100
Property: Mass density, kg/m3 (Liquid); method: Vibrating tube method
Temperature, K	Mole fraction of 2-phenoxyethanol	Mass density, kg/m3	uncertainty
293.15	0	806	3
293.15	0.1062	849	3
293.15	0.2025	885	3
293.15	0.303	920	3
293.15	0.3989	951	3
293.15	0.5066	984	3
293.15	0.6032	1011	3
293.15	0.7042	1038	3
293.15	0.8005	1062	3
293.15	0.9011	1085	3
293.15	1	1107	3
303.15	0	798	3
303.15	0.1062	841	3
303.15	0.2025	877	3
303.15	0.303	911	3
303.15	0.3989	943	3
303.15	0.5066	975	3
303.15	0.6032	1003	3
303.15	0.7042	1030	3
303.15	0.8005	1053	3
303.15	0.9011	1077	3
303.15	1	1099	3
313.15	0	789	3
313.15	0.1062	832	3
313.15	0.2025	868	3
313.15	0.303	903	3
313.15	0.3989	934	3
313.15	0.5066	967	3
313.15	0.6032	994	3
313.15	0.7042	1021	3
313.15	0.8005	1045	3
313.15	0.9011	1069	3
313.15	1	1090	3
323.15	0	780	3
323.15	0.1062	823	3
323.15	0.2025	859	3
323.15	0.303	894	3
323.15	0.3989	925	3
323.15	0.5066	958	3
323.15	0.6032	985	3
323.15	0.7042	1012	3
323.15	0.8005	1036	3
323.15	0.9011	1060	3
323.15	1	1081	3

System: 2-phenoxyethanol + butan-2-ol; phases: Liquid
Fixed: Pressure, kPa = 100
Fixed: Frequency, MHz = 3
Property: Speed of sound, m/s (Liquid); method: Single path-length method
Temperature, K	Mole fraction of 2-phenoxyethanol	Speed of sound, m/s	uncertainty
293.15	0	1230.1	1.6
293.15	0.1062	1276.8	1.6
293.15	0.2025	1316.8	1.6
293.15	0.303	1357	1.6
293.15	0.3989	1394.1	1.6
293.15	0.5066	1433.9	1.6
293.15	0.6032	1468.3	1.6
293.15	0.7042	1502.6	1.6
293.15	0.8005	1533.2	1.6
293.15	0.9011	1563.2	1.6
293.15	1	1591.8	1.6
303.15	0	1194.1	1.6
303.15	0.1062	1241.8	1.6
303.15	0.2025	1281.8	1.6
303.15	0.303	1322.3	1.6
303.15	0.3989	1359.5	1.6
303.15	0.5066	1399.7	1.6
303.15	0.6032	1433.8	1.6
303.15	0.7042	1468.4	1.6
303.15	0.8005	1498.6	1.6
303.15	0.9011	1529.2	1.6
303.15	1	1557.4	1.6
313.15	0	1157.7	1.6
313.15	0.1062	1205.8	1.6
313.15	0.2025	1246.8	1.6
313.15	0.303	1287.7	1.6
313.15	0.3989	1325.1	1.6
313.15	0.5066	1365.5	1.6
313.15	0.6032	1399.6	1.6
313.15	0.7042	1433.8	1.6
313.15	0.8005	1464.4	1.6
313.15	0.9011	1494.6	1.6
313.15	1	1522.9	1.6
323.15	0	1120.7	1.6
323.15	0.1062	1169.8	1.6
323.15	0.2025	1211.5	1.6
323.15	0.303	1252.9	1.6
323.15	0.3989	1290.7	1.6
323.15	0.5066	1331.3	1.6
323.15	0.6032	1365.6	1.6
323.15	0.7042	1399.8	1.6
323.15	0.8005	1430.5	1.6
323.15	0.9011	1460.8	1.6
323.15	1	1489.1	1.6

System: 2-phenoxyethanol + butan-2-ol; phases: Liquid
Fixed: Pressure, kPa = 100
Property: Refractive index (Na D-line) (Liquid); method: Standard Abbe refractometry
Temperature, K	Mole fraction of 2-phenoxyethanol	Refractive index (Na D-line)	uncertainty
293.15	0	1.397	0.005
293.15	0.1062	1.418	0.005
293.15	0.2025	1.434	0.005
293.15	0.303	1.451	0.005
293.15	0.3989	1.466	0.005
293.15	0.5066	1.481	0.005
293.15	0.6032	1.494	0.005
293.15	0.7042	1.506	0.005
293.15	0.8005	1.518	0.005
293.15	0.9011	1.529	0.005
293.15	1	1.539	0.005
303.15	0	1.393	0.005
303.15	0.1062	1.413	0.005
303.15	0.2025	1.43	0.005
303.15	0.303	1.447	0.005
303.15	0.3989	1.462	0.005
303.15	0.5066	1.477	0.005
303.15	0.6032	1.49	0.005
303.15	0.7042	1.501	0.005
303.15	0.8005	1.514	0.005
303.15	0.9011	1.524	0.005
303.15	1	1.534	0.005
313.15	0	1.389	0.005
313.15	0.1062	1.409	0.005
313.15	0.2025	1.427	0.005
313.15	0.303	1.443	0.005
313.15	0.3989	1.458	0.005
313.15	0.5066	1.473	0.005
313.15	0.6032	1.486	0.005
313.15	0.7042	1.499	0.005
313.15	0.8005	1.51	0.005
313.15	0.9011	1.52	0.005
313.15	1	1.53	0.005
323.15	0	1.384	0.005
323.15	0.1062	1.405	0.005
323.15	0.2025	1.423	0.005
323.15	0.303	1.44	0.005
323.15	0.3989	1.454	0.005
323.15	0.5066	1.469	0.005
323.15	0.6032	1.482	0.005
323.15	0.7042	1.494	0.005
323.15	0.8005	1.506	0.005
323.15	0.9011	1.516	0.005
323.15	1	1.526	0.005
